=
 OpenBabel11062418473D

 43 49  0  0  1  0  0  0  0  0999 V2000
  188.9980  171.5390  143.0910 N   0  0  0  0  0  0  0  0  0  0  0  0
  190.3840  173.1930  143.7400 C   0  0  0  0  0  0  0  0  0  0  0  0
  197.2800  173.8450  140.5790 O   0  0  0  0  0  0  0  0  0  0  0  0
  193.7810  172.2840  139.6820 C   0  0  0  0  0  2  0  0  0  0  0  0
  192.8870  175.7120  144.5200 C   0  0  2  0  0  0  0  0  0  0  0  0
  196.0970  175.5230  141.6790 N   0  0  0  0  0  2  0  0  0  0  0  0
  196.4620  172.2760  136.9000 C   0  0  1  0  0  3  0  0  0  0  0  0
  192.3940  176.7440  145.5070 C   0  0  0  0  0  2  0  0  0  0  0  0
  196.8680  175.2530  138.0650 C   0  0  0  0  0  2  0  0  0  0  0  0
  190.9190  174.2650  144.6500 C   0  0  1  0  0  3  0  0  0  0  0  0
  189.2430  172.3570  144.0610 C   0  0  0  0  0  3  0  0  0  0  0  0
  197.5750  173.3130  136.6540 C   0  0  2  0  0  3  0  0  0  0  0  0
  196.7890  175.0060  140.5430 C   0  0  0  0  0  0  0  0  0  0  0  0
  189.9630  171.7320  142.0180 C   0  0  1  0  0  3  0  0  0  0  0  0
  191.6970  176.5740  144.1570 C   0  0  2  0  0  3  0  0  0  0  0  0
  191.7750  172.5030  137.8190 S   0  0  0  0  0  0  0  0  0  0  0  0
  190.7910  172.8710  142.5160 C   0  0  0  0  0  0  0  0  0  0  0  0
  192.4360  174.2690  144.7140 C   0  0  0  0  0  2  0  0  0  0  0  0
  197.9220  171.8780  136.9950 C   0  0  0  0  0  2  0  0  0  0  0  0
  194.3590  171.9920  138.3150 C   0  0  2  0  0  3  0  0  0  0  0  0
  195.2140  175.1070  143.8800 C   0  0  0  0  0  3  0  0  0  0  0  0
  191.9780  173.4630  141.8220 C   0  0  0  0  0  2  0  0  0  0  0  0
  194.0840  176.0520  143.6460 C   0  0  0  0  0  2  0  0  0  0  0  0
  196.1280  174.8630  142.9440 C   0  0  0  0  0  3  0  0  0  0  0  0
  190.4800  175.6510  144.2000 C   0  0  2  0  0  3  0  0  0  0  0  0
  192.2630  172.3790  139.5730 C   0  0  2  0  0  3  0  0  0  0  0  0
  190.7840  170.5410  141.8920 N   0  0  0  0  0  1  0  0  0  0  0  0
  196.8920  175.7900  139.3890 O   0  0  0  0  0  0  0  0  0  0  0  0
  197.9410  174.1990  137.8430 C   0  0  0  0  0  2  0  0  0  0  0  0
  195.8510  172.3370  138.2980 C   0  0  0  0  0  2  0  0  0  0  0  0
  191.7650  173.6040  140.3230 C   0  0  0  0  0  2  0  0  0  0  0  0
  193.4940  172.7130  137.2830 C   0  0  2  0  0  3  0  0  0  0  0  0
  188.9590  175.5260  146.1800 C   0  0  0  0  0  3  0  0  0  0  0  0
  189.3610  176.2120  145.0300 C   0  0  0  0  0  0  0  0  0  0  0  0
  187.6010  177.8440  145.4020 C   0  0  0  0  0  3  0  0  0  0  0  0
  187.8880  175.9980  146.9450 C   0  0  0  0  0  3  0  0  0  0  0  0
  188.6690  177.3700  144.6370 C   0  0  0  0  0  3  0  0  0  0  0  0
  187.2120  177.1610  146.5610 C   0  0  0  0  0  0  0  0  0  0  0  0
  184.8270  177.4760  146.6200 N   0  0  0  0  0  1  0  0  0  0  0  0
  186.0600  177.6530  147.3660 C   0  0  0  0  0  2  0  0  0  0  0  0
  193.8100  174.1760  137.1310 C   0  0  0  0  0  0  0  0  0  0  0  0
  193.6390  174.9800  138.0860 O   0  0  0  0  0  1  0  0  0  0  0  0
  194.3080  174.6450  135.9250 O   0  0  0  0  0  0  0  0  0  0  0  0
  1 11  2  0  0  0  0
  2 11  1  0  0  0  0
  2 10  1  0  0  0  0
  5 23  1  6  0  0  0
  5 18  1  0  0  0  0
  5  8  1  0  0  0  0
  6 24  1  0  0  0  0
  7 19  1  1  0  0  0
  7 30  1  0  0  0  0
  9 28  1  0  0  0  0
 10 18  1  6  0  0  0
 12  7  1  0  0  0  0
 12 19  1  1  0  0  0
 12 29  1  0  0  0  0
 13  3  2  0  0  0  0
 13  6  1  0  0  0  0
 14 27  1  1  0  0  0
 14 17  1  0  0  0  0
 14  1  1  0  0  0  0
 15 25  1  0  0  0  0
 15  5  1  0  0  0  0
 15  8  1  1  0  0  0
 16 26  1  0  0  0  0
 17  2  2  0  0  0  0
 20 30  1  1  0  0  0
 20  4  1  0  0  0  0
 22 17  1  0  0  0  0
 23 21  1  0  0  0  0
 24 21  2  0  0  0  0
 25 10  1  0  0  0  0
 25 34  1  1  0  0  0
 26  4  1  6  0  0  0
 26 31  1  0  0  0  0
 28 13  1  0  0  0  0
 29  9  1  0  0  0  0
 31 22  1  0  0  0  0
 32 41  1  1  0  0  0
 32 16  1  0  0  0  0
 32 20  1  0  0  0  0
 33 36  1  0  0  0  0
 34 33  2  0  0  0  0
 35 38  1  0  0  0  0
 37 34  1  0  0  0  0
 37 35  2  0  0  0  0
 38 36  2  0  0  0  0
 38 40  1  0  0  0  0
 39 40  1  0  0  0  0
 41 42  1  0  0  0  0
 43 41  2  0  0  0  0
M  END
>  <MODEL>
1

>  <REMARK>
 VINA RESULT:      -7.9      0.000      0.000
  Name = 
  3 active torsions:
  status: ('A' for Active; 'I' for Inactive)
    1  A    between atoms: C_7  and  C_42
    2  A    between atoms: C_19  and  C_33
    3  A    between atoms: C_34  and  C_39
                            x       y       z     vdW  Elec       q    Type
                         _______ _______ _______ _____ _____    ______ ____

>  <TORSDO>
F 3

$$$$
=
 OpenBabel11062418473D

 43 49  0  0  1  0  0  0  0  0999 V2000
  187.4550  172.5330  141.1430 N   0  0  0  0  0  0  0  0  0  0  0  0
  187.8950  174.3440  142.4100 C   0  0  0  0  0  0  0  0  0  0  0  0
  194.7540  175.1800  145.6100 O   0  0  0  0  0  0  0  0  0  0  0  0
  193.1560  173.2780  142.5580 C   0  0  0  0  0  2  0  0  0  0  0  0
  188.9770  177.1100  144.5090 C   0  0  2  0  0  0  0  0  0  0  0  0
  193.2050  176.8690  145.1930 N   0  0  0  0  0  2  0  0  0  0  0  0
  197.0070  173.1840  142.8510 C   0  0  1  0  0  3  0  0  0  0  0  0
  187.9350  178.1980  144.6280 C   0  0  0  0  0  2  0  0  0  0  0  0
  196.4660  176.2870  143.5320 C   0  0  0  0  0  2  0  0  0  0  0  0
  187.5730  175.5410  143.2630 C   0  0  1  0  0  3  0  0  0  0  0  0
  186.8930  173.4630  141.8430 C   0  0  0  0  0  3  0  0  0  0  0  0
  197.9410  174.2710  143.4200 C   0  0  2  0  0  3  0  0  0  0  0  0
  194.5040  176.2910  145.0680 C   0  0  0  0  0  0  0  0  0  0  0  0
  188.9030  172.6860  141.1800 C   0  0  1  0  0  3  0  0  0  0  0  0
  188.5210  177.8380  143.2630 C   0  0  2  0  0  3  0  0  0  0  0  0
  193.3110  173.1550  139.8180 S   0  0  0  0  0  0  0  0  0  0  0  0
  189.0860  173.9290  141.9880 C   0  0  0  0  0  0  0  0  0  0  0  0
  188.4930  175.6640  144.4640 C   0  0  0  0  0  2  0  0  0  0  0  0
  197.8560  172.9090  144.0770 C   0  0  0  0  0  2  0  0  0  0  0  0
  194.5670  172.8920  142.1720 C   0  0  2  0  0  3  0  0  0  0  0  0
  190.9370  176.6170  145.9600 C   0  0  0  0  0  3  0  0  0  0  0  0
  190.3970  174.5330  142.3850 C   0  0  0  0  0  2  0  0  0  0  0  0
  190.4240  177.4460  144.8300 C   0  0  0  0  0  2  0  0  0  0  0  0
  192.2330  176.3470  146.0970 C   0  0  0  0  0  3  0  0  0  0  0  0
  187.6810  176.8360  142.4720 C   0  0  2  0  0  3  0  0  0  0  0  0
  192.2730  173.2490  141.3150 C   0  0  2  0  0  3  0  0  0  0  0  0
  189.4880  171.5540  141.8750 N   0  0  0  0  0  1  0  0  0  0  0  0
  195.4810  176.9580  144.3210 O   0  0  0  0  0  0  0  0  0  0  0  0
  197.2900  175.2990  144.3430 C   0  0  0  0  0  2  0  0  0  0  0  0
  195.5440  173.3430  143.2600 C   0  0  0  0  0  2  0  0  0  0  0  0
  191.4160  174.5030  141.2570 C   0  0  0  0  0  2  0  0  0  0  0  0
  194.8300  173.4360  140.7690 C   0  0  2  0  0  3  0  0  0  0  0  0
  185.3200  177.4470  143.0200 C   0  0  0  0  0  3  0  0  0  0  0  0
  186.3460  177.3950  142.0710 C   0  0  0  0  0  0  0  0  0  0  0  0
  184.8230  178.2720  140.3940 C   0  0  0  0  0  3  0  0  0  0  0  0
  184.0520  177.9160  142.6620 C   0  0  0  0  0  3  0  0  0  0  0  0
  186.0890  177.8000  140.7500 C   0  0  0  0  0  3  0  0  0  0  0  0
  183.8040  178.3350  141.3510 C   0  0  0  0  0  0  0  0  0  0  0  0
  181.7910  177.8250  140.1350 N   0  0  0  0  0  1  0  0  0  0  0  0
  182.4490  178.8170  140.9670 C   0  0  0  0  0  2  0  0  0  0  0  0
  195.1940  174.8950  140.7340 C   0  0  0  0  0  0  0  0  0  0  0  0
  196.3090  175.2760  140.2880 O   0  0  0  0  0  0  0  0  0  0  0  0
  194.2830  175.8370  141.1910 O   0  0  0  0  0  1  0  0  0  0  0  0
  1 14  1  0  0  0  0
  1 11  2  0  0  0  0
  2 10  1  0  0  0  0
  5 18  1  1  0  0  0
  5  8  1  0  0  0  0
  5 23  1  0  0  0  0
  6 24  1  0  0  0  0
  7 30  1  1  0  0  0
  7 12  1  0  0  0  0
  7 19  1  0  0  0  0
  9 28  1  0  0  0  0
  9 29  1  0  0  0  0
 10 18  1  1  0  0  0
 11  2  1  0  0  0  0
 12 19  1  1  0  0  0
 12 29  1  0  0  0  0
 13  6  1  0  0  0  0
 13  3  2  0  0  0  0
 14 27  1  1  0  0  0
 14 17  1  0  0  0  0
 15  5  1  0  0  0  0
 15  8  1  1  0  0  0
 16 32  1  0  0  0  0
 16 26  1  0  0  0  0
 17 22  1  0  0  0  0
 17  2  2  0  0  0  0
 20  4  1  1  0  0  0
 20 30  1  0  0  0  0
 21 24  2  0  0  0  0
 23 21  1  0  0  0  0
 25 34  1  1  0  0  0
 25 15  1  0  0  0  0
 25 10  1  0  0  0  0
 26 31  1  6  0  0  0
 26  4  1  0  0  0  0
 28 13  1  0  0  0  0
 31 22  1  0  0  0  0
 32 41  1  1  0  0  0
 32 20  1  0  0  0  0
 34 33  2  0  0  0  0
 35 37  2  0  0  0  0
 35 38  1  0  0  0  0
 36 33  1  0  0  0  0
 37 34  1  0  0  0  0
 38 36  2  0  0  0  0
 39 40  1  0  0  0  0
 40 38  1  0  0  0  0
 41 43  1  0  0  0  0
 42 41  2  0  0  0  0
M  END
>  <MODEL>
2

>  <REMARK>
 VINA RESULT:      -7.3      3.177      4.695
  Name = 
  3 active torsions:
  status: ('A' for Active; 'I' for Inactive)
    1  A    between atoms: C_7  and  C_42
    2  A    between atoms: C_19  and  C_33
    3  A    between atoms: C_34  and  C_39
                            x       y       z     vdW  Elec       q    Type
                         _______ _______ _______ _____ _____    ______ ____

>  <TORSDO>
F 3

$$$$
=
 OpenBabel11062418473D

 43 49  0  0  1  0  0  0  0  0999 V2000
  189.2710  171.3590  142.7250 N   0  0  0  0  0  0  0  0  0  0  0  0
  190.5810  173.1480  143.1320 C   0  0  0  0  0  0  0  0  0  0  0  0
  197.2900  173.8400  139.6000 O   0  0  0  0  0  0  0  0  0  0  0  0
  193.8580  172.0010  139.0360 C   0  0  0  0  0  2  0  0  0  0  0  0
  192.9580  175.8710  143.5270 C   0  0  2  0  0  0  0  0  0  0  0  0
  196.0550  175.5580  140.5740 N   0  0  0  0  0  2  0  0  0  0  0  0
  196.4180  171.8450  136.1470 C   0  0  1  0  0  3  0  0  0  0  0  0
  192.4440  176.9730  144.4230 C   0  0  0  0  0  2  0  0  0  0  0  0
  196.6920  174.9470  136.9750 C   0  0  0  0  0  2  0  0  0  0  0  0
  191.0870  174.3390  143.8990 C   0  0  1  0  0  3  0  0  0  0  0  0
  189.5070  172.2890  143.5910 C   0  0  0  0  0  3  0  0  0  0  0  0
  197.4560  172.9100  135.7420 C   0  0  2  0  0  3  0  0  0  0  0  0
  196.7290  174.9620  139.4660 C   0  0  0  0  0  0  0  0  0  0  0  0
  190.1790  171.4900  141.5930 C   0  0  1  0  0  3  0  0  0  0  0  0
  191.7050  176.6210  143.1330 C   0  0  2  0  0  3  0  0  0  0  0  0
  191.7670  171.9090  137.2560 S   0  0  0  0  0  0  0  0  0  0  0  0
  190.9560  172.7200  141.9310 C   0  0  0  0  0  0  0  0  0  0  0  0
  192.6020  174.4340  143.8910 C   0  0  0  0  0  2  0  0  0  0  0  0
  197.9020  171.5410  136.2130 C   0  0  0  0  0  2  0  0  0  0  0  0
  194.3960  171.5970  137.6810 C   0  0  2  0  0  3  0  0  0  0  0  0
  195.2890  175.3310  142.8450 C   0  0  0  0  0  3  0  0  0  0  0  0
  192.0760  173.2990  141.1230 C   0  0  0  0  0  2  0  0  0  0  0  0
  194.0960  176.1810  142.5670 C   0  0  0  0  0  2  0  0  0  0  0  0
  196.1770  175.0390  141.8980 C   0  0  0  0  0  3  0  0  0  0  0  0
  190.5470  175.6420  143.3280 C   0  0  2  0  0  3  0  0  0  0  0  0
  192.3330  172.0000  138.9880 C   0  0  2  0  0  3  0  0  0  0  0  0
  191.0640  170.3410  141.5530 N   0  0  0  0  0  1  0  0  0  0  0  0
  196.7370  175.6220  138.2330 O   0  0  0  0  0  0  0  0  0  0  0  0
  197.8170  173.9360  136.8140 C   0  0  0  0  0  2  0  0  0  0  0  0
  195.8620  172.0200  137.5580 C   0  0  0  0  0  2  0  0  0  0  0  0
  191.7940  173.2680  139.6300 C   0  0  0  0  0  2  0  0  0  0  0  0
  193.4470  172.1550  136.6210 C   0  0  2  0  0  3  0  0  0  0  0  0
  188.7410  177.3380  143.6570 C   0  0  0  0  0  3  0  0  0  0  0  0
  189.4320  176.2260  144.1470 C   0  0  0  0  0  0  0  0  0  0  0  0
  188.1060  176.3130  146.1800 C   0  0  0  0  0  3  0  0  0  0  0  0
  187.7310  177.9330  144.4190 C   0  0  0  0  0  3  0  0  0  0  0  0
  189.1170  175.7210  145.4200 C   0  0  0  0  0  3  0  0  0  0  0  0
  187.4080  177.4170  145.6790 C   0  0  0  0  0  0  0  0  0  0  0  0
  185.0420  177.5630  146.0950 N   0  0  0  0  0  1  0  0  0  0  0  0
  186.3440  178.0630  146.4970 C   0  0  0  0  0  2  0  0  0  0  0  0
  193.6680  173.6090  136.3030 C   0  0  0  0  0  0  0  0  0  0  0  0
  194.0150  173.9760  135.1480 O   0  0  0  0  0  0  0  0  0  0  0  0
  193.4760  174.5610  137.2940 O   0  0  0  0  0  1  0  0  0  0  0  0
  1 11  2  0  0  0  0
  2 11  1  0  0  0  0
  2 10  1  0  0  0  0
  5 23  1  6  0  0  0
  5 18  1  0  0  0  0
  5  8  1  0  0  0  0
  6 24  1  0  0  0  0
  7 19  1  1  0  0  0
  7 30  1  0  0  0  0
  9 28  1  0  0  0  0
 10 18  1  6  0  0  0
 12  7  1  0  0  0  0
 12 19  1  1  0  0  0
 12 29  1  0  0  0  0
 13  3  2  0  0  0  0
 13  6  1  0  0  0  0
 14 27  1  1  0  0  0
 14 17  1  0  0  0  0
 14  1  1  0  0  0  0
 15 25  1  0  0  0  0
 15  5  1  0  0  0  0
 15  8  1  1  0  0  0
 16 26  1  0  0  0  0
 17  2  2  0  0  0  0
 20 30  1  6  0  0  0
 20  4  1  0  0  0  0
 22 17  1  0  0  0  0
 23 21  1  0  0  0  0
 24 21  2  0  0  0  0
 25 10  1  0  0  0  0
 25 34  1  1  0  0  0
 26  4  1  6  0  0  0
 26 31  1  0  0  0  0
 28 13  1  0  0  0  0
 29  9  1  0  0  0  0
 31 22  1  0  0  0  0
 32 41  1  1  0  0  0
 32 16  1  0  0  0  0
 32 20  1  0  0  0  0
 33 34  2  0  0  0  0
 33 36  1  0  0  0  0
 34 37  1  0  0  0  0
 36 38  2  0  0  0  0
 37 35  2  0  0  0  0
 38 35  1  0  0  0  0
 38 40  1  0  0  0  0
 39 40  1  0  0  0  0
 41 43  1  0  0  0  0
 42 41  2  0  0  0  0
M  END
>  <MODEL>
3

>  <REMARK>
 VINA RESULT:      -7.3      0.868      1.258
  Name = 
  3 active torsions:
  status: ('A' for Active; 'I' for Inactive)
    1  A    between atoms: C_7  and  C_42
    2  A    between atoms: C_19  and  C_33
    3  A    between atoms: C_34  and  C_39
                            x       y       z     vdW  Elec       q    Type
                         _______ _______ _______ _____ _____    ______ ____

>  <TORSDO>
F 3

$$$$
=
 OpenBabel11062418473D

 43 49  0  0  1  0  0  0  0  0999 V2000
  195.0270  170.4120  143.1980 N   0  0  0  0  0  0  0  0  0  0  0  0
  193.7490  170.9390  141.4180 C   0  0  0  0  0  0  0  0  0  0  0  0
  187.3040  174.8750  142.3870 O   0  0  0  0  0  0  0  0  0  0  0  0
  190.7080  174.3160  144.2780 C   0  0  0  0  0  2  0  0  0  0  0  0
  191.4340  171.9680  138.8090 C   0  0  2  0  0  0  0  0  0  0  0  0
  188.5260  174.6840  140.4130 N   0  0  0  0  0  2  0  0  0  0  0  0
  188.3350  177.0070  145.7120 C   0  0  1  0  0  3  0  0  0  0  0  0
  191.9220  171.6220  137.4220 C   0  0  0  0  0  2  0  0  0  0  0  0
  188.1030  177.6680  142.5670 C   0  0  0  0  0  2  0  0  0  0  0  0
  193.2300  170.8210  140.0110 C   0  0  1  0  0  3  0  0  0  0  0  0
  194.7640  170.0700  141.9800 C   0  0  0  0  0  3  0  0  0  0  0  0
  187.3580  177.9160  144.9410 C   0  0  2  0  0  3  0  0  0  0  0  0
  187.9060  175.4550  141.4420 C   0  0  0  0  0  0  0  0  0  0  0  0
  194.1980  171.5450  143.5870 C   0  0  1  0  0  3  0  0  0  0  0  0
  192.7320  172.5650  138.3110 C   0  0  2  0  0  3  0  0  0  0  0  0
  192.9050  175.7150  145.1520 S   0  0  0  0  0  0  0  0  0  0  0  0
  193.4380  171.8470  142.3370 C   0  0  0  0  0  0  0  0  0  0  0  0
  191.7220  170.9770  139.9320 C   0  0  0  0  0  2  0  0  0  0  0  0
  186.8420  176.9170  145.9570 C   0  0  0  0  0  2  0  0  0  0  0  0
  190.2460  175.3840  145.2450 C   0  0  2  0  0  3  0  0  0  0  0  0
  189.1360  172.5020  139.6010 C   0  0  0  0  0  3  0  0  0  0  0  0
  192.3910  172.9050  142.1820 C   0  0  0  0  0  2  0  0  0  0  0  0
  190.3710  173.0440  138.9620 C   0  0  0  0  0  2  0  0  0  0  0  0
  188.3030  173.2800  140.2860 C   0  0  0  0  0  3  0  0  0  0  0  0
  193.8450  171.8720  139.0990 C   0  0  2  0  0  3  0  0  0  0  0  0
  192.2320  174.2500  144.2980 C   0  0  2  0  0  3  0  0  0  0  0  0
  193.2830  171.1310  144.6360 N   0  0  0  0  0  1  0  0  0  0  0  0
  187.9970  176.8500  141.4010 O   0  0  0  0  0  0  0  0  0  0  0  0
  186.9610  177.4420  143.5450 C   0  0  0  0  0  2  0  0  0  0  0  0
  188.8050  175.7860  144.9240 C   0  0  0  0  0  2  0  0  0  0  0  0
  192.7670  174.2040  142.8760 C   0  0  0  0  0  2  0  0  0  0  0  0
  191.2770  176.5110  145.2180 C   0  0  2  0  0  3  0  0  0  0  0  0
  195.6450  172.2020  137.3970 C   0  0  0  0  0  3  0  0  0  0  0  0
  194.9220  171.3220  138.2090 C   0  0  0  0  0  0  0  0  0  0  0  0
  196.1460  169.4530  137.2550 C   0  0  0  0  0  3  0  0  0  0  0  0
  196.6210  171.7130  136.5220 C   0  0  0  0  0  3  0  0  0  0  0  0
  195.1700  169.9420  138.1270 C   0  0  0  0  0  3  0  0  0  0  0  0
  196.8770  170.3390  136.4550 C   0  0  0  0  0  0  0  0  0  0  0  0
  197.6310  168.4230  135.2080 N   0  0  0  0  0  1  0  0  0  0  0  0
  197.9030  169.8180  135.5100 C   0  0  0  0  0  2  0  0  0  0  0  0
  191.1210  177.4580  144.0600 C   0  0  0  0  0  0  0  0  0  0  0  0
  190.8140  178.6660  144.2440 O   0  0  0  0  0  1  0  0  0  0  0  0
  191.3310  176.9960  142.7680 O   0  0  0  0  0  0  0  0  0  0  0  0
  1 14  1  0  0  0  0
  2 11  1  0  0  0  0
  2 17  2  0  0  0  0
  4 26  1  0  0  0  0
  5  8  1  6  0  0  0
  5 23  1  0  0  0  0
  5 18  1  0  0  0  0
  6 13  1  0  0  0  0
  7 30  1  6  0  0  0
  7 19  1  0  0  0  0
  9 29  1  0  0  0  0
 10 18  1  1  0  0  0
 10  2  1  0  0  0  0
 11  1  2  0  0  0  0
 12 29  1  6  0  0  0
 12  7  1  0  0  0  0
 12 19  1  0  0  0  0
 13  3  2  0  0  0  0
 14 27  1  1  0  0  0
 15  8  1  6  0  0  0
 15  5  1  0  0  0  0
 15 25  1  0  0  0  0
 16 32  1  0  0  0  0
 17 14  1  0  0  0  0
 20  4  1  6  0  0  0
 21 24  2  0  0  0  0
 22 17  1  0  0  0  0
 22 31  1  0  0  0  0
 23 21  1  0  0  0  0
 24  6  1  0  0  0  0
 25 34  1  6  0  0  0
 25 10  1  0  0  0  0
 26 31  1  6  0  0  0
 26 16  1  0  0  0  0
 28 13  1  0  0  0  0
 28  9  1  0  0  0  0
 30 20  1  0  0  0  0
 32 41  1  6  0  0  0
 32 20  1  0  0  0  0
 33 34  1  0  0  0  0
 35 37  1  0  0  0  0
 36 33  2  0  0  0  0
 37 34  2  0  0  0  0
 38 36  1  0  0  0  0
 38 35  2  0  0  0  0
 39 40  1  0  0  0  0
 40 38  1  0  0  0  0
 41 42  1  0  0  0  0
 43 41  2  0  0  0  0
M  END
>  <MODEL>
4

>  <REMARK>
 VINA RESULT:      -7.1      3.508      9.826
  Name = 
  3 active torsions:
  status: ('A' for Active; 'I' for Inactive)
    1  A    between atoms: C_7  and  C_42
    2  A    between atoms: C_19  and  C_33
    3  A    between atoms: C_34  and  C_39
                            x       y       z     vdW  Elec       q    Type
                         _______ _______ _______ _____ _____    ______ ____

>  <TORSDO>
F 3

$$$$
=
 OpenBabel11062418473D

 43 49  0  0  1  0  0  0  0  0999 V2000
  193.6620  177.4540  145.5460 N   0  0  0  0  0  0  0  0  0  0  0  0
  192.1130  176.3740  144.3150 C   0  0  0  0  0  0  0  0  0  0  0  0
  194.2150  170.7680  139.6120 O   0  0  0  0  0  0  0  0  0  0  0  0
  195.5800  172.5450  142.8460 C   0  0  0  0  0  2  0  0  0  0  0  0
  189.9210  174.4120  142.1780 C   0  0  2  0  0  0  0  0  0  0  0  0
  192.0830  171.1170  140.4840 N   0  0  0  0  0  2  0  0  0  0  0  0
  197.4990  169.4210  141.6290 C   0  0  1  0  0  3  0  0  0  0  0  0
  188.4600  174.7430  142.3750 C   0  0  0  0  0  2  0  0  0  0  0  0
  194.4660  168.3920  141.2750 C   0  0  0  0  0  2  0  0  0  0  0  0
  190.7860  176.1770  143.6350 C   0  0  1  0  0  3  0  0  0  0  0  0
  192.4720  177.5680  145.0560 C   0  0  0  0  0  3  0  0  0  0  0  0
  196.9310  168.1790  140.9140 C   0  0  2  0  0  3  0  0  0  0  0  0
  193.2360  170.3060  140.2590 C   0  0  0  0  0  0  0  0  0  0  0  0
  194.2350  176.1680  145.1710 C   0  0  1  0  0  3  0  0  0  0  0  0
  189.2890  174.1960  143.5360 C   0  0  2  0  0  3  0  0  0  0  0  0
  196.2320  171.9920  145.4560 S   0  0  0  0  0  0  0  0  0  0  0  0
  193.1240  175.5170  144.4140 C   0  0  0  0  0  0  0  0  0  0  0  0
  190.9260  175.5560  142.2570 C   0  0  0  0  0  2  0  0  0  0  0  0
  197.9400  169.0710  140.2210 C   0  0  0  0  0  2  0  0  0  0  0  0
  196.6680  171.4950  142.8580 C   0  0  2  0  0  3  0  0  0  0  0  0
  191.0540  173.2830  140.2730 C   0  0  0  0  0  3  0  0  0  0  0  0
  193.1830  174.1770  143.7490 C   0  0  0  0  0  2  0  0  0  0  0  0
  190.2880  173.0830  141.5370 C   0  0  0  0  0  2  0  0  0  0  0  0
  191.8970  172.3630  139.8120 C   0  0  0  0  0  3  0  0  0  0  0  0
  189.8690  175.2770  144.4490 C   0  0  2  0  0  3  0  0  0  0  0  0
  195.3850  173.0800  144.2610 C   0  0  2  0  0  3  0  0  0  0  0  0
  195.3700  176.3880  144.2930 N   0  0  0  0  0  1  0  0  0  0  0  0
  193.2740  169.0100  140.7860 O   0  0  0  0  0  0  0  0  0  0  0  0
  195.5750  168.3570  140.2350 C   0  0  0  0  0  2  0  0  0  0  0  0
  196.5750  170.6370  141.5940 C   0  0  0  0  0  2  0  0  0  0  0  0
  193.9030  173.1380  144.5940 C   0  0  0  0  0  2  0  0  0  0  0  0
  196.5730  170.7440  144.1850 C   0  0  2  0  0  3  0  0  0  0  0  0
  188.2460  177.1720  144.5990 C   0  0  0  0  0  3  0  0  0  0  0  0
  188.8050  176.0350  145.1900 C   0  0  0  0  0  0  0  0  0  0  0  0
  187.4550  176.4160  147.1730 C   0  0  0  0  0  3  0  0  0  0  0  0
  187.2900  177.9260  145.2860 C   0  0  0  0  0  3  0  0  0  0  0  0
  188.4130  175.6650  146.4870 C   0  0  0  0  0  3  0  0  0  0  0  0
  186.8880  177.5450  146.5710 C   0  0  0  0  0  0  0  0  0  0  0  0
  184.5820  178.2260  146.6770 N   0  0  0  0  0  1  0  0  0  0  0  0
  185.8830  178.3590  147.3090 C   0  0  0  0  0  2  0  0  0  0  0  0
  195.5120  169.6790  144.2130 C   0  0  0  0  0  0  0  0  0  0  0  0
  194.2930  169.9720  144.0810 O   0  0  0  0  0  0  0  0  0  0  0  0
  195.8810  168.3520  144.3770 O   0  0  0  0  0  1  0  0  0  0  0  0
  2 17  2  0  0  0  0
  2 11  1  0  0  0  0
  3 13  2  0  0  0  0
  4 20  1  0  0  0  0
  5 23  1  6  0  0  0
  5 18  1  0  0  0  0
  5  8  1  0  0  0  0
  5 15  1  0  0  0  0
  7 19  1  6  0  0  0
 10 18  1  6  0  0  0
 10  2  1  0  0  0  0
 10 25  1  0  0  0  0
 11  1  2  0  0  0  0
 12 19  1  6  0  0  0
 12  7  1  0  0  0  0
 13  6  1  0  0  0  0
 13 28  1  0  0  0  0
 14 27  1  6  0  0  0
 14  1  1  0  0  0  0
 15  8  1  6  0  0  0
 15 25  1  0  0  0  0
 17 14  1  0  0  0  0
 20 30  1  6  0  0  0
 20 32  1  0  0  0  0
 21 23  1  0  0  0  0
 22 17  1  0  0  0  0
 22 31  1  0  0  0  0
 24 21  2  0  0  0  0
 24  6  1  0  0  0  0
 25 34  1  6  0  0  0
 26  4  1  6  0  0  0
 26 31  1  0  0  0  0
 26 16  1  0  0  0  0
 28  9  1  0  0  0  0
 29 12  1  0  0  0  0
 29  9  1  0  0  0  0
 30  7  1  0  0  0  0
 32 41  1  6  0  0  0
 32 16  1  0  0  0  0
 33 34  2  0  0  0  0
 33 36  1  0  0  0  0
 34 37  1  0  0  0  0
 36 38  2  0  0  0  0
 37 35  2  0  0  0  0
 38 35  1  0  0  0  0
 38 40  1  0  0  0  0
 39 40  1  0  0  0  0
 41 43  1  0  0  0  0
 42 41  2  0  0  0  0
M  END
>  <MODEL>
5

>  <REMARK>
 VINA RESULT:      -7.0      3.340      5.481
  Name = 
  3 active torsions:
  status: ('A' for Active; 'I' for Inactive)
    1  A    between atoms: C_7  and  C_42
    2  A    between atoms: C_19  and  C_33
    3  A    between atoms: C_34  and  C_39
                            x       y       z     vdW  Elec       q    Type
                         _______ _______ _______ _____ _____    ______ ____

>  <TORSDO>
F 3

$$$$
=
 OpenBabel11062418473D

 43 49  0  0  1  0  0  0  0  0999 V2000
  188.1180  172.3130  141.4460 N   0  0  0  0  0  0  0  0  0  0  0  0
  189.7710  173.3070  142.6100 C   0  0  0  0  0  0  0  0  0  0  0  0
  196.9280  173.0720  140.0220 O   0  0  0  0  0  0  0  0  0  0  0  0
  193.2800  172.7680  138.5810 C   0  0  0  0  0  2  0  0  0  0  0  0
  192.6910  174.7810  144.1980 C   0  0  2  0  0  0  0  0  0  0  0  0
  196.0550  174.6080  141.5400 N   0  0  0  0  0  2  0  0  0  0  0  0
  196.1670  172.8790  136.0160 C   0  0  1  0  0  3  0  0  0  0  0  0
  192.3470  175.5780  145.4350 C   0  0  0  0  0  2  0  0  0  0  0  0
  197.1230  175.1960  138.0420 C   0  0  0  0  0  2  0  0  0  0  0  0
  190.4400  173.9030  143.8190 C   0  0  1  0  0  3  0  0  0  0  0  0
  188.4410  172.7300  142.6250 C   0  0  0  0  0  3  0  0  0  0  0  0
  197.5090  173.6270  136.1330 C   0  0  2  0  0  3  0  0  0  0  0  0
  196.7260  174.2800  140.3240 C   0  0  0  0  0  0  0  0  0  0  0  0
  189.2110  172.5540  140.5140 C   0  0  1  0  0  3  0  0  0  0  0  0
  191.7780  175.9820  144.0760 C   0  0  2  0  0  3  0  0  0  0  0  0
  191.5880  174.0100  136.8080 S   0  0  0  0  0  0  0  0  0  0  0  0
  190.2210  173.2560  141.3610 C   0  0  0  0  0  0  0  0  0  0  0  0
  191.9000  173.5050  143.9310 C   0  0  0  0  0  2  0  0  0  0  0  0
  197.4770  172.1160  136.0330 C   0  0  0  0  0  2  0  0  0  0  0  0
  193.9170  172.7430  137.2090 C   0  0  2  0  0  3  0  0  0  0  0  0
  194.8700  173.8170  143.4810 C   0  0  0  0  0  3  0  0  0  0  0  0
  191.5800  173.7020  140.9170 C   0  0  0  0  0  2  0  0  0  0  0  0
  194.0210  175.0430  143.5080 C   0  0  0  0  0  2  0  0  0  0  0  0
  195.7970  173.6280  142.5460 C   0  0  0  0  0  3  0  0  0  0  0  0
  190.3830  175.4230  143.7960 C   0  0  2  0  0  3  0  0  0  0  0  0
  191.8450  173.2710  138.4560 C   0  0  2  0  0  3  0  0  0  0  0  0
  189.7430  171.2830  140.0590 N   0  0  0  0  0  1  0  0  0  0  0  0
  197.1290  175.3080  139.4660 O   0  0  0  0  0  0  0  0  0  0  0  0
  197.9410  174.0140  137.5460 C   0  0  0  0  0  2  0  0  0  0  0  0
  195.4410  172.6900  137.3460 C   0  0  0  0  0  2  0  0  0  0  0  0
  191.5660  174.3140  139.5260 C   0  0  0  0  0  2  0  0  0  0  0  0
  193.3570  173.9230  136.4160 C   0  0  2  0  0  3  0  0  0  0  0  0
  189.1560  175.3970  145.9740 C   0  0  0  0  0  3  0  0  0  0  0  0
  189.3420  175.9880  144.7210 C   0  0  0  0  0  0  0  0  0  0  0  0
  187.5180  177.5230  145.1860 C   0  0  0  0  0  3  0  0  0  0  0  0
  188.1610  175.8690  146.8360 C   0  0  0  0  0  3  0  0  0  0  0  0
  188.5100  177.0480  144.3240 C   0  0  0  0  0  3  0  0  0  0  0  0
  187.3460  176.9370  146.4450 C   0  0  0  0  0  0  0  0  0  0  0  0
  185.7910  178.7180  146.8980 N   0  0  0  0  0  1  0  0  0  0  0  0
  186.2750  177.4280  147.3560 C   0  0  0  0  0  2  0  0  0  0  0  0
  194.0170  175.2390  136.7260 C   0  0  0  0  0  0  0  0  0  0  0  0
  194.1100  175.6560  137.9120 O   0  0  0  0  0  1  0  0  0  0  0  0
  194.5400  176.0000  135.6910 O   0  0  0  0  0  0  0  0  0  0  0  0
  1 11  2  0  0  0  0
  2 11  1  0  0  0  0
  2 10  1  0  0  0  0
  3 13  2  0  0  0  0
  5 23  1  6  0  0  0
  5  8  1  0  0  0  0
  6 24  1  0  0  0  0
  7 19  1  1  0  0  0
  7 12  1  0  0  0  0
  7 30  1  0  0  0  0
  9 28  1  0  0  0  0
 10 18  1  6  0  0  0
 12 19  1  1  0  0  0
 12 29  1  0  0  0  0
 13  6  1  0  0  0  0
 14 27  1  1  0  0  0
 14 17  1  0  0  0  0
 14  1  1  0  0  0  0
 15  5  1  0  0  0  0
 15  8  1  1  0  0  0
 16 26  1  0  0  0  0
 17  2  2  0  0  0  0
 18  5  1  0  0  0  0
 20 30  1  1  0  0  0
 20  4  1  0  0  0  0
 21 23  1  0  0  0  0
 22 17  1  0  0  0  0
 24 21  2  0  0  0  0
 25 10  1  0  0  0  0
 25 15  1  0  0  0  0
 25 34  1  1  0  0  0
 26  4  1  6  0  0  0
 26 31  1  0  0  0  0
 28 13  1  0  0  0  0
 29  9  1  0  0  0  0
 31 22  1  0  0  0  0
 32 41  1  1  0  0  0
 32 16  1  0  0  0  0
 32 20  1  0  0  0  0
 33 36  1  0  0  0  0
 34 33  2  0  0  0  0
 35 38  1  0  0  0  0
 37 34  1  0  0  0  0
 37 35  2  0  0  0  0
 38 36  2  0  0  0  0
 38 40  1  0  0  0  0
 39 40  1  0  0  0  0
 41 42  1  0  0  0  0
 43 41  2  0  0  0  0
M  END
>  <MODEL>
6

>  <REMARK>
 VINA RESULT:      -6.7      1.097      1.154
  Name = 
  3 active torsions:
  status: ('A' for Active; 'I' for Inactive)
    1  A    between atoms: C_7  and  C_42
    2  A    between atoms: C_19  and  C_33
    3  A    between atoms: C_34  and  C_39
                            x       y       z     vdW  Elec       q    Type
                         _______ _______ _______ _____ _____    ______ ____

>  <TORSDO>
F 3

$$$$
=
 OpenBabel11062418473D

 43 49  0  0  1  0  0  0  0  0999 V2000
  192.8530  176.9680  144.5290 N   0  0  0  0  0  0  0  0  0  0  0  0
  190.8870  176.5310  143.5180 C   0  0  0  0  0  0  0  0  0  0  0  0
  190.6250  171.7550  137.5940 O   0  0  0  0  0  0  0  0  0  0  0  0
  192.9540  172.4650  140.6850 C   0  0  0  0  0  2  0  0  0  0  0  0
  187.9230  175.5850  141.6360 C   0  0  2  0  0  0  0  0  0  0  0  0
  188.8440  172.3510  138.9720 N   0  0  0  0  0  2  0  0  0  0  0  0
  193.7730  169.3430  138.5620 C   0  0  1  0  0  3  0  0  0  0  0  0
  186.6520  176.1670  142.2110 C   0  0  0  0  0  2  0  0  0  0  0  0
  190.5660  169.0790  138.7380 C   0  0  0  0  0  2  0  0  0  0  0  0
  189.4530  176.7710  143.1320 C   0  0  1  0  0  3  0  0  0  0  0  0
  191.6620  177.4340  144.3460 C   0  0  0  0  0  3  0  0  0  0  0  0
  192.7910  168.4330  137.7980 C   0  0  2  0  0  3  0  0  0  0  0  0
  189.6950  171.3820  138.3600 C   0  0  0  0  0  0  0  0  0  0  0  0
  193.0070  175.7020  143.8240 C   0  0  1  0  0  3  0  0  0  0  0  0
  187.5130  175.2190  143.0460 C   0  0  2  0  0  3  0  0  0  0  0  0
  193.9060  171.2370  142.9510 S   0  0  0  0  0  0  0  0  0  0  0  0
  191.6500  175.4790  143.2410 C   0  0  0  0  0  0  0  0  0  0  0  0
  189.1800  176.4460  141.6750 C   0  0  0  0  0  2  0  0  0  0  0  0
  193.8510  169.2190  137.0530 C   0  0  0  0  0  2  0  0  0  0  0  0
  193.7270  171.2310  140.2750 C   0  0  2  0  0  3  0  0  0  0  0  0
  188.3720  174.6790  139.3630 C   0  0  0  0  0  3  0  0  0  0  0  0
  191.2490  174.3330  142.3660 C   0  0  0  0  0  2  0  0  0  0  0  0
  187.8220  174.3780  140.7170 C   0  0  0  0  0  2  0  0  0  0  0  0
  188.8590  173.7220  138.5770 C   0  0  0  0  0  3  0  0  0  0  0  0
  188.5010  175.9310  143.9710 C   0  0  2  0  0  3  0  0  0  0  0  0
  193.1590  172.7110  142.1760 C   0  0  2  0  0  3  0  0  0  0  0  0
  193.9830  175.8610  142.7610 N   0  0  0  0  0  1  0  0  0  0  0  0
  189.5010  170.0260  138.6410 O   0  0  0  0  0  0  0  0  0  0  0  0
  191.4240  169.0350  137.4830 C   0  0  0  0  0  2  0  0  0  0  0  0
  193.1950  170.7050  138.9410 C   0  0  0  0  0  2  0  0  0  0  0  0
  191.8250  173.0080  142.8410 C   0  0  0  0  0  2  0  0  0  0  0  0
  193.6880  170.2490  141.4460 C   0  0  2  0  0  3  0  0  0  0  0  0
  187.8220  176.2270  146.3580 C   0  0  0  0  0  3  0  0  0  0  0  0
  187.8140  176.7190  145.0490 C   0  0  0  0  0  0  0  0  0  0  0  0
  186.4390  178.5870  145.7720 C   0  0  0  0  0  3  0  0  0  0  0  0
  187.1490  176.9140  147.3740 C   0  0  0  0  0  3  0  0  0  0  0  0
  187.1090  177.8990  144.7570 C   0  0  0  0  0  3  0  0  0  0  0  0
  186.4620  178.0980  147.0820 C   0  0  0  0  0  0  0  0  0  0  0  0
  186.2860  180.1500  148.3280 N   0  0  0  0  0  1  0  0  0  0  0  0
  185.7310  178.8190  148.1610 C   0  0  0  0  0  2  0  0  0  0  0  0
  192.4150  169.4520  141.5350 C   0  0  0  0  0  0  0  0  0  0  0  0
  192.4220  168.2000  141.3950 O   0  0  0  0  0  0  0  0  0  0  0  0
  191.2180  170.1050  141.7880 O   0  0  0  0  0  1  0  0  0  0  0  0
  2 11  1  0  0  0  0
  3 13  2  0  0  0  0
  5 23  1  6  0  0  0
  5 18  1  0  0  0  0
  5  8  1  0  0  0  0
  5 15  1  0  0  0  0
  7 19  1  6  0  0  0
  7 30  1  0  0  0  0
 10 18  1  6  0  0  0
 10  2  1  0  0  0  0
 10 25  1  0  0  0  0
 11  1  2  0  0  0  0
 12 19  1  6  0  0  0
 12  7  1  0  0  0  0
 13 28  1  0  0  0  0
 13  6  1  0  0  0  0
 14 27  1  6  0  0  0
 14  1  1  0  0  0  0
 15  8  1  1  0  0  0
 15 25  1  0  0  0  0
 17  2  2  0  0  0  0
 17 14  1  0  0  0  0
 20 30  1  6  0  0  0
 20  4  1  0  0  0  0
 20 32  1  0  0  0  0
 21 23  1  0  0  0  0
 22 31  1  0  0  0  0
 22 17  1  0  0  0  0
 24  6  1  0  0  0  0
 24 21  2  0  0  0  0
 25 34  1  1  0  0  0
 26  4  1  6  0  0  0
 26 31  1  0  0  0  0
 26 16  1  0  0  0  0
 28  9  1  0  0  0  0
 29 12  1  0  0  0  0
 29  9  1  0  0  0  0
 32 41  1  1  0  0  0
 32 16  1  0  0  0  0
 33 36  1  0  0  0  0
 34 33  2  0  0  0  0
 35 38  1  0  0  0  0
 37 34  1  0  0  0  0
 37 35  2  0  0  0  0
 38 36  2  0  0  0  0
 38 40  1  0  0  0  0
 40 39  1  0  0  0  0
 41 43  1  0  0  0  0
 42 41  2  0  0  0  0
M  END
>  <MODEL>
7

>  <REMARK>
 VINA RESULT:      -6.4      3.382      5.493
  Name = 
  3 active torsions:
  status: ('A' for Active; 'I' for Inactive)
    1  A    between atoms: C_7  and  C_42
    2  A    between atoms: C_19  and  C_33
    3  A    between atoms: C_34  and  C_39
                            x       y       z     vdW  Elec       q    Type
                         _______ _______ _______ _____ _____    ______ ____

>  <TORSDO>
F 3

$$$$
=
 OpenBabel11062418473D

 43 49  0  0  1  0  0  0  0  0999 V2000
  188.1810  174.5410  137.5740 N   0  0  0  0  0  0  0  0  0  0  0  0
  188.8980  173.8560  139.5980 C   0  0  0  0  0  0  0  0  0  0  0  0
  194.7280  168.9890  140.1300 O   0  0  0  0  0  0  0  0  0  0  0  0
  193.3280  171.6130  137.5550 C   0  0  0  0  0  2  0  0  0  0  0  0
  190.3280  172.5280  142.6660 C   0  0  2  0  0  0  0  0  0  0  0  0
  193.9660  170.4230  141.8000 N   0  0  0  0  0  2  0  0  0  0  0  0
  196.7560  170.0280  136.7430 C   0  0  1  0  0  3  0  0  0  0  0  0
  189.7080  173.1230  143.9080 C   0  0  0  0  0  2  0  0  0  0  0  0
  197.1350  170.6080  139.8900 C   0  0  0  0  0  2  0  0  0  0  0  0
  188.8050  173.5960  141.0770 C   0  0  1  0  0  3  0  0  0  0  0  0
  187.8160  174.4100  138.8070 C   0  0  0  0  0  3  0  0  0  0  0  0
  197.8420  169.5610  137.7330 C   0  0  2  0  0  3  0  0  0  0  0  0
  194.9920  169.9100  140.9510 C   0  0  0  0  0  0  0  0  0  0  0  0
  189.5500  174.0710  137.4060 C   0  0  1  0  0  3  0  0  0  0  0  0
  190.4360  174.0180  142.9050 C   0  0  2  0  0  3  0  0  0  0  0  0
  194.0510  173.9450  136.2960 S   0  0  0  0  0  0  0  0  0  0  0  0
  189.9460  173.6950  138.7970 C   0  0  0  0  0  0  0  0  0  0  0  0
  189.4160  172.2640  141.4720 C   0  0  0  0  0  2  0  0  0  0  0  0
  197.1640  168.5690  136.8100 C   0  0  0  0  0  2  0  0  0  0  0  0
  194.5790  171.3550  136.7440 C   0  0  2  0  0  3  0  0  0  0  0  0
  191.6310  170.4260  142.3880 C   0  0  0  0  0  3  0  0  0  0  0  0
  191.2560  173.0980  139.2040 C   0  0  0  0  0  2  0  0  0  0  0  0
  191.6920  171.8650  142.7760 C   0  0  0  0  0  2  0  0  0  0  0  0
  192.6960  169.7810  141.9190 C   0  0  0  0  0  3  0  0  0  0  0  0
  189.5140  174.6770  141.8790 C   0  0  2  0  0  3  0  0  0  0  0  0
  192.7910  173.0000  137.2170 C   0  0  2  0  0  3  0  0  0  0  0  0
  189.5520  172.8940  136.5560 N   0  0  0  0  0  1  0  0  0  0  0  0
  196.2770  170.4580  141.0220 O   0  0  0  0  0  0  0  0  0  0  0  0
  197.3780  169.2960  139.1630 C   0  0  0  0  0  2  0  0  0  0  0  0
  195.3770  170.2100  137.3720 C   0  0  0  0  0  2  0  0  0  0  0  0
  192.4360  173.7430  138.4950 C   0  0  0  0  0  2  0  0  0  0  0  0
  195.3190  172.6840  136.5980 C   0  0  2  0  0  3  0  0  0  0  0  0
  189.0870  176.7040  143.2780 C   0  0  0  0  0  3  0  0  0  0  0  0
  188.5670  175.6610  142.5060 C   0  0  0  0  0  0  0  0  0  0  0  0
  186.3160  176.4160  143.0200 C   0  0  0  0  0  3  0  0  0  0  0  0
  188.2270  177.6060  143.9140 C   0  0  0  0  0  3  0  0  0  0  0  0
  187.1750  175.5130  142.3880 C   0  0  0  0  0  3  0  0  0  0  0  0
  186.8420  177.4670  143.7800 C   0  0  0  0  0  0  0  0  0  0  0  0
  185.5290  179.4720  143.5580 N   0  0  0  0  0  1  0  0  0  0  0  0
  185.9270  178.4170  144.4730 C   0  0  0  0  0  2  0  0  0  0  0  0
  196.1440  173.0630  137.7980 C   0  0  0  0  0  0  0  0  0  0  0  0
  195.6040  173.2830  138.9150 O   0  0  0  0  0  1  0  0  0  0  0  0
  197.5220  173.1600  137.6750 O   0  0  0  0  0  0  0  0  0  0  0  0
  1 11  2  0  0  0  0
  2 10  1  0  0  0  0
  3 13  2  0  0  0  0
  5 18  1  6  0  0  0
  5 23  1  0  0  0  0
  5 15  1  0  0  0  0
  5  8  1  0  0  0  0
  6 24  1  0  0  0  0
  7 19  1  6  0  0  0
  7 30  1  0  0  0  0
  7 12  1  0  0  0  0
  9 28  1  0  0  0  0
 10 18  1  6  0  0  0
 10 25  1  0  0  0  0
 11  2  1  0  0  0  0
 12 19  1  6  0  0  0
 12 29  1  0  0  0  0
 13 28  1  0  0  0  0
 13  6  1  0  0  0  0
 14 27  1  6  0  0  0
 14  1  1  0  0  0  0
 14 17  1  0  0  0  0
 15  8  1  1  0  0  0
 16 32  1  0  0  0  0
 16 26  1  0  0  0  0
 17 22  1  0  0  0  0
 17  2  2  0  0  0  0
 20 30  1  1  0  0  0
 20  4  1  0  0  0  0
 21 23  1  0  0  0  0
 24 21  2  0  0  0  0
 25 34  1  1  0  0  0
 25 15  1  0  0  0  0
 26  4  1  1  0  0  0
 26 31  1  0  0  0  0
 29  9  1  0  0  0  0
 31 22  1  0  0  0  0
 32 20  1  0  0  0  0
 32 41  1  1  0  0  0
 33 36  1  0  0  0  0
 34 33  2  0  0  0  0
 35 38  1  0  0  0  0
 37 34  1  0  0  0  0
 37 35  2  0  0  0  0
 38 36  2  0  0  0  0
 38 40  1  0  0  0  0
 39 40  1  0  0  0  0
 41 42  1  0  0  0  0
 43 41  2  0  0  0  0
M  END
>  <MODEL>
8

>  <REMARK>
 VINA RESULT:      -6.3      2.851      4.126
  Name = 
  3 active torsions:
  status: ('A' for Active; 'I' for Inactive)
    1  A    between atoms: C_7  and  C_42
    2  A    between atoms: C_19  and  C_33
    3  A    between atoms: C_34  and  C_39
                            x       y       z     vdW  Elec       q    Type
                         _______ _______ _______ _____ _____    ______ ____

>  <TORSDO>
F 3

$$$$
=
 OpenBabel11062418473D

 43 49  0  0  1  0  0  0  0  0999 V2000
  188.0730  174.3520  139.0800 N   0  0  0  0  0  0  0  0  0  0  0  0
  188.8780  173.9490  141.1460 C   0  0  0  0  0  0  0  0  0  0  0  0
  194.9260  169.4160  142.0640 O   0  0  0  0  0  0  0  0  0  0  0  0
  193.3390  171.6480  139.2390 C   0  0  0  0  0  2  0  0  0  0  0  0
  190.4540  173.0640  144.3010 C   0  0  2  0  0  0  0  0  0  0  0  0
  194.1520  171.0130  143.5720 N   0  0  0  0  0  2  0  0  0  0  0  0
  196.8070  170.1120  138.5080 C   0  0  1  0  0  3  0  0  0  0  0  0
  189.8460  173.7820  145.4830 C   0  0  0  0  0  2  0  0  0  0  0  0
  197.2530  171.0880  141.5460 C   0  0  0  0  0  2  0  0  0  0  0  0
  188.8400  173.8690  142.6480 C   0  0  1  0  0  3  0  0  0  0  0  0
  187.7510  174.3590  140.3310 C   0  0  0  0  0  3  0  0  0  0  0  0
  197.9410  169.8130  139.5080 C   0  0  2  0  0  3  0  0  0  0  0  0
  195.1730  170.4410  142.7570 C   0  0  0  0  0  0  0  0  0  0  0  0
  189.4550  173.9190  138.9230 C   0  0  1  0  0  3  0  0  0  0  0  0
  190.5040  174.5750  144.3540 C   0  0  2  0  0  3  0  0  0  0  0  0
  193.9230  173.8350  137.6830 S   0  0  0  0  0  0  0  0  0  0  0  0
  189.9080  173.7320  140.3350 C   0  0  0  0  0  0  0  0  0  0  0  0
  189.5190  172.6200  143.1810 C   0  0  0  0  0  2  0  0  0  0  0  0
  197.2790  168.6890  138.7370 C   0  0  0  0  0  2  0  0  0  0  0  0
  194.5750  171.3420  138.4230 C   0  0  2  0  0  3  0  0  0  0  0  0
  191.8370  170.9970  144.2360 C   0  0  0  0  0  3  0  0  0  0  0  0
  191.2540  173.2420  140.7670 C   0  0  0  0  0  2  0  0  0  0  0  0
  191.8480  172.4740  144.4440 C   0  0  0  0  0  2  0  0  0  0  0  0
  192.9150  170.3420  143.8120 C   0  0  0  0  0  3  0  0  0  0  0  0
  189.5240  175.0670  143.2890 C   0  0  2  0  0  3  0  0  0  0  0  0
  192.7330  172.9610  138.7540 C   0  0  2  0  0  3  0  0  0  0  0  0
  189.4830  172.6480  138.2230 N   0  0  0  0  0  1  0  0  0  0  0  0
  196.4350  171.0440  142.7170 O   0  0  0  0  0  0  0  0  0  0  0  0
  197.5300  169.7060  140.9750 C   0  0  0  0  0  2  0  0  0  0  0  0
  195.4400  170.3150  139.1570 C   0  0  0  0  0  2  0  0  0  0  0  0
  192.3840  173.8410  139.9440 C   0  0  0  0  0  2  0  0  0  0  0  0
  195.2520  172.6720  138.0920 C   0  0  2  0  0  3  0  0  0  0  0  0
  187.2110  175.9990  143.4490 C   0  0  0  0  0  3  0  0  0  0  0  0
  188.5550  176.0820  143.8230 C   0  0  0  0  0  0  0  0  0  0  0  0
  188.0690  178.1050  145.0780 C   0  0  0  0  0  3  0  0  0  0  0  0
  186.2950  176.9590  143.8910 C   0  0  0  0  0  3  0  0  0  0  0  0
  188.9840  177.1480  144.6330 C   0  0  0  0  0  3  0  0  0  0  0  0
  186.7220  178.0090  144.7120 C   0  0  0  0  0  0  0  0  0  0  0  0
  184.4280  178.4510  145.2890 N   0  0  0  0  0  1  0  0  0  0  0  0
  185.7490  179.0410  145.1670 C   0  0  0  0  0  2  0  0  0  0  0  0
  196.0950  173.2260  139.2070 C   0  0  0  0  0  0  0  0  0  0  0  0
  197.3300  173.4270  139.0510 O   0  0  0  0  0  0  0  0  0  0  0  0
  195.5020  173.5320  140.4230 O   0  0  0  0  0  1  0  0  0  0  0  0
  1 11  2  0  0  0  0
  2 10  1  0  0  0  0
  3 13  2  0  0  0  0
  5 18  1  6  0  0  0
  5 15  1  0  0  0  0
  5 23  1  0  0  0  0
  5  8  1  0  0  0  0
  6 24  1  0  0  0  0
  7 19  1  6  0  0  0
  7 30  1  0  0  0  0
  7 12  1  0  0  0  0
  9 28  1  0  0  0  0
 10 18  1  6  0  0  0
 10 25  1  0  0  0  0
 11  2  1  0  0  0  0
 12 19  1  6  0  0  0
 12 29  1  0  0  0  0
 13  6  1  0  0  0  0
 14 27  1  6  0  0  0
 14  1  1  0  0  0  0
 14 17  1  0  0  0  0
 15  8  1  1  0  0  0
 16 32  1  0  0  0  0
 16 26  1  0  0  0  0
 17 22  1  0  0  0  0
 17  2  2  0  0  0  0
 20 30  1  1  0  0  0
 20  4  1  0  0  0  0
 21 23  1  0  0  0  0
 24 21  2  0  0  0  0
 25 34  1  1  0  0  0
 25 15  1  0  0  0  0
 26  4  1  1  0  0  0
 26 31  1  0  0  0  0
 28 13  1  0  0  0  0
 29  9  1  0  0  0  0
 31 22  1  0  0  0  0
 32 20  1  0  0  0  0
 32 41  1  1  0  0  0
 33 34  2  0  0  0  0
 33 36  1  0  0  0  0
 34 37  1  0  0  0  0
 36 38  2  0  0  0  0
 37 35  2  0  0  0  0
 38 35  1  0  0  0  0
 38 40  1  0  0  0  0
 40 39  1  0  0  0  0
 41 43  1  0  0  0  0
 42 41  2  0  0  0  0
M  END
>  <MODEL>
9

>  <REMARK>
 VINA RESULT:      -6.1      2.574      3.610
  Name = 
  3 active torsions:
  status: ('A' for Active; 'I' for Inactive)
    1  A    between atoms: C_7  and  C_42
    2  A    between atoms: C_19  and  C_33
    3  A    between atoms: C_34  and  C_39
                            x       y       z     vdW  Elec       q    Type
                         _______ _______ _______ _____ _____    ______ ____

>  <TORSDO>
F 3

$$$$
