=
 OpenBabel11072409383D

 63 71  0  0  1  0  0  0  0  0999 V2000
  189.4980  177.0240  146.2440 P   0  0  1  0  0  0  0  0  0  0  0  0
  190.7200  175.7160  145.8920 C   0  0  1  0  0  0  0  0  0  0  0  0
  190.9910  172.0220  141.3950 C   0  0  0  0  0  2  0  0  0  0  0  0
  191.7840  176.4300  146.4240 O   0  0  0  0  0  1  0  0  0  0  0  0
  189.3300  175.0630  142.1030 C   0  0  1  0  0  3  0  0  0  0  0  0
  191.9950  172.5010  142.4430 C   0  0  1  0  0  3  0  0  0  0  0  0
  191.4830  176.1350  143.4790 O   0  0  0  0  0  0  0  0  0  0  0  0
  189.1690  175.2800  143.6670 C   0  0  0  0  0  2  0  0  0  0  0  0
  189.8290  178.2240  147.1210 O   0  0  0  0  0  0  0  0  0  0  0  0
  188.1760  173.0680  139.5270 O   0  0  0  0  0  0  0  0  0  0  0  0
  191.7150  174.7590  145.2790 C   0  0  0  0  0  0  0  0  0  0  0  0
  188.8970  173.5250  140.4630 C   0  0  0  0  0  0  0  0  0  0  0  0
  191.2650  173.7450  139.5860 C   0  0  0  0  0  1  0  0  0  0  0  0
  191.1960  173.6610  143.0790 C   0  0  1  0  0  0  0  0  0  0  0  0
  192.0210  174.9000  143.7530 C   0  0  1  0  0  3  0  0  0  0  0  0
  190.6140  174.2520  141.8480 C   0  0  1  0  0  3  0  0  0  0  0  0
  190.3880  173.2950  140.7530 C   0  0  2  0  0  0  0  0  0  0  0  0
  189.8150  177.4600  144.6230 O   0  0  0  0  0  0  0  0  0  0  0  0
  190.3410  176.1330  144.3390 C   0  0  1  0  0  0  0  0  0  0  0  0
  190.2060  172.7540  144.0190 C   0  0  0  0  0  1  0  0  0  0  0  0
  188.2860  174.3580  141.3650 O   0  0  0  0  0  0  0  0  0  0  0  0
  192.3950  173.9810  145.8740 O   0  0  0  0  0  0  0  0  0  0  0  0
  186.7470  176.8860  147.6830 S   0  0  0  0  0  0  0  0  0  0  0  0
  188.0150  176.2020  146.7400 C   0  0  0  0  0  2  0  0  0  0  0  0
  185.9060  178.3050  146.9990 C   0  0  1  0  0  3  0  0  0  0  0  0
  186.5350  178.7050  145.8450 O   0  0  0  0  0  0  0  0  0  0  0  0
  184.1960  176.7720  146.3160 O   0  0  0  0  0  1  0  0  0  0  0  0
  184.4400  178.0770  146.6960 C   0  0  2  0  0  3  0  0  0  0  0  0
  185.5800  179.4000  145.0460 C   0  0  2  0  0  3  0  0  0  0  0  0
  184.1700  178.9800  145.5070 C   0  0  0  0  0  2  0  0  0  0  0  0
  184.8820  177.9210  143.1810 C   0  0  0  0  0  1  0  0  0  0  0  0
  185.8250  179.0360  143.5940 C   0  0  0  0  0  2  0  0  0  0  0  0
  192.3670  171.2100  143.2600 C   0  0  0  0  0  2  0  0  0  0  0  0
  193.5630  170.7720  142.4760 C   0  0  1  0  0  3  0  0  0  0  0  0
  193.5770  168.2850  142.5610 O   0  0  0  0  0  0  0  0  0  0  0  0
  194.5180  169.0420  144.5850 C   0  0  1  0  0  3  0  0  0  0  0  0
  195.2410  169.5510  143.4850 O   0  0  0  0  0  0  0  0  0  0  0  0
  195.3960  171.0300  141.0900 C   0  0  2  0  0  3  0  0  0  0  0  0
  193.4020  168.1670  143.9170 C   0  0  0  0  0  2  0  0  0  0  0  0
  194.9630  172.6630  142.7910 O   0  0  0  0  0  1  0  0  0  0  0  0
  194.9930  169.6040  141.0430 C   0  0  2  0  0  3  0  0  0  0  0  0
  194.3550  171.8170  141.8080 C   0  0  2  0  0  3  0  0  0  0  0  0
  194.3530  169.4740  142.4480 C   0  0  2  0  0  0  0  0  0  0  0  0
  196.1770  168.6600  140.7880 C   0  0  1  0  0  3  0  0  0  0  0  0
  196.4960  168.2590  139.3650 C   0  0  0  0  0  1  0  0  0  0  0  0
  197.3280  169.2550  141.3400 O   0  0  0  0  0  1  0  0  0  0  0  0
  195.9080  171.7970  139.8630 C   0  0  0  0  0  2  0  0  0  0  0  0
  194.9530  171.8220  138.7760 O   0  0  0  0  0  1  0  0  0  0  0  0
  195.4850  168.5760  145.7170 C   0  0  1  0  0  3  0  0  0  0  0  0
  196.7130  169.4210  145.6210 C   0  0  0  0  0  0  0  0  0  0  0  0
  197.6680  168.9280  144.9110 O   0  0  0  0  0  0  0  0  0  0  0  0
  196.8330  170.7630  146.1370 O   0  0  0  0  0  0  0  0  0  0  0  0
  197.1340  172.0130  145.5230 C   0  0  0  0  0  0  0  0  0  0  0  0
  196.8330  174.3420  145.3620 N   0  0  0  0  0  2  0  0  0  0  0  0
  197.9400  174.1620  144.2560 S   0  0  1  0  0  3  0  0  0  0  0  0
  196.5550  173.0840  146.0210 C   0  0  0  0  0  3  0  0  0  0  0  0
  197.9410  172.3560  144.2730 C   0  0  0  0  0  2  0  0  0  0  0  0
  197.4610  175.1160  142.7850 C   0  0  0  0  0  2  0  0  0  0  0  0
  196.2100  176.8510  141.8620 C   0  0  0  0  0  1  0  0  0  0  0  0
  195.3840  175.8020  143.6710 C   0  0  0  0  0  1  0  0  0  0  0  0
  196.6490  176.2820  143.1290 N   0  0  0  0  0  0  0  0  0  0  0  0
  195.9000  168.4310  147.8990 C   0  0  0  0  0  1  0  0  0  0  0  0
  194.8820  168.6650  146.9620 O   0  0  0  0  0  0  0  0  0  0  0  0
  1 24  1  0  0  0  0
  1  9  2  1  0  0  0
  2  1  1  0  0  0  0
  2  4  1  6  0  0  0
  3  6  1  0  0  0  0
  5  8  1  1  0  0  0
  6 14  1  0  0  0  0
  6 33  1  1  0  0  0
  7 19  1  0  0  0  0
  8 19  1  0  0  0  0
 10 12  2  0  0  0  0
 11 22  2  0  0  0  0
 11  2  1  0  0  0  0
 12 17  1  0  0  0  0
 12 21  1  0  0  0  0
 13 17  1  0  0  0  0
 14 15  1  0  0  0  0
 14 20  1  1  0  0  0
 15  7  1  6  0  0  0
 15 11  1  0  0  0  0
 16  5  1  0  0  0  0
 16 14  1  0  0  0  0
 17  3  1  0  0  0  0
 17 16  1  0  0  0  0
 18  1  1  0  0  0  0
 19 18  1  0  0  0  0
 19  2  1  0  0  0  0
 21  5  1  0  0  0  0
 24 23  1  0  0  0  0
 25 23  1  0  0  0  0
 26 25  1  0  0  0  0
 27 28  1  0  0  0  0
 28 25  1  0  0  0  0
 29 30  1  0  0  0  0
 29 26  1  0  0  0  0
 30 28  1  0  0  0  0
 31 32  1  0  0  0  0
 32 29  1  0  0  0  0
 34 33  1  0  0  0  0
 35 39  1  0  0  0  0
 36 49  1  0  0  0  0
 37 36  1  0  0  0  0
 38 42  1  0  0  0  0
 39 36  1  0  0  0  0
 41 38  1  0  0  0  0
 41 43  1  0  0  0  0
 42 34  1  0  0  0  0
 42 40  1  0  0  0  0
 43 34  1  0  0  0  0
 43 35  1  0  0  0  0
 43 37  1  0  0  0  0
 44 41  1  0  0  0  0
 44 46  1  0  0  0  0
 45 44  1  0  0  0  0
 47 38  1  0  0  0  0
 48 47  1  0  0  0  0
 49 63  1  0  0  0  0
 50 49  1  0  0  0  0
 50 52  1  0  0  0  0
 51 50  2  0  0  0  0
 53 56  2  0  0  0  0
 53 52  1  0  0  0  0
 54 56  1  0  0  0  0
 55 57  1  0  0  0  0
 55 54  1  0  0  0  0
 57 53  1  0  0  0  0
 58 61  1  0  0  0  0
 58 55  1  0  0  0  0
 59 61  1  0  0  0  0
 61 60  1  0  0  0  0
 63 62  1  0  0  0  0
M  END
>  <MODEL>
1

>  <REMARK>
 VINA RESULT:      -7.4      0.000      0.000
  Name = 
  14 active torsions:
  status: ('A' for Active; 'I' for Inactive)
    1  A    between atoms: C_1  and  O_21
    2  A    between atoms: C_3  and  O_21
    3  A    between atoms: C_3  and  C_27
    4  A    between atoms: C_4  and  S_55
    5  A    between atoms: P_5  and  C_62
    6  A    between atoms: C_7  and  C_36
    7  A    between atoms: C_10  and  C_32
    8  A    between atoms: C_12  and  C_27
    9  A    between atoms: C_15  and  C_32
   10  A    between atoms: C_18  and  C_22
   11  A    between atoms: C_27  and  O_50
   12  A    between atoms: N_30  and  C_45
   13  A    between atoms: S_35  and  C_45
   14  A    between atoms: C_48  and  C_63
                            x       y       z     vdW  Elec       q    Type
                         _______ _______ _______ _____ _____    ______ ____

>  <TORSDO>
F 14

$$$$
=
 OpenBabel11072409383D

 63 71  0  0  1  0  0  0  0  0999 V2000
  188.0290  175.3460  142.9300 P   0  0  1  0  0  0  0  0  0  0  0  0
  189.5380  174.7480  142.0980 C   0  0  1  0  0  0  0  0  0  0  0  0
  195.1240  175.5270  143.5600 C   0  0  0  0  0  2  0  0  0  0  0  0
  188.9610  173.5530  141.6960 O   0  0  0  0  0  1  0  0  0  0  0  0
  191.9950  175.8400  145.1780 C   0  0  1  0  0  3  0  0  0  0  0  0
  194.3860  174.5420  142.6530 C   0  0  1  0  0  3  0  0  0  0  0  0
  190.9190  173.6090  143.9350 O   0  0  0  0  0  0  0  0  0  0  0  0
  190.8270  176.0730  144.1300 C   0  0  0  0  0  2  0  0  0  0  0  0
  186.6860  174.6480  142.7670 O   0  0  0  0  0  0  0  0  0  0  0  0
  194.7590  177.4160  146.5270 O   0  0  0  0  0  0  0  0  0  0  0  0
  190.8890  174.1800  141.7310 C   0  0  0  0  0  0  0  0  0  0  0  0
  194.0330  176.6830  145.7920 C   0  0  0  0  0  0  0  0  0  0  0  0
  195.0370  174.3550  145.7810 C   0  0  0  0  0  1  0  0  0  0  0  0
  192.9240  174.8530  143.0420 C   0  0  1  0  0  0  0  0  0  0  0  0
  191.8070  173.6700  142.8880 C   0  0  1  0  0  3  0  0  0  0  0  0
  193.0920  174.9900  144.5100 C   0  0  1  0  0  3  0  0  0  0  0  0
  194.4180  175.4670  144.9360 C   0  0  2  0  0  0  0  0  0  0  0  0
  188.7910  174.6930  144.3140 O   0  0  0  0  0  0  0  0  0  0  0  0
  190.0880  174.7390  143.6550 C   0  0  1  0  0  0  0  0  0  0  0  0
  192.7540  176.2310  142.1710 C   0  0  0  0  0  1  0  0  0  0  0  0
  192.6980  176.9910  145.7380 O   0  0  0  0  0  0  0  0  0  0  0  0
  191.2770  173.9580  140.6250 O   0  0  0  0  0  0  0  0  0  0  0  0
  186.5150  177.9710  142.2390 S   0  0  0  0  0  0  0  0  0  0  0  0
  187.9410  177.0830  142.6190 C   0  0  0  0  0  2  0  0  0  0  0  0
  185.2160  177.9760  143.4630 C   0  0  1  0  0  3  0  0  0  0  0  0
  185.5750  177.1810  144.5240 O   0  0  0  0  0  0  0  0  0  0  0  0
  185.9550  180.1860  144.0190 O   0  0  0  0  0  1  0  0  0  0  0  0
  184.8560  179.3490  143.9880 C   0  0  2  0  0  3  0  0  0  0  0  0
  184.8610  177.6350  145.6720 C   0  0  2  0  0  3  0  0  0  0  0  0
  184.4150  179.0890  145.4160 C   0  0  0  0  0  2  0  0  0  0  0  0
  187.1750  177.1420  146.4150 C   0  0  0  0  0  1  0  0  0  0  0  0
  185.7830  177.5360  146.8720 C   0  0  0  0  0  2  0  0  0  0  0  0
  194.9380  174.8380  141.2100 C   0  0  0  0  0  2  0  0  0  0  0  0
  195.4710  173.4810  140.8780 C   0  0  1  0  0  3  0  0  0  0  0  0
  197.9300  173.7470  140.6070 O   0  0  0  0  0  0  0  0  0  0  0  0
  196.9400  174.4370  138.5810 C   0  0  1  0  0  3  0  0  0  0  0  0
  196.5690  173.1100  138.8830 O   0  0  0  0  0  0  0  0  0  0  0  0
  195.3870  171.1900  140.5740 C   0  0  2  0  0  3  0  0  0  0  0  0
  197.8850  174.8330  139.7680 C   0  0  0  0  0  2  0  0  0  0  0  0
  193.5610  172.5480  139.8200 O   0  0  0  0  0  1  0  0  0  0  0  0
  196.8060  171.5660  140.7770 C   0  0  2  0  0  3  0  0  0  0  0  0
  194.5150  172.3610  140.8710 C   0  0  2  0  0  3  0  0  0  0  0  0
  196.7650  173.0160  140.2330 C   0  0  2  0  0  0  0  0  0  0  0  0
  197.7790  170.6330  140.0410 C   0  0  1  0  0  3  0  0  0  0  0  0
  197.9390  169.2120  140.5340 C   0  0  0  0  0  1  0  0  0  0  0  0
  197.3870  170.5820  138.6900 O   0  0  0  0  0  1  0  0  0  0  0  0
  194.7740  169.9000  141.1360 C   0  0  0  0  0  2  0  0  0  0  0  0
  193.4670  170.1050  141.7210 O   0  0  0  0  0  1  0  0  0  0  0  0
  197.2730  174.5900  137.0640 C   0  0  1  0  0  3  0  0  0  0  0  0
  196.0970  174.0700  136.3040 C   0  0  0  0  0  0  0  0  0  0  0  0
  196.2480  172.9000  135.7850 O   0  0  0  0  0  0  0  0  0  0  0  0
  194.8070  174.7130  136.2380 O   0  0  0  0  0  0  0  0  0  0  0  0
  193.4740  174.2160  136.3050 C   0  0  0  0  0  0  0  0  0  0  0  0
  191.6650  173.0640  135.3340 N   0  0  0  0  0  2  0  0  0  0  0  0
  191.0350  173.3580  136.7470 S   0  0  1  0  0  3  0  0  0  0  0  0
  193.0350  173.5270  135.2740 C   0  0  0  0  0  3  0  0  0  0  0  0
  192.3650  174.4310  137.3330 C   0  0  0  0  0  2  0  0  0  0  0  0
  189.3360  173.9590  136.5190 C   0  0  0  0  0  2  0  0  0  0  0  0
  189.2190  172.4970  138.3290 C   0  0  0  0  0  1  0  0  0  0  0  0
  188.0840  174.4340  138.4620 C   0  0  0  0  0  1  0  0  0  0  0  0
  188.4160  173.3890  137.5030 N   0  0  0  0  0  0  0  0  0  0  0  0
  197.7160  175.9370  135.3490 C   0  0  0  0  0  1  0  0  0  0  0  0
  197.5650  175.9060  136.7430 O   0  0  0  0  0  0  0  0  0  0  0  0
  1  9  2  6  0  0  0
  1 18  1  0  0  0  0
  2  4  1  1  0  0  0
  2  1  1  0  0  0  0
  2 19  1  0  0  0  0
  3 17  1  0  0  0  0
  5  8  1  6  0  0  0
  5 21  1  0  0  0  0
  6 33  1  6  0  0  0
  6 14  1  0  0  0  0
  6  3  1  0  0  0  0
 11  2  1  0  0  0  0
 12 10  2  0  0  0  0
 14 20  1  6  0  0  0
 14 16  1  0  0  0  0
 15 11  1  6  0  0  0
 15 14  1  0  0  0  0
 15  7  1  0  0  0  0
 16 17  1  0  0  0  0
 16  5  1  0  0  0  0
 17 13  1  0  0  0  0
 17 12  1  0  0  0  0
 19  7  1  0  0  0  0
 19  8  1  0  0  0  0
 19 18  1  0  0  0  0
 21 12  1  0  0  0  0
 22 11  2  0  0  0  0
 23 24  1  0  0  0  0
 23 25  1  0  0  0  0
 24  1  1  0  0  0  0
 25 28  1  0  0  0  0
 25 26  1  0  0  0  0
 26 29  1  0  0  0  0
 28 27  1  0  0  0  0
 28 30  1  0  0  0  0
 29 32  1  0  0  0  0
 30 29  1  0  0  0  0
 31 32  1  0  0  0  0
 34 33  1  0  0  0  0
 36 37  1  0  0  0  0
 36 39  1  0  0  0  0
 37 43  1  0  0  0  0
 38 41  1  0  0  0  0
 38 42  1  0  0  0  0
 38 47  1  0  0  0  0
 39 35  1  0  0  0  0
 40 42  1  0  0  0  0
 42 34  1  0  0  0  0
 43 35  1  0  0  0  0
 43 41  1  0  0  0  0
 43 34  1  0  0  0  0
 44 45  1  0  0  0  0
 44 41  1  0  0  0  0
 46 44  1  0  0  0  0
 47 48  1  0  0  0  0
 49 36  1  0  0  0  0
 50 49  1  0  0  0  0
 51 50  2  0  0  0  0
 52 50  1  0  0  0  0
 52 53  1  0  0  0  0
 53 57  1  0  0  0  0
 54 55  1  0  0  0  0
 55 57  1  0  0  0  0
 56 54  1  0  0  0  0
 56 53  2  0  0  0  0
 58 55  1  0  0  0  0
 58 61  1  0  0  0  0
 61 59  1  0  0  0  0
 61 60  1  0  0  0  0
 62 63  1  0  0  0  0
 63 49  1  0  0  0  0
M  END
>  <MODEL>
2

>  <REMARK>
 VINA RESULT:      -7.2      3.486      6.706
  Name = 
  14 active torsions:
  status: ('A' for Active; 'I' for Inactive)
    1  A    between atoms: C_1  and  O_21
    2  A    between atoms: C_3  and  O_21
    3  A    between atoms: C_3  and  C_27
    4  A    between atoms: C_4  and  S_55
    5  A    between atoms: P_5  and  C_62
    6  A    between atoms: C_7  and  C_36
    7  A    between atoms: C_10  and  C_32
    8  A    between atoms: C_12  and  C_27
    9  A    between atoms: C_15  and  C_32
   10  A    between atoms: C_18  and  C_22
   11  A    between atoms: C_27  and  O_50
   12  A    between atoms: N_30  and  C_45
   13  A    between atoms: S_35  and  C_45
   14  A    between atoms: C_48  and  C_63
                            x       y       z     vdW  Elec       q    Type
                         _______ _______ _______ _____ _____    ______ ____

>  <TORSDO>
F 14

$$$$
=
 OpenBabel11072409383D

 63 71  0  0  1  0  0  0  0  0999 V2000
  189.7050  176.8250  145.8260 P   0  0  1  0  0  0  0  0  0  0  0  0
  190.8060  175.4030  145.5150 C   0  0  1  0  0  0  0  0  0  0  0  0
  190.7100  171.5350  141.1600 C   0  0  0  0  0  2  0  0  0  0  0  0
  191.9320  176.0410  146.0130 O   0  0  0  0  0  1  0  0  0  0  0  0
  189.3260  174.7330  141.7640 C   0  0  1  0  0  3  0  0  0  0  0  0
  191.7620  171.9630  142.1830 C   0  0  1  0  0  3  0  0  0  0  0  0
  191.5780  175.6640  143.0840 O   0  0  0  0  0  0  0  0  0  0  0  0
  189.2010  175.0210  143.3190 C   0  0  0  0  0  2  0  0  0  0  0  0
  190.1480  178.0230  146.6550 O   0  0  0  0  0  0  0  0  0  0  0  0
  187.9790  172.7530  139.2730 O   0  0  0  0  0  0  0  0  0  0  0  0
  191.7070  174.3410  144.9330 C   0  0  0  0  0  0  0  0  0  0  0  0
  188.7460  173.1790  140.1860 C   0  0  0  0  0  0  0  0  0  0  0  0
  191.1150  173.1590  139.2850 C   0  0  0  0  0  1  0  0  0  0  0  0
  191.0730  173.2110  142.7790 C   0  0  1  0  0  0  0  0  0  0  0  0
  192.0100  174.3980  143.4010 C   0  0  1  0  0  3  0  0  0  0  0  0
  190.5330  173.8050  141.5310 C   0  0  1  0  0  3  0  0  0  0  0  0
  190.2130  172.8310  140.4750 C   0  0  2  0  0  0  0  0  0  0  0  0
  190.0430  177.1710  144.1880 O   0  0  0  0  0  0  0  0  0  0  0  0
  190.4490  175.7930  143.9510 C   0  0  1  0  0  0  0  0  0  0  0  0
  190.0180  172.4300  143.7600 C   0  0  0  0  0  1  0  0  0  0  0  0
  188.2180  174.0950  141.0600 O   0  0  0  0  0  0  0  0  0  0  0  0
  192.3230  173.5290  145.5530 O   0  0  0  0  0  0  0  0  0  0  0  0
  186.8750  177.0370  147.0920 S   0  0  0  0  0  0  0  0  0  0  0  0
  188.1620  176.1540  146.3620 C   0  0  0  0  0  2  0  0  0  0  0  0
  186.1380  178.3420  146.1220 C   0  0  1  0  0  3  0  0  0  0  0  0
  186.3550  178.1070  144.7870 O   0  0  0  0  0  0  0  0  0  0  0  0
  184.0300  177.3260  146.6340 O   0  0  0  0  0  1  0  0  0  0  0  0
  184.6530  178.5250  146.3460 C   0  0  2  0  0  3  0  0  0  0  0  0
  185.3280  178.7720  144.0540 C   0  0  2  0  0  3  0  0  0  0  0  0
  184.1410  179.0190  145.0060 C   0  0  0  0  0  2  0  0  0  0  0  0
  185.9820  176.8090  142.6860 C   0  0  0  0  0  1  0  0  0  0  0  0
  184.9350  177.8890  142.8850 C   0  0  0  0  0  2  0  0  0  0  0  0
  192.0290  170.6760  143.0450 C   0  0  0  0  0  2  0  0  0  0  0  0
  193.3640  170.2940  142.4920 C   0  0  1  0  0  3  0  0  0  0  0  0
  194.6750  169.3880  144.4030 O   0  0  0  0  0  0  0  0  0  0  0  0
  194.8090  171.7380  144.5370 C   0  0  1  0  0  3  0  0  0  0  0  0
  195.2890  171.2880  143.2880 O   0  0  0  0  0  0  0  0  0  0  0  0
  194.9460  169.9210  140.8470 C   0  0  2  0  0  3  0  0  0  0  0  0
  194.4170  170.4130  145.2790 C   0  0  0  0  0  2  0  0  0  0  0  0
  193.5050  171.8300  140.6870 O   0  0  0  0  0  1  0  0  0  0  0  0
  195.3640  169.1670  142.0530 C   0  0  2  0  0  3  0  0  0  0  0  0
  193.5650  170.4440  141.0420 C   0  0  2  0  0  3  0  0  0  0  0  0
  194.7150  170.0540  143.1450 C   0  0  2  0  0  0  0  0  0  0  0  0
  196.8890  169.0250  142.1660 C   0  0  1  0  0  3  0  0  0  0  0  0
  197.7600  170.2070  141.8040 C   0  0  0  0  0  1  0  0  0  0  0  0
  197.1900  168.6540  143.4900 O   0  0  0  0  0  1  0  0  0  0  0  0
  195.1290  169.3870  139.4200 C   0  0  0  0  0  2  0  0  0  0  0  0
  196.1580  170.0870  138.6830 O   0  0  0  0  0  1  0  0  0  0  0  0
  195.7220  172.8660  145.1090 C   0  0  1  0  0  3  0  0  0  0  0  0
  197.0970  172.6300  144.5740 C   0  0  0  0  0  0  0  0  0  0  0  0
  197.6860  171.5720  145.0120 O   0  0  0  0  0  0  0  0  0  0  0  0
  197.7210  173.4100  143.5330 O   0  0  0  0  0  0  0  0  0  0  0  0
  197.2110  174.0470  142.3650 C   0  0  0  0  0  0  0  0  0  0  0  0
  196.5570  175.9930  141.2120 N   0  0  0  0  0  2  0  0  0  0  0  0
  196.3320  174.9420  140.0620 S   0  0  1  0  0  3  0  0  0  0  0  0
  197.1170  175.3590  142.3870 C   0  0  0  0  0  3  0  0  0  0  0  0
  196.6200  173.4760  141.0780 C   0  0  0  0  0  2  0  0  0  0  0  0
  194.7310  175.2710  139.2690 C   0  0  0  0  0  2  0  0  0  0  0  0
  194.6860  173.4840  137.7750 C   0  0  0  0  0  1  0  0  0  0  0  0
  193.4470  175.2970  137.2900 C   0  0  0  0  0  1  0  0  0  0  0  0
  194.7450  174.9380  137.8460 N   0  0  0  0  0  0  0  0  0  0  0  0
  195.4860  174.9340  145.8950 C   0  0  0  0  0  1  0  0  0  0  0  0
  195.2380  174.1220  144.7790 O   0  0  0  0  0  0  0  0  0  0  0  0
  1 24  1  0  0  0  0
  1  9  2  1  0  0  0
  2  1  1  0  0  0  0
  2  4  1  6  0  0  0
  3  6  1  0  0  0  0
  5  8  1  1  0  0  0
  6 14  1  0  0  0  0
  6 33  1  1  0  0  0
  7 19  1  0  0  0  0
  8 19  1  0  0  0  0
 10 12  2  0  0  0  0
 11  2  1  0  0  0  0
 11 22  2  0  0  0  0
 12 17  1  0  0  0  0
 12 21  1  0  0  0  0
 13 17  1  0  0  0  0
 14 15  1  0  0  0  0
 14 20  1  1  0  0  0
 15  7  1  6  0  0  0
 15 11  1  0  0  0  0
 16  5  1  0  0  0  0
 16 14  1  0  0  0  0
 17  3  1  0  0  0  0
 17 16  1  0  0  0  0
 18  1  1  0  0  0  0
 19 18  1  0  0  0  0
 19  2  1  0  0  0  0
 21  5  1  0  0  0  0
 24 23  1  0  0  0  0
 25 28  1  0  0  0  0
 25 23  1  0  0  0  0
 26 25  1  0  0  0  0
 28 27  1  0  0  0  0
 29 26  1  0  0  0  0
 29 30  1  0  0  0  0
 30 28  1  0  0  0  0
 31 32  1  0  0  0  0
 32 29  1  0  0  0  0
 34 33  1  0  0  0  0
 34 43  1  0  0  0  0
 35 39  1  0  0  0  0
 36 49  1  0  0  0  0
 36 39  1  0  0  0  0
 37 36  1  0  0  0  0
 38 42  1  0  0  0  0
 38 41  1  0  0  0  0
 40 42  1  0  0  0  0
 41 44  1  0  0  0  0
 41 43  1  0  0  0  0
 42 34  1  0  0  0  0
 43 37  1  0  0  0  0
 43 35  1  0  0  0  0
 44 46  1  0  0  0  0
 45 44  1  0  0  0  0
 47 38  1  0  0  0  0
 48 47  1  0  0  0  0
 50 51  2  0  0  0  0
 50 49  1  0  0  0  0
 52 50  1  0  0  0  0
 53 56  2  0  0  0  0
 53 52  1  0  0  0  0
 54 56  1  0  0  0  0
 55 57  1  0  0  0  0
 55 54  1  0  0  0  0
 57 53  1  0  0  0  0
 58 55  1  0  0  0  0
 59 61  1  0  0  0  0
 60 61  1  0  0  0  0
 61 58  1  0  0  0  0
 63 49  1  0  0  0  0
 63 62  1  0  0  0  0
M  END
>  <MODEL>
3

>  <REMARK>
 VINA RESULT:      -6.9      1.674      2.626
  Name = 
  14 active torsions:
  status: ('A' for Active; 'I' for Inactive)
    1  A    between atoms: C_1  and  O_21
    2  A    between atoms: C_3  and  O_21
    3  A    between atoms: C_3  and  C_27
    4  A    between atoms: C_4  and  S_55
    5  A    between atoms: P_5  and  C_62
    6  A    between atoms: C_7  and  C_36
    7  A    between atoms: C_10  and  C_32
    8  A    between atoms: C_12  and  C_27
    9  A    between atoms: C_15  and  C_32
   10  A    between atoms: C_18  and  C_22
   11  A    between atoms: C_27  and  O_50
   12  A    between atoms: N_30  and  C_45
   13  A    between atoms: S_35  and  C_45
   14  A    between atoms: C_48  and  C_63
                            x       y       z     vdW  Elec       q    Type
                         _______ _______ _______ _____ _____    ______ ____

>  <TORSDO>
F 14

$$$$
=
 OpenBabel11072409383D

 63 71  0  0  1  0  0  0  0  0999 V2000
  196.4870  170.2370  145.8140 P   0  0  1  0  0  0  0  0  0  0  0  0
  194.9750  169.9990  144.8220 C   0  0  1  0  0  0  0  0  0  0  0  0
  194.2290  170.4210  139.0600 C   0  0  0  0  0  2  0  0  0  0  0  0
  194.4820  168.9890  145.6350 O   0  0  0  0  0  1  0  0  0  0  0  0
  196.9770  170.0770  141.2590 C   0  0  1  0  0  3  0  0  0  0  0  0
  193.4340  169.7730  140.1930 C   0  0  1  0  0  3  0  0  0  0  0  0
  195.6340  168.3560  142.9660 O   0  0  0  0  0  0  0  0  0  0  0  0
  196.6220  170.6100  142.7100 C   0  0  0  0  0  2  0  0  0  0  0  0
  196.6660  169.5920  147.1820 O   0  0  0  0  0  0  0  0  0  0  0  0
  197.5220  171.1980  138.0350 O   0  0  0  0  0  0  0  0  0  0  0  0
  193.9360  169.6290  143.7910 C   0  0  0  0  0  0  0  0  0  0  0  0
  196.9510  170.7300  139.0640 C   0  0  0  0  0  0  0  0  0  0  0  0
  195.7980  168.5720  138.4010 C   0  0  0  0  0  1  0  0  0  0  0  0
  194.4560  169.8890  141.3470 C   0  0  1  0  0  0  0  0  0  0  0  0
  194.3970  168.7910  142.5560 C   0  0  1  0  0  3  0  0  0  0  0  0
  195.6920  169.5340  140.6060 C   0  0  1  0  0  3  0  0  0  0  0  0
  195.6750  169.8830  139.1770 C   0  0  2  0  0  0  0  0  0  0  0  0
  197.1600  169.1840  144.6500 O   0  0  0  0  0  0  0  0  0  0  0  0
  196.0870  169.4880  143.7140 C   0  0  1  0  0  0  0  0  0  0  0  0
  194.2140  171.4730  141.6930 C   0  0  0  0  0  1  0  0  0  0  0  0
  197.5400  170.9960  140.2740 O   0  0  0  0  0  0  0  0  0  0  0  0
  192.7590  169.8020  143.8900 O   0  0  0  0  0  0  0  0  0  0  0  0
  195.8940  173.1780  145.0030 S   0  0  0  0  0  0  0  0  0  0  0  0
  196.8070  171.9740  145.8300 C   0  0  0  0  0  2  0  0  0  0  0  0
  194.1750  173.3420  145.4570 C   0  0  1  0  0  3  0  0  0  0  0  0
  194.0500  174.2500  146.4800 O   0  0  0  0  0  0  0  0  0  0  0  0
  193.9170  174.5970  143.4320 O   0  0  0  0  0  1  0  0  0  0  0  0
  193.2670  173.7650  144.3230 C   0  0  2  0  0  3  0  0  0  0  0  0
  192.7300  174.7860  146.4300 C   0  0  2  0  0  3  0  0  0  0  0  0
  192.1740  174.5630  145.0100 C   0  0  0  0  0  2  0  0  0  0  0  0
  194.1850  176.7940  146.4400 C   0  0  0  0  0  1  0  0  0  0  0  0
  192.8050  176.2600  146.7770 C   0  0  0  0  0  2  0  0  0  0  0  0
  192.0670  170.5510  140.2190 C   0  0  0  0  0  2  0  0  0  0  0  0
  191.7770  170.5670  138.7530 C   0  0  1  0  0  3  0  0  0  0  0  0
  192.1950  172.8970  137.9860 O   0  0  0  0  0  0  0  0  0  0  0  0
  190.0450  172.8720  138.9520 C   0  0  1  0  0  3  0  0  0  0  0  0
  190.1230  171.9330  137.9010 O   0  0  0  0  0  0  0  0  0  0  0  0
  191.2700  169.6630  136.6850 C   0  0  2  0  0  3  0  0  0  0  0  0
  191.4700  173.5250  138.9680 C   0  0  0  0  0  2  0  0  0  0  0  0
  190.1730  168.8200  138.6430 O   0  0  0  0  0  1  0  0  0  0  0  0
  191.8750  170.9970  136.4580 C   0  0  2  0  0  3  0  0  0  0  0  0
  191.4210  169.2870  138.1190 C   0  0  2  0  0  3  0  0  0  0  0  0
  191.4640  171.6910  137.7800 C   0  0  2  0  0  0  0  0  0  0  0  0
  191.3500  171.6780  135.1860 C   0  0  1  0  0  3  0  0  0  0  0  0
  189.8670  171.6300  134.8920 C   0  0  0  0  0  1  0  0  0  0  0  0
  191.7390  173.0310  135.2300 O   0  0  0  0  0  1  0  0  0  0  0  0
  191.5370  168.4560  135.7750 C   0  0  0  0  0  2  0  0  0  0  0  0
  192.8390  168.5000  135.1480 O   0  0  0  0  0  1  0  0  0  0  0  0
  188.6900  173.6450  138.9060 C   0  0  1  0  0  3  0  0  0  0  0  0
  188.3600  174.0330  140.3100 C   0  0  0  0  0  0  0  0  0  0  0  0
  188.1900  173.0530  141.1280 O   0  0  0  0  0  0  0  0  0  0  0  0
  188.3590  175.3850  140.8130 O   0  0  0  0  0  0  0  0  0  0  0  0
  187.8810  175.9670  142.0230 C   0  0  0  0  0  0  0  0  0  0  0  0
  188.1290  176.4100  144.3210 N   0  0  0  0  0  2  0  0  0  0  0  0
  186.7930  177.2010  144.0640 S   0  0  1  0  0  3  0  0  0  0  0  0
  188.6440  175.8540  143.0880 C   0  0  0  0  0  3  0  0  0  0  0  0
  186.5470  176.6240  142.3710 C   0  0  0  0  0  2  0  0  0  0  0  0
  185.6180  176.8200  145.3970 C   0  0  0  0  0  2  0  0  0  0  0  0
  185.6320  178.9840  146.2600 C   0  0  0  0  0  1  0  0  0  0  0  0
  184.3580  178.5760  144.4520 C   0  0  0  0  0  1  0  0  0  0  0  0
  184.7560  177.9580  145.7100 N   0  0  0  0  0  0  0  0  0  0  0  0
  187.4650  174.9380  137.5730 C   0  0  0  0  0  1  0  0  0  0  0  0
  188.7650  174.7410  138.0610 O   0  0  0  0  0  0  0  0  0  0  0  0
  1 24  1  0  0  0  0
  1  9  2  1  0  0  0
  2  4  1  1  0  0  0
  2  1  1  0  0  0  0
  3 17  1  0  0  0  0
  3  6  1  0  0  0  0
  5  8  1  1  0  0  0
  6 33  1  1  0  0  0
  6 14  1  0  0  0  0
  7 19  1  0  0  0  0
  8 19  1  0  0  0  0
 10 12  2  0  0  0  0
 11 22  2  0  0  0  0
 11  2  1  0  0  0  0
 12 17  1  0  0  0  0
 12 21  1  0  0  0  0
 13 17  1  0  0  0  0
 14 20  1  1  0  0  0
 14 15  1  0  0  0  0
 15  7  1  1  0  0  0
 15 11  1  0  0  0  0
 16  5  1  0  0  0  0
 16 14  1  0  0  0  0
 17 16  1  0  0  0  0
 18  1  1  0  0  0  0
 19 18  1  0  0  0  0
 19  2  1  0  0  0  0
 21  5  1  0  0  0  0
 23 25  1  0  0  0  0
 23 24  1  0  0  0  0
 25 26  1  0  0  0  0
 27 28  1  0  0  0  0
 28 30  1  0  0  0  0
 28 25  1  0  0  0  0
 29 26  1  0  0  0  0
 29 32  1  0  0  0  0
 30 29  1  0  0  0  0
 31 32  1  0  0  0  0
 34 33  1  0  0  0  0
 35 39  1  0  0  0  0
 36 39  1  0  0  0  0
 37 36  1  0  0  0  0
 38 42  1  0  0  0  0
 41 38  1  0  0  0  0
 41 43  1  0  0  0  0
 42 40  1  0  0  0  0
 42 34  1  0  0  0  0
 43 37  1  0  0  0  0
 43 35  1  0  0  0  0
 43 34  1  0  0  0  0
 44 46  1  0  0  0  0
 44 41  1  0  0  0  0
 45 44  1  0  0  0  0
 47 38  1  0  0  0  0
 48 47  1  0  0  0  0
 49 36  1  0  0  0  0
 49 50  1  0  0  0  0
 50 52  1  0  0  0  0
 50 51  2  0  0  0  0
 52 53  1  0  0  0  0
 53 57  1  0  0  0  0
 53 56  2  0  0  0  0
 55 54  1  0  0  0  0
 55 58  1  0  0  0  0
 56 54  1  0  0  0  0
 57 55  1  0  0  0  0
 58 61  1  0  0  0  0
 60 61  1  0  0  0  0
 61 59  1  0  0  0  0
 62 63  1  0  0  0  0
 63 49  1  0  0  0  0
M  END
>  <MODEL>
4

>  <REMARK>
 VINA RESULT:      -6.5      3.422      8.900
  Name = 
  14 active torsions:
  status: ('A' for Active; 'I' for Inactive)
    1  A    between atoms: C_1  and  O_21
    2  A    between atoms: C_3  and  O_21
    3  A    between atoms: C_3  and  C_27
    4  A    between atoms: C_4  and  S_55
    5  A    between atoms: P_5  and  C_62
    6  A    between atoms: C_7  and  C_36
    7  A    between atoms: C_10  and  C_32
    8  A    between atoms: C_12  and  C_27
    9  A    between atoms: C_15  and  C_32
   10  A    between atoms: C_18  and  C_22
   11  A    between atoms: C_27  and  O_50
   12  A    between atoms: N_30  and  C_45
   13  A    between atoms: S_35  and  C_45
   14  A    between atoms: C_48  and  C_63
                            x       y       z     vdW  Elec       q    Type
                         _______ _______ _______ _____ _____    ______ ____

>  <TORSDO>
F 14

$$$$
=
 OpenBabel11072409383D

 63 71  0  0  1  0  0  0  0  0999 V2000
  197.2630  174.3020  138.2230 P   0  0  1  0  0  0  0  0  0  0  0  0
  195.7110  174.3610  139.1800 C   0  0  1  0  0  0  0  0  0  0  0  0
  194.6000  172.3860  144.5480 C   0  0  0  0  0  2  0  0  0  0  0  0
  195.3280  175.5920  138.6700 O   0  0  0  0  0  1  0  0  0  0  0  0
  197.4890  173.1350  142.6510 C   0  0  1  0  0  3  0  0  0  0  0  0
  193.9130  173.3840  143.6150 C   0  0  1  0  0  3  0  0  0  0  0  0
  196.3540  175.3610  141.4530 O   0  0  0  0  0  0  0  0  0  0  0  0
  197.1910  173.0600  141.0950 C   0  0  0  0  0  2  0  0  0  0  0  0
  197.5610  175.2920  137.1050 O   0  0  0  0  0  0  0  0  0  0  0  0
  197.7760  171.1130  145.4400 O   0  0  0  0  0  0  0  0  0  0  0  0
  194.6360  174.5000  140.2310 C   0  0  0  0  0  0  0  0  0  0  0  0
  197.2950  171.8930  144.5650 C   0  0  0  0  0  0  0  0  0  0  0  0
  196.2330  173.8540  145.7700 C   0  0  0  0  0  1  0  0  0  0  0  0
  194.9930  173.5230  142.5190 C   0  0  1  0  0  0  0  0  0  0  0  0
  195.0710  174.9190  141.6720 C   0  0  1  0  0  3  0  0  0  0  0  0
  196.2020  173.5640  143.3790 C   0  0  1  0  0  3  0  0  0  0  0  0
  196.0800  172.8280  144.6480 C   0  0  2  0  0  0  0  0  0  0  0  0
  197.9270  174.9320  139.6670 O   0  0  0  0  0  0  0  0  0  0  0  0
  196.7840  174.4560  140.4320 C   0  0  1  0  0  0  0  0  0  0  0  0
  194.6810  172.1240  141.7260 C   0  0  0  0  0  1  0  0  0  0  0  0
  197.9380  171.9370  143.3550 O   0  0  0  0  0  0  0  0  0  0  0  0
  193.4590  174.4480  140.0390 O   0  0  0  0  0  0  0  0  0  0  0  0
  196.2880  171.3820  137.7990 S   0  0  0  0  0  0  0  0  0  0  0  0
  197.4810  172.6220  137.7260 C   0  0  0  0  0  2  0  0  0  0  0  0
  194.8060  171.6290  136.8350 C   0  0  1  0  0  3  0  0  0  0  0  0
  194.8600  170.8610  135.6970 O   0  0  0  0  0  0  0  0  0  0  0  0
  193.6940  170.2870  138.4790 O   0  0  0  0  0  1  0  0  0  0  0  0
  193.5210  171.3130  137.5700 C   0  0  2  0  0  3  0  0  0  0  0  0
  193.5210  170.6170  135.2700 C   0  0  2  0  0  3  0  0  0  0  0  0
  192.5860  170.8300  136.4770 C   0  0  0  0  0  2  0  0  0  0  0  0
  192.7920  168.3040  135.7850 C   0  0  0  0  0  1  0  0  0  0  0  0
  193.4440  169.1970  134.7450 C   0  0  0  0  0  2  0  0  0  0  0  0
  192.5080  172.7470  143.3130 C   0  0  0  0  0  2  0  0  0  0  0  0
  191.6700  173.5760  144.2330 C   0  0  1  0  0  3  0  0  0  0  0  0
  189.7150  172.1680  144.8540 O   0  0  0  0  0  0  0  0  0  0  0  0
  189.2470  173.0900  142.7350 C   0  0  1  0  0  3  0  0  0  0  0  0
  189.4970  174.1140  143.6730 O   0  0  0  0  0  0  0  0  0  0  0  0
  191.1520  175.4000  145.5580 C   0  0  2  0  0  3  0  0  0  0  0  0
  189.3840  171.7770  143.5800 C   0  0  0  0  0  2  0  0  0  0  0  0
  192.2430  175.7440  143.4510 O   0  0  0  0  0  1  0  0  0  0  0  0
  190.2940  174.2710  145.9900 C   0  0  2  0  0  3  0  0  0  0  0  0
  192.1870  174.9030  144.6080 C   0  0  2  0  0  3  0  0  0  0  0  0
  190.2130  173.4880  144.6560 C   0  0  2  0  0  0  0  0  0  0  0  0
  188.9390  174.7330  146.5450 C   0  0  1  0  0  3  0  0  0  0  0  0
  188.6140  174.4580  147.9960 C   0  0  0  0  0  1  0  0  0  0  0  0
  188.8390  176.1220  146.3340 O   0  0  0  0  0  1  0  0  0  0  0  0
  191.7570  176.4160  146.5370 C   0  0  0  0  0  2  0  0  0  0  0  0
  192.4410  175.7890  147.6470 O   0  0  0  0  0  1  0  0  0  0  0  0
  188.0400  173.4600  141.8170 C   0  0  1  0  0  3  0  0  0  0  0  0
  188.4650  174.6240  140.9830 C   0  0  0  0  0  0  0  0  0  0  0  0
  189.5710  174.4690  140.3420 O   0  0  0  0  0  0  0  0  0  0  0  0
  187.6720  175.8070  140.7540 O   0  0  0  0  0  0  0  0  0  0  0  0
  187.0560  176.7440  141.6330 C   0  0  0  0  0  0  0  0  0  0  0  0
  186.3630  178.9380  142.1320 N   0  0  0  0  0  2  0  0  0  0  0  0
  185.8090  178.2110  143.4140 S   0  0  1  0  0  3  0  0  0  0  0  0
  186.9500  177.9850  141.2130 C   0  0  0  0  0  3  0  0  0  0  0  0
  186.5760  176.6100  143.0770 C   0  0  0  0  0  2  0  0  0  0  0  0
  186.2340  179.1980  144.8780 C   0  0  0  0  0  2  0  0  0  0  0  0
  184.4910  178.0260  145.8860 C   0  0  0  0  0  1  0  0  0  0  0  0
  185.6250  179.5110  147.1360 C   0  0  0  0  0  1  0  0  0  0  0  0
  185.0990  179.3460  145.7880 N   0  0  0  0  0  0  0  0  0  0  0  0
  188.1910  172.5940  139.7730 C   0  0  0  0  0  1  0  0  0  0  0  0
  187.6440  172.3780  141.0470 O   0  0  0  0  0  0  0  0  0  0  0  0
  1  9  2  6  0  0  0
  1  2  1  0  0  0  0
  1 18  1  0  0  0  0
  2  4  1  6  0  0  0
  2 11  1  0  0  0  0
  2 19  1  0  0  0  0
  3 17  1  0  0  0  0
  5  8  1  6  0  0  0
  5 21  1  0  0  0  0
  5 16  1  0  0  0  0
  6 33  1  6  0  0  0
  6  3  1  0  0  0  0
  7 15  1  0  0  0  0
 12 17  1  0  0  0  0
 12 10  2  0  0  0  0
 14 20  1  6  0  0  0
 14 16  1  0  0  0  0
 14  6  1  0  0  0  0
 15 11  1  6  0  0  0
 15 14  1  0  0  0  0
 16 17  1  0  0  0  0
 17 13  1  0  0  0  0
 18 19  1  0  0  0  0
 19  8  1  0  0  0  0
 19  7  1  0  0  0  0
 21 12  1  0  0  0  0
 22 11  2  0  0  0  0
 24 23  1  0  0  0  0
 24  1  1  0  0  0  0
 25 28  1  0  0  0  0
 25 23  1  0  0  0  0
 26 25  1  0  0  0  0
 28 27  1  0  0  0  0
 29 26  1  0  0  0  0
 29 30  1  0  0  0  0
 30 28  1  0  0  0  0
 32 29  1  0  0  0  0
 32 31  1  0  0  0  0
 33 34  1  0  0  0  0
 34 42  1  0  0  0  0
 34 43  1  0  0  0  0
 36 39  1  0  0  0  0
 36 37  1  0  0  0  0
 37 43  1  0  0  0  0
 38 41  1  0  0  0  0
 38 47  1  0  0  0  0
 39 35  1  0  0  0  0
 40 42  1  0  0  0  0
 41 44  1  0  0  0  0
 42 38  1  0  0  0  0
 43 35  1  0  0  0  0
 43 41  1  0  0  0  0
 44 45  1  0  0  0  0
 46 44  1  0  0  0  0
 47 48  1  0  0  0  0
 49 36  1  0  0  0  0
 50 49  1  0  0  0  0
 51 50  2  0  0  0  0
 52 50  1  0  0  0  0
 52 53  1  0  0  0  0
 53 57  1  0  0  0  0
 54 55  1  0  0  0  0
 55 58  1  0  0  0  0
 56 53  2  0  0  0  0
 56 54  1  0  0  0  0
 57 55  1  0  0  0  0
 58 61  1  0  0  0  0
 61 59  1  0  0  0  0
 61 60  1  0  0  0  0
 62 63  1  0  0  0  0
 63 49  1  0  0  0  0
M  END
>  <MODEL>
5

>  <REMARK>
 VINA RESULT:      -6.4      3.681     10.229
  Name = 
  14 active torsions:
  status: ('A' for Active; 'I' for Inactive)
    1  A    between atoms: C_1  and  O_21
    2  A    between atoms: C_3  and  O_21
    3  A    between atoms: C_3  and  C_27
    4  A    between atoms: C_4  and  S_55
    5  A    between atoms: P_5  and  C_62
    6  A    between atoms: C_7  and  C_36
    7  A    between atoms: C_10  and  C_32
    8  A    between atoms: C_12  and  C_27
    9  A    between atoms: C_15  and  C_32
   10  A    between atoms: C_18  and  C_22
   11  A    between atoms: C_27  and  O_50
   12  A    between atoms: N_30  and  C_45
   13  A    between atoms: S_35  and  C_45
   14  A    between atoms: C_48  and  C_63
                            x       y       z     vdW  Elec       q    Type
                         _______ _______ _______ _____ _____    ______ ____

>  <TORSDO>
F 14

$$$$
=
 OpenBabel11072409383D

 63 71  0  0  1  0  0  0  0  0999 V2000
  187.8120  175.4710  141.9690 P   0  0  1  0  0  0  0  0  0  0  0  0
  189.5170  174.8790  142.2320 C   0  0  1  0  0  0  0  0  0  0  0  0
  193.1320  175.8790  146.6910 C   0  0  0  0  0  2  0  0  0  0  0  0
  189.2890  173.6510  141.6300 O   0  0  0  0  0  1  0  0  0  0  0  0
  189.6570  176.1770  146.1060 C   0  0  1  0  0  3  0  0  0  0  0  0
  193.0770  174.8340  145.5760 C   0  0  1  0  0  3  0  0  0  0  0  0
  189.5240  173.8630  144.5870 O   0  0  0  0  0  0  0  0  0  0  0  0
  189.3450  176.3300  144.5580 C   0  0  0  0  0  2  0  0  0  0  0  0
  186.8280  174.7290  141.0740 O   0  0  0  0  0  0  0  0  0  0  0  0
  191.0780  177.8890  148.7510 O   0  0  0  0  0  0  0  0  0  0  0  0
  190.8170  174.3320  142.7730 C   0  0  0  0  0  0  0  0  0  0  0  0
  190.9300  177.1030  147.7680 C   0  0  0  0  0  0  0  0  0  0  0  0
  191.7320  174.8060  148.4800 C   0  0  0  0  0  1  0  0  0  0  0  0
  191.6720  175.1200  145.0000 C   0  0  1  0  0  0  0  0  0  0  0  0
  190.8620  173.9010  144.2730 C   0  0  1  0  0  3  0  0  0  0  0  0
  190.9320  175.3290  146.2700 C   0  0  1  0  0  3  0  0  0  0  0  0
  191.7440  175.8620  147.3750 C   0  0  2  0  0  0  0  0  0  0  0  0
  187.5950  174.9020  143.5650 O   0  0  0  0  0  0  0  0  0  0  0  0
  189.0300  174.9550  143.8080 C   0  0  1  0  0  0  0  0  0  0  0  0
  192.0610  176.4530  144.1290 C   0  0  0  0  0  1  0  0  0  0  0  0
  189.8920  177.3710  146.9130 O   0  0  0  0  0  0  0  0  0  0  0  0
  191.7880  174.0720  142.1290 O   0  0  0  0  0  0  0  0  0  0  0  0
  186.6190  178.2380  141.2070 S   0  0  0  0  0  0  0  0  0  0  0  0
  187.9350  177.1880  141.5750 C   0  0  0  0  0  2  0  0  0  0  0  0
  185.3880  178.4670  142.4790 C   0  0  1  0  0  3  0  0  0  0  0  0
  185.3260  177.3480  143.2730 O   0  0  0  0  0  0  0  0  0  0  0  0
  186.9660  179.9310  143.5320 O   0  0  0  0  0  1  0  0  0  0  0  0
  185.6190  179.6730  143.3630 C   0  0  2  0  0  3  0  0  0  0  0  0
  184.8180  177.7410  144.5460 C   0  0  2  0  0  3  0  0  0  0  0  0
  185.0420  179.2580  144.7040 C   0  0  0  0  0  2  0  0  0  0  0  0
  186.3750  177.8990  146.4700 C   0  0  0  0  0  1  0  0  0  0  0  0
  185.5540  176.9530  145.6120 C   0  0  0  0  0  2  0  0  0  0  0  0
  194.3810  175.0800  144.7330 C   0  0  0  0  0  2  0  0  0  0  0  0
  195.0080  173.7290  144.8680 C   0  0  1  0  0  3  0  0  0  0  0  0
  197.4500  174.1190  145.1380 O   0  0  0  0  0  0  0  0  0  0  0  0
  196.9870  174.2600  142.8300 C   0  0  1  0  0  3  0  0  0  0  0  0
  196.5790  173.0090  143.3390 O   0  0  0  0  0  0  0  0  0  0  0  0
  195.0490  171.4290  145.1020 C   0  0  2  0  0  3  0  0  0  0  0  0
  197.5950  174.9840  144.0810 C   0  0  0  0  0  2  0  0  0  0  0  0
  193.4440  172.4370  143.6340 O   0  0  0  0  0  1  0  0  0  0  0  0
  196.3640  171.9500  145.5440 C   0  0  2  0  0  3  0  0  0  0  0  0
  194.1070  172.5650  144.8970 C   0  0  2  0  0  3  0  0  0  0  0  0
  196.4320  173.2340  144.6800 C   0  0  2  0  0  0  0  0  0  0  0  0
  197.5090  170.9550  145.3040 C   0  0  1  0  0  3  0  0  0  0  0  0
  197.5820  169.7080  146.1570 C   0  0  0  0  0  1  0  0  0  0  0  0
  197.4560  170.5560  143.9540 O   0  0  0  0  0  1  0  0  0  0  0  0
  194.3400  170.2530  145.7890 C   0  0  0  0  0  2  0  0  0  0  0  0
  194.3320  169.0520  144.9830 O   0  0  0  0  0  1  0  0  0  0  0  0
  197.6870  174.0960  141.4450 C   0  0  1  0  0  3  0  0  0  0  0  0
  196.8020  173.2300  140.6080 C   0  0  0  0  0  0  0  0  0  0  0  0
  197.3840  172.6300  139.6280 O   0  0  0  0  0  0  0  0  0  0  0  0
  195.4220  172.9300  140.9060 O   0  0  0  0  0  0  0  0  0  0  0  0
  194.2610  172.8100  140.0890 C   0  0  0  0  0  0  0  0  0  0  0  0
  192.4830  171.5280  139.2310 N   0  0  0  0  0  2  0  0  0  0  0  0
  192.1250  172.9120  138.5720 S   0  0  1  0  0  3  0  0  0  0  0  0
  193.6360  171.6530  140.0970 C   0  0  0  0  0  3  0  0  0  0  0  0
  193.6370  173.7630  139.0730 C   0  0  0  0  0  2  0  0  0  0  0  0
  191.7000  172.6400  136.8260 C   0  0  0  0  0  2  0  0  0  0  0  0
  189.7560  173.7770  137.4230 C   0  0  0  0  0  1  0  0  0  0  0  0
  191.3560  174.9220  136.3340 C   0  0  0  0  0  1  0  0  0  0  0  0
  190.7200  173.6110  136.3430 N   0  0  0  0  0  0  0  0  0  0  0  0
  196.7090  175.7280  140.2920 C   0  0  0  0  0  1  0  0  0  0  0  0
  197.9290  175.3260  140.8550 O   0  0  0  0  0  0  0  0  0  0  0  0
  1  9  2  6  0  0  0
  1  2  1  0  0  0  0
  1 18  1  0  0  0  0
  2  4  1  6  0  0  0
  2 11  1  0  0  0  0
  2 19  1  0  0  0  0
  3 17  1  0  0  0  0
  5  8  1  6  0  0  0
  5 16  1  0  0  0  0
  5 21  1  0  0  0  0
  6 33  1  6  0  0  0
  6  3  1  0  0  0  0
 12 10  2  0  0  0  0
 14 20  1  6  0  0  0
 14  6  1  0  0  0  0
 14 16  1  0  0  0  0
 15 11  1  6  0  0  0
 15  7  1  0  0  0  0
 15 14  1  0  0  0  0
 16 17  1  0  0  0  0
 17 12  1  0  0  0  0
 17 13  1  0  0  0  0
 18 19  1  0  0  0  0
 19  8  1  0  0  0  0
 19  7  1  0  0  0  0
 21 12  1  0  0  0  0
 22 11  2  0  0  0  0
 23 24  1  0  0  0  0
 23 25  1  0  0  0  0
 24  1  1  0  0  0  0
 25 26  1  0  0  0  0
 25 28  1  0  0  0  0
 26 29  1  0  0  0  0
 28 27  1  0  0  0  0
 28 30  1  0  0  0  0
 29 30  1  0  0  0  0
 29 32  1  0  0  0  0
 32 31  1  0  0  0  0
 33 34  1  0  0  0  0
 34 42  1  0  0  0  0
 36 37  1  0  0  0  0
 36 39  1  0  0  0  0
 37 43  1  0  0  0  0
 38 41  1  0  0  0  0
 38 47  1  0  0  0  0
 39 35  1  0  0  0  0
 40 42  1  0  0  0  0
 42 38  1  0  0  0  0
 43 34  1  0  0  0  0
 43 35  1  0  0  0  0
 43 41  1  0  0  0  0
 44 41  1  0  0  0  0
 44 45  1  0  0  0  0
 46 44  1  0  0  0  0
 48 47  1  0  0  0  0
 49 36  1  0  0  0  0
 50 52  1  0  0  0  0
 50 49  1  0  0  0  0
 51 50  2  0  0  0  0
 53 56  2  0  0  0  0
 53 52  1  0  0  0  0
 54 56  1  0  0  0  0
 55 57  1  0  0  0  0
 55 54  1  0  0  0  0
 57 53  1  0  0  0  0
 58 55  1  0  0  0  0
 60 61  1  0  0  0  0
 61 58  1  0  0  0  0
 61 59  1  0  0  0  0
 62 63  1  0  0  0  0
 63 49  1  0  0  0  0
M  END
>  <MODEL>
6

>  <REMARK>
 VINA RESULT:      -6.2      2.849      5.967
  Name = 
  14 active torsions:
  status: ('A' for Active; 'I' for Inactive)
    1  A    between atoms: C_1  and  O_21
    2  A    between atoms: C_3  and  O_21
    3  A    between atoms: C_3  and  C_27
    4  A    between atoms: C_4  and  S_55
    5  A    between atoms: P_5  and  C_62
    6  A    between atoms: C_7  and  C_36
    7  A    between atoms: C_10  and  C_32
    8  A    between atoms: C_12  and  C_27
    9  A    between atoms: C_15  and  C_32
   10  A    between atoms: C_18  and  C_22
   11  A    between atoms: C_27  and  O_50
   12  A    between atoms: N_30  and  C_45
   13  A    between atoms: S_35  and  C_45
   14  A    between atoms: C_48  and  C_63
                            x       y       z     vdW  Elec       q    Type
                         _______ _______ _______ _____ _____    ______ ____

>  <TORSDO>
F 14

$$$$
=
 OpenBabel11072409383D

 63 71  0  0  1  0  0  0  0  0999 V2000
  196.8580  172.1040  137.9880 P   0  0  1  0  0  0  0  0  0  0  0  0
  195.9010  173.5170  138.6320 C   0  0  1  0  0  0  0  0  0  0  0  0
  193.9010  174.4810  144.0190 C   0  0  0  0  0  2  0  0  0  0  0  0
  196.5390  174.4450  137.8230 O   0  0  0  0  0  1  0  0  0  0  0  0
  196.3150  172.3660  142.5330 C   0  0  1  0  0  3  0  0  0  0  0  0
  194.1460  175.3670  142.7980 C   0  0  1  0  0  3  0  0  0  0  0  0
  197.1620  174.2900  140.7280 O   0  0  0  0  0  0  0  0  0  0  0  0
  196.0000  172.1230  140.9980 C   0  0  0  0  0  2  0  0  0  0  0  0
  197.7480  172.2250  136.7590 O   0  0  0  0  0  0  0  0  0  0  0  0
  195.1150  171.6070  145.6840 O   0  0  0  0  0  0  0  0  0  0  0  0
  195.3260  174.6620  139.4320 C   0  0  0  0  0  0  0  0  0  0  0  0
  195.3380  172.2210  144.5990 C   0  0  0  0  0  0  0  0  0  0  0  0
  196.1310  174.5590  145.1750 C   0  0  0  0  0  1  0  0  0  0  0  0
  194.9300  174.3850  141.8980 C   0  0  1  0  0  0  0  0  0  0  0  0
  195.9850  174.9950  140.8090 C   0  0  1  0  0  3  0  0  0  0  0  0
  195.8020  173.7640  142.9260 C   0  0  1  0  0  3  0  0  0  0  0  0
  195.2230  173.7190  144.2780 C   0  0  2  0  0  0  0  0  0  0  0  0
  197.8260  172.4070  139.3640 O   0  0  0  0  0  0  0  0  0  0  0  0
  196.7380  173.1330  140.0030 C   0  0  1  0  0  0  0  0  0  0  0  0
  193.6500  173.5090  141.3670 C   0  0  0  0  0  1  0  0  0  0  0  0
  195.7540  171.4640  143.5340 O   0  0  0  0  0  0  0  0  0  0  0  0
  194.4930  175.4290  139.0560 O   0  0  0  0  0  0  0  0  0  0  0  0
  194.0890  170.7520  138.3930 S   0  0  0  0  0  0  0  0  0  0  0  0
  195.7370  170.7430  137.8910 C   0  0  0  0  0  2  0  0  0  0  0  0
  192.9990  171.8990  137.5670 C   0  0  1  0  0  3  0  0  0  0  0  0
  192.6550  171.4050  136.3320 O   0  0  0  0  0  0  0  0  0  0  0  0
  191.3010  171.1360  139.0750 O   0  0  0  0  0  1  0  0  0  0  0  0
  191.7310  172.2170  138.3300 C   0  0  2  0  0  3  0  0  0  0  0  0
  191.4070  171.9870  135.9600 C   0  0  2  0  0  3  0  0  0  0  0  0
  190.7080  172.4840  137.2410 C   0  0  0  0  0  2  0  0  0  0  0  0
  191.3660  169.6280  135.1940 C   0  0  0  0  0  1  0  0  0  0  0  0
  190.5860  170.9290  135.2490 C   0  0  0  0  0  2  0  0  0  0  0  0
  192.7220  175.8980  142.3960 C   0  0  0  0  0  2  0  0  0  0  0  0
  192.0070  175.6570  143.6880 C   0  0  1  0  0  3  0  0  0  0  0  0
  191.0890  173.3490  143.5550 O   0  0  0  0  0  0  0  0  0  0  0  0
  189.5990  174.7450  142.3770 C   0  0  1  0  0  3  0  0  0  0  0  0
  189.7470  175.1940  143.7070 O   0  0  0  0  0  0  0  0  0  0  0  0
  191.3270  176.1210  145.8490 C   0  0  2  0  0  3  0  0  0  0  0  0
  190.5130  173.4730  142.3150 C   0  0  0  0  0  2  0  0  0  0  0  0
  191.3960  177.8870  144.2290 O   0  0  0  0  0  1  0  0  0  0  0  0
  191.1750  174.6630  145.6320 C   0  0  2  0  0  3  0  0  0  0  0  0
  192.0730  176.7190  144.7060 C   0  0  2  0  0  3  0  0  0  0  0  0
  190.9410  174.6570  144.1000 C   0  0  2  0  0  0  0  0  0  0  0  0
  190.0320  174.0550  146.4570 C   0  0  1  0  0  3  0  0  0  0  0  0
  188.8510  174.9280  146.8190 C   0  0  0  0  0  1  0  0  0  0  0  0
  189.5450  172.9340  145.7570 O   0  0  0  0  0  1  0  0  0  0  0  0
  191.7970  176.7260  147.1800 C   0  0  0  0  0  2  0  0  0  0  0  0
  190.7480  177.4370  147.8760 O   0  0  0  0  0  1  0  0  0  0  0  0
  188.1050  174.8150  141.9300 C   0  0  1  0  0  3  0  0  0  0  0  0
  187.7140  176.2570  141.9330 C   0  0  0  0  0  0  0  0  0  0  0  0
  188.6440  177.0810  141.5910 O   0  0  0  0  0  0  0  0  0  0  0  0
  186.3760  176.7480  142.1520 O   0  0  0  0  0  0  0  0  0  0  0  0
  185.6960  177.2200  143.3120 C   0  0  0  0  0  0  0  0  0  0  0  0
  184.1990  178.7140  144.3440 N   0  0  0  0  0  2  0  0  0  0  0  0
  184.5350  177.8090  145.5880 S   0  0  1  0  0  3  0  0  0  0  0  0
  184.8510  178.2150  143.1520 C   0  0  0  0  0  3  0  0  0  0  0  0
  185.8450  176.8580  144.7870 C   0  0  0  0  0  2  0  0  0  0  0  0
  184.8530  178.8770  147.0230 C   0  0  0  0  0  2  0  0  0  0  0  0
  186.3710  180.1250  148.2740 C   0  0  0  0  0  1  0  0  0  0  0  0
  186.8680  177.9730  147.8520 C   0  0  0  0  0  1  0  0  0  0  0  0
  186.2800  179.1390  147.2060 N   0  0  0  0  0  0  0  0  0  0  0  0
  187.5680  172.8920  140.9490 C   0  0  0  0  0  1  0  0  0  0  0  0
  187.9230  174.2240  140.6900 O   0  0  0  0  0  0  0  0  0  0  0  0
  1  9  2  6  0  0  0
  1  2  1  0  0  0  0
  1 18  1  0  0  0  0
  2  4  1  6  0  0  0
  2 11  1  0  0  0  0
  2 19  1  0  0  0  0
  3 17  1  0  0  0  0
  5  8  1  6  0  0  0
  5 16  1  0  0  0  0
  5 21  1  0  0  0  0
  6 33  1  6  0  0  0
  6  3  1  0  0  0  0
  7 15  1  0  0  0  0
 12 10  2  0  0  0  0
 14 20  1  6  0  0  0
 14  6  1  0  0  0  0
 14 16  1  0  0  0  0
 15 11  1  6  0  0  0
 15 14  1  0  0  0  0
 16 17  1  0  0  0  0
 17 12  1  0  0  0  0
 17 13  1  0  0  0  0
 18 19  1  0  0  0  0
 19  7  1  0  0  0  0
 19  8  1  0  0  0  0
 21 12  1  0  0  0  0
 22 11  2  0  0  0  0
 24  1  1  0  0  0  0
 24 23  1  0  0  0  0
 25 28  1  0  0  0  0
 25 23  1  0  0  0  0
 26 25  1  0  0  0  0
 28 27  1  0  0  0  0
 29 26  1  0  0  0  0
 29 30  1  0  0  0  0
 30 28  1  0  0  0  0
 31 32  1  0  0  0  0
 32 29  1  0  0  0  0
 33 34  1  0  0  0  0
 34 43  1  0  0  0  0
 34 42  1  0  0  0  0
 35 43  1  0  0  0  0
 36 37  1  0  0  0  0
 37 43  1  0  0  0  0
 38 47  1  0  0  0  0
 39 36  1  0  0  0  0
 39 35  1  0  0  0  0
 40 42  1  0  0  0  0
 41 38  1  0  0  0  0
 41 44  1  0  0  0  0
 42 38  1  0  0  0  0
 43 41  1  0  0  0  0
 44 45  1  0  0  0  0
 46 44  1  0  0  0  0
 47 48  1  0  0  0  0
 49 50  1  0  0  0  0
 49 36  1  0  0  0  0
 50 52  1  0  0  0  0
 51 50  2  0  0  0  0
 52 53  1  0  0  0  0
 53 57  1  0  0  0  0
 54 55  1  0  0  0  0
 55 58  1  0  0  0  0
 56 53  2  0  0  0  0
 56 54  1  0  0  0  0
 57 55  1  0  0  0  0
 58 61  1  0  0  0  0
 61 60  1  0  0  0  0
 61 59  1  0  0  0  0
 63 62  1  0  0  0  0
 63 49  1  0  0  0  0
M  END
>  <MODEL>
7

>  <REMARK>
 VINA RESULT:      -6.0      3.675     10.090
  Name = 
  14 active torsions:
  status: ('A' for Active; 'I' for Inactive)
    1  A    between atoms: C_1  and  O_21
    2  A    between atoms: C_3  and  O_21
    3  A    between atoms: C_3  and  C_27
    4  A    between atoms: C_4  and  S_55
    5  A    between atoms: P_5  and  C_62
    6  A    between atoms: C_7  and  C_36
    7  A    between atoms: C_10  and  C_32
    8  A    between atoms: C_12  and  C_27
    9  A    between atoms: C_15  and  C_32
   10  A    between atoms: C_18  and  C_22
   11  A    between atoms: C_27  and  O_50
   12  A    between atoms: N_30  and  C_45
   13  A    between atoms: S_35  and  C_45
   14  A    between atoms: C_48  and  C_63
                            x       y       z     vdW  Elec       q    Type
                         _______ _______ _______ _____ _____    ______ ____

>  <TORSDO>
F 14

$$$$
=
 OpenBabel11072409383D

 63 71  0  0  1  0  0  0  0  0999 V2000
  188.5020  174.9590  142.5730 P   0  0  1  0  0  0  0  0  0  0  0  0
  189.8880  174.5520  141.4590 C   0  0  1  0  0  0  0  0  0  0  0  0
  195.5840  174.1870  142.6250 C   0  0  0  0  0  2  0  0  0  0  0  0
  189.1500  173.6470  140.7120 O   0  0  0  0  0  1  0  0  0  0  0  0
  192.5910  174.2090  144.5070 C   0  0  1  0  0  3  0  0  0  0  0  0
  194.6920  173.6750  141.4940 C   0  0  1  0  0  3  0  0  0  0  0  0
  191.1940  172.6950  142.6530 O   0  0  0  0  0  0  0  0  0  0  0  0
  191.4160  174.9200  143.7120 C   0  0  0  0  0  2  0  0  0  0  0  0
  187.0760  174.5050  142.2880 O   0  0  0  0  0  0  0  0  0  0  0  0
  195.5850  174.9060  146.0860 O   0  0  0  0  0  0  0  0  0  0  0  0
  191.1400  174.0220  140.8020 C   0  0  0  0  0  0  0  0  0  0  0  0
  194.7420  174.5640  145.2040 C   0  0  0  0  0  0  0  0  0  0  0  0
  195.4480  172.3090  144.2880 C   0  0  0  0  0  1  0  0  0  0  0  0
  193.2970  173.9690  142.0900 C   0  0  1  0  0  0  0  0  0  0  0  0
  192.0360  173.0400  141.6230 C   0  0  1  0  0  3  0  0  0  0  0  0
  193.5440  173.5510  143.4920 C   0  0  1  0  0  3  0  0  0  0  0  0
  194.9360  173.7070  143.9450 C   0  0  2  0  0  0  0  0  0  0  0  0
  189.2350  173.7780  143.5680 O   0  0  0  0  0  0  0  0  0  0  0  0
  190.4990  173.9280  142.8600 C   0  0  1  0  0  0  0  0  0  0  0  0
  193.2630  175.5780  141.7790 C   0  0  0  0  0  1  0  0  0  0  0  0
  193.4540  175.0030  145.3750 O   0  0  0  0  0  0  0  0  0  0  0  0
  191.4500  174.1760  139.6610 O   0  0  0  0  0  0  0  0  0  0  0  0
  187.2920  177.7820  143.0460 S   0  0  0  0  0  0  0  0  0  0  0  0
  188.6160  176.6900  142.9040 C   0  0  0  0  0  2  0  0  0  0  0  0
  186.1170  177.4620  144.3520 C   0  0  1  0  0  3  0  0  0  0  0  0
  186.7830  177.2690  145.5380 O   0  0  0  0  0  0  0  0  0  0  0  0
  185.6060  179.8010  144.2600 O   0  0  0  0  0  1  0  0  0  0  0  0
  185.0880  178.5540  144.5480 C   0  0  2  0  0  3  0  0  0  0  0  0
  185.8880  177.5920  146.6000 C   0  0  2  0  0  3  0  0  0  0  0  0
  184.7770  178.4980  146.0330 C   0  0  0  0  0  2  0  0  0  0  0  0
  186.2770  179.7530  147.7520 C   0  0  0  0  0  1  0  0  0  0  0  0
  186.6780  178.2900  147.6890 C   0  0  0  0  0  2  0  0  0  0  0  0
  195.2130  174.4140  140.2070 C   0  0  0  0  0  2  0  0  0  0  0  0
  195.7550  173.2360  139.4620 C   0  0  1  0  0  3  0  0  0  0  0  0
  197.8980  173.9840  138.4420 O   0  0  0  0  0  0  0  0  0  0  0  0
  196.1680  174.7510  137.0360 C   0  0  1  0  0  3  0  0  0  0  0  0
  196.0980  173.3490  137.1830 O   0  0  0  0  0  0  0  0  0  0  0  0
  195.8520  171.0320  138.7690 C   0  0  2  0  0  3  0  0  0  0  0  0
  197.4200  175.1480  137.8920 C   0  0  0  0  0  2  0  0  0  0  0  0
  193.7240  172.1210  138.9430 O   0  0  0  0  0  1  0  0  0  0  0  0
  197.1910  171.6310  138.5540 C   0  0  2  0  0  3  0  0  0  0  0  0
  195.0080  171.9710  139.5590 C   0  0  2  0  0  3  0  0  0  0  0  0
  196.7780  173.1090  138.3450 C   0  0  2  0  0  0  0  0  0  0  0  0
  197.9410  171.0020  137.3710 C   0  0  1  0  0  3  0  0  0  0  0  0
  197.9130  169.4990  137.2070 C   0  0  0  0  0  1  0  0  0  0  0  0
  197.4390  171.5780  136.1880 O   0  0  0  0  0  1  0  0  0  0  0  0
  195.6480  169.5860  139.2440 C   0  0  0  0  0  2  0  0  0  0  0  0
  194.6630  168.8710  138.4630 O   0  0  0  0  0  1  0  0  0  0  0  0
  195.9100  175.1680  135.5540 C   0  0  1  0  0  3  0  0  0  0  0  0
  194.9530  176.3150  135.5830 C   0  0  0  0  0  0  0  0  0  0  0  0
  195.3580  177.3860  134.9940 O   0  0  0  0  0  0  0  0  0  0  0  0
  193.6030  176.2500  136.0880 O   0  0  0  0  0  0  0  0  0  0  0  0
  192.6220  175.2160  136.0950 C   0  0  0  0  0  0  0  0  0  0  0  0
  190.4160  174.4820  135.7300 N   0  0  0  0  0  2  0  0  0  0  0  0
  191.0650  173.1070  136.1370 S   0  0  1  0  0  3  0  0  0  0  0  0
  191.4150  175.5280  135.6770 C   0  0  0  0  0  3  0  0  0  0  0  0
  192.6670  173.7840  136.6240 C   0  0  0  0  0  2  0  0  0  0  0  0
  189.9700  172.2660  137.3180 C   0  0  0  0  0  2  0  0  0  0  0  0
  190.2440  170.6590  135.6540 C   0  0  0  0  0  1  0  0  0  0  0  0
  190.9950  170.1790  137.7180 C   0  0  0  0  0  1  0  0  0  0  0  0
  189.8750  170.8320  137.0520 N   0  0  0  0  0  0  0  0  0  0  0  0
  197.8650  174.3160  134.9210 C   0  0  0  0  0  1  0  0  0  0  0  0
  197.0940  175.4870  134.9080 O   0  0  0  0  0  0  0  0  0  0  0  0
  1  9  2  6  0  0  0
  1 24  1  0  0  0  0
  1 18  1  0  0  0  0
  2  4  1  6  0  0  0
  2  1  1  0  0  0  0
  2 19  1  0  0  0  0
  3 17  1  0  0  0  0
  5  8  1  6  0  0  0
  5 21  1  0  0  0  0
  6 33  1  6  0  0  0
  6 14  1  0  0  0  0
  6  3  1  0  0  0  0
  7 19  1  0  0  0  0
 11  2  1  0  0  0  0
 12 21  1  0  0  0  0
 12 10  2  0  0  0  0
 14 20  1  6  0  0  0
 14 16  1  0  0  0  0
 15 11  1  6  0  0  0
 15 14  1  0  0  0  0
 15  7  1  0  0  0  0
 16 17  1  0  0  0  0
 16  5  1  0  0  0  0
 17 13  1  0  0  0  0
 17 12  1  0  0  0  0
 19 18  1  0  0  0  0
 19  8  1  0  0  0  0
 22 11  2  0  0  0  0
 23 25  1  0  0  0  0
 24 23  1  0  0  0  0
 25 28  1  0  0  0  0
 25 26  1  0  0  0  0
 26 29  1  0  0  0  0
 27 28  1  0  0  0  0
 28 30  1  0  0  0  0
 29 32  1  0  0  0  0
 30 29  1  0  0  0  0
 32 31  1  0  0  0  0
 34 42  1  0  0  0  0
 34 33  1  0  0  0  0
 36 37  1  0  0  0  0
 36 39  1  0  0  0  0
 37 43  1  0  0  0  0
 38 47  1  0  0  0  0
 38 42  1  0  0  0  0
 39 35  1  0  0  0  0
 40 42  1  0  0  0  0
 41 38  1  0  0  0  0
 43 35  1  0  0  0  0
 43 41  1  0  0  0  0
 43 34  1  0  0  0  0
 44 41  1  0  0  0  0
 45 44  1  0  0  0  0
 46 44  1  0  0  0  0
 48 47  1  0  0  0  0
 49 50  1  0  0  0  0
 49 36  1  0  0  0  0
 50 52  1  0  0  0  0
 51 50  2  0  0  0  0
 52 53  1  0  0  0  0
 53 57  1  0  0  0  0
 54 55  1  0  0  0  0
 55 57  1  0  0  0  0
 55 58  1  0  0  0  0
 56 54  1  0  0  0  0
 56 53  2  0  0  0  0
 59 61  1  0  0  0  0
 61 58  1  0  0  0  0
 61 60  1  0  0  0  0
 63 62  1  0  0  0  0
 63 49  1  0  0  0  0
M  END
>  <MODEL>
8

>  <REMARK>
 VINA RESULT:      -5.9      3.772      7.200
  Name = 
  14 active torsions:
  status: ('A' for Active; 'I' for Inactive)
    1  A    between atoms: C_1  and  O_21
    2  A    between atoms: C_3  and  O_21
    3  A    between atoms: C_3  and  C_27
    4  A    between atoms: C_4  and  S_55
    5  A    between atoms: P_5  and  C_62
    6  A    between atoms: C_7  and  C_36
    7  A    between atoms: C_10  and  C_32
    8  A    between atoms: C_12  and  C_27
    9  A    between atoms: C_15  and  C_32
   10  A    between atoms: C_18  and  C_22
   11  A    between atoms: C_27  and  O_50
   12  A    between atoms: N_30  and  C_45
   13  A    between atoms: S_35  and  C_45
   14  A    between atoms: C_48  and  C_63
                            x       y       z     vdW  Elec       q    Type
                         _______ _______ _______ _____ _____    ______ ____

>  <TORSDO>
F 14

$$$$
=
 OpenBabel11072409383D

 63 71  0  0  1  0  0  0  0  0999 V2000
  191.5860  170.4060  135.7150 P   0  0  1  0  0  0  0  0  0  0  0  0
  191.0640  171.1530  137.2950 C   0  0  1  0  0  0  0  0  0  0  0  0
  194.3060  173.5660  141.4920 C   0  0  0  0  0  2  0  0  0  0  0  0
  189.8880  171.6720  136.7750 O   0  0  0  0  0  1  0  0  0  0  0  0
  194.7630  172.7010  138.0940 C   0  0  1  0  0  3  0  0  0  0  0  0
  192.8240  173.6270  141.1210 C   0  0  1  0  0  3  0  0  0  0  0  0
  192.1970  173.4530  137.3640 O   0  0  0  0  0  0  0  0  0  0  0  0
  193.7580  171.5560  137.6510 C   0  0  0  0  0  2  0  0  0  0  0  0
  190.6490  170.3120  134.5180 O   0  0  0  0  0  0  0  0  0  0  0  0
  197.5340  173.2340  140.0890 O   0  0  0  0  0  0  0  0  0  0  0  0
  190.8630  172.0140  138.5190 C   0  0  0  0  0  0  0  0  0  0  0  0
  196.3330  173.1780  139.6900 C   0  0  0  0  0  0  0  0  0  0  0  0
  195.2650  175.4360  140.1150 C   0  0  0  0  0  1  0  0  0  0  0  0
  192.8570  172.9310  139.7420 C   0  0  1  0  0  0  0  0  0  0  0  0
  191.7120  173.3200  138.6430 C   0  0  1  0  0  3  0  0  0  0  0  0
  194.0940  173.5440  139.1950 C   0  0  1  0  0  3  0  0  0  0  0  0
  195.0930  173.9210  140.2080 C   0  0  2  0  0  0  0  0  0  0  0  0
  192.4740  171.8580  135.5670 O   0  0  0  0  0  0  0  0  0  0  0  0
  192.3970  172.0840  137.0030 C   0  0  1  0  0  0  0  0  0  0  0  0
  192.9570  171.3860  140.2800 C   0  0  0  0  0  1  0  0  0  0  0  0
  196.0690  172.3410  138.6350 O   0  0  0  0  0  0  0  0  0  0  0  0
  190.0180  171.8640  139.3480 O   0  0  0  0  0  0  0  0  0  0  0  0
  193.9620  168.4040  135.7560 S   0  0  0  0  0  0  0  0  0  0  0  0
  192.3410  168.8610  136.1160 C   0  0  0  0  0  2  0  0  0  0  0  0
  195.2610  169.3940  136.4790 C   0  0  1  0  0  3  0  0  0  0  0  0
  195.5080  168.9690  137.7620 O   0  0  0  0  0  0  0  0  0  0  0  0
  196.7690  168.1660  135.0800 O   0  0  0  0  0  1  0  0  0  0  0  0
  196.5620  169.3790  135.7060 C   0  0  2  0  0  3  0  0  0  0  0  0
  196.8480  169.3310  138.0910 C   0  0  2  0  0  3  0  0  0  0  0  0
  197.6230  169.5500  136.7770 C   0  0  0  0  0  2  0  0  0  0  0  0
  197.9120  168.7540  140.2560 C   0  0  0  0  0  1  0  0  0  0  0  0
  197.4500  168.2100  138.9160 C   0  0  0  0  0  2  0  0  0  0  0  0
  192.0770  172.9900  142.3500 C   0  0  0  0  0  2  0  0  0  0  0  0
  191.0810  174.0740  142.6080 C   0  0  1  0  0  3  0  0  0  0  0  0
  192.3800  176.1900  142.7670 O   0  0  0  0  0  0  0  0  0  0  0  0
  192.5570  175.1220  144.8610 C   0  0  1  0  0  3  0  0  0  0  0  0
  191.2020  175.3410  144.5330 O   0  0  0  0  0  0  0  0  0  0  0  0
  188.9750  175.0040  142.8380 C   0  0  2  0  0  3  0  0  0  0  0  0
  193.3330  175.7320  143.6430 C   0  0  0  0  0  2  0  0  0  0  0  0
  189.4040  172.8190  143.7270 O   0  0  0  0  0  1  0  0  0  0  0  0
  189.9290  176.1080  142.5790 C   0  0  2  0  0  3  0  0  0  0  0  0
  189.6580  173.6960  142.6250 C   0  0  2  0  0  3  0  0  0  0  0  0
  191.2150  175.4790  143.1720 C   0  0  2  0  0  0  0  0  0  0  0  0
  189.5010  177.4290  143.2330 C   0  0  1  0  0  3  0  0  0  0  0  0
  189.0440  177.4130  144.6750 C   0  0  0  0  0  1  0  0  0  0  0  0
  190.5790  178.3300  143.1300 O   0  0  0  0  0  1  0  0  0  0  0  0
  187.5520  174.9740  142.2640 C   0  0  0  0  0  2  0  0  0  0  0  0
  186.5550  175.4340  143.2050 O   0  0  0  0  0  1  0  0  0  0  0  0
  192.8250  175.4450  146.3640 C   0  0  1  0  0  3  0  0  0  0  0  0
  194.2210  175.9690  146.4570 C   0  0  0  0  0  0  0  0  0  0  0  0
  194.3230  177.2430  146.6190 O   0  0  0  0  0  0  0  0  0  0  0  0
  195.4060  175.1490  146.5160 O   0  0  0  0  0  0  0  0  0  0  0  0
  195.7380  173.8860  145.9450 C   0  0  0  0  0  0  0  0  0  0  0  0
  197.3390  172.3380  145.1830 N   0  0  0  0  0  2  0  0  0  0  0  0
  196.0420  171.4750  144.9600 S   0  0  1  0  0  3  0  0  0  0  0  0
  197.0150  173.6050  145.8040 C   0  0  0  0  0  3  0  0  0  0  0  0
  194.8640  172.7930  145.3330 C   0  0  0  0  0  2  0  0  0  0  0  0
  196.1310  170.6920  143.3220 C   0  0  0  0  0  2  0  0  0  0  0  0
  195.4850  168.6560  144.2510 C   0  0  0  0  0  1  0  0  0  0  0  0
  193.8700  170.0880  143.6190 C   0  0  0  0  0  1  0  0  0  0  0  0
  195.1720  169.5980  143.1850 N   0  0  0  0  0  0  0  0  0  0  0  0
  191.2480  175.6840  147.9160 C   0  0  0  0  0  1  0  0  0  0  0  0
  191.8920  176.3430  146.8590 O   0  0  0  0  0  0  0  0  0  0  0  0
  1  9  2  6  0  0  0
  1 24  1  0  0  0  0
  1  2  1  0  0  0  0
  2  4  1  6  0  0  0
  2 11  1  0  0  0  0
  5  8  1  1  0  0  0
  5 21  1  0  0  0  0
  5 16  1  0  0  0  0
  6  3  1  0  0  0  0
  6 33  1  1  0  0  0
 11 15  1  0  0  0  0
 11 22  2  0  0  0  0
 12 10  2  0  0  0  0
 12 17  1  0  0  0  0
 13 17  1  0  0  0  0
 14 20  1  1  0  0  0
 14  6  1  0  0  0  0
 15  7  1  6  0  0  0
 15 14  1  0  0  0  0
 16 14  1  0  0  0  0
 16 17  1  0  0  0  0
 17  3  1  0  0  0  0
 18  1  1  0  0  0  0
 18 19  1  0  0  0  0
 19  2  1  0  0  0  0
 19  7  1  0  0  0  0
 19  8  1  0  0  0  0
 21 12  1  0  0  0  0
 23 24  1  0  0  0  0
 23 25  1  0  0  0  0
 25 26  1  0  0  0  0
 26 29  1  0  0  0  0
 27 28  1  0  0  0  0
 28 25  1  0  0  0  0
 28 30  1  0  0  0  0
 29 32  1  0  0  0  0
 30 29  1  0  0  0  0
 32 31  1  0  0  0  0
 33 34  1  0  0  0  0
 34 42  1  0  0  0  0
 34 43  1  0  0  0  0
 35 43  1  0  0  0  0
 35 39  1  0  0  0  0
 36 49  1  0  0  0  0
 37 36  1  0  0  0  0
 39 36  1  0  0  0  0
 41 38  1  0  0  0  0
 41 43  1  0  0  0  0
 41 44  1  0  0  0  0
 42 38  1  0  0  0  0
 42 40  1  0  0  0  0
 43 37  1  0  0  0  0
 44 45  1  0  0  0  0
 46 44  1  0  0  0  0
 47 38  1  0  0  0  0
 47 48  1  0  0  0  0
 49 50  1  0  0  0  0
 49 63  1  0  0  0  0
 50 52  1  0  0  0  0
 50 51  2  0  0  0  0
 53 52  1  0  0  0  0
 54 56  1  0  0  0  0
 55 54  1  0  0  0  0
 55 57  1  0  0  0  0
 56 53  2  0  0  0  0
 57 53  1  0  0  0  0
 58 55  1  0  0  0  0
 61 58  1  0  0  0  0
 61 60  1  0  0  0  0
 61 59  1  0  0  0  0
 63 62  1  0  0  0  0
M  END
>  <MODEL>
9

>  <REMARK>
 VINA RESULT:      -5.8      3.597      9.679
  Name = 
  14 active torsions:
  status: ('A' for Active; 'I' for Inactive)
    1  A    between atoms: C_1  and  O_21
    2  A    between atoms: C_3  and  O_21
    3  A    between atoms: C_3  and  C_27
    4  A    between atoms: C_4  and  S_55
    5  A    between atoms: P_5  and  C_62
    6  A    between atoms: C_7  and  C_36
    7  A    between atoms: C_10  and  C_32
    8  A    between atoms: C_12  and  C_27
    9  A    between atoms: C_15  and  C_32
   10  A    between atoms: C_18  and  C_22
   11  A    between atoms: C_27  and  O_50
   12  A    between atoms: N_30  and  C_45
   13  A    between atoms: S_35  and  C_45
   14  A    between atoms: C_48  and  C_63
                            x       y       z     vdW  Elec       q    Type
                         _______ _______ _______ _____ _____    ______ ____

>  <TORSDO>
F 14

$$$$
