=
 OpenBabel11062422423D

 29 31  0  0  1  0  0  0  0  0999 V2000
  189.2110  177.5680  145.5490 C   0  0  1  0  0  3  0  0  0  0  0  0
  187.3170  177.7250  144.1100 C   0  0  0  0  0  3  0  0  0  0  0  0
  185.4860  178.1210  145.9130 C   0  0  0  0  0  2  0  0  0  0  0  0
  190.0690  176.3220  145.7990 C   0  0  0  0  0  2  0  0  0  0  0  0
  186.8450  177.6180  145.4980 C   0  0  0  0  0  0  0  0  0  0  0  0
  185.7310  176.6260  145.7200 C   0  0  0  0  0  2  0  0  0  0  0  0
  192.3070  175.5810  143.6600 C   0  0  2  0  0  3  0  0  0  0  0  0
  192.0780  175.4900  145.1890 C   0  0  2  0  0  3  0  0  0  0  0  0
  191.4350  176.6410  145.6910 O   0  0  0  0  0  0  0  0  0  0  0  0
  188.6400  177.6680  144.1380 C   0  0  0  0  0  0  0  0  0  0  0  0
  191.0500  176.0710  143.0360 C   0  0  0  0  0  2  0  0  0  0  0  0
  189.4600  177.8250  142.9140 C   0  0  0  0  0  0  0  0  0  0  0  0
  188.9890  178.3480  141.8690 O   0  0  0  0  0  0  0  0  0  0  0  0
  190.8400  177.3740  142.9540 C   0  0  0  0  0  2  0  0  0  0  0  0
  187.9920  177.5270  146.4690 C   0  0  0  0  0  2  0  0  0  0  0  0
  194.2090  176.4500  146.3340 C   0  0  0  0  0  1  0  0  0  0  0  0
  193.3710  175.2850  145.9190 C   0  0  0  0  0  0  0  0  0  0  0  0
  193.7270  174.1560  146.2090 O   0  0  0  0  0  0  0  0  0  0  0  0
  192.7700  174.2360  143.0710 C   0  0  1  0  0  3  0  0  0  0  0  0
  191.1560  173.0660  141.7890 O   0  0  0  0  0  0  0  0  0  0  0  0
  191.6690  173.2170  142.8870 C   0  0  0  0  0  0  0  0  0  0  0  0
  191.2020  172.3600  144.0290 C   0  0  2  0  0  3  0  0  0  0  0  0
  191.6460  171.0480  143.8650 O   0  0  0  0  0  1  0  0  0  0  0  0
  189.0510  171.5790  143.3200 F   0  0  0  0  0  0  0  0  0  0  0  0
  189.6880  172.3990  144.2360 C   0  0  0  0  0  0  0  0  0  0  0  0
  189.3920  171.9570  145.5120 F   0  0  0  0  0  0  0  0  0  0  0  0
  189.2210  173.6920  144.0930 F   0  0  0  0  0  0  0  0  0  0  0  0
  193.4470  174.4420  141.8650 O   0  0  0  0  0  0  0  0  0  0  0  0
  194.5690  175.1990  142.2070 C   0  0  0  0  0  1  0  0  0  0  0  0
  1  4  1  6  0  0  0
  1 15  1  0  0  0  0
  2 10  2  0  0  0  0
  2  5  1  0  0  0  0
  5  6  1  0  0  0  0
  5  3  1  0  0  0  0
  5 15  1  0  0  0  0
  6  3  1  0  0  0  0
  7 19  1  6  0  0  0
  7  8  1  0  0  0  0
  8  9  1  0  0  0  0
  8 17  1  1  0  0  0
  9  4  1  0  0  0  0
 10  1  1  0  0  0  0
 11  7  1  0  0  0  0
 12 14  1  0  0  0  0
 12 10  1  0  0  0  0
 13 12  2  0  0  0  0
 14 11  1  0  0  0  0
 17 18  2  0  0  0  0
 17 16  1  0  0  0  0
 19 28  1  6  0  0  0
 20 21  2  0  0  0  0
 21 19  1  0  0  0  0
 21 22  1  0  0  0  0
 22 23  1  6  0  0  0
 22 25  1  0  0  0  0
 24 25  1  0  0  0  0
 25 26  1  0  0  0  0
 27 25  1  0  0  0  0
 28 29  1  0  0  0  0
M  END
>  <MODEL>
1

>  <REMARK>
 VINA RESULT:      -6.9      0.000      0.000
  Name = 
  6 active torsions:
  status: ('A' for Active; 'I' for Inactive)
    1  A    between atoms: C_7  and  C_8
    2  A    between atoms: C_7  and  C_14
    3  A    between atoms: C_8  and  C_13
    4  A    between atoms: C_10  and  C_13
    5  A    between atoms: O_11  and  C_13
    6  A    between atoms: C_15  and  C_24
                            x       y       z     vdW  Elec       q    Type
                         _______ _______ _______ _____ _____    ______ ____

>  <TORSDO>
F 6

$$$$
=
 OpenBabel11062422423D

 29 31  0  0  1  0  0  0  0  0999 V2000
  190.7500  175.5900  146.2090 C   0  0  1  0  0  3  0  0  0  0  0  0
  192.6100  175.7250  144.7230 C   0  0  0  0  0  3  0  0  0  0  0  0
  194.5240  175.6400  146.4810 C   0  0  0  0  0  2  0  0  0  0  0  0
  189.7110  176.6860  146.4750 C   0  0  0  0  0  2  0  0  0  0  0  0
  193.0930  175.9180  146.0980 C   0  0  0  0  0  0  0  0  0  0  0  0
  194.0390  177.0760  146.2890 C   0  0  0  0  0  2  0  0  0  0  0  0
  187.3330  177.0440  144.3890 C   0  0  2  0  0  3  0  0  0  0  0  0
  187.5810  177.1830  145.9110 C   0  0  2  0  0  3  0  0  0  0  0  0
  188.4110  176.1530  146.4020 O   0  0  0  0  0  0  0  0  0  0  0  0
  191.2960  175.5720  144.7840 C   0  0  0  0  0  0  0  0  0  0  0  0
  188.6370  176.7550  143.7360 C   0  0  0  0  0  2  0  0  0  0  0  0
  190.4830  175.2760  143.5810 C   0  0  0  0  0  0  0  0  0  0  0  0
  191.0050  174.8270  142.5270 O   0  0  0  0  0  0  0  0  0  0  0  0
  189.0500  175.5020  143.6540 C   0  0  0  0  0  2  0  0  0  0  0  0
  191.9690  175.8320  147.0980 C   0  0  0  0  0  2  0  0  0  0  0  0
  186.0990  178.0770  147.8550 C   0  0  0  0  0  1  0  0  0  0  0  0
  186.2900  177.1850  146.6730 C   0  0  0  0  0  0  0  0  0  0  0  0
  185.3720  176.4740  146.3020 O   0  0  0  0  0  0  0  0  0  0  0  0
  186.6480  178.2930  143.8060 C   0  0  1  0  0  3  0  0  0  0  0  0
  184.5400  177.4550  143.1190 O   0  0  0  0  0  0  0  0  0  0  0  0
  185.5770  178.0050  142.7800 C   0  0  0  0  0  0  0  0  0  0  0  0
  185.7500  178.4000  141.3410 C   0  0  2  0  0  3  0  0  0  0  0  0
  184.5290  178.3360  140.6690 O   0  0  0  0  0  1  0  0  0  0  0  0
  188.0720  178.1220  140.8170 F   0  0  0  0  0  0  0  0  0  0  0  0
  186.8140  177.5800  140.6110 C   0  0  0  0  0  0  0  0  0  0  0  0
  186.8010  176.2850  141.0930 F   0  0  0  0  0  0  0  0  0  0  0  0
  186.5470  177.5530  139.2540 F   0  0  0  0  0  0  0  0  0  0  0  0
  186.1330  179.0890  144.8340 O   0  0  0  0  0  0  0  0  0  0  0  0
  185.5600  180.1860  144.1880 C   0  0  0  0  0  1  0  0  0  0  0  0
  1  4  1  6  0  0  0
  1 15  1  0  0  0  0
  2 10  2  0  0  0  0
  2  5  1  0  0  0  0
  5  6  1  0  0  0  0
  5  3  1  0  0  0  0
  5 15  1  0  0  0  0
  6  3  1  0  0  0  0
  7 19  1  6  0  0  0
  7  8  1  0  0  0  0
  8  9  1  0  0  0  0
  8 17  1  1  0  0  0
  9  4  1  0  0  0  0
 10  1  1  0  0  0  0
 11  7  1  0  0  0  0
 12 14  1  0  0  0  0
 12 10  1  0  0  0  0
 13 12  2  0  0  0  0
 14 11  1  0  0  0  0
 17 16  1  0  0  0  0
 18 17  2  0  0  0  0
 19 21  1  6  0  0  0
 19 28  1  0  0  0  0
 21 20  2  0  0  0  0
 22 23  1  6  0  0  0
 22 21  1  0  0  0  0
 25 24  1  0  0  0  0
 25 26  1  0  0  0  0
 25 22  1  0  0  0  0
 27 25  1  0  0  0  0
 29 28  1  0  0  0  0
M  END
>  <MODEL>
2

>  <REMARK>
 VINA RESULT:      -6.8      3.039      6.747
  Name = 
  6 active torsions:
  status: ('A' for Active; 'I' for Inactive)
    1  A    between atoms: C_7  and  C_8
    2  A    between atoms: C_7  and  C_14
    3  A    between atoms: C_8  and  C_13
    4  A    between atoms: C_10  and  C_13
    5  A    between atoms: O_11  and  C_13
    6  A    between atoms: C_15  and  C_24
                            x       y       z     vdW  Elec       q    Type
                         _______ _______ _______ _____ _____    ______ ____

>  <TORSDO>
F 6

$$$$
=
 OpenBabel11062422423D

 29 31  0  0  1  0  0  0  0  0999 V2000
  186.5340  176.3360  143.8460 C   0  0  1  0  0  3  0  0  0  0  0  0
  186.2560  178.0560  145.4730 C   0  0  0  0  0  3  0  0  0  0  0  0
  184.1820  179.2400  144.4440 C   0  0  0  0  0  2  0  0  0  0  0  0
  187.7080  176.1810  142.8710 C   0  0  0  0  0  2  0  0  0  0  0  0
  185.4000  178.3610  144.3180 C   0  0  0  0  0  0  0  0  0  0  0  0
  185.4690  179.7850  143.8280 C   0  0  0  0  0  2  0  0  0  0  0  0
  190.3930  174.8530  143.9480 C   0  0  2  0  0  3  0  0  0  0  0  0
  189.5700  174.9240  142.6390 C   0  0  2  0  0  3  0  0  0  0  0  0
  188.1830  174.8570  142.8880 O   0  0  0  0  0  0  0  0  0  0  0  0
  186.9110  176.9390  145.1960 C   0  0  0  0  0  0  0  0  0  0  0  0
  189.7630  175.7680  144.9370 C   0  0  0  0  0  2  0  0  0  0  0  0
  187.8120  176.2910  146.1780 C   0  0  0  0  0  0  0  0  0  0  0  0
  187.7470  176.5580  147.4070 O   0  0  0  0  0  0  0  0  0  0  0  0
  188.7700  175.3170  145.6860 C   0  0  0  0  0  2  0  0  0  0  0  0
  185.5150  177.3050  143.2490 C   0  0  0  0  0  2  0  0  0  0  0  0
  189.8110  172.3930  142.0850 C   0  0  0  0  0  1  0  0  0  0  0  0
  189.9580  173.8260  141.6950 C   0  0  0  0  0  0  0  0  0  0  0  0
  190.3670  174.1070  140.5810 O   0  0  0  0  0  0  0  0  0  0  0  0
  191.8770  175.1820  143.7080 C   0  0  1  0  0  3  0  0  0  0  0  0
  192.3150  177.4370  144.2920 O   0  0  0  0  0  0  0  0  0  0  0  0
  192.4370  176.2630  144.6040 C   0  0  0  0  0  0  0  0  0  0  0  0
  193.1300  175.9240  145.8940 C   0  0  2  0  0  3  0  0  0  0  0  0
  192.4700  176.5190  146.9700 O   0  0  0  0  0  1  0  0  0  0  0  0
  194.8070  177.5340  146.4750 F   0  0  0  0  0  0  0  0  0  0  0  0
  194.6140  176.2900  145.8990 C   0  0  0  0  0  0  0  0  0  0  0  0
  195.3120  175.3460  146.6300 F   0  0  0  0  0  0  0  0  0  0  0  0
  195.1050  176.3040  144.6070 F   0  0  0  0  0  0  0  0  0  0  0  0
  192.6530  174.0220  143.8040 O   0  0  0  0  0  0  0  0  0  0  0  0
  193.4850  174.0510  142.6830 C   0  0  0  0  0  1  0  0  0  0  0  0
  1  4  1  6  0  0  0
  1 10  1  0  0  0  0
  4  9  1  0  0  0  0
  5  3  1  0  0  0  0
  5  2  1  0  0  0  0
  6  5  1  0  0  0  0
  6  3  1  0  0  0  0
  7 19  1  6  0  0  0
  7 11  1  0  0  0  0
  8 17  1  6  0  0  0
  8  9  1  0  0  0  0
  8  7  1  0  0  0  0
 10  2  2  0  0  0  0
 10 12  1  0  0  0  0
 11 14  1  0  0  0  0
 12 13  2  0  0  0  0
 14 12  1  0  0  0  0
 15  1  1  0  0  0  0
 15  5  1  0  0  0  0
 17 16  1  0  0  0  0
 18 17  2  0  0  0  0
 19 28  1  1  0  0  0
 19 21  1  0  0  0  0
 20 21  2  0  0  0  0
 21 22  1  0  0  0  0
 22 25  1  0  0  0  0
 22 23  1  1  0  0  0
 25 24  1  0  0  0  0
 25 26  1  0  0  0  0
 27 25  1  0  0  0  0
 29 28  1  0  0  0  0
M  END
>  <MODEL>
3

>  <REMARK>
 VINA RESULT:      -6.7      2.888      4.669
  Name = 
  6 active torsions:
  status: ('A' for Active; 'I' for Inactive)
    1  A    between atoms: C_7  and  C_8
    2  A    between atoms: C_7  and  C_14
    3  A    between atoms: C_8  and  C_13
    4  A    between atoms: C_10  and  C_13
    5  A    between atoms: O_11  and  C_13
    6  A    between atoms: C_15  and  C_24
                            x       y       z     vdW  Elec       q    Type
                         _______ _______ _______ _____ _____    ______ ____

>  <TORSDO>
F 6

$$$$
=
 OpenBabel11062422423D

 29 31  0  0  1  0  0  0  0  0999 V2000
  188.2920  177.7360  145.7100 C   0  0  1  0  0  3  0  0  0  0  0  0
  186.1950  177.8490  144.5820 C   0  0  0  0  0  3  0  0  0  0  0  0
  184.6730  178.3450  146.6310 C   0  0  0  0  0  2  0  0  0  0  0  0
  189.1740  176.4930  145.8780 C   0  0  0  0  0  2  0  0  0  0  0  0
  185.9470  177.8090  146.0300 C   0  0  0  0  0  0  0  0  0  0  0  0
  184.8790  176.8400  146.4710 C   0  0  0  0  0  2  0  0  0  0  0  0
  191.0430  175.6340  143.4480 C   0  0  2  0  0  3  0  0  0  0  0  0
  191.0580  175.6130  144.9960 C   0  0  2  0  0  3  0  0  0  0  0  0
  190.5070  176.7920  145.5410 O   0  0  0  0  0  0  0  0  0  0  0  0
  187.5050  177.7790  144.4030 C   0  0  0  0  0  0  0  0  0  0  0  0
  189.7050  176.1100  143.0080 C   0  0  0  0  0  2  0  0  0  0  0  0
  188.1220  177.8730  143.0590 C   0  0  0  0  0  0  0  0  0  0  0  0
  187.4930  178.3540  142.0790 O   0  0  0  0  0  0  0  0  0  0  0  0
  189.4890  177.4100  142.9010 C   0  0  0  0  0  2  0  0  0  0  0  0
  187.2340  177.7500  146.8120 C   0  0  0  0  0  2  0  0  0  0  0  0
  193.5400  176.3800  145.1560 C   0  0  0  0  0  1  0  0  0  0  0  0
  192.4500  175.4280  145.5220 C   0  0  0  0  0  0  0  0  0  0  0  0
  192.6870  174.5080  146.2860 O   0  0  0  0  0  0  0  0  0  0  0  0
  191.4020  174.2600  142.8550 C   0  0  1  0  0  3  0  0  0  0  0  0
  190.3940  174.0270  140.7220 O   0  0  0  0  0  0  0  0  0  0  0  0
  190.3750  173.6980  141.8990 C   0  0  0  0  0  0  0  0  0  0  0  0
  189.3340  172.7190  142.3600 C   0  0  2  0  0  3  0  0  0  0  0  0
  189.7560  171.4110  142.1200 O   0  0  0  0  0  1  0  0  0  0  0  0
  187.5800  174.2880  141.9080 F   0  0  0  0  0  0  0  0  0  0  0  0
  187.9550  172.9650  141.7470 C   0  0  0  0  0  0  0  0  0  0  0  0
  188.0010  172.6750  140.3960 F   0  0  0  0  0  0  0  0  0  0  0  0
  187.0150  172.1470  142.3460 F   0  0  0  0  0  0  0  0  0  0  0  0
  192.6590  174.3070  142.2440 O   0  0  0  0  0  0  0  0  0  0  0  0
  193.3080  173.1450  142.6650 C   0  0  0  0  0  1  0  0  0  0  0  0
  1  4  1  6  0  0  0
  1 15  1  0  0  0  0
  2  5  1  0  0  0  0
  5  6  1  0  0  0  0
  5  3  1  0  0  0  0
  5 15  1  0  0  0  0
  6  3  1  0  0  0  0
  7 19  1  6  0  0  0
  7  8  1  0  0  0  0
  8 17  1  6  0  0  0
  8  9  1  0  0  0  0
  9  4  1  0  0  0  0
 10  2  2  0  0  0  0
 10  1  1  0  0  0  0
 11  7  1  0  0  0  0
 12 10  1  0  0  0  0
 13 12  2  0  0  0  0
 14 11  1  0  0  0  0
 14 12  1  0  0  0  0
 16 17  1  0  0  0  0
 17 18  2  0  0  0  0
 19 21  1  6  0  0  0
 20 21  2  0  0  0  0
 21 22  1  0  0  0  0
 22 23  1  6  0  0  0
 25 24  1  0  0  0  0
 25 27  1  0  0  0  0
 25 22  1  0  0  0  0
 26 25  1  0  0  0  0
 28 29  1  0  0  0  0
 28 19  1  0  0  0  0
M  END
>  <MODEL>
4

>  <REMARK>
 VINA RESULT:      -6.6      1.608      1.964
  Name = 
  6 active torsions:
  status: ('A' for Active; 'I' for Inactive)
    1  A    between atoms: C_7  and  C_8
    2  A    between atoms: C_7  and  C_14
    3  A    between atoms: C_8  and  C_13
    4  A    between atoms: C_10  and  C_13
    5  A    between atoms: O_11  and  C_13
    6  A    between atoms: C_15  and  C_24
                            x       y       z     vdW  Elec       q    Type
                         _______ _______ _______ _____ _____    ______ ____

>  <TORSDO>
F 6

$$$$
=
 OpenBabel11062422423D

 29 31  0  0  1  0  0  0  0  0999 V2000
  188.1500  177.9160  145.5290 C   0  0  1  0  0  3  0  0  0  0  0  0
  186.0350  177.7620  144.4400 C   0  0  0  0  0  3  0  0  0  0  0  0
  184.5030  178.2420  146.4850 C   0  0  0  0  0  2  0  0  0  0  0  0
  189.1480  176.7730  145.7550 C   0  0  0  0  0  2  0  0  0  0  0  0
  185.8140  177.7900  145.8920 C   0  0  0  0  0  0  0  0  0  0  0  0
  184.8480  176.7550  146.4130 C   0  0  0  0  0  2  0  0  0  0  0  0
  191.0530  175.9410  143.3440 C   0  0  2  0  0  3  0  0  0  0  0  0
  191.0930  176.0190  144.8900 C   0  0  2  0  0  3  0  0  0  0  0  0
  190.4410  177.1730  145.3730 O   0  0  0  0  0  0  0  0  0  0  0  0
  187.3430  177.8030  144.2380 C   0  0  0  0  0  0  0  0  0  0  0  0
  189.6700  176.2610  142.9040 C   0  0  0  0  0  2  0  0  0  0  0  0
  187.9290  177.8690  142.8790 C   0  0  0  0  0  0  0  0  0  0  0  0
  187.2440  178.2270  141.8840 O   0  0  0  0  0  0  0  0  0  0  0  0
  189.3310  177.5270  142.7220 C   0  0  0  0  0  2  0  0  0  0  0  0
  187.1120  177.9000  146.6500 C   0  0  0  0  0  2  0  0  0  0  0  0
  192.9520  174.9580  146.3720 C   0  0  0  0  0  1  0  0  0  0  0  0
  192.5040  175.9970  145.3980 C   0  0  0  0  0  0  0  0  0  0  0  0
  193.3050  176.8180  144.9850 O   0  0  0  0  0  0  0  0  0  0  0  0
  191.5310  174.5720  142.8290 C   0  0  1  0  0  3  0  0  0  0  0  0
  190.2120  173.0470  144.0770 O   0  0  0  0  0  0  0  0  0  0  0  0
  190.5190  173.4570  142.9680 C   0  0  0  0  0  0  0  0  0  0  0  0
  189.8590  172.8500  141.7630 C   0  0  2  0  0  3  0  0  0  0  0  0
  188.4810  172.7580  141.9580 O   0  0  0  0  0  1  0  0  0  0  0  0
  191.8270  171.5280  141.4140 F   0  0  0  0  0  0  0  0  0  0  0  0
  190.4430  171.4930  141.3710 C   0  0  0  0  0  0  0  0  0  0  0  0
  189.9920  170.5310  142.2560 F   0  0  0  0  0  0  0  0  0  0  0  0
  190.0350  171.1500  140.0950 F   0  0  0  0  0  0  0  0  0  0  0  0
  191.9610  174.6750  141.5020 O   0  0  0  0  0  0  0  0  0  0  0  0
  193.2580  175.1840  141.5820 C   0  0  0  0  0  1  0  0  0  0  0  0
  1  4  1  1  0  0  0
  1 15  1  0  0  0  0
  2  5  1  0  0  0  0
  5  6  1  0  0  0  0
  5  3  1  0  0  0  0
  5 15  1  0  0  0  0
  6  3  1  0  0  0  0
  7 19  1  1  0  0  0
  7  8  1  0  0  0  0
  8  9  1  0  0  0  0
  8 17  1  6  0  0  0
  9  4  1  0  0  0  0
 10  2  2  0  0  0  0
 10  1  1  0  0  0  0
 11  7  1  0  0  0  0
 12 10  1  0  0  0  0
 13 12  2  0  0  0  0
 14 12  1  0  0  0  0
 14 11  1  0  0  0  0
 17 16  1  0  0  0  0
 18 17  2  0  0  0  0
 19 28  1  6  0  0  0
 19 21  1  0  0  0  0
 21 20  2  0  0  0  0
 22 23  1  1  0  0  0
 22 21  1  0  0  0  0
 25 24  1  0  0  0  0
 25 22  1  0  0  0  0
 25 26  1  0  0  0  0
 27 25  1  0  0  0  0
 28 29  1  0  0  0  0
M  END
>  <MODEL>
5

>  <REMARK>
 VINA RESULT:      -6.4      1.689      2.145
  Name = 
  6 active torsions:
  status: ('A' for Active; 'I' for Inactive)
    1  A    between atoms: C_7  and  C_8
    2  A    between atoms: C_7  and  C_14
    3  A    between atoms: C_8  and  C_13
    4  A    between atoms: C_10  and  C_13
    5  A    between atoms: O_11  and  C_13
    6  A    between atoms: C_15  and  C_24
                            x       y       z     vdW  Elec       q    Type
                         _______ _______ _______ _____ _____    ______ ____

>  <TORSDO>
F 6

$$$$
=
 OpenBabel11062422423D

 29 31  0  0  1  0  0  0  0  0999 V2000
  194.1330  174.6630  143.7970 C   0  0  1  0  0  3  0  0  0  0  0  0
  195.6360  174.8400  145.6390 C   0  0  0  0  0  3  0  0  0  0  0  0
  197.2830  172.9370  144.9880 C   0  0  0  0  0  2  0  0  0  0  0  0
  192.6650  174.2220  143.8530 C   0  0  0  0  0  2  0  0  0  0  0  0
  195.9300  173.5980  144.9120 C   0  0  0  0  0  0  0  0  0  0  0  0
  196.1010  172.3740  145.7760 C   0  0  0  0  0  2  0  0  0  0  0  0
  190.4830  176.3650  144.7340 C   0  0  2  0  0  3  0  0  0  0  0  0
  190.6070  175.1500  143.7830 C   0  0  2  0  0  3  0  0  0  0  0  0
  191.8590  175.1210  143.1320 O   0  0  0  0  0  0  0  0  0  0  0  0
  194.6110  175.4200  145.0320 C   0  0  0  0  0  0  0  0  0  0  0  0
  191.7410  176.4640  145.5210 C   0  0  0  0  0  2  0  0  0  0  0  0
  194.0930  176.7430  145.4550 C   0  0  0  0  0  0  0  0  0  0  0  0
  194.7820  177.5250  146.1620 O   0  0  0  0  0  0  0  0  0  0  0  0
  192.7650  177.1280  145.0130 C   0  0  0  0  0  2  0  0  0  0  0  0
  195.0230  173.4240  143.7210 C   0  0  0  0  0  2  0  0  0  0  0  0
  188.6130  173.9710  142.5980 C   0  0  0  0  0  1  0  0  0  0  0  0
  189.5140  175.1500  142.7570 C   0  0  0  0  0  0  0  0  0  0  0  0
  189.3370  176.1400  142.0670 O   0  0  0  0  0  0  0  0  0  0  0  0
  189.2360  176.2630  145.6320 C   0  0  1  0  0  3  0  0  0  0  0  0
  188.1680  178.0710  144.5330 O   0  0  0  0  0  0  0  0  0  0  0  0
  188.0260  177.0090  145.1180 C   0  0  0  0  0  0  0  0  0  0  0  0
  186.6390  176.4590  145.2940 C   0  0  2  0  0  3  0  0  0  0  0  0
  185.8830  176.6690  144.1410 O   0  0  0  0  0  1  0  0  0  0  0  0
  185.8960  178.3970  146.4910 F   0  0  0  0  0  0  0  0  0  0  0  0
  185.9180  177.0130  146.5230 C   0  0  0  0  0  0  0  0  0  0  0  0
  184.6170  176.5450  146.5360 F   0  0  0  0  0  0  0  0  0  0  0  0
  186.5540  176.5930  147.6770 F   0  0  0  0  0  0  0  0  0  0  0  0
  188.9160  174.9220  145.8660 O   0  0  0  0  0  0  0  0  0  0  0  0
  189.1860  174.7190  147.2210 C   0  0  0  0  0  1  0  0  0  0  0  0
  1 15  1  1  0  0  0
  1  4  1  0  0  0  0
  1 10  1  0  0  0  0
  3  6  1  0  0  0  0
  5  3  1  0  0  0  0
  5  2  1  0  0  0  0
  5  6  1  0  0  0  0
  7 11  1  0  0  0  0
  7 19  1  1  0  0  0
  8 17  1  6  0  0  0
  8  7  1  0  0  0  0
  9  8  1  0  0  0  0
  9  4  1  0  0  0  0
 10 12  1  0  0  0  0
 10  2  2  0  0  0  0
 12 13  2  0  0  0  0
 14 12  1  0  0  0  0
 14 11  1  0  0  0  0
 15  5  1  0  0  0  0
 16 17  1  0  0  0  0
 18 17  2  0  0  0  0
 19 21  1  6  0  0  0
 19 28  1  0  0  0  0
 20 21  2  0  0  0  0
 21 22  1  0  0  0  0
 22 23  1  6  0  0  0
 22 25  1  0  0  0  0
 24 25  1  0  0  0  0
 25 26  1  0  0  0  0
 25 27  1  0  0  0  0
 28 29  1  0  0  0  0
M  END
>  <MODEL>
6

>  <REMARK>
 VINA RESULT:      -6.4      2.934      6.803
  Name = 
  6 active torsions:
  status: ('A' for Active; 'I' for Inactive)
    1  A    between atoms: C_7  and  C_8
    2  A    between atoms: C_7  and  C_14
    3  A    between atoms: C_8  and  C_13
    4  A    between atoms: C_10  and  C_13
    5  A    between atoms: O_11  and  C_13
    6  A    between atoms: C_15  and  C_24
                            x       y       z     vdW  Elec       q    Type
                         _______ _______ _______ _____ _____    ______ ____

>  <TORSDO>
F 6

$$$$
=
 OpenBabel11062422423D

 29 31  0  0  1  0  0  0  0  0999 V2000
  189.7820  175.0670  145.0990 C   0  0  1  0  0  3  0  0  0  0  0  0
  189.3090  177.3310  145.6770 C   0  0  0  0  0  3  0  0  0  0  0  0
  187.0950  177.6230  144.3450 C   0  0  0  0  0  2  0  0  0  0  0  0
  190.9570  174.5670  144.2500 C   0  0  0  0  0  2  0  0  0  0  0  0
  188.4120  176.9290  144.5850 C   0  0  0  0  0  0  0  0  0  0  0  0
  188.2990  177.9160  143.4510 C   0  0  0  0  0  2  0  0  0  0  0  0
  193.7950  174.2380  145.6530 C   0  0  2  0  0  3  0  0  0  0  0  0
  192.9580  173.5610  144.5410 C   0  0  2  0  0  3  0  0  0  0  0  0
  191.5920  173.4860  144.8870 O   0  0  0  0  0  0  0  0  0  0  0  0
  190.0950  176.2990  145.9440 C   0  0  0  0  0  0  0  0  0  0  0  0
  193.0660  175.4540  146.1010 C   0  0  0  0  0  2  0  0  0  0  0  0
  191.0780  176.3250  147.0520 C   0  0  0  0  0  0  0  0  0  0  0  0
  190.9910  177.1620  147.9900 O   0  0  0  0  0  0  0  0  0  0  0  0
  192.1440  175.3400  147.0420 C   0  0  0  0  0  2  0  0  0  0  0  0
  188.6450  175.4980  144.1740 C   0  0  0  0  0  2  0  0  0  0  0  0
  193.8340  171.7910  142.8460 C   0  0  0  0  0  1  0  0  0  0  0  0
  193.4700  172.1840  144.2390 C   0  0  0  0  0  0  0  0  0  0  0  0
  193.6230  171.3860  145.1480 O   0  0  0  0  0  0  0  0  0  0  0  0
  195.2260  174.5530  145.1790 C   0  0  1  0  0  3  0  0  0  0  0  0
  195.3160  176.9140  144.9900 O   0  0  0  0  0  0  0  0  0  0  0  0
  195.3640  175.8430  144.4040 C   0  0  0  0  0  0  0  0  0  0  0  0
  195.5820  175.8400  142.9180 C   0  0  2  0  0  3  0  0  0  0  0  0
  196.5390  176.7910  142.5650 O   0  0  0  0  0  1  0  0  0  0  0  0
  194.5090  176.9230  141.0690 F   0  0  0  0  0  0  0  0  0  0  0  0
  194.2960  176.0420  142.1160 C   0  0  0  0  0  0  0  0  0  0  0  0
  193.8870  174.8260  141.6000 F   0  0  0  0  0  0  0  0  0  0  0  0
  193.2980  176.5370  142.9340 F   0  0  0  0  0  0  0  0  0  0  0  0
  196.1100  174.5400  146.2620 O   0  0  0  0  0  0  0  0  0  0  0  0
  196.8160  173.3420  146.1370 C   0  0  0  0  0  1  0  0  0  0  0  0
  1 15  1  6  0  0  0
  1 10  1  0  0  0  0
  2 10  2  0  0  0  0
  3  5  1  0  0  0  0
  4  9  1  0  0  0  0
  4  1  1  0  0  0  0
  5  2  1  0  0  0  0
  6  3  1  0  0  0  0
  6  5  1  0  0  0  0
  7 19  1  6  0  0  0
  7 11  1  0  0  0  0
  8 17  1  1  0  0  0
  8  9  1  0  0  0  0
  8  7  1  0  0  0  0
 10 12  1  0  0  0  0
 11 14  1  0  0  0  0
 12 13  2  0  0  0  0
 14 12  1  0  0  0  0
 15  5  1  0  0  0  0
 16 17  1  0  0  0  0
 17 18  2  0  0  0  0
 19 21  1  1  0  0  0
 19 28  1  0  0  0  0
 21 20  2  0  0  0  0
 22 23  1  1  0  0  0
 22 21  1  0  0  0  0
 24 25  1  0  0  0  0
 25 22  1  0  0  0  0
 25 27  1  0  0  0  0
 26 25  1  0  0  0  0
 29 28  1  0  0  0  0
M  END
>  <MODEL>
7

>  <REMARK>
 VINA RESULT:      -6.2      2.873      4.656
  Name = 
  6 active torsions:
  status: ('A' for Active; 'I' for Inactive)
    1  A    between atoms: C_7  and  C_8
    2  A    between atoms: C_7  and  C_14
    3  A    between atoms: C_8  and  C_13
    4  A    between atoms: C_10  and  C_13
    5  A    between atoms: O_11  and  C_13
    6  A    between atoms: C_15  and  C_24
                            x       y       z     vdW  Elec       q    Type
                         _______ _______ _______ _____ _____    ______ ____

>  <TORSDO>
F 6

$$$$
=
 OpenBabel11062422423D

 29 31  0  0  1  0  0  0  0  0999 V2000
  193.3440  174.9960  143.4320 C   0  0  1  0  0  3  0  0  0  0  0  0
  193.8740  175.0490  141.1070 C   0  0  0  0  0  3  0  0  0  0  0  0
  196.4530  175.3190  141.2980 C   0  0  0  0  0  2  0  0  0  0  0  0
  192.5500  176.0500  144.2120 C   0  0  0  0  0  2  0  0  0  0  0  0
  195.0640  175.4530  141.8690 C   0  0  0  0  0  0  0  0  0  0  0  0
  195.7670  176.6830  141.3540 C   0  0  0  0  0  2  0  0  0  0  0  0
  189.3720  175.9760  144.0360 C   0  0  2  0  0  3  0  0  0  0  0  0
  190.4760  176.3320  145.0620 C   0  0  2  0  0  3  0  0  0  0  0  0
  191.5600  175.4320  144.9970 O   0  0  0  0  0  0  0  0  0  0  0  0
  192.9040  174.8220  141.9800 C   0  0  0  0  0  0  0  0  0  0  0  0
  190.0310  175.6850  142.7350 C   0  0  0  0  0  2  0  0  0  0  0  0
  191.5740  174.3180  141.5660 C   0  0  0  0  0  0  0  0  0  0  0  0
  191.3980  173.7660  140.4470 O   0  0  0  0  0  0  0  0  0  0  0  0
  190.4690  174.4610  142.4970 C   0  0  0  0  0  2  0  0  0  0  0  0
  194.8070  175.4300  143.3540 C   0  0  0  0  0  2  0  0  0  0  0  0
  189.3250  175.1320  147.0630 C   0  0  0  0  0  1  0  0  0  0  0  0
  189.9320  176.3540  146.4580 C   0  0  0  0  0  0  0  0  0  0  0  0
  190.0170  177.3740  147.1220 O   0  0  0  0  0  0  0  0  0  0  0  0
  188.3170  177.0910  143.9240 C   0  0  1  0  0  3  0  0  0  0  0  0
  188.8560  178.3890  142.0150 O   0  0  0  0  0  0  0  0  0  0  0  0
  188.0770  177.5940  142.5180 C   0  0  0  0  0  0  0  0  0  0  0  0
  186.9050  177.1170  141.7100 C   0  0  2  0  0  3  0  0  0  0  0  0
  187.3080  176.7860  140.4160 O   0  0  0  0  0  1  0  0  0  0  0  0
  185.5190  178.5540  140.3840 F   0  0  0  0  0  0  0  0  0  0  0  0
  185.7460  178.1140  141.6770 C   0  0  0  0  0  0  0  0  0  0  0  0
  184.6010  177.4950  142.1450 F   0  0  0  0  0  0  0  0  0  0  0  0
  186.0280  179.1990  142.4860 F   0  0  0  0  0  0  0  0  0  0  0  0
  187.1120  176.6800  144.5030 O   0  0  0  0  0  0  0  0  0  0  0  0
  186.7610  177.7120  145.3750 C   0  0  0  0  0  1  0  0  0  0  0  0
  1 15  1  6  0  0  0
  1  4  1  0  0  0  0
  2  5  1  0  0  0  0
  2 10  2  0  0  0  0
  3  6  1  0  0  0  0
  3  5  1  0  0  0  0
  4  9  1  0  0  0  0
  5 15  1  0  0  0  0
  6  5  1  0  0  0  0
  7 19  1  6  0  0  0
  7  8  1  0  0  0  0
  8 17  1  1  0  0  0
  9  8  1  0  0  0  0
 10  1  1  0  0  0  0
 11  7  1  0  0  0  0
 12 10  1  0  0  0  0
 12 14  1  0  0  0  0
 13 12  2  0  0  0  0
 14 11  1  0  0  0  0
 17 16  1  0  0  0  0
 17 18  2  0  0  0  0
 19 21  1  6  0  0  0
 19 28  1  0  0  0  0
 20 21  2  0  0  0  0
 22 23  1  6  0  0  0
 22 21  1  0  0  0  0
 24 25  1  0  0  0  0
 25 22  1  0  0  0  0
 25 26  1  0  0  0  0
 25 27  1  0  0  0  0
 28 29  1  0  0  0  0
M  END
>  <MODEL>
8

>  <REMARK>
 VINA RESULT:      -6.0      2.944      6.552
  Name = 
  6 active torsions:
  status: ('A' for Active; 'I' for Inactive)
    1  A    between atoms: C_7  and  C_8
    2  A    between atoms: C_7  and  C_14
    3  A    between atoms: C_8  and  C_13
    4  A    between atoms: C_10  and  C_13
    5  A    between atoms: O_11  and  C_13
    6  A    between atoms: C_15  and  C_24
                            x       y       z     vdW  Elec       q    Type
                         _______ _______ _______ _____ _____    ______ ____

>  <TORSDO>
F 6

$$$$
=
 OpenBabel11062422423D

 29 31  0  0  1  0  0  0  0  0999 V2000
  186.7000  176.4170  143.9570 C   0  0  1  0  0  3  0  0  0  0  0  0
  186.0920  178.0630  145.5710 C   0  0  0  0  0  3  0  0  0  0  0  0
  184.2270  179.2690  144.2190 C   0  0  0  0  0  2  0  0  0  0  0  0
  188.0380  176.3150  143.2150 C   0  0  0  0  0  2  0  0  0  0  0  0
  185.4630  178.4080  144.2890 C   0  0  0  0  0  0  0  0  0  0  0  0
  185.5970  179.8530  143.8770 C   0  0  0  0  0  2  0  0  0  0  0  0
  190.4980  174.9700  144.7230 C   0  0  2  0  0  3  0  0  0  0  0  0
  189.9330  175.0880  143.2860 C   0  0  2  0  0  3  0  0  0  0  0  0
  188.5260  174.9960  143.2680 O   0  0  0  0  0  0  0  0  0  0  0  0
  186.8080  176.9660  145.3770 C   0  0  0  0  0  0  0  0  0  0  0  0
  189.6780  175.8350  145.6110 C   0  0  0  0  0  2  0  0  0  0  0  0
  187.5210  176.2860  146.4840 C   0  0  0  0  0  0  0  0  0  0  0  0
  187.2220  176.5000  147.6890 O   0  0  0  0  0  0  0  0  0  0  0  0
  188.5710  175.3440  146.1430 C   0  0  0  0  0  2  0  0  0  0  0  0
  185.7940  177.4000  143.2190 C   0  0  0  0  0  2  0  0  0  0  0  0
  190.2330  172.5880  142.6290 C   0  0  0  0  0  1  0  0  0  0  0  0
  190.5100  174.0350  142.3880 C   0  0  0  0  0  0  0  0  0  0  0  0
  191.1870  174.3660  141.4290 O   0  0  0  0  0  0  0  0  0  0  0  0
  191.9950  175.3230  144.7780 C   0  0  1  0  0  3  0  0  0  0  0  0
  192.5230  173.0440  145.1620 O   0  0  0  0  0  0  0  0  0  0  0  0
  192.9250  174.1320  144.7780 C   0  0  0  0  0  0  0  0  0  0  0  0
  194.3420  174.2500  144.2920 C   0  0  2  0  0  3  0  0  0  0  0  0
  194.7240  173.0870  143.6210 O   0  0  0  0  0  1  0  0  0  0  0  0
  194.7010  175.2380  146.4450 F   0  0  0  0  0  0  0  0  0  0  0  0
  195.3380  174.5870  145.4020 C   0  0  0  0  0  0  0  0  0  0  0  0
  195.8980  173.4180  145.8800 F   0  0  0  0  0  0  0  0  0  0  0  0
  196.3450  175.3940  144.9070 F   0  0  0  0  0  0  0  0  0  0  0  0
  192.3270  176.1980  143.7390 O   0  0  0  0  0  0  0  0  0  0  0  0
  192.6390  177.4040  144.3680 C   0  0  0  0  0  1  0  0  0  0  0  0
  1  4  1  6  0  0  0
  1 10  1  0  0  0  0
  3  5  1  0  0  0  0
  4  9  1  0  0  0  0
  5  2  1  0  0  0  0
  6  3  1  0  0  0  0
  6  5  1  0  0  0  0
  7 19  1  6  0  0  0
  7 11  1  0  0  0  0
  8 17  1  6  0  0  0
  8  7  1  0  0  0  0
  9  8  1  0  0  0  0
 10  2  2  0  0  0  0
 10 12  1  0  0  0  0
 11 14  1  0  0  0  0
 12 13  2  0  0  0  0
 14 12  1  0  0  0  0
 15  1  1  0  0  0  0
 15  5  1  0  0  0  0
 17 16  1  0  0  0  0
 18 17  2  0  0  0  0
 19 28  1  6  0  0  0
 19 21  1  0  0  0  0
 21 20  2  0  0  0  0
 22 23  1  1  0  0  0
 22 21  1  0  0  0  0
 22 25  1  0  0  0  0
 25 26  1  0  0  0  0
 25 24  1  0  0  0  0
 27 25  1  0  0  0  0
 28 29  1  0  0  0  0
M  END
>  <MODEL>
9

>  <REMARK>
 VINA RESULT:      -6.0      2.903      4.343
  Name = 
  6 active torsions:
  status: ('A' for Active; 'I' for Inactive)
    1  A    between atoms: C_7  and  C_8
    2  A    between atoms: C_7  and  C_14
    3  A    between atoms: C_8  and  C_13
    4  A    between atoms: C_10  and  C_13
    5  A    between atoms: O_11  and  C_13
    6  A    between atoms: C_15  and  C_24
                            x       y       z     vdW  Elec       q    Type
                         _______ _______ _______ _____ _____    ______ ____

>  <TORSDO>
F 6

$$$$
