=
 OpenBabel11062422033D

 34 37  0  0  1  0  0  0  0  0999 V2000
  193.0760  176.1650  147.1920 N   0  0  0  0  0  0  0  0  0  0  0  0
  193.6120  176.4280  144.8200 C   0  0  0  0  0  0  0  0  0  0  0  0
  191.2280  176.5590  145.6210 C   0  0  1  0  0  3  0  0  0  0  0  0
  194.1660  175.7500  142.5450 C   0  0  0  0  0  0  0  0  0  0  0  0
  193.9940  176.8040  146.2430 C   0  0  0  0  0  2  0  0  0  0  0  0
  191.8490  175.7950  143.2570 C   0  0  0  0  0  3  0  0  0  0  0  0
  192.2370  176.2330  144.5320 C   0  0  0  0  0  0  0  0  0  0  0  0
  190.9300  175.2350  147.6250 N   0  0  0  0  0  2  0  0  0  0  0  0
  189.9540  175.7590  145.6130 C   0  0  0  0  0  0  0  0  0  0  0  0
  194.5790  176.2210  143.8060 C   0  0  0  0  0  0  0  0  0  0  0  0
  189.8160  175.0720  146.7490 C   0  0  0  0  0  3  0  0  0  0  0  0
  192.8100  175.5420  142.2730 C   0  0  0  0  0  3  0  0  0  0  0  0
  195.1050  175.5000  141.5480 O   0  0  0  0  0  1  0  0  0  0  0  0
  191.8010  176.1080  146.9300 C   0  0  0  0  0  0  0  0  0  0  0  0
  188.8750  175.8790  144.6100 C   0  0  0  0  0  0  0  0  0  0  0  0
  188.7300  174.9900  143.7250 O   0  0  0  0  0  0  0  0  0  0  0  0
  187.3520  177.3620  143.2830 C   0  0  0  0  0  2  0  0  0  0  0  0
  185.7350  177.8860  145.7130 C   0  0  2  0  0  3  0  0  0  0  0  0
  184.8870  179.8550  144.6450 F   0  0  0  0  0  0  0  0  0  0  0  0
  186.7980  176.7610  145.6850 C   0  0  0  0  0  2  0  0  0  0  0  0
  185.9370  179.0110  142.3570 O   0  0  0  0  0  0  0  0  0  0  0  0
  187.9200  177.0250  144.6690 C   0  0  1  0  0  3  0  0  0  0  0  0
  186.3860  178.5070  143.3800 C   0  0  0  0  0  0  0  0  0  0  0  0
  186.0030  179.0430  144.7350 C   0  0  2  0  0  3  0  0  0  0  0  0
  185.5720  178.4070  147.1050 C   0  0  0  0  0  0  0  0  0  0  0  0
  184.4220  178.6560  147.5510 O   0  0  0  0  0  0  0  0  0  0  0  0
  186.6860  178.6710  147.8950 O   0  0  0  0  0  1  0  0  0  0  0  0
  195.9520  176.4290  144.0150 O   0  0  0  0  0  0  0  0  0  0  0  0
  196.8920  175.4290  144.1100 O   0  0  0  0  0  0  0  0  0  0  0  0
  196.6970  172.6870  142.9280 C   0  0  0  0  0  1  0  0  0  0  0  0
  197.2500  171.8390  145.1980 C   0  0  0  0  0  1  0  0  0  0  0  0
  196.7550  174.2650  144.8800 C   0  0  0  0  0  0  0  0  0  0  0  0
  196.9730  172.9610  144.3260 N   0  0  0  0  0  0  0  0  0  0  0  0
  196.4120  174.3850  146.0920 O   0  0  0  0  0  0  0  0  0  0  0  0
  2  5  1  0  0  0  0
  3  7  1  6  0  0  0
  3 14  1  0  0  0  0
  4 10  1  0  0  0  0
  5  1  1  0  0  0  0
  6  7  2  0  0  0  0
  7  2  1  0  0  0  0
  9  3  1  0  0  0  0
  9 11  2  0  0  0  0
 10 28  1  0  0  0  0
 10  2  2  0  0  0  0
 11  8  1  0  0  0  0
 12  4  2  0  0  0  0
 12  6  1  0  0  0  0
 13  4  1  0  0  0  0
 14  1  2  0  0  0  0
 14  8  1  0  0  0  0
 15  9  1  0  0  0  0
 16 15  2  0  0  0  0
 17 23  1  0  0  0  0
 17 22  1  0  0  0  0
 18 25  1  1  0  0  0
 20 18  1  0  0  0  0
 21 23  2  0  0  0  0
 22 15  1  6  0  0  0
 22 20  1  0  0  0  0
 23 24  1  0  0  0  0
 24 19  1  6  0  0  0
 24 18  1  0  0  0  0
 25 26  2  0  0  0  0
 25 27  1  0  0  0  0
 28 29  1  0  0  0  0
 29 32  1  0  0  0  0
 30 33  1  0  0  0  0
 32 34  2  0  0  0  0
 33 32  1  0  0  0  0
 33 31  1  0  0  0  0
M  END
>  <MODEL>
1

>  <REMARK>
 VINA RESULT:      -8.0      0.000      0.000
  Name = 
  6 active torsions:
  status: ('A' for Active; 'I' for Inactive)
    1  A    between atoms: C_3  and  C_6
    2  A    between atoms: O_5  and  O_19
    3  A    between atoms: O_5  and  C_28
    4  A    between atoms: C_12  and  C_21
    5  A    between atoms: C_12  and  C_27
    6  A    between atoms: O_19  and  C_22
                            x       y       z     vdW  Elec       q    Type
                         _______ _______ _______ _____ _____    ______ ____

>  <TORSDO>
F 6

$$$$
=
 OpenBabel11062422033D

 34 37  0  0  1  0  0  0  0  0999 V2000
  185.0570  179.0380  146.6860 N   0  0  0  0  0  0  0  0  0  0  0  0
  185.1200  177.9520  144.4950 C   0  0  0  0  0  0  0  0  0  0  0  0
  186.4880  177.0590  146.4120 C   0  0  1  0  0  3  0  0  0  0  0  0
  185.7740  177.5950  142.1740 C   0  0  0  0  0  0  0  0  0  0  0  0
  184.2350  178.5760  145.5630 C   0  0  0  0  0  2  0  0  0  0  0  0
  187.1750  176.7520  143.9640 C   0  0  0  0  0  3  0  0  0  0  0  0
  186.2830  177.2610  144.9190 C   0  0  0  0  0  0  0  0  0  0  0  0
  187.0630  178.8380  147.9480 N   0  0  0  0  0  2  0  0  0  0  0  0
  187.9130  176.9860  146.8870 C   0  0  0  0  0  0  0  0  0  0  0  0
  184.8450  178.0860  143.1110 C   0  0  0  0  0  0  0  0  0  0  0  0
  188.1750  177.9650  147.7560 C   0  0  0  0  0  3  0  0  0  0  0  0
  186.9280  176.9290  142.5990 C   0  0  0  0  0  3  0  0  0  0  0  0
  185.5440  177.7520  140.8100 O   0  0  0  0  0  1  0  0  0  0  0  0
  186.0510  178.3110  147.1100 C   0  0  0  0  0  0  0  0  0  0  0  0
  188.8430  175.8670  146.6320 C   0  0  0  0  0  0  0  0  0  0  0  0
  188.5660  174.7060  147.0440 O   0  0  0  0  0  0  0  0  0  0  0  0
  190.0420  177.4190  145.0710 C   0  0  0  0  0  2  0  0  0  0  0  0
  192.6460  176.3240  145.9720 C   0  0  2  0  0  3  0  0  0  0  0  0
  193.6250  177.1660  143.9550 F   0  0  0  0  0  0  0  0  0  0  0  0
  191.3370  176.0080  146.7360 C   0  0  0  0  0  2  0  0  0  0  0  0
  191.4050  178.5550  143.5120 O   0  0  0  0  0  0  0  0  0  0  0  0
  190.0900  176.0920  145.8420 C   0  0  1  0  0  3  0  0  0  0  0  0
  191.3130  177.6200  144.3000 C   0  0  0  0  0  0  0  0  0  0  0  0
  192.4540  176.6520  144.4820 C   0  0  2  0  0  3  0  0  0  0  0  0
  193.6220  175.2040  146.1380 C   0  0  0  0  0  0  0  0  0  0  0  0
  193.2280  174.0120  146.0630 O   0  0  0  0  0  0  0  0  0  0  0  0
  194.9570  175.4680  146.4300 O   0  0  0  0  0  1  0  0  0  0  0  0
  183.6950  178.7290  142.6260 O   0  0  0  0  0  0  0  0  0  0  0  0
  182.4870  178.1120  142.3970 O   0  0  0  0  0  0  0  0  0  0  0  0
  179.5500  178.6780  142.4990 C   0  0  0  0  0  1  0  0  0  0  0  0
  179.7710  179.4250  140.1380 C   0  0  0  0  0  1  0  0  0  0  0  0
  181.6960  178.2910  141.2530 C   0  0  0  0  0  0  0  0  0  0  0  0
  180.3810  178.8590  141.3230 N   0  0  0  0  0  0  0  0  0  0  0  0
  182.1630  177.9210  140.1380 O   0  0  0  0  0  0  0  0  0  0  0  0
  1 14  2  0  0  0  0
  2  7  1  0  0  0  0
  2  5  1  0  0  0  0
  3  7  1  6  0  0  0
  3  9  1  0  0  0  0
  3 14  1  0  0  0  0
  4 12  2  0  0  0  0
  4 10  1  0  0  0  0
  5  1  1  0  0  0  0
  6  7  2  0  0  0  0
  9 11  2  0  0  0  0
 10  2  2  0  0  0  0
 11  8  1  0  0  0  0
 12  6  1  0  0  0  0
 13  4  1  0  0  0  0
 14  8  1  0  0  0  0
 15  9  1  0  0  0  0
 15 16  2  0  0  0  0
 17 22  1  0  0  0  0
 18 25  1  6  0  0  0
 18 20  1  0  0  0  0
 21 23  2  0  0  0  0
 22 15  1  1  0  0  0
 22 20  1  0  0  0  0
 23 24  1  0  0  0  0
 23 17  1  0  0  0  0
 24 19  1  1  0  0  0
 24 18  1  0  0  0  0
 25 27  1  0  0  0  0
 26 25  2  0  0  0  0
 28 10  1  0  0  0  0
 29 28  1  0  0  0  0
 31 33  1  0  0  0  0
 32 33  1  0  0  0  0
 32 29  1  0  0  0  0
 33 30  1  0  0  0  0
 34 32  2  0  0  0  0
M  END
>  <MODEL>
2

>  <REMARK>
 VINA RESULT:      -7.9      4.121      9.691
  Name = 
  6 active torsions:
  status: ('A' for Active; 'I' for Inactive)
    1  A    between atoms: C_3  and  C_6
    2  A    between atoms: O_5  and  O_19
    3  A    between atoms: O_5  and  C_28
    4  A    between atoms: C_12  and  C_21
    5  A    between atoms: C_12  and  C_27
    6  A    between atoms: O_19  and  C_22
                            x       y       z     vdW  Elec       q    Type
                         _______ _______ _______ _____ _____    ______ ____

>  <TORSDO>
F 6

$$$$
=
 OpenBabel11062422033D

 34 37  0  0  1  0  0  0  0  0999 V2000
  189.7840  172.9670  143.4240 N   0  0  0  0  0  0  0  0  0  0  0  0
  191.1240  174.5390  144.7320 C   0  0  0  0  0  0  0  0  0  0  0  0
  188.9890  175.2820  143.6230 C   0  0  1  0  0  3  0  0  0  0  0  0
  192.9300  176.1020  145.2170 C   0  0  0  0  0  0  0  0  0  0  0  0
  190.5380  173.1380  144.6700 C   0  0  0  0  0  2  0  0  0  0  0  0
  190.9300  176.8860  144.0950 C   0  0  0  0  0  3  0  0  0  0  0  0
  190.3830  175.5940  144.1420 C   0  0  0  0  0  0  0  0  0  0  0  0
  188.5500  173.9560  141.6480 N   0  0  0  0  0  2  0  0  0  0  0  0
  188.5100  176.1050  142.4580 C   0  0  0  0  0  0  0  0  0  0  0  0
  192.3910  174.8050  145.3080 C   0  0  0  0  0  0  0  0  0  0  0  0
  188.2500  175.3290  141.4030 C   0  0  0  0  0  3  0  0  0  0  0  0
  192.2020  177.1350  144.6180 C   0  0  0  0  0  3  0  0  0  0  0  0
  194.1920  176.3760  145.7400 O   0  0  0  0  0  1  0  0  0  0  0  0
  189.0290  173.9300  142.9790 C   0  0  0  0  0  0  0  0  0  0  0  0
  188.1440  177.5350  142.5130 C   0  0  0  0  0  0  0  0  0  0  0  0
  188.8170  178.3870  141.8700 O   0  0  0  0  0  0  0  0  0  0  0  0
  185.6600  177.8640  142.4550 C   0  0  0  0  0  2  0  0  0  0  0  0
  185.5430  177.5580  145.4020 C   0  0  2  0  0  3  0  0  0  0  0  0
  183.4260  178.6780  145.3690 F   0  0  0  0  0  0  0  0  0  0  0  0
  186.8230  177.1980  144.6090 C   0  0  0  0  0  2  0  0  0  0  0  0
  183.3790  178.4150  142.7270 O   0  0  0  0  0  0  0  0  0  0  0  0
  186.9450  177.9730  143.2880 C   0  0  1  0  0  3  0  0  0  0  0  0
  184.4750  178.2980  143.2660 C   0  0  0  0  0  0  0  0  0  0  0  0
  184.6510  178.6150  144.7290 C   0  0  2  0  0  3  0  0  0  0  0  0
  185.9000  177.9850  146.7900 C   0  0  0  0  0  0  0  0  0  0  0  0
  186.1820  177.1200  147.6590 O   0  0  0  0  0  1  0  0  0  0  0  0
  185.8700  179.3290  147.1450 O   0  0  0  0  0  0  0  0  0  0  0  0
  193.1610  173.8130  145.9370 O   0  0  0  0  0  0  0  0  0  0  0  0
  193.9890  172.9300  145.2840 O   0  0  0  0  0  0  0  0  0  0  0  0
  195.3300  174.2540  142.9590 C   0  0  0  0  0  1  0  0  0  0  0  0
  197.3460  174.4030  144.4080 C   0  0  0  0  0  1  0  0  0  0  0  0
  195.3800  173.0650  145.1710 C   0  0  0  0  0  0  0  0  0  0  0  0
  195.9790  173.9600  144.2240 N   0  0  0  0  0  0  0  0  0  0  0  0
  196.1140  172.3600  145.9220 O   0  0  0  0  0  0  0  0  0  0  0  0
  1  5  1  0  0  0  0
  2 10  1  0  0  0  0
  3  9  1  6  0  0  0
  3  7  1  0  0  0  0
  4 10  2  0  0  0  0
  4 13  1  0  0  0  0
  5  2  1  0  0  0  0
  6  7  1  0  0  0  0
  6 12  2  0  0  0  0
  7  2  2  0  0  0  0
  8 14  1  0  0  0  0
  9 15  1  0  0  0  0
 10 28  1  0  0  0  0
 11  8  1  0  0  0  0
 11  9  2  0  0  0  0
 12  4  1  0  0  0  0
 14  1  2  0  0  0  0
 14  3  1  0  0  0  0
 16 15  2  0  0  0  0
 17 23  1  0  0  0  0
 17 22  1  0  0  0  0
 18 25  1  1  0  0  0
 20 18  1  0  0  0  0
 21 23  2  0  0  0  0
 22 15  1  6  0  0  0
 22 20  1  0  0  0  0
 23 24  1  0  0  0  0
 24 19  1  1  0  0  0
 24 18  1  0  0  0  0
 25 27  2  0  0  0  0
 25 26  1  0  0  0  0
 29 28  1  0  0  0  0
 30 33  1  0  0  0  0
 32 29  1  0  0  0  0
 32 34  2  0  0  0  0
 33 31  1  0  0  0  0
 33 32  1  0  0  0  0
M  END
>  <MODEL>
3

>  <REMARK>
 VINA RESULT:      -7.9      2.319      3.261
  Name = 
  6 active torsions:
  status: ('A' for Active; 'I' for Inactive)
    1  A    between atoms: C_3  and  C_6
    2  A    between atoms: O_5  and  O_19
    3  A    between atoms: O_5  and  C_28
    4  A    between atoms: C_12  and  C_21
    5  A    between atoms: C_12  and  C_27
    6  A    between atoms: O_19  and  C_22
                            x       y       z     vdW  Elec       q    Type
                         _______ _______ _______ _____ _____    ______ ____

>  <TORSDO>
F 6

$$$$
=
 OpenBabel11062422033D

 34 37  0  0  1  0  0  0  0  0999 V2000
  184.8280  178.9910  146.5230 N   0  0  0  0  0  0  0  0  0  0  0  0
  184.9210  177.9900  144.2940 C   0  0  0  0  0  0  0  0  0  0  0  0
  186.2610  177.0230  146.1940 C   0  0  1  0  0  3  0  0  0  0  0  0
  185.6080  177.7200  141.9710 C   0  0  0  0  0  0  0  0  0  0  0  0
  184.0220  178.5740  145.3710 C   0  0  0  0  0  2  0  0  0  0  0  0
  186.9840  176.8080  143.7460 C   0  0  0  0  0  3  0  0  0  0  0  0
  186.0780  177.2820  144.7080 C   0  0  0  0  0  0  0  0  0  0  0  0
  186.8150  178.7410  147.8050 N   0  0  0  0  0  2  0  0  0  0  0  0
  187.6790  176.9300  146.6860 C   0  0  0  0  0  0  0  0  0  0  0  0
  184.6660  178.1760  142.9120 C   0  0  0  0  0  0  0  0  0  0  0  0
  187.9300  177.8750  147.5950 C   0  0  0  0  0  3  0  0  0  0  0  0
  186.7560  177.0380  142.3860 C   0  0  0  0  0  3  0  0  0  0  0  0
  185.3980  177.9300  140.6100 O   0  0  0  0  0  1  0  0  0  0  0  0
  185.8150  178.2480  146.9340 C   0  0  0  0  0  0  0  0  0  0  0  0
  188.6120  175.8210  146.4030 C   0  0  0  0  0  0  0  0  0  0  0  0
  188.6170  174.7930  147.1360 O   0  0  0  0  0  0  0  0  0  0  0  0
  190.8960  176.4520  145.5870 C   0  0  0  0  0  2  0  0  0  0  0  0
  190.6410  174.5160  143.3550 C   0  0  2  0  0  3  0  0  0  0  0  0
  192.3610  175.7190  142.2010 F   0  0  0  0  0  0  0  0  0  0  0  0
  189.6400  174.5140  144.5360 C   0  0  0  0  0  2  0  0  0  0  0  0
  192.8780  177.0420  144.4450 O   0  0  0  0  0  0  0  0  0  0  0  0
  189.5180  175.8860  145.2170 C   0  0  1  0  0  3  0  0  0  0  0  0
  191.7850  176.4900  144.3790 C   0  0  0  0  0  0  0  0  0  0  0  0
  191.3110  175.8750  143.0870 C   0  0  2  0  0  3  0  0  0  0  0  0
  189.9770  174.0090  142.1150 C   0  0  0  0  0  0  0  0  0  0  0  0
  188.7230  174.0290  142.0230 O   0  0  0  0  0  1  0  0  0  0  0  0
  190.7320  173.4650  141.0820 O   0  0  0  0  0  0  0  0  0  0  0  0
  183.5240  178.8390  142.4350 O   0  0  0  0  0  0  0  0  0  0  0  0
  182.2740  178.2750  142.3320 O   0  0  0  0  0  0  0  0  0  0  0  0
  179.3270  178.7770  142.4570 C   0  0  0  0  0  1  0  0  0  0  0  0
  179.4760  179.3280  140.0370 C   0  0  0  0  0  1  0  0  0  0  0  0
  181.4530  178.3380  141.1970 C   0  0  0  0  0  0  0  0  0  0  0  0
  180.1270  178.8790  141.2510 N   0  0  0  0  0  0  0  0  0  0  0  0
  181.9050  177.8860  140.1050 O   0  0  0  0  0  0  0  0  0  0  0  0
  1 14  2  0  0  0  0
  2  7  1  0  0  0  0
  2  5  1  0  0  0  0
  3  7  1  6  0  0  0
  3  9  1  0  0  0  0
  3 14  1  0  0  0  0
  4 12  2  0  0  0  0
  4 10  1  0  0  0  0
  5  1  1  0  0  0  0
  6  7  2  0  0  0  0
  9 11  2  0  0  0  0
 10  2  2  0  0  0  0
 11  8  1  0  0  0  0
 12  6  1  0  0  0  0
 13  4  1  0  0  0  0
 14  8  1  0  0  0  0
 15  9  1  0  0  0  0
 15 16  2  0  0  0  0
 18 25  1  6  0  0  0
 18 20  1  0  0  0  0
 20 22  1  0  0  0  0
 22 17  1  0  0  0  0
 22 15  1  1  0  0  0
 23 21  2  0  0  0  0
 23 17  1  0  0  0  0
 24 19  1  6  0  0  0
 24 18  1  0  0  0  0
 24 23  1  0  0  0  0
 26 25  1  0  0  0  0
 27 25  2  0  0  0  0
 28 10  1  0  0  0  0
 29 28  1  0  0  0  0
 31 33  1  0  0  0  0
 32 33  1  0  0  0  0
 32 29  1  0  0  0  0
 33 30  1  0  0  0  0
 34 32  2  0  0  0  0
M  END
>  <MODEL>
4

>  <REMARK>
 VINA RESULT:      -7.8      4.190      9.794
  Name = 
  6 active torsions:
  status: ('A' for Active; 'I' for Inactive)
    1  A    between atoms: C_3  and  C_6
    2  A    between atoms: O_5  and  O_19
    3  A    between atoms: O_5  and  C_28
    4  A    between atoms: C_12  and  C_21
    5  A    between atoms: C_12  and  C_27
    6  A    between atoms: O_19  and  C_22
                            x       y       z     vdW  Elec       q    Type
                         _______ _______ _______ _____ _____    ______ ____

>  <TORSDO>
F 6

$$$$
=
 OpenBabel11062422033D

 34 37  0  0  1  0  0  0  0  0999 V2000
  187.1770  177.0250  141.5080 N   0  0  0  0  0  0  0  0  0  0  0  0
  186.3900  177.8500  143.6720 C   0  0  0  0  0  0  0  0  0  0  0  0
  188.4980  176.4830  143.5070 C   0  0  1  0  0  3  0  0  0  0  0  0
  185.0560  177.9130  145.7110 C   0  0  0  0  0  0  0  0  0  0  0  0
  186.6280  178.1910  142.2090 C   0  0  0  0  0  2  0  0  0  0  0  0
  187.0420  176.5260  145.6140 C   0  0  0  0  0  3  0  0  0  0  0  0
  187.2800  176.9390  144.2940 C   0  0  0  0  0  0  0  0  0  0  0  0
  188.3940  174.9850  141.6100 N   0  0  0  0  0  2  0  0  0  0  0  0
  189.0160  175.1050  143.8180 C   0  0  0  0  0  0  0  0  0  0  0  0
  185.2910  178.3690  144.4000 C   0  0  0  0  0  0  0  0  0  0  0  0
  188.9710  174.3250  142.7360 C   0  0  0  0  0  3  0  0  0  0  0  0
  185.9280  177.0000  146.3130 C   0  0  0  0  0  3  0  0  0  0  0  0
  183.9580  178.3780  146.4300 O   0  0  0  0  0  1  0  0  0  0  0  0
  188.0770  176.2800  142.0830 C   0  0  0  0  0  0  0  0  0  0  0  0
  189.7040  174.7110  145.0640 C   0  0  0  0  0  0  0  0  0  0  0  0
  189.3200  173.6950  145.7070 O   0  0  0  0  0  0  0  0  0  0  0  0
  190.7010  175.9740  146.9860 C   0  0  0  0  0  2  0  0  0  0  0  0
  193.4240  175.3920  145.9640 C   0  0  2  0  0  3  0  0  0  0  0  0
  194.2340  177.2340  147.2620 F   0  0  0  0  0  0  0  0  0  0  0  0
  192.1810  174.6640  145.3950 C   0  0  0  0  0  2  0  0  0  0  0  0
  191.8940  177.3220  148.5150 O   0  0  0  0  0  0  0  0  0  0  0  0
  190.8900  175.4820  145.5440 C   0  0  1  0  0  3  0  0  0  0  0  0
  191.9140  176.7310  147.4410 C   0  0  0  0  0  0  0  0  0  0  0  0
  193.1340  176.7810  146.5570 C   0  0  2  0  0  3  0  0  0  0  0  0
  194.4910  175.4820  144.9210 C   0  0  0  0  0  0  0  0  0  0  0  0
  195.5600  174.8330  145.0590 O   0  0  0  0  0  1  0  0  0  0  0  0
  194.3360  176.3210  143.8230 O   0  0  0  0  0  0  0  0  0  0  0  0
  184.3910  179.2990  143.8540 O   0  0  0  0  0  0  0  0  0  0  0  0
  183.0690  179.0430  143.5750 O   0  0  0  0  0  0  0  0  0  0  0  0
  180.1550  179.0370  142.8950 C   0  0  0  0  0  1  0  0  0  0  0  0
  180.8710  178.9470  140.5150 C   0  0  0  0  0  1  0  0  0  0  0  0
  182.5700  178.6590  142.3220 C   0  0  0  0  0  0  0  0  0  0  0  0
  181.2260  178.9550  141.9190 N   0  0  0  0  0  0  0  0  0  0  0  0
  183.3360  178.0220  141.5420 O   0  0  0  0  0  0  0  0  0  0  0  0
  1 14  2  0  0  0  0
  1  5  1  0  0  0  0
  2  7  2  0  0  0  0
  2 10  1  0  0  0  0
  3 14  1  6  0  0  0
  3  9  1  0  0  0  0
  3  7  1  0  0  0  0
  4 12  1  0  0  0  0
  4 13  1  0  0  0  0
  5  2  1  0  0  0  0
  6 12  2  0  0  0  0
  7  6  1  0  0  0  0
  8 14  1  0  0  0  0
  8 11  1  0  0  0  0
  9 15  1  0  0  0  0
 10  4  2  0  0  0  0
 11  9  2  0  0  0  0
 15 16  2  0  0  0  0
 17 23  1  0  0  0  0
 18 25  1  6  0  0  0
 18 24  1  0  0  0  0
 20 22  1  0  0  0  0
 20 18  1  0  0  0  0
 22 15  1  1  0  0  0
 22 17  1  0  0  0  0
 23 21  2  0  0  0  0
 24 19  1  1  0  0  0
 24 23  1  0  0  0  0
 25 26  1  0  0  0  0
 27 25  2  0  0  0  0
 28 10  1  0  0  0  0
 29 28  1  0  0  0  0
 31 33  1  0  0  0  0
 32 29  1  0  0  0  0
 33 32  1  0  0  0  0
 33 30  1  0  0  0  0
 34 32  2  0  0  0  0
M  END
>  <MODEL>
5

>  <REMARK>
 VINA RESULT:      -7.8      3.931      9.775
  Name = 
  6 active torsions:
  status: ('A' for Active; 'I' for Inactive)
    1  A    between atoms: C_3  and  C_6
    2  A    between atoms: O_5  and  O_19
    3  A    between atoms: O_5  and  C_28
    4  A    between atoms: C_12  and  C_21
    5  A    between atoms: C_12  and  C_27
    6  A    between atoms: O_19  and  C_22
                            x       y       z     vdW  Elec       q    Type
                         _______ _______ _______ _____ _____    ______ ____

>  <TORSDO>
F 6

$$$$
=
 OpenBabel11062422033D

 34 37  0  0  1  0  0  0  0  0999 V2000
  190.4030  172.7040  145.0110 N   0  0  0  0  0  0  0  0  0  0  0  0
  189.9340  173.1550  142.6530 C   0  0  0  0  0  0  0  0  0  0  0  0
  189.9200  175.0200  144.3460 C   0  0  1  0  0  3  0  0  0  0  0  0
  188.6300  173.2770  140.5970 C   0  0  0  0  0  0  0  0  0  0  0  0
  190.8280  172.4180  143.6370 C   0  0  0  0  0  2  0  0  0  0  0  0
  188.5180  175.0890  142.2030 C   0  0  0  0  0  3  0  0  0  0  0  0
  189.4210  174.4190  143.0420 C   0  0  0  0  0  0  0  0  0  0  0  0
  189.3230  174.1770  146.5340 N   0  0  0  0  0  2  0  0  0  0  0  0
  188.9590  175.9160  145.0780 C   0  0  0  0  0  0  0  0  0  0  0  0
  189.5640  172.5990  141.4030 C   0  0  0  0  0  0  0  0  0  0  0  0
  188.6850  175.4300  146.2900 C   0  0  0  0  0  3  0  0  0  0  0  0
  188.1150  174.5150  140.9940 C   0  0  0  0  0  3  0  0  0  0  0  0
  188.2210  172.7280  139.3840 O   0  0  0  0  0  1  0  0  0  0  0  0
  190.0440  173.9110  145.3460 C   0  0  0  0  0  0  0  0  0  0  0  0
  188.5470  177.2660  144.6410 C   0  0  0  0  0  0  0  0  0  0  0  0
  189.4010  178.1920  144.5530 O   0  0  0  0  0  0  0  0  0  0  0  0
  186.3510  178.2220  145.3800 C   0  0  0  0  0  2  0  0  0  0  0  0
  185.6020  178.7040  142.5520 C   0  0  2  0  0  3  0  0  0  0  0  0
  183.3110  178.7950  143.2420 F   0  0  0  0  0  0  0  0  0  0  0  0
  187.0530  178.3320  142.9450 C   0  0  0  0  0  2  0  0  0  0  0  0
  184.1230  178.9030  145.7680 O   0  0  0  0  0  0  0  0  0  0  0  0
  187.1300  177.5300  144.2530 C   0  0  1  0  0  3  0  0  0  0  0  0
  184.9370  178.4840  144.9520 C   0  0  0  0  0  0  0  0  0  0  0  0
  184.5270  178.2020  143.5300 C   0  0  2  0  0  3  0  0  0  0  0  0
  185.3060  178.2330  141.1650 C   0  0  0  0  0  0  0  0  0  0  0  0
  186.1330  177.5010  140.5610 O   0  0  0  0  0  1  0  0  0  0  0  0
  184.1470  178.6400  140.5120 O   0  0  0  0  0  0  0  0  0  0  0  0
  190.0610  171.3680  140.9450 O   0  0  0  0  0  0  0  0  0  0  0  0
  191.2680  171.1960  140.3080 O   0  0  0  0  0  0  0  0  0  0  0  0
  192.6970  173.7960  139.9180 C   0  0  0  0  0  1  0  0  0  0  0  0
  193.1720  173.0080  137.6080 C   0  0  0  0  0  1  0  0  0  0  0  0
  191.5940  171.7150  139.0470 C   0  0  0  0  0  0  0  0  0  0  0  0
  192.5350  172.7850  138.8900 N   0  0  0  0  0  0  0  0  0  0  0  0
  191.0220  171.2250  138.0310 O   0  0  0  0  0  0  0  0  0  0  0  0
  1 14  2  0  0  0  0
  2  7  1  0  0  0  0
  2  5  1  0  0  0  0
  3  7  1  6  0  0  0
  3  9  1  0  0  0  0
  3 14  1  0  0  0  0
  4 12  2  0  0  0  0
  4 10  1  0  0  0  0
  5  1  1  0  0  0  0
  6  7  2  0  0  0  0
  9 11  2  0  0  0  0
 10  2  2  0  0  0  0
 11  8  1  0  0  0  0
 12  6  1  0  0  0  0
 13  4  1  0  0  0  0
 14  8  1  0  0  0  0
 15  9  1  0  0  0  0
 16 15  2  0  0  0  0
 18 25  1  6  0  0  0
 18 20  1  0  0  0  0
 18 24  1  0  0  0  0
 20 22  1  0  0  0  0
 22 15  1  1  0  0  0
 22 17  1  0  0  0  0
 23 17  1  0  0  0  0
 23 21  2  0  0  0  0
 24 19  1  6  0  0  0
 24 23  1  0  0  0  0
 26 25  1  0  0  0  0
 27 25  2  0  0  0  0
 28 10  1  0  0  0  0
 29 28  1  0  0  0  0
 31 33  1  0  0  0  0
 32 29  1  0  0  0  0
 33 32  1  0  0  0  0
 33 30  1  0  0  0  0
 34 32  2  0  0  0  0
M  END
>  <MODEL>
6

>  <REMARK>
 VINA RESULT:      -7.6      4.027      5.381
  Name = 
  6 active torsions:
  status: ('A' for Active; 'I' for Inactive)
    1  A    between atoms: C_3  and  C_6
    2  A    between atoms: O_5  and  O_19
    3  A    between atoms: O_5  and  C_28
    4  A    between atoms: C_12  and  C_21
    5  A    between atoms: C_12  and  C_27
    6  A    between atoms: O_19  and  C_22
                            x       y       z     vdW  Elec       q    Type
                         _______ _______ _______ _____ _____    ______ ____

>  <TORSDO>
F 6

$$$$
=
 OpenBabel11062422033D

 34 37  0  0  1  0  0  0  0  0999 V2000
  189.5890  175.1620  146.7580 N   0  0  0  0  0  0  0  0  0  0  0  0
  189.5750  175.9750  144.4520 C   0  0  0  0  0  0  0  0  0  0  0  0
  191.7470  175.6060  145.6720 C   0  0  1  0  0  3  0  0  0  0  0  0
  189.3820  177.5820  142.6290 C   0  0  0  0  0  0  0  0  0  0  0  0
  188.9810  174.9800  145.4360 C   0  0  0  0  0  2  0  0  0  0  0  0
  191.4950  177.3260  143.7910 C   0  0  0  0  0  3  0  0  0  0  0  0
  190.9340  176.3420  144.6190 C   0  0  0  0  0  0  0  0  0  0  0  0
  191.4430  175.8930  148.0550 N   0  0  0  0  0  2  0  0  0  0  0  0
  192.8630  176.3810  146.3160 C   0  0  0  0  0  0  0  0  0  0  0  0
  188.8050  176.5730  143.4230 C   0  0  0  0  0  0  0  0  0  0  0  0
  192.6710  176.4860  147.6330 C   0  0  0  0  0  3  0  0  0  0  0  0
  190.7190  177.9520  142.8100 C   0  0  0  0  0  3  0  0  0  0  0  0
  188.6310  178.2120  141.6400 O   0  0  0  0  0  1  0  0  0  0  0  0
  190.8670  175.3890  146.8650 C   0  0  0  0  0  0  0  0  0  0  0  0
  194.1230  176.7760  145.6540 C   0  0  0  0  0  0  0  0  0  0  0  0
  194.5440  177.9630  145.7480 O   0  0  0  0  0  0  0  0  0  0  0  0
  195.9350  176.4250  143.9590 C   0  0  0  0  0  2  0  0  0  0  0  0
  196.5570  173.7850  145.1580 C   0  0  2  0  0  3  0  0  0  0  0  0
  197.6200  173.1740  143.1010 F   0  0  0  0  0  0  0  0  0  0  0  0
  195.6350  174.7980  145.8810 C   0  0  0  0  0  2  0  0  0  0  0  0
  197.4950  175.7130  142.3340 O   0  0  0  0  0  0  0  0  0  0  0  0
  194.9330  175.7630  144.9140 C   0  0  1  0  0  3  0  0  0  0  0  0
  196.7400  175.3810  143.2420 C   0  0  0  0  0  0  0  0  0  0  0  0
  196.5900  173.9320  143.6270 C   0  0  2  0  0  3  0  0  0  0  0  0
  196.1880  172.3880  145.5400 C   0  0  0  0  0  0  0  0  0  0  0  0
  194.9840  172.0930  145.7550 O   0  0  0  0  0  1  0  0  0  0  0  0
  197.1720  171.4200  145.7140 O   0  0  0  0  0  0  0  0  0  0  0  0
  187.4640  176.2310  143.1840 O   0  0  0  0  0  0  0  0  0  0  0  0
  186.3920  177.0670  143.3860 O   0  0  0  0  0  0  0  0  0  0  0  0
  185.5610  179.8020  144.2710 C   0  0  0  0  0  1  0  0  0  0  0  0
  184.1810  178.6560  145.9920 C   0  0  0  0  0  1  0  0  0  0  0  0
  185.7980  177.3280  144.6290 C   0  0  0  0  0  0  0  0  0  0  0  0
  185.1340  178.5690  144.9050 N   0  0  0  0  0  0  0  0  0  0  0  0
  185.8720  176.4400  145.5270 O   0  0  0  0  0  0  0  0  0  0  0  0
  1 14  2  0  0  0  0
  2  7  1  0  0  0  0
  2  5  1  0  0  0  0
  3  7  1  6  0  0  0
  3  9  1  0  0  0  0
  3 14  1  0  0  0  0
  4 12  2  0  0  0  0
  4 10  1  0  0  0  0
  5  1  1  0  0  0  0
  6  7  2  0  0  0  0
  9 11  2  0  0  0  0
 10  2  2  0  0  0  0
 11  8  1  0  0  0  0
 12  6  1  0  0  0  0
 13  4  1  0  0  0  0
 14  8  1  0  0  0  0
 15 16  2  0  0  0  0
 15  9  1  0  0  0  0
 17 22  1  0  0  0  0
 18 25  1  6  0  0  0
 18 20  1  0  0  0  0
 21 23  2  0  0  0  0
 22 15  1  1  0  0  0
 22 20  1  0  0  0  0
 23 24  1  0  0  0  0
 23 17  1  0  0  0  0
 24 19  1  1  0  0  0
 24 18  1  0  0  0  0
 25 27  2  0  0  0  0
 25 26  1  0  0  0  0
 28 29  1  0  0  0  0
 28 10  1  0  0  0  0
 29 32  1  0  0  0  0
 30 33  1  0  0  0  0
 32 33  1  0  0  0  0
 32 34  2  0  0  0  0
 33 31  1  0  0  0  0
M  END
>  <MODEL>
7

>  <REMARK>
 VINA RESULT:      -7.6      3.286      8.927
  Name = 
  6 active torsions:
  status: ('A' for Active; 'I' for Inactive)
    1  A    between atoms: C_3  and  C_6
    2  A    between atoms: O_5  and  O_19
    3  A    between atoms: O_5  and  C_28
    4  A    between atoms: C_12  and  C_21
    5  A    between atoms: C_12  and  C_27
    6  A    between atoms: O_19  and  C_22
                            x       y       z     vdW  Elec       q    Type
                         _______ _______ _______ _____ _____    ______ ____

>  <TORSDO>
F 6

$$$$
=
 OpenBabel11062422033D

 34 37  0  0  1  0  0  0  0  0999 V2000
  193.3140  176.3050  147.1860 N   0  0  0  0  0  0  0  0  0  0  0  0
  193.6500  176.4580  144.7680 C   0  0  0  0  0  0  0  0  0  0  0  0
  191.3320  176.5160  145.7510 C   0  0  1  0  0  3  0  0  0  0  0  0
  194.0630  175.6790  142.4960 C   0  0  0  0  0  0  0  0  0  0  0  0
  194.1200  176.9330  146.1340 C   0  0  0  0  0  2  0  0  0  0  0  0
  191.8080  175.6500  143.3880 C   0  0  0  0  0  3  0  0  0  0  0  0
  192.2700  176.1790  144.6030 C   0  0  0  0  0  0  0  0  0  0  0  0
  191.2620  175.2960  147.8390 N   0  0  0  0  0  2  0  0  0  0  0  0
  190.1060  175.6540  145.8870 C   0  0  0  0  0  0  0  0  0  0  0  0
  194.5460  176.2420  143.6920 C   0  0  0  0  0  0  0  0  0  0  0  0
  190.0940  175.0270  147.0650 C   0  0  0  0  0  3  0  0  0  0  0  0
  192.7030  175.3900  142.3450 C   0  0  0  0  0  3  0  0  0  0  0  0
  194.9330  175.4200  141.4400 O   0  0  0  0  0  1  0  0  0  0  0  0
  192.0280  176.1700  147.0320 C   0  0  0  0  0  0  0  0  0  0  0  0
  188.9480  175.6640  144.9700 C   0  0  0  0  0  0  0  0  0  0  0  0
  188.9300  174.9000  143.9640 O   0  0  0  0  0  0  0  0  0  0  0  0
  187.8740  177.1950  146.6380 C   0  0  0  0  0  2  0  0  0  0  0  0
  186.4200  178.5700  144.4490 C   0  0  2  0  0  3  0  0  0  0  0  0
  184.8630  179.3780  146.0790 F   0  0  0  0  0  0  0  0  0  0  0  0
  187.5770  177.5860  144.1490 C   0  0  0  0  0  2  0  0  0  0  0  0
  186.5190  178.5750  147.9940 O   0  0  0  0  0  0  0  0  0  0  0  0
  187.7710  176.5370  145.2550 C   0  0  1  0  0  3  0  0  0  0  0  0
  186.6850  178.0750  146.8860 C   0  0  0  0  0  0  0  0  0  0  0  0
  185.6910  178.3110  145.7780 C   0  0  2  0  0  3  0  0  0  0  0  0
  185.4480  178.5850  143.3140 C   0  0  0  0  0  0  0  0  0  0  0  0
  185.8250  178.9440  142.1690 O   0  0  0  0  0  0  0  0  0  0  0  0
  184.1130  178.2550  143.5240 O   0  0  0  0  0  1  0  0  0  0  0  0
  195.9180  176.5290  143.7790 O   0  0  0  0  0  0  0  0  0  0  0  0
  196.9070  175.5900  143.9580 O   0  0  0  0  0  0  0  0  0  0  0  0
  196.8220  172.8930  142.6640 C   0  0  0  0  0  1  0  0  0  0  0  0
  197.2950  171.9680  144.9230 C   0  0  0  0  0  1  0  0  0  0  0  0
  196.7620  174.3940  144.6760 C   0  0  0  0  0  0  0  0  0  0  0  0
  197.0320  173.1170  144.0820 N   0  0  0  0  0  0  0  0  0  0  0  0
  196.3650  174.4600  145.8760 O   0  0  0  0  0  0  0  0  0  0  0  0
  2  5  1  0  0  0  0
  3  7  1  6  0  0  0
  3  9  1  0  0  0  0
  3 14  1  0  0  0  0
  4 10  1  0  0  0  0
  5  1  1  0  0  0  0
  6  7  2  0  0  0  0
  7  2  1  0  0  0  0
  9 11  2  0  0  0  0
 10 28  1  0  0  0  0
 10  2  2  0  0  0  0
 11  8  1  0  0  0  0
 12  4  2  0  0  0  0
 12  6  1  0  0  0  0
 13  4  1  0  0  0  0
 14  1  2  0  0  0  0
 14  8  1  0  0  0  0
 15  9  1  0  0  0  0
 16 15  2  0  0  0  0
 17 23  1  0  0  0  0
 18 25  1  6  0  0  0
 18 24  1  0  0  0  0
 20 18  1  0  0  0  0
 20 22  1  0  0  0  0
 22 15  1  6  0  0  0
 22 17  1  0  0  0  0
 23 21  2  0  0  0  0
 24 19  1  1  0  0  0
 24 23  1  0  0  0  0
 25 27  1  0  0  0  0
 26 25  2  0  0  0  0
 28 29  1  0  0  0  0
 29 32  1  0  0  0  0
 30 33  1  0  0  0  0
 32 34  2  0  0  0  0
 33 32  1  0  0  0  0
 33 31  1  0  0  0  0
M  END
>  <MODEL>
8

>  <REMARK>
 VINA RESULT:      -7.6      0.682      2.031
  Name = 
  6 active torsions:
  status: ('A' for Active; 'I' for Inactive)
    1  A    between atoms: C_3  and  C_6
    2  A    between atoms: O_5  and  O_19
    3  A    between atoms: O_5  and  C_28
    4  A    between atoms: C_12  and  C_21
    5  A    between atoms: C_12  and  C_27
    6  A    between atoms: O_19  and  C_22
                            x       y       z     vdW  Elec       q    Type
                         _______ _______ _______ _____ _____    ______ ____

>  <TORSDO>
F 6

$$$$
=
 OpenBabel11062422033D

 34 37  0  0  1  0  0  0  0  0999 V2000
  187.4460  174.8740  142.3270 N   0  0  0  0  0  0  0  0  0  0  0  0
  187.0210  176.4800  144.1220 C   0  0  0  0  0  0  0  0  0  0  0  0
  189.3240  175.5230  143.7720 C   0  0  1  0  0  3  0  0  0  0  0  0
  186.2800  177.2790  146.3030 C   0  0  0  0  0  0  0  0  0  0  0  0
  186.7770  176.1360  142.6620 C   0  0  0  0  0  2  0  0  0  0  0  0
  188.4930  176.3190  146.0610 C   0  0  0  0  0  3  0  0  0  0  0  0
  188.2630  176.1040  144.6930 C   0  0  0  0  0  0  0  0  0  0  0  0
  189.1880  173.3200  142.7800 N   0  0  0  0  0  2  0  0  0  0  0  0
  190.2800  174.5400  144.3910 C   0  0  0  0  0  0  0  0  0  0  0  0
  186.0370  177.1070  144.9270 C   0  0  0  0  0  0  0  0  0  0  0  0
  190.1940  173.3510  143.7920 C   0  0  0  0  0  3  0  0  0  0  0  0
  187.5010  176.8910  146.8630 C   0  0  0  0  0  3  0  0  0  0  0  0
  185.3100  177.8560  147.1190 O   0  0  0  0  0  1  0  0  0  0  0  0
  188.6370  174.6240  142.7890 C   0  0  0  0  0  0  0  0  0  0  0  0
  191.3410  174.8760  145.3630 C   0  0  0  0  0  0  0  0  0  0  0  0
  191.1560  174.6810  146.5960 O   0  0  0  0  0  0  0  0  0  0  0  0
  193.1760  176.5310  145.7830 C   0  0  0  0  0  2  0  0  0  0  0  0
  195.0940  174.7770  144.3550 C   0  0  2  0  0  3  0  0  0  0  0  0
  196.5110  176.6840  144.0530 F   0  0  0  0  0  0  0  0  0  0  0  0
  193.6890  174.2670  144.7600 C   0  0  0  0  0  2  0  0  0  0  0  0
  195.0090  178.0190  145.7890 O   0  0  0  0  0  0  0  0  0  0  0  0
  192.6570  175.3970  144.8870 C   0  0  1  0  0  3  0  0  0  0  0  0
  194.5040  177.0220  145.2860 C   0  0  0  0  0  0  0  0  0  0  0  0
  195.1870  176.2990  144.1540 C   0  0  2  0  0  3  0  0  0  0  0  0
  195.5710  174.0600  143.1340 C   0  0  0  0  0  0  0  0  0  0  0  0
  194.7900  173.8860  142.1630 O   0  0  0  0  0  0  0  0  0  0  0  0
  196.8580  173.5330  143.0810 O   0  0  0  0  0  1  0  0  0  0  0  0
  184.8000  177.5320  144.4170 O   0  0  0  0  0  0  0  0  0  0  0  0
  184.6390  178.4910  143.4440 O   0  0  0  0  0  0  0  0  0  0  0  0
  184.8350  178.3510  140.4610 C   0  0  0  0  0  1  0  0  0  0  0  0
  182.3850  177.9260  140.4760 C   0  0  0  0  0  1  0  0  0  0  0  0
  183.5300  178.5960  142.5920 C   0  0  0  0  0  0  0  0  0  0  0  0
  183.5990  178.2210  141.2100 N   0  0  0  0  0  0  0  0  0  0  0  0
  182.4500  179.0500  143.0680 O   0  0  0  0  0  0  0  0  0  0  0  0
  1  5  1  0  0  0  0
  1 14  2  0  0  0  0
  2  7  2  0  0  0  0
  2 10  1  0  0  0  0
  3 14  1  6  0  0  0
  3  9  1  0  0  0  0
  3  7  1  0  0  0  0
  4 12  1  0  0  0  0
  4 13  1  0  0  0  0
  5  2  1  0  0  0  0
  6 12  2  0  0  0  0
  7  6  1  0  0  0  0
  8 14  1  0  0  0  0
  8 11  1  0  0  0  0
  9 15  1  0  0  0  0
 10  4  2  0  0  0  0
 11  9  2  0  0  0  0
 15 16  2  0  0  0  0
 18 25  1  6  0  0  0
 18 20  1  0  0  0  0
 20 22  1  0  0  0  0
 22 15  1  1  0  0  0
 22 17  1  0  0  0  0
 23 17  1  0  0  0  0
 23 21  2  0  0  0  0
 24 19  1  1  0  0  0
 24 18  1  0  0  0  0
 24 23  1  0  0  0  0
 26 25  2  0  0  0  0
 27 25  1  0  0  0  0
 28 10  1  0  0  0  0
 29 28  1  0  0  0  0
 30 33  1  0  0  0  0
 31 33  1  0  0  0  0
 32 34  2  0  0  0  0
 32 29  1  0  0  0  0
 33 32  1  0  0  0  0
M  END
>  <MODEL>
9

>  <REMARK>
 VINA RESULT:      -7.4      3.692      9.549
  Name = 
  6 active torsions:
  status: ('A' for Active; 'I' for Inactive)
    1  A    between atoms: C_3  and  C_6
    2  A    between atoms: O_5  and  O_19
    3  A    between atoms: O_5  and  C_28
    4  A    between atoms: C_12  and  C_21
    5  A    between atoms: C_12  and  C_27
    6  A    between atoms: O_19  and  C_22
                            x       y       z     vdW  Elec       q    Type
                         _______ _______ _______ _____ _____    ______ ____

>  <TORSDO>
F 6

$$$$
