=
 OpenBabel11062420063D

 35 40  0  0  1  0  0  0  0  0999 V2000
  189.9450  172.8210  141.4090 N   0  0  0  0  0  0  0  0  0  0  0  0
  189.1600  174.7890  144.5760 C   0  0  0  0  0  0  0  0  0  0  0  0
  185.4820  178.0310  145.8490 C   0  0  0  0  0  2  0  0  0  0  0  0
  187.5990  176.9980  144.9980 C   0  0  0  0  0  0  0  0  0  0  0  0
  188.2190  176.4090  146.0630 N   0  0  0  0  0  0  0  0  0  0  0  0
  188.6440  174.2140  139.9380 C   0  0  0  0  0  0  0  0  0  0  0  0
  188.1870  174.4850  138.6930 F   0  0  0  0  0  0  0  0  0  0  0  0
  188.2760  175.0360  141.0150 C   0  0  0  0  0  3  0  0  0  0  0  0
  185.3100  178.8990  143.1630 N   0  0  0  0  0  0  0  0  0  0  0  0
  184.3500  179.0030  145.4440 C   0  0  0  0  0  2  0  0  0  0  0  0
  189.4840  173.1060  140.1560 C   0  0  0  0  0  3  0  0  0  0  0  0
  187.7360  176.5120  143.7140 C   0  0  0  0  0  0  0  0  0  0  0  0
  186.9830  177.2450  142.7600 N   0  0  0  0  0  2  0  0  0  0  0  0
  189.5930  173.6200  142.4460 C   0  0  0  0  0  0  0  0  0  0  0  0
  186.7490  178.2160  145.0120 C   0  0  1  0  0  3  0  0  0  0  0  0
  184.5940  179.7460  144.1150 C   0  0  0  0  0  2  0  0  0  0  0  0
  186.3550  178.2450  143.5620 C   0  0  0  0  0  0  0  0  0  0  0  0
  188.7680  174.7230  142.2810 C   0  0  0  0  0  0  0  0  0  0  0  0
  188.5260  175.3880  143.4850 C   0  0  0  0  0  0  0  0  0  0  0  0
  189.0000  175.3000  145.8810 C   0  0  0  0  0  0  0  0  0  0  0  0
  190.0370  173.4320  144.0620 S   0  0  0  0  0  0  0  0  0  0  0  0
  189.6370  174.6490  147.0680 C   0  0  0  0  0  2  0  0  0  0  0  0
  190.6930  175.5480  147.7000 C   0  0  0  0  0  2  0  0  0  0  0  0
  191.7760  175.7210  146.8350 O   0  0  0  0  0  0  0  0  0  0  0  0
  192.4790  174.5180  146.9140 C   0  0  0  0  0  2  0  0  0  0  0  0
  193.3880  174.3710  145.7050 C   0  0  0  0  0  2  0  0  0  0  0  0
  194.4610  175.4500  145.7040 C   0  0  1  0  0  3  0  0  0  0  0  0
  196.4850  174.9820  143.9250 S   0  0  0  0  0  0  0  0  0  0  0  0
  195.8480  174.8210  145.6240 C   0  0  0  0  0  2  0  0  0  0  0  0
  195.2440  176.2120  143.5880 C   0  0  0  0  0  2  0  0  0  0  0  0
  194.3050  176.3210  144.5100 C   0  0  2  0  0  3  0  0  0  0  0  0
  191.1130  178.1830  143.5200 N   0  0  0  0  0  1  0  0  0  0  0  0
  191.9520  176.1670  142.7450 O   0  0  0  0  0  0  0  0  0  0  0  0
  193.2080  177.2400  144.4140 N   0  0  0  0  0  2  0  0  0  0  0  0
  192.0890  177.1480  143.5230 C   0  0  0  0  0  0  0  0  0  0  0  0
  1 14  1  0  0  0  0
  2 20  1  0  0  0  0
  4 15  1  0  0  0  0
  4  5  1  0  0  0  0
  6 11  1  0  0  0  0
  6  8  2  0  0  0  0
  7  6  1  0  0  0  0
  8 18  1  0  0  0  0
  9 17  2  0  0  0  0
  9 16  1  0  0  0  0
 10  3  1  0  0  0  0
 11  1  2  0  0  0  0
 12  4  2  0  0  0  0
 13 17  1  0  0  0  0
 13 12  1  0  0  0  0
 14 21  1  0  0  0  0
 15  3  1  1  0  0  0
 16 10  1  0  0  0  0
 17 15  1  0  0  0  0
 18 14  2  0  0  0  0
 18 19  1  0  0  0  0
 19 12  1  0  0  0  0
 19  2  2  0  0  0  0
 20  5  2  0  0  0  0
 20 22  1  0  0  0  0
 21  2  1  0  0  0  0
 22 23  1  0  0  0  0
 24 25  1  0  0  0  0
 24 23  1  0  0  0  0
 26 25  1  0  0  0  0
 27 26  1  6  0  0  0
 28 29  1  0  0  0  0
 29 27  1  0  0  0  0
 30 28  1  0  0  0  0
 30 31  1  0  0  0  0
 31 34  1  1  0  0  0
 31 27  1  0  0  0  0
 32 35  1  0  0  0  0
 33 35  2  0  0  0  0
 35 34  1  0  0  0  0
M  END
>  <MODEL>
1

>  <REMARK>
 VINA RESULT:      -7.5      0.000      0.000
  Name = 
  7 active torsions:
  status: ('A' for Active; 'I' for Inactive)
    1  A    between atoms: C_11  and  C_35
    2  A    between atoms: C_13  and  C_20
    3  A    between atoms: C_13  and  O_26
    4  A    between atoms: C_19  and  O_26
    5  A    between atoms: C_19  and  C_35
    6  A    between atoms: C_20  and  C_32
    7  A    between atoms: N_25  and  C_34
                            x       y       z     vdW  Elec       q    Type
                         _______ _______ _______ _____ _____    ______ ____

>  <TORSDO>
F 7

$$$$
=
 OpenBabel11062420063D

 35 40  0  0  1  0  0  0  0  0999 V2000
  190.2560  173.0620  141.7880 N   0  0  0  0  0  0  0  0  0  0  0  0
  189.3220  174.9960  144.9360 C   0  0  0  0  0  0  0  0  0  0  0  0
  185.3190  177.8130  146.2410 C   0  0  0  0  0  2  0  0  0  0  0  0
  187.5220  177.0160  145.3560 C   0  0  0  0  0  0  0  0  0  0  0  0
  188.2320  176.5280  146.4160 N   0  0  0  0  0  0  0  0  0  0  0  0
  188.7670  174.2610  140.3260 C   0  0  0  0  0  0  0  0  0  0  0  0
  188.2520  174.4470  139.0880 F   0  0  0  0  0  0  0  0  0  0  0  0
  188.3300  175.0580  141.3960 C   0  0  0  0  0  3  0  0  0  0  0  0
  184.9830  178.5950  143.5450 N   0  0  0  0  0  0  0  0  0  0  0  0
  184.0720  178.6370  145.8480 C   0  0  0  0  0  2  0  0  0  0  0  0
  189.7360  173.2630  140.5430 C   0  0  0  0  0  3  0  0  0  0  0  0
  187.6840  176.5210  144.0780 C   0  0  0  0  0  0  0  0  0  0  0  0
  186.8290  177.1390  143.1300 N   0  0  0  0  0  2  0  0  0  0  0  0
  189.8380  173.8370  142.8190 C   0  0  0  0  0  0  0  0  0  0  0  0
  186.5350  178.1260  145.3690 C   0  0  1  0  0  3  0  0  0  0  0  0
  184.1950  179.3730  144.4980 C   0  0  0  0  0  2  0  0  0  0  0  0
  186.1060  178.0760  143.9290 C   0  0  0  0  0  0  0  0  0  0  0  0
  188.8850  174.8330  142.6540 C   0  0  0  0  0  0  0  0  0  0  0  0
  188.5950  175.4920  143.8510 C   0  0  0  0  0  0  0  0  0  0  0  0
  189.1330  175.5140  146.2350 C   0  0  0  0  0  0  0  0  0  0  0  0
  190.3400  173.7390  144.4270 S   0  0  0  0  0  0  0  0  0  0  0  0
  189.8700  174.9680  147.4170 C   0  0  0  0  0  2  0  0  0  0  0  0
  191.1510  175.7490  147.6880 C   0  0  0  0  0  2  0  0  0  0  0  0
  192.2650  175.0430  147.2280 O   0  0  0  0  0  0  0  0  0  0  0  0
  193.0570  176.0100  146.6070 C   0  0  0  0  0  2  0  0  0  0  0  0
  194.3290  175.3720  146.0740 C   0  0  0  0  0  2  0  0  0  0  0  0
  194.1160  174.8430  144.6630 C   0  0  1  0  0  3  0  0  0  0  0  0
  195.5450  176.1910  142.7590 S   0  0  0  0  0  0  0  0  0  0  0  0
  193.9830  176.0000  143.6770 C   0  0  0  0  0  2  0  0  0  0  0  0
  196.0450  174.5700  143.2940 C   0  0  0  0  0  2  0  0  0  0  0  0
  195.2900  174.0380  144.2390 C   0  0  2  0  0  3  0  0  0  0  0  0
  196.6570  171.0850  146.2510 N   0  0  0  0  0  1  0  0  0  0  0  0
  197.2070  173.3330  146.3610 O   0  0  0  0  0  0  0  0  0  0  0  0
  195.5390  172.7490  144.8150 N   0  0  0  0  0  2  0  0  0  0  0  0
  196.5000  172.4350  145.8310 C   0  0  0  0  0  0  0  0  0  0  0  0
  1 14  1  0  0  0  0
  2 20  1  0  0  0  0
  4 15  1  0  0  0  0
  4  5  1  0  0  0  0
  6 11  1  0  0  0  0
  6  8  2  0  0  0  0
  7  6  1  0  0  0  0
  8 18  1  0  0  0  0
  9 17  2  0  0  0  0
  9 16  1  0  0  0  0
 10  3  1  0  0  0  0
 11  1  2  0  0  0  0
 12  4  2  0  0  0  0
 13 17  1  0  0  0  0
 13 12  1  0  0  0  0
 14 21  1  0  0  0  0
 15  3  1  1  0  0  0
 16 10  1  0  0  0  0
 17 15  1  0  0  0  0
 18 14  2  0  0  0  0
 18 19  1  0  0  0  0
 19 12  1  0  0  0  0
 19  2  2  0  0  0  0
 20  5  2  0  0  0  0
 20 22  1  0  0  0  0
 21  2  1  0  0  0  0
 22 23  1  0  0  0  0
 24 23  1  0  0  0  0
 25 24  1  0  0  0  0
 26 25  1  0  0  0  0
 27 26  1  1  0  0  0
 28 30  1  0  0  0  0
 28 29  1  0  0  0  0
 29 27  1  0  0  0  0
 30 31  1  0  0  0  0
 31 27  1  0  0  0  0
 31 34  1  6  0  0  0
 34 35  1  0  0  0  0
 35 32  1  0  0  0  0
 35 33  2  0  0  0  0
M  END
>  <MODEL>
2

>  <REMARK>
 VINA RESULT:      -7.5      2.013      2.642
  Name = 
  7 active torsions:
  status: ('A' for Active; 'I' for Inactive)
    1  A    between atoms: C_11  and  C_35
    2  A    between atoms: C_13  and  C_20
    3  A    between atoms: C_13  and  O_26
    4  A    between atoms: C_19  and  O_26
    5  A    between atoms: C_19  and  C_35
    6  A    between atoms: C_20  and  C_32
    7  A    between atoms: N_25  and  C_34
                            x       y       z     vdW  Elec       q    Type
                         _______ _______ _______ _____ _____    ______ ____

>  <TORSDO>
F 7

$$$$
=
 OpenBabel11062420063D

 35 40  0  0  1  0  0  0  0  0999 V2000
  190.5490  173.4700  141.0960 N   0  0  0  0  0  0  0  0  0  0  0  0
  190.0000  175.1820  144.4560 C   0  0  0  0  0  0  0  0  0  0  0  0
  185.9520  177.2300  146.7080 C   0  0  0  0  0  2  0  0  0  0  0  0
  188.0140  176.8460  145.3400 C   0  0  0  0  0  0  0  0  0  0  0  0
  189.0100  176.4840  146.2010 N   0  0  0  0  0  0  0  0  0  0  0  0
  188.5940  174.3940  140.0390 C   0  0  0  0  0  0  0  0  0  0  0  0
  187.7980  174.4950  138.9480 F   0  0  0  0  0  0  0  0  0  0  0  0
  188.2690  175.0920  141.2130 C   0  0  0  0  0  3  0  0  0  0  0  0
  184.9090  177.9600  144.1830 N   0  0  0  0  0  0  0  0  0  0  0  0
  184.5260  177.8220  146.6260 C   0  0  0  0  0  2  0  0  0  0  0  0
  189.7450  173.5830  140.0000 C   0  0  0  0  0  3  0  0  0  0  0  0
  187.9780  176.3970  144.0350 C   0  0  0  0  0  0  0  0  0  0  0  0
  186.8430  176.8590  143.3200 N   0  0  0  0  0  2  0  0  0  0  0  0
  190.2370  174.1500  142.2270 C   0  0  0  0  0  0  0  0  0  0  0  0
  186.8770  177.7620  145.6120 C   0  0  1  0  0  3  0  0  0  0  0  0
  184.2250  178.5780  145.3160 C   0  0  0  0  0  2  0  0  0  0  0  0
  186.1610  177.6470  144.2960 C   0  0  0  0  0  0  0  0  0  0  0  0
  189.1140  174.9610  142.3130 C   0  0  0  0  0  0  0  0  0  0  0  0
  188.9810  175.5490  143.5730 C   0  0  0  0  0  0  0  0  0  0  0  0
  190.0120  175.6490  145.7870 C   0  0  0  0  0  0  0  0  0  0  0  0
  191.0850  174.1310  143.6850 S   0  0  0  0  0  0  0  0  0  0  0  0
  191.0710  175.2350  146.7600 C   0  0  0  0  0  2  0  0  0  0  0  0
  192.1220  176.3230  146.9400 C   0  0  0  0  0  2  0  0  0  0  0  0
  193.0060  176.3380  145.8590 O   0  0  0  0  0  0  0  0  0  0  0  0
  194.2060  175.8550  146.3850 C   0  0  0  0  0  2  0  0  0  0  0  0
  194.5870  174.5570  145.6940 C   0  0  0  0  0  2  0  0  0  0  0  0
  196.0690  174.5460  145.3490 C   0  0  1  0  0  3  0  0  0  0  0  0
  197.1590  172.0370  145.2720 S   0  0  0  0  0  0  0  0  0  0  0  0
  196.8130  173.5480  146.2310 C   0  0  0  0  0  2  0  0  0  0  0  0
  196.8130  172.9250  143.7700 C   0  0  0  0  0  2  0  0  0  0  0  0
  196.2600  174.1130  143.9410 C   0  0  2  0  0  3  0  0  0  0  0  0
  196.0050  176.9530  141.3900 N   0  0  0  0  0  1  0  0  0  0  0  0
  197.5830  176.5870  143.0470 O   0  0  0  0  0  0  0  0  0  0  0  0
  195.8890  174.9730  142.8550 N   0  0  0  0  0  2  0  0  0  0  0  0
  196.5420  176.1870  142.4620 C   0  0  0  0  0  0  0  0  0  0  0  0
  1 14  1  0  0  0  0
  2 20  1  0  0  0  0
  4 15  1  0  0  0  0
  4  5  1  0  0  0  0
  6  8  2  0  0  0  0
  7  6  1  0  0  0  0
  8 18  1  0  0  0  0
  9 17  2  0  0  0  0
  9 16  1  0  0  0  0
 10  3  1  0  0  0  0
 11  6  1  0  0  0  0
 11  1  2  0  0  0  0
 12  4  2  0  0  0  0
 13 12  1  0  0  0  0
 13 17  1  0  0  0  0
 14 18  2  0  0  0  0
 14 21  1  0  0  0  0
 15  3  1  1  0  0  0
 16 10  1  0  0  0  0
 17 15  1  0  0  0  0
 18 19  1  0  0  0  0
 19 12  1  0  0  0  0
 19  2  2  0  0  0  0
 20  5  2  0  0  0  0
 20 22  1  0  0  0  0
 21  2  1  0  0  0  0
 22 23  1  0  0  0  0
 24 25  1  0  0  0  0
 24 23  1  0  0  0  0
 26 25  1  0  0  0  0
 27 26  1  1  0  0  0
 27 29  1  0  0  0  0
 28 29  1  0  0  0  0
 30 31  1  0  0  0  0
 30 28  1  0  0  0  0
 31 34  1  6  0  0  0
 31 27  1  0  0  0  0
 32 35  1  0  0  0  0
 35 34  1  0  0  0  0
 35 33  2  0  0  0  0
M  END
>  <MODEL>
3

>  <REMARK>
 VINA RESULT:      -7.3      1.820      2.219
  Name = 
  7 active torsions:
  status: ('A' for Active; 'I' for Inactive)
    1  A    between atoms: C_11  and  C_35
    2  A    between atoms: C_13  and  C_20
    3  A    between atoms: C_13  and  O_26
    4  A    between atoms: C_19  and  O_26
    5  A    between atoms: C_19  and  C_35
    6  A    between atoms: C_20  and  C_32
    7  A    between atoms: N_25  and  C_34
                            x       y       z     vdW  Elec       q    Type
                         _______ _______ _______ _____ _____    ______ ____

>  <TORSDO>
F 7

$$$$
=
 OpenBabel11062420063D

 35 40  0  0  1  0  0  0  0  0999 V2000
  185.6100  178.8140  146.1290 N   0  0  0  0  0  0  0  0  0  0  0  0
  188.5540  176.4170  145.7870 C   0  0  0  0  0  0  0  0  0  0  0  0
  190.8300  174.2300  141.8250 C   0  0  0  0  0  2  0  0  0  0  0  0
  189.3120  174.7570  143.7470 C   0  0  0  0  0  0  0  0  0  0  0  0
  190.0880  174.8290  144.8670 N   0  0  0  0  0  0  0  0  0  0  0  0
  184.6530  178.3180  143.9770 C   0  0  0  0  0  0  0  0  0  0  0  0
  183.6850  178.5360  143.0550 F   0  0  0  0  0  0  0  0  0  0  0  0
  185.6770  177.3940  143.7150 C   0  0  0  0  0  3  0  0  0  0  0  0
  188.3730  174.1920  140.4270 N   0  0  0  0  0  0  0  0  0  0  0  0
  190.8150  173.7900  140.3440 C   0  0  0  0  0  2  0  0  0  0  0  0
  184.6360  179.0220  145.1960 C   0  0  0  0  0  3  0  0  0  0  0  0
  188.1560  175.4980  143.6100 C   0  0  0  0  0  0  0  0  0  0  0  0
  187.5170  175.3060  142.3570 N   0  0  0  0  0  2  0  0  0  0  0  0
  186.5950  177.9170  145.8760 C   0  0  0  0  0  0  0  0  0  0  0  0
  189.5290  173.8960  142.5550 C   0  0  1  0  0  3  0  0  0  0  0  0
  189.4240  173.3840  139.8140 C   0  0  0  0  0  2  0  0  0  0  0  0
  188.3800  174.3690  141.7100 C   0  0  0  0  0  0  0  0  0  0  0  0
  186.6530  177.1990  144.6900 C   0  0  0  0  0  0  0  0  0  0  0  0
  187.7590  176.3480  144.6390 C   0  0  0  0  0  0  0  0  0  0  0  0
  189.7350  175.6560  145.9000 C   0  0  0  0  0  0  0  0  0  0  0  0
  187.8920  177.5290  146.8830 S   0  0  0  0  0  0  0  0  0  0  0  0
  190.6220  175.7470  147.1020 C   0  0  0  0  0  2  0  0  0  0  0  0
  192.0880  175.5650  146.7310 C   0  0  0  0  0  2  0  0  0  0  0  0
  192.5810  176.7040  146.0910 O   0  0  0  0  0  0  0  0  0  0  0  0
  193.9050  176.7990  146.5230 C   0  0  0  0  0  2  0  0  0  0  0  0
  194.7310  175.6820  145.9060 C   0  0  0  0  0  2  0  0  0  0  0  0
  194.7970  175.8340  144.3930 C   0  0  1  0  0  3  0  0  0  0  0  0
  197.2550  175.2610  143.3390 S   0  0  0  0  0  0  0  0  0  0  0  0
  196.1000  176.5130  143.9830 C   0  0  0  0  0  2  0  0  0  0  0  0
  195.9030  174.1170  143.1690 C   0  0  0  0  0  2  0  0  0  0  0  0
  194.7780  174.4960  143.7470 C   0  0  2  0  0  3  0  0  0  0  0  0
  192.0600  171.8890  144.4160 N   0  0  0  0  0  1  0  0  0  0  0  0
  194.0650  172.2550  145.5190 O   0  0  0  0  0  0  0  0  0  0  0  0
  193.5810  173.7060  143.7380 N   0  0  0  0  0  2  0  0  0  0  0  0
  193.2760  172.6020  144.6000 C   0  0  0  0  0  0  0  0  0  0  0  0
  2 20  1  0  0  0  0
  2 21  1  0  0  0  0
  4  5  1  0  0  0  0
  5 20  2  0  0  0  0
  6 11  1  0  0  0  0
  7  6  1  0  0  0  0
  8  6  2  0  0  0  0
  8 18  1  0  0  0  0
  9 17  2  0  0  0  0
 10  3  1  0  0  0  0
 11  1  2  0  0  0  0
 12  4  2  0  0  0  0
 12 19  1  0  0  0  0
 13 12  1  0  0  0  0
 14  1  1  0  0  0  0
 14 21  1  0  0  0  0
 15  3  1  6  0  0  0
 15  4  1  0  0  0  0
 16 10  1  0  0  0  0
 16  9  1  0  0  0  0
 17 13  1  0  0  0  0
 17 15  1  0  0  0  0
 18 14  2  0  0  0  0
 19 18  1  0  0  0  0
 19  2  2  0  0  0  0
 20 22  1  0  0  0  0
 23 22  1  0  0  0  0
 24 25  1  0  0  0  0
 24 23  1  0  0  0  0
 26 25  1  0  0  0  0
 27 26  1  1  0  0  0
 28 29  1  0  0  0  0
 29 27  1  0  0  0  0
 30 28  1  0  0  0  0
 30 31  1  0  0  0  0
 31 34  1  6  0  0  0
 31 27  1  0  0  0  0
 32 35  1  0  0  0  0
 34 35  1  0  0  0  0
 35 33  2  0  0  0  0
M  END
>  <MODEL>
4

>  <REMARK>
 VINA RESULT:      -7.1      2.352      4.992
  Name = 
  7 active torsions:
  status: ('A' for Active; 'I' for Inactive)
    1  A    between atoms: C_11  and  C_35
    2  A    between atoms: C_13  and  C_20
    3  A    between atoms: C_13  and  O_26
    4  A    between atoms: C_19  and  O_26
    5  A    between atoms: C_19  and  C_35
    6  A    between atoms: C_20  and  C_32
    7  A    between atoms: N_25  and  C_34
                            x       y       z     vdW  Elec       q    Type
                         _______ _______ _______ _____ _____    ______ ____

>  <TORSDO>
F 7

$$$$
=
 OpenBabel11062420063D

 35 40  0  0  1  0  0  0  0  0999 V2000
  185.2390  178.7830  145.5110 N   0  0  0  0  0  0  0  0  0  0  0  0
  188.2190  176.4110  145.6340 C   0  0  0  0  0  0  0  0  0  0  0  0
  191.1000  174.2410  142.0780 C   0  0  0  0  0  2  0  0  0  0  0  0
  189.2980  174.7560  143.7390 C   0  0  0  0  0  0  0  0  0  0  0  0
  189.8900  174.8340  144.9670 N   0  0  0  0  0  0  0  0  0  0  0  0
  184.6310  178.2790  143.2370 C   0  0  0  0  0  0  0  0  0  0  0  0
  183.8170  178.4890  142.1760 F   0  0  0  0  0  0  0  0  0  0  0  0
  185.6910  177.3640  143.1390 C   0  0  0  0  0  3  0  0  0  0  0  0
  188.8900  174.1820  140.3150 N   0  0  0  0  0  0  0  0  0  0  0  0
  191.3190  173.7990  140.6130 C   0  0  0  0  0  2  0  0  0  0  0  0
  184.4200  178.9830  144.4380 C   0  0  0  0  0  3  0  0  0  0  0  0
  188.1710  175.4870  143.4230 C   0  0  0  0  0  0  0  0  0  0  0  0
  187.7360  175.2890  142.0870 N   0  0  0  0  0  2  0  0  0  0  0  0
  186.2580  177.8940  145.4160 C   0  0  0  0  0  0  0  0  0  0  0  0
  189.7040  173.8960  142.5980 C   0  0  1  0  0  3  0  0  0  0  0  0
  190.0300  173.3830  139.8740 C   0  0  0  0  0  2  0  0  0  0  0  0
  188.6960  174.3600  141.5830 C   0  0  0  0  0  0  0  0  0  0  0  0
  186.5060  177.1770  144.2540 C   0  0  0  0  0  0  0  0  0  0  0  0
  187.6120  176.3340  144.3780 C   0  0  0  0  0  0  0  0  0  0  0  0
  189.3740  175.6580  145.9310 C   0  0  0  0  0  0  0  0  0  0  0  0
  187.3860  177.5170  146.6120 S   0  0  0  0  0  0  0  0  0  0  0  0
  190.0620  175.7570  147.2560 C   0  0  0  0  0  2  0  0  0  0  0  0
  191.5190  175.3210  147.1640 C   0  0  0  0  0  2  0  0  0  0  0  0
  192.3370  176.4010  146.8220 O   0  0  0  0  0  0  0  0  0  0  0  0
  193.5780  175.8230  146.5470 C   0  0  0  0  0  2  0  0  0  0  0  0
  193.4600  174.8900  145.3530 C   0  0  0  0  0  2  0  0  0  0  0  0
  194.4980  173.7810  145.4320 C   0  0  1  0  0  3  0  0  0  0  0  0
  193.9580  171.6540  143.7980 S   0  0  0  0  0  0  0  0  0  0  0  0
  193.8170  172.4160  145.4470 C   0  0  0  0  0  2  0  0  0  0  0  0
  195.2340  172.8220  143.3800 C   0  0  0  0  0  2  0  0  0  0  0  0
  195.3760  173.8190  144.2340 C   0  0  2  0  0  3  0  0  0  0  0  0
  197.2560  176.9780  143.1730 N   0  0  0  0  0  1  0  0  0  0  0  0
  195.0940  176.3050  142.6810 O   0  0  0  0  0  0  0  0  0  0  0  0
  196.3360  174.8710  144.0640 N   0  0  0  0  0  2  0  0  0  0  0  0
  196.1750  176.0590  143.2780 C   0  0  0  0  0  0  0  0  0  0  0  0
  2 20  1  0  0  0  0
  2 21  1  0  0  0  0
  4  5  1  0  0  0  0
  5 20  2  0  0  0  0
  6 11  1  0  0  0  0
  7  6  1  0  0  0  0
  8  6  2  0  0  0  0
  8 18  1  0  0  0  0
  9 17  2  0  0  0  0
 10  3  1  0  0  0  0
 11  1  2  0  0  0  0
 12  4  2  0  0  0  0
 12 19  1  0  0  0  0
 13 12  1  0  0  0  0
 14  1  1  0  0  0  0
 14 21  1  0  0  0  0
 15  3  1  6  0  0  0
 15  4  1  0  0  0  0
 16  9  1  0  0  0  0
 16 10  1  0  0  0  0
 17 13  1  0  0  0  0
 17 15  1  0  0  0  0
 18 19  1  0  0  0  0
 18 14  2  0  0  0  0
 19  2  2  0  0  0  0
 20 22  1  0  0  0  0
 23 22  1  0  0  0  0
 24 23  1  0  0  0  0
 25 24  1  0  0  0  0
 26 25  1  0  0  0  0
 27 26  1  6  0  0  0
 27 29  1  0  0  0  0
 28 29  1  0  0  0  0
 30 28  1  0  0  0  0
 30 31  1  0  0  0  0
 31 34  1  1  0  0  0
 31 27  1  0  0  0  0
 32 35  1  0  0  0  0
 33 35  2  0  0  0  0
 35 34  1  0  0  0  0
M  END
>  <MODEL>
5

>  <REMARK>
 VINA RESULT:      -7.0      2.397      4.957
  Name = 
  7 active torsions:
  status: ('A' for Active; 'I' for Inactive)
    1  A    between atoms: C_11  and  C_35
    2  A    between atoms: C_13  and  C_20
    3  A    between atoms: C_13  and  O_26
    4  A    between atoms: C_19  and  O_26
    5  A    between atoms: C_19  and  C_35
    6  A    between atoms: C_20  and  C_32
    7  A    between atoms: N_25  and  C_34
                            x       y       z     vdW  Elec       q    Type
                         _______ _______ _______ _____ _____    ______ ____

>  <TORSDO>
F 7

$$$$
=
 OpenBabel11062420063D

 35 40  0  0  1  0  0  0  0  0999 V2000
  196.8640  176.4420  143.3740 N   0  0  0  0  0  0  0  0  0  0  0  0
  193.3240  176.0030  144.7140 C   0  0  0  0  0  0  0  0  0  0  0  0
  189.3590  173.2130  143.2470 C   0  0  0  0  0  2  0  0  0  0  0  0
  191.0470  175.0400  143.5390 C   0  0  0  0  0  0  0  0  0  0  0  0
  191.0070  175.4230  144.8480 N   0  0  0  0  0  0  0  0  0  0  0  0
  196.3800  175.6340  141.1600 C   0  0  0  0  0  0  0  0  0  0  0  0
  196.8060  175.3360  139.9100 F   0  0  0  0  0  0  0  0  0  0  0  0
  195.0360  175.4250  141.5110 C   0  0  0  0  0  3  0  0  0  0  0  0
  190.1950  173.4300  140.5540 N   0  0  0  0  0  0  0  0  0  0  0  0
  188.6210  172.3950  142.1620 C   0  0  0  0  0  2  0  0  0  0  0  0
  197.2830  176.1460  142.1100 C   0  0  0  0  0  3  0  0  0  0  0  0
  192.2020  175.1230  142.7880 C   0  0  0  0  0  0  0  0  0  0  0  0
  192.0400  174.6430  141.4630 N   0  0  0  0  0  2  0  0  0  0  0  0
  195.5660  176.2460  143.7100 C   0  0  0  0  0  0  0  0  0  0  0  0
  189.9200  174.5320  142.7140 C   0  0  1  0  0  3  0  0  0  0  0  0
  188.8440  172.9010  140.7220 C   0  0  0  0  0  2  0  0  0  0  0  0
  190.6680  174.2460  141.4430 C   0  0  0  0  0  0  0  0  0  0  0  0
  194.6380  175.7440  142.8080 C   0  0  0  0  0  0  0  0  0  0  0  0
  193.3680  175.6100  143.3740 C   0  0  0  0  0  0  0  0  0  0  0  0
  192.1330  175.9020  145.4620 C   0  0  0  0  0  0  0  0  0  0  0  0
  194.8560  176.5310  145.2140 S   0  0  0  0  0  0  0  0  0  0  0  0
  192.0750  176.2790  146.9090 C   0  0  0  0  0  2  0  0  0  0  0  0
  190.6400  176.3220  147.4200 C   0  0  0  0  0  2  0  0  0  0  0  0
  190.0540  177.5590  147.1400 O   0  0  0  0  0  0  0  0  0  0  0  0
  188.6910  177.2790  147.0240 C   0  0  0  0  0  2  0  0  0  0  0  0
  188.2480  177.4600  145.5810 C   0  0  0  0  0  2  0  0  0  0  0  0
  186.7550  177.1970  145.4400 C   0  0  1  0  0  3  0  0  0  0  0  0
  185.2130  178.6990  147.1280 S   0  0  0  0  0  0  0  0  0  0  0  0
  186.0950  177.1360  146.8130 C   0  0  0  0  0  2  0  0  0  0  0  0
  185.3110  179.0900  145.3950 C   0  0  0  0  0  2  0  0  0  0  0  0
  186.1120  178.3090  144.6930 C   0  0  2  0  0  3  0  0  0  0  0  0
  185.8430  178.3200  140.8770 N   0  0  0  0  0  1  0  0  0  0  0  0
  184.2760  177.7060  142.4710 O   0  0  0  0  0  0  0  0  0  0  0  0
  186.3400  178.4740  143.2870 N   0  0  0  0  0  2  0  0  0  0  0  0
  185.4320  178.1450  142.2270 C   0  0  0  0  0  0  0  0  0  0  0  0
  1 14  1  0  0  0  0
  2 21  1  0  0  0  0
  2 20  1  0  0  0  0
  4  5  1  0  0  0  0
  5 20  2  0  0  0  0
  6  8  2  0  0  0  0
  6 11  1  0  0  0  0
  7  6  1  0  0  0  0
  8 18  1  0  0  0  0
  9 16  1  0  0  0  0
  9 17  2  0  0  0  0
 10  3  1  0  0  0  0
 11  1  2  0  0  0  0
 12 19  1  0  0  0  0
 12  4  2  0  0  0  0
 13 12  1  0  0  0  0
 14 21  1  0  0  0  0
 15  3  1  1  0  0  0
 15  4  1  0  0  0  0
 16 10  1  0  0  0  0
 17 13  1  0  0  0  0
 17 15  1  0  0  0  0
 18 19  1  0  0  0  0
 18 14  2  0  0  0  0
 19  2  2  0  0  0  0
 20 22  1  0  0  0  0
 22 23  1  0  0  0  0
 24 23  1  0  0  0  0
 25 24  1  0  0  0  0
 26 25  1  0  0  0  0
 27 26  1  1  0  0  0
 27 29  1  0  0  0  0
 29 28  1  0  0  0  0
 30 28  1  0  0  0  0
 31 34  1  6  0  0  0
 31 30  1  0  0  0  0
 31 27  1  0  0  0  0
 32 35  1  0  0  0  0
 35 33  2  0  0  0  0
 35 34  1  0  0  0  0
M  END
>  <MODEL>
6

>  <REMARK>
 VINA RESULT:      -7.0      2.990      6.892
  Name = 
  7 active torsions:
  status: ('A' for Active; 'I' for Inactive)
    1  A    between atoms: C_11  and  C_35
    2  A    between atoms: C_13  and  C_20
    3  A    between atoms: C_13  and  O_26
    4  A    between atoms: C_19  and  O_26
    5  A    between atoms: C_19  and  C_35
    6  A    between atoms: C_20  and  C_32
    7  A    between atoms: N_25  and  C_34
                            x       y       z     vdW  Elec       q    Type
                         _______ _______ _______ _____ _____    ______ ____

>  <TORSDO>
F 7

$$$$
=
 OpenBabel11062420063D

 35 40  0  0  1  0  0  0  0  0999 V2000
  185.8170  178.6790  146.2140 N   0  0  0  0  0  0  0  0  0  0  0  0
  188.8870  176.4430  145.9040 C   0  0  0  0  0  0  0  0  0  0  0  0
  191.2460  174.2790  141.9790 C   0  0  0  0  0  2  0  0  0  0  0  0
  189.7190  174.7730  143.9020 C   0  0  0  0  0  0  0  0  0  0  0  0
  190.5000  174.9190  145.0120 N   0  0  0  0  0  0  0  0  0  0  0  0
  184.8680  178.0720  144.0860 C   0  0  0  0  0  0  0  0  0  0  0  0
  183.8820  178.2100  143.1690 F   0  0  0  0  0  0  0  0  0  0  0  0
  185.9410  177.2000  143.8380 C   0  0  0  0  0  3  0  0  0  0  0  0
  188.7820  174.0650  140.6090 N   0  0  0  0  0  0  0  0  0  0  0  0
  191.2420  173.7970  140.5100 C   0  0  0  0  0  2  0  0  0  0  0  0
  184.8240  178.8070  145.2860 C   0  0  0  0  0  3  0  0  0  0  0  0
  188.5210  175.4440  143.7580 C   0  0  0  0  0  0  0  0  0  0  0  0
  187.8830  175.1810  142.5180 N   0  0  0  0  0  2  0  0  0  0  0  0
  186.8480  177.8330  145.9750 C   0  0  0  0  0  0  0  0  0  0  0  0
  189.9720  173.8930  142.7320 C   0  0  1  0  0  3  0  0  0  0  0  0
  189.8710  173.3000  140.0070 C   0  0  0  0  0  2  0  0  0  0  0  0
  188.7910  174.2770  141.8870 C   0  0  0  0  0  0  0  0  0  0  0  0
  186.9360  177.0870  144.8070 C   0  0  0  0  0  0  0  0  0  0  0  0
  188.0870  176.2980  144.7680 C   0  0  0  0  0  0  0  0  0  0  0  0
  190.1100  175.7520  146.0250 C   0  0  0  0  0  0  0  0  0  0  0  0
  188.1740  177.5460  146.9770 S   0  0  0  0  0  0  0  0  0  0  0  0
  191.0020  175.9260  147.2150 C   0  0  0  0  0  2  0  0  0  0  0  0
  192.4480  175.5780  146.8870 C   0  0  0  0  0  2  0  0  0  0  0  0
  193.2300  176.7330  146.8180 O   0  0  0  0  0  0  0  0  0  0  0  0
  193.9880  176.5700  145.6570 C   0  0  0  0  0  2  0  0  0  0  0  0
  194.4380  175.1240  145.5320 C   0  0  0  0  0  2  0  0  0  0  0  0
  194.7200  174.7720  144.0790 C   0  0  1  0  0  3  0  0  0  0  0  0
  196.5890  176.3860  142.9020 S   0  0  0  0  0  0  0  0  0  0  0  0
  194.8320  176.0390  143.2370 C   0  0  0  0  0  2  0  0  0  0  0  0
  196.9980  174.7240  143.3870 C   0  0  0  0  0  2  0  0  0  0  0  0
  196.0190  174.0580  143.9710 C   0  0  2  0  0  3  0  0  0  0  0  0
  196.8600  170.9120  145.9790 N   0  0  0  0  0  1  0  0  0  0  0  0
  197.1910  173.1430  146.5130 O   0  0  0  0  0  0  0  0  0  0  0  0
  196.1560  172.7130  144.4500 N   0  0  0  0  0  2  0  0  0  0  0  0
  196.7560  172.3000  145.6850 C   0  0  0  0  0  0  0  0  0  0  0  0
  2 20  1  0  0  0  0
  2 21  1  0  0  0  0
  4  5  1  0  0  0  0
  5 20  2  0  0  0  0
  6 11  1  0  0  0  0
  7  6  1  0  0  0  0
  8  6  2  0  0  0  0
  8 18  1  0  0  0  0
  9 17  2  0  0  0  0
 10  3  1  0  0  0  0
 11  1  2  0  0  0  0
 12  4  2  0  0  0  0
 12 19  1  0  0  0  0
 13 12  1  0  0  0  0
 14  1  1  0  0  0  0
 14 21  1  0  0  0  0
 15  3  1  6  0  0  0
 15  4  1  0  0  0  0
 16 10  1  0  0  0  0
 16  9  1  0  0  0  0
 17 13  1  0  0  0  0
 17 15  1  0  0  0  0
 18 14  2  0  0  0  0
 19 18  1  0  0  0  0
 19  2  2  0  0  0  0
 20 22  1  0  0  0  0
 23 22  1  0  0  0  0
 24 23  1  0  0  0  0
 25 24  1  0  0  0  0
 26 25  1  0  0  0  0
 27 26  1  1  0  0  0
 28 29  1  0  0  0  0
 28 30  1  0  0  0  0
 29 27  1  0  0  0  0
 30 31  1  0  0  0  0
 31 27  1  0  0  0  0
 31 34  1  6  0  0  0
 34 35  1  0  0  0  0
 35 32  1  0  0  0  0
 35 33  2  0  0  0  0
M  END
>  <MODEL>
7

>  <REMARK>
 VINA RESULT:      -6.9      2.805      5.364
  Name = 
  7 active torsions:
  status: ('A' for Active; 'I' for Inactive)
    1  A    between atoms: C_11  and  C_35
    2  A    between atoms: C_13  and  C_20
    3  A    between atoms: C_13  and  O_26
    4  A    between atoms: C_19  and  O_26
    5  A    between atoms: C_19  and  C_35
    6  A    between atoms: C_20  and  C_32
    7  A    between atoms: N_25  and  C_34
                            x       y       z     vdW  Elec       q    Type
                         _______ _______ _______ _____ _____    ______ ____

>  <TORSDO>
F 7

$$$$
=
 OpenBabel11062420063D

 35 40  0  0  1  0  0  0  0  0999 V2000
  188.5280  174.2140  140.2080 N   0  0  0  0  0  0  0  0  0  0  0  0
  190.4010  175.4480  143.2880 C   0  0  0  0  0  0  0  0  0  0  0  0
  194.8020  174.1640  145.4430 C   0  0  0  0  0  2  0  0  0  0  0  0
  192.3910  174.3030  144.7800 C   0  0  0  0  0  0  0  0  0  0  0  0
  191.9530  175.5550  145.1060 N   0  0  0  0  0  0  0  0  0  0  0  0
  189.6610  172.0940  140.0770 C   0  0  0  0  0  0  0  0  0  0  0  0
  189.8430  170.9080  139.4510 F   0  0  0  0  0  0  0  0  0  0  0  0
  190.4230  172.4120  141.2130 C   0  0  0  0  0  3  0  0  0  0  0  0
  194.4700  171.5020  144.5490 N   0  0  0  0  0  0  0  0  0  0  0  0
  195.9580  173.1560  145.6370 C   0  0  0  0  0  2  0  0  0  0  0  0
  188.7140  173.0130  139.5870 C   0  0  0  0  0  3  0  0  0  0  0  0
  191.8610  173.5970  143.7190 C   0  0  0  0  0  0  0  0  0  0  0  0
  192.4780  172.3340  143.5290 N   0  0  0  0  0  2  0  0  0  0  0  0
  189.2600  174.5170  141.3080 C   0  0  0  0  0  0  0  0  0  0  0  0
  193.4250  173.5000  145.4820 C   0  0  1  0  0  3  0  0  0  0  0  0
  195.5360  171.6760  145.5320 C   0  0  0  0  0  2  0  0  0  0  0  0
  193.4530  172.3040  144.5720 C   0  0  0  0  0  0  0  0  0  0  0  0
  190.2050  173.6440  141.8280 C   0  0  0  0  0  0  0  0  0  0  0  0
  190.8490  174.1680  142.9510 C   0  0  0  0  0  0  0  0  0  0  0  0
  190.9640  176.1530  144.3730 C   0  0  0  0  0  0  0  0  0  0  0  0
  189.1960  175.9440  142.2040 S   0  0  0  0  0  0  0  0  0  0  0  0
  190.5280  177.5400  144.7240 C   0  0  0  0  0  2  0  0  0  0  0  0
  189.2200  177.5350  145.5060 C   0  0  0  0  0  2  0  0  0  0  0  0
  189.2720  176.6090  146.5490 O   0  0  0  0  0  0  0  0  0  0  0  0
  187.9630  176.1380  146.6620 C   0  0  0  0  0  2  0  0  0  0  0  0
  187.1850  176.4690  145.3990 C   0  0  0  0  0  2  0  0  0  0  0  0
  185.7270  176.7590  145.7260 C   0  0  1  0  0  3  0  0  0  0  0  0
  185.3690  179.0200  147.2240 S   0  0  0  0  0  0  0  0  0  0  0  0
  185.5880  177.2120  147.1760 C   0  0  0  0  0  2  0  0  0  0  0  0
  184.9800  179.0080  145.4880 C   0  0  0  0  0  2  0  0  0  0  0  0
  185.2250  177.8660  144.8710 C   0  0  2  0  0  3  0  0  0  0  0  0
  185.4040  177.8940  141.0500 N   0  0  0  0  0  1  0  0  0  0  0  0
  186.8770  178.7750  142.6080 O   0  0  0  0  0  0  0  0  0  0  0  0
  184.9970  177.6620  143.4700 N   0  0  0  0  0  2  0  0  0  0  0  0
  185.8100  178.1410  142.3900 C   0  0  0  0  0  0  0  0  0  0  0  0
  1 14  1  0  0  0  0
  2 20  1  0  0  0  0
  3 10  1  0  0  0  0
  4  5  1  0  0  0  0
  4 15  1  0  0  0  0
  6  8  2  0  0  0  0
  7  6  1  0  0  0  0
  8 18  1  0  0  0  0
  9 17  2  0  0  0  0
  9 16  1  0  0  0  0
 11  6  1  0  0  0  0
 11  1  2  0  0  0  0
 12  4  2  0  0  0  0
 13 12  1  0  0  0  0
 13 17  1  0  0  0  0
 14 18  2  0  0  0  0
 14 21  1  0  0  0  0
 15  3  1  6  0  0  0
 16 10  1  0  0  0  0
 17 15  1  0  0  0  0
 18 19  1  0  0  0  0
 19  2  2  0  0  0  0
 19 12  1  0  0  0  0
 20 22  1  0  0  0  0
 20  5  2  0  0  0  0
 21  2  1  0  0  0  0
 22 23  1  0  0  0  0
 23 24  1  0  0  0  0
 24 25  1  0  0  0  0
 26 25  1  0  0  0  0
 27 26  1  6  0  0  0
 27 29  1  0  0  0  0
 29 28  1  0  0  0  0
 30 28  1  0  0  0  0
 31 34  1  1  0  0  0
 31 30  1  0  0  0  0
 31 27  1  0  0  0  0
 32 35  1  0  0  0  0
 35 33  2  0  0  0  0
 35 34  1  0  0  0  0
M  END
>  <MODEL>
8

>  <REMARK>
 VINA RESULT:      -6.9      2.683      7.123
  Name = 
  7 active torsions:
  status: ('A' for Active; 'I' for Inactive)
    1  A    between atoms: C_11  and  C_35
    2  A    between atoms: C_13  and  C_20
    3  A    between atoms: C_13  and  O_26
    4  A    between atoms: C_19  and  O_26
    5  A    between atoms: C_19  and  C_35
    6  A    between atoms: C_20  and  C_32
    7  A    between atoms: N_25  and  C_34
                            x       y       z     vdW  Elec       q    Type
                         _______ _______ _______ _____ _____    ______ ____

>  <TORSDO>
F 7

$$$$
=
 OpenBabel11062420063D

 35 40  0  0  1  0  0  0  0  0999 V2000
  181.3350  178.4100  140.1750 N   0  0  0  0  0  0  0  0  0  0  0  0
  184.8690  177.8760  141.4960 C   0  0  0  0  0  0  0  0  0  0  0  0
  186.7780  177.0200  146.1100 C   0  0  0  0  0  2  0  0  0  0  0  0
  185.9150  178.0920  144.0160 C   0  0  0  0  0  0  0  0  0  0  0  0
  186.7250  177.6930  142.9930 N   0  0  0  0  0  0  0  0  0  0  0  0
  180.3840  179.0390  142.2950 C   0  0  0  0  0  0  0  0  0  0  0  0
  179.3050  179.4140  143.0220 F   0  0  0  0  0  0  0  0  0  0  0  0
  181.6330  178.8880  142.9190 C   0  0  0  0  0  3  0  0  0  0  0  0
  184.6930  178.5440  147.2610 N   0  0  0  0  0  0  0  0  0  0  0  0
  186.6390  177.0620  147.6480 C   0  0  0  0  0  2  0  0  0  0  0  0
  180.2540  178.7950  140.9150 C   0  0  0  0  0  3  0  0  0  0  0  0
  184.5810  178.3890  143.8190 C   0  0  0  0  0  0  0  0  0  0  0  0
  183.9080  178.7480  145.0150 N   0  0  0  0  0  2  0  0  0  0  0  0
  182.5410  178.2700  140.7780 C   0  0  0  0  0  0  0  0  0  0  0  0
  186.2960  178.3060  145.4360 C   0  0  1  0  0  3  0  0  0  0  0  0
  185.7850  178.2320  148.1790 C   0  0  0  0  0  2  0  0  0  0  0  0
  184.9430  178.6510  145.9940 C   0  0  0  0  0  0  0  0  0  0  0  0
  182.7180  178.5010  142.1350 C   0  0  0  0  0  0  0  0  0  0  0  0
  184.0360  178.2820  142.5420 C   0  0  0  0  0  0  0  0  0  0  0  0
  186.2270  177.5710  141.7250 C   0  0  0  0  0  0  0  0  0  0  0  0
  183.9850  177.7910  140.0510 S   0  0  0  0  0  0  0  0  0  0  0  0
  187.1250  177.0950  140.6270 C   0  0  0  0  0  2  0  0  0  0  0  0
  188.1110  176.0450  141.1250 C   0  0  0  0  0  2  0  0  0  0  0  0
  188.1560  174.9560  140.2520 O   0  0  0  0  0  0  0  0  0  0  0  0
  188.2630  173.8440  141.0890 C   0  0  0  0  0  2  0  0  0  0  0  0
  189.5880  173.8830  141.8330 C   0  0  0  0  0  2  0  0  0  0  0  0
  189.4260  173.3520  143.2490 C   0  0  1  0  0  3  0  0  0  0  0  0
  191.5870  171.9310  144.1420 S   0  0  0  0  0  0  0  0  0  0  0  0
  189.9490  171.9220  143.3430 C   0  0  0  0  0  2  0  0  0  0  0  0
  191.2810  173.5840  144.7240 C   0  0  0  0  0  2  0  0  0  0  0  0
  190.2240  174.1730  144.1950 C   0  0  2  0  0  3  0  0  0  0  0  0
  189.9080  177.9740  144.4930 N   0  0  0  0  0  1  0  0  0  0  0  0
  191.3190  176.7050  143.1630 O   0  0  0  0  0  0  0  0  0  0  0  0
  189.8210  175.5110  144.5210 N   0  0  0  0  0  2  0  0  0  0  0  0
  190.3950  176.7250  144.0180 C   0  0  0  0  0  0  0  0  0  0  0  0
  1 14  2  0  0  0  0
  1 11  1  0  0  0  0
  2 20  2  0  0  0  0
  2 19  1  0  0  0  0
  3 10  1  0  0  0  0
  4 15  1  0  0  0  0
  5  4  2  0  0  0  0
  6  8  1  0  0  0  0
  6  7  1  0  0  0  0
  9 16  1  0  0  0  0
 10 16  1  0  0  0  0
 11  6  2  0  0  0  0
 12  4  1  0  0  0  0
 12 13  1  0  0  0  0
 13 17  1  0  0  0  0
 14 18  1  0  0  0  0
 15 17  1  0  0  0  0
 15  3  1  1  0  0  0
 17  9  2  0  0  0  0
 18 19  1  0  0  0  0
 18  8  2  0  0  0  0
 19 12  2  0  0  0  0
 20  5  1  0  0  0  0
 21 14  1  0  0  0  0
 21  2  1  0  0  0  0
 22 23  1  0  0  0  0
 22 20  1  0  0  0  0
 24 25  1  0  0  0  0
 24 23  1  0  0  0  0
 25 26  1  0  0  0  0
 27 26  1  6  0  0  0
 27 29  1  0  0  0  0
 27 31  1  0  0  0  0
 28 30  1  0  0  0  0
 29 28  1  0  0  0  0
 31 34  1  1  0  0  0
 31 30  1  0  0  0  0
 33 35  2  0  0  0  0
 35 32  1  0  0  0  0
 35 34  1  0  0  0  0
M  END
>  <MODEL>
9

>  <REMARK>
 VINA RESULT:      -6.9      3.474      6.183
  Name = 
  7 active torsions:
  status: ('A' for Active; 'I' for Inactive)
    1  A    between atoms: C_11  and  C_35
    2  A    between atoms: C_13  and  C_20
    3  A    between atoms: C_13  and  O_26
    4  A    between atoms: C_19  and  O_26
    5  A    between atoms: C_19  and  C_35
    6  A    between atoms: C_20  and  C_32
    7  A    between atoms: N_25  and  C_34
                            x       y       z     vdW  Elec       q    Type
                         _______ _______ _______ _____ _____    ______ ____

>  <TORSDO>
F 7

$$$$
