=
 OpenBabel11062419323D

 40 42  0  0  1  0  0  0  0  0999 V2000
  190.6150  172.5240  141.8200 O   0  0  0  0  0  1  0  0  0  0  0  0
  188.3680  175.0530  141.0040 C   0  0  0  0  0  0  0  0  0  0  0  0
  190.5390  174.6990  142.8290 C   0  0  1  0  0  3  0  0  0  0  0  0
  190.4040  176.2040  142.6110 C   0  0  0  0  0  2  0  0  0  0  0  0
  190.4620  173.8830  141.5240 C   0  0  2  0  0  3  0  0  0  0  0  0
  189.1870  174.0710  140.7360 C   0  0  0  0  0  0  0  0  0  0  0  0
  187.9260  176.9950  142.4920 C   0  0  2  0  0  3  0  0  0  0  0  0
  188.9040  173.2210  139.6700 O   0  0  0  0  0  1  0  0  0  0  0  0
  187.6310  176.0810  141.3230 C   0  0  0  0  0  3  0  0  0  0  0  0
  189.1680  176.6880  143.3690 C   0  0  2  0  0  3  0  0  0  0  0  0
  186.7080  177.1010  143.4110 C   0  0  2  0  0  3  0  0  0  0  0  0
  186.0000  175.8960  143.4720 O   0  0  0  0  0  1  0  0  0  0  0  0
  185.8010  178.2870  143.0840 C   0  0  2  0  0  3  0  0  0  0  0  0
  185.8300  179.2730  144.2060 C   0  0  0  0  0  0  0  0  0  0  0  0
  185.4660  180.4640  144.0090 O   0  0  0  0  0  0  0  0  0  0  0  0
  186.2470  178.8600  145.4710 O   0  0  0  0  0  0  0  0  0  0  0  0
  185.3930  178.9240  146.6060 C   0  0  1  0  0  3  0  0  0  0  0  0
  184.0180  178.4030  146.2390 C   0  0  0  0  0  1  0  0  0  0  0  0
  185.9700  178.1550  147.7950 C   0  0  2  0  0  3  0  0  0  0  0  0
  186.9890  178.8960  148.3880 O   0  0  0  0  0  1  0  0  0  0  0  0
  186.5010  176.7860  147.3920 C   0  0  0  0  0  1  0  0  0  0  0  0
  184.4870  177.8650  142.8490 O   0  0  0  0  0  0  0  0  0  0  0  0
  184.1210  178.4600  141.6410 C   0  0  0  0  0  2  0  0  0  0  0  0
  184.8330  177.8700  140.5940 O   0  0  0  0  0  1  0  0  0  0  0  0
  191.8300  174.4180  143.5920 C   0  0  0  0  0  2  0  0  0  0  0  0
  191.5240  173.8410  144.8920 N   0  0  0  0  0  2  0  0  0  0  0  0
  192.7560  173.8510  145.6710 C   0  0  1  0  0  3  0  0  0  0  0  0
  193.8790  173.1370  144.9020 C   0  0  1  0  0  3  0  0  0  0  0  0
  194.6080  177.5520  145.8850 S   0  0  0  0  0  1  0  0  0  0  0  0
  197.2700  174.1250  144.4690 C   0  0  0  0  0  2  0  0  0  0  0  0
  196.5060  175.2910  144.6100 O   0  0  0  0  0  0  0  0  0  0  0  0
  195.2520  173.4700  145.5080 C   0  0  2  0  0  3  0  0  0  0  0  0
  195.5290  174.9790  145.5700 C   0  0  2  0  0  3  0  0  0  0  0  0
  193.0980  175.2840  146.1100 C   0  0  0  0  0  2  0  0  0  0  0  0
  194.2900  175.8470  145.3470 C   0  0  1  0  0  3  0  0  0  0  0  0
  193.6380  171.6320  144.9370 C   0  0  0  0  0  1  0  0  0  0  0  0
  196.3640  172.9350  144.6520 C   0  0  0  0  0  2  0  0  0  0  0  0
  189.5020  177.8250  144.1170 O   0  0  0  0  0  0  0  0  0  0  0  0
  189.7020  177.5100  146.3630 O   0  0  0  0  0  1  0  0  0  0  0  0
  190.3400  177.3680  145.1330 C   0  0  0  0  0  2  0  0  0  0  0  0
  2  9  2  0  0  0  0
  3 25  1  6  0  0  0
  4  3  1  0  0  0  0
  4 10  1  0  0  0  0
  5  1  1  1  0  0  0
  5  3  1  0  0  0  0
  6  2  2  0  0  0  0
  6  5  1  0  0  0  0
  7 10  1  0  0  0  0
  7 11  1  1  0  0  0
  8  6  1  0  0  0  0
  9  7  1  0  0  0  0
 10 38  1  6  0  0  0
 11 12  1  6  0  0  0
 13 22  1  1  0  0  0
 13 11  1  0  0  0  0
 13 14  1  0  0  0  0
 14 16  1  0  0  0  0
 15 14  2  0  0  0  0
 16 17  1  0  0  0  0
 17 18  1  6  0  0  0
 17 19  1  0  0  0  0
 19 21  1  6  0  0  0
 19 20  1  0  0  0  0
 23 22  1  0  0  0  0
 24 23  1  0  0  0  0
 25 26  1  0  0  0  0
 27 26  1  6  0  0  0
 27 34  1  0  0  0  0
 28 36  1  1  0  0  0
 28 32  1  0  0  0  0
 28 27  1  0  0  0  0
 30 31  1  0  0  0  0
 30 37  1  0  0  0  0
 32 37  1  6  0  0  0
 32 33  1  0  0  0  0
 33 31  1  6  0  0  0
 35 33  1  0  0  0  0
 35 29  1  1  0  0  0
 35 34  1  0  0  0  0
 38 40  1  0  0  0  0
 40 39  1  0  0  0  0
M  END
>  <MODEL>
1

>  <REMARK>
 VINA RESULT:      -7.2      0.000      0.000
  Name = 
  13 active torsions:
  status: ('A' for Active; 'I' for Inactive)
    1  A    between atoms: C_1  and  C_2
    2  A    between atoms: C_1  and  O_26
    3  A    between atoms: C_2  and  C_6
    4  A    between atoms: C_2  and  O_37
    5  A    between atoms: C_4  and  C_14
    6  A    between atoms: C_5  and  N_16
    7  A    between atoms: C_6  and  C_32
    8  A    between atoms: C_8  and  N_16
    9  A    between atoms: C_8  and  C_18
   10  A    between atoms: C_11  and  O_37
   11  A    between atoms: C_14  and  O_26
   12  A    between atoms: C_20  and  O_34
   13  A    between atoms: O_34  and  C_40
                            x       y       z     vdW  Elec       q    Type
                         _______ _______ _______ _____ _____    ______ ____

>  <TORSDO>
F 13

$$$$
=
 OpenBabel11062419323D

 40 42  0  0  1  0  0  0  0  0999 V2000
  189.0580  174.1010  139.7620 O   0  0  0  0  0  1  0  0  0  0  0  0
  192.2150  173.5710  141.1300 C   0  0  0  0  0  0  0  0  0  0  0  0
  189.7950  174.8800  141.9080 C   0  0  1  0  0  3  0  0  0  0  0  0
  190.5380  174.5500  143.2010 C   0  0  0  0  0  2  0  0  0  0  0  0
  189.7750  173.7140  140.9010 C   0  0  2  0  0  3  0  0  0  0  0  0
  191.1380  173.2230  140.4760 C   0  0  0  0  0  0  0  0  0  0  0  0
  193.1090  174.9220  143.0170 C   0  0  2  0  0  3  0  0  0  0  0  0
  191.2510  172.3390  139.4060 O   0  0  0  0  0  1  0  0  0  0  0  0
  193.2240  173.9470  141.8650 C   0  0  0  0  0  3  0  0  0  0  0  0
  191.7130  175.5180  143.3370 C   0  0  2  0  0  3  0  0  0  0  0  0
  194.0930  176.0780  142.8410 C   0  0  2  0  0  3  0  0  0  0  0  0
  194.2960  176.3840  141.4920 O   0  0  0  0  0  1  0  0  0  0  0  0
  195.4090  175.8760  143.5910 C   0  0  2  0  0  3  0  0  0  0  0  0
  195.1590  175.8610  145.0640 C   0  0  0  0  0  0  0  0  0  0  0  0
  194.8870  176.9330  145.6700 O   0  0  0  0  0  0  0  0  0  0  0  0
  195.2140  174.6510  145.7560 O   0  0  0  0  0  0  0  0  0  0  0  0
  196.0400  173.5750  145.3300 C   0  0  1  0  0  3  0  0  0  0  0  0
  197.1960  173.4060  146.2950 C   0  0  0  0  0  1  0  0  0  0  0  0
  195.2480  172.2730  145.1900 C   0  0  2  0  0  3  0  0  0  0  0  0
  194.0130  172.4020  145.8190 O   0  0  0  0  0  1  0  0  0  0  0  0
  195.9960  171.0800  145.7680 C   0  0  0  0  0  1  0  0  0  0  0  0
  196.3300  176.8810  143.2710 O   0  0  0  0  0  0  0  0  0  0  0  0
  197.5630  176.2340  143.1790 C   0  0  0  0  0  2  0  0  0  0  0  0
  197.5160  175.2800  142.1600 O   0  0  0  0  0  1  0  0  0  0  0  0
  188.3850  175.3520  142.2490 C   0  0  0  0  0  2  0  0  0  0  0  0
  188.4330  176.3170  143.3370 N   0  0  0  0  0  2  0  0  0  0  0  0
  187.2290  176.1290  144.1370 C   0  0  1  0  0  3  0  0  0  0  0  0
  187.3910  176.8010  145.5100 C   0  0  1  0  0  3  0  0  0  0  0  0
  183.9820  178.3810  142.8870 S   0  0  0  0  0  1  0  0  0  0  0  0
  185.0680  178.8170  147.2990 C   0  0  0  0  0  2  0  0  0  0  0  0
  184.8130  178.9930  145.9320 O   0  0  0  0  0  0  0  0  0  0  0  0
  186.0290  176.9570  146.2040 C   0  0  2  0  0  3  0  0  0  0  0  0
  185.0070  177.7270  145.3540 C   0  0  2  0  0  3  0  0  0  0  0  0
  185.9890  176.5820  143.3500 C   0  0  0  0  0  2  0  0  0  0  0  0
  185.4140  177.8850  143.8890 C   0  0  1  0  0  3  0  0  0  0  0  0
  188.3310  175.9670  146.3720 C   0  0  0  0  0  1  0  0  0  0  0  0
  186.1510  177.7810  147.4540 C   0  0  0  0  0  2  0  0  0  0  0  0
  191.7210  176.0530  144.6320 O   0  0  0  0  0  0  0  0  0  0  0  0
  191.9850  175.3390  146.7780 O   0  0  0  0  0  1  0  0  0  0  0  0
  191.6250  174.9570  145.4870 C   0  0  0  0  0  2  0  0  0  0  0  0
  2  9  2  0  0  0  0
  3 25  1  1  0  0  0
  3  4  1  0  0  0  0
  4 10  1  0  0  0  0
  5  1  1  6  0  0  0
  5  3  1  0  0  0  0
  6  5  1  0  0  0  0
  6  2  2  0  0  0  0
  7 11  1  6  0  0  0
  7 10  1  0  0  0  0
  8  6  1  0  0  0  0
  9  7  1  0  0  0  0
 10 38  1  1  0  0  0
 11 12  1  6  0  0  0
 11 13  1  0  0  0  0
 13 22  1  1  0  0  0
 13 14  1  0  0  0  0
 14 15  2  0  0  0  0
 14 16  1  0  0  0  0
 17 16  1  0  0  0  0
 17 18  1  1  0  0  0
 19 17  1  0  0  0  0
 19 21  1  1  0  0  0
 19 20  1  0  0  0  0
 23 22  1  0  0  0  0
 24 23  1  0  0  0  0
 25 26  1  0  0  0  0
 27 26  1  6  0  0  0
 27 28  1  0  0  0  0
 28 32  1  0  0  0  0
 28 36  1  1  0  0  0
 30 37  1  0  0  0  0
 31 30  1  0  0  0  0
 32 37  1  1  0  0  0
 33 31  1  1  0  0  0
 33 32  1  0  0  0  0
 34 35  1  0  0  0  0
 34 27  1  0  0  0  0
 35 29  1  6  0  0  0
 35 33  1  0  0  0  0
 38 40  1  0  0  0  0
 40 39  1  0  0  0  0
M  END
>  <MODEL>
2

>  <REMARK>
 VINA RESULT:      -7.1      2.745      8.648
  Name = 
  13 active torsions:
  status: ('A' for Active; 'I' for Inactive)
    1  A    between atoms: C_1  and  C_2
    2  A    between atoms: C_1  and  O_26
    3  A    between atoms: C_2  and  C_6
    4  A    between atoms: C_2  and  O_37
    5  A    between atoms: C_4  and  C_14
    6  A    between atoms: C_5  and  N_16
    7  A    between atoms: C_6  and  C_32
    8  A    between atoms: C_8  and  N_16
    9  A    between atoms: C_8  and  C_18
   10  A    between atoms: C_11  and  O_37
   11  A    between atoms: C_14  and  O_26
   12  A    between atoms: C_20  and  O_34
   13  A    between atoms: O_34  and  C_40
                            x       y       z     vdW  Elec       q    Type
                         _______ _______ _______ _____ _____    ______ ____

>  <TORSDO>
F 13

$$$$
=
 OpenBabel11062419323D

 40 42  0  0  1  0  0  0  0  0999 V2000
  191.2680  172.5430  142.5510 O   0  0  0  0  0  1  0  0  0  0  0  0
  188.8840  174.6670  141.1660 C   0  0  0  0  0  0  0  0  0  0  0  0
  190.9550  174.8500  143.1290 C   0  0  1  0  0  3  0  0  0  0  0  0
  190.7140  176.2720  142.6260 C   0  0  0  0  0  2  0  0  0  0  0  0
  191.0270  173.8070  141.9980 C   0  0  2  0  0  3  0  0  0  0  0  0
  189.7950  173.7310  141.1280 C   0  0  0  0  0  0  0  0  0  0  0  0
  188.1940  176.8010  142.2410 C   0  0  2  0  0  3  0  0  0  0  0  0
  189.6490  172.6790  140.2270 O   0  0  0  0  0  1  0  0  0  0  0  0
  188.0490  175.6660  141.2510 C   0  0  0  0  0  3  0  0  0  0  0  0
  189.3970  176.7730  143.2190 C   0  0  2  0  0  3  0  0  0  0  0  0
  186.9150  176.9630  143.0630 C   0  0  2  0  0  3  0  0  0  0  0  0
  186.1050  175.8240  142.9890 O   0  0  0  0  0  1  0  0  0  0  0  0
  186.1420  178.2410  142.7410 C   0  0  2  0  0  3  0  0  0  0  0  0
  186.0270  179.0880  143.9660 C   0  0  0  0  0  0  0  0  0  0  0  0
  185.4480  180.2070  143.9080 O   0  0  0  0  0  0  0  0  0  0  0  0
  186.5520  178.6240  145.1720 O   0  0  0  0  0  0  0  0  0  0  0  0
  185.7480  178.4680  146.3350 C   0  0  1  0  0  3  0  0  0  0  0  0
  184.7350  177.3630  146.1100 C   0  0  0  0  0  1  0  0  0  0  0  0
  186.5950  178.1890  147.5770 C   0  0  2  0  0  3  0  0  0  0  0  0
  185.9840  177.2100  148.3560 O   0  0  0  0  0  1  0  0  0  0  0  0
  186.8200  179.4420  148.4130 C   0  0  0  0  0  1  0  0  0  0  0  0
  184.8680  177.9470  142.2390 O   0  0  0  0  0  0  0  0  0  0  0  0
  184.8930  178.3610  140.9070 C   0  0  0  0  0  2  0  0  0  0  0  0
  183.6640  178.0820  140.3060 O   0  0  0  0  0  1  0  0  0  0  0  0
  192.2110  174.8320  143.9930 C   0  0  0  0  0  2  0  0  0  0  0  0
  192.8210  176.1520  144.0140 N   0  0  0  0  0  2  0  0  0  0  0  0
  194.2650  175.9650  143.9650 C   0  0  1  0  0  3  0  0  0  0  0  0
  194.7380  175.1490  145.1800 C   0  0  1  0  0  3  0  0  0  0  0  0
  195.5390  173.2860  141.0710 S   0  0  0  0  0  1  0  0  0  0  0  0
  197.0560  172.4510  145.2950 C   0  0  0  0  0  2  0  0  0  0  0  0
  196.4430  172.4270  144.0350 O   0  0  0  0  0  0  0  0  0  0  0  0
  196.1600  174.6120  144.9540 C   0  0  2  0  0  3  0  0  0  0  0  0
  196.2880  173.7750  143.6720 C   0  0  2  0  0  3  0  0  0  0  0  0
  194.6810  175.3800  142.6060 C   0  0  0  0  0  2  0  0  0  0  0  0
  195.1040  173.9210  142.7160 C   0  0  1  0  0  3  0  0  0  0  0  0
  194.6970  176.0280  146.4250 C   0  0  0  0  0  1  0  0  0  0  0  0
  196.5560  173.6590  146.0460 C   0  0  0  0  0  2  0  0  0  0  0  0
  189.5910  178.0530  143.7550 O   0  0  0  0  0  0  0  0  0  0  0  0
  189.2430  176.8490  145.6570 O   0  0  0  0  0  1  0  0  0  0  0  0
  190.0180  177.8450  145.0660 C   0  0  0  0  0  2  0  0  0  0  0  0
  2  9  2  0  0  0  0
  3 25  1  6  0  0  0
  4  3  1  0  0  0  0
  4 10  1  0  0  0  0
  5  1  1  1  0  0  0
  5  3  1  0  0  0  0
  6  2  2  0  0  0  0
  6  5  1  0  0  0  0
  7 11  1  1  0  0  0
  7 10  1  0  0  0  0
  8  6  1  0  0  0  0
  9  7  1  0  0  0  0
 10 38  1  6  0  0  0
 11 12  1  6  0  0  0
 13 22  1  1  0  0  0
 13 11  1  0  0  0  0
 13 14  1  0  0  0  0
 14 16  1  0  0  0  0
 15 14  2  0  0  0  0
 16 17  1  0  0  0  0
 17 18  1  6  0  0  0
 17 19  1  0  0  0  0
 19 20  1  0  0  0  0
 19 21  1  1  0  0  0
 23 22  1  0  0  0  0
 24 23  1  0  0  0  0
 25 26  1  0  0  0  0
 27 26  1  6  0  0  0
 27 28  1  0  0  0  0
 28 36  1  1  0  0  0
 30 37  1  0  0  0  0
 31 30  1  0  0  0  0
 32 28  1  0  0  0  0
 32 37  1  1  0  0  0
 33 31  1  1  0  0  0
 33 32  1  0  0  0  0
 34 35  1  0  0  0  0
 34 27  1  0  0  0  0
 35 29  1  6  0  0  0
 35 33  1  0  0  0  0
 38 40  1  0  0  0  0
 40 39  1  0  0  0  0
M  END
>  <MODEL>
3

>  <REMARK>
 VINA RESULT:      -6.9      1.650      2.010
  Name = 
  13 active torsions:
  status: ('A' for Active; 'I' for Inactive)
    1  A    between atoms: C_1  and  C_2
    2  A    between atoms: C_1  and  O_26
    3  A    between atoms: C_2  and  C_6
    4  A    between atoms: C_2  and  O_37
    5  A    between atoms: C_4  and  C_14
    6  A    between atoms: C_5  and  N_16
    7  A    between atoms: C_6  and  C_32
    8  A    between atoms: C_8  and  N_16
    9  A    between atoms: C_8  and  C_18
   10  A    between atoms: C_11  and  O_37
   11  A    between atoms: C_14  and  O_26
   12  A    between atoms: C_20  and  O_34
   13  A    between atoms: O_34  and  C_40
                            x       y       z     vdW  Elec       q    Type
                         _______ _______ _______ _____ _____    ______ ____

>  <TORSDO>
F 13

$$$$
=
 OpenBabel11062419323D

 40 42  0  0  1  0  0  0  0  0999 V2000
  189.9540  171.7570  141.6110 O   0  0  0  0  0  1  0  0  0  0  0  0
  188.7130  174.9600  141.0540 C   0  0  0  0  0  0  0  0  0  0  0  0
  189.9480  173.5450  143.2100 C   0  0  1  0  0  3  0  0  0  0  0  0
  190.2040  175.0280  143.4690 C   0  0  0  0  0  2  0  0  0  0  0  0
  190.1940  173.1290  141.7470 C   0  0  2  0  0  3  0  0  0  0  0  0
  189.3610  173.8730  140.7300 C   0  0  0  0  0  0  0  0  0  0  0  0
  188.1520  176.5280  142.9020 C   0  0  2  0  0  3  0  0  0  0  0  0
  189.3250  173.4290  139.4110 O   0  0  0  0  0  1  0  0  0  0  0  0
  188.1310  176.0530  141.4650 C   0  0  0  0  0  3  0  0  0  0  0  0
  188.8990  175.6620  143.9500 C   0  0  2  0  0  3  0  0  0  0  0  0
  186.7300  176.7690  143.4080 C   0  0  2  0  0  3  0  0  0  0  0  0
  185.9000  175.6700  143.1610 O   0  0  0  0  0  1  0  0  0  0  0  0
  186.1190  178.0770  142.9070 C   0  0  2  0  0  3  0  0  0  0  0  0
  186.0140  179.0530  144.0330 C   0  0  0  0  0  0  0  0  0  0  0  0
  185.6360  180.2350  143.8110 O   0  0  0  0  0  0  0  0  0  0  0  0
  186.3250  178.6410  145.3290 O   0  0  0  0  0  0  0  0  0  0  0  0
  185.4640  178.9020  146.4310 C   0  0  1  0  0  3  0  0  0  0  0  0
  184.0460  178.5020  146.0760 C   0  0  0  0  0  1  0  0  0  0  0  0
  185.9330  178.1870  147.6990 C   0  0  2  0  0  3  0  0  0  0  0  0
  186.8900  178.9620  148.3510 O   0  0  0  0  0  1  0  0  0  0  0  0
  186.5050  176.8070  147.4040 C   0  0  0  0  0  1  0  0  0  0  0  0
  184.8560  177.8590  142.3420 O   0  0  0  0  0  0  0  0  0  0  0  0
  184.9110  178.4530  141.0810 C   0  0  0  0  0  2  0  0  0  0  0  0
  185.5680  177.6020  140.1890 O   0  0  0  0  0  1  0  0  0  0  0  0
  190.7860  172.7170  144.1790 C   0  0  0  0  0  2  0  0  0  0  0  0
  191.8010  173.5530  144.8000 N   0  0  0  0  0  2  0  0  0  0  0  0
  193.0860  173.1720  144.2280 C   0  0  1  0  0  3  0  0  0  0  0  0
  194.1600  174.2110  144.5910 C   0  0  1  0  0  3  0  0  0  0  0  0
  194.8950  169.9470  146.1000 S   0  0  0  0  0  1  0  0  0  0  0  0
  197.4950  173.6790  145.7130 C   0  0  0  0  0  2  0  0  0  0  0  0
  196.7260  172.5900  146.1450 O   0  0  0  0  0  0  0  0  0  0  0  0
  195.5680  173.6470  144.3450 C   0  0  2  0  0  3  0  0  0  0  0  0
  195.8270  172.3320  145.0960 C   0  0  2  0  0  3  0  0  0  0  0  0
  193.4390  171.7300  144.6230 C   0  0  0  0  0  2  0  0  0  0  0  0
  194.5630  171.6750  145.6490 C   0  0  1  0  0  3  0  0  0  0  0  0
  193.9430  175.4720  143.7630 C   0  0  0  0  0  1  0  0  0  0  0  0
  196.6230  174.5770  144.8740 C   0  0  0  0  0  2  0  0  0  0  0  0
  189.1550  176.4330  145.0920 O   0  0  0  0  0  0  0  0  0  0  0  0
  190.4030  178.2880  144.6620 O   0  0  0  0  0  1  0  0  0  0  0  0
  190.4500  176.9210  144.9280 C   0  0  0  0  0  2  0  0  0  0  0  0
  2  9  2  0  0  0  0
  3  4  1  0  0  0  0
  3 25  1  1  0  0  0
  4 10  1  0  0  0  0
  5  1  1  1  0  0  0
  5  3  1  0  0  0  0
  6  2  2  0  0  0  0
  6  5  1  0  0  0  0
  7 11  1  1  0  0  0
  7 10  1  0  0  0  0
  8  6  1  0  0  0  0
  9  7  1  0  0  0  0
 10 38  1  1  0  0  0
 11 12  1  6  0  0  0
 13 22  1  1  0  0  0
 13 11  1  0  0  0  0
 13 14  1  0  0  0  0
 14 16  1  0  0  0  0
 15 14  2  0  0  0  0
 16 17  1  0  0  0  0
 17 18  1  6  0  0  0
 17 19  1  0  0  0  0
 19 21  1  6  0  0  0
 19 20  1  0  0  0  0
 23 22  1  0  0  0  0
 24 23  1  0  0  0  0
 25 26  1  0  0  0  0
 27 28  1  0  0  0  0
 27 34  1  0  0  0  0
 27 26  1  1  0  0  0
 28 36  1  6  0  0  0
 30 31  1  0  0  0  0
 32 28  1  0  0  0  0
 32 37  1  1  0  0  0
 32 33  1  0  0  0  0
 33 35  1  0  0  0  0
 33 31  1  1  0  0  0
 34 35  1  0  0  0  0
 35 29  1  6  0  0  0
 37 30  1  0  0  0  0
 39 40  1  0  0  0  0
 40 38  1  0  0  0  0
M  END
>  <MODEL>
4

>  <REMARK>
 VINA RESULT:      -6.9      1.595      1.981
  Name = 
  13 active torsions:
  status: ('A' for Active; 'I' for Inactive)
    1  A    between atoms: C_1  and  C_2
    2  A    between atoms: C_1  and  O_26
    3  A    between atoms: C_2  and  C_6
    4  A    between atoms: C_2  and  O_37
    5  A    between atoms: C_4  and  C_14
    6  A    between atoms: C_5  and  N_16
    7  A    between atoms: C_6  and  C_32
    8  A    between atoms: C_8  and  N_16
    9  A    between atoms: C_8  and  C_18
   10  A    between atoms: C_11  and  O_37
   11  A    between atoms: C_14  and  O_26
   12  A    between atoms: C_20  and  O_34
   13  A    between atoms: O_34  and  C_40
                            x       y       z     vdW  Elec       q    Type
                         _______ _______ _______ _____ _____    ______ ____

>  <TORSDO>
F 13

$$$$
=
 OpenBabel11062419323D

 40 42  0  0  1  0  0  0  0  0999 V2000
  188.5330  174.3030  140.3650 O   0  0  0  0  0  1  0  0  0  0  0  0
  191.7470  173.6060  141.5040 C   0  0  0  0  0  0  0  0  0  0  0  0
  189.4700  175.0610  142.4390 C   0  0  1  0  0  3  0  0  0  0  0  0
  190.2870  174.7030  143.6790 C   0  0  0  0  0  2  0  0  0  0  0  0
  189.3090  173.8880  141.4540 C   0  0  2  0  0  3  0  0  0  0  0  0
  190.6060  173.3140  140.9370 C   0  0  0  0  0  0  0  0  0  0  0  0
  192.8540  174.9230  143.3000 C   0  0  2  0  0  3  0  0  0  0  0  0
  190.5880  172.4140  139.8750 O   0  0  0  0  0  1  0  0  0  0  0  0
  192.8280  173.9300  142.1570 C   0  0  0  0  0  3  0  0  0  0  0  0
  191.5230  175.6020  143.7130 C   0  0  2  0  0  3  0  0  0  0  0  0
  193.8870  176.0180  143.0350 C   0  0  2  0  0  3  0  0  0  0  0  0
  194.0060  176.2980  141.6700 O   0  0  0  0  0  1  0  0  0  0  0  0
  195.2430  175.7480  143.6880 C   0  0  2  0  0  3  0  0  0  0  0  0
  195.1010  175.7540  145.1750 C   0  0  0  0  0  0  0  0  0  0  0  0
  194.8730  176.8340  145.7830 O   0  0  0  0  0  0  0  0  0  0  0  0
  195.2100  174.5540  145.8780 O   0  0  0  0  0  0  0  0  0  0  0  0
  195.7040  173.3660  145.2720 C   0  0  1  0  0  3  0  0  0  0  0  0
  197.1860  173.2270  145.5560 C   0  0  0  0  0  1  0  0  0  0  0  0
  194.9380  172.1280  145.7430 C   0  0  2  0  0  3  0  0  0  0  0  0
  195.8210  171.0670  145.9260 O   0  0  0  0  0  1  0  0  0  0  0  0
  193.8440  171.7220  144.7650 C   0  0  0  0  0  1  0  0  0  0  0  0
  196.1910  176.6990  143.2910 O   0  0  0  0  0  0  0  0  0  0  0  0
  197.3540  175.9720  143.0340 C   0  0  0  0  0  2  0  0  0  0  0  0
  197.2090  175.2610  141.8410 O   0  0  0  0  0  1  0  0  0  0  0  0
  188.1190  175.6180  142.8760 C   0  0  0  0  0  2  0  0  0  0  0  0
  187.7950  176.8050  142.1000 N   0  0  0  0  0  2  0  0  0  0  0  0
  187.4770  177.8680  143.0450 C   0  0  1  0  0  3  0  0  0  0  0  0
  185.9740  177.8640  143.3660 C   0  0  1  0  0  3  0  0  0  0  0  0
  188.7900  177.1610  146.9120 S   0  0  0  0  0  1  0  0  0  0  0  0
  184.3620  178.1980  146.5210 C   0  0  0  0  0  2  0  0  0  0  0  0
  185.6090  177.6000  146.7460 O   0  0  0  0  0  0  0  0  0  0  0  0
  185.6840  178.6950  144.6260 C   0  0  2  0  0  3  0  0  0  0  0  0
  186.4880  178.2290  145.8490 C   0  0  2  0  0  3  0  0  0  0  0  0
  188.3900  177.7770  144.2770 C   0  0  0  0  0  2  0  0  0  0  0  0
  187.6420  177.2850  145.5090 C   0  0  1  0  0  3  0  0  0  0  0  0
  185.2020  178.4220  142.1760 C   0  0  0  0  0  1  0  0  0  0  0  0
  184.2530  178.5400  145.0570 C   0  0  0  0  0  2  0  0  0  0  0  0
  191.6580  176.1500  144.9950 O   0  0  0  0  0  0  0  0  0  0  0  0
  192.0740  175.4700  147.1280 O   0  0  0  0  0  1  0  0  0  0  0  0
  191.6470  175.0620  145.8660 C   0  0  0  0  0  2  0  0  0  0  0  0
  2  9  2  0  0  0  0
  3 25  1  1  0  0  0
  3  4  1  0  0  0  0
  4 10  1  0  0  0  0
  5  1  1  6  0  0  0
  5  3  1  0  0  0  0
  6  5  1  0  0  0  0
  6  2  2  0  0  0  0
  7 11  1  6  0  0  0
  7 10  1  0  0  0  0
  8  6  1  0  0  0  0
  9  7  1  0  0  0  0
 10 38  1  1  0  0  0
 11 12  1  6  0  0  0
 11 13  1  0  0  0  0
 13 22  1  1  0  0  0
 13 14  1  0  0  0  0
 14 15  2  0  0  0  0
 14 16  1  0  0  0  0
 17 18  1  1  0  0  0
 17 19  1  0  0  0  0
 17 16  1  0  0  0  0
 19 21  1  6  0  0  0
 19 20  1  0  0  0  0
 23 22  1  0  0  0  0
 24 23  1  0  0  0  0
 26 25  1  0  0  0  0
 27 26  1  6  0  0  0
 27 28  1  0  0  0  0
 27 34  1  0  0  0  0
 28 36  1  6  0  0  0
 28 32  1  0  0  0  0
 30 31  1  0  0  0  0
 32 37  1  1  0  0  0
 32 33  1  0  0  0  0
 33 31  1  1  0  0  0
 34 35  1  0  0  0  0
 35 33  1  0  0  0  0
 35 29  1  1  0  0  0
 37 30  1  0  0  0  0
 38 40  1  0  0  0  0
 40 39  1  0  0  0  0
M  END
>  <MODEL>
5

>  <REMARK>
 VINA RESULT:      -6.8      2.336      8.594
  Name = 
  13 active torsions:
  status: ('A' for Active; 'I' for Inactive)
    1  A    between atoms: C_1  and  C_2
    2  A    between atoms: C_1  and  O_26
    3  A    between atoms: C_2  and  C_6
    4  A    between atoms: C_2  and  O_37
    5  A    between atoms: C_4  and  C_14
    6  A    between atoms: C_5  and  N_16
    7  A    between atoms: C_6  and  C_32
    8  A    between atoms: C_8  and  N_16
    9  A    between atoms: C_8  and  C_18
   10  A    between atoms: C_11  and  O_37
   11  A    between atoms: C_14  and  O_26
   12  A    between atoms: C_20  and  O_34
   13  A    between atoms: O_34  and  C_40
                            x       y       z     vdW  Elec       q    Type
                         _______ _______ _______ _____ _____    ______ ____

>  <TORSDO>
F 13

$$$$
=
 OpenBabel11062419323D

 40 42  0  0  1  0  0  0  0  0999 V2000
  188.4260  172.8760  140.9090 O   0  0  0  0  0  1  0  0  0  0  0  0
  191.6750  172.6090  142.1270 C   0  0  0  0  0  0  0  0  0  0  0  0
  189.7040  174.6640  141.8700 C   0  0  1  0  0  3  0  0  0  0  0  0
  190.6380  175.1060  142.9940 C   0  0  0  0  0  2  0  0  0  0  0  0
  189.2940  173.1810  141.9640 C   0  0  2  0  0  3  0  0  0  0  0  0
  190.4460  172.2050  141.9460 C   0  0  0  0  0  0  0  0  0  0  0  0
  193.1410  174.5840  142.4980 C   0  0  2  0  0  3  0  0  0  0  0  0
  190.1950  170.8440  141.7930 O   0  0  0  0  0  1  0  0  0  0  0  0
  192.8610  173.1040  142.3490 C   0  0  0  0  0  3  0  0  0  0  0  0
  191.9520  175.5720  142.3680 C   0  0  2  0  0  3  0  0  0  0  0  0
  194.2360  175.0230  141.5250 C   0  0  2  0  0  3  0  0  0  0  0  0
  193.9350  174.6580  140.2090 O   0  0  0  0  0  1  0  0  0  0  0  0
  195.6360  174.5750  141.9420 C   0  0  2  0  0  3  0  0  0  0  0  0
  196.2630  175.6130  142.8150 C   0  0  0  0  0  0  0  0  0  0  0  0
  196.4270  176.7860  142.3840 O   0  0  0  0  0  0  0  0  0  0  0  0
  196.6510  175.2740  144.1120 O   0  0  0  0  0  0  0  0  0  0  0  0
  195.9490  174.3060  144.8810 C   0  0  1  0  0  3  0  0  0  0  0  0
  196.8470  173.7800  145.9830 C   0  0  0  0  0  1  0  0  0  0  0  0
  194.6500  174.8740  145.4570 C   0  0  2  0  0  3  0  0  0  0  0  0
  194.9380  175.7340  146.5140 O   0  0  0  0  0  1  0  0  0  0  0  0
  193.7040  173.7790  145.9310 C   0  0  0  0  0  1  0  0  0  0  0  0
  196.4430  174.3380  140.8220 O   0  0  0  0  0  0  0  0  0  0  0  0
  197.2540  173.2600  141.1760 C   0  0  0  0  0  2  0  0  0  0  0  0
  196.4930  172.3000  141.8460 O   0  0  0  0  0  1  0  0  0  0  0  0
  188.4870  175.5830  141.8420 C   0  0  0  0  0  2  0  0  0  0  0  0
  188.5290  176.4990  142.9720 N   0  0  0  0  0  2  0  0  0  0  0  0
  187.3710  176.2090  143.8090 C   0  0  1  0  0  3  0  0  0  0  0  0
  187.5450  176.8440  145.1980 C   0  0  1  0  0  3  0  0  0  0  0  0
  183.9450  178.2920  142.7610 S   0  0  0  0  0  1  0  0  0  0  0  0
  185.1740  178.6490  147.1430 C   0  0  0  0  0  2  0  0  0  0  0  0
  184.8560  178.8530  145.7940 O   0  0  0  0  0  0  0  0  0  0  0  0
  186.2040  176.8900  145.9470 C   0  0  2  0  0  3  0  0  0  0  0  0
  185.1050  177.6220  145.1640 C   0  0  2  0  0  3  0  0  0  0  0  0
  186.0760  176.6090  143.0850 C   0  0  0  0  0  2  0  0  0  0  0  0
  185.4430  177.8550  143.6920 C   0  0  1  0  0  3  0  0  0  0  0  0
  188.5680  176.0430  145.9950 C   0  0  0  0  0  1  0  0  0  0  0  0
  186.3240  177.6780  147.2210 C   0  0  0  0  0  2  0  0  0  0  0  0
  192.3130  176.8080  142.9210 O   0  0  0  0  0  0  0  0  0  0  0  0
  191.1770  177.9770  144.5110 O   0  0  0  0  0  1  0  0  0  0  0  0
  191.8360  176.7820  144.2310 C   0  0  0  0  0  2  0  0  0  0  0  0
  2  9  2  0  0  0  0
  3 25  1  1  0  0  0
  3  5  1  0  0  0  0
  3  4  1  0  0  0  0
  5  1  1  6  0  0  0
  6  5  1  0  0  0  0
  6  2  2  0  0  0  0
  7 11  1  6  0  0  0
  8  6  1  0  0  0  0
  9  7  1  0  0  0  0
 10  7  1  0  0  0  0
 10 38  1  1  0  0  0
 10  4  1  0  0  0  0
 11 12  1  6  0  0  0
 11 13  1  0  0  0  0
 13 22  1  6  0  0  0
 13 14  1  0  0  0  0
 14 16  1  0  0  0  0
 15 14  2  0  0  0  0
 16 17  1  0  0  0  0
 17 19  1  0  0  0  0
 17 18  1  1  0  0  0
 19 21  1  1  0  0  0
 19 20  1  0  0  0  0
 22 23  1  0  0  0  0
 23 24  1  0  0  0  0
 25 26  1  0  0  0  0
 27 26  1  6  0  0  0
 27 28  1  0  0  0  0
 28 32  1  0  0  0  0
 28 36  1  1  0  0  0
 30 37  1  0  0  0  0
 31 30  1  0  0  0  0
 32 37  1  1  0  0  0
 33 31  1  1  0  0  0
 33 32  1  0  0  0  0
 34 35  1  0  0  0  0
 34 27  1  0  0  0  0
 35 29  1  6  0  0  0
 35 33  1  0  0  0  0
 38 40  1  0  0  0  0
 40 39  1  0  0  0  0
M  END
>  <MODEL>
6

>  <REMARK>
 VINA RESULT:      -6.7      2.800      8.615
  Name = 
  13 active torsions:
  status: ('A' for Active; 'I' for Inactive)
    1  A    between atoms: C_1  and  C_2
    2  A    between atoms: C_1  and  O_26
    3  A    between atoms: C_2  and  C_6
    4  A    between atoms: C_2  and  O_37
    5  A    between atoms: C_4  and  C_14
    6  A    between atoms: C_5  and  N_16
    7  A    between atoms: C_6  and  C_32
    8  A    between atoms: C_8  and  N_16
    9  A    between atoms: C_8  and  C_18
   10  A    between atoms: C_11  and  O_37
   11  A    between atoms: C_14  and  O_26
   12  A    between atoms: C_20  and  O_34
   13  A    between atoms: O_34  and  C_40
                            x       y       z     vdW  Elec       q    Type
                         _______ _______ _______ _____ _____    ______ ____

>  <TORSDO>
F 13

$$$$
=
 OpenBabel11062419323D

 40 42  0  0  1  0  0  0  0  0999 V2000
  189.9080  173.7040  141.4720 O   0  0  0  0  0  1  0  0  0  0  0  0
  191.9440  172.4710  144.0120 C   0  0  0  0  0  0  0  0  0  0  0  0
  190.6510  174.9440  143.3870 C   0  0  1  0  0  3  0  0  0  0  0  0
  190.8750  174.9480  144.8980 C   0  0  0  0  0  2  0  0  0  0  0  0
  190.1000  173.6060  142.8560 C   0  0  2  0  0  3  0  0  0  0  0  0
  190.9690  172.4050  143.1440 C   0  0  0  0  0  0  0  0  0  0  0  0
  193.1800  173.9490  145.5840 C   0  0  2  0  0  3  0  0  0  0  0  0
  190.6970  171.1900  142.5210 O   0  0  0  0  0  1  0  0  0  0  0  0
  192.8690  172.6260  144.9180 C   0  0  0  0  0  3  0  0  0  0  0  0
  192.3610  175.1950  145.1590 C   0  0  2  0  0  3  0  0  0  0  0  0
  194.6650  174.2840  145.4440 C   0  0  2  0  0  3  0  0  0  0  0  0
  194.8610  175.5080  144.7970 O   0  0  0  0  0  1  0  0  0  0  0  0
  195.4850  173.1600  144.8110 C   0  0  2  0  0  3  0  0  0  0  0  0
  196.6010  172.7680  145.7230 C   0  0  0  0  0  0  0  0  0  0  0  0
  197.1020  173.6170  146.5090 O   0  0  0  0  0  0  0  0  0  0  0  0
  197.0700  171.4540  145.7070 O   0  0  0  0  0  0  0  0  0  0  0  0
  196.1920  170.3380  145.7770 C   0  0  1  0  0  3  0  0  0  0  0  0
  196.4140  169.4380  144.5780 C   0  0  0  0  0  1  0  0  0  0  0  0
  196.3640  169.5620  147.0840 C   0  0  2  0  0  3  0  0  0  0  0  0
  197.5640  168.8570  147.0610 O   0  0  0  0  0  1  0  0  0  0  0  0
  195.2100  168.6010  147.3390 C   0  0  0  0  0  1  0  0  0  0  0  0
  195.9960  173.5500  143.5670 O   0  0  0  0  0  0  0  0  0  0  0  0
  195.6400  172.5270  142.6870 C   0  0  0  0  0  2  0  0  0  0  0  0
  196.7710  172.0870  141.9970 O   0  0  0  0  0  1  0  0  0  0  0  0
  189.7460  176.1130  143.0130 C   0  0  0  0  0  2  0  0  0  0  0  0
  189.2660  176.7750  144.2160 N   0  0  0  0  0  2  0  0  0  0  0  0
  187.8730  176.3840  144.4000 C   0  0  1  0  0  3  0  0  0  0  0  0
  187.3150  176.9970  145.6950 C   0  0  1  0  0  3  0  0  0  0  0  0
  185.2240  178.2430  141.8130 S   0  0  0  0  0  1  0  0  0  0  0  0
  184.1770  178.5840  146.2420 C   0  0  0  0  0  2  0  0  0  0  0  0
  184.5280  178.7970  144.9030 O   0  0  0  0  0  0  0  0  0  0  0  0
  185.7790  176.9310  145.7100 C   0  0  2  0  0  3  0  0  0  0  0  0
  185.1380  177.6010  144.4860 C   0  0  2  0  0  3  0  0  0  0  0  0
  187.0570  176.7090  143.1400 C   0  0  0  0  0  2  0  0  0  0  0  0
  186.1210  177.8910  143.3520 C   0  0  1  0  0  3  0  0  0  0  0  0
  187.8880  176.2530  146.8950 C   0  0  0  0  0  1  0  0  0  0  0  0
  185.2170  177.6960  146.8740 C   0  0  0  0  0  2  0  0  0  0  0  0
  192.4970  176.1950  146.1310 O   0  0  0  0  0  0  0  0  0  0  0  0
  191.3270  176.8750  147.9630 O   0  0  0  0  0  1  0  0  0  0  0  0
  191.7230  175.7710  147.2100 C   0  0  0  0  0  2  0  0  0  0  0  0
  2  9  2  0  0  0  0
  3 25  1  1  0  0  0
  3  4  1  0  0  0  0
  4 10  1  0  0  0  0
  5  1  1  6  0  0  0
  5  6  1  0  0  0  0
  5  3  1  0  0  0  0
  6  2  2  0  0  0  0
  7 11  1  6  0  0  0
  8  6  1  0  0  0  0
  9  7  1  0  0  0  0
 10  7  1  0  0  0  0
 10 38  1  1  0  0  0
 11 12  1  6  0  0  0
 13 22  1  6  0  0  0
 13 11  1  0  0  0  0
 13 14  1  0  0  0  0
 14 15  2  0  0  0  0
 16 14  1  0  0  0  0
 16 17  1  0  0  0  0
 17 18  1  6  0  0  0
 17 19  1  0  0  0  0
 19 21  1  6  0  0  0
 20 19  1  0  0  0  0
 23 22  1  0  0  0  0
 24 23  1  0  0  0  0
 25 26  1  0  0  0  0
 27 26  1  6  0  0  0
 27 28  1  0  0  0  0
 28 32  1  0  0  0  0
 28 36  1  1  0  0  0
 30 37  1  0  0  0  0
 31 30  1  0  0  0  0
 32 37  1  1  0  0  0
 33 31  1  1  0  0  0
 33 32  1  0  0  0  0
 34 35  1  0  0  0  0
 34 27  1  0  0  0  0
 35 29  1  6  0  0  0
 35 33  1  0  0  0  0
 38 40  1  0  0  0  0
 40 39  1  0  0  0  0
M  END
>  <MODEL>
7

>  <REMARK>
 VINA RESULT:      -6.6      2.904      9.481
  Name = 
  13 active torsions:
  status: ('A' for Active; 'I' for Inactive)
    1  A    between atoms: C_1  and  C_2
    2  A    between atoms: C_1  and  O_26
    3  A    between atoms: C_2  and  C_6
    4  A    between atoms: C_2  and  O_37
    5  A    between atoms: C_4  and  C_14
    6  A    between atoms: C_5  and  N_16
    7  A    between atoms: C_6  and  C_32
    8  A    between atoms: C_8  and  N_16
    9  A    between atoms: C_8  and  C_18
   10  A    between atoms: C_11  and  O_37
   11  A    between atoms: C_14  and  O_26
   12  A    between atoms: C_20  and  O_34
   13  A    between atoms: O_34  and  C_40
                            x       y       z     vdW  Elec       q    Type
                         _______ _______ _______ _____ _____    ______ ____

>  <TORSDO>
F 13

$$$$
=
 OpenBabel11062419323D

 40 42  0  0  1  0  0  0  0  0999 V2000
  188.3460  174.3490  138.8940 O   0  0  0  0  0  1  0  0  0  0  0  0
  190.1300  171.9700  140.7020 C   0  0  0  0  0  0  0  0  0  0  0  0
  188.9300  174.5140  141.2140 C   0  0  1  0  0  3  0  0  0  0  0  0
  189.0190  173.8030  142.5630 C   0  0  0  0  0  2  0  0  0  0  0  0
  188.4120  173.6090  140.0800 C   0  0  2  0  0  3  0  0  0  0  0  0
  189.2360  172.3670  139.8360 C   0  0  0  0  0  0  0  0  0  0  0  0
  191.2390  172.4780  142.8690 C   0  0  2  0  0  3  0  0  0  0  0  0
  189.0050  171.5990  138.6980 O   0  0  0  0  0  1  0  0  0  0  0  0
  190.9720  171.6360  141.6400 C   0  0  0  0  0  3  0  0  0  0  0  0
  190.4780  173.8210  143.0180 C   0  0  2  0  0  3  0  0  0  0  0  0
  192.7350  172.7590  143.0110 C   0  0  2  0  0  3  0  0  0  0  0  0
  193.4350  172.4390  141.8420 O   0  0  0  0  0  1  0  0  0  0  0  0
  193.3600  172.1190  144.2500 C   0  0  2  0  0  3  0  0  0  0  0  0
  194.1650  173.1330  144.9960 C   0  0  0  0  0  0  0  0  0  0  0  0
  195.3620  172.8880  145.3030 O   0  0  0  0  0  0  0  0  0  0  0  0
  193.5830  174.3550  145.3340 O   0  0  0  0  0  0  0  0  0  0  0  0
  194.2520  175.5930  145.1240 C   0  0  1  0  0  3  0  0  0  0  0  0
  194.6350  175.7240  143.6640 C   0  0  0  0  0  1  0  0  0  0  0  0
  193.4010  176.7810  145.5750 C   0  0  2  0  0  3  0  0  0  0  0  0
  192.8130  176.5010  146.8060 O   0  0  0  0  0  1  0  0  0  0  0  0
  192.3210  177.1340  144.5610 C   0  0  0  0  0  1  0  0  0  0  0  0
  194.1670  171.0290  143.9010 O   0  0  0  0  0  0  0  0  0  0  0  0
  193.6060  169.9320  144.5570 C   0  0  0  0  0  2  0  0  0  0  0  0
  192.7330  169.2660  143.6940 O   0  0  0  0  0  1  0  0  0  0  0  0
  188.0780  175.7690  141.3660 C   0  0  0  0  0  2  0  0  0  0  0  0
  187.2330  175.6580  142.5450 N   0  0  0  0  0  2  0  0  0  0  0  0
  187.1890  176.9720  143.1740 C   0  0  1  0  0  3  0  0  0  0  0  0
  185.7770  177.2610  143.7080 C   0  0  1  0  0  3  0  0  0  0  0  0
  189.1290  177.1770  146.8310 S   0  0  0  0  0  1  0  0  0  0  0  0
  184.8130  178.6610  146.8340 C   0  0  0  0  0  2  0  0  0  0  0  0
  186.0230  177.9830  147.0320 O   0  0  0  0  0  0  0  0  0  0  0  0
  185.7990  178.4350  144.6980 C   0  0  2  0  0  3  0  0  0  0  0  0
  186.7720  178.2170  145.8660 C   0  0  2  0  0  3  0  0  0  0  0  0
  188.3040  177.0970  144.2250 C   0  0  0  0  0  2  0  0  0  0  0  0
  187.7570  177.0680  145.6460 C   0  0  1  0  0  3  0  0  0  0  0  0
  184.8490  177.5720  142.5400 C   0  0  0  0  0  1  0  0  0  0  0  0
  184.4650  178.6020  145.3690 C   0  0  0  0  0  2  0  0  0  0  0  0
  190.5390  174.2450  144.3520 O   0  0  0  0  0  0  0  0  0  0  0  0
  189.4220  173.8530  146.2970 O   0  0  0  0  0  1  0  0  0  0  0  0
  189.8020  173.3070  145.0730 C   0  0  0  0  0  2  0  0  0  0  0  0
  2  9  2  0  0  0  0
  3 25  1  1  0  0  0
  3  4  1  0  0  0  0
  4 10  1  0  0  0  0
  5  1  1  6  0  0  0
  5  3  1  0  0  0  0
  6  5  1  0  0  0  0
  6  2  2  0  0  0  0
  7 11  1  6  0  0  0
  7 10  1  0  0  0  0
  8  6  1  0  0  0  0
  9  7  1  0  0  0  0
 10 38  1  1  0  0  0
 11 12  1  6  0  0  0
 11 13  1  0  0  0  0
 13 22  1  6  0  0  0
 13 14  1  0  0  0  0
 14 15  2  0  0  0  0
 14 16  1  0  0  0  0
 17 18  1  6  0  0  0
 17 16  1  0  0  0  0
 17 19  1  0  0  0  0
 19 21  1  6  0  0  0
 19 20  1  0  0  0  0
 22 23  1  0  0  0  0
 24 23  1  0  0  0  0
 25 26  1  0  0  0  0
 27 26  1  1  0  0  0
 27 28  1  0  0  0  0
 27 34  1  0  0  0  0
 28 36  1  6  0  0  0
 28 32  1  0  0  0  0
 30 31  1  0  0  0  0
 32 37  1  1  0  0  0
 32 33  1  0  0  0  0
 33 31  1  1  0  0  0
 34 35  1  0  0  0  0
 35 33  1  0  0  0  0
 35 29  1  1  0  0  0
 37 30  1  0  0  0  0
 38 40  1  0  0  0  0
 40 39  1  0  0  0  0
M  END
>  <MODEL>
8

>  <REMARK>
 VINA RESULT:      -6.6      2.481      8.124
  Name = 
  13 active torsions:
  status: ('A' for Active; 'I' for Inactive)
    1  A    between atoms: C_1  and  C_2
    2  A    between atoms: C_1  and  O_26
    3  A    between atoms: C_2  and  C_6
    4  A    between atoms: C_2  and  O_37
    5  A    between atoms: C_4  and  C_14
    6  A    between atoms: C_5  and  N_16
    7  A    between atoms: C_6  and  C_32
    8  A    between atoms: C_8  and  N_16
    9  A    between atoms: C_8  and  C_18
   10  A    between atoms: C_11  and  O_37
   11  A    between atoms: C_14  and  O_26
   12  A    between atoms: C_20  and  O_34
   13  A    between atoms: O_34  and  C_40
                            x       y       z     vdW  Elec       q    Type
                         _______ _______ _______ _____ _____    ______ ____

>  <TORSDO>
F 13

$$$$
=
 OpenBabel11062419323D

 40 42  0  0  1  0  0  0  0  0999 V2000
  191.5060  176.4200  148.0500 O   0  0  0  0  0  1  0  0  0  0  0  0
  193.8230  175.6230  145.5790 C   0  0  0  0  0  0  0  0  0  0  0  0
  191.0210  175.2530  146.0110 C   0  0  1  0  0  3  0  0  0  0  0  0
  191.2350  175.1770  144.5010 C   0  0  0  0  0  2  0  0  0  0  0  0
  191.7780  176.4190  146.6770 C   0  0  2  0  0  3  0  0  0  0  0  0
  193.2740  176.3990  146.4750 C   0  0  0  0  0  0  0  0  0  0  0  0
  193.4010  173.8900  143.8450 C   0  0  2  0  0  3  0  0  0  0  0  0
  194.0820  177.2600  147.2140 O   0  0  0  0  0  1  0  0  0  0  0  0
  194.2730  174.8400  144.6370 C   0  0  0  0  0  3  0  0  0  0  0  0
  191.8870  173.8340  144.1780 C   0  0  2  0  0  3  0  0  0  0  0  0
  193.9580  172.4680  143.9140 C   0  0  2  0  0  3  0  0  0  0  0  0
  193.4680  171.7740  145.0250 O   0  0  0  0  0  1  0  0  0  0  0  0
  195.4820  172.4060  143.8220 C   0  0  2  0  0  3  0  0  0  0  0  0
  195.8900  171.8790  142.4850 C   0  0  0  0  0  0  0  0  0  0  0  0
  195.8400  170.6410  142.2520 O   0  0  0  0  0  0  0  0  0  0  0  0
  196.3120  172.7690  141.4970 O   0  0  0  0  0  0  0  0  0  0  0  0
  196.4660  174.1600  141.7500 C   0  0  1  0  0  3  0  0  0  0  0  0
  197.9390  174.4920  141.8890 C   0  0  0  0  0  1  0  0  0  0  0  0
  195.8130  175.0110  140.6610 C   0  0  2  0  0  3  0  0  0  0  0  0
  196.7940  175.6620  139.9170 O   0  0  0  0  0  1  0  0  0  0  0  0
  194.8420  176.0350  141.2350 C   0  0  0  0  0  1  0  0  0  0  0  0
  196.0160  171.6030  144.8380 O   0  0  0  0  0  0  0  0  0  0  0  0
  197.2350  172.1950  145.1710 C   0  0  0  0  0  2  0  0  0  0  0  0
  197.0520  173.0780  146.2370 O   0  0  0  0  0  1  0  0  0  0  0  0
  189.5250  175.3150  146.3020 C   0  0  0  0  0  2  0  0  0  0  0  0
  189.0080  176.6340  145.9740 N   0  0  0  0  0  2  0  0  0  0  0  0
  187.6940  176.4480  145.3720 C   0  0  1  0  0  3  0  0  0  0  0  0
  186.6690  177.3860  146.0300 C   0  0  1  0  0  3  0  0  0  0  0  0
  187.3430  177.9780  141.5360 S   0  0  0  0  0  1  0  0  0  0  0  0
  184.1620  179.3880  144.4900 C   0  0  0  0  0  2  0  0  0  0  0  0
  185.2190  179.2640  143.5800 O   0  0  0  0  0  0  0  0  0  0  0  0
  185.3990  177.4930  145.1700 C   0  0  2  0  0  3  0  0  0  0  0  0
  185.6850  177.9470  143.7310 C   0  0  2  0  0  3  0  0  0  0  0  0
  187.7840  176.5770  143.8430 C   0  0  0  0  0  2  0  0  0  0  0  0
  187.1620  177.8740  143.3410 C   0  0  1  0  0  3  0  0  0  0  0  0
  186.3240  176.8620  147.4190 C   0  0  0  0  0  1  0  0  0  0  0  0
  184.4740  178.5500  145.7030 C   0  0  0  0  0  2  0  0  0  0  0  0
  191.2000  173.2320  143.1150 O   0  0  0  0  0  0  0  0  0  0  0  0
  190.0750  171.9180  144.5970 O   0  0  0  0  0  1  0  0  0  0  0  0
  189.9430  172.9060  143.6230 C   0  0  0  0  0  2  0  0  0  0  0  0
  2  6  2  0  0  0  0
  3 25  1  6  0  0  0
  3  5  1  0  0  0  0
  4  3  1  0  0  0  0
  5  1  1  1  0  0  0
  6  5  1  0  0  0  0
  6  8  1  0  0  0  0
  7 11  1  1  0  0  0
  7 10  1  0  0  0  0
  7  9  1  0  0  0  0
  9  2  2  0  0  0  0
 10 38  1  6  0  0  0
 10  4  1  0  0  0  0
 11 12  1  1  0  0  0
 13 14  1  6  0  0  0
 13 11  1  0  0  0  0
 13 22  1  0  0  0  0
 15 14  2  0  0  0  0
 16 17  1  0  0  0  0
 16 14  1  0  0  0  0
 17 18  1  6  0  0  0
 19 21  1  1  0  0  0
 19 17  1  0  0  0  0
 20 19  1  0  0  0  0
 22 23  1  0  0  0  0
 23 24  1  0  0  0  0
 26 25  1  0  0  0  0
 27 26  1  1  0  0  0
 27 28  1  0  0  0  0
 28 36  1  1  0  0  0
 30 37  1  0  0  0  0
 31 30  1  0  0  0  0
 32 37  1  1  0  0  0
 32 28  1  0  0  0  0
 33 31  1  1  0  0  0
 33 32  1  0  0  0  0
 34 27  1  0  0  0  0
 35 29  1  6  0  0  0
 35 33  1  0  0  0  0
 35 34  1  0  0  0  0
 38 40  1  0  0  0  0
 40 39  1  0  0  0  0
M  END
>  <MODEL>
9

>  <REMARK>
 VINA RESULT:      -6.5      2.892      9.845
  Name = 
  13 active torsions:
  status: ('A' for Active; 'I' for Inactive)
    1  A    between atoms: C_1  and  C_2
    2  A    between atoms: C_1  and  O_26
    3  A    between atoms: C_2  and  C_6
    4  A    between atoms: C_2  and  O_37
    5  A    between atoms: C_4  and  C_14
    6  A    between atoms: C_5  and  N_16
    7  A    between atoms: C_6  and  C_32
    8  A    between atoms: C_8  and  N_16
    9  A    between atoms: C_8  and  C_18
   10  A    between atoms: C_11  and  O_37
   11  A    between atoms: C_14  and  O_26
   12  A    between atoms: C_20  and  O_34
   13  A    between atoms: O_34  and  C_40
                            x       y       z     vdW  Elec       q    Type
                         _______ _______ _______ _____ _____    ______ ____

>  <TORSDO>
F 13

$$$$
