=
 OpenBabel11062418533D

 37 39  0  0  1  0  0  0  0  0999 V2000
  190.0450  175.4360  147.2350 C   0  0  0  0  0  3  0  0  0  0  0  0
  188.5630  176.3820  145.6110 C   0  0  0  0  0  0  0  0  0  0  0  0
  189.5640  177.7680  143.7830 C   0  0  0  0  0  3  0  0  0  0  0  0
  188.8460  175.5510  146.7440 N   0  0  0  0  0  0  0  0  0  0  0  0
  189.6930  176.9400  144.8250 C   0  0  0  0  0  0  0  0  0  0  0  0
  191.1950  176.2400  146.6850 C   0  0  2  0  0  3  0  0  0  0  0  0
  187.3630  176.5950  145.2880 O   0  0  0  0  0  0  0  0  0  0  0  0
  191.0710  176.4660  145.1760 C   0  0  0  0  0  2  0  0  0  0  0  0
  192.5400  175.6280  147.0640 C   0  0  0  0  0  2  0  0  0  0  0  0
  192.9280  174.4710  146.1500 C   0  0  0  0  0  2  0  0  0  0  0  0
  196.6210  174.2280  145.1160 C   0  0  0  0  0  0  0  0  0  0  0  0
  196.6840  177.1860  142.8710 F   0  0  0  0  0  0  0  0  0  0  0  0
  197.5480  173.8740  145.8250 O   0  0  0  0  0  0  0  0  0  0  0  0
  194.6090  176.2330  145.6600 C   0  0  0  0  0  3  0  0  0  0  0  0
  194.1350  174.8470  145.3080 C   0  0  1  0  0  3  0  0  0  0  0  0
  196.9310  175.0360  143.8780 C   0  0  1  0  0  3  0  0  0  0  0  0
  196.9690  174.1370  142.6560 C   0  0  0  0  0  1  0  0  0  0  0  0
  195.2260  173.7840  145.4870 C   0  0  0  0  0  2  0  0  0  0  0  0
  196.0110  176.2400  143.6210 C   0  0  1  0  0  3  0  0  0  0  0  0
  195.4830  176.8780  144.8770 C   0  0  0  0  0  3  0  0  0  0  0  0
  188.2670  178.3070  143.2790 C   0  0  0  0  0  2  0  0  0  0  0  0
  188.2060  178.1320  141.7750 C   0  0  0  0  0  2  0  0  0  0  0  0
  187.1900  177.0620  141.4040 C   0  0  2  0  0  3  0  0  0  0  0  0
  188.3610  174.8910  141.7150 C   0  0  0  0  0  3  0  0  0  0  0  0
  187.8880  175.8320  140.8940 C   0  0  0  0  0  3  0  0  0  0  0  0
  190.2040  171.7660  138.2910 O   0  0  0  0  0  1  0  0  0  0  0  0
  189.0670  173.6920  141.1760 C   0  0  1  0  0  3  0  0  0  0  0  0
  188.4350  173.2780  139.5180 S   0  0  0  0  0  0  0  0  0  0  0  0
  191.0270  173.0110  140.1380 C   0  0  0  0  0  2  0  0  0  0  0  0
  190.4920  173.9670  141.0890 N   0  0  0  0  0  2  0  0  0  0  0  0
  190.1230  173.0030  138.9280 C   0  0  1  0  0  3  0  0  0  0  0  0
  186.1870  177.6020  140.3850 C   0  0  0  0  0  2  0  0  0  0  0  0
  184.9050  177.9810  141.0440 C   0  0  0  0  0  0  0  0  0  0  0  0
  184.0520  178.6560  140.4070 O   0  0  0  0  0  0  0  0  0  0  0  0
  184.6830  177.6130  142.3720 O   0  0  0  0  0  0  0  0  0  0  0  0
  184.1640  178.5020  143.3080 C   0  0  0  0  0  3  0  0  0  0  0  0
  184.9710  179.3210  143.9610 C   0  0  0  0  0  2  0  0  0  0  0  0
  2  4  1  0  0  0  0
  3  5  2  0  0  0  0
  4  1  2  0  0  0  0
  5  8  1  0  0  0  0
  5  2  1  0  0  0  0
  6  9  1  6  0  0  0
  6  1  1  0  0  0  0
  7  2  2  0  0  0  0
  8  6  1  0  0  0  0
 10  9  1  0  0  0  0
 11 18  1  0  0  0  0
 11 13  2  0  0  0  0
 15 18  1  0  0  0  0
 15 14  1  0  0  0  0
 15 10  1  1  0  0  0
 16 17  1  6  0  0  0
 16 11  1  0  0  0  0
 19 12  1  1  0  0  0
 19 16  1  0  0  0  0
 19 20  1  0  0  0  0
 20 14  2  0  0  0  0
 21  3  1  0  0  0  0
 22 21  1  0  0  0  0
 23 32  1  6  0  0  0
 23 22  1  0  0  0  0
 25 23  1  0  0  0  0
 25 24  2  0  0  0  0
 27 24  1  6  0  0  0
 28 27  1  0  0  0  0
 29 30  1  0  0  0  0
 30 27  1  0  0  0  0
 31 26  1  1  0  0  0
 31 28  1  0  0  0  0
 31 29  1  0  0  0  0
 32 33  1  0  0  0  0
 33 35  1  0  0  0  0
 34 33  2  0  0  0  0
 35 36  1  0  0  0  0
 36 37  2  0  0  0  0
M  END
>  <MODEL>
1

>  <REMARK>
 VINA RESULT:      -7.1      0.000      0.000
  Name = 
  12 active torsions:
  status: ('A' for Active; 'I' for Inactive)
    1  A    between atoms: C_2  and  C_29
    2  A    between atoms: C_2  and  C_34
    3  A    between atoms: O_6  and  C_7
    4  A    between atoms: O_6  and  C_17
    5  A    between atoms: C_8  and  C_17
    6  A    between atoms: C_8  and  C_29
    7  A    between atoms: C_9  and  C_28
    8  A    between atoms: C_11  and  C_15
    9  A    between atoms: C_11  and  C_16
   10  A    between atoms: C_15  and  C_24
   11  A    between atoms: C_19  and  C_34
   12  A    between atoms: C_29  and  C_35
                            x       y       z     vdW  Elec       q    Type
                         _______ _______ _______ _____ _____    ______ ____

>  <TORSDO>
F 12

$$$$
=
 OpenBabel11062418533D

 37 39  0  0  1  0  0  0  0  0999 V2000
  190.0800  175.3110  147.2980 C   0  0  0  0  0  3  0  0  0  0  0  0
  188.6150  176.1750  145.6140 C   0  0  0  0  0  0  0  0  0  0  0  0
  189.5540  177.8280  143.9860 C   0  0  0  0  0  3  0  0  0  0  0  0
  188.9200  175.3010  146.7090 N   0  0  0  0  0  0  0  0  0  0  0  0
  189.7150  176.9440  144.9760 C   0  0  0  0  0  0  0  0  0  0  0  0
  191.1450  176.3050  146.9130 C   0  0  2  0  0  3  0  0  0  0  0  0
  187.4280  176.2490  145.1980 O   0  0  0  0  0  0  0  0  0  0  0  0
  191.1130  176.6340  145.4180 C   0  0  0  0  0  2  0  0  0  0  0  0
  192.5280  175.8530  147.3710 C   0  0  0  0  0  2  0  0  0  0  0  0
  193.6430  176.4510  146.5210 C   0  0  0  0  0  2  0  0  0  0  0  0
  195.7400  174.7480  143.7880 C   0  0  0  0  0  0  0  0  0  0  0  0
  196.2690  171.5140  145.5380 F   0  0  0  0  0  0  0  0  0  0  0  0
  195.5940  174.8700  142.5840 O   0  0  0  0  0  0  0  0  0  0  0  0
  193.7510  174.0820  145.7800 C   0  0  0  0  0  3  0  0  0  0  0  0
  194.5390  175.3510  145.9780 C   0  0  1  0  0  3  0  0  0  0  0  0
  196.4950  173.5440  144.3020 C   0  0  1  0  0  3  0  0  0  0  0  0
  197.9400  173.9090  144.5900 C   0  0  0  0  0  1  0  0  0  0  0  0
  195.2110  175.8390  144.6880 C   0  0  0  0  0  2  0  0  0  0  0  0
  195.8750  172.8390  145.5190 C   0  0  1  0  0  3  0  0  0  0  0  0
  194.3730  172.9160  145.5630 C   0  0  0  0  0  3  0  0  0  0  0  0
  188.2390  178.2250  143.4040 C   0  0  0  0  0  2  0  0  0  0  0  0
  188.2290  177.8940  141.9250 C   0  0  0  0  0  2  0  0  0  0  0  0
  187.1080  176.9170  141.6050 C   0  0  2  0  0  3  0  0  0  0  0  0
  187.9410  174.6230  142.0800 C   0  0  0  0  0  3  0  0  0  0  0  0
  187.6740  175.5860  141.1940 C   0  0  0  0  0  3  0  0  0  0  0  0
  191.1680  171.5040  139.9010 O   0  0  0  0  0  1  0  0  0  0  0  0
  188.5220  173.3210  141.6400 C   0  0  1  0  0  3  0  0  0  0  0  0
  189.5360  173.5540  140.1440 S   0  0  0  0  0  0  0  0  0  0  0  0
  190.2450  171.8270  142.0650 C   0  0  0  0  0  2  0  0  0  0  0  0
  189.3540  172.7780  142.7020 N   0  0  0  0  0  2  0  0  0  0  0  0
  190.8210  172.4820  140.8330 C   0  0  1  0  0  3  0  0  0  0  0  0
  186.1830  177.4900  140.5310 C   0  0  0  0  0  2  0  0  0  0  0  0
  184.9040  177.9700  141.1250 C   0  0  0  0  0  0  0  0  0  0  0  0
  184.0810  178.6010  140.4090 O   0  0  0  0  0  0  0  0  0  0  0  0
  184.6500  177.7410  142.4790 O   0  0  0  0  0  0  0  0  0  0  0  0
  184.0940  178.7170  143.3000 C   0  0  0  0  0  3  0  0  0  0  0  0
  184.7930  179.2090  144.3100 C   0  0  0  0  0  2  0  0  0  0  0  0
  2  4  1  0  0  0  0
  3  5  2  0  0  0  0
  4  1  2  0  0  0  0
  5  8  1  0  0  0  0
  5  2  1  0  0  0  0
  6  1  1  0  0  0  0
  6  9  1  6  0  0  0
  7  2  2  0  0  0  0
  8  6  1  0  0  0  0
 10  9  1  0  0  0  0
 11 16  1  0  0  0  0
 11 18  1  0  0  0  0
 13 11  2  0  0  0  0
 14 15  1  0  0  0  0
 15 10  1  6  0  0  0
 16 17  1  1  0  0  0
 16 19  1  0  0  0  0
 18 15  1  0  0  0  0
 19 12  1  6  0  0  0
 19 20  1  0  0  0  0
 20 14  2  0  0  0  0
 21  3  1  0  0  0  0
 22 21  1  0  0  0  0
 23 32  1  6  0  0  0
 23 22  1  0  0  0  0
 25 23  1  0  0  0  0
 25 24  2  0  0  0  0
 27 24  1  1  0  0  0
 27 30  1  0  0  0  0
 28 31  1  0  0  0  0
 28 27  1  0  0  0  0
 29 30  1  0  0  0  0
 31 26  1  6  0  0  0
 31 29  1  0  0  0  0
 32 33  1  0  0  0  0
 33 35  1  0  0  0  0
 34 33  2  0  0  0  0
 35 36  1  0  0  0  0
 36 37  2  0  0  0  0
M  END
>  <MODEL>
2

>  <REMARK>
 VINA RESULT:      -7.1      1.528      1.918
  Name = 
  12 active torsions:
  status: ('A' for Active; 'I' for Inactive)
    1  A    between atoms: C_2  and  C_29
    2  A    between atoms: C_2  and  C_34
    3  A    between atoms: O_6  and  C_7
    4  A    between atoms: O_6  and  C_17
    5  A    between atoms: C_8  and  C_17
    6  A    between atoms: C_8  and  C_29
    7  A    between atoms: C_9  and  C_28
    8  A    between atoms: C_11  and  C_15
    9  A    between atoms: C_11  and  C_16
   10  A    between atoms: C_15  and  C_24
   11  A    between atoms: C_19  and  C_34
   12  A    between atoms: C_29  and  C_35
                            x       y       z     vdW  Elec       q    Type
                         _______ _______ _______ _____ _____    ______ ____

>  <TORSDO>
F 12

$$$$
=
 OpenBabel11062418533D

 37 39  0  0  1  0  0  0  0  0999 V2000
  188.3210  173.8330  142.0490 C   0  0  0  0  0  3  0  0  0  0  0  0
  190.0630  172.5550  143.0780 C   0  0  0  0  0  0  0  0  0  0  0  0
  191.9010  173.8010  144.2320 C   0  0  0  0  0  3  0  0  0  0  0  0
  188.8090  172.6780  142.3940 N   0  0  0  0  0  0  0  0  0  0  0  0
  190.7110  173.7760  143.6230 C   0  0  0  0  0  0  0  0  0  0  0  0
  189.0910  175.1080  142.2790 C   0  0  2  0  0  3  0  0  0  0  0  0
  190.5710  171.4120  143.2300 O   0  0  0  0  0  0  0  0  0  0  0  0
  189.9290  175.0520  143.5600 C   0  0  0  0  0  2  0  0  0  0  0  0
  188.1790  176.3300  142.2450 C   0  0  0  0  0  2  0  0  0  0  0  0
  186.7520  176.0000  142.6680 C   0  0  0  0  0  2  0  0  0  0  0  0
  185.4890  179.1380  144.4920 C   0  0  0  0  0  0  0  0  0  0  0  0
  186.3350  178.0560  147.9430 F   0  0  0  0  0  0  0  0  0  0  0  0
  185.5590  180.2860  144.0870 O   0  0  0  0  0  0  0  0  0  0  0  0
  187.6020  177.1710  144.6870 C   0  0  0  0  0  3  0  0  0  0  0  0
  186.3700  176.7970  143.9030 C   0  0  1  0  0  3  0  0  0  0  0  0
  185.2920  178.9080  145.9720 C   0  0  1  0  0  3  0  0  0  0  0  0
  183.8270  178.6570  146.2780 C   0  0  0  0  0  1  0  0  0  0  0  0
  185.5430  178.0170  143.4800 C   0  0  0  0  0  2  0  0  0  0  0  0
  186.1590  177.8020  146.5960 C   0  0  1  0  0  3  0  0  0  0  0  0
  187.5020  177.6420  145.9360 C   0  0  0  0  0  3  0  0  0  0  0  0
  192.7910  172.6170  144.4130 C   0  0  0  0  0  2  0  0  0  0  0  0
  194.0160  173.0320  145.2030 C   0  0  0  0  0  2  0  0  0  0  0  0
  194.4090  174.4620  144.8650 C   0  0  2  0  0  3  0  0  0  0  0  0
  195.2940  175.3270  142.7080 C   0  0  0  0  0  3  0  0  0  0  0  0
  195.4010  174.4800  143.7350 C   0  0  0  0  0  3  0  0  0  0  0  0
  197.9410  173.4500  138.9190 O   0  0  0  0  0  1  0  0  0  0  0  0
  196.2850  175.3030  141.5930 C   0  0  1  0  0  3  0  0  0  0  0  0
  196.9020  173.6090  141.3310 S   0  0  0  0  0  0  0  0  0  0  0  0
  196.4650  175.2750  139.2800 C   0  0  0  0  0  2  0  0  0  0  0  0
  195.6510  175.7750  140.3720 N   0  0  0  0  0  2  0  0  0  0  0  0
  196.7470  173.8150  139.5400 C   0  0  1  0  0  3  0  0  0  0  0  0
  194.9530  175.1780  146.1010 C   0  0  0  0  0  2  0  0  0  0  0  0
  194.2960  176.5030  146.2850 C   0  0  0  0  0  0  0  0  0  0  0  0
  194.7550  177.5150  145.6890 O   0  0  0  0  0  0  0  0  0  0  0  0
  193.2010  176.6100  147.1440 O   0  0  0  0  0  0  0  0  0  0  0  0
  191.9040  176.3270  146.7250 C   0  0  0  0  0  3  0  0  0  0  0  0
  191.0250  175.8350  147.5830 C   0  0  0  0  0  2  0  0  0  0  0  0
  1  6  1  0  0  0  0
  1  4  2  0  0  0  0
  2  7  2  0  0  0  0
  2  5  1  0  0  0  0
  3 21  1  0  0  0  0
  4  2  1  0  0  0  0
  5  3  2  0  0  0  0
  6  9  1  1  0  0  0
  6  8  1  0  0  0  0
  8  5  1  0  0  0  0
  9 10  1  0  0  0  0
 11 16  1  0  0  0  0
 13 11  2  0  0  0  0
 14 20  2  0  0  0  0
 15 10  1  6  0  0  0
 15 14  1  0  0  0  0
 16 17  1  6  0  0  0
 16 19  1  0  0  0  0
 18 15  1  0  0  0  0
 18 11  1  0  0  0  0
 19 12  1  1  0  0  0
 20 19  1  0  0  0  0
 21 22  1  0  0  0  0
 23 25  1  6  0  0  0
 23 22  1  0  0  0  0
 23 32  1  0  0  0  0
 24 25  2  0  0  0  0
 27 24  1  1  0  0  0
 28 27  1  0  0  0  0
 29 31  1  0  0  0  0
 29 30  1  0  0  0  0
 30 27  1  0  0  0  0
 31 26  1  6  0  0  0
 31 28  1  0  0  0  0
 32 33  1  0  0  0  0
 33 35  1  0  0  0  0
 34 33  2  0  0  0  0
 36 35  1  0  0  0  0
 36 37  2  0  0  0  0
M  END
>  <MODEL>
3

>  <REMARK>
 VINA RESULT:      -6.9      3.631      8.620
  Name = 
  12 active torsions:
  status: ('A' for Active; 'I' for Inactive)
    1  A    between atoms: C_2  and  C_29
    2  A    between atoms: C_2  and  C_34
    3  A    between atoms: O_6  and  C_7
    4  A    between atoms: O_6  and  C_17
    5  A    between atoms: C_8  and  C_17
    6  A    between atoms: C_8  and  C_29
    7  A    between atoms: C_9  and  C_28
    8  A    between atoms: C_11  and  C_15
    9  A    between atoms: C_11  and  C_16
   10  A    between atoms: C_15  and  C_24
   11  A    between atoms: C_19  and  C_34
   12  A    between atoms: C_29  and  C_35
                            x       y       z     vdW  Elec       q    Type
                         _______ _______ _______ _____ _____    ______ ____

>  <TORSDO>
F 12

$$$$
=
 OpenBabel11062418533D

 37 39  0  0  1  0  0  0  0  0999 V2000
  190.3560  177.6850  144.9150 C   0  0  0  0  0  3  0  0  0  0  0  0
  192.5070  176.6790  144.6240 C   0  0  0  0  0  0  0  0  0  0  0  0
  193.3560  175.1890  146.4470 C   0  0  0  0  0  3  0  0  0  0  0  0
  191.3950  177.4590  144.1670 N   0  0  0  0  0  0  0  0  0  0  0  0
  192.3780  175.9090  145.8880 C   0  0  0  0  0  0  0  0  0  0  0  0
  190.3000  177.2050  146.3420 C   0  0  2  0  0  3  0  0  0  0  0  0
  193.5580  176.6390  143.9290 O   0  0  0  0  0  0  0  0  0  0  0  0
  191.0250  175.8700  146.5310 C   0  0  0  0  0  2  0  0  0  0  0  0
  188.8680  177.1580  146.8640 C   0  0  0  0  0  2  0  0  0  0  0  0
  187.9610  176.2970  145.9920 C   0  0  0  0  0  2  0  0  0  0  0  0
  184.8300  178.4620  145.4710 C   0  0  0  0  0  0  0  0  0  0  0  0
  185.0680  178.7630  141.7760 F   0  0  0  0  0  0  0  0  0  0  0  0
  183.7860  178.3850  146.0960 O   0  0  0  0  0  0  0  0  0  0  0  0
  186.2940  176.3450  144.1510 C   0  0  0  0  0  3  0  0  0  0  0  0
  187.0330  177.1730  145.1710 C   0  0  1  0  0  3  0  0  0  0  0  0
  184.8110  179.1380  144.1200 C   0  0  1  0  0  3  0  0  0  0  0  0
  185.2690  180.5800  144.2430 C   0  0  0  0  0  1  0  0  0  0  0  0
  186.0900  177.9320  146.1130 C   0  0  0  0  0  2  0  0  0  0  0  0
  185.5980  178.4260  143.0080 C   0  0  1  0  0  3  0  0  0  0  0  0
  185.6250  176.9280  143.1490 C   0  0  0  0  0  3  0  0  0  0  0  0
  194.7490  175.0890  145.9200 C   0  0  0  0  0  2  0  0  0  0  0  0
  195.0140  173.6630  145.4820 C   0  0  0  0  0  2  0  0  0  0  0  0
  194.8930  173.5390  143.9710 C   0  0  2  0  0  3  0  0  0  0  0  0
  192.7970  172.2910  144.4500 C   0  0  0  0  0  3  0  0  0  0  0  0
  193.5420  172.9970  143.5960 C   0  0  0  0  0  3  0  0  0  0  0  0
  188.2220  172.2960  142.4610 O   0  0  0  0  0  1  0  0  0  0  0  0
  191.4690  171.7500  144.0380 C   0  0  1  0  0  3  0  0  0  0  0  0
  190.2390  173.0920  143.9510 S   0  0  0  0  0  0  0  0  0  0  0  0
  190.2400  171.0740  142.1900 C   0  0  0  0  0  2  0  0  0  0  0  0
  191.5850  171.1230  142.7310 N   0  0  0  0  0  2  0  0  0  0  0  0
  189.6080  172.4300  142.3900 C   0  0  1  0  0  3  0  0  0  0  0  0
  196.0210  172.6730  143.4090 C   0  0  0  0  0  2  0  0  0  0  0  0
  197.2970  172.9160  144.1390 C   0  0  0  0  0  0  0  0  0  0  0  0
  197.8910  174.0200  144.0070 O   0  0  0  0  0  0  0  0  0  0  0  0
  197.8350  171.9020  144.9330 O   0  0  0  0  0  0  0  0  0  0  0  0
  197.1750  170.6940  145.1360 C   0  0  0  0  0  3  0  0  0  0  0  0
  196.6860  170.4000  146.3290 C   0  0  0  0  0  2  0  0  0  0  0  0
  1  6  1  0  0  0  0
  2  5  1  0  0  0  0
  4  2  1  0  0  0  0
  4  1  2  0  0  0  0
  5  3  2  0  0  0  0
  5  8  1  0  0  0  0
  6  8  1  0  0  0  0
  6  9  1  6  0  0  0
  7  2  2  0  0  0  0
 10  9  1  0  0  0  0
 11 13  2  0  0  0  0
 11 18  1  0  0  0  0
 14 15  1  0  0  0  0
 15 10  1  1  0  0  0
 15 18  1  0  0  0  0
 16 17  1  1  0  0  0
 16 11  1  0  0  0  0
 19 12  1  6  0  0  0
 19 20  1  0  0  0  0
 19 16  1  0  0  0  0
 20 14  2  0  0  0  0
 21  3  1  0  0  0  0
 22 21  1  0  0  0  0
 23 32  1  1  0  0  0
 23 22  1  0  0  0  0
 25 23  1  0  0  0  0
 25 24  2  0  0  0  0
 27 24  1  6  0  0  0
 28 27  1  0  0  0  0
 29 31  1  0  0  0  0
 29 30  1  0  0  0  0
 30 27  1  0  0  0  0
 31 26  1  1  0  0  0
 31 28  1  0  0  0  0
 32 33  1  0  0  0  0
 33 35  1  0  0  0  0
 34 33  2  0  0  0  0
 35 36  1  0  0  0  0
 36 37  2  0  0  0  0
M  END
>  <MODEL>
4

>  <REMARK>
 VINA RESULT:      -6.7      3.259      9.108
  Name = 
  12 active torsions:
  status: ('A' for Active; 'I' for Inactive)
    1  A    between atoms: C_2  and  C_29
    2  A    between atoms: C_2  and  C_34
    3  A    between atoms: O_6  and  C_7
    4  A    between atoms: O_6  and  C_17
    5  A    between atoms: C_8  and  C_17
    6  A    between atoms: C_8  and  C_29
    7  A    between atoms: C_9  and  C_28
    8  A    between atoms: C_11  and  C_15
    9  A    between atoms: C_11  and  C_16
   10  A    between atoms: C_15  and  C_24
   11  A    between atoms: C_19  and  C_34
   12  A    between atoms: C_29  and  C_35
                            x       y       z     vdW  Elec       q    Type
                         _______ _______ _______ _____ _____    ______ ____

>  <TORSDO>
F 12

$$$$
=
 OpenBabel11062418533D

 37 39  0  0  1  0  0  0  0  0999 V2000
  190.0980  177.8470  145.0530 C   0  0  0  0  0  3  0  0  0  0  0  0
  192.2610  176.8480  144.8400 C   0  0  0  0  0  0  0  0  0  0  0  0
  192.9170  175.1110  146.5170 C   0  0  0  0  0  3  0  0  0  0  0  0
  191.2050  177.7040  144.3860 N   0  0  0  0  0  0  0  0  0  0  0  0
  192.0030  175.9180  145.9690 C   0  0  0  0  0  0  0  0  0  0  0  0
  189.8980  177.1810  146.3900 C   0  0  2  0  0  3  0  0  0  0  0  0
  193.3750  176.8820  144.2510 O   0  0  0  0  0  0  0  0  0  0  0  0
  190.5930  175.8190  146.4650 C   0  0  0  0  0  2  0  0  0  0  0  0
  188.4200  177.0920  146.7590 C   0  0  0  0  0  2  0  0  0  0  0  0
  187.6380  176.1980  145.8040 C   0  0  0  0  0  2  0  0  0  0  0  0
  186.4700  178.3610  142.8500 C   0  0  0  0  0  0  0  0  0  0  0  0
  183.2420  179.4680  144.3180 F   0  0  0  0  0  0  0  0  0  0  0  0
  187.1770  179.0460  142.1320 O   0  0  0  0  0  0  0  0  0  0  0  0
  186.3480  178.3200  145.7410 C   0  0  0  0  0  3  0  0  0  0  0  0
  186.6150  177.0150  145.0350 C   0  0  1  0  0  3  0  0  0  0  0  0
  184.9910  178.6660  142.9050 C   0  0  1  0  0  3  0  0  0  0  0  0
  184.2250  177.7390  141.9800 C   0  0  0  0  0  1  0  0  0  0  0  0
  187.1050  177.2100  143.5940 C   0  0  0  0  0  2  0  0  0  0  0  0
  184.3590  178.6540  144.3070 C   0  0  1  0  0  3  0  0  0  0  0  0
  185.3020  179.0820  145.3990 C   0  0  0  0  0  3  0  0  0  0  0  0
  194.3540  175.0560  146.1200 C   0  0  0  0  0  2  0  0  0  0  0  0
  194.6630  173.6820  145.5600 C   0  0  0  0  0  2  0  0  0  0  0  0
  194.7670  173.7350  144.0430 C   0  0  2  0  0  3  0  0  0  0  0  0
  192.6470  173.8510  142.7480 C   0  0  0  0  0  3  0  0  0  0  0  0
  193.5470  173.1220  143.4130 C   0  0  0  0  0  3  0  0  0  0  0  0
  187.8000  172.9260  142.0120 O   0  0  0  0  0  1  0  0  0  0  0  0
  191.4370  173.2130  142.1520 C   0  0  1  0  0  3  0  0  0  0  0  0
  190.0500  173.2600  143.3340 S   0  0  0  0  0  0  0  0  0  0  0  0
  189.6650  173.5990  140.7050 C   0  0  0  0  0  2  0  0  0  0  0  0
  191.0580  173.9260  140.9430 N   0  0  0  0  0  2  0  0  0  0  0  0
  188.9210  173.7550  142.0100 C   0  0  1  0  0  3  0  0  0  0  0  0
  196.0490  173.0540  143.5650 C   0  0  0  0  0  2  0  0  0  0  0  0
  197.2220  173.9620  143.7050 C   0  0  0  0  0  0  0  0  0  0  0  0
  197.7680  174.1080  144.8320 O   0  0  0  0  0  0  0  0  0  0  0  0
  197.6790  174.6660  142.5890 O   0  0  0  0  0  0  0  0  0  0  0  0
  197.1230  175.8830  142.2060 C   0  0  0  0  0  3  0  0  0  0  0  0
  196.8190  176.7890  143.1210 C   0  0  0  0  0  2  0  0  0  0  0  0
  1  6  1  0  0  0  0
  2  5  1  0  0  0  0
  4  2  1  0  0  0  0
  4  1  2  0  0  0  0
  5  8  1  0  0  0  0
  5  3  2  0  0  0  0
  6  8  1  0  0  0  0
  6  9  1  6  0  0  0
  7  2  2  0  0  0  0
 10  9  1  0  0  0  0
 11 16  1  0  0  0  0
 11 18  1  0  0  0  0
 13 11  2  0  0  0  0
 15 14  1  0  0  0  0
 15 10  1  1  0  0  0
 16 17  1  6  0  0  0
 16 19  1  0  0  0  0
 18 15  1  0  0  0  0
 19 12  1  6  0  0  0
 19 20  1  0  0  0  0
 20 14  2  0  0  0  0
 21  3  1  0  0  0  0
 22 21  1  0  0  0  0
 23 25  1  6  0  0  0
 23 22  1  0  0  0  0
 24 25  2  0  0  0  0
 27 24  1  1  0  0  0
 27 28  1  0  0  0  0
 29 30  1  0  0  0  0
 29 31  1  0  0  0  0
 30 27  1  0  0  0  0
 31 26  1  6  0  0  0
 31 28  1  0  0  0  0
 32 33  1  0  0  0  0
 32 23  1  0  0  0  0
 33 34  2  0  0  0  0
 35 33  1  0  0  0  0
 36 35  1  0  0  0  0
 36 37  2  0  0  0  0
M  END
>  <MODEL>
5

>  <REMARK>
 VINA RESULT:      -6.7      3.112      8.686
  Name = 
  12 active torsions:
  status: ('A' for Active; 'I' for Inactive)
    1  A    between atoms: C_2  and  C_29
    2  A    between atoms: C_2  and  C_34
    3  A    between atoms: O_6  and  C_7
    4  A    between atoms: O_6  and  C_17
    5  A    between atoms: C_8  and  C_17
    6  A    between atoms: C_8  and  C_29
    7  A    between atoms: C_9  and  C_28
    8  A    between atoms: C_11  and  C_15
    9  A    between atoms: C_11  and  C_16
   10  A    between atoms: C_15  and  C_24
   11  A    between atoms: C_19  and  C_34
   12  A    between atoms: C_29  and  C_35
                            x       y       z     vdW  Elec       q    Type
                         _______ _______ _______ _____ _____    ______ ____

>  <TORSDO>
F 12

$$$$
=
 OpenBabel11062418533D

 37 39  0  0  1  0  0  0  0  0999 V2000
  191.3350  175.9920  147.2150 C   0  0  0  0  0  3  0  0  0  0  0  0
  192.9210  174.6250  146.0570 C   0  0  0  0  0  0  0  0  0  0  0  0
  192.0400  172.7780  144.6170 C   0  0  0  0  0  3  0  0  0  0  0  0
  192.5670  175.7430  146.8810 N   0  0  0  0  0  0  0  0  0  0  0  0
  191.8450  173.8670  145.3670 C   0  0  0  0  0  0  0  0  0  0  0  0
  190.2140  175.0670  146.8180 C   0  0  2  0  0  3  0  0  0  0  0  0
  194.1380  174.3290  145.9110 O   0  0  0  0  0  0  0  0  0  0  0  0
  190.4560  174.4210  145.4500 C   0  0  0  0  0  2  0  0  0  0  0  0
  188.8580  175.7620  146.8920 C   0  0  0  0  0  2  0  0  0  0  0  0
  188.9190  177.2040  146.4030 C   0  0  0  0  0  2  0  0  0  0  0  0
  185.1890  177.9020  145.7980 C   0  0  0  0  0  0  0  0  0  0  0  0
  185.2550  177.6640  142.0910 F   0  0  0  0  0  0  0  0  0  0  0  0
  184.2620  177.5370  146.5010 O   0  0  0  0  0  0  0  0  0  0  0  0
  187.3440  176.3150  144.7000 C   0  0  0  0  0  3  0  0  0  0  0  0
  187.7160  177.5160  145.5310 C   0  0  1  0  0  3  0  0  0  0  0  0
  184.8970  178.2900  144.3670 C   0  0  1  0  0  3  0  0  0  0  0  0
  184.7640  179.7970  144.2440 C   0  0  0  0  0  1  0  0  0  0  0  0
  186.5630  178.0030  146.4180 C   0  0  0  0  0  2  0  0  0  0  0  0
  185.8860  177.7590  143.3170 C   0  0  1  0  0  3  0  0  0  0  0  0
  186.4910  176.4280  143.6740 C   0  0  0  0  0  3  0  0  0  0  0  0
  193.3600  172.1180  144.3980 C   0  0  0  0  0  2  0  0  0  0  0  0
  193.7220  172.2030  142.9290 C   0  0  0  0  0  2  0  0  0  0  0  0
  193.2830  173.5390  142.3490 C   0  0  2  0  0  3  0  0  0  0  0  0
  191.7320  172.3000  140.8520 C   0  0  0  0  0  3  0  0  0  0  0  0
  192.5550  173.3320  141.0490 C   0  0  0  0  0  3  0  0  0  0  0  0
  189.2010  173.5640  136.7420 O   0  0  0  0  0  1  0  0  0  0  0  0
  191.0410  172.1140  139.5430 C   0  0  1  0  0  3  0  0  0  0  0  0
  189.7760  173.4040  139.3050 S   0  0  0  0  0  0  0  0  0  0  0  0
  191.2590  172.5020  137.2650 C   0  0  0  0  0  2  0  0  0  0  0  0
  192.0150  172.1960  138.4650 N   0  0  0  0  0  2  0  0  0  0  0  0
  190.3070  173.6270  137.5900 C   0  0  1  0  0  3  0  0  0  0  0  0
  194.4820  174.4730  142.1790 C   0  0  0  0  0  2  0  0  0  0  0  0
  194.0540  175.9010  142.1940 C   0  0  0  0  0  0  0  0  0  0  0  0
  194.4020  176.6650  141.2530 O   0  0  0  0  0  0  0  0  0  0  0  0
  193.3030  176.3790  143.2680 O   0  0  0  0  0  0  0  0  0  0  0  0
  192.0160  176.8840  143.1030 C   0  0  0  0  0  3  0  0  0  0  0  0
  191.5660  177.8260  143.9150 C   0  0  0  0  0  2  0  0  0  0  0  0
  2  4  1  0  0  0  0
  3  5  2  0  0  0  0
  4  1  2  0  0  0  0
  5  8  1  0  0  0  0
  5  2  1  0  0  0  0
  6  9  1  6  0  0  0
  6  1  1  0  0  0  0
  7  2  2  0  0  0  0
  8  6  1  0  0  0  0
 10  9  1  0  0  0  0
 11 18  1  0  0  0  0
 11 13  2  0  0  0  0
 14 15  1  0  0  0  0
 15 10  1  1  0  0  0
 15 18  1  0  0  0  0
 16 17  1  1  0  0  0
 16 11  1  0  0  0  0
 19 12  1  6  0  0  0
 19 20  1  0  0  0  0
 19 16  1  0  0  0  0
 20 14  2  0  0  0  0
 21  3  1  0  0  0  0
 22 21  1  0  0  0  0
 23 25  1  6  0  0  0
 23 22  1  0  0  0  0
 24 25  2  0  0  0  0
 27 24  1  1  0  0  0
 28 27  1  0  0  0  0
 29 31  1  0  0  0  0
 29 30  1  0  0  0  0
 30 27  1  0  0  0  0
 31 26  1  6  0  0  0
 31 28  1  0  0  0  0
 32 33  1  0  0  0  0
 32 23  1  0  0  0  0
 33 35  1  0  0  0  0
 34 33  2  0  0  0  0
 36 35  1  0  0  0  0
 36 37  2  0  0  0  0
M  END
>  <MODEL>
6

>  <REMARK>
 VINA RESULT:      -6.6      3.239      7.549
  Name = 
  12 active torsions:
  status: ('A' for Active; 'I' for Inactive)
    1  A    between atoms: C_2  and  C_29
    2  A    between atoms: C_2  and  C_34
    3  A    between atoms: O_6  and  C_7
    4  A    between atoms: O_6  and  C_17
    5  A    between atoms: C_8  and  C_17
    6  A    between atoms: C_8  and  C_29
    7  A    between atoms: C_9  and  C_28
    8  A    between atoms: C_11  and  C_15
    9  A    between atoms: C_11  and  C_16
   10  A    between atoms: C_15  and  C_24
   11  A    between atoms: C_19  and  C_34
   12  A    between atoms: C_29  and  C_35
                            x       y       z     vdW  Elec       q    Type
                         _______ _______ _______ _____ _____    ______ ____

>  <TORSDO>
F 12

$$$$
=
 OpenBabel11062418533D

 37 39  0  0  1  0  0  0  0  0999 V2000
  188.1400  174.0010  141.8880 C   0  0  0  0  0  3  0  0  0  0  0  0
  189.8480  172.6540  142.8840 C   0  0  0  0  0  0  0  0  0  0  0  0
  191.6170  173.8120  144.2240 C   0  0  0  0  0  3  0  0  0  0  0  0
  188.6260  172.8240  142.1560 N   0  0  0  0  0  0  0  0  0  0  0  0
  190.4570  173.8290  143.5600 C   0  0  0  0  0  0  0  0  0  0  0  0
  188.8830  175.2570  142.2610 C   0  0  2  0  0  3  0  0  0  0  0  0
  190.3630  171.5060  142.9620 O   0  0  0  0  0  0  0  0  0  0  0  0
  189.6630  175.1000  143.5690 C   0  0  0  0  0  2  0  0  0  0  0  0
  187.9580  176.4700  142.2880 C   0  0  0  0  0  2  0  0  0  0  0  0
  188.4520  177.5540  143.2400 C   0  0  0  0  0  2  0  0  0  0  0  0
  186.7520  177.2440  146.6720 C   0  0  0  0  0  0  0  0  0  0  0  0
  183.6250  179.0600  145.8210 F   0  0  0  0  0  0  0  0  0  0  0  0
  186.8170  176.2890  147.4270 O   0  0  0  0  0  0  0  0  0  0  0  0
  186.0640  177.2690  143.8630 C   0  0  0  0  0  3  0  0  0  0  0  0
  187.3800  177.8830  144.2640 C   0  0  1  0  0  3  0  0  0  0  0  0
  185.6120  178.2200  146.8450 C   0  0  1  0  0  3  0  0  0  0  0  0
  186.0640  179.4250  147.6500 C   0  0  0  0  0  1  0  0  0  0  0  0
  187.8500  177.4260  145.6510 C   0  0  0  0  0  2  0  0  0  0  0  0
  184.9260  178.6790  145.5480 C   0  0  1  0  0  3  0  0  0  0  0  0
  184.9250  177.6370  144.4620 C   0  0  0  0  0  3  0  0  0  0  0  0
  192.5130  172.6250  144.3440 C   0  0  0  0  0  2  0  0  0  0  0  0
  193.8390  173.0590  144.9350 C   0  0  0  0  0  2  0  0  0  0  0  0
  194.0060  174.5660  144.8170 C   0  0  2  0  0  3  0  0  0  0  0  0
  195.5390  173.9790  142.9490 C   0  0  0  0  0  3  0  0  0  0  0  0
  195.0460  174.8990  143.7830 C   0  0  0  0  0  3  0  0  0  0  0  0
  197.9410  173.9910  138.5760 O   0  0  0  0  0  1  0  0  0  0  0  0
  196.5850  174.3400  141.9480 C   0  0  1  0  0  3  0  0  0  0  0  0
  196.7680  173.0090  140.7170 S   0  0  0  0  0  0  0  0  0  0  0  0
  196.9570  175.5900  140.0300 C   0  0  0  0  0  2  0  0  0  0  0  0
  196.2050  175.5690  141.2700 N   0  0  0  0  0  2  0  0  0  0  0  0
  196.8300  174.2310  139.3850 C   0  0  1  0  0  3  0  0  0  0  0  0
  194.3490  175.1790  146.1750 C   0  0  0  0  0  2  0  0  0  0  0  0
  193.8080  176.5630  146.2900 C   0  0  0  0  0  0  0  0  0  0  0  0
  194.5370  177.4810  146.7550 O   0  0  0  0  0  0  0  0  0  0  0  0
  192.4880  176.8160  145.9120 O   0  0  0  0  0  0  0  0  0  0  0  0
  191.4060  176.3510  146.6540 C   0  0  0  0  0  3  0  0  0  0  0  0
  191.5430  176.1180  147.9490 C   0  0  0  0  0  2  0  0  0  0  0  0
  1  4  2  0  0  0  0
  1  6  1  0  0  0  0
  2  7  2  0  0  0  0
  2  5  1  0  0  0  0
  3 21  1  0  0  0  0
  4  2  1  0  0  0  0
  5  8  1  0  0  0  0
  5  3  2  0  0  0  0
  6  9  1  1  0  0  0
  6  8  1  0  0  0  0
  9 10  1  0  0  0  0
 11 16  1  0  0  0  0
 11 13  2  0  0  0  0
 14 15  1  0  0  0  0
 14 20  2  0  0  0  0
 15 10  1  6  0  0  0
 15 18  1  0  0  0  0
 16 17  1  6  0  0  0
 18 11  1  0  0  0  0
 19 12  1  1  0  0  0
 19 16  1  0  0  0  0
 20 19  1  0  0  0  0
 21 22  1  0  0  0  0
 23 25  1  6  0  0  0
 23 22  1  0  0  0  0
 23 32  1  0  0  0  0
 24 25  2  0  0  0  0
 27 24  1  1  0  0  0
 28 27  1  0  0  0  0
 29 30  1  0  0  0  0
 30 27  1  0  0  0  0
 31 26  1  6  0  0  0
 31 29  1  0  0  0  0
 31 28  1  0  0  0  0
 32 33  1  0  0  0  0
 33 34  2  0  0  0  0
 35 33  1  0  0  0  0
 35 36  1  0  0  0  0
 36 37  2  0  0  0  0
M  END
>  <MODEL>
7

>  <REMARK>
 VINA RESULT:      -6.6      3.801      8.456
  Name = 
  12 active torsions:
  status: ('A' for Active; 'I' for Inactive)
    1  A    between atoms: C_2  and  C_29
    2  A    between atoms: C_2  and  C_34
    3  A    between atoms: O_6  and  C_7
    4  A    between atoms: O_6  and  C_17
    5  A    between atoms: C_8  and  C_17
    6  A    between atoms: C_8  and  C_29
    7  A    between atoms: C_9  and  C_28
    8  A    between atoms: C_11  and  C_15
    9  A    between atoms: C_11  and  C_16
   10  A    between atoms: C_15  and  C_24
   11  A    between atoms: C_19  and  C_34
   12  A    between atoms: C_29  and  C_35
                            x       y       z     vdW  Elec       q    Type
                         _______ _______ _______ _____ _____    ______ ____

>  <TORSDO>
F 12

$$$$
=
 OpenBabel11062418533D

 37 39  0  0  1  0  0  0  0  0999 V2000
  190.8490  172.6370  140.7380 C   0  0  0  0  0  3  0  0  0  0  0  0
  189.0870  174.2570  140.7370 C   0  0  0  0  0  0  0  0  0  0  0  0
  188.2130  175.0330  142.9500 C   0  0  0  0  0  3  0  0  0  0  0  0
  190.0730  173.4480  140.0820 N   0  0  0  0  0  0  0  0  0  0  0  0
  189.1060  174.3570  142.2200 C   0  0  0  0  0  0  0  0  0  0  0  0
  190.6980  172.4420  142.2250 C   0  0  2  0  0  3  0  0  0  0  0  0
  188.2480  174.8880  140.0410 O   0  0  0  0  0  0  0  0  0  0  0  0
  190.2620  173.7270  142.9340 C   0  0  0  0  0  2  0  0  0  0  0  0
  191.9580  171.8450  142.8440 C   0  0  0  0  0  2  0  0  0  0  0  0
  192.0710  172.1490  144.3340 C   0  0  0  0  0  2  0  0  0  0  0  0
  195.8310  172.8840  144.0420 C   0  0  0  0  0  0  0  0  0  0  0  0
  196.9910  170.4630  146.6100 F   0  0  0  0  0  0  0  0  0  0  0  0
  196.4370  173.1550  143.0190 O   0  0  0  0  0  0  0  0  0  0  0  0
  194.0480  170.6600  144.5370 C   0  0  0  0  0  3  0  0  0  0  0  0
  193.5170  172.0480  144.7840 C   0  0  1  0  0  3  0  0  0  0  0  0
  196.6150  172.3730  145.2280 C   0  0  1  0  0  3  0  0  0  0  0  0
  196.9010  173.5040  146.2000 C   0  0  0  0  0  1  0  0  0  0  0  0
  194.3420  173.1330  144.0800 C   0  0  0  0  0  2  0  0  0  0  0  0
  195.9950  171.1800  145.9730 C   0  0  1  0  0  3  0  0  0  0  0  0
  195.2020  170.2590  145.0860 C   0  0  0  0  0  3  0  0  0  0  0  0
  187.0250  175.7470  142.3970 C   0  0  0  0  0  2  0  0  0  0  0  0
  187.3290  177.2300  142.3140 C   0  0  0  0  0  2  0  0  0  0  0  0
  186.9200  177.9300  143.6010 C   0  0  2  0  0  3  0  0  0  0  0  0
  189.2260  177.8030  144.5230 C   0  0  0  0  0  3  0  0  0  0  0  0
  187.9120  177.6390  144.6940 C   0  0  0  0  0  3  0  0  0  0  0  0
  191.3290  175.1690  148.2020 O   0  0  0  0  0  1  0  0  0  0  0  0
  190.1830  177.4850  145.6220 C   0  0  1  0  0  3  0  0  0  0  0  0
  189.4220  176.3340  146.8120 S   0  0  0  0  0  0  0  0  0  0  0  0
  192.0130  176.1620  146.1560 C   0  0  0  0  0  2  0  0  0  0  0  0
  191.3780  176.8730  145.0630 N   0  0  0  0  0  2  0  0  0  0  0  0
  190.9500  175.3670  146.8740 C   0  0  1  0  0  3  0  0  0  0  0  0
  185.5020  177.5270  144.0070 C   0  0  0  0  0  2  0  0  0  0  0  0
  184.7830  178.6660  144.6440 C   0  0  0  0  0  0  0  0  0  0  0  0
  184.8570  179.8150  144.1300 O   0  0  0  0  0  0  0  0  0  0  0  0
  184.0650  178.4510  145.8210 O   0  0  0  0  0  0  0  0  0  0  0  0
  184.6930  178.3190  147.0560 C   0  0  0  0  0  3  0  0  0  0  0  0
  185.7260  179.0890  147.3570 C   0  0  0  0  0  2  0  0  0  0  0  0
  1  6  1  0  0  0  0
  2  5  1  0  0  0  0
  4  2  1  0  0  0  0
  4  1  2  0  0  0  0
  5  8  1  0  0  0  0
  5  3  2  0  0  0  0
  6  9  1  1  0  0  0
  6  8  1  0  0  0  0
  7  2  2  0  0  0  0
  9 10  1  0  0  0  0
 11 18  1  0  0  0  0
 11 16  1  0  0  0  0
 13 11  2  0  0  0  0
 14 15  1  0  0  0  0
 14 20  2  0  0  0  0
 15 10  1  6  0  0  0
 16 19  1  0  0  0  0
 16 17  1  1  0  0  0
 18 15  1  0  0  0  0
 19 12  1  6  0  0  0
 20 19  1  0  0  0  0
 21  3  1  0  0  0  0
 22 21  1  0  0  0  0
 23 22  1  6  0  0  0
 23 32  1  0  0  0  0
 23 25  1  0  0  0  0
 24 25  2  0  0  0  0
 27 24  1  6  0  0  0
 27 28  1  0  0  0  0
 28 31  1  0  0  0  0
 29 31  1  0  0  0  0
 30 27  1  0  0  0  0
 30 29  1  0  0  0  0
 31 26  1  1  0  0  0
 32 33  1  0  0  0  0
 33 35  1  0  0  0  0
 34 33  2  0  0  0  0
 35 36  1  0  0  0  0
 36 37  2  0  0  0  0
M  END
>  <MODEL>
8

>  <REMARK>
 VINA RESULT:      -6.6      2.986      5.129
  Name = 
  12 active torsions:
  status: ('A' for Active; 'I' for Inactive)
    1  A    between atoms: C_2  and  C_29
    2  A    between atoms: C_2  and  C_34
    3  A    between atoms: O_6  and  C_7
    4  A    between atoms: O_6  and  C_17
    5  A    between atoms: C_8  and  C_17
    6  A    between atoms: C_8  and  C_29
    7  A    between atoms: C_9  and  C_28
    8  A    between atoms: C_11  and  C_15
    9  A    between atoms: C_11  and  C_16
   10  A    between atoms: C_15  and  C_24
   11  A    between atoms: C_19  and  C_34
   12  A    between atoms: C_29  and  C_35
                            x       y       z     vdW  Elec       q    Type
                         _______ _______ _______ _____ _____    ______ ____

>  <TORSDO>
F 12

$$$$
=
 OpenBabel11062418533D

 37 39  0  0  1  0  0  0  0  0999 V2000
  190.6940  171.7880  140.3170 C   0  0  0  0  0  3  0  0  0  0  0  0
  189.1380  173.6030  140.2110 C   0  0  0  0  0  0  0  0  0  0  0  0
  188.8490  175.0150  142.2570 C   0  0  0  0  0  3  0  0  0  0  0  0
  189.8740  172.5220  139.6240 N   0  0  0  0  0  0  0  0  0  0  0  0
  189.4910  174.0570  141.5820 C   0  0  0  0  0  0  0  0  0  0  0  0
  190.8550  171.9840  141.8020 C   0  0  2  0  0  3  0  0  0  0  0  0
  188.2310  174.1650  139.5410 O   0  0  0  0  0  0  0  0  0  0  0  0
  190.7100  173.4530  142.2100 C   0  0  0  0  0  2  0  0  0  0  0  0
  192.1560  171.3740  142.3120 C   0  0  0  0  0  2  0  0  0  0  0  0
  192.2940  171.4850  143.8270 C   0  0  0  0  0  2  0  0  0  0  0  0
  195.8010  172.0930  145.2750 C   0  0  0  0  0  0  0  0  0  0  0  0
  195.6980  175.8060  145.2310 F   0  0  0  0  0  0  0  0  0  0  0  0
  196.3560  171.4240  146.1300 O   0  0  0  0  0  0  0  0  0  0  0  0
  193.1530  173.2560  145.3420 C   0  0  0  0  0  3  0  0  0  0  0  0
  193.4890  172.3520  144.1850 C   0  0  1  0  0  3  0  0  0  0  0  0
  196.2910  173.5020  145.0350 C   0  0  1  0  0  3  0  0  0  0  0  0
  197.2380  173.5380  143.8490 C   0  0  0  0  0  1  0  0  0  0  0  0
  194.6980  171.4520  144.4660 C   0  0  0  0  0  2  0  0  0  0  0  0
  195.1970  174.5690  144.8710 C   0  0  1  0  0  3  0  0  0  0  0  0
  193.9500  174.2840  145.6630 C   0  0  0  0  0  3  0  0  0  0  0  0
  187.6430  175.7420  141.7660 C   0  0  0  0  0  2  0  0  0  0  0  0
  187.8520  177.2330  141.9450 C   0  0  0  0  0  2  0  0  0  0  0  0
  187.1390  177.7240  143.1960 C   0  0  2  0  0  3  0  0  0  0  0  0
  187.5870  176.6510  145.3940 C   0  0  0  0  0  3  0  0  0  0  0  0
  187.9820  177.4680  144.4150 C   0  0  0  0  0  3  0  0  0  0  0  0
  191.5260  175.1370  148.0570 O   0  0  0  0  0  1  0  0  0  0  0  0
  188.4410  176.4360  146.5990 C   0  0  1  0  0  3  0  0  0  0  0  0
  189.5200  174.9870  146.3600 S   0  0  0  0  0  0  0  0  0  0  0  0
  190.3720  177.1730  147.6530 C   0  0  0  0  0  2  0  0  0  0  0  0
  189.2640  177.6130  146.8260 N   0  0  0  0  0  2  0  0  0  0  0  0
  190.9190  175.8980  147.0580 C   0  0  1  0  0  3  0  0  0  0  0  0
  185.7600  177.0750  143.3210 C   0  0  0  0  0  2  0  0  0  0  0  0
  184.6910  178.1080  143.4300 C   0  0  0  0  0  0  0  0  0  0  0  0
  183.8180  178.1990  142.5260 O   0  0  0  0  0  0  0  0  0  0  0  0
  184.6930  178.9820  144.5180 O   0  0  0  0  0  0  0  0  0  0  0  0
  184.0670  178.6660  145.7210 C   0  0  0  0  0  3  0  0  0  0  0  0
  184.7860  178.5150  146.8210 C   0  0  0  0  0  2  0  0  0  0  0  0
  1  6  1  0  0  0  0
  2  5  1  0  0  0  0
  4  2  1  0  0  0  0
  4  1  2  0  0  0  0
  5  8  1  0  0  0  0
  5  3  2  0  0  0  0
  6  8  1  0  0  0  0
  6  9  1  6  0  0  0
  7  2  2  0  0  0  0
  9 10  1  0  0  0  0
 11 13  2  0  0  0  0
 14 20  2  0  0  0  0
 15 10  1  1  0  0  0
 15 18  1  0  0  0  0
 15 14  1  0  0  0  0
 16 17  1  6  0  0  0
 16 11  1  0  0  0  0
 18 11  1  0  0  0  0
 19 16  1  0  0  0  0
 19 12  1  1  0  0  0
 19 20  1  0  0  0  0
 21 22  1  0  0  0  0
 21  3  1  0  0  0  0
 23 22  1  6  0  0  0
 23 32  1  0  0  0  0
 23 25  1  0  0  0  0
 25 24  2  0  0  0  0
 27 24  1  6  0  0  0
 27 30  1  0  0  0  0
 28 27  1  0  0  0  0
 28 31  1  0  0  0  0
 30 29  1  0  0  0  0
 31 29  1  0  0  0  0
 31 26  1  1  0  0  0
 32 33  1  0  0  0  0
 33 35  1  0  0  0  0
 34 33  2  0  0  0  0
 35 36  1  0  0  0  0
 36 37  2  0  0  0  0
M  END
>  <MODEL>
9

>  <REMARK>
 VINA RESULT:      -6.6      2.370      4.912
  Name = 
  12 active torsions:
  status: ('A' for Active; 'I' for Inactive)
    1  A    between atoms: C_2  and  C_29
    2  A    between atoms: C_2  and  C_34
    3  A    between atoms: O_6  and  C_7
    4  A    between atoms: O_6  and  C_17
    5  A    between atoms: C_8  and  C_17
    6  A    between atoms: C_8  and  C_29
    7  A    between atoms: C_9  and  C_28
    8  A    between atoms: C_11  and  C_15
    9  A    between atoms: C_11  and  C_16
   10  A    between atoms: C_15  and  C_24
   11  A    between atoms: C_19  and  C_34
   12  A    between atoms: C_29  and  C_35
                            x       y       z     vdW  Elec       q    Type
                         _______ _______ _______ _____ _____    ______ ____

>  <TORSDO>
F 12

$$$$
