=
 OpenBabel11062420243D

 49 52  0  0  1  0  0  0  0  0999 V2000
  190.1960  175.2770  146.3300 C   0  0  0  0  0  0  0  0  0  0  0  0
  189.3110  176.2170  146.7310 C   0  0  1  0  0  3  0  0  0  0  0  0
  192.6700  173.7450  145.1670 C   0  0  0  0  0  3  0  0  0  0  0  0
  189.7500  177.4280  147.5250 C   0  0  0  0  0  2  0  0  0  0  0  0
  190.2450  173.1650  144.9020 C   0  0  0  0  0  0  0  0  0  0  0  0
  191.9320  176.3140  147.8670 C   0  0  0  0  0  3  0  0  0  0  0  0
  192.6350  174.7010  146.2780 C   0  0  0  0  0  3  0  0  0  0  0  0
  191.6780  173.1130  144.5470 C   0  0  0  0  0  0  0  0  0  0  0  0
  191.3840  178.0890  149.3040 O   0  0  0  0  0  1  0  0  0  0  0  0
  189.6470  174.1050  145.6300 C   0  0  0  0  0  3  0  0  0  0  0  0
  191.6080  175.3730  146.7850 C   0  0  0  0  0  0  0  0  0  0  0  0
  189.4250  172.1680  144.3930 O   0  0  0  0  0  1  0  0  0  0  0  0
  191.0590  177.2400  148.2510 C   0  0  1  0  0  3  0  0  0  0  0  0
  192.0830  172.2150  143.4220 C   0  0  0  0  0  2  0  0  0  0  0  0
  193.5990  172.1870  143.2680 C   0  0  0  0  0  2  0  0  0  0  0  0
  193.5570  172.9920  139.5810 C   0  0  0  0  0  0  0  0  0  0  0  0
  193.1540  172.8600  140.8470 C   0  0  0  0  0  3  0  0  0  0  0  0
  195.6910  174.5790  141.0950 C   0  0  0  0  0  0  0  0  0  0  0  0
  195.0070  173.0730  139.2300 C   0  0  0  0  0  2  0  0  0  0  0  0
  195.6360  174.3070  139.7900 C   0  0  0  0  0  3  0  0  0  0  0  0
  195.1130  173.7080  142.1420 C   0  0  0  0  0  3  0  0  0  0  0  0
  194.0320  172.9200  142.0390 C   0  0  0  0  0  0  0  0  0  0  0  0
  192.5920  172.9690  138.5270 N   0  0  0  0  0  0  0  0  0  0  0  0
  191.0310  172.8840  136.9480 C   0  0  1  0  0  3  0  0  0  0  0  0
  191.1780  173.3650  138.3580 C   0  0  0  0  0  2  0  0  0  0  0  0
  192.4930  172.5410  137.1170 C   0  0  2  0  0  3  0  0  0  0  0  0
  192.8570  171.0660  136.9680 C   0  0  0  0  0  1  0  0  0  0  0  0
  189.2390  171.6100  135.9750 O   0  0  0  0  0  0  0  0  0  0  0  0
  190.0590  171.7210  136.8820 C   0  0  0  0  0  3  0  0  0  0  0  0
  196.4790  175.7670  141.5340 C   0  0  0  0  0  2  0  0  0  0  0  0
  195.6990  176.5630  142.3840 O   0  0  0  0  0  0  0  0  0  0  0  0
  195.3590  176.5960  144.5170 C   0  0  0  0  0  1  0  0  0  0  0  0
  196.3540  176.5830  143.5280 O   0  0  0  0  0  0  0  0  0  0  0  0
  187.9610  176.0870  146.3700 O   0  0  0  0  0  0  0  0  0  0  0  0
  186.8990  176.7510  147.0500 C   0  0  0  0  0  2  0  0  0  0  0  0
  186.4330  177.5630  144.7100 N   0  0  0  0  0  2  0  0  0  0  0  0
  186.0660  177.5390  146.0910 C   0  0  0  0  0  0  0  0  0  0  0  0
  185.0320  178.1450  146.4990 O   0  0  0  0  0  0  0  0  0  0  0  0
  184.1880  178.0810  143.3570 O   0  0  0  0  0  0  0  0  0  0  0  0
  185.6120  178.5670  143.5340 P   0  0  1  0  0  0  0  0  0  0  0  0
  185.5990  180.1720  144.0800 O   0  0  0  0  0  1  0  0  0  0  0  0
  186.4970  178.4590  141.9430 C   0  0  2  0  0  3  0  0  0  0  0  0
  185.5870  178.1530  140.9290 O   0  0  0  0  0  1  0  0  0  0  0  0
  187.5800  177.3840  141.9830 C   0  0  0  0  0  2  0  0  0  0  0  0
  188.9740  177.9820  142.1580 C   0  0  0  0  0  2  0  0  0  0  0  0
  189.7310  177.2850  143.2760 C   0  0  0  0  0  2  0  0  0  0  0  0
  190.3340  175.2310  142.1030 O   0  0  0  0  0  0  0  0  0  0  0  0
  191.9360  176.5540  143.0130 O   0  0  0  0  0  0  0  0  0  0  0  0
  190.7340  176.3990  142.7060 N   0  0  0  0  0  0  0  0  0  0  0  0
  1  2  1  0  0  0  0
  1 11  1  0  0  0  0
  2 34  1  6  0  0  0
  2  4  1  0  0  0  0
  3  7  2  0  0  0  0
  4 13  1  0  0  0  0
  5 10  1  0  0  0  0
  6 13  1  0  0  0  0
  7 11  1  0  0  0  0
  8  5  2  0  0  0  0
  8  3  1  0  0  0  0
 10  1  2  0  0  0  0
 11  6  2  0  0  0  0
 12  5  1  0  0  0  0
 13  9  1  6  0  0  0
 14  8  1  0  0  0  0
 15 14  1  0  0  0  0
 16 17  2  0  0  0  0
 17 22  1  0  0  0  0
 18 30  1  0  0  0  0
 18 21  1  0  0  0  0
 19 16  1  0  0  0  0
 19 20  1  0  0  0  0
 20 18  2  0  0  0  0
 22 21  2  0  0  0  0
 22 15  1  0  0  0  0
 23 16  1  0  0  0  0
 24 29  1  1  0  0  0
 24 26  1  0  0  0  0
 24 25  1  0  0  0  0
 25 23  1  0  0  0  0
 26 27  1  1  0  0  0
 26 23  1  0  0  0  0
 28 29  2  0  0  0  0
 30 31  1  0  0  0  0
 31 33  1  0  0  0  0
 33 32  1  0  0  0  0
 34 35  1  0  0  0  0
 36 37  1  0  0  0  0
 37 38  2  0  0  0  0
 37 35  1  0  0  0  0
 40 39  2  6  0  0  0
 40 41  1  0  0  0  0
 40 36  1  0  0  0  0
 42 43  1  6  0  0  0
 42 44  1  0  0  0  0
 42 40  1  0  0  0  0
 44 45  1  0  0  0  0
 45 46  1  0  0  0  0
 47 49  2  0  0  0  0
 49 48  2  0  0  0  0
 49 46  1  0  0  0  0
M  END
>  <MODEL>
1

>  <REMARK>
 VINA RESULT:      -6.4      0.000      0.000
  Name = 
  17 active torsions:
  status: ('A' for Active; 'I' for Inactive)
    1  A    between atoms: C_1  and  C_32
    2  A    between atoms: C_1  and  C_47
    3  A    between atoms: N_2  and  C_3
    4  A    between atoms: N_4  and  P_28
    5  A    between atoms: C_6  and  C_31
    6  A    between atoms: C_8  and  C_18
    7  A    between atoms: C_8  and  P_28
    8  A    between atoms: C_9  and  C_48
    9  A    between atoms: C_10  and  O_42
   10  A    between atoms: O_15  and  O_20
   11  A    between atoms: O_15  and  C_37
   12  A    between atoms: C_18  and  C_25
   13  A    between atoms: C_19  and  C_37
   14  A    between atoms: C_25  and  C_35
   15  A    between atoms: N_30  and  C_35
   16  A    between atoms: C_31  and  O_42
   17  A    between atoms: C_32  and  C_36
                            x       y       z     vdW  Elec       q    Type
                         _______ _______ _______ _____ _____    ______ ____

>  <TORSDO>
F 17

$$$$
=
 OpenBabel11062420243D

 49 52  0  0  1  0  0  0  0  0999 V2000
  187.8880  177.1200  145.0090 C   0  0  0  0  0  0  0  0  0  0  0  0
  188.1330  177.5530  146.2650 C   0  0  1  0  0  3  0  0  0  0  0  0
  186.8780  175.5650  142.4820 C   0  0  0  0  0  3  0  0  0  0  0  0
  187.0160  177.7320  147.2710 C   0  0  0  0  0  2  0  0  0  0  0  0
  189.1840  176.4500  142.9170 C   0  0  0  0  0  0  0  0  0  0  0  0
  185.4070  177.4890  145.4090 C   0  0  0  0  0  3  0  0  0  0  0  0
  186.0830  176.2800  143.4850 C   0  0  0  0  0  3  0  0  0  0  0  0
  188.1860  175.5910  142.2460 C   0  0  0  0  0  0  0  0  0  0  0  0
  184.6240  178.4590  147.3990 O   0  0  0  0  0  1  0  0  0  0  0  0
  189.0380  177.0550  144.0930 C   0  0  0  0  0  3  0  0  0  0  0  0
  186.4790  176.9360  144.5690 C   0  0  0  0  0  0  0  0  0  0  0  0
  190.4120  176.6100  142.2920 O   0  0  0  0  0  1  0  0  0  0  0  0
  185.6550  177.9060  146.6470 C   0  0  1  0  0  3  0  0  0  0  0  0
  188.6650  174.7020  141.1430 C   0  0  0  0  0  2  0  0  0  0  0  0
  188.9210  173.2900  141.6560 C   0  0  0  0  0  2  0  0  0  0  0  0
  192.1710  173.1700  139.7410 C   0  0  0  0  0  0  0  0  0  0  0  0
  191.1330  173.6440  140.4350 C   0  0  0  0  0  3  0  0  0  0  0  0
  192.2350  171.4230  142.2530 C   0  0  0  0  0  0  0  0  0  0  0  0
  192.5510  171.7260  139.8000 C   0  0  0  0  0  2  0  0  0  0  0  0
  193.0060  171.3360  141.1680 C   0  0  0  0  0  3  0  0  0  0  0  0
  190.8490  171.9410  142.2390 C   0  0  0  0  0  3  0  0  0  0  0  0
  190.3400  172.8800  141.4250 C   0  0  0  0  0  0  0  0  0  0  0  0
  192.8840  174.0360  138.8560 N   0  0  0  0  0  0  0  0  0  0  0  0
  193.9890  175.3140  137.4120 C   0  0  1  0  0  3  0  0  0  0  0  0
  192.6850  174.5830  137.4980 C   0  0  0  0  0  2  0  0  0  0  0  0
  194.1490  174.7980  138.8230 C   0  0  2  0  0  3  0  0  0  0  0  0
  195.3440  173.8790  139.0680 C   0  0  0  0  0  1  0  0  0  0  0  0
  195.7420  175.3390  135.7680 O   0  0  0  0  0  0  0  0  0  0  0  0
  194.8770  174.6920  136.3510 C   0  0  0  0  0  3  0  0  0  0  0  0
  192.7540  170.8590  143.5330 C   0  0  0  0  0  2  0  0  0  0  0  0
  194.0710  171.2940  143.7400 O   0  0  0  0  0  0  0  0  0  0  0  0
  195.4150  172.0090  145.2720 C   0  0  0  0  0  1  0  0  0  0  0  0
  194.2250  171.2990  145.0490 O   0  0  0  0  0  0  0  0  0  0  0  0
  189.4560  177.8040  146.6590 O   0  0  0  0  0  0  0  0  0  0  0  0
  190.0590  177.2170  147.8090 C   0  0  0  0  0  2  0  0  0  0  0  0
  191.8730  176.4620  146.2310 N   0  0  0  0  0  2  0  0  0  0  0  0
  191.1050  176.2250  147.4130 C   0  0  0  0  0  0  0  0  0  0  0  0
  191.3240  175.2110  148.1380 O   0  0  0  0  0  0  0  0  0  0  0  0
  194.1520  175.1140  146.5930 O   0  0  0  0  0  1  0  0  0  0  0  0
  193.0200  175.2980  145.6030 P   0  0  1  0  0  0  0  0  0  0  0  0
  192.2340  173.8150  145.3610 O   0  0  0  0  0  0  0  0  0  0  0  0
  193.6840  175.9150  144.0210 C   0  0  2  0  0  3  0  0  0  0  0  0
  192.9970  177.0740  143.6540 O   0  0  0  0  0  1  0  0  0  0  0  0
  193.5350  174.8750  142.9130 C   0  0  0  0  0  2  0  0  0  0  0  0
  194.8870  174.3550  142.4310 C   0  0  0  0  0  2  0  0  0  0  0  0
  196.0250  175.2060  142.9700 C   0  0  0  0  0  2  0  0  0  0  0  0
  195.8580  176.9590  141.2790 O   0  0  0  0  0  0  0  0  0  0  0  0
  197.6540  175.5740  141.3340 O   0  0  0  0  0  0  0  0  0  0  0  0
  196.6080  175.9810  141.8860 N   0  0  0  0  0  0  0  0  0  0  0  0
  1  2  1  0  0  0  0
  2 34  1  1  0  0  0
  2  4  1  0  0  0  0
  3  7  2  0  0  0  0
  5 10  1  0  0  0  0
  6 13  1  0  0  0  0
  7 11  1  0  0  0  0
  8  3  1  0  0  0  0
  8  5  2  0  0  0  0
 10  1  2  0  0  0  0
 11  1  1  0  0  0  0
 11  6  2  0  0  0  0
 12  5  1  0  0  0  0
 13  4  1  0  0  0  0
 13  9  1  1  0  0  0
 14 15  1  0  0  0  0
 14  8  1  0  0  0  0
 16 19  1  0  0  0  0
 16 17  2  0  0  0  0
 17 22  1  0  0  0  0
 18 30  1  0  0  0  0
 19 20  1  0  0  0  0
 20 18  2  0  0  0  0
 21 18  1  0  0  0  0
 22 15  1  0  0  0  0
 22 21  2  0  0  0  0
 23 16  1  0  0  0  0
 24 29  1  6  0  0  0
 24 25  1  0  0  0  0
 24 26  1  0  0  0  0
 25 23  1  0  0  0  0
 26 23  1  0  0  0  0
 26 27  1  6  0  0  0
 28 29  2  0  0  0  0
 30 31  1  0  0  0  0
 31 33  1  0  0  0  0
 33 32  1  0  0  0  0
 34 35  1  0  0  0  0
 36 37  1  0  0  0  0
 37 35  1  0  0  0  0
 37 38  2  0  0  0  0
 40 41  2  6  0  0  0
 40 36  1  0  0  0  0
 40 39  1  0  0  0  0
 42 43  1  6  0  0  0
 42 40  1  0  0  0  0
 44 42  1  0  0  0  0
 45 44  1  0  0  0  0
 45 46  1  0  0  0  0
 47 49  2  0  0  0  0
 48 49  2  0  0  0  0
 49 46  1  0  0  0  0
M  END
>  <MODEL>
2

>  <REMARK>
 VINA RESULT:      -6.3      2.841      5.605
  Name = 
  17 active torsions:
  status: ('A' for Active; 'I' for Inactive)
    1  A    between atoms: C_1  and  C_32
    2  A    between atoms: C_1  and  C_47
    3  A    between atoms: N_2  and  C_3
    4  A    between atoms: N_4  and  P_28
    5  A    between atoms: C_6  and  C_31
    6  A    between atoms: C_8  and  C_18
    7  A    between atoms: C_8  and  P_28
    8  A    between atoms: C_9  and  C_48
    9  A    between atoms: C_10  and  O_42
   10  A    between atoms: O_15  and  O_20
   11  A    between atoms: O_15  and  C_37
   12  A    between atoms: C_18  and  C_25
   13  A    between atoms: C_19  and  C_37
   14  A    between atoms: C_25  and  C_35
   15  A    between atoms: N_30  and  C_35
   16  A    between atoms: C_31  and  O_42
   17  A    between atoms: C_32  and  C_36
                            x       y       z     vdW  Elec       q    Type
                         _______ _______ _______ _____ _____    ______ ____

>  <TORSDO>
F 17

$$$$
=
 OpenBabel11062420243D

 49 52  0  0  1  0  0  0  0  0999 V2000
  188.9240  176.6240  144.2240 C   0  0  0  0  0  0  0  0  0  0  0  0
  188.3340  176.9530  143.0540 C   0  0  1  0  0  3  0  0  0  0  0  0
  190.3710  176.6590  147.0040 C   0  0  0  0  0  3  0  0  0  0  0  0
  187.2860  178.0420  142.9770 C   0  0  0  0  0  2  0  0  0  0  0  0
  190.7860  175.1050  145.0800 C   0  0  0  0  0  0  0  0  0  0  0  0
  187.1760  178.0010  145.4470 C   0  0  0  0  0  3  0  0  0  0  0  0
  189.0760  177.2460  146.6480 C   0  0  0  0  0  3  0  0  0  0  0  0
  191.1280  175.7860  146.3470 C   0  0  0  0  0  0  0  0  0  0  0  0
  185.3870  178.9980  144.2990 O   0  0  0  0  0  1  0  0  0  0  0  0
  189.8740  175.5000  144.1950 C   0  0  0  0  0  3  0  0  0  0  0  0
  188.4440  177.2580  145.4800 C   0  0  0  0  0  0  0  0  0  0  0  0
  191.5130  173.9710  144.7480 O   0  0  0  0  0  1  0  0  0  0  0  0
  186.6060  178.3280  144.2920 C   0  0  1  0  0  3  0  0  0  0  0  0
  192.4200  175.4200  147.0040 C   0  0  0  0  0  2  0  0  0  0  0  0
  193.5420  176.3470  146.5500 C   0  0  0  0  0  2  0  0  0  0  0  0
  195.5090  173.3320  145.4170 C   0  0  0  0  0  0  0  0  0  0  0  0
  194.4780  174.1400  145.6750 C   0  0  0  0  0  3  0  0  0  0  0  0
  196.3000  175.8740  143.9070 C   0  0  0  0  0  0  0  0  0  0  0  0
  196.8960  173.8670  145.2590 C   0  0  0  0  0  2  0  0  0  0  0  0
  197.0070  174.7520  144.0610 C   0  0  0  0  0  3  0  0  0  0  0  0
  195.3040  176.3610  144.8860 C   0  0  0  0  0  3  0  0  0  0  0  0
  194.5300  175.6210  145.6960 C   0  0  0  0  0  0  0  0  0  0  0  0
  195.3050  171.9180  145.3740 N   0  0  0  0  0  0  0  0  0  0  0  0
  194.9690  169.7220  145.4050 C   0  0  1  0  0  3  0  0  0  0  0  0
  194.2410  170.9750  145.7780 C   0  0  0  0  0  2  0  0  0  0  0  0
  196.0210  170.7020  144.9410 C   0  0  2  0  0  3  0  0  0  0  0  0
  197.3820  170.5990  145.6260 C   0  0  0  0  0  1  0  0  0  0  0  0
  194.4280  168.2900  147.2590 O   0  0  0  0  0  0  0  0  0  0  0  0
  195.2930  168.9070  146.6430 C   0  0  0  0  0  3  0  0  0  0  0  0
  196.6140  176.7480  142.7400 C   0  0  0  0  0  2  0  0  0  0  0  0
  197.2490  175.9950  141.7430 O   0  0  0  0  0  0  0  0  0  0  0  0
  197.1220  175.3820  139.6760 C   0  0  0  0  0  1  0  0  0  0  0  0
  196.4540  176.0770  140.6950 O   0  0  0  0  0  0  0  0  0  0  0  0
  188.7300  176.2990  141.8770 O   0  0  0  0  0  0  0  0  0  0  0  0
  188.0790  175.1400  141.3660 C   0  0  0  0  0  2  0  0  0  0  0  0
  189.5550  173.1700  141.9070 N   0  0  0  0  0  2  0  0  0  0  0  0
  189.0790  174.1120  140.9430 C   0  0  0  0  0  0  0  0  0  0  0  0
  189.4660  174.0610  139.7390 O   0  0  0  0  0  0  0  0  0  0  0  0
  190.9690  171.0480  142.7050 O   0  0  0  0  0  1  0  0  0  0  0  0
  190.8280  172.0210  141.5520 P   0  0  1  0  0  0  0  0  0  0  0  0
  190.4360  171.1710  140.1380 O   0  0  0  0  0  0  0  0  0  0  0  0
  192.3940  172.9260  141.3200 C   0  0  2  0  0  3  0  0  0  0  0  0
  192.7920  172.8240  139.9850 O   0  0  0  0  0  1  0  0  0  0  0  0
  193.4970  172.3640  142.2140 C   0  0  0  0  0  2  0  0  0  0  0  0
  194.8890  172.6760  141.6700 C   0  0  0  0  0  2  0  0  0  0  0  0
  195.6360  171.4020  141.3140 C   0  0  0  0  0  2  0  0  0  0  0  0
  197.7970  172.1040  142.2070 O   0  0  0  0  0  0  0  0  0  0  0  0
  197.4930  171.8650  139.9720 O   0  0  0  0  0  0  0  0  0  0  0  0
  197.0480  171.7010  141.1280 N   0  0  0  0  0  0  0  0  0  0  0  0
  1 11  1  0  0  0  0
  2 34  1  6  0  0  0
  2  1  1  0  0  0  0
  4  2  1  0  0  0  0
  4 13  1  0  0  0  0
  5  8  2  0  0  0  0
  6 11  2  0  0  0  0
  7  3  2  0  0  0  0
  8 14  1  0  0  0  0
  8  3  1  0  0  0  0
 10  1  2  0  0  0  0
 10  5  1  0  0  0  0
 11  7  1  0  0  0  0
 12  5  1  0  0  0  0
 13  9  1  1  0  0  0
 13  6  1  0  0  0  0
 15 14  1  0  0  0  0
 16 17  2  0  0  0  0
 17 22  1  0  0  0  0
 18 20  2  0  0  0  0
 18 21  1  0  0  0  0
 19 16  1  0  0  0  0
 20 19  1  0  0  0  0
 21 22  2  0  0  0  0
 22 15  1  0  0  0  0
 23 16  1  0  0  0  0
 23 25  1  0  0  0  0
 24 25  1  0  0  0  0
 24 29  1  1  0  0  0
 26 23  1  0  0  0  0
 26 24  1  0  0  0  0
 26 27  1  1  0  0  0
 29 28  2  0  0  0  0
 30 18  1  0  0  0  0
 31 30  1  0  0  0  0
 32 33  1  0  0  0  0
 33 31  1  0  0  0  0
 35 34  1  0  0  0  0
 37 35  1  0  0  0  0
 37 36  1  0  0  0  0
 38 37  2  0  0  0  0
 40 41  2  6  0  0  0
 40 36  1  0  0  0  0
 40 39  1  0  0  0  0
 42 43  1  6  0  0  0
 42 40  1  0  0  0  0
 42 44  1  0  0  0  0
 45 44  1  0  0  0  0
 46 45  1  0  0  0  0
 48 49  2  0  0  0  0
 49 46  1  0  0  0  0
 49 47  2  0  0  0  0
M  END
>  <MODEL>
3

>  <REMARK>
 VINA RESULT:      -6.2      3.216      6.795
  Name = 
  17 active torsions:
  status: ('A' for Active; 'I' for Inactive)
    1  A    between atoms: C_1  and  C_32
    2  A    between atoms: C_1  and  C_47
    3  A    between atoms: N_2  and  C_3
    4  A    between atoms: N_4  and  P_28
    5  A    between atoms: C_6  and  C_31
    6  A    between atoms: C_8  and  C_18
    7  A    between atoms: C_8  and  P_28
    8  A    between atoms: C_9  and  C_48
    9  A    between atoms: C_10  and  O_42
   10  A    between atoms: O_15  and  O_20
   11  A    between atoms: O_15  and  C_37
   12  A    between atoms: C_18  and  C_25
   13  A    between atoms: C_19  and  C_37
   14  A    between atoms: C_25  and  C_35
   15  A    between atoms: N_30  and  C_35
   16  A    between atoms: C_31  and  O_42
   17  A    between atoms: C_32  and  C_36
                            x       y       z     vdW  Elec       q    Type
                         _______ _______ _______ _____ _____    ______ ____

>  <TORSDO>
F 17

$$$$
=
 OpenBabel11062420243D

 49 52  0  0  1  0  0  0  0  0999 V2000
  186.1020  177.5890  143.7760 C   0  0  0  0  0  0  0  0  0  0  0  0
  184.7980  177.9200  143.6510 C   0  0  1  0  0  3  0  0  0  0  0  0
  189.1850  177.5780  144.3350 C   0  0  0  0  0  3  0  0  0  0  0  0
  184.0490  178.6160  144.7680 C   0  0  0  0  0  2  0  0  0  0  0  0
  187.9820  176.6100  142.3590 C   0  0  0  0  0  0  0  0  0  0  0  0
  185.9520  178.0970  146.2600 C   0  0  0  0  0  3  0  0  0  0  0  0
  188.0920  177.7790  145.2890 C   0  0  0  0  0  3  0  0  0  0  0  0
  189.1630  177.1230  143.0860 C   0  0  0  0  0  0  0  0  0  0  0  0
  183.9080  178.6660  147.2670 O   0  0  0  0  0  1  0  0  0  0  0  0
  186.7080  176.8490  142.6580 C   0  0  0  0  0  3  0  0  0  0  0  0
  186.7800  177.8000  145.0830 C   0  0  0  0  0  0  0  0  0  0  0  0
  188.2140  175.8430  141.2260 O   0  0  0  0  0  1  0  0  0  0  0  0
  184.6710  178.4300  146.1290 C   0  0  1  0  0  3  0  0  0  0  0  0
  190.4840  177.0730  142.3880 C   0  0  0  0  0  2  0  0  0  0  0  0
  191.6270  177.2950  143.3710 C   0  0  0  0  0  2  0  0  0  0  0  0
  191.8520  173.5320  143.5680 C   0  0  0  0  0  0  0  0  0  0  0  0
  191.8340  174.7700  143.0660 C   0  0  0  0  0  3  0  0  0  0  0  0
  194.0280  174.9160  145.2150 C   0  0  0  0  0  0  0  0  0  0  0  0
  192.1590  173.2810  145.0080 C   0  0  0  0  0  2  0  0  0  0  0  0
  193.5600  173.6730  145.3450 C   0  0  0  0  0  3  0  0  0  0  0  0
  193.2280  176.0480  144.6970 C   0  0  0  0  0  3  0  0  0  0  0  0
  192.2390  175.9970  143.7910 C   0  0  0  0  0  0  0  0  0  0  0  0
  191.4870  172.4280  142.7360 N   0  0  0  0  0  0  0  0  0  0  0  0
  190.9400  170.7670  141.3650 C   0  0  1  0  0  3  0  0  0  0  0  0
  192.1140  171.6530  141.6460 C   0  0  0  0  0  2  0  0  0  0  0  0
  190.3360  171.5290  142.5220 C   0  0  2  0  0  3  0  0  0  0  0  0
  189.0710  172.3260  142.2120 C   0  0  0  0  0  1  0  0  0  0  0  0
  190.7380  170.4340  138.9930 O   0  0  0  0  0  0  0  0  0  0  0  0
  190.3750  171.0560  139.9870 C   0  0  0  0  0  3  0  0  0  0  0  0
  195.3970  175.2100  145.7280 C   0  0  0  0  0  2  0  0  0  0  0  0
  196.3450  174.9280  144.7350 O   0  0  0  0  0  0  0  0  0  0  0  0
  197.3400  175.7580  143.0070 C   0  0  0  0  0  1  0  0  0  0  0  0
  196.5440  176.0750  144.1180 O   0  0  0  0  0  0  0  0  0  0  0  0
  184.1330  177.6490  142.4460 O   0  0  0  0  0  0  0  0  0  0  0  0
  183.5940  178.6620  141.6010 C   0  0  0  0  0  2  0  0  0  0  0  0
  181.3760  178.1000  140.5440 N   0  0  0  0  0  2  0  0  0  0  0  0
  182.1000  178.6530  141.6460 C   0  0  0  0  0  0  0  0  0  0  0  0
  181.4930  179.0980  142.6630 O   0  0  0  0  0  0  0  0  0  0  0  0
  179.1780  177.5290  139.1370 O   0  0  0  0  0  0  0  0  0  0  0  0
  179.6300  178.1690  140.4330 P   0  0  1  0  0  0  0  0  0  0  0  0
  178.9530  177.3340  141.7430 O   0  0  0  0  0  1  0  0  0  0  0  0
  179.1040  179.9150  140.4690 C   0  0  2  0  0  3  0  0  0  0  0  0
  178.2200  180.1080  141.5330 O   0  0  0  0  0  1  0  0  0  0  0  0
  178.4130  180.3130  139.1670 C   0  0  0  0  0  2  0  0  0  0  0  0
  177.9400  181.7640  139.1910 C   0  0  0  0  0  2  0  0  0  0  0  0
  179.1120  182.7200  139.3430 C   0  0  0  0  0  2  0  0  0  0  0  0
  178.7420  183.1760  136.9730 O   0  0  0  0  0  0  0  0  0  0  0  0
  179.8090  184.6860  138.2870 O   0  0  0  0  0  0  0  0  0  0  0  0
  179.1520  183.6260  138.2050 N   0  0  0  0  0  0  0  0  0  0  0  0
  1 11  1  0  0  0  0
  2 34  1  6  0  0  0
  2  1  1  0  0  0  0
  2  4  1  0  0  0  0
  3  7  2  0  0  0  0
  4 13  1  0  0  0  0
  5 10  1  0  0  0  0
  5  8  2  0  0  0  0
  8  3  1  0  0  0  0
 10  1  2  0  0  0  0
 11  7  1  0  0  0  0
 11  6  2  0  0  0  0
 12  5  1  0  0  0  0
 13  6  1  0  0  0  0
 13  9  1  1  0  0  0
 14  8  1  0  0  0  0
 14 15  1  0  0  0  0
 15 22  1  0  0  0  0
 16 19  1  0  0  0  0
 17 16  2  0  0  0  0
 17 22  1  0  0  0  0
 18 20  2  0  0  0  0
 18 30  1  0  0  0  0
 19 20  1  0  0  0  0
 21 18  1  0  0  0  0
 22 21  2  0  0  0  0
 23 16  1  0  0  0  0
 24 29  1  6  0  0  0
 24 25  1  0  0  0  0
 24 26  1  0  0  0  0
 25 23  1  0  0  0  0
 26 27  1  6  0  0  0
 26 23  1  0  0  0  0
 28 29  2  0  0  0  0
 31 30  1  0  0  0  0
 32 33  1  0  0  0  0
 33 31  1  0  0  0  0
 35 37  1  0  0  0  0
 35 34  1  0  0  0  0
 36 37  1  0  0  0  0
 37 38  2  0  0  0  0
 40 39  2  6  0  0  0
 40 42  1  0  0  0  0
 40 36  1  0  0  0  0
 40 41  1  0  0  0  0
 42 43  1  1  0  0  0
 44 45  1  0  0  0  0
 44 42  1  0  0  0  0
 45 46  1  0  0  0  0
 47 49  2  0  0  0  0
 49 48  2  0  0  0  0
 49 46  1  0  0  0  0
M  END
>  <MODEL>
4

>  <REMARK>
 VINA RESULT:      -6.1      4.501      6.951
  Name = 
  17 active torsions:
  status: ('A' for Active; 'I' for Inactive)
    1  A    between atoms: C_1  and  C_32
    2  A    between atoms: C_1  and  C_47
    3  A    between atoms: N_2  and  C_3
    4  A    between atoms: N_4  and  P_28
    5  A    between atoms: C_6  and  C_31
    6  A    between atoms: C_8  and  C_18
    7  A    between atoms: C_8  and  P_28
    8  A    between atoms: C_9  and  C_48
    9  A    between atoms: C_10  and  O_42
   10  A    between atoms: O_15  and  O_20
   11  A    between atoms: O_15  and  C_37
   12  A    between atoms: C_18  and  C_25
   13  A    between atoms: C_19  and  C_37
   14  A    between atoms: C_25  and  C_35
   15  A    between atoms: N_30  and  C_35
   16  A    between atoms: C_31  and  O_42
   17  A    between atoms: C_32  and  C_36
                            x       y       z     vdW  Elec       q    Type
                         _______ _______ _______ _____ _____    ______ ____

>  <TORSDO>
F 17

$$$$
=
 OpenBabel11062420243D

 49 52  0  0  1  0  0  0  0  0999 V2000
  190.2380  175.3490  146.3940 C   0  0  0  0  0  0  0  0  0  0  0  0
  189.3380  176.2760  146.7870 C   0  0  1  0  0  3  0  0  0  0  0  0
  192.7340  173.8480  145.2370 C   0  0  0  0  0  3  0  0  0  0  0  0
  189.7590  177.5090  147.5580 C   0  0  0  0  0  2  0  0  0  0  0  0
  190.3190  173.2140  145.0000 C   0  0  0  0  0  0  0  0  0  0  0  0
  191.9650  176.4450  147.9000 C   0  0  0  0  0  3  0  0  0  0  0  0
  192.6880  174.8200  146.3320 C   0  0  0  0  0  3  0  0  0  0  0  0
  191.7510  173.1850  144.6350 C   0  0  0  0  0  0  0  0  0  0  0  0
  191.3920  178.2320  149.3120 O   0  0  0  0  0  1  0  0  0  0  0  0
  189.7080  174.1540  145.7170 C   0  0  0  0  0  3  0  0  0  0  0  0
  191.6520  175.4800  146.8360 C   0  0  0  0  0  0  0  0  0  0  0  0
  189.5150  172.1930  144.5140 O   0  0  0  0  0  1  0  0  0  0  0  0
  191.0760  177.3600  148.2760 C   0  0  1  0  0  3  0  0  0  0  0  0
  192.1650  172.2770  143.5210 C   0  0  0  0  0  2  0  0  0  0  0  0
  192.4550  173.0710  142.2530 C   0  0  0  0  0  2  0  0  0  0  0  0
  196.1040  172.3190  142.8550 C   0  0  0  0  0  0  0  0  0  0  0  0
  194.7870  172.1460  142.7190 C   0  0  0  0  0  3  0  0  0  0  0  0
  195.5970  173.4660  140.0630 C   0  0  0  0  0  0  0  0  0  0  0  0
  196.8010  173.4920  142.2450 C   0  0  0  0  0  2  0  0  0  0  0  0
  196.7390  173.4490  140.7540 C   0  0  0  0  0  3  0  0  0  0  0  0
  194.2570  173.5010  140.6900 C   0  0  0  0  0  3  0  0  0  0  0  0
  193.8950  172.9670  141.8670 C   0  0  0  0  0  0  0  0  0  0  0  0
  196.8540  171.4160  143.6700 N   0  0  0  0  0  0  0  0  0  0  0  0
  197.9410  169.9550  144.9440 C   0  0  1  0  0  3  0  0  0  0  0  0
  197.1890  169.9770  143.6500 C   0  0  0  0  0  2  0  0  0  0  0  0
  197.6430  171.4360  144.9180 C   0  0  2  0  0  3  0  0  0  0  0  0
  196.8110  171.9720  146.0810 C   0  0  0  0  0  1  0  0  0  0  0  0
  197.7820  168.5720  146.9030 O   0  0  0  0  0  0  0  0  0  0  0  0
  197.2000  169.1260  145.9750 C   0  0  0  0  0  3  0  0  0  0  0  0
  195.6740  173.5740  138.5780 C   0  0  0  0  0  2  0  0  0  0  0  0
  196.9560  173.9970  138.2010 O   0  0  0  0  0  0  0  0  0  0  0  0
  196.1770  173.1250  136.3850 C   0  0  0  0  0  1  0  0  0  0  0  0
  197.3050  173.1920  137.2170 O   0  0  0  0  0  0  0  0  0  0  0  0
  187.9880  176.1140  146.4390 O   0  0  0  0  0  0  0  0  0  0  0  0
  186.9140  176.7160  147.1560 C   0  0  0  0  0  2  0  0  0  0  0  0
  186.3450  177.5610  144.8510 N   0  0  0  0  0  2  0  0  0  0  0  0
  186.1050  177.5970  146.2600 C   0  0  0  0  0  0  0  0  0  0  0  0
  185.1990  178.3350  146.7450 O   0  0  0  0  0  0  0  0  0  0  0  0
  184.1380  178.1820  143.4790 O   0  0  0  0  0  0  0  0  0  0  0  0
  185.5550  178.6530  143.7320 P   0  0  1  0  0  0  0  0  0  0  0  0
  185.5230  180.2110  144.4000 O   0  0  0  0  0  1  0  0  0  0  0  0
  186.4860  178.6670  142.1630 C   0  0  2  0  0  3  0  0  0  0  0  0
  185.6700  178.1810  141.1390 O   0  0  0  0  0  1  0  0  0  0  0  0
  187.7400  177.8020  142.2550 C   0  0  0  0  0  2  0  0  0  0  0  0
  187.7170  176.6520  141.2500 C   0  0  0  0  0  2  0  0  0  0  0  0
  187.6470  175.3090  141.9570 C   0  0  0  0  0  2  0  0  0  0  0  0
  188.9280  173.2550  141.6400 O   0  0  0  0  0  0  0  0  0  0  0  0
  189.9760  175.2050  142.1360 O   0  0  0  0  0  0  0  0  0  0  0  0
  188.9190  174.6180  141.8160 N   0  0  0  0  0  0  0  0  0  0  0  0
  1  2  1  0  0  0  0
  1 11  1  0  0  0  0
  2 34  1  6  0  0  0
  2  4  1  0  0  0  0
  3  7  2  0  0  0  0
  4 13  1  0  0  0  0
  5 10  1  0  0  0  0
  6 13  1  0  0  0  0
  7 11  1  0  0  0  0
  8  5  2  0  0  0  0
  8  3  1  0  0  0  0
 10  1  2  0  0  0  0
 11  6  2  0  0  0  0
 12  5  1  0  0  0  0
 13  9  1  6  0  0  0
 14  8  1  0  0  0  0
 15 14  1  0  0  0  0
 16 23  1  0  0  0  0
 17 16  2  0  0  0  0
 18 21  1  0  0  0  0
 18 20  2  0  0  0  0
 19 16  1  0  0  0  0
 20 19  1  0  0  0  0
 21 22  2  0  0  0  0
 22 15  1  0  0  0  0
 22 17  1  0  0  0  0
 23 26  1  0  0  0  0
 24 29  1  1  0  0  0
 25 23  1  0  0  0  0
 25 24  1  0  0  0  0
 26 24  1  0  0  0  0
 26 27  1  1  0  0  0
 29 28  2  0  0  0  0
 30 18  1  0  0  0  0
 31 30  1  0  0  0  0
 32 33  1  0  0  0  0
 33 31  1  0  0  0  0
 34 35  1  0  0  0  0
 36 37  1  0  0  0  0
 37 38  2  0  0  0  0
 37 35  1  0  0  0  0
 40 39  2  6  0  0  0
 40 41  1  0  0  0  0
 40 36  1  0  0  0  0
 42 43  1  6  0  0  0
 42 44  1  0  0  0  0
 42 40  1  0  0  0  0
 45 46  1  0  0  0  0
 45 44  1  0  0  0  0
 47 49  2  0  0  0  0
 49 46  1  0  0  0  0
 49 48  2  0  0  0  0
M  END
>  <MODEL>
5

>  <REMARK>
 VINA RESULT:      -6.1      2.666      4.578
  Name = 
  17 active torsions:
  status: ('A' for Active; 'I' for Inactive)
    1  A    between atoms: C_1  and  C_32
    2  A    between atoms: C_1  and  C_47
    3  A    between atoms: N_2  and  C_3
    4  A    between atoms: N_4  and  P_28
    5  A    between atoms: C_6  and  C_31
    6  A    between atoms: C_8  and  C_18
    7  A    between atoms: C_8  and  P_28
    8  A    between atoms: C_9  and  C_48
    9  A    between atoms: C_10  and  O_42
   10  A    between atoms: O_15  and  O_20
   11  A    between atoms: O_15  and  C_37
   12  A    between atoms: C_18  and  C_25
   13  A    between atoms: C_19  and  C_37
   14  A    between atoms: C_25  and  C_35
   15  A    between atoms: N_30  and  C_35
   16  A    between atoms: C_31  and  O_42
   17  A    between atoms: C_32  and  C_36
                            x       y       z     vdW  Elec       q    Type
                         _______ _______ _______ _____ _____    ______ ____

>  <TORSDO>
F 17

$$$$
=
 OpenBabel11062420243D

 49 52  0  0  1  0  0  0  0  0999 V2000
  192.2590  174.6780  144.8490 C   0  0  0  0  0  0  0  0  0  0  0  0
  191.9380  175.9820  144.7040 C   0  0  1  0  0  3  0  0  0  0  0  0
  193.6830  171.8860  144.8230 C   0  0  0  0  0  3  0  0  0  0  0  0
  192.9110  177.0810  145.0770 C   0  0  0  0  0  2  0  0  0  0  0  0
  191.2780  172.3840  144.3170 C   0  0  0  0  0  0  0  0  0  0  0  0
  194.2850  175.3680  146.2150 C   0  0  0  0  0  3  0  0  0  0  0  0
  194.1170  173.1190  145.4850 C   0  0  0  0  0  3  0  0  0  0  0  0
  192.5070  171.5650  144.2920 C   0  0  0  0  0  0  0  0  0  0  0  0
  194.6670  177.6160  146.7790 O   0  0  0  0  0  1  0  0  0  0  0  0
  191.2110  173.6970  144.5260 C   0  0  0  0  0  3  0  0  0  0  0  0
  193.5440  174.3170  145.5050 C   0  0  0  0  0  0  0  0  0  0  0  0
  190.0770  171.7420  144.0530 O   0  0  0  0  0  1  0  0  0  0  0  0
  193.9690  176.6510  146.0610 C   0  0  1  0  0  3  0  0  0  0  0  0
  192.4240  170.2080  143.6680 C   0  0  0  0  0  2  0  0  0  0  0  0
  193.6290  169.9480  142.7710 C   0  0  0  0  0  2  0  0  0  0  0  0
  191.6900  171.3280  139.8420 C   0  0  0  0  0  0  0  0  0  0  0  0
  192.1420  171.1580  141.0870 C   0  0  0  0  0  3  0  0  0  0  0  0
  194.7150  171.5840  139.4600 C   0  0  0  0  0  0  0  0  0  0  0  0
  192.4700  170.8540  138.6590 C   0  0  0  0  0  2  0  0  0  0  0  0
  193.7610  171.5930  138.5260 C   0  0  0  0  0  3  0  0  0  0  0  0
  194.5980  170.8670  140.7480 C   0  0  0  0  0  3  0  0  0  0  0  0
  193.4790  170.6350  141.4520 C   0  0  0  0  0  0  0  0  0  0  0  0
  190.3950  171.8970  139.6330 N   0  0  0  0  0  0  0  0  0  0  0  0
  188.4210  172.8390  139.2390 C   0  0  1  0  0  3  0  0  0  0  0  0
  189.4870  172.1060  138.4860 C   0  0  0  0  0  2  0  0  0  0  0  0
  189.3320  172.5620  140.4130 C   0  0  2  0  0  3  0  0  0  0  0  0
  189.8770  173.7890  141.1400 C   0  0  0  0  0  1  0  0  0  0  0  0
  187.6840  174.5960  137.7740 O   0  0  0  0  0  0  0  0  0  0  0  0
  188.3310  174.2770  138.7670 C   0  0  0  0  0  3  0  0  0  0  0  0
  196.0190  172.2350  139.1400 C   0  0  0  0  0  2  0  0  0  0  0  0
  195.8080  173.5850  138.8270 O   0  0  0  0  0  0  0  0  0  0  0  0
  195.0020  175.2260  139.9770 C   0  0  0  0  0  1  0  0  0  0  0  0
  195.9900  174.2310  139.9620 O   0  0  0  0  0  0  0  0  0  0  0  0
  190.6930  176.3270  144.1580 O   0  0  0  0  0  0  0  0  0  0  0  0
  190.0290  177.5580  144.4300 C   0  0  0  0  0  2  0  0  0  0  0  0
  187.6330  178.0590  145.0300 N   0  0  0  0  0  2  0  0  0  0  0  0
  188.8370  177.3370  145.3040 C   0  0  0  0  0  0  0  0  0  0  0  0
  188.8880  176.4970  146.2490 O   0  0  0  0  0  0  0  0  0  0  0  0
  185.6450  176.5850  146.0370 O   0  0  0  0  0  0  0  0  0  0  0  0
  186.2300  177.9820  146.0740 P   0  0  1  0  0  0  0  0  0  0  0  0
  186.6920  178.3610  147.6610 O   0  0  0  0  0  1  0  0  0  0  0  0
  184.9880  179.1810  145.4850 C   0  0  2  0  0  3  0  0  0  0  0  0
  183.7120  178.7280  145.8260 O   0  0  0  0  0  1  0  0  0  0  0  0
  185.0650  179.3600  143.9700 C   0  0  0  0  0  2  0  0  0  0  0  0
  184.3910  178.2120  143.2230 C   0  0  0  0  0  2  0  0  0  0  0  0
  184.6240  178.3220  141.7260 C   0  0  0  0  0  2  0  0  0  0  0  0
  186.1320  177.4230  140.0290 O   0  0  0  0  0  0  0  0  0  0  0  0
  186.2590  176.7130  142.1800 O   0  0  0  0  0  0  0  0  0  0  0  0
  185.7800  177.5200  141.3540 N   0  0  0  0  0  0  0  0  0  0  0  0
  1 11  1  0  0  0  0
  2 34  1  6  0  0  0
  2  1  1  0  0  0  0
  2  4  1  0  0  0  0
  3  7  2  0  0  0  0
  4 13  1  0  0  0  0
  5 10  1  0  0  0  0
  7 11  1  0  0  0  0
  8  5  2  0  0  0  0
  8  3  1  0  0  0  0
 10  1  2  0  0  0  0
 11  6  2  0  0  0  0
 12  5  1  0  0  0  0
 13  6  1  0  0  0  0
 13  9  1  6  0  0  0
 14  8  1  0  0  0  0
 15 14  1  0  0  0  0
 16 17  2  0  0  0  0
 17 22  1  0  0  0  0
 18 21  1  0  0  0  0
 19 16  1  0  0  0  0
 20 19  1  0  0  0  0
 20 18  2  0  0  0  0
 21 22  2  0  0  0  0
 22 15  1  0  0  0  0
 23 16  1  0  0  0  0
 23 26  1  0  0  0  0
 24 29  1  6  0  0  0
 24 26  1  0  0  0  0
 25 24  1  0  0  0  0
 25 23  1  0  0  0  0
 26 27  1  6  0  0  0
 28 29  2  0  0  0  0
 30 18  1  0  0  0  0
 31 30  1  0  0  0  0
 31 33  1  0  0  0  0
 33 32  1  0  0  0  0
 34 35  1  0  0  0  0
 35 37  1  0  0  0  0
 36 37  1  0  0  0  0
 36 40  1  0  0  0  0
 37 38  2  0  0  0  0
 40 39  2  6  0  0  0
 40 41  1  0  0  0  0
 42 43  1  6  0  0  0
 42 40  1  0  0  0  0
 44 42  1  0  0  0  0
 45 44  1  0  0  0  0
 46 45  1  0  0  0  0
 47 49  2  0  0  0  0
 49 46  1  0  0  0  0
 49 48  2  0  0  0  0
M  END
>  <MODEL>
6

>  <REMARK>
 VINA RESULT:      -6.1      2.314      3.642
  Name = 
  17 active torsions:
  status: ('A' for Active; 'I' for Inactive)
    1  A    between atoms: C_1  and  C_32
    2  A    between atoms: C_1  and  C_47
    3  A    between atoms: N_2  and  C_3
    4  A    between atoms: N_4  and  P_28
    5  A    between atoms: C_6  and  C_31
    6  A    between atoms: C_8  and  C_18
    7  A    between atoms: C_8  and  P_28
    8  A    between atoms: C_9  and  C_48
    9  A    between atoms: C_10  and  O_42
   10  A    between atoms: O_15  and  O_20
   11  A    between atoms: O_15  and  C_37
   12  A    between atoms: C_18  and  C_25
   13  A    between atoms: C_19  and  C_37
   14  A    between atoms: C_25  and  C_35
   15  A    between atoms: N_30  and  C_35
   16  A    between atoms: C_31  and  O_42
   17  A    between atoms: C_32  and  C_36
                            x       y       z     vdW  Elec       q    Type
                         _______ _______ _______ _____ _____    ______ ____

>  <TORSDO>
F 17

$$$$
=
 OpenBabel11062420243D

 49 52  0  0  1  0  0  0  0  0999 V2000
  194.0050  175.8930  144.1780 C   0  0  0  0  0  0  0  0  0  0  0  0
  194.7430  175.5850  143.0890 C   0  0  1  0  0  3  0  0  0  0  0  0
  192.3460  175.8140  146.8350 C   0  0  0  0  0  3  0  0  0  0  0  0
  195.9610  174.6920  143.1860 C   0  0  0  0  0  2  0  0  0  0  0  0
  191.8490  177.1260  144.7570 C   0  0  0  0  0  0  0  0  0  0  0  0
  195.8440  174.9340  145.6450 C   0  0  0  0  0  3  0  0  0  0  0  0
  193.7460  175.4350  146.6300 C   0  0  0  0  0  3  0  0  0  0  0  0
  191.5150  176.4920  146.0500 C   0  0  0  0  0  0  0  0  0  0  0  0
  197.8680  174.1800  144.7240 O   0  0  0  0  0  1  0  0  0  0  0  0
  192.8880  176.8300  143.9800 C   0  0  0  0  0  3  0  0  0  0  0  0
  194.4720  175.4470  145.5180 C   0  0  0  0  0  0  0  0  0  0  0  0
  190.9750  178.0900  144.2740 O   0  0  0  0  0  1  0  0  0  0  0  0
  196.5610  174.6260  144.5680 C   0  0  1  0  0  3  0  0  0  0  0  0
  190.1270  176.6760  146.5750 C   0  0  0  0  0  2  0  0  0  0  0  0
  189.2830  175.4320  146.3260 C   0  0  0  0  0  2  0  0  0  0  0  0
  189.9260  174.0760  142.8630 C   0  0  0  0  0  0  0  0  0  0  0  0
  189.6420  174.1190  144.1670 C   0  0  0  0  0  3  0  0  0  0  0  0
  187.5580  176.0130  142.9330 C   0  0  0  0  0  0  0  0  0  0  0  0
  189.7410  175.2710  141.9860 C   0  0  0  0  0  2  0  0  0  0  0  0
  188.3010  175.6560  141.8840 C   0  0  0  0  0  3  0  0  0  0  0  0
  188.0600  176.0450  144.3250 C   0  0  0  0  0  3  0  0  0  0  0  0
  188.9980  175.2540  144.8690 C   0  0  0  0  0  0  0  0  0  0  0  0
  190.4990  172.8910  142.3050 N   0  0  0  0  0  0  0  0  0  0  0  0
  191.3460  170.9980  141.5080 C   0  0  1  0  0  3  0  0  0  0  0  0
  190.0050  171.5880  141.8140 C   0  0  0  0  0  2  0  0  0  0  0  0
  191.8310  172.3570  141.9550 C   0  0  2  0  0  3  0  0  0  0  0  0
  192.7600  172.3720  143.1670 C   0  0  0  0  0  1  0  0  0  0  0  0
  191.6160  168.6680  142.0360 O   0  0  0  0  0  0  0  0  0  0  0  0
  191.6360  169.8300  142.4320 C   0  0  0  0  0  3  0  0  0  0  0  0
  186.1790  176.5220  142.6790 C   0  0  0  0  0  2  0  0  0  0  0  0
  186.1650  177.2750  141.4960 O   0  0  0  0  0  0  0  0  0  0  0  0
  184.7800  178.2510  142.8350 C   0  0  0  0  0  1  0  0  0  0  0  0
  184.9980  177.8890  141.4980 O   0  0  0  0  0  0  0  0  0  0  0  0
  194.3490  176.0710  141.8330 O   0  0  0  0  0  0  0  0  0  0  0  0
  193.6530  175.2860  140.8690 C   0  0  0  0  0  2  0  0  0  0  0  0
  193.8080  174.7730  138.4070 N   0  0  0  0  0  2  0  0  0  0  0  0
  194.4660  175.1290  139.6250 C   0  0  0  0  0  0  0  0  0  0  0  0
  195.7130  175.3420  139.6500 O   0  0  0  0  0  0  0  0  0  0  0  0
  195.4410  175.6580  136.4860 O   0  0  0  0  0  0  0  0  0  0  0  0
  194.6820  174.4250  136.9300 P   0  0  1  0  0  0  0  0  0  0  0  0
  195.7750  173.1590  137.2120 O   0  0  0  0  0  1  0  0  0  0  0  0
  193.4900  173.9400  135.6370 C   0  0  2  0  0  3  0  0  0  0  0  0
  194.1850  173.4510  134.5300 O   0  0  0  0  0  1  0  0  0  0  0  0
  192.6310  175.1250  135.2030 C   0  0  0  0  0  2  0  0  0  0  0  0
  191.2830  175.1480  135.9210 C   0  0  0  0  0  2  0  0  0  0  0  0
  190.8730  173.7530  136.3600 C   0  0  0  0  0  2  0  0  0  0  0  0
  190.6300  173.5980  138.7840 O   0  0  0  0  0  0  0  0  0  0  0  0
  188.8100  173.8520  137.4540 O   0  0  0  0  0  0  0  0  0  0  0  0
  190.0560  173.8410  137.5600 N   0  0  0  0  0  0  0  0  0  0  0  0
  1 11  1  0  0  0  0
  2 34  1  6  0  0  0
  2  4  1  0  0  0  0
  2  1  1  0  0  0  0
  4 13  1  0  0  0  0
  5  8  2  0  0  0  0
  7  3  2  0  0  0  0
  8 14  1  0  0  0  0
  8  3  1  0  0  0  0
 10  1  2  0  0  0  0
 10  5  1  0  0  0  0
 11  6  2  0  0  0  0
 11  7  1  0  0  0  0
 12  5  1  0  0  0  0
 13  9  1  1  0  0  0
 13  6  1  0  0  0  0
 15 14  1  0  0  0  0
 16 17  2  0  0  0  0
 17 22  1  0  0  0  0
 18 21  1  0  0  0  0
 19 16  1  0  0  0  0
 20 19  1  0  0  0  0
 20 18  2  0  0  0  0
 21 22  2  0  0  0  0
 22 15  1  0  0  0  0
 23 16  1  0  0  0  0
 24 25  1  0  0  0  0
 24 26  1  0  0  0  0
 24 29  1  1  0  0  0
 25 23  1  0  0  0  0
 26 23  1  0  0  0  0
 26 27  1  1  0  0  0
 28 29  2  0  0  0  0
 30 18  1  0  0  0  0
 31 33  1  0  0  0  0
 31 30  1  0  0  0  0
 33 32  1  0  0  0  0
 35 34  1  0  0  0  0
 36 37  1  0  0  0  0
 37 38  2  0  0  0  0
 37 35  1  0  0  0  0
 40 39  2  6  0  0  0
 40 41  1  0  0  0  0
 40 36  1  0  0  0  0
 42 43  1  6  0  0  0
 42 40  1  0  0  0  0
 44 42  1  0  0  0  0
 44 45  1  0  0  0  0
 45 46  1  0  0  0  0
 46 49  1  0  0  0  0
 48 49  2  0  0  0  0
 49 47  2  0  0  0  0
M  END
>  <MODEL>
7

>  <REMARK>
 VINA RESULT:      -6.0      3.099      7.870
  Name = 
  17 active torsions:
  status: ('A' for Active; 'I' for Inactive)
    1  A    between atoms: C_1  and  C_32
    2  A    between atoms: C_1  and  C_47
    3  A    between atoms: N_2  and  C_3
    4  A    between atoms: N_4  and  P_28
    5  A    between atoms: C_6  and  C_31
    6  A    between atoms: C_8  and  C_18
    7  A    between atoms: C_8  and  P_28
    8  A    between atoms: C_9  and  C_48
    9  A    between atoms: C_10  and  O_42
   10  A    between atoms: O_15  and  O_20
   11  A    between atoms: O_15  and  C_37
   12  A    between atoms: C_18  and  C_25
   13  A    between atoms: C_19  and  C_37
   14  A    between atoms: C_25  and  C_35
   15  A    between atoms: N_30  and  C_35
   16  A    between atoms: C_31  and  O_42
   17  A    between atoms: C_32  and  C_36
                            x       y       z     vdW  Elec       q    Type
                         _______ _______ _______ _____ _____    ______ ____

>  <TORSDO>
F 17

$$$$
=
 OpenBabel11062420243D

 49 52  0  0  1  0  0  0  0  0999 V2000
  185.9440  177.5670  143.2210 C   0  0  0  0  0  0  0  0  0  0  0  0
  184.7200  178.0270  142.8780 C   0  0  1  0  0  3  0  0  0  0  0  0
  188.8810  177.2580  144.2690 C   0  0  0  0  0  3  0  0  0  0  0  0
  183.8870  178.8480  143.8400 C   0  0  0  0  0  2  0  0  0  0  0  0
  187.9030  176.3330  142.1530 C   0  0  0  0  0  0  0  0  0  0  0  0
  185.4630  178.2000  145.6330 C   0  0  0  0  0  3  0  0  0  0  0  0
  187.6800  177.6160  145.0290 C   0  0  0  0  0  3  0  0  0  0  0  0
  189.0040  176.7510  143.0460 C   0  0  0  0  0  0  0  0  0  0  0  0
  183.3620  179.0260  146.2810 O   0  0  0  0  0  1  0  0  0  0  0  0
  186.6320  176.7170  142.2370 C   0  0  0  0  0  3  0  0  0  0  0  0
  186.4280  177.7650  144.6130 C   0  0  0  0  0  0  0  0  0  0  0  0
  188.2240  175.4950  141.0940 O   0  0  0  0  0  1  0  0  0  0  0  0
  184.2640  178.6590  145.2880 C   0  0  1  0  0  3  0  0  0  0  0  0
  190.4050  176.5310  142.5720 C   0  0  0  0  0  2  0  0  0  0  0  0
  191.3990  176.7070  143.7130 C   0  0  0  0  0  2  0  0  0  0  0  0
  191.9800  172.9780  143.6970 C   0  0  0  0  0  0  0  0  0  0  0  0
  191.7460  174.2190  143.2640 C   0  0  0  0  0  3  0  0  0  0  0  0
  194.3460  174.5200  144.8760 C   0  0  0  0  0  0  0  0  0  0  0  0
  192.6230  172.7250  145.0220 C   0  0  0  0  0  2  0  0  0  0  0  0
  194.0260  173.2370  145.0550 C   0  0  0  0  0  3  0  0  0  0  0  0
  193.3570  175.5840  144.5970 C   0  0  0  0  0  3  0  0  0  0  0  0
  192.1980  175.4620  143.9320 C   0  0  0  0  0  0  0  0  0  0  0  0
  191.5320  171.8640  142.9220 N   0  0  0  0  0  0  0  0  0  0  0  0
  190.9100  170.1480  141.6540 C   0  0  1  0  0  3  0  0  0  0  0  0
  192.1240  170.6160  142.3940 C   0  0  0  0  0  2  0  0  0  0  0  0
  190.3030  171.3960  142.2510 C   0  0  2  0  0  3  0  0  0  0  0  0
  189.7950  172.4370  141.2560 C   0  0  0  0  0  1  0  0  0  0  0  0
  190.4690  169.5150  139.3770 O   0  0  0  0  0  0  0  0  0  0  0  0
  191.1630  170.1600  140.1580 C   0  0  0  0  0  3  0  0  0  0  0  0
  195.7660  174.9270  145.0850 C   0  0  0  0  0  2  0  0  0  0  0  0
  196.1090  175.9300  144.1690 O   0  0  0  0  0  0  0  0  0  0  0  0
  197.9180  175.6760  143.0160 C   0  0  0  0  0  1  0  0  0  0  0  0
  196.5740  175.2860  143.1170 O   0  0  0  0  0  0  0  0  0  0  0  0
  184.2270  177.7730  141.5900 O   0  0  0  0  0  0  0  0  0  0  0  0
  183.4640  178.7150  140.8410 C   0  0  0  0  0  2  0  0  0  0  0  0
  180.9870  178.9940  141.2070 N   0  0  0  0  0  2  0  0  0  0  0  0
  182.0620  178.2340  140.6510 C   0  0  0  0  0  0  0  0  0  0  0  0
  181.8360  177.1870  139.9770 O   0  0  0  0  0  0  0  0  0  0  0  0
  179.1880  177.1770  141.9820 O   0  0  0  0  0  1  0  0  0  0  0  0
  179.3240  178.4450  141.1650 P   0  0  1  0  0  0  0  0  0  0  0  0
  178.3220  179.6480  141.8150 O   0  0  0  0  0  0  0  0  0  0  0  0
  178.8540  178.1130  139.4350 C   0  0  2  0  0  3  0  0  0  0  0  0
  178.0370  179.1460  138.9720 O   0  0  0  0  0  1  0  0  0  0  0  0
  178.1040  176.7890  139.3080 C   0  0  0  0  0  2  0  0  0  0  0  0
  178.1400  176.2440  137.8830 C   0  0  0  0  0  2  0  0  0  0  0  0
  179.5640  175.9460  137.4460 C   0  0  0  0  0  2  0  0  0  0  0  0
  181.0660  174.0250  137.3220 O   0  0  0  0  0  0  0  0  0  0  0  0
  178.8150  173.7360  137.3120 O   0  0  0  0  0  0  0  0  0  0  0  0
  179.7870  174.5090  137.4600 N   0  0  0  0  0  0  0  0  0  0  0  0
  1 11  1  0  0  0  0
  2 34  1  6  0  0  0
  2  1  1  0  0  0  0
  2  4  1  0  0  0  0
  3  7  2  0  0  0  0
  4 13  1  0  0  0  0
  5 10  1  0  0  0  0
  5  8  2  0  0  0  0
  8  3  1  0  0  0  0
 10  1  2  0  0  0  0
 11  7  1  0  0  0  0
 11  6  2  0  0  0  0
 12  5  1  0  0  0  0
 13  6  1  0  0  0  0
 13  9  1  1  0  0  0
 14  8  1  0  0  0  0
 14 15  1  0  0  0  0
 15 22  1  0  0  0  0
 16 19  1  0  0  0  0
 17 16  2  0  0  0  0
 17 22  1  0  0  0  0
 18 20  2  0  0  0  0
 18 30  1  0  0  0  0
 19 20  1  0  0  0  0
 21 18  1  0  0  0  0
 22 21  2  0  0  0  0
 23 16  1  0  0  0  0
 24 29  1  6  0  0  0
 24 26  1  0  0  0  0
 24 25  1  0  0  0  0
 25 23  1  0  0  0  0
 26 27  1  6  0  0  0
 26 23  1  0  0  0  0
 28 29  2  0  0  0  0
 31 30  1  0  0  0  0
 32 33  1  0  0  0  0
 33 31  1  0  0  0  0
 35 34  1  0  0  0  0
 37 35  1  0  0  0  0
 37 36  1  0  0  0  0
 38 37  2  0  0  0  0
 40 36  1  0  0  0  0
 40 41  2  1  0  0  0
 40 39  1  0  0  0  0
 42 43  1  1  0  0  0
 42 40  1  0  0  0  0
 44 42  1  0  0  0  0
 45 44  1  0  0  0  0
 46 49  1  0  0  0  0
 46 45  1  0  0  0  0
 47 49  2  0  0  0  0
 48 49  2  0  0  0  0
M  END
>  <MODEL>
8

>  <REMARK>
 VINA RESULT:      -5.9      4.442      6.751
  Name = 
  17 active torsions:
  status: ('A' for Active; 'I' for Inactive)
    1  A    between atoms: C_1  and  C_32
    2  A    between atoms: C_1  and  C_47
    3  A    between atoms: N_2  and  C_3
    4  A    between atoms: N_4  and  P_28
    5  A    between atoms: C_6  and  C_31
    6  A    between atoms: C_8  and  C_18
    7  A    between atoms: C_8  and  P_28
    8  A    between atoms: C_9  and  C_48
    9  A    between atoms: C_10  and  O_42
   10  A    between atoms: O_15  and  O_20
   11  A    between atoms: O_15  and  C_37
   12  A    between atoms: C_18  and  C_25
   13  A    between atoms: C_19  and  C_37
   14  A    between atoms: C_25  and  C_35
   15  A    between atoms: N_30  and  C_35
   16  A    between atoms: C_31  and  O_42
   17  A    between atoms: C_32  and  C_36
                            x       y       z     vdW  Elec       q    Type
                         _______ _______ _______ _____ _____    ______ ____

>  <TORSDO>
F 17

$$$$
=
 OpenBabel11062420243D

 49 52  0  0  1  0  0  0  0  0999 V2000
  191.5900  174.1840  143.8970 C   0  0  0  0  0  0  0  0  0  0  0  0
  191.6390  175.5340  143.8570 C   0  0  1  0  0  3  0  0  0  0  0  0
  192.2520  171.1230  143.7760 C   0  0  0  0  0  3  0  0  0  0  0  0
  192.7620  176.3040  144.5180 C   0  0  0  0  0  2  0  0  0  0  0  0
  190.1910  172.2800  142.9360 C   0  0  0  0  0  0  0  0  0  0  0  0
  193.4210  174.2090  145.6570 C   0  0  0  0  0  3  0  0  0  0  0  0
  192.8430  172.1450  144.6440 C   0  0  0  0  0  3  0  0  0  0  0  0
  191.1590  171.1660  143.0200 C   0  0  0  0  0  0  0  0  0  0  0  0
  194.2330  176.2270  146.5420 O   0  0  0  0  0  1  0  0  0  0  0  0
  190.4140  173.5450  143.2870 C   0  0  0  0  0  3  0  0  0  0  0  0
  192.5930  173.4480  144.7110 C   0  0  0  0  0  0  0  0  0  0  0  0
  188.9420  172.0020  142.3990 O   0  0  0  0  0  1  0  0  0  0  0  0
  193.4690  175.5380  145.6070 C   0  0  1  0  0  3  0  0  0  0  0  0
  190.8630  169.9300  142.2330 C   0  0  0  0  0  2  0  0  0  0  0  0
  191.8040  169.8080  141.0400 C   0  0  0  0  0  2  0  0  0  0  0  0
  192.4060  173.3190  139.7940 C   0  0  0  0  0  0  0  0  0  0  0  0
  192.6310  172.0510  140.1480 C   0  0  0  0  0  3  0  0  0  0  0  0
  190.3620  171.8120  138.0860 C   0  0  0  0  0  0  0  0  0  0  0  0
  191.0370  173.7960  139.4360 C   0  0  0  0  0  2  0  0  0  0  0  0
  190.5330  173.1310  138.1970 C   0  0  0  0  0  3  0  0  0  0  0  0
  190.6760  170.8480  139.1640 C   0  0  0  0  0  3  0  0  0  0  0  0
  191.6340  170.9560  140.0970 C   0  0  0  0  0  0  0  0  0  0  0  0
  193.4780  174.2640  139.8390 N   0  0  0  0  0  0  0  0  0  0  0  0
  195.2000  175.6670  139.8660 C   0  0  1  0  0  3  0  0  0  0  0  0
  194.4110  174.8760  138.8700 C   0  0  0  0  0  2  0  0  0  0  0  0
  194.2000  175.0810  140.8350 C   0  0  2  0  0  3  0  0  0  0  0  0
  194.7760  174.2050  141.9440 C   0  0  0  0  0  1  0  0  0  0  0  0
  197.5390  175.8290  140.3990 O   0  0  0  0  0  0  0  0  0  0  0  0
  196.6220  175.1450  139.9520 C   0  0  0  0  0  3  0  0  0  0  0  0
  189.7090  171.2880  136.8520 C   0  0  0  0  0  2  0  0  0  0  0  0
  190.3770  170.1340  136.4180 O   0  0  0  0  0  0  0  0  0  0  0  0
  192.3930  169.8750  135.6890 C   0  0  0  0  0  1  0  0  0  0  0  0
  191.1830  170.5470  135.4610 O   0  0  0  0  0  0  0  0  0  0  0  0
  190.6480  176.2370  143.1560 O   0  0  0  0  0  0  0  0  0  0  0  0
  190.1860  177.5310  143.5320 C   0  0  0  0  0  2  0  0  0  0  0  0
  188.0020  176.8470  144.5870 N   0  0  0  0  0  2  0  0  0  0  0  0
  189.2910  177.4490  144.7260 C   0  0  0  0  0  0  0  0  0  0  0  0
  189.6890  177.8770  145.8490 O   0  0  0  0  0  0  0  0  0  0  0  0
  185.6030  176.0450  145.4490 O   0  0  0  0  0  0  0  0  0  0  0  0
  186.8240  176.8300  145.8820 P   0  0  1  0  0  0  0  0  0  0  0  0
  187.5090  176.1000  147.2510 O   0  0  0  0  0  1  0  0  0  0  0  0
  186.3430  178.5470  146.2680 C   0  0  2  0  0  3  0  0  0  0  0  0
  186.4020  178.7420  147.6490 O   0  0  0  0  0  1  0  0  0  0  0  0
  184.9280  178.8490  145.7800 C   0  0  0  0  0  2  0  0  0  0  0  0
  184.9220  179.8480  144.6260 C   0  0  0  0  0  2  0  0  0  0  0  0
  185.6660  179.2970  143.4220 C   0  0  0  0  0  2  0  0  0  0  0  0
  185.5540  177.1610  142.2440 O   0  0  0  0  0  0  0  0  0  0  0  0
  183.6780  178.3910  142.5890 O   0  0  0  0  0  0  0  0  0  0  0  0
  184.8940  178.2180  142.8230 N   0  0  0  0  0  0  0  0  0  0  0  0
  1 11  1  0  0  0  0
  2 34  1  6  0  0  0
  2  1  1  0  0  0  0
  2  4  1  0  0  0  0
  3  7  2  0  0  0  0
  4 13  1  0  0  0  0
  5  8  2  0  0  0  0
  5 10  1  0  0  0  0
  7 11  1  0  0  0  0
  8  3  1  0  0  0  0
 10  1  2  0  0  0  0
 11  6  2  0  0  0  0
 12  5  1  0  0  0  0
 13  6  1  0  0  0  0
 13  9  1  6  0  0  0
 14  8  1  0  0  0  0
 15 14  1  0  0  0  0
 16 23  1  0  0  0  0
 16 17  2  0  0  0  0
 18 20  2  0  0  0  0
 18 21  1  0  0  0  0
 19 16  1  0  0  0  0
 20 19  1  0  0  0  0
 21 22  2  0  0  0  0
 22 17  1  0  0  0  0
 22 15  1  0  0  0  0
 23 26  1  0  0  0  0
 24 29  1  1  0  0  0
 24 26  1  0  0  0  0
 25 23  1  0  0  0  0
 25 24  1  0  0  0  0
 26 27  1  1  0  0  0
 29 28  2  0  0  0  0
 30 18  1  0  0  0  0
 31 30  1  0  0  0  0
 33 32  1  0  0  0  0
 33 31  1  0  0  0  0
 34 35  1  0  0  0  0
 35 37  1  0  0  0  0
 36 37  1  0  0  0  0
 36 40  1  0  0  0  0
 37 38  2  0  0  0  0
 40 39  2  6  0  0  0
 40 42  1  0  0  0  0
 40 41  1  0  0  0  0
 42 43  1  1  0  0  0
 44 42  1  0  0  0  0
 45 44  1  0  0  0  0
 46 45  1  0  0  0  0
 47 49  2  0  0  0  0
 48 49  2  0  0  0  0
 49 46  1  0  0  0  0
M  END
>  <MODEL>
9

>  <REMARK>
 VINA RESULT:      -5.9      2.082      5.423
  Name = 
  17 active torsions:
  status: ('A' for Active; 'I' for Inactive)
    1  A    between atoms: C_1  and  C_32
    2  A    between atoms: C_1  and  C_47
    3  A    between atoms: N_2  and  C_3
    4  A    between atoms: N_4  and  P_28
    5  A    between atoms: C_6  and  C_31
    6  A    between atoms: C_8  and  C_18
    7  A    between atoms: C_8  and  P_28
    8  A    between atoms: C_9  and  C_48
    9  A    between atoms: C_10  and  O_42
   10  A    between atoms: O_15  and  O_20
   11  A    between atoms: O_15  and  C_37
   12  A    between atoms: C_18  and  C_25
   13  A    between atoms: C_19  and  C_37
   14  A    between atoms: C_25  and  C_35
   15  A    between atoms: N_30  and  C_35
   16  A    between atoms: C_31  and  O_42
   17  A    between atoms: C_32  and  C_36
                            x       y       z     vdW  Elec       q    Type
                         _______ _______ _______ _____ _____    ______ ____

>  <TORSDO>
F 17

$$$$
