=
 OpenBabel11062422423D

 29 31  0  0  1  0  0  0  0  0999 V2000
  191.2410  175.0640  144.6400 C   0  0  2  0  0  3  0  0  0  0  0  0
  191.5680  174.9970  146.1210 C   0  0  2  0  0  3  0  0  0  0  0  0
  190.1790  174.5760  145.6140 C   0  0  1  0  0  3  0  0  0  0  0  0
  191.6770  176.4180  146.6580 C   0  0  0  0  0  1  0  0  0  0  0  0
  188.3280  175.5550  146.9020 C   0  0  0  0  0  3  0  0  0  0  0  0
  188.6790  176.4790  144.6530 C   0  0  0  0  0  2  0  0  0  0  0  0
  187.0360  177.5330  146.2390 C   0  0  0  0  0  0  0  0  0  0  0  0
  187.2120  176.5040  147.0810 C   0  0  0  0  0  3  0  0  0  0  0  0
  189.0860  175.5930  145.7990 C   0  0  0  0  0  0  0  0  0  0  0  0
  188.0640  177.7870  145.1610 C   0  0  0  0  0  2  0  0  0  0  0  0
  185.9360  178.4410  146.4340 N   0  0  0  0  0  0  0  0  0  0  0  0
  185.7840  179.0550  147.6340 O   0  0  0  0  0  1  0  0  0  0  0  0
  184.9580  178.7030  145.3770 C   0  0  0  0  0  0  0  0  0  0  0  0
  184.8190  177.5910  144.5650 F   0  0  0  0  0  0  0  0  0  0  0  0
  185.3790  179.7690  144.6020 F   0  0  0  0  0  0  0  0  0  0  0  0
  183.7280  178.9990  145.9380 F   0  0  0  0  0  0  0  0  0  0  0  0
  191.0370  173.3220  142.8780 C   0  0  0  0  0  3  0  0  0  0  0  0
  191.7740  173.9000  143.8360 C   0  0  0  0  0  0  0  0  0  0  0  0
  193.3630  172.2740  145.2550 O   0  0  0  0  0  0  0  0  0  0  0  0
  193.9470  172.4350  142.6810 N   0  0  0  0  0  1  0  0  0  0  0  0
  194.3530  174.3530  144.4370 O   0  0  0  0  0  0  0  0  0  0  0  0
  193.3960  173.2420  144.1050 S   0  0  0  0  0  0  0  0  0  0  0  0
  189.4790  174.8210  141.5510 N   0  0  0  0  0  2  0  0  0  0  0  0
  189.6870  173.7020  142.4210 C   0  0  0  0  0  0  0  0  0  0  0  0
  188.6940  172.9400  142.7420 N   0  0  0  0  0  2  0  0  0  0  0  0
  188.1710  175.2070  141.0410 C   0  0  0  0  0  2  0  0  0  0  0  0
  186.5680  176.8320  141.7130 O   0  0  0  0  0  0  0  0  0  0  0  0
  186.8830  177.1900  140.3910 C   0  0  0  0  0  2  0  0  0  0  0  0
  187.9120  176.6760  141.3210 C   0  0  2  0  0  3  0  0  0  0  0  0
  1 18  1  6  0  0  0
  1  3  1  0  0  0  0
  1  2  1  0  0  0  0
  2  4  1  1  0  0  0
  3  9  1  1  0  0  0
  3  2  1  0  0  0  0
  5  8  1  0  0  0  0
  6 10  1  0  0  0  0
  6  9  1  0  0  0  0
  7 11  1  0  0  0  0
  7  8  2  0  0  0  0
  9  5  2  0  0  0  0
 10  7  1  0  0  0  0
 11 12  1  0  0  0  0
 13 16  1  0  0  0  0
 13 11  1  0  0  0  0
 14 13  1  0  0  0  0
 15 13  1  0  0  0  0
 17 18  2  0  0  0  0
 18 22  1  0  0  0  0
 20 22  1  0  0  0  0
 22 21  2  0  0  0  0
 22 19  2  0  0  0  0
 23 24  1  0  0  0  0
 24 25  2  0  0  0  0
 24 17  1  0  0  0  0
 26 23  1  0  0  0  0
 28 29  1  0  0  0  0
 28 27  1  0  0  0  0
 29 26  1  6  0  0  0
 29 27  1  0  0  0  0
M  END
>  <MODEL>
1

>  <REMARK>
 VINA RESULT:      -6.6      0.000      0.000
  Name = 
  8 active torsions:
  status: ('A' for Active; 'I' for Inactive)
    1  A    between atoms: C_1  and  N_17
    2  A    between atoms: C_2  and  C_8
    3  A    between atoms: N_5  and  C_27
    4  A    between atoms: C_7  and  C_10
    5  A    between atoms: C_8  and  S_23
    6  A    between atoms: C_11  and  C_22
    7  A    between atoms: C_13  and  N_17
    8  A    between atoms: C_27  and  C_29
                            x       y       z     vdW  Elec       q    Type
                         _______ _______ _______ _____ _____    ______ ____

>  <TORSDO>
F 8

$$$$
=
 OpenBabel11062422423D

 29 31  0  0  1  0  0  0  0  0999 V2000
  191.7930  175.7870  144.1370 C   0  0  2  0  0  3  0  0  0  0  0  0
  192.2330  177.1920  144.5110 C   0  0  2  0  0  3  0  0  0  0  0  0
  191.4670  176.3240  145.5230 C   0  0  1  0  0  3  0  0  0  0  0  0
  191.3940  178.1890  143.7220 C   0  0  0  0  0  1  0  0  0  0  0  0
  189.5820  177.3610  146.7110 C   0  0  0  0  0  3  0  0  0  0  0  0
  188.9940  175.9340  144.8000 C   0  0  0  0  0  2  0  0  0  0  0  0
  187.2450  177.3150  145.9640 C   0  0  0  0  0  0  0  0  0  0  0  0
  188.1440  177.6310  146.9080 C   0  0  0  0  0  3  0  0  0  0  0  0
  190.0040  176.6360  145.6670 C   0  0  0  0  0  0  0  0  0  0  0  0
  187.7270  176.7790  144.6370 C   0  0  0  0  0  2  0  0  0  0  0  0
  185.8470  177.5860  146.1850 N   0  0  0  0  0  0  0  0  0  0  0  0
  184.9910  176.5510  146.3760 O   0  0  0  0  0  1  0  0  0  0  0  0
  185.3190  178.9500  146.1830 C   0  0  0  0  0  0  0  0  0  0  0  0
  185.8850  179.6830  145.1540 F   0  0  0  0  0  0  0  0  0  0  0  0
  185.6140  179.5700  147.3840 F   0  0  0  0  0  0  0  0  0  0  0  0
  183.9470  178.9220  146.0040 F   0  0  0  0  0  0  0  0  0  0  0  0
  192.6310  173.4480  144.0570 C   0  0  0  0  0  3  0  0  0  0  0  0
  192.8900  174.7510  144.2320 C   0  0  0  0  0  0  0  0  0  0  0  0
  194.9610  176.3730  143.7210 O   0  0  0  0  0  0  0  0  0  0  0  0
  194.7490  175.5950  146.2400 N   0  0  0  0  0  1  0  0  0  0  0  0
  195.4810  174.0430  144.2450 O   0  0  0  0  0  0  0  0  0  0  0  0
  194.5710  175.1950  144.5690 S   0  0  0  0  0  0  0  0  0  0  0  0
  190.9960  172.4970  142.3660 N   0  0  0  0  0  2  0  0  0  0  0  0
  191.3410  172.8180  143.7190 C   0  0  0  0  0  0  0  0  0  0  0  0
  190.5570  172.4680  144.6850 N   0  0  0  0  0  2  0  0  0  0  0  0
  189.7530  171.8380  141.9910 C   0  0  0  0  0  2  0  0  0  0  0  0
  188.4490  173.8260  142.0710 O   0  0  0  0  0  0  0  0  0  0  0  0
  187.5120  172.8140  141.8010 C   0  0  0  0  0  2  0  0  0  0  0  0
  188.8680  172.7930  141.2110 C   0  0  2  0  0  3  0  0  0  0  0  0
  1 18  1  1  0  0  0
  1  2  1  0  0  0  0
  1  3  1  0  0  0  0
  2  4  1  6  0  0  0
  2  3  1  0  0  0  0
  3  9  1  6  0  0  0
  5  8  1  0  0  0  0
  6  9  1  0  0  0  0
  7 11  1  0  0  0  0
  7  8  2  0  0  0  0
  9  5  2  0  0  0  0
 10  6  1  0  0  0  0
 10  7  1  0  0  0  0
 11 12  1  0  0  0  0
 13 11  1  0  0  0  0
 13 15  1  0  0  0  0
 14 13  1  0  0  0  0
 16 13  1  0  0  0  0
 17 18  2  0  0  0  0
 18 22  1  0  0  0  0
 19 22  2  0  0  0  0
 21 22  2  0  0  0  0
 22 20  1  0  0  0  0
 23 24  1  0  0  0  0
 24 17  1  0  0  0  0
 24 25  2  0  0  0  0
 26 23  1  0  0  0  0
 28 27  1  0  0  0  0
 29 28  1  0  0  0  0
 29 26  1  1  0  0  0
 29 27  1  0  0  0  0
M  END
>  <MODEL>
2

>  <REMARK>
 VINA RESULT:      -6.3      2.080      2.654
  Name = 
  8 active torsions:
  status: ('A' for Active; 'I' for Inactive)
    1  A    between atoms: C_1  and  N_17
    2  A    between atoms: C_2  and  C_8
    3  A    between atoms: N_5  and  C_27
    4  A    between atoms: C_7  and  C_10
    5  A    between atoms: C_8  and  S_23
    6  A    between atoms: C_11  and  C_22
    7  A    between atoms: C_13  and  N_17
    8  A    between atoms: C_27  and  C_29
                            x       y       z     vdW  Elec       q    Type
                         _______ _______ _______ _____ _____    ______ ____

>  <TORSDO>
F 8

$$$$
=
 OpenBabel11062422423D

 29 31  0  0  1  0  0  0  0  0999 V2000
  191.4710  174.8060  144.4720 C   0  0  2  0  0  3  0  0  0  0  0  0
  191.8010  174.9960  145.9420 C   0  0  2  0  0  3  0  0  0  0  0  0
  190.4350  174.4290  145.5220 C   0  0  1  0  0  3  0  0  0  0  0  0
  191.8360  176.4900  146.2410 C   0  0  0  0  0  1  0  0  0  0  0  0
  188.5610  175.5360  146.6630 C   0  0  0  0  0  3  0  0  0  0  0  0
  188.8100  176.0370  144.2710 C   0  0  0  0  0  2  0  0  0  0  0  0
  187.1460  177.2850  145.6840 C   0  0  0  0  0  0  0  0  0  0  0  0
  187.3970  176.4420  146.6970 C   0  0  0  0  0  3  0  0  0  0  0  0
  189.2920  175.4040  145.5490 C   0  0  0  0  0  0  0  0  0  0  0  0
  188.1340  177.3840  144.5450 C   0  0  0  0  0  2  0  0  0  0  0  0
  186.0000  178.1560  145.7410 N   0  0  0  0  0  0  0  0  0  0  0  0
  185.9990  179.3020  145.0150 O   0  0  0  0  0  1  0  0  0  0  0  0
  184.8430  177.8510  146.5830 C   0  0  0  0  0  0  0  0  0  0  0  0
  184.5900  176.4900  146.5750 F   0  0  0  0  0  0  0  0  0  0  0  0
  183.7260  178.5130  146.1030 F   0  0  0  0  0  0  0  0  0  0  0  0
  185.0910  178.2480  147.8840 F   0  0  0  0  0  0  0  0  0  0  0  0
  191.3910  172.8390  142.9540 C   0  0  0  0  0  3  0  0  0  0  0  0
  192.0650  173.5550  143.8640 C   0  0  0  0  0  0  0  0  0  0  0  0
  194.1490  171.9710  143.2910 O   0  0  0  0  0  0  0  0  0  0  0  0
  194.7820  174.2980  144.3770 N   0  0  0  0  0  1  0  0  0  0  0  0
  193.6290  172.3060  145.6550 O   0  0  0  0  0  0  0  0  0  0  0  0
  193.6760  172.9720  144.3080 S   0  0  0  0  0  0  0  0  0  0  0  0
  189.9130  173.9860  141.2390 N   0  0  0  0  0  2  0  0  0  0  0  0
  190.0640  173.1270  142.3760 C   0  0  0  0  0  0  0  0  0  0  0  0
  189.0380  172.5050  142.8560 N   0  0  0  0  0  2  0  0  0  0  0  0
  188.6290  174.2650  140.6110 C   0  0  0  0  0  2  0  0  0  0  0  0
  189.4340  173.7950  138.4220 O   0  0  0  0  0  0  0  0  0  0  0  0
  188.1300  174.2770  138.2100 C   0  0  0  0  0  2  0  0  0  0  0  0
  188.4610  173.4140  139.3650 C   0  0  2  0  0  3  0  0  0  0  0  0
  1 18  1  1  0  0  0
  1  3  1  0  0  0  0
  1  2  1  0  0  0  0
  2  4  1  6  0  0  0
  3  9  1  6  0  0  0
  3  2  1  0  0  0  0
  5  8  1  0  0  0  0
  6 10  1  0  0  0  0
  6  9  1  0  0  0  0
  7 11  1  0  0  0  0
  7  8  2  0  0  0  0
  9  5  2  0  0  0  0
 10  7  1  0  0  0  0
 11 13  1  0  0  0  0
 12 11  1  0  0  0  0
 13 16  1  0  0  0  0
 14 13  1  0  0  0  0
 15 13  1  0  0  0  0
 17 18  2  0  0  0  0
 18 22  1  0  0  0  0
 19 22  2  0  0  0  0
 22 20  1  0  0  0  0
 22 21  2  0  0  0  0
 23 24  1  0  0  0  0
 24 25  2  0  0  0  0
 24 17  1  0  0  0  0
 26 23  1  0  0  0  0
 27 29  1  0  0  0  0
 28 27  1  0  0  0  0
 28 29  1  0  0  0  0
 29 26  1  1  0  0  0
M  END
>  <MODEL>
3

>  <REMARK>
 VINA RESULT:      -6.2      1.689      1.943
  Name = 
  8 active torsions:
  status: ('A' for Active; 'I' for Inactive)
    1  A    between atoms: C_1  and  N_17
    2  A    between atoms: C_2  and  C_8
    3  A    between atoms: N_5  and  C_27
    4  A    between atoms: C_7  and  C_10
    5  A    between atoms: C_8  and  S_23
    6  A    between atoms: C_11  and  C_22
    7  A    between atoms: C_13  and  N_17
    8  A    between atoms: C_27  and  C_29
                            x       y       z     vdW  Elec       q    Type
                         _______ _______ _______ _____ _____    ______ ____

>  <TORSDO>
F 8

$$$$
=
 OpenBabel11062422423D

 29 31  0  0  1  0  0  0  0  0999 V2000
  187.8080  176.6360  144.7770 C   0  0  2  0  0  3  0  0  0  0  0  0
  188.2420  177.8040  145.6460 C   0  0  2  0  0  3  0  0  0  0  0  0
  188.9990  177.4810  144.3460 C   0  0  1  0  0  3  0  0  0  0  0  0
  188.8570  177.2530  146.9260 C   0  0  0  0  0  1  0  0  0  0  0  0
  191.4540  177.3760  144.2980 C   0  0  0  0  0  3  0  0  0  0  0  0
  190.2940  175.2450  144.6850 C   0  0  0  0  0  2  0  0  0  0  0  0
  192.7950  175.4080  144.8880 C   0  0  0  0  0  0  0  0  0  0  0  0
  192.7380  176.6560  144.4020 C   0  0  0  0  0  3  0  0  0  0  0  0
  190.2960  176.7410  144.5180 C   0  0  0  0  0  0  0  0  0  0  0  0
  191.5400  174.7740  145.4410 C   0  0  0  0  0  2  0  0  0  0  0  0
  194.0620  174.7270  144.9740 N   0  0  0  0  0  0  0  0  0  0  0  0
  194.2200  173.5340  144.3480 O   0  0  0  0  0  1  0  0  0  0  0  0
  195.1790  175.2770  145.7430 C   0  0  0  0  0  0  0  0  0  0  0  0
  195.8860  176.1880  144.9770 F   0  0  0  0  0  0  0  0  0  0  0  0
  196.0340  174.2570  146.1220 F   0  0  0  0  0  0  0  0  0  0  0  0
  194.7020  175.9210  146.8700 F   0  0  0  0  0  0  0  0  0  0  0  0
  186.5050  176.3850  142.6760 C   0  0  0  0  0  3  0  0  0  0  0  0
  186.6190  176.9350  143.8920 C   0  0  0  0  0  0  0  0  0  0  0  0
  184.1680  177.9190  143.4400 O   0  0  0  0  0  0  0  0  0  0  0  0
  184.7780  177.5700  145.9900 N   0  0  0  0  0  1  0  0  0  0  0  0
  185.8030  179.4340  144.4410 O   0  0  0  0  0  0  0  0  0  0  0  0
  185.3140  178.0130  144.4090 S   0  0  0  0  0  0  0  0  0  0  0  0
  187.3770  174.0250  142.3430 N   0  0  0  0  0  2  0  0  0  0  0  0
  187.4150  175.4220  142.0270 C   0  0  0  0  0  0  0  0  0  0  0  0
  188.1910  175.8500  141.0850 N   0  0  0  0  0  2  0  0  0  0  0  0
  188.2270  173.0350  141.6980 C   0  0  0  0  0  2  0  0  0  0  0  0
  190.4870  172.7430  142.3840 O   0  0  0  0  0  0  0  0  0  0  0  0
  190.0650  171.4470  142.0400 C   0  0  0  0  0  2  0  0  0  0  0  0
  189.1610  172.4040  142.7150 C   0  0  2  0  0  3  0  0  0  0  0  0
  1 18  1  6  0  0  0
  1  2  1  0  0  0  0
  2  4  1  1  0  0  0
  3  9  1  1  0  0  0
  3  1  1  0  0  0  0
  3  2  1  0  0  0  0
  5  8  1  0  0  0  0
  5  9  2  0  0  0  0
  6 10  1  0  0  0  0
  7 11  1  0  0  0  0
  7 10  1  0  0  0  0
  8  7  2  0  0  0  0
  9  6  1  0  0  0  0
 11 13  1  0  0  0  0
 12 11  1  0  0  0  0
 13 15  1  0  0  0  0
 13 16  1  0  0  0  0
 14 13  1  0  0  0  0
 17 18  2  0  0  0  0
 18 22  1  0  0  0  0
 19 22  2  0  0  0  0
 22 21  2  0  0  0  0
 22 20  1  0  0  0  0
 24 23  1  0  0  0  0
 24 17  1  0  0  0  0
 25 24  2  0  0  0  0
 26 23  1  0  0  0  0
 27 29  1  0  0  0  0
 28 27  1  0  0  0  0
 28 29  1  0  0  0  0
 29 26  1  6  0  0  0
M  END
>  <MODEL>
4

>  <REMARK>
 VINA RESULT:      -6.2      4.430      7.234
  Name = 
  8 active torsions:
  status: ('A' for Active; 'I' for Inactive)
    1  A    between atoms: C_1  and  N_17
    2  A    between atoms: C_2  and  C_8
    3  A    between atoms: N_5  and  C_27
    4  A    between atoms: C_7  and  C_10
    5  A    between atoms: C_8  and  S_23
    6  A    between atoms: C_11  and  C_22
    7  A    between atoms: C_13  and  N_17
    8  A    between atoms: C_27  and  C_29
                            x       y       z     vdW  Elec       q    Type
                         _______ _______ _______ _____ _____    ______ ____

>  <TORSDO>
F 8

$$$$
=
 OpenBabel11062422423D

 29 31  0  0  1  0  0  0  0  0999 V2000
  188.2140  176.2620  145.4910 C   0  0  2  0  0  3  0  0  0  0  0  0
  188.3720  176.0890  146.9910 C   0  0  2  0  0  3  0  0  0  0  0  0
  189.2930  177.0490  146.2210 C   0  0  1  0  0  3  0  0  0  0  0  0
  188.9390  174.7000  147.2610 C   0  0  0  0  0  1  0  0  0  0  0  0
  191.6370  176.6300  146.8300 C   0  0  0  0  0  3  0  0  0  0  0  0
  191.0220  176.1150  144.5080 C   0  0  0  0  0  2  0  0  0  0  0  0
  193.2820  175.4880  145.4130 C   0  0  0  0  0  0  0  0  0  0  0  0
  193.0090  176.1760  146.5310 C   0  0  0  0  0  3  0  0  0  0  0  0
  190.6670  176.5230  145.9130 C   0  0  0  0  0  0  0  0  0  0  0  0
  192.1470  175.0760  144.5050 C   0  0  0  0  0  2  0  0  0  0  0  0
  194.6310  175.0600  145.1440 N   0  0  0  0  0  0  0  0  0  0  0  0
  195.0960  173.9230  145.7200 O   0  0  0  0  0  1  0  0  0  0  0  0
  195.5260  175.8340  144.2830 C   0  0  0  0  0  0  0  0  0  0  0  0
  195.5360  177.1620  144.6700 F   0  0  0  0  0  0  0  0  0  0  0  0
  195.0960  175.7570  142.9690 F   0  0  0  0  0  0  0  0  0  0  0  0
  196.8130  175.3350  144.3750 F   0  0  0  0  0  0  0  0  0  0  0  0
  186.9070  177.5550  143.8180 C   0  0  0  0  0  3  0  0  0  0  0  0
  187.0850  177.1860  145.0930 C   0  0  0  0  0  0  0  0  0  0  0  0
  186.6810  178.5070  147.3890 O   0  0  0  0  0  0  0  0  0  0  0  0
  184.8660  178.9470  145.5160 N   0  0  0  0  0  1  0  0  0  0  0  0
  185.1230  176.7000  146.8630 O   0  0  0  0  0  0  0  0  0  0  0  0
  185.9340  177.8230  146.2790 S   0  0  0  0  0  0  0  0  0  0  0  0
  187.4590  175.8670  142.0050 N   0  0  0  0  0  2  0  0  0  0  0  0
  187.6830  177.1340  142.6360 C   0  0  0  0  0  0  0  0  0  0  0  0
  188.5110  177.9780  142.1130 N   0  0  0  0  0  2  0  0  0  0  0  0
  188.1710  175.4280  140.8140 C   0  0  0  0  0  2  0  0  0  0  0  0
  189.3020  173.9120  142.2580 O   0  0  0  0  0  0  0  0  0  0  0  0
  190.1500  174.0180  141.1420 C   0  0  0  0  0  2  0  0  0  0  0  0
  188.6780  174.0090  140.9990 C   0  0  2  0  0  3  0  0  0  0  0  0
  1 18  1  1  0  0  0
  1  3  1  0  0  0  0
  1  2  1  0  0  0  0
  2  4  1  6  0  0  0
  3  9  1  6  0  0  0
  3  2  1  0  0  0  0
  6  9  1  0  0  0  0
  7  8  2  0  0  0  0
  8  5  1  0  0  0  0
  9  5  2  0  0  0  0
 10  6  1  0  0  0  0
 10  7  1  0  0  0  0
 11  7  1  0  0  0  0
 11 12  1  0  0  0  0
 13 16  1  0  0  0  0
 13 14  1  0  0  0  0
 13 11  1  0  0  0  0
 15 13  1  0  0  0  0
 17 18  2  0  0  0  0
 18 22  1  0  0  0  0
 20 22  1  0  0  0  0
 22 21  2  0  0  0  0
 22 19  2  0  0  0  0
 23 24  1  0  0  0  0
 24 17  1  0  0  0  0
 25 24  2  0  0  0  0
 26 23  1  0  0  0  0
 28 27  1  0  0  0  0
 29 26  1  1  0  0  0
 29 28  1  0  0  0  0
 29 27  1  0  0  0  0
M  END
>  <MODEL>
5

>  <REMARK>
 VINA RESULT:      -6.2      4.366      7.116
  Name = 
  8 active torsions:
  status: ('A' for Active; 'I' for Inactive)
    1  A    between atoms: C_1  and  N_17
    2  A    between atoms: C_2  and  C_8
    3  A    between atoms: N_5  and  C_27
    4  A    between atoms: C_7  and  C_10
    5  A    between atoms: C_8  and  S_23
    6  A    between atoms: C_11  and  C_22
    7  A    between atoms: C_13  and  N_17
    8  A    between atoms: C_27  and  C_29
                            x       y       z     vdW  Elec       q    Type
                         _______ _______ _______ _____ _____    ______ ____

>  <TORSDO>
F 8

$$$$
=
 OpenBabel11062422423D

 29 31  0  0  1  0  0  0  0  0999 V2000
  190.9660  174.8040  144.6390 C   0  0  2  0  0  3  0  0  0  0  0  0
  191.3720  175.0680  146.0780 C   0  0  2  0  0  3  0  0  0  0  0  0
  189.9590  174.5570  145.7520 C   0  0  1  0  0  3  0  0  0  0  0  0
  191.5040  176.5720  146.2760 C   0  0  0  0  0  1  0  0  0  0  0  0
  188.1940  175.8350  146.8900 C   0  0  0  0  0  3  0  0  0  0  0  0
  188.3830  176.1860  144.4660 C   0  0  0  0  0  2  0  0  0  0  0  0
  186.8460  177.6070  145.8600 C   0  0  0  0  0  0  0  0  0  0  0  0
  187.0860  176.8090  146.9110 C   0  0  0  0  0  3  0  0  0  0  0  0
  188.8750  175.5980  145.7610 C   0  0  0  0  0  0  0  0  0  0  0  0
  187.7960  177.5840  144.6850 C   0  0  0  0  0  2  0  0  0  0  0  0
  185.7550  178.5460  145.9050 N   0  0  0  0  0  0  0  0  0  0  0  0
  185.9240  179.7880  145.3840 O   0  0  0  0  0  1  0  0  0  0  0  0
  184.4720  178.2060  146.5220 C   0  0  0  0  0  0  0  0  0  0  0  0
  183.4330  178.7920  145.8210 F   0  0  0  0  0  0  0  0  0  0  0  0
  184.4430  178.6660  147.8270 F   0  0  0  0  0  0  0  0  0  0  0  0
  184.2960  176.8340  146.5120 F   0  0  0  0  0  0  0  0  0  0  0  0
  192.7650  173.2670  143.8750 C   0  0  0  0  0  3  0  0  0  0  0  0
  191.4600  173.4840  144.0900 C   0  0  0  0  0  0  0  0  0  0  0  0
  189.6950  171.6720  144.9730 O   0  0  0  0  0  0  0  0  0  0  0  0
  189.1510  172.6920  142.5930 N   0  0  0  0  0  1  0  0  0  0  0  0
  191.1150  171.0130  143.0970 O   0  0  0  0  0  0  0  0  0  0  0  0
  190.3540  172.1550  143.7110 S   0  0  0  0  0  0  0  0  0  0  0  0
  194.0450  175.4150  143.4430 N   0  0  0  0  0  2  0  0  0  0  0  0
  193.8920  174.1780  144.1490 C   0  0  0  0  0  0  0  0  0  0  0  0
  194.6960  173.8850  145.1180 N   0  0  0  0  0  2  0  0  0  0  0  0
  195.1180  176.3630  143.7100 C   0  0  0  0  0  2  0  0  0  0  0  0
  197.1990  175.4120  143.0570 O   0  0  0  0  0  0  0  0  0  0  0  0
  197.4640  176.7910  143.1380 C   0  0  0  0  0  2  0  0  0  0  0  0
  196.1750  176.2760  142.6240 C   0  0  2  0  0  3  0  0  0  0  0  0
  1 18  1  1  0  0  0
  1  3  1  0  0  0  0
  1  2  1  0  0  0  0
  2  4  1  6  0  0  0
  3  9  1  6  0  0  0
  3  2  1  0  0  0  0
  5  8  1  0  0  0  0
  6 10  1  0  0  0  0
  6  9  1  0  0  0  0
  7 11  1  0  0  0  0
  7  8  2  0  0  0  0
  9  5  2  0  0  0  0
 10  7  1  0  0  0  0
 11 13  1  0  0  0  0
 12 11  1  0  0  0  0
 13 15  1  0  0  0  0
 14 13  1  0  0  0  0
 16 13  1  0  0  0  0
 17 18  2  0  0  0  0
 17 24  1  0  0  0  0
 20 22  1  0  0  0  0
 21 22  2  0  0  0  0
 22 18  1  0  0  0  0
 22 19  2  0  0  0  0
 23 26  1  0  0  0  0
 23 24  1  0  0  0  0
 24 25  2  0  0  0  0
 27 28  1  0  0  0  0
 29 27  1  0  0  0  0
 29 28  1  0  0  0  0
 29 26  1  1  0  0  0
M  END
>  <MODEL>
6

>  <REMARK>
 VINA RESULT:      -6.0      2.455      4.390
  Name = 
  8 active torsions:
  status: ('A' for Active; 'I' for Inactive)
    1  A    between atoms: C_1  and  N_17
    2  A    between atoms: C_2  and  C_8
    3  A    between atoms: N_5  and  C_27
    4  A    between atoms: C_7  and  C_10
    5  A    between atoms: C_8  and  S_23
    6  A    between atoms: C_11  and  C_22
    7  A    between atoms: C_13  and  N_17
    8  A    between atoms: C_27  and  C_29
                            x       y       z     vdW  Elec       q    Type
                         _______ _______ _______ _____ _____    ______ ____

>  <TORSDO>
F 8

$$$$
=
 OpenBabel11062422423D

 29 31  0  0  1  0  0  0  0  0999 V2000
  193.1760  175.1510  144.8980 C   0  0  2  0  0  3  0  0  0  0  0  0
  193.1430  175.0060  146.4090 C   0  0  2  0  0  3  0  0  0  0  0  0
  191.9790  174.4790  145.5550 C   0  0  1  0  0  3  0  0  0  0  0  0
  192.9440  176.3860  147.0230 C   0  0  0  0  0  1  0  0  0  0  0  0
  189.6760  175.0180  146.2250 C   0  0  0  0  0  3  0  0  0  0  0  0
  190.6540  176.4530  144.4870 C   0  0  0  0  0  2  0  0  0  0  0  0
  188.4300  177.0110  145.5200 C   0  0  0  0  0  0  0  0  0  0  0  0
  188.4450  175.8290  146.1540 C   0  0  0  0  0  3  0  0  0  0  0  0
  190.7580  175.3550  145.5110 C   0  0  0  0  0  0  0  0  0  0  0  0
  189.7220  177.5690  144.9700 C   0  0  0  0  0  2  0  0  0  0  0  0
  187.2130  177.7790  145.4620 N   0  0  0  0  0  0  0  0  0  0  0  0
  186.7550  178.2110  144.2600 O   0  0  0  0  0  1  0  0  0  0  0  0
  186.4670  178.1310  146.6700 C   0  0  0  0  0  0  0  0  0  0  0  0
  185.6100  177.1020  147.0210 F   0  0  0  0  0  0  0  0  0  0  0  0
  185.7200  179.2740  146.4450 F   0  0  0  0  0  0  0  0  0  0  0  0
  187.3450  178.3530  147.7160 F   0  0  0  0  0  0  0  0  0  0  0  0
  193.6480  173.5830  143.0270 C   0  0  0  0  0  3  0  0  0  0  0  0
  194.0260  174.1140  144.1970 C   0  0  0  0  0  0  0  0  0  0  0  0
  195.3120  172.4180  145.8250 O   0  0  0  0  0  0  0  0  0  0  0  0
  196.6060  173.0260  143.6000 N   0  0  0  0  0  1  0  0  0  0  0  0
  196.2350  174.6720  145.6200 O   0  0  0  0  0  0  0  0  0  0  0  0
  195.5640  173.5530  144.8720 S   0  0  0  0  0  0  0  0  0  0  0  0
  191.2120  173.2110  142.4220 N   0  0  0  0  0  2  0  0  0  0  0  0
  192.4500  173.9060  142.2300 C   0  0  0  0  0  0  0  0  0  0  0  0
  192.5090  174.9070  141.4130 N   0  0  0  0  0  2  0  0  0  0  0  0
  189.9950  173.5260  141.6870 C   0  0  0  0  0  2  0  0  0  0  0  0
  187.6350  173.6290  141.9710 O   0  0  0  0  0  0  0  0  0  0  0  0
  188.0620  174.9520  142.1810 C   0  0  0  0  0  2  0  0  0  0  0  0
  188.8550  173.7950  142.6530 C   0  0  2  0  0  3  0  0  0  0  0  0
  1 18  1  6  0  0  0
  1  3  1  0  0  0  0
  1  2  1  0  0  0  0
  2  4  1  1  0  0  0
  3  9  1  1  0  0  0
  3  2  1  0  0  0  0
  6 10  1  0  0  0  0
  6  9  1  0  0  0  0
  7  8  2  0  0  0  0
  8  5  1  0  0  0  0
  9  5  2  0  0  0  0
 10  7  1  0  0  0  0
 11  7  1  0  0  0  0
 11 13  1  0  0  0  0
 12 11  1  0  0  0  0
 13 14  1  0  0  0  0
 13 16  1  0  0  0  0
 15 13  1  0  0  0  0
 17 18  2  0  0  0  0
 18 22  1  0  0  0  0
 20 22  1  0  0  0  0
 22 21  2  0  0  0  0
 22 19  2  0  0  0  0
 24 23  1  0  0  0  0
 24 17  1  0  0  0  0
 25 24  2  0  0  0  0
 26 23  1  0  0  0  0
 27 28  1  0  0  0  0
 27 29  1  0  0  0  0
 28 29  1  0  0  0  0
 29 26  1  6  0  0  0
M  END
>  <MODEL>
7

>  <REMARK>
 VINA RESULT:      -6.0      2.036      2.524
  Name = 
  8 active torsions:
  status: ('A' for Active; 'I' for Inactive)
    1  A    between atoms: C_1  and  N_17
    2  A    between atoms: C_2  and  C_8
    3  A    between atoms: N_5  and  C_27
    4  A    between atoms: C_7  and  C_10
    5  A    between atoms: C_8  and  S_23
    6  A    between atoms: C_11  and  C_22
    7  A    between atoms: C_13  and  N_17
    8  A    between atoms: C_27  and  C_29
                            x       y       z     vdW  Elec       q    Type
                         _______ _______ _______ _____ _____    ______ ____

>  <TORSDO>
F 8

$$$$
=
 OpenBabel11062422423D

 29 31  0  0  1  0  0  0  0  0999 V2000
  190.4160  175.0340  143.6170 C   0  0  2  0  0  3  0  0  0  0  0  0
  190.5650  175.0380  142.1060 C   0  0  2  0  0  3  0  0  0  0  0  0
  190.2550  176.3430  142.8570 C   0  0  1  0  0  3  0  0  0  0  0  0
  189.3660  174.3200  141.5000 C   0  0  0  0  0  1  0  0  0  0  0  0
  188.5020  177.9430  142.2180 C   0  0  0  0  0  3  0  0  0  0  0  0
  187.7880  176.0850  143.6580 C   0  0  0  0  0  2  0  0  0  0  0  0
  186.1040  177.6600  142.6560 C   0  0  0  0  0  0  0  0  0  0  0  0
  187.1090  178.4320  142.2180 C   0  0  0  0  0  3  0  0  0  0  0  0
  188.8200  176.7880  142.8180 C   0  0  0  0  0  0  0  0  0  0  0  0
  186.3910  176.2290  143.0480 C   0  0  0  0  0  2  0  0  0  0  0  0
  184.7550  178.1640  142.6480 N   0  0  0  0  0  0  0  0  0  0  0  0
  184.0050  178.0410  141.5240 O   0  0  0  0  0  1  0  0  0  0  0  0
  184.1760  178.8300  143.8150 C   0  0  0  0  0  0  0  0  0  0  0  0
  182.8510  179.1530  143.5750 F   0  0  0  0  0  0  0  0  0  0  0  0
  184.8750  179.9920  144.0870 F   0  0  0  0  0  0  0  0  0  0  0  0
  184.2350  177.9890  144.9120 F   0  0  0  0  0  0  0  0  0  0  0  0
  191.7990  175.4200  145.6470 C   0  0  0  0  0  3  0  0  0  0  0  0
  191.7300  175.0330  144.3660 C   0  0  0  0  0  0  0  0  0  0  0  0
  193.7180  175.5810  142.6540 O   0  0  0  0  0  0  0  0  0  0  0  0
  194.4440  174.2350  144.8130 N   0  0  0  0  0  1  0  0  0  0  0  0
  193.0210  173.2450  142.8320 O   0  0  0  0  0  0  0  0  0  0  0  0
  193.2420  174.5170  143.6040 S   0  0  0  0  0  0  0  0  0  0  0  0
  190.0710  177.1280  146.3790 N   0  0  0  0  0  2  0  0  0  0  0  0
  190.6930  175.8460  146.5250 C   0  0  0  0  0  0  0  0  0  0  0  0
  190.2230  174.9940  147.3760 N   0  0  0  0  0  2  0  0  0  0  0  0
  188.9500  177.5730  147.1960 C   0  0  0  0  0  2  0  0  0  0  0  0
  186.6660  178.2310  147.0980 O   0  0  0  0  0  0  0  0  0  0  0  0
  186.6150  176.8270  147.1320 C   0  0  0  0  0  2  0  0  0  0  0  0
  187.6680  177.5470  146.3830 C   0  0  2  0  0  3  0  0  0  0  0  0
  1 18  1  1  0  0  0
  2  4  1  6  0  0  0
  2  3  1  0  0  0  0
  2  1  1  0  0  0  0
  3  9  1  6  0  0  0
  3  1  1  0  0  0  0
  5  8  1  0  0  0  0
  5  9  2  0  0  0  0
  7 10  1  0  0  0  0
  8  7  2  0  0  0  0
  9  6  1  0  0  0  0
 10  6  1  0  0  0  0
 11  7  1  0  0  0  0
 11 13  1  0  0  0  0
 12 11  1  0  0  0  0
 13 15  1  0  0  0  0
 13 16  1  0  0  0  0
 14 13  1  0  0  0  0
 17 24  1  0  0  0  0
 18 17  2  0  0  0  0
 19 22  2  0  0  0  0
 21 22  2  0  0  0  0
 22 18  1  0  0  0  0
 22 20  1  0  0  0  0
 23 24  1  0  0  0  0
 23 26  1  0  0  0  0
 24 25  2  0  0  0  0
 27 28  1  0  0  0  0
 29 27  1  0  0  0  0
 29 28  1  0  0  0  0
 29 26  1  1  0  0  0
M  END
>  <MODEL>
8

>  <REMARK>
 VINA RESULT:      -6.0      2.244      4.158
  Name = 
  8 active torsions:
  status: ('A' for Active; 'I' for Inactive)
    1  A    between atoms: C_1  and  N_17
    2  A    between atoms: C_2  and  C_8
    3  A    between atoms: N_5  and  C_27
    4  A    between atoms: C_7  and  C_10
    5  A    between atoms: C_8  and  S_23
    6  A    between atoms: C_11  and  C_22
    7  A    between atoms: C_13  and  N_17
    8  A    between atoms: C_27  and  C_29
                            x       y       z     vdW  Elec       q    Type
                         _______ _______ _______ _____ _____    ______ ____

>  <TORSDO>
F 8

$$$$
=
 OpenBabel11062422423D

 29 31  0  0  1  0  0  0  0  0999 V2000
  187.9410  177.4170  144.3200 C   0  0  2  0  0  3  0  0  0  0  0  0
  187.0420  177.5980  143.1090 C   0  0  2  0  0  3  0  0  0  0  0  0
  187.3630  176.1880  143.6330 C   0  0  1  0  0  3  0  0  0  0  0  0
  187.8940  178.0810  141.9420 C   0  0  0  0  0  1  0  0  0  0  0  0
  188.0500  174.6410  141.8510 C   0  0  0  0  0  3  0  0  0  0  0  0
  189.8240  175.3670  143.3870 C   0  0  0  0  0  2  0  0  0  0  0  0
  190.3680  174.0250  141.3310 C   0  0  0  0  0  0  0  0  0  0  0  0
  189.0550  173.8450  141.1210 C   0  0  0  0  0  3  0  0  0  0  0  0
  188.4140  175.4350  142.8660 C   0  0  0  0  0  0  0  0  0  0  0  0
  190.8210  175.1380  142.2470 C   0  0  0  0  0  2  0  0  0  0  0  0
  191.3270  173.2320  140.6080 N   0  0  0  0  0  0  0  0  0  0  0  0
  191.9050  173.7410  139.4910 O   0  0  0  0  0  1  0  0  0  0  0  0
  191.6800  171.8760  141.0310 C   0  0  0  0  0  0  0  0  0  0  0  0
  191.3850  171.7000  142.3720 F   0  0  0  0  0  0  0  0  0  0  0  0
  193.0350  171.6630  140.8430 F   0  0  0  0  0  0  0  0  0  0  0  0
  190.9620  170.9520  140.2940 F   0  0  0  0  0  0  0  0  0  0  0  0
  187.7220  177.1090  146.7770 C   0  0  0  0  0  3  0  0  0  0  0  0
  187.2450  177.6410  145.6440 C   0  0  0  0  0  0  0  0  0  0  0  0
  184.5780  177.7810  145.4230 O   0  0  0  0  0  0  0  0  0  0  0  0
  185.6120  179.2230  147.3850 N   0  0  0  0  0  1  0  0  0  0  0  0
  185.8460  179.7830  144.8240 O   0  0  0  0  0  0  0  0  0  0  0  0
  185.7750  178.6200  145.7740 S   0  0  0  0  0  0  0  0  0  0  0  0
  190.2330  176.9170  147.0890 N   0  0  0  0  0  2  0  0  0  0  0  0
  188.9450  176.3040  146.9550 C   0  0  0  0  0  0  0  0  0  0  0  0
  188.8220  175.0240  147.0890 N   0  0  0  0  0  2  0  0  0  0  0  0
  191.4590  176.1640  147.3080 C   0  0  0  0  0  2  0  0  0  0  0  0
  193.2610  175.1990  146.0910 O   0  0  0  0  0  0  0  0  0  0  0  0
  193.7790  176.4200  146.5560 C   0  0  0  0  0  2  0  0  0  0  0  0
  192.3760  176.2930  146.1050 C   0  0  2  0  0  3  0  0  0  0  0  0
  1 18  1  1  0  0  0
  2  4  1  6  0  0  0
  2  3  1  0  0  0  0
  2  1  1  0  0  0  0
  3  9  1  6  0  0  0
  3  1  1  0  0  0  0
  5  9  2  0  0  0  0
  7 10  1  0  0  0  0
  8  7  2  0  0  0  0
  8  5  1  0  0  0  0
  9  6  1  0  0  0  0
 10  6  1  0  0  0  0
 11 13  1  0  0  0  0
 11  7  1  0  0  0  0
 12 11  1  0  0  0  0
 13 14  1  0  0  0  0
 15 13  1  0  0  0  0
 16 13  1  0  0  0  0
 17 24  1  0  0  0  0
 18 22  1  0  0  0  0
 18 17  2  0  0  0  0
 19 22  2  0  0  0  0
 21 22  2  0  0  0  0
 22 20  1  0  0  0  0
 23 26  1  0  0  0  0
 24 23  1  0  0  0  0
 24 25  2  0  0  0  0
 27 29  1  0  0  0  0
 27 28  1  0  0  0  0
 29 28  1  0  0  0  0
 29 26  1  1  0  0  0
M  END
>  <MODEL>
9

>  <REMARK>
 VINA RESULT:      -5.9      4.279      7.910
  Name = 
  8 active torsions:
  status: ('A' for Active; 'I' for Inactive)
    1  A    between atoms: C_1  and  N_17
    2  A    between atoms: C_2  and  C_8
    3  A    between atoms: N_5  and  C_27
    4  A    between atoms: C_7  and  C_10
    5  A    between atoms: C_8  and  S_23
    6  A    between atoms: C_11  and  C_22
    7  A    between atoms: C_13  and  N_17
    8  A    between atoms: C_27  and  C_29
                            x       y       z     vdW  Elec       q    Type
                         _______ _______ _______ _____ _____    ______ ____

>  <TORSDO>
F 8

$$$$
