=
 OpenBabel11072409303D

 40 46  0  0  1  0  0  0  0  0999 V2000
  197.5120  175.9250  142.3300 N   0  0  0  0  0  2  0  0  0  0  0  0
  197.1840  173.6100  143.4280 F   0  0  0  0  0  0  0  0  0  0  0  0
  196.9530  176.8890  143.2380 C   0  0  0  0  0  2  0  0  0  0  0  0
  193.5990  174.2550  143.4320 C   0  0  1  0  0  3  0  0  0  0  0  0
  196.0840  175.8010  142.7320 C   0  0  2  0  0  0  0  0  0  0  0  0
  194.7700  173.5230  142.8050 C   0  0  0  0  0  2  0  0  0  0  0  0
  195.7180  175.3140  144.1570 C   0  0  1  0  0  3  0  0  0  0  0  0
  194.2060  175.3280  144.3430 C   0  0  2  0  0  3  0  0  0  0  0  0
  196.0220  174.3090  143.1420 C   0  0  1  0  0  0  0  0  0  0  0  0
  192.6080  175.9750  146.2120 C   0  0  2  0  0  3  0  0  0  0  0  0
  193.8780  175.2250  145.8460 C   0  0  2  0  0  3  0  0  0  0  0  0
  193.9620  176.5470  146.5860 C   0  0  0  0  0  2  0  0  0  0  0  0
  191.9720  175.3350  147.4340 C   0  0  0  0  0  2  0  0  0  0  0  0
  190.4880  175.6740  147.5210 C   0  0  0  0  0  2  0  0  0  0  0  0
  189.9410  177.9770  147.7960 O   0  0  0  0  0  1  0  0  0  0  0  0
  190.1760  176.9990  146.8260 C   0  0  2  0  0  3  0  0  0  0  0  0
  188.9740  176.8700  145.8700 C   0  0  2  0  0  0  0  0  0  0  0  0
  188.7890  175.5420  145.5230 F   0  0  0  0  0  0  0  0  0  0  0  0
  189.2530  177.6730  144.6030 C   0  0  0  0  0  1  0  0  0  0  0  0
  185.5430  176.9700  146.7560 C   0  0  0  0  0  2  0  0  0  0  0  0
  187.0660  178.3520  145.6750 O   0  0  0  0  0  0  0  0  0  0  0  0
  185.7030  178.2000  145.9150 C   0  0  0  0  0  2  0  0  0  0  0  0
  186.7980  176.3750  146.8260 O   0  0  0  0  0  0  0  0  0  0  0  0
  187.6890  177.4160  146.5190 C   0  0  0  0  0  3  0  0  0  0  0  0
  192.8550  174.8720  142.4200 O   0  0  0  0  0  0  0  0  0  0  0  0
  191.1280  172.8810  141.6400 O   0  0  0  0  0  0  0  0  0  0  0  0
  191.2710  174.2820  142.5790 P   0  0  1  0  0  0  0  0  0  0  0  0
  191.0050  173.9360  144.0290 O   0  0  0  0  0  1  0  0  0  0  0  0
  190.1740  175.4900  142.0560 O   0  0  0  0  0  0  0  0  0  0  0  0
  188.4490  174.0800  142.7360 O   0  0  0  0  0  1  0  0  0  0  0  0
  188.9060  174.9450  141.7270 C   0  0  0  0  0  0  0  0  0  0  0  0
  188.9980  174.2430  140.5200 O   0  0  0  0  0  1  0  0  0  0  0  0
  186.4860  178.4290  142.2210 C   0  0  0  0  0  2  0  0  0  0  0  0
  186.8380  175.9180  142.4930 C   0  0  0  0  0  2  0  0  0  0  0  0
  185.7660  177.7650  141.0600 C   0  0  1  0  0  0  0  0  0  0  0  0
  185.8200  177.0740  142.4200 C   0  0  2  0  0  3  0  0  0  0  0  0
  184.4750  178.4750  140.7120 C   0  0  0  0  0  1  0  0  0  0  0  0
  187.4000  176.0450  140.2010 C   0  0  0  0  0  2  0  0  0  0  0  0
  186.7210  177.3790  139.9290 C   0  0  0  0  0  2  0  0  0  0  0  0
  187.9570  176.0580  141.5520 N   0  0  0  0  0  0  0  0  0  0  0  0
  1  5  1  0  0  0  0
  1  3  1  0  0  0  0
  4 25  1  6  0  0  0
  4  8  1  0  0  0  0
  5  9  1  0  0  0  0
  5  3  1  6  0  0  0
  5  7  1  0  0  0  0
  6  9  1  0  0  0  0
  6  4  1  0  0  0  0
  7  8  1  0  0  0  0
  8 11  1  0  0  0  0
  9  2  1  0  0  0  0
  9  7  1  0  0  0  0
 10 12  1  0  0  0  0
 10 13  1  0  0  0  0
 11 10  1  0  0  0  0
 11 12  1  0  0  0  0
 13 14  1  0  0  0  0
 16 14  1  0  0  0  0
 16 15  1  0  0  0  0
 17 24  1  0  0  0  0
 17 16  1  0  0  0  0
 18 17  1  0  0  0  0
 19 17  1  0  0  0  0
 20 23  1  0  0  0  0
 21 22  1  0  0  0  0
 21 24  1  0  0  0  0
 22 20  1  0  0  0  0
 24 23  1  0  0  0  0
 25 27  1  0  0  0  0
 26 27  2  0  0  0  0
 27 28  1  0  0  0  0
 29 27  1  0  0  0  0
 31 29  1  0  0  0  0
 31 30  1  0  0  0  0
 32 31  1  0  0  0  0
 33 36  1  0  0  0  0
 35 33  1  0  0  0  0
 35 36  1  0  0  0  0
 36 34  1  0  0  0  0
 37 35  1  0  0  0  0
 38 40  1  0  0  0  0
 39 38  1  0  0  0  0
 39 35  1  0  0  0  0
 40 31  1  0  0  0  0
 40 34  1  0  0  0  0
M  END
>  <MODEL>
1

>  <REMARK>
 VINA RESULT:      -7.5      0.000      0.000
  Name = 
  11 active torsions:
  status: ('A' for Active; 'I' for Inactive)
    1  A    between atoms: C_2  and  C_33
    2  A    between atoms: C_2  and  C_35
    3  A    between atoms: C_7  and  C_13
    4  A    between atoms: C_7  and  C_33
    5  A    between atoms: O_11  and  P_14
    6  A    between atoms: O_11  and  C_18
    7  A    between atoms: C_13  and  C_19
    8  A    between atoms: P_14  and  O_27
    9  A    between atoms: C_17  and  O_27
   10  A    between atoms: C_18  and  N_39
   11  A    between atoms: C_23  and  C_37
                            x       y       z     vdW  Elec       q    Type
                         _______ _______ _______ _____ _____    ______ ____

>  <TORSDO>
F 11

$$$$
=
 OpenBabel11072409303D

 40 46  0  0  1  0  0  0  0  0999 V2000
  196.0410  175.4330  144.3200 N   0  0  0  0  0  2  0  0  0  0  0  0
  195.6420  173.7730  146.2580 F   0  0  0  0  0  0  0  0  0  0  0  0
  195.0230  176.4410  144.4310 C   0  0  0  0  0  2  0  0  0  0  0  0
  192.3170  173.1710  144.8960 C   0  0  1  0  0  3  0  0  0  0  0  0
  194.6100  175.0250  144.2930 C   0  0  2  0  0  0  0  0  0  0  0  0
  193.7370  172.6720  145.0820 C   0  0  0  0  0  2  0  0  0  0  0  0
  193.7700  175.0530  145.5950 C   0  0  1  0  0  3  0  0  0  0  0  0
  192.3310  174.6510  145.2980 C   0  0  2  0  0  3  0  0  0  0  0  0
  194.6080  173.8850  145.3410 C   0  0  1  0  0  0  0  0  0  0  0  0
  190.2780  175.9420  146.0640 C   0  0  2  0  0  3  0  0  0  0  0  0
  191.4350  175.0520  146.4870 C   0  0  2  0  0  3  0  0  0  0  0  0
  191.4620  176.5360  146.8040 C   0  0  0  0  0  2  0  0  0  0  0  0
  189.1170  175.7610  147.0260 C   0  0  0  0  0  2  0  0  0  0  0  0
  187.7920  176.1120  146.3590 C   0  0  0  0  0  2  0  0  0  0  0  0
  188.2280  178.0870  147.6170 O   0  0  0  0  0  1  0  0  0  0  0  0
  187.4070  177.5680  146.6130 C   0  0  2  0  0  3  0  0  0  0  0  0
  185.9190  177.7040  146.9930 C   0  0  2  0  0  0  0  0  0  0  0  0
  185.7960  177.8680  148.3630 F   0  0  0  0  0  0  0  0  0  0  0  0
  185.1800  176.4330  146.5850 C   0  0  0  0  0  1  0  0  0  0  0  0
  183.9290  179.3870  144.5910 C   0  0  0  0  0  2  0  0  0  0  0  0
  186.1400  179.4260  145.3020 O   0  0  0  0  0  0  0  0  0  0  0  0
  185.3090  179.8860  144.2850 C   0  0  0  0  0  2  0  0  0  0  0  0
  184.0530  178.5270  145.6760 O   0  0  0  0  0  0  0  0  0  0  0  0
  185.2690  178.8980  146.2720 C   0  0  0  0  0  3  0  0  0  0  0  0
  191.9690  173.0610  143.5450 O   0  0  0  0  0  0  0  0  0  0  0  0
  190.1270  171.4440  142.3010 O   0  0  0  0  0  0  0  0  0  0  0  0
  190.3360  172.6000  143.5200 P   0  0  1  0  0  0  0  0  0  0  0  0
  189.9640  171.9860  144.8530 O   0  0  0  0  0  1  0  0  0  0  0  0
  189.3730  173.9870  143.2270 O   0  0  0  0  0  0  0  0  0  0  0  0
  189.8870  173.8180  140.9620 O   0  0  0  0  0  1  0  0  0  0  0  0
  189.7910  174.6850  142.0650 C   0  0  0  0  0  0  0  0  0  0  0  0
  191.0370  175.2780  142.2990 O   0  0  0  0  0  1  0  0  0  0  0  0
  187.4580  178.2610  142.0750 C   0  0  0  0  0  2  0  0  0  0  0  0
  187.8940  175.8960  142.9240 C   0  0  0  0  0  2  0  0  0  0  0  0
  186.5400  177.3440  141.2860 C   0  0  1  0  0  0  0  0  0  0  0  0
  186.8630  177.0290  142.7440 C   0  0  2  0  0  3  0  0  0  0  0  0
  185.1950  177.9850  141.0130 C   0  0  0  0  0  1  0  0  0  0  0  0
  188.0040  175.4020  140.6160 C   0  0  0  0  0  2  0  0  0  0  0  0
  187.2660  176.6430  140.1370 C   0  0  0  0  0  2  0  0  0  0  0  0
  188.8090  175.7470  141.7860 N   0  0  0  0  0  0  0  0  0  0  0  0
  1  3  1  0  0  0  0
  4 25  1  6  0  0  0
  4  6  1  0  0  0  0
  4  8  1  0  0  0  0
  5  1  1  0  0  0  0
  5  3  1  6  0  0  0
  5  9  1  0  0  0  0
  5  7  1  0  0  0  0
  6  9  1  0  0  0  0
  8  7  1  0  0  0  0
  8 11  1  0  0  0  0
  9  7  1  0  0  0  0
  9  2  1  0  0  0  0
 10 11  1  0  0  0  0
 10 12  1  0  0  0  0
 10 13  1  0  0  0  0
 11 12  1  0  0  0  0
 14 16  1  0  0  0  0
 14 13  1  0  0  0  0
 16 17  1  0  0  0  0
 16 15  1  0  0  0  0
 17 18  1  0  0  0  0
 19 17  1  0  0  0  0
 20 23  1  0  0  0  0
 21 24  1  0  0  0  0
 22 20  1  0  0  0  0
 22 21  1  0  0  0  0
 23 24  1  0  0  0  0
 24 17  1  0  0  0  0
 26 27  2  0  0  0  0
 27 25  1  0  0  0  0
 27 28  1  0  0  0  0
 29 27  1  0  0  0  0
 30 31  1  0  0  0  0
 31 32  1  0  0  0  0
 31 29  1  0  0  0  0
 33 36  1  0  0  0  0
 35 33  1  0  0  0  0
 35 36  1  0  0  0  0
 36 34  1  0  0  0  0
 37 35  1  0  0  0  0
 38 40  1  0  0  0  0
 39 38  1  0  0  0  0
 39 35  1  0  0  0  0
 40 31  1  0  0  0  0
 40 34  1  0  0  0  0
M  END
>  <MODEL>
2

>  <REMARK>
 VINA RESULT:      -7.2      1.735      2.488
  Name = 
  11 active torsions:
  status: ('A' for Active; 'I' for Inactive)
    1  A    between atoms: C_2  and  C_33
    2  A    between atoms: C_2  and  C_35
    3  A    between atoms: C_7  and  C_13
    4  A    between atoms: C_7  and  C_33
    5  A    between atoms: O_11  and  P_14
    6  A    between atoms: O_11  and  C_18
    7  A    between atoms: C_13  and  C_19
    8  A    between atoms: P_14  and  O_27
    9  A    between atoms: C_17  and  O_27
   10  A    between atoms: C_18  and  N_39
   11  A    between atoms: C_23  and  C_37
                            x       y       z     vdW  Elec       q    Type
                         _______ _______ _______ _____ _____    ______ ____

>  <TORSDO>
F 11

$$$$
=
 OpenBabel11072409303D

 40 46  0  0  1  0  0  0  0  0999 V2000
  191.4640  176.8400  147.9570 N   0  0  0  0  0  2  0  0  0  0  0  0
  190.2130  174.5810  148.0310 F   0  0  0  0  0  0  0  0  0  0  0  0
  190.4550  177.8640  147.9540 C   0  0  0  0  0  2  0  0  0  0  0  0
  188.5740  175.5250  144.9180 C   0  0  1  0  0  3  0  0  0  0  0  0
  190.4360  176.8440  146.8790 C   0  0  2  0  0  0  0  0  0  0  0  0
  189.6320  174.6850  145.6080 C   0  0  0  0  0  2  0  0  0  0  0  0
  188.9800  176.4160  147.1940 C   0  0  1  0  0  3  0  0  0  0  0  0
  188.1120  176.5600  145.9500 C   0  0  2  0  0  3  0  0  0  0  0  0
  189.9620  175.3700  146.9190 C   0  0  1  0  0  0  0  0  0  0  0  0
  186.0610  177.8950  146.6390 C   0  0  2  0  0  3  0  0  0  0  0  0
  186.6260  176.5120  146.3600 C   0  0  2  0  0  3  0  0  0  0  0  0
  186.3680  176.9530  147.7890 C   0  0  0  0  0  2  0  0  0  0  0  0
  184.5660  177.8980  146.3720 C   0  0  0  0  0  2  0  0  0  0  0  0
  184.2160  178.8460  145.2310 C   0  0  0  0  0  2  0  0  0  0  0  0
  185.4350  180.5120  144.0410 O   0  0  0  0  0  1  0  0  0  0  0  0
  185.4360  179.1520  144.3640 C   0  0  2  0  0  3  0  0  0  0  0  0
  185.4620  178.2840  143.0910 C   0  0  2  0  0  0  0  0  0  0  0  0
  185.2640  176.9540  143.4250 F   0  0  0  0  0  0  0  0  0  0  0  0
  186.8240  178.4210  142.4180 C   0  0  0  0  0  1  0  0  0  0  0  0
  182.4550  178.0950  141.2250 C   0  0  0  0  0  2  0  0  0  0  0  0
  184.7220  178.3480  140.7840 O   0  0  0  0  0  0  0  0  0  0  0  0
  183.5070  178.0840  140.1580 C   0  0  0  0  0  2  0  0  0  0  0  0
  183.1260  178.2000  142.4380 O   0  0  0  0  0  0  0  0  0  0  0  0
  184.3790  178.7300  142.0930 C   0  0  0  0  0  3  0  0  0  0  0  0
  189.1540  176.1830  143.8280 O   0  0  0  0  0  0  0  0  0  0  0  0
  187.6910  174.1190  142.7540 O   0  0  0  0  0  1  0  0  0  0  0  0
  189.0460  175.1070  142.5200 P   0  0  1  0  0  0  0  0  0  0  0  0
  188.8720  175.8900  141.2360 O   0  0  0  0  0  0  0  0  0  0  0  0
  190.4840  174.1770  142.4470 O   0  0  0  0  0  0  0  0  0  0  0  0
  191.3000  176.3580  142.4160 O   0  0  0  0  0  1  0  0  0  0  0  0
  191.6370  174.9960  142.3350 C   0  0  0  0  0  0  0  0  0  0  0  0
  192.2710  174.7460  141.1120 O   0  0  0  0  0  1  0  0  0  0  0  0
  193.4650  174.2250  146.1160 C   0  0  0  0  0  2  0  0  0  0  0  0
  192.8750  175.8320  144.2260 C   0  0  0  0  0  2  0  0  0  0  0  0
  194.6990  174.3280  145.2380 C   0  0  1  0  0  0  0  0  0  0  0  0
  193.7960  175.5440  145.4290 C   0  0  2  0  0  3  0  0  0  0  0  0
  195.9770  174.3000  146.0500 C   0  0  0  0  0  1  0  0  0  0  0  0
  193.8190  174.1340  142.8810 C   0  0  0  0  0  2  0  0  0  0  0  0
  194.6010  173.4470  143.9920 C   0  0  0  0  0  2  0  0  0  0  0  0
  192.5620  174.6410  143.4250 N   0  0  0  0  0  0  0  0  0  0  0  0
  3  1  1  0  0  0  0
  4 25  1  6  0  0  0
  4  6  1  0  0  0  0
  4  8  1  0  0  0  0
  5  9  1  0  0  0  0
  5  7  1  0  0  0  0
  5  3  1  6  0  0  0
  5  1  1  0  0  0  0
  6  9  1  0  0  0  0
  8 11  1  0  0  0  0
  8  7  1  0  0  0  0
  9  7  1  0  0  0  0
  9  2  1  0  0  0  0
 10 12  1  0  0  0  0
 11 10  1  0  0  0  0
 11 12  1  0  0  0  0
 13 10  1  0  0  0  0
 14 13  1  0  0  0  0
 15 16  1  0  0  0  0
 16 14  1  0  0  0  0
 17 18  1  0  0  0  0
 17 16  1  0  0  0  0
 19 17  1  0  0  0  0
 20 23  1  0  0  0  0
 21 24  1  0  0  0  0
 22 21  1  0  0  0  0
 22 20  1  0  0  0  0
 24 23  1  0  0  0  0
 24 17  1  0  0  0  0
 27 26  1  0  0  0  0
 27 25  1  0  0  0  0
 28 27  2  0  0  0  0
 29 27  1  0  0  0  0
 31 30  1  0  0  0  0
 31 29  1  0  0  0  0
 31 40  1  0  0  0  0
 32 31  1  0  0  0  0
 34 36  1  0  0  0  0
 35 36  1  0  0  0  0
 35 37  1  0  0  0  0
 35 33  1  0  0  0  0
 36 33  1  0  0  0  0
 38 40  1  0  0  0  0
 38 39  1  0  0  0  0
 39 35  1  0  0  0  0
 40 34  1  0  0  0  0
M  END
>  <MODEL>
3

>  <REMARK>
 VINA RESULT:      -7.2      2.684      6.698
  Name = 
  11 active torsions:
  status: ('A' for Active; 'I' for Inactive)
    1  A    between atoms: C_2  and  C_33
    2  A    between atoms: C_2  and  C_35
    3  A    between atoms: C_7  and  C_13
    4  A    between atoms: C_7  and  C_33
    5  A    between atoms: O_11  and  P_14
    6  A    between atoms: O_11  and  C_18
    7  A    between atoms: C_13  and  C_19
    8  A    between atoms: P_14  and  O_27
    9  A    between atoms: C_17  and  O_27
   10  A    between atoms: C_18  and  N_39
   11  A    between atoms: C_23  and  C_37
                            x       y       z     vdW  Elec       q    Type
                         _______ _______ _______ _____ _____    ______ ____

>  <TORSDO>
F 11

$$$$
=
 OpenBabel11072409303D

 40 46  0  0  1  0  0  0  0  0999 V2000
  184.4480  177.6550  146.8560 N   0  0  0  0  0  2  0  0  0  0  0  0
  185.5530  179.8730  146.1300 F   0  0  0  0  0  0  0  0  0  0  0  0
  185.5180  176.7600  147.1990 C   0  0  0  0  0  2  0  0  0  0  0  0
  187.2890  178.0140  143.5220 C   0  0  1  0  0  3  0  0  0  0  0  0
  185.4880  177.3430  145.8370 C   0  0  2  0  0  0  0  0  0  0  0  0
  186.1710  178.9720  143.8880 C   0  0  0  0  0  2  0  0  0  0  0  0
  186.9090  177.9450  145.9700 C   0  0  1  0  0  3  0  0  0  0  0  0
  187.8010  177.4330  144.8450 C   0  0  2  0  0  3  0  0  0  0  0  0
  185.8670  178.7660  145.3580 C   0  0  1  0  0  0  0  0  0  0  0  0
  190.0250  176.4510  145.5890 C   0  0  2  0  0  3  0  0  0  0  0  0
  189.2750  177.7140  145.1980 C   0  0  2  0  0  3  0  0  0  0  0  0
  189.6190  177.4540  146.6530 C   0  0  0  0  0  2  0  0  0  0  0  0
  191.5010  176.6150  145.2730 C   0  0  0  0  0  2  0  0  0  0  0  0
  192.2500  175.3000  145.4520 C   0  0  0  0  0  2  0  0  0  0  0  0
  191.9150  173.4440  143.9960 O   0  0  0  0  0  1  0  0  0  0  0  0
  192.5890  174.6630  144.1050 C   0  0  2  0  0  3  0  0  0  0  0  0
  194.1090  174.4690  143.9340 C   0  0  2  0  0  0  0  0  0  0  0  0
  194.3560  173.3360  143.1760 F   0  0  0  0  0  0  0  0  0  0  0  0
  194.7480  174.2880  145.3070 C   0  0  0  0  0  1  0  0  0  0  0  0
  196.4000  176.2600  141.9080 C   0  0  0  0  0  2  0  0  0  0  0  0
  195.6790  176.3070  144.1160 O   0  0  0  0  0  0  0  0  0  0  0  0
  196.6660  176.8130  143.2750 C   0  0  0  0  0  2  0  0  0  0  0  0
  195.3750  175.3330  142.0510 O   0  0  0  0  0  0  0  0  0  0  0  0
  194.7510  175.6930  143.2560 C   0  0  0  0  0  3  0  0  0  0  0  0
  186.7650  176.9830  142.7350 O   0  0  0  0  0  0  0  0  0  0  0  0
  186.0850  177.9300  140.2450 O   0  0  0  0  0  0  0  0  0  0  0  0
  187.3400  177.2580  141.1610 P   0  0  1  0  0  0  0  0  0  0  0  0
  188.4950  178.2350  141.2110 O   0  0  0  0  0  1  0  0  0  0  0  0
  187.8630  175.7690  140.4940 O   0  0  0  0  0  0  0  0  0  0  0  0
  187.4080  174.4960  142.3910 O   0  0  0  0  0  1  0  0  0  0  0  0
  188.4000  174.9060  141.4840 C   0  0  0  0  0  0  0  0  0  0  0  0
  189.4180  175.5700  142.1790 O   0  0  0  0  0  1  0  0  0  0  0  0
  190.4560  171.2890  140.5230 C   0  0  0  0  0  2  0  0  0  0  0  0
  190.4460  173.8220  140.8160 C   0  0  0  0  0  2  0  0  0  0  0  0
  190.2940  171.8820  139.1350 C   0  0  1  0  0  0  0  0  0  0  0  0
  191.1430  172.6040  140.1780 C   0  0  2  0  0  3  0  0  0  0  0  0
  191.0420  171.0850  138.0870 C   0  0  0  0  0  1  0  0  0  0  0  0
  188.5500  173.6840  139.4130 C   0  0  0  0  0  2  0  0  0  0  0  0
  188.8530  172.3040  138.8470 C   0  0  0  0  0  2  0  0  0  0  0  0
  188.9800  173.7330  140.8080 N   0  0  0  0  0  0  0  0  0  0  0  0
  1  3  1  0  0  0  0
  4 25  1  6  0  0  0
  4  6  1  0  0  0  0
  4  8  1  0  0  0  0
  5  7  1  0  0  0  0
  5  1  1  0  0  0  0
  5  3  1  6  0  0  0
  6  9  1  0  0  0  0
  8 11  1  0  0  0  0
  8  7  1  0  0  0  0
  9  5  1  0  0  0  0
  9  7  1  0  0  0  0
  9  2  1  0  0  0  0
 10 12  1  0  0  0  0
 11 10  1  0  0  0  0
 11 12  1  0  0  0  0
 13 14  1  0  0  0  0
 13 10  1  0  0  0  0
 15 16  1  0  0  0  0
 16 14  1  0  0  0  0
 17 16  1  0  0  0  0
 17 19  1  0  0  0  0
 18 17  1  0  0  0  0
 20 23  1  0  0  0  0
 20 22  1  0  0  0  0
 22 21  1  0  0  0  0
 23 24  1  0  0  0  0
 24 17  1  0  0  0  0
 24 21  1  0  0  0  0
 26 27  2  0  0  0  0
 27 28  1  0  0  0  0
 27 25  1  0  0  0  0
 29 27  1  0  0  0  0
 29 31  1  0  0  0  0
 31 32  1  0  0  0  0
 31 30  1  0  0  0  0
 35 36  1  0  0  0  0
 35 33  1  0  0  0  0
 36 33  1  0  0  0  0
 36 34  1  0  0  0  0
 37 35  1  0  0  0  0
 38 40  1  0  0  0  0
 39 35  1  0  0  0  0
 39 38  1  0  0  0  0
 40 34  1  0  0  0  0
 40 31  1  0  0  0  0
M  END
>  <MODEL>
4

>  <REMARK>
 VINA RESULT:      -7.0      2.809      7.658
  Name = 
  11 active torsions:
  status: ('A' for Active; 'I' for Inactive)
    1  A    between atoms: C_2  and  C_33
    2  A    between atoms: C_2  and  C_35
    3  A    between atoms: C_7  and  C_13
    4  A    between atoms: C_7  and  C_33
    5  A    between atoms: O_11  and  P_14
    6  A    between atoms: O_11  and  C_18
    7  A    between atoms: C_13  and  C_19
    8  A    between atoms: P_14  and  O_27
    9  A    between atoms: C_17  and  O_27
   10  A    between atoms: C_18  and  N_39
   11  A    between atoms: C_23  and  C_37
                            x       y       z     vdW  Elec       q    Type
                         _______ _______ _______ _____ _____    ______ ____

>  <TORSDO>
F 11

$$$$
=
 OpenBabel11072409303D

 40 46  0  0  1  0  0  0  0  0999 V2000
  184.9070  179.2150  146.0860 N   0  0  0  0  0  2  0  0  0  0  0  0
  184.7630  176.6590  146.4350 F   0  0  0  0  0  0  0  0  0  0  0  0
  185.3180  179.4170  144.7230 C   0  0  0  0  0  2  0  0  0  0  0  0
  188.2880  176.4600  145.5390 C   0  0  1  0  0  3  0  0  0  0  0  0
  186.1830  178.6100  145.6150 C   0  0  2  0  0  0  0  0  0  0  0  0
  187.2380  176.4250  146.6330 C   0  0  0  0  0  2  0  0  0  0  0  0
  186.1580  177.3820  144.6700 C   0  0  1  0  0  3  0  0  0  0  0  0
  187.5790  176.9870  144.2860 C   0  0  2  0  0  3  0  0  0  0  0  0
  186.0160  177.1500  146.1050 C   0  0  1  0  0  0  0  0  0  0  0  0
  188.7900  176.1340  142.2200 C   0  0  2  0  0  3  0  0  0  0  0  0
  187.5330  176.0420  143.0690 C   0  0  2  0  0  3  0  0  0  0  0  0
  187.4970  176.7620  141.7330 C   0  0  0  0  0  2  0  0  0  0  0  0
  189.0160  174.8160  141.5000 C   0  0  0  0  0  2  0  0  0  0  0  0
  190.2840  174.1310  141.9960 C   0  0  0  0  0  2  0  0  0  0  0  0
  188.8390  172.2520  141.7520 O   0  0  0  0  0  1  0  0  0  0  0  0
  190.1850  172.6110  141.8700 C   0  0  2  0  0  3  0  0  0  0  0  0
  190.8430  171.8970  143.0670 C   0  0  2  0  0  0  0  0  0  0  0  0
  191.0290  170.5570  142.7710 F   0  0  0  0  0  0  0  0  0  0  0  0
  189.9260  172.0070  144.2820 C   0  0  0  0  0  1  0  0  0  0  0  0
  194.3680  172.1790  143.3010 C   0  0  0  0  0  2  0  0  0  0  0  0
  192.5530  172.2490  144.7490 O   0  0  0  0  0  0  0  0  0  0  0  0
  193.9420  172.1650  144.7370 C   0  0  0  0  0  2  0  0  0  0  0  0
  193.2040  172.1040  142.5440 O   0  0  0  0  0  0  0  0  0  0  0  0
  192.1960  172.5390  143.4200 C   0  0  0  0  0  3  0  0  0  0  0  0
  189.3010  177.3510  145.9090 O   0  0  0  0  0  0  0  0  0  0  0  0
  190.9640  176.7270  148.0070 O   0  0  0  0  0  1  0  0  0  0  0  0
  190.6180  176.3910  146.3840 P   0  0  1  0  0  0  0  0  0  0  0  0
  190.2490  174.9290  146.2500 O   0  0  0  0  0  0  0  0  0  0  0  0
  191.9580  176.7500  145.3780 O   0  0  0  0  0  0  0  0  0  0  0  0
  192.8960  174.9430  146.5090 O   0  0  0  0  0  1  0  0  0  0  0  0
  193.1550  176.1650  145.8650 C   0  0  0  0  0  0  0  0  0  0  0  0
  193.7710  177.0430  146.7650 O   0  0  0  0  0  1  0  0  0  0  0  0
  196.4340  175.1440  143.3280 C   0  0  0  0  0  2  0  0  0  0  0  0
  195.2470  176.8050  144.8550 C   0  0  0  0  0  2  0  0  0  0  0  0
  195.6810  176.1000  142.4210 C   0  0  1  0  0  0  0  0  0  0  0  0
  196.2820  176.6050  143.7300 C   0  0  2  0  0  3  0  0  0  0  0  0
  196.4540  176.4100  141.1560 C   0  0  0  0  0  1  0  0  0  0  0  0
  193.3970  176.3070  143.4720 C   0  0  0  0  0  2  0  0  0  0  0  0
  194.1980  175.7460  142.3060 C   0  0  0  0  0  2  0  0  0  0  0  0
  194.0610  175.9500  144.7240 N   0  0  0  0  0  0  0  0  0  0  0  0
  3  1  1  0  0  0  0
  4 25  1  1  0  0  0
  4  6  1  0  0  0  0
  5  3  1  1  0  0  0
  5  1  1  0  0  0  0
  5  9  1  0  0  0  0
  7  5  1  0  0  0  0
  7  9  1  0  0  0  0
  8  7  1  0  0  0  0
  8  4  1  0  0  0  0
  9  2  1  0  0  0  0
  9  6  1  0  0  0  0
 10 11  1  0  0  0  0
 11  8  1  0  0  0  0
 12 10  1  0  0  0  0
 12 11  1  0  0  0  0
 13 14  1  0  0  0  0
 13 10  1  0  0  0  0
 15 16  1  0  0  0  0
 16 14  1  0  0  0  0
 16 17  1  0  0  0  0
 17 24  1  0  0  0  0
 17 19  1  0  0  0  0
 18 17  1  0  0  0  0
 20 22  1  0  0  0  0
 22 21  1  0  0  0  0
 23 20  1  0  0  0  0
 23 24  1  0  0  0  0
 24 21  1  0  0  0  0
 25 27  1  0  0  0  0
 27 26  1  0  0  0  0
 28 27  2  0  0  0  0
 29 31  1  0  0  0  0
 29 27  1  0  0  0  0
 31 30  1  0  0  0  0
 31 32  1  0  0  0  0
 33 36  1  0  0  0  0
 35 33  1  0  0  0  0
 35 36  1  0  0  0  0
 36 34  1  0  0  0  0
 37 35  1  0  0  0  0
 38 40  1  0  0  0  0
 39 35  1  0  0  0  0
 39 38  1  0  0  0  0
 40 34  1  0  0  0  0
 40 31  1  0  0  0  0
M  END
>  <MODEL>
5

>  <REMARK>
 VINA RESULT:      -7.0      2.661      8.410
  Name = 
  11 active torsions:
  status: ('A' for Active; 'I' for Inactive)
    1  A    between atoms: C_2  and  C_33
    2  A    between atoms: C_2  and  C_35
    3  A    between atoms: C_7  and  C_13
    4  A    between atoms: C_7  and  C_33
    5  A    between atoms: O_11  and  P_14
    6  A    between atoms: O_11  and  C_18
    7  A    between atoms: C_13  and  C_19
    8  A    between atoms: P_14  and  O_27
    9  A    between atoms: C_17  and  O_27
   10  A    between atoms: C_18  and  N_39
   11  A    between atoms: C_23  and  C_37
                            x       y       z     vdW  Elec       q    Type
                         _______ _______ _______ _____ _____    ______ ____

>  <TORSDO>
F 11

$$$$
=
 OpenBabel11072409303D

 40 46  0  0  1  0  0  0  0  0999 V2000
  184.6500  179.1540  146.0580 N   0  0  0  0  0  2  0  0  0  0  0  0
  184.5000  176.6300  146.5840 F   0  0  0  0  0  0  0  0  0  0  0  0
  185.3340  179.2680  144.7990 C   0  0  0  0  0  2  0  0  0  0  0  0
  188.1390  176.5120  146.4620 C   0  0  1  0  0  3  0  0  0  0  0  0
  186.0120  178.5700  145.9160 C   0  0  2  0  0  0  0  0  0  0  0  0
  186.8830  176.5160  147.3120 C   0  0  0  0  0  2  0  0  0  0  0  0
  186.2180  177.2730  145.0930 C   0  0  1  0  0  3  0  0  0  0  0  0
  187.6970  176.9100  145.0490 C   0  0  2  0  0  3  0  0  0  0  0  0
  185.7820  177.1460  146.4820 C   0  0  1  0  0  0  0  0  0  0  0  0
  188.7730  176.4310  142.7960 C   0  0  2  0  0  3  0  0  0  0  0  0
  187.9330  175.8730  143.9330 C   0  0  2  0  0  3  0  0  0  0  0  0
  187.2800  176.2340  142.6100 C   0  0  0  0  0  2  0  0  0  0  0  0
  189.5230  175.2990  142.1130 C   0  0  0  0  0  2  0  0  0  0  0  0
  188.7250  174.7420  140.9410 C   0  0  0  0  0  2  0  0  0  0  0  0
  189.6720  172.7600  141.8610 O   0  0  0  0  0  1  0  0  0  0  0  0
  188.7260  173.2140  140.9400 C   0  0  2  0  0  3  0  0  0  0  0  0
  189.0070  172.6470  139.5340 C   0  0  2  0  0  0  0  0  0  0  0  0
  187.8840  171.9910  139.0580 F   0  0  0  0  0  0  0  0  0  0  0  0
  190.1570  171.6480  139.6190 C   0  0  0  0  0  1  0  0  0  0  0  0
  189.1900  174.3810  136.4490 C   0  0  0  0  0  2  0  0  0  0  0  0
  190.6780  173.5200  138.0110 O   0  0  0  0  0  0  0  0  0  0  0  0
  190.6240  174.0390  136.7210 C   0  0  0  0  0  2  0  0  0  0  0  0
  188.4580  173.8940  137.5250 O   0  0  0  0  0  0  0  0  0  0  0  0
  189.4050  173.7650  138.5540 C   0  0  0  0  0  3  0  0  0  0  0  0
  189.0280  177.4710  146.9580 O   0  0  0  0  0  0  0  0  0  0  0  0
  191.2390  177.3760  148.5880 O   0  0  0  0  0  1  0  0  0  0  0  0
  190.4820  176.6480  147.2610 P   0  0  1  0  0  0  0  0  0  0  0  0
  190.1820  175.2020  147.5940 O   0  0  0  0  0  0  0  0  0  0  0  0
  191.4690  176.7330  145.8620 O   0  0  0  0  0  0  0  0  0  0  0  0
  192.4860  174.9320  146.9330 O   0  0  0  0  0  1  0  0  0  0  0  0
  192.6610  175.9780  146.0110 C   0  0  0  0  0  0  0  0  0  0  0  0
  193.6920  176.8170  146.4500 O   0  0  0  0  0  1  0  0  0  0  0  0
  194.4840  175.1690  142.2360 C   0  0  0  0  0  2  0  0  0  0  0  0
  192.7740  176.4290  143.6470 C   0  0  0  0  0  2  0  0  0  0  0  0
  193.1610  174.4470  142.0540 C   0  0  1  0  0  0  0  0  0  0  0  0
  193.1840  175.9630  142.2350 C   0  0  2  0  0  3  0  0  0  0  0  0
  192.9820  173.9370  140.6400 C   0  0  0  0  0  1  0  0  0  0  0  0
  192.2180  174.2550  144.3870 C   0  0  0  0  0  2  0  0  0  0  0  0
  192.8470  173.5080  143.2200 C   0  0  0  0  0  2  0  0  0  0  0  0
  193.0280  175.4310  144.6940 N   0  0  0  0  0  0  0  0  0  0  0  0
  3  1  1  0  0  0  0
  4 25  1  1  0  0  0
  4  6  1  0  0  0  0
  5  3  1  1  0  0  0
  5  1  1  0  0  0  0
  5  9  1  0  0  0  0
  7  5  1  0  0  0  0
  7  9  1  0  0  0  0
  8  7  1  0  0  0  0
  8  4  1  0  0  0  0
  9  2  1  0  0  0  0
  9  6  1  0  0  0  0
 10 11  1  0  0  0  0
 11  8  1  0  0  0  0
 12 10  1  0  0  0  0
 12 11  1  0  0  0  0
 13 10  1  0  0  0  0
 14 13  1  0  0  0  0
 16 14  1  0  0  0  0
 16 15  1  0  0  0  0
 17 19  1  0  0  0  0
 17 16  1  0  0  0  0
 18 17  1  0  0  0  0
 20 22  1  0  0  0  0
 20 23  1  0  0  0  0
 21 24  1  0  0  0  0
 22 21  1  0  0  0  0
 23 24  1  0  0  0  0
 24 17  1  0  0  0  0
 25 27  1  0  0  0  0
 27 28  2  0  0  0  0
 27 26  1  0  0  0  0
 29 31  1  0  0  0  0
 29 27  1  0  0  0  0
 31 32  1  0  0  0  0
 31 30  1  0  0  0  0
 34 40  1  0  0  0  0
 35 36  1  0  0  0  0
 35 33  1  0  0  0  0
 35 39  1  0  0  0  0
 36 33  1  0  0  0  0
 36 34  1  0  0  0  0
 37 35  1  0  0  0  0
 38 40  1  0  0  0  0
 39 38  1  0  0  0  0
 40 31  1  0  0  0  0
M  END
>  <MODEL>
6

>  <REMARK>
 VINA RESULT:      -7.0      3.064      8.403
  Name = 
  11 active torsions:
  status: ('A' for Active; 'I' for Inactive)
    1  A    between atoms: C_2  and  C_33
    2  A    between atoms: C_2  and  C_35
    3  A    between atoms: C_7  and  C_13
    4  A    between atoms: C_7  and  C_33
    5  A    between atoms: O_11  and  P_14
    6  A    between atoms: O_11  and  C_18
    7  A    between atoms: C_13  and  C_19
    8  A    between atoms: P_14  and  O_27
    9  A    between atoms: C_17  and  O_27
   10  A    between atoms: C_18  and  N_39
   11  A    between atoms: C_23  and  C_37
                            x       y       z     vdW  Elec       q    Type
                         _______ _______ _______ _____ _____    ______ ____

>  <TORSDO>
F 11

$$$$
=
 OpenBabel11072409303D

 40 46  0  0  1  0  0  0  0  0999 V2000
  184.8740  178.8480  146.8700 N   0  0  0  0  0  2  0  0  0  0  0  0
  184.9400  176.2830  146.5700 F   0  0  0  0  0  0  0  0  0  0  0  0
  185.3450  179.4140  145.6350 C   0  0  0  0  0  2  0  0  0  0  0  0
  188.5160  176.5700  145.9380 C   0  0  1  0  0  3  0  0  0  0  0  0
  186.2250  178.4740  146.3690 C   0  0  2  0  0  0  0  0  0  0  0  0
  187.4100  176.1860  146.9020 C   0  0  0  0  0  2  0  0  0  0  0  0
  186.3670  177.5240  145.1530 C   0  0  1  0  0  3  0  0  0  0  0  0
  187.8380  177.3420  144.8000 C   0  0  2  0  0  3  0  0  0  0  0  0
  186.1610  176.9300  146.4720 C   0  0  1  0  0  0  0  0  0  0  0  0
  189.3840  176.3940  143.0180 C   0  0  2  0  0  3  0  0  0  0  0  0
  187.9490  176.7310  143.3880 C   0  0  2  0  0  3  0  0  0  0  0  0
  188.7040  177.6010  142.3990 C   0  0  0  0  0  2  0  0  0  0  0  0
  189.3970  175.2510  142.0170 C   0  0  0  0  0  2  0  0  0  0  0  0
  190.0730  174.0170  142.6030 C   0  0  0  0  0  2  0  0  0  0  0  0
  189.1160  171.9530  143.3100 O   0  0  0  0  0  1  0  0  0  0  0  0
  189.3600  172.7350  142.1770 C   0  0  2  0  0  3  0  0  0  0  0  0
  190.1760  171.9500  141.1310 C   0  0  2  0  0  0  0  0  0  0  0  0
  190.1860  170.6030  141.4560 F   0  0  0  0  0  0  0  0  0  0  0  0
  191.6130  172.4640  141.1290 C   0  0  0  0  0  1  0  0  0  0  0  0
  189.5640  173.5470  138.0270 C   0  0  0  0  0  2  0  0  0  0  0  0
  188.3050  172.6980  139.7850 O   0  0  0  0  0  0  0  0  0  0  0  0
  188.1980  173.4830  138.6400 C   0  0  0  0  0  2  0  0  0  0  0  0
  190.4290  172.9370  138.9270 O   0  0  0  0  0  0  0  0  0  0  0  0
  189.5920  172.1350  139.7190 C   0  0  0  0  0  3  0  0  0  0  0  0
  189.4200  177.4120  146.5940 O   0  0  0  0  0  0  0  0  0  0  0  0
  191.3330  176.8600  148.4900 O   0  0  0  0  0  1  0  0  0  0  0  0
  190.7790  176.4560  146.9420 P   0  0  1  0  0  0  0  0  0  0  0  0
  190.3850  174.9940  146.9240 O   0  0  0  0  0  0  0  0  0  0  0  0
  191.9830  176.7510  145.7580 O   0  0  0  0  0  0  0  0  0  0  0  0
  192.9560  174.8640  146.7160 O   0  0  0  0  0  1  0  0  0  0  0  0
  193.1980  176.0850  146.0630 C   0  0  0  0  0  0  0  0  0  0  0  0
  193.9850  176.9020  146.8820 O   0  0  0  0  0  1  0  0  0  0  0  0
  196.0460  174.9800  143.0800 C   0  0  0  0  0  2  0  0  0  0  0  0
  195.1340  176.6720  144.7550 C   0  0  0  0  0  2  0  0  0  0  0  0
  195.1920  175.9530  142.2870 C   0  0  1  0  0  0  0  0  0  0  0  0
  195.9890  176.4450  143.4920 C   0  0  2  0  0  3  0  0  0  0  0  0
  195.7790  176.2430  140.9220 C   0  0  0  0  0  1  0  0  0  0  0  0
  193.0910  176.2180  143.6590 C   0  0  0  0  0  2  0  0  0  0  0  0
  193.6990  175.6360  142.3920 C   0  0  0  0  0  2  0  0  0  0  0  0
  193.9220  175.8460  144.8020 N   0  0  0  0  0  0  0  0  0  0  0  0
  3  1  1  0  0  0  0
  4 25  1  1  0  0  0
  4  6  1  0  0  0  0
  5  3  1  1  0  0  0
  5  9  1  0  0  0  0
  5  1  1  0  0  0  0
  7  5  1  0  0  0  0
  7  9  1  0  0  0  0
  8  7  1  0  0  0  0
  8  4  1  0  0  0  0
  9  2  1  0  0  0  0
  9  6  1  0  0  0  0
 10 11  1  0  0  0  0
 11  8  1  0  0  0  0
 12 10  1  0  0  0  0
 12 11  1  0  0  0  0
 13 14  1  0  0  0  0
 13 10  1  0  0  0  0
 16 14  1  0  0  0  0
 16 15  1  0  0  0  0
 17 18  1  0  0  0  0
 17 16  1  0  0  0  0
 19 17  1  0  0  0  0
 20 22  1  0  0  0  0
 20 23  1  0  0  0  0
 22 21  1  0  0  0  0
 23 24  1  0  0  0  0
 24 21  1  0  0  0  0
 24 17  1  0  0  0  0
 25 27  1  0  0  0  0
 27 26  1  0  0  0  0
 28 27  2  0  0  0  0
 29 31  1  0  0  0  0
 29 27  1  0  0  0  0
 31 30  1  0  0  0  0
 31 32  1  0  0  0  0
 33 36  1  0  0  0  0
 34 40  1  0  0  0  0
 35 39  1  0  0  0  0
 35 33  1  0  0  0  0
 35 36  1  0  0  0  0
 36 34  1  0  0  0  0
 37 35  1  0  0  0  0
 38 40  1  0  0  0  0
 39 38  1  0  0  0  0
 40 31  1  0  0  0  0
M  END
>  <MODEL>
7

>  <REMARK>
 VINA RESULT:      -6.9      2.913      8.324
  Name = 
  11 active torsions:
  status: ('A' for Active; 'I' for Inactive)
    1  A    between atoms: C_2  and  C_33
    2  A    between atoms: C_2  and  C_35
    3  A    between atoms: C_7  and  C_13
    4  A    between atoms: C_7  and  C_33
    5  A    between atoms: O_11  and  P_14
    6  A    between atoms: O_11  and  C_18
    7  A    between atoms: C_13  and  C_19
    8  A    between atoms: P_14  and  O_27
    9  A    between atoms: C_17  and  O_27
   10  A    between atoms: C_18  and  N_39
   11  A    between atoms: C_23  and  C_37
                            x       y       z     vdW  Elec       q    Type
                         _______ _______ _______ _____ _____    ______ ____

>  <TORSDO>
F 11

$$$$
=
 OpenBabel11072409303D

 40 46  0  0  1  0  0  0  0  0999 V2000
  184.1460  178.9650  145.9520 N   0  0  0  0  0  2  0  0  0  0  0  0
  184.5640  176.4340  146.2560 F   0  0  0  0  0  0  0  0  0  0  0  0
  184.2420  179.2270  144.5420 C   0  0  0  0  0  2  0  0  0  0  0  0
  187.8240  176.9100  144.7020 C   0  0  1  0  0  3  0  0  0  0  0  0
  185.4000  178.6130  145.2320 C   0  0  2  0  0  0  0  0  0  0  0  0
  187.0300  176.6850  145.9740 C   0  0  0  0  0  2  0  0  0  0  0  0
  185.4310  177.3930  144.2770 C   0  0  1  0  0  3  0  0  0  0  0  0
  186.8010  177.2760  143.6210 C   0  0  2  0  0  3  0  0  0  0  0  0
  185.6130  177.1540  145.7070 C   0  0  1  0  0  0  0  0  0  0  0  0
  187.9790  176.3170  141.5820 C   0  0  2  0  0  3  0  0  0  0  0  0
  186.7050  176.3270  142.4100 C   0  0  2  0  0  3  0  0  0  0  0  0
  186.7450  177.0350  141.0680 C   0  0  0  0  0  2  0  0  0  0  0  0
  188.1190  174.9790  140.8770 C   0  0  0  0  0  2  0  0  0  0  0  0
  189.3270  174.2090  141.3960 C   0  0  0  0  0  2  0  0  0  0  0  0
  187.6910  172.5850  141.9980 O   0  0  0  0  0  1  0  0  0  0  0  0
  189.0130  172.7230  141.5650 C   0  0  2  0  0  3  0  0  0  0  0  0
  189.9880  172.0440  142.5460 C   0  0  2  0  0  0  0  0  0  0  0  0
  189.3790  171.8840  143.7800 F   0  0  0  0  0  0  0  0  0  0  0  0
  191.2200  172.9270  142.7200 C   0  0  0  0  0  1  0  0  0  0  0  0
  192.2550  169.5300  141.4960 C   0  0  0  0  0  2  0  0  0  0  0  0
  190.4250  170.6530  140.6100 O   0  0  0  0  0  0  0  0  0  0  0  0
  191.4720  169.8110  140.2490 C   0  0  0  0  0  2  0  0  0  0  0  0
  191.7260  170.3500  142.4860 O   0  0  0  0  0  0  0  0  0  0  0  0
  190.4430  170.6730  142.0160 C   0  0  0  0  0  3  0  0  0  0  0  0
  188.6990  177.9850  144.8960 O   0  0  0  0  0  0  0  0  0  0  0  0
  190.2220  175.7750  144.3030 O   0  0  0  0  0  1  0  0  0  0  0  0
  190.2510  177.3070  145.0210 P   0  0  1  0  0  0  0  0  0  0  0  0
  191.2420  178.1810  144.2830 O   0  0  0  0  0  0  0  0  0  0  0  0
  190.6800  177.2070  146.6770 O   0  0  0  0  0  0  0  0  0  0  0  0
  190.3090  174.9080  146.7350 O   0  0  0  0  0  1  0  0  0  0  0  0
  191.2260  175.9390  147.0050 C   0  0  0  0  0  0  0  0  0  0  0  0
  191.5660  175.9140  148.3630 O   0  0  0  0  0  1  0  0  0  0  0  0
  194.0890  174.8720  144.0230 C   0  0  0  0  0  2  0  0  0  0  0  0
  192.7820  174.3160  146.1400 C   0  0  0  0  0  2  0  0  0  0  0  0
  195.0150  175.1670  145.1890 C   0  0  1  0  0  0  0  0  0  0  0  0
  194.0230  174.0100  145.2760 C   0  0  2  0  0  3  0  0  0  0  0  0
  196.4520  174.8040  144.8800 C   0  0  0  0  0  1  0  0  0  0  0  0
  193.5790  176.4280  146.8360 C   0  0  0  0  0  2  0  0  0  0  0  0
  194.7220  176.5210  145.8360 C   0  0  0  0  0  2  0  0  0  0  0  0
  192.4500  175.7440  146.2090 N   0  0  0  0  0  0  0  0  0  0  0  0
  3  1  1  0  0  0  0
  4 25  1  1  0  0  0
  4  6  1  0  0  0  0
  5  3  1  1  0  0  0
  5  9  1  0  0  0  0
  5  1  1  0  0  0  0
  7  5  1  0  0  0  0
  7  9  1  0  0  0  0
  8  7  1  0  0  0  0
  8  4  1  0  0  0  0
  9  6  1  0  0  0  0
  9  2  1  0  0  0  0
 10 11  1  0  0  0  0
 11  8  1  0  0  0  0
 12 10  1  0  0  0  0
 12 11  1  0  0  0  0
 13 14  1  0  0  0  0
 13 10  1  0  0  0  0
 14 16  1  0  0  0  0
 16 15  1  0  0  0  0
 16 17  1  0  0  0  0
 17 19  1  0  0  0  0
 17 18  1  0  0  0  0
 20 23  1  0  0  0  0
 21 24  1  0  0  0  0
 22 21  1  0  0  0  0
 22 20  1  0  0  0  0
 24 23  1  0  0  0  0
 24 17  1  0  0  0  0
 25 27  1  0  0  0  0
 26 27  1  0  0  0  0
 27 29  1  0  0  0  0
 28 27  2  0  0  0  0
 29 31  1  0  0  0  0
 30 31  1  0  0  0  0
 31 32  1  0  0  0  0
 33 35  1  0  0  0  0
 33 36  1  0  0  0  0
 34 40  1  0  0  0  0
 35 36  1  0  0  0  0
 35 39  1  0  0  0  0
 36 34  1  0  0  0  0
 37 35  1  0  0  0  0
 39 38  1  0  0  0  0
 40 38  1  0  0  0  0
 40 31  1  0  0  0  0
M  END
>  <MODEL>
8

>  <REMARK>
 VINA RESULT:      -6.9      2.840      8.714
  Name = 
  11 active torsions:
  status: ('A' for Active; 'I' for Inactive)
    1  A    between atoms: C_2  and  C_33
    2  A    between atoms: C_2  and  C_35
    3  A    between atoms: C_7  and  C_13
    4  A    between atoms: C_7  and  C_33
    5  A    between atoms: O_11  and  P_14
    6  A    between atoms: O_11  and  C_18
    7  A    between atoms: C_13  and  C_19
    8  A    between atoms: P_14  and  O_27
    9  A    between atoms: C_17  and  O_27
   10  A    between atoms: C_18  and  N_39
   11  A    between atoms: C_23  and  C_37
                            x       y       z     vdW  Elec       q    Type
                         _______ _______ _______ _____ _____    ______ ____

>  <TORSDO>
F 11

$$$$
=
 OpenBabel11072409303D

 40 46  0  0  1  0  0  0  0  0999 V2000
  184.4560  177.9910  145.8250 N   0  0  0  0  0  2  0  0  0  0  0  0
  185.9290  179.7100  144.5820 F   0  0  0  0  0  0  0  0  0  0  0  0
  185.3040  177.3550  146.7970 C   0  0  0  0  0  2  0  0  0  0  0  0
  188.0980  176.9550  143.5930 C   0  0  1  0  0  3  0  0  0  0  0  0
  185.6920  177.2970  145.3680 C   0  0  2  0  0  0  0  0  0  0  0  0
  187.0240  177.9490  143.1950 C   0  0  0  0  0  2  0  0  0  0  0  0
  187.0810  177.9320  145.6310 C   0  0  1  0  0  3  0  0  0  0  0  0
  188.1820  177.0100  145.1230 C   0  0  2  0  0  3  0  0  0  0  0  0
  186.3240  178.3860  144.4660 C   0  0  1  0  0  0  0  0  0  0  0  0
  190.1880  176.3470  146.5380 C   0  0  2  0  0  3  0  0  0  0  0  0
  189.5310  177.4510  145.7250 C   0  0  2  0  0  3  0  0  0  0  0  0
  189.5340  177.5220  147.2410 C   0  0  0  0  0  2  0  0  0  0  0  0
  191.6950  176.5350  146.5300 C   0  0  0  0  0  2  0  0  0  0  0  0
  192.4160  175.1930  146.5720 C   0  0  0  0  0  2  0  0  0  0  0  0
  194.2940  176.6550  146.4650 O   0  0  0  0  0  1  0  0  0  0  0  0
  193.8930  175.3400  146.2130 C   0  0  2  0  0  3  0  0  0  0  0  0
  194.1630  174.9540  144.7450 C   0  0  2  0  0  0  0  0  0  0  0  0
  192.9680  174.8950  144.0470 F   0  0  0  0  0  0  0  0  0  0  0  0
  194.8230  173.5790  144.7020 C   0  0  0  0  0  1  0  0  0  0  0  0
  196.0270  176.4450  142.1250 C   0  0  0  0  0  2  0  0  0  0  0  0
  196.4470  175.5900  144.2440 O   0  0  0  0  0  0  0  0  0  0  0  0
  197.0930  176.0180  143.0870 C   0  0  0  0  0  2  0  0  0  0  0  0
  194.8120  176.0920  142.7010 O   0  0  0  0  0  0  0  0  0  0  0  0
  195.1040  175.9670  144.0690 C   0  0  0  0  0  3  0  0  0  0  0  0
  187.7010  175.6730  143.1960 O   0  0  0  0  0  0  0  0  0  0  0  0
  190.3550  175.9730  142.5510 O   0  0  0  0  0  0  0  0  0  0  0  0
  189.1290  174.8380  142.8180 P   0  0  1  0  0  0  0  0  0  0  0  0
  189.5190  173.9530  143.9820 O   0  0  0  0  0  1  0  0  0  0  0  0
  188.8580  173.8800  141.4220 O   0  0  0  0  0  0  0  0  0  0  0  0
  189.3940  171.7940  142.3070 O   0  0  0  0  0  1  0  0  0  0  0  0
  189.7430  172.7730  141.3620 C   0  0  0  0  0  0  0  0  0  0  0  0
  191.0520  173.2080  141.6050 O   0  0  0  0  0  1  0  0  0  0  0  0
  189.7240  170.1970  137.9570 C   0  0  0  0  0  2  0  0  0  0  0  0
  190.9860  171.6450  139.6330 C   0  0  0  0  0  2  0  0  0  0  0  0
  189.9580  171.5350  137.2790 C   0  0  1  0  0  0  0  0  0  0  0  0
  191.0000  170.9770  138.2430 C   0  0  2  0  0  3  0  0  0  0  0  0
  190.2500  171.3790  135.8010 C   0  0  0  0  0  1  0  0  0  0  0  0
  189.3580  173.2480  139.0310 C   0  0  0  0  0  2  0  0  0  0  0  0
  188.9470  172.5950  137.7200 C   0  0  0  0  0  2  0  0  0  0  0  0
  189.6810  172.2070  140.0030 N   0  0  0  0  0  0  0  0  0  0  0  0
  1  3  1  0  0  0  0
  4 25  1  1  0  0  0
  4  8  1  0  0  0  0
  5  7  1  0  0  0  0
  5  1  1  0  0  0  0
  5  3  1  6  0  0  0
  6  4  1  0  0  0  0
  6  9  1  0  0  0  0
  8  7  1  0  0  0  0
  8 11  1  0  0  0  0
  9  2  1  0  0  0  0
  9  5  1  0  0  0  0
  9  7  1  0  0  0  0
 10 12  1  0  0  0  0
 11 10  1  0  0  0  0
 11 12  1  0  0  0  0
 13 10  1  0  0  0  0
 13 14  1  0  0  0  0
 16 15  1  0  0  0  0
 16 14  1  0  0  0  0
 17 16  1  0  0  0  0
 18 17  1  0  0  0  0
 19 17  1  0  0  0  0
 20 23  1  0  0  0  0
 20 22  1  0  0  0  0
 22 21  1  0  0  0  0
 23 24  1  0  0  0  0
 24 21  1  0  0  0  0
 24 17  1  0  0  0  0
 26 27  2  0  0  0  0
 27 25  1  0  0  0  0
 27 28  1  0  0  0  0
 29 27  1  0  0  0  0
 31 29  1  0  0  0  0
 31 32  1  0  0  0  0
 31 30  1  0  0  0  0
 33 36  1  0  0  0  0
 34 40  1  0  0  0  0
 35 39  1  0  0  0  0
 35 33  1  0  0  0  0
 35 36  1  0  0  0  0
 36 34  1  0  0  0  0
 37 35  1  0  0  0  0
 38 40  1  0  0  0  0
 39 38  1  0  0  0  0
 40 31  1  0  0  0  0
M  END
>  <MODEL>
9

>  <REMARK>
 VINA RESULT:      -6.9      3.122      7.449
  Name = 
  11 active torsions:
  status: ('A' for Active; 'I' for Inactive)
    1  A    between atoms: C_2  and  C_33
    2  A    between atoms: C_2  and  C_35
    3  A    between atoms: C_7  and  C_13
    4  A    between atoms: C_7  and  C_33
    5  A    between atoms: O_11  and  P_14
    6  A    between atoms: O_11  and  C_18
    7  A    between atoms: C_13  and  C_19
    8  A    between atoms: P_14  and  O_27
    9  A    between atoms: C_17  and  O_27
   10  A    between atoms: C_18  and  N_39
   11  A    between atoms: C_23  and  C_37
                            x       y       z     vdW  Elec       q    Type
                         _______ _______ _______ _____ _____    ______ ____

>  <TORSDO>
F 11

$$$$
