=
 OpenBabel11062419443D

 30 32  0  0  1  0  0  0  0  0999 V2000
  191.8460  175.6510  145.3190 C   0  0  0  0  0  0  0  0  0  0  0  0
  189.3380  176.8120  145.6880 C   0  0  0  0  0  0  0  0  0  0  0  0
  189.5340  175.4630  146.0030 C   0  0  0  0  0  3  0  0  0  0  0  0
  190.4070  177.5450  145.1690 C   0  0  0  0  0  3  0  0  0  0  0  0
  191.6210  176.9570  144.9960 N   0  0  0  0  0  0  0  0  0  0  0  0
  190.7860  174.8790  145.8200 C   0  0  0  0  0  3  0  0  0  0  0  0
  193.1980  175.0140  145.0620 C   0  0  1  0  0  0  0  0  0  0  0  0
  194.4020  176.8550  146.0830 O   0  0  0  0  0  1  0  0  0  0  0  0
  194.3030  172.7150  145.3180 C   0  0  0  0  0  0  0  0  0  0  0  0
  194.2210  175.4700  146.1210 C   0  0  2  0  0  3  0  0  0  0  0  0
  193.0240  173.4940  145.1530 C   0  0  0  0  0  2  0  0  0  0  0  0
  196.6820  172.4830  145.9820 C   0  0  0  0  0  1  0  0  0  0  0  0
  193.7010  175.3670  143.6590 C   0  0  0  0  0  1  0  0  0  0  0  0
  195.5680  174.7740  145.9400 C   0  0  0  0  0  2  0  0  0  0  0  0
  195.4400  173.2870  145.7690 C   0  0  0  0  0  0  0  0  0  0  0  0
  194.2220  171.2910  145.1030 C   0  0  0  0  0  0  0  0  0  0  0  0
  194.1560  170.1480  144.9300 N   0  0  0  0  0  0  0  0  0  0  0  0
  185.3020  177.9480  146.0590 C   0  0  0  0  0  2  0  0  0  0  0  0
  187.9920  177.4600  145.8150 C   0  0  1  0  0  3  0  0  0  0  0  0
  187.2760  177.6980  144.4720 C   0  0  2  0  0  3  0  0  0  0  0  0
  185.8800  178.3110  144.6840 C   0  0  0  0  0  2  0  0  0  0  0  0
  185.7500  176.6760  146.4540 O   0  0  0  0  0  0  0  0  0  0  0  0
  187.0860  176.8170  146.8860 C   0  0  0  0  0  2  0  0  0  0  0  0
  185.9480  176.0560  143.2370 O   0  0  0  0  0  1  0  0  0  0  0  0
  187.2470  176.4420  143.5770 C   0  0  1  0  0  3  0  0  0  0  0  0
  188.1240  176.5560  142.3270 C   0  0  1  0  0  3  0  0  0  0  0  0
  188.7280  177.9430  142.1480 C   0  0  0  0  0  1  0  0  0  0  0  0
  188.8070  174.1660  142.5080 O   0  0  0  0  0  1  0  0  0  0  0  0
  190.3820  175.7780  142.1020 O   0  0  0  0  0  0  0  0  0  0  0  0
  189.1700  175.4880  142.2900 C   0  0  0  0  0  0  0  0  0  0  0  0
  1  6  1  0  0  0  0
  2  3  1  0  0  0  0
  4  2  2  0  0  0  0
  5  4  1  0  0  0  0
  5  1  2  0  0  0  0
  6  3  2  0  0  0  0
  7 13  1  6  0  0  0
  7 11  1  0  0  0  0
  7  1  1  0  0  0  0
  7 10  1  0  0  0  0
  9 15  2  0  0  0  0
 10  8  1  6  0  0  0
 11  9  1  0  0  0  0
 14 10  1  0  0  0  0
 15 14  1  0  0  0  0
 15 12  1  0  0  0  0
 16  9  1  0  0  0  0
 17 16  3  0  0  0  0
 18 22  1  0  0  0  0
 19  2  1  6  0  0  0
 19 23  1  0  0  0  0
 20 25  1  1  0  0  0
 20 21  1  0  0  0  0
 20 19  1  0  0  0  0
 21 18  1  0  0  0  0
 22 23  1  0  0  0  0
 25 24  1  6  0  0  0
 26 27  1  1  0  0  0
 26 25  1  0  0  0  0
 29 30  2  0  0  0  0
 30 26  1  0  0  0  0
 30 28  1  0  0  0  0
M  END
>  <MODEL>
1

>  <REMARK>
 VINA RESULT:      -7.3      0.000      0.000
  Name = 
  6 active torsions:
  status: ('A' for Active; 'I' for Inactive)
    1  A    between atoms: C_1  and  C_7
    2  A    between atoms: C_2  and  C_15
    3  A    between atoms: C_4  and  C_22
    4  A    between atoms: C_4  and  C_26
    5  A    between atoms: C_12  and  C_16
    6  A    between atoms: C_21  and  C_26
                            x       y       z     vdW  Elec       q    Type
                         _______ _______ _______ _____ _____    ______ ____

>  <TORSDO>
F 6

$$$$
=
 OpenBabel11062419443D

 30 32  0  0  1  0  0  0  0  0999 V2000
  191.5000  175.8640  145.4030 C   0  0  0  0  0  0  0  0  0  0  0  0
  188.9520  176.9220  145.8130 C   0  0  0  0  0  0  0  0  0  0  0  0
  189.2340  175.6110  146.2110 C   0  0  0  0  0  3  0  0  0  0  0  0
  189.9560  177.6690  145.1930 C   0  0  0  0  0  3  0  0  0  0  0  0
  191.1910  177.1320  145.0020 N   0  0  0  0  0  0  0  0  0  0  0  0
  190.5060  175.0780  146.0060 C   0  0  0  0  0  3  0  0  0  0  0  0
  192.8710  175.2790  145.1240 C   0  0  1  0  0  0  0  0  0  0  0  0
  194.0080  177.0190  146.3740 O   0  0  0  0  0  1  0  0  0  0  0  0
  194.0100  172.9830  145.1720 C   0  0  0  0  0  0  0  0  0  0  0  0
  193.8520  175.6360  146.2590 C   0  0  2  0  0  3  0  0  0  0  0  0
  192.7220  173.7560  145.0480 C   0  0  0  0  0  2  0  0  0  0  0  0
  196.3710  172.7180  145.8850 C   0  0  0  0  0  1  0  0  0  0  0  0
  193.4110  175.7870  143.7840 C   0  0  0  0  0  1  0  0  0  0  0  0
  195.2160  174.9830  146.0500 C   0  0  0  0  0  2  0  0  0  0  0  0
  195.1220  173.5210  145.7180 C   0  0  0  0  0  0  0  0  0  0  0  0
  193.9610  171.5890  144.8050 C   0  0  0  0  0  0  0  0  0  0  0  0
  193.9220  170.4690  144.5110 N   0  0  0  0  0  0  0  0  0  0  0  0
  184.8690  177.8830  146.1540 C   0  0  0  0  0  2  0  0  0  0  0  0
  187.5810  177.5100  145.9600 C   0  0  1  0  0  3  0  0  0  0  0  0
  186.9050  177.8780  144.6260 C   0  0  2  0  0  3  0  0  0  0  0  0
  185.4810  178.4190  144.8530 C   0  0  0  0  0  2  0  0  0  0  0  0
  185.3470  176.5880  146.4190 O   0  0  0  0  0  0  0  0  0  0  0  0
  186.6610  176.7200  146.9150 C   0  0  0  0  0  2  0  0  0  0  0  0
  185.6780  176.3240  143.1890 O   0  0  0  0  0  1  0  0  0  0  0  0
  186.9510  176.7330  143.5940 C   0  0  1  0  0  3  0  0  0  0  0  0
  187.8360  177.0320  142.3820 C   0  0  1  0  0  3  0  0  0  0  0  0
  188.8230  175.9130  142.0740 C   0  0  0  0  0  1  0  0  0  0  0  0
  186.1540  178.4780  141.2460 O   0  0  0  0  0  1  0  0  0  0  0  0
  187.0820  176.7090  140.1280 O   0  0  0  0  0  0  0  0  0  0  0  0
  187.0210  177.3960  141.1810 C   0  0  0  0  0  0  0  0  0  0  0  0
  1  6  1  0  0  0  0
  2  3  1  0  0  0  0
  4  2  2  0  0  0  0
  5  4  1  0  0  0  0
  5  1  2  0  0  0  0
  6  3  2  0  0  0  0
  7 13  1  6  0  0  0
  7  1  1  0  0  0  0
  7 10  1  0  0  0  0
  9 15  2  0  0  0  0
 10  8  1  6  0  0  0
 11  7  1  0  0  0  0
 11  9  1  0  0  0  0
 14 10  1  0  0  0  0
 15 12  1  0  0  0  0
 15 14  1  0  0  0  0
 16  9  1  0  0  0  0
 17 16  3  0  0  0  0
 18 22  1  0  0  0  0
 19  2  1  6  0  0  0
 19 23  1  0  0  0  0
 20 25  1  6  0  0  0
 20 21  1  0  0  0  0
 20 19  1  0  0  0  0
 21 18  1  0  0  0  0
 22 23  1  0  0  0  0
 25 24  1  6  0  0  0
 26 27  1  6  0  0  0
 26 25  1  0  0  0  0
 29 30  2  0  0  0  0
 30 28  1  0  0  0  0
 30 26  1  0  0  0  0
M  END
>  <MODEL>
2

>  <REMARK>
 VINA RESULT:      -7.3      1.122      1.434
  Name = 
  6 active torsions:
  status: ('A' for Active; 'I' for Inactive)
    1  A    between atoms: C_1  and  C_7
    2  A    between atoms: C_2  and  C_15
    3  A    between atoms: C_4  and  C_22
    4  A    between atoms: C_4  and  C_26
    5  A    between atoms: C_12  and  C_16
    6  A    between atoms: C_21  and  C_26
                            x       y       z     vdW  Elec       q    Type
                         _______ _______ _______ _____ _____    ______ ____

>  <TORSDO>
F 6

$$$$
=
 OpenBabel11062419443D

 30 32  0  0  1  0  0  0  0  0999 V2000
  191.6400  175.8350  144.9430 C   0  0  0  0  0  0  0  0  0  0  0  0
  189.2190  177.1930  145.2130 C   0  0  0  0  0  0  0  0  0  0  0  0
  190.2550  177.7590  144.4620 C   0  0  0  0  0  3  0  0  0  0  0  0
  189.4330  175.9620  145.8350 C   0  0  0  0  0  3  0  0  0  0  0  0
  190.6220  175.3180  145.6910 N   0  0  0  0  0  0  0  0  0  0  0  0
  191.4670  177.0840  144.3250 C   0  0  0  0  0  3  0  0  0  0  0  0
  192.9720  175.1160  144.8500 C   0  0  1  0  0  0  0  0  0  0  0  0
  191.9270  172.9710  144.4140 O   0  0  0  0  0  1  0  0  0  0  0  0
  195.2520  175.4630  143.7310 C   0  0  0  0  0  0  0  0  0  0  0  0
  192.8590  173.8880  143.9230 C   0  0  2  0  0  3  0  0  0  0  0  0
  193.9920  176.0960  144.2630 C   0  0  0  0  0  2  0  0  0  0  0  0
  196.5570  173.5590  142.8230 C   0  0  0  0  0  1  0  0  0  0  0  0
  193.4490  174.6840  146.2390 C   0  0  0  0  0  1  0  0  0  0  0  0
  194.2070  173.1970  143.7380 C   0  0  0  0  0  2  0  0  0  0  0  0
  195.3160  174.1540  143.4040 C   0  0  0  0  0  0  0  0  0  0  0  0
  196.3530  176.3530  143.4540 C   0  0  0  0  0  0  0  0  0  0  0  0
  197.2360  177.0680  143.2330 N   0  0  0  0  0  0  0  0  0  0  0  0
  185.2970  178.5520  145.9140 C   0  0  0  0  0  2  0  0  0  0  0  0
  187.9230  177.9150  145.4330 C   0  0  1  0  0  3  0  0  0  0  0  0
  187.0840  178.1100  144.1560 C   0  0  2  0  0  3  0  0  0  0  0  0
  185.7460  178.8050  144.4680 C   0  0  0  0  0  2  0  0  0  0  0  0
  185.7270  177.2840  146.3420 O   0  0  0  0  0  0  0  0  0  0  0  0
  187.1050  177.3820  146.6280 C   0  0  0  0  0  2  0  0  0  0  0  0
  185.5830  176.3630  143.3320 O   0  0  0  0  0  1  0  0  0  0  0  0
  186.9080  176.8070  143.3490 C   0  0  1  0  0  3  0  0  0  0  0  0
  187.4740  176.8800  141.9300 C   0  0  1  0  0  3  0  0  0  0  0  0
  188.2670  178.1540  141.6700 C   0  0  0  0  0  1  0  0  0  0  0  0
  188.1840  175.1220  140.3110 O   0  0  0  0  0  0  0  0  0  0  0  0
  188.9740  175.0840  142.4600 O   0  0  0  0  0  1  0  0  0  0  0  0
  188.2660  175.6560  141.5900 C   0  0  0  0  0  0  0  0  0  0  0  0
  1  5  1  0  0  0  0
  2  4  1  0  0  0  0
  3  2  2  0  0  0  0
  5  4  2  0  0  0  0
  6  3  1  0  0  0  0
  6  1  2  0  0  0  0
  7  1  1  0  0  0  0
  7 13  1  1  0  0  0
  9 11  1  0  0  0  0
 10  8  1  1  0  0  0
 10  7  1  0  0  0  0
 11  7  1  0  0  0  0
 12 15  1  0  0  0  0
 14 10  1  0  0  0  0
 15  9  2  0  0  0  0
 15 14  1  0  0  0  0
 16  9  1  0  0  0  0
 17 16  3  0  0  0  0
 18 22  1  0  0  0  0
 19  2  1  6  0  0  0
 19 23  1  0  0  0  0
 20 25  1  1  0  0  0
 20 21  1  0  0  0  0
 20 19  1  0  0  0  0
 21 18  1  0  0  0  0
 22 23  1  0  0  0  0
 25 24  1  6  0  0  0
 26 27  1  1  0  0  0
 26 25  1  0  0  0  0
 28 30  2  0  0  0  0
 30 26  1  0  0  0  0
 30 29  1  0  0  0  0
M  END
>  <MODEL>
3

>  <REMARK>
 VINA RESULT:      -6.9      1.950      2.696
  Name = 
  6 active torsions:
  status: ('A' for Active; 'I' for Inactive)
    1  A    between atoms: C_1  and  C_7
    2  A    between atoms: C_2  and  C_15
    3  A    between atoms: C_4  and  C_22
    4  A    between atoms: C_4  and  C_26
    5  A    between atoms: C_12  and  C_16
    6  A    between atoms: C_21  and  C_26
                            x       y       z     vdW  Elec       q    Type
                         _______ _______ _______ _____ _____    ______ ____

>  <TORSDO>
F 6

$$$$
=
 OpenBabel11062419443D

 30 32  0  0  1  0  0  0  0  0999 V2000
  190.0190  175.7760  144.5590 C   0  0  0  0  0  0  0  0  0  0  0  0
  187.6700  176.4750  143.2290 C   0  0  0  0  0  0  0  0  0  0  0  0
  188.8740  177.1020  142.8910 C   0  0  0  0  0  3  0  0  0  0  0  0
  187.6690  175.5230  144.2510 C   0  0  0  0  0  3  0  0  0  0  0  0
  188.8260  175.1990  144.8860 N   0  0  0  0  0  0  0  0  0  0  0  0
  190.0500  176.7560  143.5540 C   0  0  0  0  0  3  0  0  0  0  0  0
  191.2800  175.4300  145.3270 C   0  0  1  0  0  0  0  0  0  0  0  0
  191.0440  173.0550  144.8970 O   0  0  0  0  0  1  0  0  0  0  0  0
  193.6960  176.2690  145.5020 C   0  0  0  0  0  0  0  0  0  0  0  0
  191.9150  174.1400  144.7710 C   0  0  2  0  0  3  0  0  0  0  0  0
  192.2660  176.5910  145.1530 C   0  0  0  0  0  2  0  0  0  0  0  0
  195.5930  174.7070  145.8410 C   0  0  0  0  0  1  0  0  0  0  0  0
  190.9750  175.2650  146.8180 C   0  0  0  0  0  1  0  0  0  0  0  0
  193.2350  173.8170  145.4650 C   0  0  0  0  0  2  0  0  0  0  0  0
  194.1570  175.0010  145.5510 C   0  0  0  0  0  0  0  0  0  0  0  0
  194.5910  177.3920  145.6470 C   0  0  0  0  0  0  0  0  0  0  0  0
  195.3100  178.2920  145.7630 N   0  0  0  0  0  0  0  0  0  0  0  0
  184.3650  178.1990  141.2730 C   0  0  0  0  0  2  0  0  0  0  0  0
  186.3740  176.8630  142.5810 C   0  0  1  0  0  3  0  0  0  0  0  0
  185.3880  177.5830  143.5210 C   0  0  2  0  0  3  0  0  0  0  0  0
  184.1090  178.0000  142.7740 C   0  0  0  0  0  2  0  0  0  0  0  0
  185.6740  178.6650  141.0610 O   0  0  0  0  0  0  0  0  0  0  0  0
  186.5420  177.5640  141.2170 C   0  0  0  0  0  2  0  0  0  0  0  0
  185.7990  179.9890  143.6900 O   0  0  0  0  0  1  0  0  0  0  0  0
  186.0390  178.7500  144.2920 C   0  0  1  0  0  3  0  0  0  0  0  0
  185.6710  178.7880  145.7770 C   0  0  1  0  0  3  0  0  0  0  0  0
  184.1730  178.6660  146.0220 C   0  0  0  0  0  1  0  0  0  0  0  0
  187.8200  177.9150  146.6900 O   0  0  0  0  0  0  0  0  0  0  0  0
  185.8690  176.7790  147.0720 O   0  0  0  0  0  1  0  0  0  0  0  0
  186.4450  177.7760  146.5610 C   0  0  0  0  0  0  0  0  0  0  0  0
  1  5  1  0  0  0  0
  1  7  1  0  0  0  0
  2  4  1  0  0  0  0
  3  2  2  0  0  0  0
  3  6  1  0  0  0  0
  4  5  2  0  0  0  0
  6  1  2  0  0  0  0
  7 13  1  1  0  0  0
  9 15  2  0  0  0  0
  9 16  1  0  0  0  0
 10  8  1  1  0  0  0
 10  7  1  0  0  0  0
 10 14  1  0  0  0  0
 11  7  1  0  0  0  0
 11  9  1  0  0  0  0
 14 15  1  0  0  0  0
 15 12  1  0  0  0  0
 16 17  3  0  0  0  0
 18 21  1  0  0  0  0
 19  2  1  1  0  0  0
 19 20  1  0  0  0  0
 20 25  1  6  0  0  0
 21 20  1  0  0  0  0
 22 23  1  0  0  0  0
 22 18  1  0  0  0  0
 23 19  1  0  0  0  0
 25 24  1  6  0  0  0
 25 26  1  0  0  0  0
 26 27  1  6  0  0  0
 26 30  1  0  0  0  0
 30 28  2  0  0  0  0
 30 29  1  0  0  0  0
M  END
>  <MODEL>
4

>  <REMARK>
 VINA RESULT:      -6.8      2.445      4.353
  Name = 
  6 active torsions:
  status: ('A' for Active; 'I' for Inactive)
    1  A    between atoms: C_1  and  C_7
    2  A    between atoms: C_2  and  C_15
    3  A    between atoms: C_4  and  C_22
    4  A    between atoms: C_4  and  C_26
    5  A    between atoms: C_12  and  C_16
    6  A    between atoms: C_21  and  C_26
                            x       y       z     vdW  Elec       q    Type
                         _______ _______ _______ _____ _____    ______ ____

>  <TORSDO>
F 6

$$$$
=
 OpenBabel11062419443D

 30 32  0  0  1  0  0  0  0  0999 V2000
  190.3230  176.1030  143.8390 C   0  0  0  0  0  0  0  0  0  0  0  0
  187.7560  176.6660  142.9070 C   0  0  0  0  0  0  0  0  0  0  0  0
  188.0340  175.4150  143.4690 C   0  0  0  0  0  3  0  0  0  0  0  0
  188.7870  177.6020  142.8030 C   0  0  0  0  0  3  0  0  0  0  0  0
  190.0310  177.3050  143.2620 N   0  0  0  0  0  0  0  0  0  0  0  0
  189.3160  175.1300  143.9350 C   0  0  0  0  0  3  0  0  0  0  0  0
  191.7360  175.7860  144.2900 C   0  0  1  0  0  0  0  0  0  0  0  0
  191.1730  176.0130  146.6380 O   0  0  0  0  0  1  0  0  0  0  0  0
  193.5630  174.0640  143.7690 C   0  0  0  0  0  0  0  0  0  0  0  0
  191.7250  175.1450  145.6920 C   0  0  2  0  0  3  0  0  0  0  0  0
  192.3350  174.7930  143.2880 C   0  0  0  0  0  2  0  0  0  0  0  0
  195.0600  173.1830  145.5400 C   0  0  0  0  0  1  0  0  0  0  0  0
  192.5960  177.0540  144.2980 C   0  0  0  0  0  1  0  0  0  0  0  0
  193.1260  174.7320  146.1340 C   0  0  0  0  0  2  0  0  0  0  0  0
  193.8690  173.9600  145.0810 C   0  0  0  0  0  0  0  0  0  0  0  0
  194.3280  173.3610  142.7690 C   0  0  0  0  0  0  0  0  0  0  0  0
  194.9420  172.7970  141.9660 N   0  0  0  0  0  0  0  0  0  0  0  0
  184.2500  178.2350  141.1850 C   0  0  0  0  0  2  0  0  0  0  0  0
  186.4060  176.9900  142.3400 C   0  0  1  0  0  3  0  0  0  0  0  0
  185.4280  177.6120  143.3540 C   0  0  2  0  0  3  0  0  0  0  0  0
  184.0870  177.9700  142.6880 C   0  0  0  0  0  2  0  0  0  0  0  0
  185.5130  178.7930  140.9250 O   0  0  0  0  0  0  0  0  0  0  0  0
  186.4570  177.7460  140.9950 C   0  0  0  0  0  2  0  0  0  0  0  0
  185.5840  180.0320  143.6790 O   0  0  0  0  0  1  0  0  0  0  0  0
  186.0420  178.7920  144.1340 C   0  0  1  0  0  3  0  0  0  0  0  0
  185.8820  178.6780  145.6510 C   0  0  1  0  0  3  0  0  0  0  0  0
  184.4250  178.6330  146.0940 C   0  0  0  0  0  1  0  0  0  0  0  0
  188.0480  177.6120  146.2740 O   0  0  0  0  0  0  0  0  0  0  0  0
  186.0850  176.4690  146.5640 O   0  0  0  0  0  1  0  0  0  0  0  0
  186.6640  177.5270  146.2020 C   0  0  0  0  0  0  0  0  0  0  0  0
  1  6  1  0  0  0  0
  1  7  1  0  0  0  0
  2  3  1  0  0  0  0
  3  6  2  0  0  0  0
  4  2  2  0  0  0  0
  4  5  1  0  0  0  0
  5  1  2  0  0  0  0
  7 13  1  1  0  0  0
  7 10  1  0  0  0  0
  9 15  2  0  0  0  0
 10 14  1  0  0  0  0
 10  8  1  1  0  0  0
 11  9  1  0  0  0  0
 11  7  1  0  0  0  0
 15 12  1  0  0  0  0
 15 14  1  0  0  0  0
 16  9  1  0  0  0  0
 17 16  3  0  0  0  0
 18 21  1  0  0  0  0
 19  2  1  1  0  0  0
 19 20  1  0  0  0  0
 20 25  1  6  0  0  0
 21 20  1  0  0  0  0
 22 23  1  0  0  0  0
 22 18  1  0  0  0  0
 23 19  1  0  0  0  0
 25 24  1  6  0  0  0
 25 26  1  0  0  0  0
 26 27  1  6  0  0  0
 26 30  1  0  0  0  0
 30 28  2  0  0  0  0
 30 29  1  0  0  0  0
M  END
>  <MODEL>
5

>  <REMARK>
 VINA RESULT:      -6.8      2.131      3.701
  Name = 
  6 active torsions:
  status: ('A' for Active; 'I' for Inactive)
    1  A    between atoms: C_1  and  C_7
    2  A    between atoms: C_2  and  C_15
    3  A    between atoms: C_4  and  C_22
    4  A    between atoms: C_4  and  C_26
    5  A    between atoms: C_12  and  C_16
    6  A    between atoms: C_21  and  C_26
                            x       y       z     vdW  Elec       q    Type
                         _______ _______ _______ _____ _____    ______ ____

>  <TORSDO>
F 6

$$$$
=
 OpenBabel11062419443D

 30 32  0  0  1  0  0  0  0  0999 V2000
  191.7160  176.2880  144.2370 C   0  0  0  0  0  0  0  0  0  0  0  0
  189.1060  176.5920  143.3010 C   0  0  0  0  0  0  0  0  0  0  0  0
  189.5580  175.3320  143.7070 C   0  0  0  0  0  3  0  0  0  0  0  0
  189.9890  177.6730  143.3520 C   0  0  0  0  0  3  0  0  0  0  0  0
  191.2570  177.5010  143.8100 N   0  0  0  0  0  0  0  0  0  0  0  0
  190.8620  175.1760  144.1740 C   0  0  0  0  0  3  0  0  0  0  0  0
  193.1540  176.1220  144.6900 C   0  0  1  0  0  0  0  0  0  0  0  0
  192.5160  175.7400  146.9980 O   0  0  0  0  0  1  0  0  0  0  0  0
  195.2630  174.8830  143.9230 C   0  0  0  0  0  0  0  0  0  0  0  0
  193.2280  175.2020  145.9240 C   0  0  2  0  0  3  0  0  0  0  0  0
  193.9350  175.4830  143.5370 C   0  0  0  0  0  2  0  0  0  0  0  0
  196.8580  173.9030  145.5510 C   0  0  0  0  0  1  0  0  0  0  0  0
  193.7780  177.4830  145.0100 C   0  0  0  0  0  1  0  0  0  0  0  0
  194.6720  174.9430  146.3470 C   0  0  0  0  0  2  0  0  0  0  0  0
  195.5580  174.5520  145.1990 C   0  0  0  0  0  0  0  0  0  0  0  0
  196.1570  174.5500  142.8420 C   0  0  0  0  0  0  0  0  0  0  0  0
  196.8760  174.2830  141.9740 N   0  0  0  0  0  0  0  0  0  0  0  0
  185.4080  177.8570  141.7380 C   0  0  0  0  0  2  0  0  0  0  0  0
  187.7310  176.7890  142.7370 C   0  0  1  0  0  3  0  0  0  0  0  0
  186.6370  177.0080  143.8000 C   0  0  2  0  0  3  0  0  0  0  0  0
  185.2670  177.2600  143.1450 C   0  0  0  0  0  2  0  0  0  0  0  0
  186.5550  178.6660  141.6670 O   0  0  0  0  0  0  0  0  0  0  0  0
  187.6700  177.8060  141.5770 C   0  0  0  0  0  2  0  0  0  0  0  0
  186.2840  179.2680  144.6670 O   0  0  0  0  0  1  0  0  0  0  0  0
  187.0140  178.0890  144.8340 C   0  0  1  0  0  3  0  0  0  0  0  0
  186.9400  177.6050  146.2840 C   0  0  1  0  0  3  0  0  0  0  0  0
  185.6870  176.7900  146.5760 C   0  0  0  0  0  1  0  0  0  0  0  0
  189.3850  177.5610  146.7680 O   0  0  0  0  0  0  0  0  0  0  0  0
  188.1570  175.6330  146.9060 O   0  0  0  0  0  1  0  0  0  0  0  0
  188.1820  176.8730  146.6840 C   0  0  0  0  0  0  0  0  0  0  0  0
  1  7  1  0  0  0  0
  2  4  2  0  0  0  0
  2  3  1  0  0  0  0
  3  6  2  0  0  0  0
  4  5  1  0  0  0  0
  5  1  2  0  0  0  0
  6  1  1  0  0  0  0
  7 13  1  1  0  0  0
  7 10  1  0  0  0  0
  9 15  2  0  0  0  0
 10 14  1  0  0  0  0
 10  8  1  1  0  0  0
 11  9  1  0  0  0  0
 11  7  1  0  0  0  0
 15 12  1  0  0  0  0
 15 14  1  0  0  0  0
 16  9  1  0  0  0  0
 17 16  3  0  0  0  0
 18 21  1  0  0  0  0
 19  2  1  1  0  0  0
 19 20  1  0  0  0  0
 20 25  1  6  0  0  0
 21 20  1  0  0  0  0
 22 18  1  0  0  0  0
 23 22  1  0  0  0  0
 23 19  1  0  0  0  0
 25 24  1  1  0  0  0
 25 26  1  0  0  0  0
 26 27  1  6  0  0  0
 26 30  1  0  0  0  0
 30 28  2  0  0  0  0
 30 29  1  0  0  0  0
M  END
>  <MODEL>
6

>  <REMARK>
 VINA RESULT:      -6.7      2.269      3.388
  Name = 
  6 active torsions:
  status: ('A' for Active; 'I' for Inactive)
    1  A    between atoms: C_1  and  C_7
    2  A    between atoms: C_2  and  C_15
    3  A    between atoms: C_4  and  C_22
    4  A    between atoms: C_4  and  C_26
    5  A    between atoms: C_12  and  C_16
    6  A    between atoms: C_21  and  C_26
                            x       y       z     vdW  Elec       q    Type
                         _______ _______ _______ _____ _____    ______ ____

>  <TORSDO>
F 6

$$$$
=
 OpenBabel11062419443D

 30 32  0  0  1  0  0  0  0  0999 V2000
  190.1170  175.3180  143.1480 C   0  0  0  0  0  0  0  0  0  0  0  0
  187.6530  176.2670  142.2500 C   0  0  0  0  0  0  0  0  0  0  0  0
  188.8090  177.0280  142.0450 C   0  0  0  0  0  3  0  0  0  0  0  0
  187.7580  175.0500  142.9270 C   0  0  0  0  0  3  0  0  0  0  0  0
  188.9700  174.6080  143.3570 N   0  0  0  0  0  0  0  0  0  0  0  0
  190.0420  176.5580  142.4940 C   0  0  0  0  0  3  0  0  0  0  0  0
  191.4420  174.8200  143.6910 C   0  0  1  0  0  0  0  0  0  0  0  0
  191.9380  173.5600  141.6800 O   0  0  0  0  0  1  0  0  0  0  0  0
  193.4860  175.7790  144.9060 C   0  0  0  0  0  0  0  0  0  0  0  0
  192.4290  174.5450  142.5390 C   0  0  2  0  0  3  0  0  0  0  0  0
  192.0180  175.9150  144.5960 C   0  0  0  0  0  2  0  0  0  0  0  0
  195.7800  174.9600  144.4360 C   0  0  0  0  0  1  0  0  0  0  0  0
  191.2410  173.5510  144.5250 C   0  0  0  0  0  1  0  0  0  0  0  0
  193.8020  174.1290  143.0600 C   0  0  0  0  0  2  0  0  0  0  0  0
  194.3160  175.0340  144.1440 C   0  0  0  0  0  0  0  0  0  0  0  0
  193.9950  176.5950  145.9810 C   0  0  0  0  0  0  0  0  0  0  0  0
  194.4030  177.2510  146.8440 N   0  0  0  0  0  0  0  0  0  0  0  0
  184.1940  178.3110  140.9950 C   0  0  0  0  0  2  0  0  0  0  0  0
  186.3010  176.7660  141.8360 C   0  0  1  0  0  3  0  0  0  0  0  0
  185.4720  177.3700  142.9850 C   0  0  2  0  0  3  0  0  0  0  0  0
  184.1240  177.9120  142.4750 C   0  0  0  0  0  2  0  0  0  0  0  0
  185.4820  178.7750  140.6770 O   0  0  0  0  0  0  0  0  0  0  0  0
  186.3200  177.6450  140.5680 C   0  0  0  0  0  2  0  0  0  0  0  0
  185.7940  179.7100  143.6210 O   0  0  0  0  0  1  0  0  0  0  0  0
  186.2590  178.4070  143.8130 C   0  0  1  0  0  3  0  0  0  0  0  0
  186.3380  178.0720  145.3040 C   0  0  1  0  0  3  0  0  0  0  0  0
  185.1280  177.2940  145.8050 C   0  0  0  0  0  1  0  0  0  0  0  0
  187.5910  176.2270  146.4180 O   0  0  0  0  0  1  0  0  0  0  0  0
  188.7260  177.8550  145.2750 O   0  0  0  0  0  0  0  0  0  0  0  0
  187.6200  177.3810  145.6460 C   0  0  0  0  0  0  0  0  0  0  0  0
  1  5  1  0  0  0  0
  1  7  1  0  0  0  0
  2  4  1  0  0  0  0
  3  2  2  0  0  0  0
  3  6  1  0  0  0  0
  4  5  2  0  0  0  0
  6  1  2  0  0  0  0
  7 13  1  1  0  0  0
  7 11  1  0  0  0  0
  9 16  1  0  0  0  0
 10  8  1  6  0  0  0
 10 14  1  0  0  0  0
 10  7  1  0  0  0  0
 11  9  1  0  0  0  0
 14 15  1  0  0  0  0
 15 12  1  0  0  0  0
 15  9  2  0  0  0  0
 16 17  3  0  0  0  0
 18 21  1  0  0  0  0
 19  2  1  1  0  0  0
 19 20  1  0  0  0  0
 20 25  1  6  0  0  0
 21 20  1  0  0  0  0
 22 18  1  0  0  0  0
 23 22  1  0  0  0  0
 23 19  1  0  0  0  0
 25 24  1  1  0  0  0
 25 26  1  0  0  0  0
 26 30  1  0  0  0  0
 26 27  1  6  0  0  0
 29 30  2  0  0  0  0
 30 28  1  0  0  0  0
M  END
>  <MODEL>
7

>  <REMARK>
 VINA RESULT:      -6.7      2.592      4.243
  Name = 
  6 active torsions:
  status: ('A' for Active; 'I' for Inactive)
    1  A    between atoms: C_1  and  C_7
    2  A    between atoms: C_2  and  C_15
    3  A    between atoms: C_4  and  C_22
    4  A    between atoms: C_4  and  C_26
    5  A    between atoms: C_12  and  C_16
    6  A    between atoms: C_21  and  C_26
                            x       y       z     vdW  Elec       q    Type
                         _______ _______ _______ _____ _____    ______ ____

>  <TORSDO>
F 6

$$$$
=
 OpenBabel11062419443D

 30 32  0  0  1  0  0  0  0  0999 V2000
  191.1910  175.9060  145.7460 C   0  0  0  0  0  0  0  0  0  0  0  0
  193.8850  175.5290  145.1300 C   0  0  0  0  0  0  0  0  0  0  0  0
  193.3180  174.8550  146.2180 C   0  0  0  0  0  3  0  0  0  0  0  0
  193.0860  176.4000  144.3860 C   0  0  0  0  0  3  0  0  0  0  0  0
  191.7760  176.5690  144.7060 N   0  0  0  0  0  0  0  0  0  0  0  0
  191.9730  175.0420  146.5290 C   0  0  0  0  0  3  0  0  0  0  0  0
  189.7410  176.1620  146.1070 C   0  0  1  0  0  0  0  0  0  0  0  0
  190.3260  177.5420  148.0130 O   0  0  0  0  0  1  0  0  0  0  0  0
  187.5660  176.8160  144.9170 C   0  0  0  0  0  0  0  0  0  0  0  0
  189.5940  177.5190  146.8240 C   0  0  2  0  0  3  0  0  0  0  0  0
  188.9330  176.1910  144.8050 C   0  0  0  0  0  2  0  0  0  0  0  0
  185.8940  178.3020  145.9890 C   0  0  0  0  0  1  0  0  0  0  0  0
  189.2000  175.0370  146.9940 C   0  0  0  0  0  1  0  0  0  0  0  0
  188.1320  177.8450  147.1190 C   0  0  0  0  0  2  0  0  0  0  0  0
  187.2360  177.6460  145.9290 C   0  0  0  0  0  0  0  0  0  0  0  0
  186.6650  176.5930  143.8130 C   0  0  0  0  0  0  0  0  0  0  0  0
  185.9410  176.4160  142.9260 N   0  0  0  0  0  0  0  0  0  0  0  0
  197.7630  175.2850  143.5120 C   0  0  0  0  0  2  0  0  0  0  0  0
  195.3420  175.4010  144.8000 C   0  0  1  0  0  3  0  0  0  0  0  0
  195.7810  173.9730  144.4230 C   0  0  2  0  0  3  0  0  0  0  0  0
  197.2720  173.9300  144.0410 C   0  0  0  0  0  2  0  0  0  0  0  0
  196.7240  175.9510  142.8400 O   0  0  0  0  0  0  0  0  0  0  0  0
  195.8590  176.4780  143.8230 C   0  0  0  0  0  2  0  0  0  0  0  0
  195.5460  173.0760  142.1580 O   0  0  0  0  0  1  0  0  0  0  0  0
  194.8720  173.3270  143.3560 C   0  0  1  0  0  3  0  0  0  0  0  0
  194.1460  172.0720  143.8450 C   0  0  1  0  0  3  0  0  0  0  0  0
  194.5580  171.6550  145.2500 C   0  0  0  0  0  1  0  0  0  0  0  0
  192.1310  173.2990  143.0400 O   0  0  0  0  0  0  0  0  0  0  0  0
  191.8880  171.3790  144.2640 O   0  0  0  0  0  1  0  0  0  0  0  0
  192.6610  172.2120  143.7220 C   0  0  0  0  0  0  0  0  0  0  0  0
  1  7  1  0  0  0  0
  1  6  1  0  0  0  0
  2  3  1  0  0  0  0
  3  6  2  0  0  0  0
  4  5  1  0  0  0  0
  4  2  2  0  0  0  0
  5  1  2  0  0  0  0
  7 10  1  0  0  0  0
  7 13  1  1  0  0  0
  9 15  2  0  0  0  0
 10 14  1  0  0  0  0
 10  8  1  1  0  0  0
 11  9  1  0  0  0  0
 11  7  1  0  0  0  0
 15 12  1  0  0  0  0
 15 14  1  0  0  0  0
 16  9  1  0  0  0  0
 17 16  3  0  0  0  0
 18 21  1  0  0  0  0
 19  2  1  6  0  0  0
 20 25  1  6  0  0  0
 20 19  1  0  0  0  0
 21 20  1  0  0  0  0
 22 18  1  0  0  0  0
 22 23  1  0  0  0  0
 23 19  1  0  0  0  0
 25 24  1  6  0  0  0
 25 26  1  0  0  0  0
 26 27  1  1  0  0  0
 28 30  2  0  0  0  0
 30 26  1  0  0  0  0
 30 29  1  0  0  0  0
M  END
>  <MODEL>
8

>  <REMARK>
 VINA RESULT:      -6.6      2.613      7.721
  Name = 
  6 active torsions:
  status: ('A' for Active; 'I' for Inactive)
    1  A    between atoms: C_1  and  C_7
    2  A    between atoms: C_2  and  C_15
    3  A    between atoms: C_4  and  C_22
    4  A    between atoms: C_4  and  C_26
    5  A    between atoms: C_12  and  C_16
    6  A    between atoms: C_21  and  C_26
                            x       y       z     vdW  Elec       q    Type
                         _______ _______ _______ _____ _____    ______ ____

>  <TORSDO>
F 6

$$$$
=
 OpenBabel11062419443D

 30 32  0  0  1  0  0  0  0  0999 V2000
  190.2620  176.3070  143.6300 C   0  0  0  0  0  0  0  0  0  0  0  0
  192.8590  176.3580  142.6140 C   0  0  0  0  0  0  0  0  0  0  0  0
  192.0560  175.2290  142.4170 C   0  0  0  0  0  3  0  0  0  0  0  0
  192.3440  177.4320  143.3430 C   0  0  0  0  0  3  0  0  0  0  0  0
  191.0760  177.3840  143.8300 N   0  0  0  0  0  0  0  0  0  0  0  0
  190.7580  175.1990  142.9240 C   0  0  0  0  0  3  0  0  0  0  0  0
  188.8730  176.2660  144.2360 C   0  0  1  0  0  0  0  0  0  0  0  0
  189.5690  174.8210  146.0540 O   0  0  0  0  0  1  0  0  0  0  0  0
  186.9950  177.9140  144.8130 C   0  0  0  0  0  0  0  0  0  0  0  0
  188.9530  176.0390  145.7590 C   0  0  2  0  0  3  0  0  0  0  0  0
  188.2050  177.6190  143.9640 C   0  0  0  0  0  2  0  0  0  0  0  0
  185.5870  177.6240  146.8340 C   0  0  0  0  0  1  0  0  0  0  0  0
  188.0330  175.1640  143.5840 C   0  0  0  0  0  1  0  0  0  0  0  0
  187.5730  176.0850  146.4090 C   0  0  0  0  0  2  0  0  0  0  0  0
  186.7620  177.2740  145.9780 C   0  0  0  0  0  0  0  0  0  0  0  0
  186.1660  179.0170  144.3900 C   0  0  0  0  0  0  0  0  0  0  0  0
  185.5010  179.9020  144.0520 N   0  0  0  0  0  0  0  0  0  0  0  0
  196.8230  175.7580  141.3320 C   0  0  0  0  0  2  0  0  0  0  0  0
  194.2800  176.4040  142.1370 C   0  0  1  0  0  3  0  0  0  0  0  0
  195.3250  176.4580  143.2670 C   0  0  2  0  0  3  0  0  0  0  0  0
  196.7570  176.4440  142.7030 C   0  0  0  0  0  2  0  0  0  0  0  0
  195.8590  174.7390  141.2510 O   0  0  0  0  0  0  0  0  0  0  0  0
  194.6080  175.3590  141.0490 C   0  0  0  0  0  2  0  0  0  0  0  0
  196.1470  174.4610  144.4170 O   0  0  0  0  0  1  0  0  0  0  0  0
  195.0970  175.3800  144.3470 C   0  0  1  0  0  3  0  0  0  0  0  0
  194.7820  175.9520  145.7310 C   0  0  1  0  0  3  0  0  0  0  0  0
  194.9300  177.4670  145.7970 C   0  0  0  0  0  1  0  0  0  0  0  0
  193.0490  174.1860  146.0350 O   0  0  0  0  0  0  0  0  0  0  0  0
  192.6460  176.3210  146.7580 O   0  0  0  0  0  1  0  0  0  0  0  0
  193.4400  175.5050  146.2190 C   0  0  0  0  0  0  0  0  0  0  0  0
  1  5  1  0  0  0  0
  1  7  1  0  0  0  0
  2  4  1  0  0  0  0
  3  2  2  0  0  0  0
  3  6  1  0  0  0  0
  4  5  2  0  0  0  0
  6  1  2  0  0  0  0
  7 13  1  6  0  0  0
  7 10  1  0  0  0  0
  9 15  2  0  0  0  0
 10  8  1  6  0  0  0
 10 14  1  0  0  0  0
 11  7  1  0  0  0  0
 11  9  1  0  0  0  0
 15 14  1  0  0  0  0
 15 12  1  0  0  0  0
 16  9  1  0  0  0  0
 17 16  3  0  0  0  0
 18 21  1  0  0  0  0
 19  2  1  1  0  0  0
 19 20  1  0  0  0  0
 20 25  1  1  0  0  0
 21 20  1  0  0  0  0
 22 18  1  0  0  0  0
 23 22  1  0  0  0  0
 23 19  1  0  0  0  0
 25 24  1  1  0  0  0
 25 26  1  0  0  0  0
 26 27  1  6  0  0  0
 26 30  1  0  0  0  0
 28 30  2  0  0  0  0
 30 29  1  0  0  0  0
M  END
>  <MODEL>
9

>  <REMARK>
 VINA RESULT:      -6.6      2.765      7.965
  Name = 
  6 active torsions:
  status: ('A' for Active; 'I' for Inactive)
    1  A    between atoms: C_1  and  C_7
    2  A    between atoms: C_2  and  C_15
    3  A    between atoms: C_4  and  C_22
    4  A    between atoms: C_4  and  C_26
    5  A    between atoms: C_12  and  C_16
    6  A    between atoms: C_21  and  C_26
                            x       y       z     vdW  Elec       q    Type
                         _______ _______ _______ _____ _____    ______ ____

>  <TORSDO>
F 6

$$$$
