=
 OpenBabel11062422223D

 41 45  0  0  1  0  0  0  0  0999 V2000
  185.5820  179.7240  144.5230 C   0  0  0  0  0  2  0  0  0  0  0  0
  186.2020  177.7010  145.7650 C   0  0  0  0  0  3  0  0  0  0  0  0
  188.7960  175.5430  144.1580 O   0  0  0  0  0  0  0  0  0  0  0  0
  187.0630  177.1060  144.6980 C   0  0  0  0  0  0  0  0  0  0  0  0
  185.1150  179.0380  143.3850 O   0  0  0  0  0  0  0  0  0  0  0  0
  187.9700  176.1980  145.0980 C   0  0  1  0  0  3  0  0  0  0  0  0
  186.8820  177.3510  143.2300 C   0  0  0  0  0  0  0  0  0  0  0  0
  185.6940  178.0760  141.2630 N   0  0  0  0  0  1  0  0  0  0  0  0
  185.9080  178.1300  142.6740 C   0  0  2  0  0  3  0  0  0  0  0  0
  187.7770  176.6290  142.3290 C   0  0  0  0  0  3  0  0  0  0  0  0
  188.6880  175.7630  142.7910 C   0  0  0  0  0  0  0  0  0  0  0  0
  185.5260  178.8470  145.7000 C   0  0  0  0  0  3  0  0  0  0  0  0
  189.6000  175.0580  141.8340 C   0  0  0  0  0  2  0  0  0  0  0  0
  189.6950  173.5400  142.0570 C   0  0  2  0  0  3  0  0  0  0  0  0
  193.4040  172.3450  143.9830 C   0  0  0  0  0  0  0  0  0  0  0  0
  190.9750  172.4190  143.9640 C   0  0  0  0  0  0  0  0  0  0  0  0
  189.7150  172.1030  144.6740 C   0  0  0  0  0  1  0  0  0  0  0  0
  192.1720  172.0640  144.5890 C   0  0  0  0  0  3  0  0  0  0  0  0
  193.4280  172.9670  142.7360 C   0  0  0  0  0  3  0  0  0  0  0  0
  192.2310  173.3130  142.1020 C   0  0  0  0  0  3  0  0  0  0  0  0
  190.9910  173.0690  142.7080 C   0  0  0  0  0  0  0  0  0  0  0  0
  194.6490  171.2190  145.6900 O   0  0  0  0  0  1  0  0  0  0  0  0
  195.8950  172.3120  144.1100 O   0  0  0  0  0  0  0  0  0  0  0  0
  194.6620  171.8970  144.6160 C   0  0  0  0  0  0  0  0  0  0  0  0
  189.4500  172.8390  140.8720 O   0  0  0  0  0  0  0  0  0  0  0  0
  190.6560  173.3960  138.8930 C   0  0  0  0  0  1  0  0  0  0  0  0
  189.5210  173.7680  139.8050 C   0  0  0  0  0  3  0  0  0  0  0  0
  188.2330  173.7100  139.0150 C   0  0  0  0  0  1  0  0  0  0  0  0
  188.0710  175.8670  146.4620 O   0  0  0  0  0  0  0  0  0  0  0  0
  189.0240  174.9360  146.9390 C   0  0  0  0  0  2  0  0  0  0  0  0
  190.3390  175.6510  147.2300 C   0  0  0  0  0  2  0  0  0  0  0  0
  192.5390  176.1500  146.0360 C   0  0  1  0  0  0  0  0  0  0  0  0
  193.0630  175.9010  144.6340 C   0  0  1  0  0  3  0  0  0  0  0  0
  192.6620  174.9110  146.9810 C   0  0  0  0  0  2  0  0  0  0  0  0
  191.9750  176.9290  144.9350 C   0  0  0  0  0  2  0  0  0  0  0  0
  191.4000  175.1450  146.2710 C   0  0  1  0  0  3  0  0  0  0  0  0
  194.4270  176.5700  144.4120 C   0  0  0  0  0  2  0  0  0  0  0  0
  195.1100  176.0770  143.1220 C   0  0  0  0  0  2  0  0  0  0  0  0
  196.6320  176.2370  143.1980 C   0  0  0  0  0  2  0  0  0  0  0  0
  197.9280  175.3590  141.6310 C   0  0  0  0  0  1  0  0  0  0  0  0
  197.2650  175.0380  142.8190 O   0  0  0  0  0  0  0  0  0  0  0  0
  1 12  1  0  0  0  0
  3  6  1  0  0  0  0
  4  6  1  0  0  0  0
  4  2  1  0  0  0  0
  5  1  1  0  0  0  0
  6 29  1  6  0  0  0
  7  4  2  0  0  0  0
  9  8  1  6  0  0  0
  9  7  1  0  0  0  0
  9  5  1  0  0  0  0
 10 11  2  0  0  0  0
 10  7  1  0  0  0  0
 11  3  1  0  0  0  0
 12  2  2  0  0  0  0
 13 11  1  0  0  0  0
 14 13  1  6  0  0  0
 14 21  1  0  0  0  0
 15 18  1  0  0  0  0
 15 24  1  0  0  0  0
 16 18  2  0  0  0  0
 16 17  1  0  0  0  0
 19 15  2  0  0  0  0
 20 21  2  0  0  0  0
 20 19  1  0  0  0  0
 21 16  1  0  0  0  0
 23 24  2  0  0  0  0
 24 22  1  0  0  0  0
 25 14  1  0  0  0  0
 26 27  1  0  0  0  0
 27 25  1  0  0  0  0
 28 27  1  0  0  0  0
 29 30  1  0  0  0  0
 30 31  1  0  0  0  0
 32 35  1  1  0  0  0
 32 36  1  0  0  0  0
 32 34  1  0  0  0  0
 33 37  1  1  0  0  0
 33 35  1  0  0  0  0
 33 32  1  0  0  0  0
 36 34  1  0  0  0  0
 36 31  1  1  0  0  0
 38 39  1  0  0  0  0
 38 37  1  0  0  0  0
 40 41  1  0  0  0  0
 41 39  1  0  0  0  0
M  END
>  <MODEL>
1

>  <REMARK>
 VINA RESULT:      -6.5      0.000      0.000
  Name = 
  14 active torsions:
  status: ('A' for Active; 'I' for Inactive)
    1  A    between atoms: C_4  and  C_6
    2  A    between atoms: C_4  and  C_30
    3  A    between atoms: C_10  and  C_23
    4  A    between atoms: C_13  and  O_27
    5  A    between atoms: C_15  and  O_27
    6  A    between atoms: C_15  and  C_31
    7  A    between atoms: C_15  and  C_40
    8  A    between atoms: C_19  and  O_41
    9  A    between atoms: C_24  and  C_25
   10  A    between atoms: C_24  and  C_37
   11  A    between atoms: C_25  and  O_41
   12  A    between atoms: O_29  and  C_34
   13  A    between atoms: C_30  and  C_34
   14  A    between atoms: C_31  and  C_36
                            x       y       z     vdW  Elec       q    Type
                         _______ _______ _______ _____ _____    ______ ____

>  <TORSDO>
F 14

$$$$
=
 OpenBabel11062422223D

 41 45  0  0  1  0  0  0  0  0999 V2000
  195.9420  169.9170  146.2270 C   0  0  0  0  0  2  0  0  0  0  0  0
  195.7710  172.2730  145.5660 C   0  0  0  0  0  3  0  0  0  0  0  0
  192.3570  173.4430  144.5990 O   0  0  0  0  0  0  0  0  0  0  0  0
  194.3500  172.2170  145.1080 C   0  0  0  0  0  0  0  0  0  0  0  0
  195.5030  169.4050  144.9910 O   0  0  0  0  0  0  0  0  0  0  0  0
  193.6880  173.3860  145.0660 C   0  0  1  0  0  3  0  0  0  0  0  0
  193.6820  170.9860  144.5720 C   0  0  0  0  0  0  0  0  0  0  0  0
  193.6100  168.7560  143.6650 N   0  0  0  0  0  1  0  0  0  0  0  0
  194.2790  169.7680  144.4170 C   0  0  2  0  0  3  0  0  0  0  0  0
  192.3060  171.1370  144.1070 C   0  0  0  0  0  3  0  0  0  0  0  0
  191.6860  172.3240  144.1240 C   0  0  0  0  0  0  0  0  0  0  0  0
  196.4970  171.2650  146.0470 C   0  0  0  0  0  3  0  0  0  0  0  0
  190.2660  172.4310  143.6570 C   0  0  0  0  0  2  0  0  0  0  0  0
  190.0990  173.1520  142.3100 C   0  0  2  0  0  3  0  0  0  0  0  0
  187.7380  176.7870  142.6380 C   0  0  0  0  0  0  0  0  0  0  0  0
  189.9040  175.6900  142.5390 C   0  0  0  0  0  0  0  0  0  0  0  0
  191.3760  175.8360  142.5990 C   0  0  0  0  0  1  0  0  0  0  0  0
  189.1370  176.8500  142.6720 C   0  0  0  0  0  3  0  0  0  0  0  0
  187.1120  175.5560  142.4500 C   0  0  0  0  0  3  0  0  0  0  0  0
  187.8760  174.3950  142.3050 C   0  0  0  0  0  3  0  0  0  0  0  0
  189.2760  174.4350  142.3680 C   0  0  0  0  0  0  0  0  0  0  0  0
  186.7930  178.6570  143.7960 O   0  0  0  0  0  1  0  0  0  0  0  0
  186.2240  178.4680  141.5860 O   0  0  0  0  0  0  0  0  0  0  0  0
  186.9370  178.0270  142.7030 C   0  0  0  0  0  0  0  0  0  0  0  0
  189.6020  172.2850  141.3310 O   0  0  0  0  0  0  0  0  0  0  0  0
  191.7390  172.4630  140.2900 C   0  0  0  0  0  1  0  0  0  0  0  0
  190.2520  172.6000  140.1140 C   0  0  0  0  0  3  0  0  0  0  0  0
  189.8050  171.6240  139.0490 C   0  0  0  0  0  1  0  0  0  0  0  0
  194.3400  174.5720  145.4530 O   0  0  0  0  0  0  0  0  0  0  0  0
  193.7490  175.4960  146.3460 C   0  0  0  0  0  2  0  0  0  0  0  0
  192.3990  174.9640  146.8150 C   0  0  0  0  0  2  0  0  0  0  0  0
  189.9580  175.6480  147.1080 C   0  0  1  0  0  0  0  0  0  0  0  0
  188.9030  176.2290  146.1840 C   0  0  1  0  0  3  0  0  0  0  0  0
  190.9330  176.7180  147.6980 C   0  0  0  0  0  2  0  0  0  0  0  0
  189.4040  174.7910  146.0610 C   0  0  0  0  0  2  0  0  0  0  0  0
  191.3250  175.9840  146.4890 C   0  0  1  0  0  3  0  0  0  0  0  0
  187.5280  176.2920  146.8640 C   0  0  0  0  0  2  0  0  0  0  0  0
  187.0780  177.7420  147.1240 C   0  0  0  0  0  2  0  0  0  0  0  0
  185.5920  177.8090  147.4960 C   0  0  0  0  0  2  0  0  0  0  0  0
  184.1410  178.6180  146.0320 C   0  0  0  0  0  1  0  0  0  0  0  0
  184.7990  177.4390  146.3940 O   0  0  0  0  0  0  0  0  0  0  0  0
  2 12  2  0  0  0  0
  3  6  1  0  0  0  0
  4  2  1  0  0  0  0
  5  1  1  0  0  0  0
  6  4  1  0  0  0  0
  6 29  1  6  0  0  0
  7  4  2  0  0  0  0
  9  8  1  1  0  0  0
  9  7  1  0  0  0  0
  9  5  1  0  0  0  0
 10 11  2  0  0  0  0
 10  7  1  0  0  0  0
 11  3  1  0  0  0  0
 12  1  1  0  0  0  0
 13 11  1  0  0  0  0
 14 21  1  0  0  0  0
 14 13  1  1  0  0  0
 15 18  1  0  0  0  0
 15 24  1  0  0  0  0
 16 17  1  0  0  0  0
 16 18  2  0  0  0  0
 19 15  2  0  0  0  0
 20 21  2  0  0  0  0
 20 19  1  0  0  0  0
 21 16  1  0  0  0  0
 23 24  2  0  0  0  0
 24 22  1  0  0  0  0
 25 14  1  0  0  0  0
 27 26  1  0  0  0  0
 27 25  1  0  0  0  0
 28 27  1  0  0  0  0
 29 30  1  0  0  0  0
 30 31  1  0  0  0  0
 32 35  1  1  0  0  0
 32 34  1  0  0  0  0
 33 37  1  1  0  0  0
 33 32  1  0  0  0  0
 35 33  1  0  0  0  0
 36 31  1  1  0  0  0
 36 32  1  0  0  0  0
 36 34  1  0  0  0  0
 37 38  1  0  0  0  0
 38 39  1  0  0  0  0
 40 41  1  0  0  0  0
 41 39  1  0  0  0  0
M  END
>  <MODEL>
2

>  <REMARK>
 VINA RESULT:      -6.5      2.884      8.083
  Name = 
  14 active torsions:
  status: ('A' for Active; 'I' for Inactive)
    1  A    between atoms: C_4  and  C_6
    2  A    between atoms: C_4  and  C_30
    3  A    between atoms: C_10  and  C_23
    4  A    between atoms: C_13  and  O_27
    5  A    between atoms: C_15  and  O_27
    6  A    between atoms: C_15  and  C_31
    7  A    between atoms: C_15  and  C_40
    8  A    between atoms: C_19  and  O_41
    9  A    between atoms: C_24  and  C_25
   10  A    between atoms: C_24  and  C_37
   11  A    between atoms: C_25  and  O_41
   12  A    between atoms: O_29  and  C_34
   13  A    between atoms: C_30  and  C_34
   14  A    between atoms: C_31  and  C_36
                            x       y       z     vdW  Elec       q    Type
                         _______ _______ _______ _____ _____    ______ ____

>  <TORSDO>
F 14

$$$$
=
 OpenBabel11062422223D

 41 45  0  0  1  0  0  0  0  0999 V2000
  183.7550  178.6540  145.3430 C   0  0  0  0  0  2  0  0  0  0  0  0
  185.3620  178.0590  143.5880 C   0  0  0  0  0  3  0  0  0  0  0  0
  188.2270  175.9180  144.6710 O   0  0  0  0  0  0  0  0  0  0  0  0
  186.3620  177.4090  144.4890 C   0  0  0  0  0  0  0  0  0  0  0  0
  184.6890  179.3330  146.1480 O   0  0  0  0  0  0  0  0  0  0  0  0
  187.2140  176.5440  143.9120 C   0  0  1  0  0  3  0  0  0  0  0  0
  186.5570  177.7660  145.9320 C   0  0  0  0  0  0  0  0  0  0  0  0
  186.3220  179.1390  147.8970 N   0  0  0  0  0  1  0  0  0  0  0  0
  185.8670  178.7310  146.6070 C   0  0  2  0  0  3  0  0  0  0  0  0
  187.6310  177.0730  146.6390 C   0  0  0  0  0  3  0  0  0  0  0  0
  188.4250  176.1910  146.0180 C   0  0  0  0  0  0  0  0  0  0  0  0
  184.2140  178.6290  143.9470 C   0  0  0  0  0  3  0  0  0  0  0  0
  189.5010  175.4860  146.7860 C   0  0  0  0  0  2  0  0  0  0  0  0
  190.7640  176.3310  147.0200 C   0  0  2  0  0  3  0  0  0  0  0  0
  194.0830  175.1180  144.4880 C   0  0  0  0  0  0  0  0  0  0  0  0
  192.1640  176.5520  144.8920 C   0  0  0  0  0  0  0  0  0  0  0  0
  191.2820  177.6240  144.3780 C   0  0  0  0  0  1  0  0  0  0  0  0
  193.2160  176.1360  144.0730 C   0  0  0  0  0  3  0  0  0  0  0  0
  193.9010  174.5310  145.7400 C   0  0  0  0  0  3  0  0  0  0  0  0
  192.8570  174.9530  146.5670 C   0  0  0  0  0  3  0  0  0  0  0  0
  191.9600  175.9480  146.1550 C   0  0  0  0  0  0  0  0  0  0  0  0
  196.3730  174.4990  144.1660 O   0  0  0  0  0  1  0  0  0  0  0  0
  195.1340  174.7500  142.2560 O   0  0  0  0  0  0  0  0  0  0  0  0
  195.2380  174.7380  143.6490 C   0  0  0  0  0  0  0  0  0  0  0  0
  191.1150  176.3520  148.3730 O   0  0  0  0  0  0  0  0  0  0  0  0
  190.1780  178.5420  148.4370 C   0  0  0  0  0  1  0  0  0  0  0  0
  191.3870  177.6970  148.7220 C   0  0  0  0  0  3  0  0  0  0  0  0
  191.6840  177.7720  150.2030 C   0  0  0  0  0  1  0  0  0  0  0  0
  187.1210  176.2880  142.5310 O   0  0  0  0  0  0  0  0  0  0  0  0
  188.2600  175.9940  141.7450 C   0  0  0  0  0  2  0  0  0  0  0  0
  188.4800  174.4850  141.7060 C   0  0  0  0  0  2  0  0  0  0  0  0
  190.2180  172.8320  142.5790 C   0  0  1  0  0  0  0  0  0  0  0  0
  191.5080  172.9700  143.3650 C   0  0  1  0  0  3  0  0  0  0  0  0
  190.3870  173.0940  141.0460 C   0  0  0  0  0  2  0  0  0  0  0  0
  190.1350  173.2110  143.9890 C   0  0  0  0  0  2  0  0  0  0  0  0
  189.9530  174.1940  141.9160 C   0  0  1  0  0  3  0  0  0  0  0  0
  192.0780  171.6010  143.7640 C   0  0  0  0  0  2  0  0  0  0  0  0
  193.5890  171.4990  143.4800 C   0  0  0  0  0  2  0  0  0  0  0  0
  194.3130  170.7160  144.5810 C   0  0  0  0  0  2  0  0  0  0  0  0
  194.4630  168.6220  145.2860 C   0  0  0  0  0  1  0  0  0  0  0  0
  193.5300  169.6220  144.9930 O   0  0  0  0  0  0  0  0  0  0  0  0
  1  5  1  0  0  0  0
  2 12  2  0  0  0  0
  2  4  1  0  0  0  0
  3 11  1  0  0  0  0
  4  7  2  0  0  0  0
  5  9  1  0  0  0  0
  6 29  1  6  0  0  0
  6  4  1  0  0  0  0
  6  3  1  0  0  0  0
  7  9  1  0  0  0  0
  7 10  1  0  0  0  0
  9  8  1  1  0  0  0
 11 10  2  0  0  0  0
 11 13  1  0  0  0  0
 12  1  1  0  0  0  0
 14 13  1  1  0  0  0
 14 25  1  0  0  0  0
 15 19  1  0  0  0  0
 16 21  2  0  0  0  0
 17 16  1  0  0  0  0
 18 15  2  0  0  0  0
 18 16  1  0  0  0  0
 19 20  2  0  0  0  0
 21 20  1  0  0  0  0
 21 14  1  0  0  0  0
 23 24  2  0  0  0  0
 24 22  1  0  0  0  0
 24 15  1  0  0  0  0
 25 27  1  0  0  0  0
 26 27  1  0  0  0  0
 27 28  1  0  0  0  0
 30 29  1  0  0  0  0
 31 30  1  0  0  0  0
 32 34  1  6  0  0  0
 32 33  1  0  0  0  0
 32 35  1  0  0  0  0
 33 37  1  1  0  0  0
 33 35  1  0  0  0  0
 34 36  1  0  0  0  0
 36 31  1  6  0  0  0
 36 32  1  0  0  0  0
 38 37  1  0  0  0  0
 38 39  1  0  0  0  0
 39 41  1  0  0  0  0
 41 40  1  0  0  0  0
M  END
>  <MODEL>
3

>  <REMARK>
 VINA RESULT:      -6.4      2.009      5.434
  Name = 
  14 active torsions:
  status: ('A' for Active; 'I' for Inactive)
    1  A    between atoms: C_4  and  C_6
    2  A    between atoms: C_4  and  C_30
    3  A    between atoms: C_10  and  C_23
    4  A    between atoms: C_13  and  O_27
    5  A    between atoms: C_15  and  O_27
    6  A    between atoms: C_15  and  C_31
    7  A    between atoms: C_15  and  C_40
    8  A    between atoms: C_19  and  O_41
    9  A    between atoms: C_24  and  C_25
   10  A    between atoms: C_24  and  C_37
   11  A    between atoms: C_25  and  O_41
   12  A    between atoms: O_29  and  C_34
   13  A    between atoms: C_30  and  C_34
   14  A    between atoms: C_31  and  C_36
                            x       y       z     vdW  Elec       q    Type
                         _______ _______ _______ _____ _____    ______ ____

>  <TORSDO>
F 14

$$$$
=
 OpenBabel11062422223D

 41 45  0  0  1  0  0  0  0  0999 V2000
  196.8710  172.0780  145.6430 C   0  0  0  0  0  2  0  0  0  0  0  0
  196.2930  174.4620  145.6910 C   0  0  0  0  0  3  0  0  0  0  0  0
  193.3680  175.4640  143.5920 O   0  0  0  0  0  0  0  0  0  0  0  0
  195.2570  174.4060  144.6150 C   0  0  0  0  0  0  0  0  0  0  0  0
  197.1320  172.0370  144.2600 O   0  0  0  0  0  0  0  0  0  0  0  0
  194.3550  175.4020  144.6000 C   0  0  1  0  0  3  0  0  0  0  0  0
  195.2530  173.4070  143.4960 C   0  0  0  0  0  0  0  0  0  0  0  0
  196.2080  171.7190  142.0670 N   0  0  0  0  0  1  0  0  0  0  0  0
  196.1920  172.4350  143.3020 C   0  0  2  0  0  3  0  0  0  0  0  0
  194.1980  173.5480  142.4950 C   0  0  0  0  0  3  0  0  0  0  0  0
  193.3030  174.5430  142.5550 C   0  0  0  0  0  0  0  0  0  0  0  0
  197.0280  173.4490  146.1470 C   0  0  0  0  0  3  0  0  0  0  0  0
  192.2250  174.6390  141.5200 C   0  0  0  0  0  2  0  0  0  0  0  0
  190.8550  174.1240  141.9880 C   0  0  2  0  0  3  0  0  0  0  0  0
  187.7060  177.0940  141.5820 C   0  0  0  0  0  0  0  0  0  0  0  0
  188.6160  174.9080  141.0340 C   0  0  0  0  0  0  0  0  0  0  0  0
  188.4660  173.6580  140.2570 C   0  0  0  0  0  1  0  0  0  0  0  0
  187.6240  175.8800  140.8880 C   0  0  0  0  0  3  0  0  0  0  0  0
  188.7810  177.3210  142.4400 C   0  0  0  0  0  3  0  0  0  0  0  0
  189.7700  176.3460  142.5980 C   0  0  0  0  0  3  0  0  0  0  0  0
  189.7210  175.1390  141.8870 C   0  0  0  0  0  0  0  0  0  0  0  0
  185.9140  178.1790  140.4240 O   0  0  0  0  0  0  0  0  0  0  0  0
  186.4040  179.0140  142.5000 O   0  0  0  0  0  1  0  0  0  0  0  0
  186.6130  178.0830  141.4800 C   0  0  0  0  0  0  0  0  0  0  0  0
  190.9300  173.5880  143.2780 O   0  0  0  0  0  0  0  0  0  0  0  0
  191.5500  171.4240  144.0600 C   0  0  0  0  0  1  0  0  0  0  0  0
  190.6150  172.2110  143.1850 C   0  0  0  0  0  3  0  0  0  0  0  0
  189.2020  171.9930  143.6780 C   0  0  0  0  0  1  0  0  0  0  0  0
  194.4180  176.4160  145.5740 O   0  0  0  0  0  0  0  0  0  0  0  0
  193.5860  176.4110  146.7180 C   0  0  0  0  0  2  0  0  0  0  0  0
  192.3820  175.5070  146.4710 C   0  0  0  0  0  2  0  0  0  0  0  0
  189.9220  175.8120  147.0780 C   0  0  1  0  0  0  0  0  0  0  0  0
  188.6900  176.2590  146.3130 C   0  0  1  0  0  3  0  0  0  0  0  0
  190.7980  176.9950  147.6040 C   0  0  0  0  0  2  0  0  0  0  0  0
  189.3730  174.9160  146.0610 C   0  0  0  0  0  2  0  0  0  0  0  0
  191.1410  176.3660  146.3230 C   0  0  1  0  0  3  0  0  0  0  0  0
  187.4130  176.0960  147.1500 C   0  0  0  0  0  2  0  0  0  0  0  0
  186.2140  176.8350  146.5250 C   0  0  0  0  0  2  0  0  0  0  0  0
  186.6750  177.9630  145.5950 C   0  0  0  0  0  2  0  0  0  0  0  0
  184.7690  178.6270  146.5050 C   0  0  0  0  0  1  0  0  0  0  0  0
  185.8590  179.0960  145.7650 O   0  0  0  0  0  0  0  0  0  0  0  0
  1 12  1  0  0  0  0
  2 12  2  0  0  0  0
  3  6  1  0  0  0  0
  4  2  1  0  0  0  0
  5  1  1  0  0  0  0
  6  4  1  0  0  0  0
  6 29  1  6  0  0  0
  7  4  2  0  0  0  0
  9  8  1  1  0  0  0
  9  7  1  0  0  0  0
  9  5  1  0  0  0  0
 10 11  2  0  0  0  0
 10  7  1  0  0  0  0
 11  3  1  0  0  0  0
 13 11  1  0  0  0  0
 14 13  1  1  0  0  0
 14 25  1  0  0  0  0
 15 19  1  0  0  0  0
 16 21  2  0  0  0  0
 17 16  1  0  0  0  0
 18 16  1  0  0  0  0
 18 15  2  0  0  0  0
 19 20  2  0  0  0  0
 21 14  1  0  0  0  0
 21 20  1  0  0  0  0
 22 24  2  0  0  0  0
 24 15  1  0  0  0  0
 24 23  1  0  0  0  0
 27 25  1  0  0  0  0
 27 28  1  0  0  0  0
 27 26  1  0  0  0  0
 29 30  1  0  0  0  0
 31 30  1  0  0  0  0
 32 35  1  1  0  0  0
 32 34  1  0  0  0  0
 33 32  1  0  0  0  0
 33 37  1  1  0  0  0
 35 33  1  0  0  0  0
 36 31  1  1  0  0  0
 36 32  1  0  0  0  0
 36 34  1  0  0  0  0
 38 37  1  0  0  0  0
 39 41  1  0  0  0  0
 39 38  1  0  0  0  0
 41 40  1  0  0  0  0
M  END
>  <MODEL>
4

>  <REMARK>
 VINA RESULT:      -6.4      2.671      8.101
  Name = 
  14 active torsions:
  status: ('A' for Active; 'I' for Inactive)
    1  A    between atoms: C_4  and  C_6
    2  A    between atoms: C_4  and  C_30
    3  A    between atoms: C_10  and  C_23
    4  A    between atoms: C_13  and  O_27
    5  A    between atoms: C_15  and  O_27
    6  A    between atoms: C_15  and  C_31
    7  A    between atoms: C_15  and  C_40
    8  A    between atoms: C_19  and  O_41
    9  A    between atoms: C_24  and  C_25
   10  A    between atoms: C_24  and  C_37
   11  A    between atoms: C_25  and  O_41
   12  A    between atoms: O_29  and  C_34
   13  A    between atoms: C_30  and  C_34
   14  A    between atoms: C_31  and  C_36
                            x       y       z     vdW  Elec       q    Type
                         _______ _______ _______ _____ _____    ______ ____

>  <TORSDO>
F 14

$$$$
=
 OpenBabel11062422223D

 41 45  0  0  1  0  0  0  0  0999 V2000
  188.5520  174.9440  140.4880 C   0  0  0  0  0  2  0  0  0  0  0  0
  188.2520  174.6290  142.9030 C   0  0  0  0  0  3  0  0  0  0  0  0
  190.8630  172.5680  144.6050 O   0  0  0  0  0  0  0  0  0  0  0  0
  189.3580  173.6400  143.0820 C   0  0  0  0  0  0  0  0  0  0  0  0
  188.4810  173.5740  140.1700 O   0  0  0  0  0  0  0  0  0  0  0  0
  189.8510  173.5120  144.3260 C   0  0  1  0  0  3  0  0  0  0  0  0
  189.8380  172.7050  142.0120 C   0  0  0  0  0  0  0  0  0  0  0  0
  189.7020  171.5230  139.9170 N   0  0  0  0  0  1  0  0  0  0  0  0
  189.3260  172.6210  140.7490 C   0  0  2  0  0  3  0  0  0  0  0  0
  190.8840  171.7580  142.3900 C   0  0  0  0  0  3  0  0  0  0  0  0
  191.3630  171.7040  143.6390 C   0  0  0  0  0  0  0  0  0  0  0  0
  187.8700  175.2030  141.7630 C   0  0  0  0  0  3  0  0  0  0  0  0
  192.4500  170.7320  143.9800 C   0  0  0  0  0  2  0  0  0  0  0  0
  193.6830  171.3720  144.6380 C   0  0  2  0  0  3  0  0  0  0  0  0
  194.9720  175.0030  142.6260 C   0  0  0  0  0  0  0  0  0  0  0  0
  194.0950  173.8940  144.6020 C   0  0  0  0  0  0  0  0  0  0  0  0
  193.5780  174.0370  145.9820 C   0  0  0  0  0  1  0  0  0  0  0  0
  194.4850  175.0590  143.9380 C   0  0  0  0  0  3  0  0  0  0  0  0
  195.0850  173.7680  141.9890 C   0  0  0  0  0  3  0  0  0  0  0  0
  194.7070  172.5990  142.6550 C   0  0  0  0  0  3  0  0  0  0  0  0
  194.1870  172.6390  143.9560 C   0  0  0  0  0  0  0  0  0  0  0  0
  194.8050  176.7510  140.9980 O   0  0  0  0  0  0  0  0  0  0  0  0
  196.6930  176.7780  142.2940 O   0  0  0  0  0  1  0  0  0  0  0  0
  195.4530  176.2310  141.9590 C   0  0  0  0  0  0  0  0  0  0  0  0
  194.7180  170.4410  144.7860 O   0  0  0  0  0  0  0  0  0  0  0  0
  195.0590  169.2560  146.8260 C   0  0  0  0  0  1  0  0  0  0  0  0
  195.2160  170.5660  146.1060 C   0  0  0  0  0  3  0  0  0  0  0  0
  196.6890  170.9050  146.0460 C   0  0  0  0  0  1  0  0  0  0  0  0
  189.3270  174.2990  145.3690 O   0  0  0  0  0  0  0  0  0  0  0  0
  190.0870  175.3130  145.9980 C   0  0  0  0  0  2  0  0  0  0  0  0
  189.1540  176.2780  146.7210 C   0  0  0  0  0  2  0  0  0  0  0  0
  186.9170  177.4780  146.4460 C   0  0  1  0  0  0  0  0  0  0  0  0
  185.4860  177.0150  146.2470 C   0  0  1  0  0  3  0  0  0  0  0  0
  187.7560  177.5080  145.1270 C   0  0  0  0  0  2  0  0  0  0  0  0
  186.2310  176.8390  147.5680 C   0  0  0  0  0  2  0  0  0  0  0  0
  187.8250  176.3230  145.9900 C   0  0  1  0  0  3  0  0  0  0  0  0
  184.4980  178.1890  146.3060 C   0  0  0  0  0  2  0  0  0  0  0  0
  184.6510  179.1360  145.1010 C   0  0  0  0  0  2  0  0  0  0  0  0
  184.3030  178.4280  143.7860 C   0  0  0  0  0  2  0  0  0  0  0  0
  185.2590  177.8830  141.8650 C   0  0  0  0  0  1  0  0  0  0  0  0
  185.0660  178.9630  142.7310 O   0  0  0  0  0  0  0  0  0  0  0  0
  1 12  1  0  0  0  0
  2  4  1  0  0  0  0
  4  6  1  0  0  0  0
  5  1  1  0  0  0  0
  5  9  1  0  0  0  0
  6  3  1  0  0  0  0
  6 29  1  1  0  0  0
  7 10  1  0  0  0  0
  7  4  2  0  0  0  0
  9  8  1  6  0  0  0
  9  7  1  0  0  0  0
 10 11  2  0  0  0  0
 11 13  1  0  0  0  0
 11  3  1  0  0  0  0
 12  2  2  0  0  0  0
 14 13  1  6  0  0  0
 14 25  1  0  0  0  0
 15 18  1  0  0  0  0
 16 17  1  0  0  0  0
 18 16  2  0  0  0  0
 19 15  2  0  0  0  0
 19 20  1  0  0  0  0
 20 21  2  0  0  0  0
 21 16  1  0  0  0  0
 21 14  1  0  0  0  0
 22 24  2  0  0  0  0
 24 23  1  0  0  0  0
 24 15  1  0  0  0  0
 25 27  1  0  0  0  0
 27 26  1  0  0  0  0
 28 27  1  0  0  0  0
 29 30  1  0  0  0  0
 30 31  1  0  0  0  0
 32 34  1  6  0  0  0
 32 35  1  0  0  0  0
 33 37  1  1  0  0  0
 33 32  1  0  0  0  0
 33 35  1  0  0  0  0
 34 36  1  0  0  0  0
 36 32  1  0  0  0  0
 36 31  1  1  0  0  0
 38 37  1  0  0  0  0
 39 38  1  0  0  0  0
 40 41  1  0  0  0  0
 41 39  1  0  0  0  0
M  END
>  <MODEL>
5

>  <REMARK>
 VINA RESULT:      -6.2      2.072      6.821
  Name = 
  14 active torsions:
  status: ('A' for Active; 'I' for Inactive)
    1  A    between atoms: C_4  and  C_6
    2  A    between atoms: C_4  and  C_30
    3  A    between atoms: C_10  and  C_23
    4  A    between atoms: C_13  and  O_27
    5  A    between atoms: C_15  and  O_27
    6  A    between atoms: C_15  and  C_31
    7  A    between atoms: C_15  and  C_40
    8  A    between atoms: C_19  and  O_41
    9  A    between atoms: C_24  and  C_25
   10  A    between atoms: C_24  and  C_37
   11  A    between atoms: C_25  and  O_41
   12  A    between atoms: O_29  and  C_34
   13  A    between atoms: C_30  and  C_34
   14  A    between atoms: C_31  and  C_36
                            x       y       z     vdW  Elec       q    Type
                         _______ _______ _______ _____ _____    ______ ____

>  <TORSDO>
F 14

$$$$
=
 OpenBabel11062422223D

 41 45  0  0  1  0  0  0  0  0999 V2000
  189.5680  174.1450  136.6210 C   0  0  0  0  0  2  0  0  0  0  0  0
  188.1920  174.0990  138.6520 C   0  0  0  0  0  3  0  0  0  0  0  0
  190.0640  173.8180  141.8730 O   0  0  0  0  0  0  0  0  0  0  0  0
  189.3050  173.7960  139.6020 C   0  0  0  0  0  0  0  0  0  0  0  0
  190.1430  172.8760  136.8270 O   0  0  0  0  0  0  0  0  0  0  0  0
  189.0920  174.1100  140.8920 C   0  0  1  0  0  3  0  0  0  0  0  0
  190.5530  173.0520  139.2340 C   0  0  0  0  0  0  0  0  0  0  0  0
  191.9320  171.6430  137.8490 N   0  0  0  0  0  1  0  0  0  0  0  0
  190.8330  172.5420  137.9980 C   0  0  2  0  0  3  0  0  0  0  0  0
  191.5020  172.7880  140.3130 C   0  0  0  0  0  3  0  0  0  0  0  0
  191.2500  173.1600  141.5740 C   0  0  0  0  0  0  0  0  0  0  0  0
  188.2850  174.2390  137.3310 C   0  0  0  0  0  3  0  0  0  0  0  0
  192.2590  172.8880  142.6480 C   0  0  0  0  0  2  0  0  0  0  0  0
  193.0930  174.1140  143.0520 C   0  0  2  0  0  3  0  0  0  0  0  0
  191.3780  176.2720  146.4140 C   0  0  0  0  0  0  0  0  0  0  0  0
  192.8770  174.5600  145.5600 C   0  0  0  0  0  0  0  0  0  0  0  0
  193.8300  173.4720  145.8740 C   0  0  0  0  0  1  0  0  0  0  0  0
  192.2990  175.2400  146.6350 C   0  0  0  0  0  3  0  0  0  0  0  0
  191.0540  176.6320  145.1070 C   0  0  0  0  0  3  0  0  0  0  0  0
  191.6390  175.9620  144.0290 C   0  0  0  0  0  3  0  0  0  0  0  0
  192.5380  174.9060  144.2310 C   0  0  0  0  0  0  0  0  0  0  0  0
  189.7390  177.6750  147.4500 O   0  0  0  0  0  0  0  0  0  0  0  0
  191.5650  177.1670  148.7350 O   0  0  0  0  0  1  0  0  0  0  0  0
  190.8310  177.0360  147.5540 C   0  0  0  0  0  0  0  0  0  0  0  0
  193.3270  174.9510  141.9560 O   0  0  0  0  0  0  0  0  0  0  0  0
  195.2410  174.0600  140.8510 C   0  0  0  0  0  1  0  0  0  0  0  0
  194.7290  175.0900  141.8180 C   0  0  0  0  0  3  0  0  0  0  0  0
  195.0360  176.4620  141.2610 C   0  0  0  0  0  1  0  0  0  0  0  0
  187.8730  174.7020  141.2750 O   0  0  0  0  0  0  0  0  0  0  0  0
  187.8050  175.6970  142.2780 C   0  0  0  0  0  2  0  0  0  0  0  0
  188.3070  177.0240  141.7180 C   0  0  0  0  0  2  0  0  0  0  0  0
  186.4870  177.9610  143.2430 C   0  0  1  0  0  0  0  0  0  0  0  0
  185.9380  179.3510  143.5040 C   0  0  1  0  0  3  0  0  0  0  0  0
  187.7990  177.6460  144.0340 C   0  0  0  0  0  2  0  0  0  0  0  0
  185.6890  178.6010  142.1980 C   0  0  0  0  0  2  0  0  0  0  0  0
  187.8980  178.1430  142.6560 C   0  0  1  0  0  3  0  0  0  0  0  0
  184.7090  179.3110  144.4240 C   0  0  0  0  0  2  0  0  0  0  0  0
  185.0990  179.1420  145.9040 C   0  0  0  0  0  2  0  0  0  0  0  0
  184.4380  177.9040  146.5200 C   0  0  0  0  0  2  0  0  0  0  0  0
  186.2530  176.9580  147.3650 C   0  0  0  0  0  1  0  0  0  0  0  0
  185.2780  176.7840  146.3780 O   0  0  0  0  0  0  0  0  0  0  0  0
  1  5  1  0  0  0  0
  1 12  1  0  0  0  0
  2  4  1  0  0  0  0
  4  6  1  0  0  0  0
  5  9  1  0  0  0  0
  6 29  1  1  0  0  0
  6  3  1  0  0  0  0
  7  4  2  0  0  0  0
  7 10  1  0  0  0  0
  9  8  1  6  0  0  0
  9  7  1  0  0  0  0
 10 11  2  0  0  0  0
 11  3  1  0  0  0  0
 11 13  1  0  0  0  0
 12  2  2  0  0  0  0
 14 13  1  6  0  0  0
 14 21  1  0  0  0  0
 15 18  1  0  0  0  0
 15 24  1  0  0  0  0
 16 17  1  0  0  0  0
 16 18  2  0  0  0  0
 19 15  2  0  0  0  0
 20 21  2  0  0  0  0
 20 19  1  0  0  0  0
 21 16  1  0  0  0  0
 22 24  2  0  0  0  0
 24 23  1  0  0  0  0
 25 14  1  0  0  0  0
 26 27  1  0  0  0  0
 27 25  1  0  0  0  0
 28 27  1  0  0  0  0
 29 30  1  0  0  0  0
 31 30  1  0  0  0  0
 32 35  1  6  0  0  0
 32 33  1  0  0  0  0
 32 34  1  0  0  0  0
 33 37  1  1  0  0  0
 35 33  1  0  0  0  0
 36 31  1  6  0  0  0
 36 32  1  0  0  0  0
 36 34  1  0  0  0  0
 37 38  1  0  0  0  0
 38 39  1  0  0  0  0
 41 39  1  0  0  0  0
 41 40  1  0  0  0  0
M  END
>  <MODEL>
6

>  <REMARK>
 VINA RESULT:      -6.1      2.595      7.357
  Name = 
  14 active torsions:
  status: ('A' for Active; 'I' for Inactive)
    1  A    between atoms: C_4  and  C_6
    2  A    between atoms: C_4  and  C_30
    3  A    between atoms: C_10  and  C_23
    4  A    between atoms: C_13  and  O_27
    5  A    between atoms: C_15  and  O_27
    6  A    between atoms: C_15  and  C_31
    7  A    between atoms: C_15  and  C_40
    8  A    between atoms: C_19  and  O_41
    9  A    between atoms: C_24  and  C_25
   10  A    between atoms: C_24  and  C_37
   11  A    between atoms: C_25  and  O_41
   12  A    between atoms: O_29  and  C_34
   13  A    between atoms: C_30  and  C_34
   14  A    between atoms: C_31  and  C_36
                            x       y       z     vdW  Elec       q    Type
                         _______ _______ _______ _____ _____    ______ ____

>  <TORSDO>
F 14

$$$$
=
 OpenBabel11062422223D

 41 45  0  0  1  0  0  0  0  0999 V2000
  184.0690  178.7940  145.4330 C   0  0  0  0  0  2  0  0  0  0  0  0
  186.0100  178.9110  143.9380 C   0  0  0  0  0  3  0  0  0  0  0  0
  188.6470  176.3230  144.4980 O   0  0  0  0  0  0  0  0  0  0  0  0
  186.8230  177.8690  144.6360 C   0  0  0  0  0  0  0  0  0  0  0  0
  184.8060  178.9910  146.6170 O   0  0  0  0  0  0  0  0  0  0  0  0
  187.7930  177.2840  143.9120 C   0  0  1  0  0  3  0  0  0  0  0  0
  186.7150  177.5500  146.0970 C   0  0  0  0  0  0  0  0  0  0  0  0
  186.0570  177.9470  148.3800 N   0  0  0  0  0  1  0  0  0  0  0  0
  185.8810  178.1710  146.9810 C   0  0  2  0  0  3  0  0  0  0  0  0
  187.6400  176.5470  146.6190 C   0  0  0  0  0  3  0  0  0  0  0  0
  188.5630  175.9700  145.8380 C   0  0  0  0  0  0  0  0  0  0  0  0
  184.8000  179.3460  144.2850 C   0  0  0  0  0  3  0  0  0  0  0  0
  189.4790  174.9310  146.4080 C   0  0  0  0  0  2  0  0  0  0  0  0
  190.8790  174.9110  145.7760 C   0  0  2  0  0  3  0  0  0  0  0  0
  191.5730  171.5830  143.0670 C   0  0  0  0  0  0  0  0  0  0  0  0
  192.3050  173.6830  144.0450 C   0  0  0  0  0  0  0  0  0  0  0  0
  193.3270  174.7530  144.0720 C   0  0  0  0  0  1  0  0  0  0  0  0
  192.5050  172.6240  143.1570 C   0  0  0  0  0  3  0  0  0  0  0  0
  190.4460  171.5990  143.8870 C   0  0  0  0  0  3  0  0  0  0  0  0
  190.2480  172.6510  144.7860 C   0  0  0  0  0  3  0  0  0  0  0  0
  191.1540  173.7180  144.8670 C   0  0  0  0  0  0  0  0  0  0  0  0
  192.9440  170.3010  141.5810 O   0  0  0  0  0  0  0  0  0  0  0  0
  190.8140  169.5190  141.8890 O   0  0  0  0  0  1  0  0  0  0  0  0
  191.8310  170.4290  142.1800 C   0  0  0  0  0  0  0  0  0  0  0  0
  191.8760  175.0340  146.7500 O   0  0  0  0  0  0  0  0  0  0  0  0
  191.5810  176.7830  148.3420 C   0  0  0  0  0  1  0  0  0  0  0  0
  192.0840  176.4160  146.9740 C   0  0  0  0  0  3  0  0  0  0  0  0
  193.5670  176.7070  146.9160 C   0  0  0  0  0  1  0  0  0  0  0  0
  187.9870  177.6600  142.5700 O   0  0  0  0  0  0  0  0  0  0  0  0
  188.1960  176.7060  141.5460 C   0  0  0  0  0  2  0  0  0  0  0  0
  187.4700  175.4110  141.8960 C   0  0  0  0  0  2  0  0  0  0  0  0
  189.1420  174.0620  140.5180 C   0  0  1  0  0  0  0  0  0  0  0  0
  189.4800  172.5860  140.4130 C   0  0  1  0  0  3  0  0  0  0  0  0
  189.8310  174.7790  141.7250 C   0  0  0  0  0  2  0  0  0  0  0  0
  188.1730  173.1710  139.8810 C   0  0  0  0  0  2  0  0  0  0  0  0
  188.4650  174.2670  141.8840 C   0  0  1  0  0  3  0  0  0  0  0  0
  190.4810  172.3140  139.2800 C   0  0  0  0  0  2  0  0  0  0  0  0
  191.5450  173.4230  139.1700 C   0  0  0  0  0  2  0  0  0  0  0  0
  191.9160  173.6980  137.7080 C   0  0  0  0  0  2  0  0  0  0  0  0
  191.1300  174.9380  136.0500 C   0  0  0  0  0  1  0  0  0  0  0  0
  190.7550  173.9350  136.9500 O   0  0  0  0  0  0  0  0  0  0  0  0
  1  5  1  0  0  0  0
  2 12  2  0  0  0  0
  2  4  1  0  0  0  0
  3 11  1  0  0  0  0
  4  7  2  0  0  0  0
  5  9  1  0  0  0  0
  6 29  1  1  0  0  0
  6  3  1  0  0  0  0
  6  4  1  0  0  0  0
  7 10  1  0  0  0  0
  7  9  1  0  0  0  0
  9  8  1  6  0  0  0
 11 13  1  0  0  0  0
 11 10  2  0  0  0  0
 12  1  1  0  0  0  0
 14 13  1  1  0  0  0
 14 25  1  0  0  0  0
 15 18  2  0  0  0  0
 15 19  1  0  0  0  0
 16 17  1  0  0  0  0
 16 21  2  0  0  0  0
 18 16  1  0  0  0  0
 19 20  2  0  0  0  0
 20 21  1  0  0  0  0
 21 14  1  0  0  0  0
 22 24  2  0  0  0  0
 23 24  1  0  0  0  0
 24 15  1  0  0  0  0
 25 27  1  0  0  0  0
 27 26  1  0  0  0  0
 28 27  1  0  0  0  0
 30 31  1  0  0  0  0
 30 29  1  0  0  0  0
 32 35  1  6  0  0  0
 32 34  1  0  0  0  0
 32 36  1  0  0  0  0
 33 37  1  6  0  0  0
 33 32  1  0  0  0  0
 34 36  1  0  0  0  0
 35 33  1  0  0  0  0
 36 31  1  6  0  0  0
 38 37  1  0  0  0  0
 39 38  1  0  0  0  0
 40 41  1  0  0  0  0
 41 39  1  0  0  0  0
M  END
>  <MODEL>
7

>  <REMARK>
 VINA RESULT:      -6.1      2.528      5.456
  Name = 
  14 active torsions:
  status: ('A' for Active; 'I' for Inactive)
    1  A    between atoms: C_4  and  C_6
    2  A    between atoms: C_4  and  C_30
    3  A    between atoms: C_10  and  C_23
    4  A    between atoms: C_13  and  O_27
    5  A    between atoms: C_15  and  O_27
    6  A    between atoms: C_15  and  C_31
    7  A    between atoms: C_15  and  C_40
    8  A    between atoms: C_19  and  O_41
    9  A    between atoms: C_24  and  C_25
   10  A    between atoms: C_24  and  C_37
   11  A    between atoms: C_25  and  O_41
   12  A    between atoms: O_29  and  C_34
   13  A    between atoms: C_30  and  C_34
   14  A    between atoms: C_31  and  C_36
                            x       y       z     vdW  Elec       q    Type
                         _______ _______ _______ _____ _____    ______ ____

>  <TORSDO>
F 14

$$$$
=
 OpenBabel11062422223D

 41 45  0  0  1  0  0  0  0  0999 V2000
  185.3900  179.8720  144.1640 C   0  0  0  0  0  2  0  0  0  0  0  0
  186.4240  178.2780  145.7150 C   0  0  0  0  0  3  0  0  0  0  0  0
  189.1510  176.1600  144.2850 O   0  0  0  0  0  0  0  0  0  0  0  0
  187.2610  177.5720  144.6980 C   0  0  0  0  0  0  0  0  0  0  0  0
  184.9260  178.8930  143.2640 O   0  0  0  0  0  0  0  0  0  0  0  0
  188.3280  176.9000  145.1620 C   0  0  1  0  0  3  0  0  0  0  0  0
  186.9060  177.4540  143.2460 C   0  0  0  0  0  0  0  0  0  0  0  0
  185.4400  177.5590  141.3360 N   0  0  0  0  0  1  0  0  0  0  0  0
  185.7760  177.9560  142.6650 C   0  0  2  0  0  3  0  0  0  0  0  0
  187.8100  176.6660  142.4110 C   0  0  0  0  0  3  0  0  0  0  0  0
  188.8810  176.0500  142.9270 C   0  0  0  0  0  0  0  0  0  0  0  0
  185.5800  179.2840  145.4970 C   0  0  0  0  0  3  0  0  0  0  0  0
  189.7950  175.2690  142.0330 C   0  0  0  0  0  2  0  0  0  0  0  0
  190.8840  174.4810  142.7780 C   0  0  2  0  0  3  0  0  0  0  0  0
  194.8960  175.3800  141.3660 C   0  0  0  0  0  0  0  0  0  0  0  0
  192.8300  176.1000  142.4220 C   0  0  0  0  0  0  0  0  0  0  0  0
  192.0530  177.2200  143.0020 C   0  0  0  0  0  1  0  0  0  0  0  0
  194.1090  176.3860  141.9400 C   0  0  0  0  0  3  0  0  0  0  0  0
  194.4000  174.0790  141.2950 C   0  0  0  0  0  3  0  0  0  0  0  0
  193.1250  173.7870  141.7880 C   0  0  0  0  0  3  0  0  0  0  0  0
  192.3110  174.7870  142.3360 C   0  0  0  0  0  0  0  0  0  0  0  0
  197.1610  176.0460  141.7610 O   0  0  0  0  0  1  0  0  0  0  0  0
  196.6050  175.6680  139.5720 O   0  0  0  0  0  0  0  0  0  0  0  0
  196.2760  175.6750  140.9290 C   0  0  0  0  0  0  0  0  0  0  0  0
  190.6340  173.1050  142.7330 O   0  0  0  0  0  0  0  0  0  0  0  0
  190.1430  171.8370  140.7760 C   0  0  0  0  0  1  0  0  0  0  0  0
  189.6530  172.8840  141.7360 C   0  0  0  0  0  3  0  0  0  0  0  0
  188.3890  172.3760  142.3920 C   0  0  0  0  0  1  0  0  0  0  0  0
  188.6080  176.9010  146.5420 O   0  0  0  0  0  0  0  0  0  0  0  0
  189.7550  177.5350  147.0740 C   0  0  0  0  0  2  0  0  0  0  0  0
  190.7660  176.4800  147.5130 C   0  0  0  0  0  2  0  0  0  0  0  0
  193.0290  175.5740  146.7570 C   0  0  1  0  0  0  0  0  0  0  0  0
  194.0130  175.9590  145.6670 C   0  0  1  0  0  3  0  0  0  0  0  0
  191.8510  174.6800  146.2510 C   0  0  0  0  0  2  0  0  0  0  0  0
  193.7810  176.8190  146.9080 C   0  0  0  0  0  2  0  0  0  0  0  0
  191.6600  176.1330  146.3370 C   0  0  1  0  0  3  0  0  0  0  0  0
  195.3170  175.1550  145.7720 C   0  0  0  0  0  2  0  0  0  0  0  0
  195.2540  173.8430  144.9670 C   0  0  0  0  0  2  0  0  0  0  0  0
  196.5890  173.5490  144.2720 C   0  0  0  0  0  2  0  0  0  0  0  0
  197.1890  171.6420  145.2250 C   0  0  0  0  0  1  0  0  0  0  0  0
  196.7100  172.1690  144.0220 O   0  0  0  0  0  0  0  0  0  0  0  0
  1 12  1  0  0  0  0
  3  6  1  0  0  0  0
  4  6  1  0  0  0  0
  4  2  1  0  0  0  0
  5  1  1  0  0  0  0
  6 29  1  1  0  0  0
  7  4  2  0  0  0  0
  9  8  1  6  0  0  0
  9  7  1  0  0  0  0
  9  5  1  0  0  0  0
 10 11  2  0  0  0  0
 10  7  1  0  0  0  0
 11  3  1  0  0  0  0
 12  2  2  0  0  0  0
 13 11  1  0  0  0  0
 14 13  1  6  0  0  0
 15 18  1  0  0  0  0
 16 17  1  0  0  0  0
 18 16  2  0  0  0  0
 19 15  2  0  0  0  0
 19 20  1  0  0  0  0
 20 21  2  0  0  0  0
 21 16  1  0  0  0  0
 21 14  1  0  0  0  0
 23 24  2  0  0  0  0
 24 15  1  0  0  0  0
 24 22  1  0  0  0  0
 25 14  1  0  0  0  0
 26 27  1  0  0  0  0
 27 28  1  0  0  0  0
 27 25  1  0  0  0  0
 29 30  1  0  0  0  0
 30 31  1  0  0  0  0
 32 34  1  1  0  0  0
 32 35  1  0  0  0  0
 33 37  1  1  0  0  0
 33 32  1  0  0  0  0
 33 35  1  0  0  0  0
 34 36  1  0  0  0  0
 36 32  1  0  0  0  0
 36 31  1  1  0  0  0
 38 37  1  0  0  0  0
 39 38  1  0  0  0  0
 41 39  1  0  0  0  0
 41 40  1  0  0  0  0
M  END
>  <MODEL>
8

>  <REMARK>
 VINA RESULT:      -6.1      1.611      2.859
  Name = 
  14 active torsions:
  status: ('A' for Active; 'I' for Inactive)
    1  A    between atoms: C_4  and  C_6
    2  A    between atoms: C_4  and  C_30
    3  A    between atoms: C_10  and  C_23
    4  A    between atoms: C_13  and  O_27
    5  A    between atoms: C_15  and  O_27
    6  A    between atoms: C_15  and  C_31
    7  A    between atoms: C_15  and  C_40
    8  A    between atoms: C_19  and  O_41
    9  A    between atoms: C_24  and  C_25
   10  A    between atoms: C_24  and  C_37
   11  A    between atoms: C_25  and  O_41
   12  A    between atoms: O_29  and  C_34
   13  A    between atoms: C_30  and  C_34
   14  A    between atoms: C_31  and  C_36
                            x       y       z     vdW  Elec       q    Type
                         _______ _______ _______ _____ _____    ______ ____

>  <TORSDO>
F 14

$$$$
=
 OpenBabel11062422223D

 41 45  0  0  1  0  0  0  0  0999 V2000
  195.3540  170.3630  142.2120 C   0  0  0  0  0  2  0  0  0  0  0  0
  193.4470  170.8480  140.7470 C   0  0  0  0  0  3  0  0  0  0  0  0
  191.9900  174.2740  141.0620 O   0  0  0  0  0  0  0  0  0  0  0  0
  193.1110  172.1770  141.3420 C   0  0  0  0  0  0  0  0  0  0  0  0
  194.6470  170.5640  143.4130 O   0  0  0  0  0  0  0  0  0  0  0  0
  192.3990  173.0160  140.5700 C   0  0  1  0  0  3  0  0  0  0  0  0
  193.3920  172.5620  142.7640 C   0  0  0  0  0  0  0  0  0  0  0  0
  193.9510  172.1540  145.0710 N   0  0  0  0  0  1  0  0  0  0  0  0
  193.9720  171.7560  143.7010 C   0  0  2  0  0  3  0  0  0  0  0  0
  192.9300  173.8810  143.1890 C   0  0  0  0  0  3  0  0  0  0  0  0
  192.2560  174.6890  142.3610 C   0  0  0  0  0  0  0  0  0  0  0  0
  194.4220  170.0250  141.1280 C   0  0  0  0  0  3  0  0  0  0  0  0
  191.8180  176.0420  142.8300 C   0  0  0  0  0  2  0  0  0  0  0  0
  191.8120  176.2070  144.3590 C   0  0  2  0  0  3  0  0  0  0  0  0
  187.8250  176.8670  145.9610 C   0  0  0  0  0  0  0  0  0  0  0  0
  189.7950  175.4620  145.7420 C   0  0  0  0  0  0  0  0  0  0  0  0
  190.4410  174.1670  146.0550 C   0  0  0  0  0  1  0  0  0  0  0  0
  188.5030  175.6710  146.2290 C   0  0  0  0  0  3  0  0  0  0  0  0
  188.4570  177.8610  145.2170 C   0  0  0  0  0  3  0  0  0  0  0  0
  189.7550  177.6610  144.7380 C   0  0  0  0  0  3  0  0  0  0  0  0
  190.4370  176.4580  144.9690 C   0  0  0  0  0  0  0  0  0  0  0  0
  185.4350  176.7170  145.9520 O   0  0  0  0  0  0  0  0  0  0  0  0
  186.3510  177.8800  147.7000 O   0  0  0  0  0  1  0  0  0  0  0  0
  186.4890  177.1090  146.5440 C   0  0  0  0  0  0  0  0  0  0  0  0
  192.7230  177.1860  144.7660 O   0  0  0  0  0  0  0  0  0  0  0  0
  195.0920  177.1100  145.0200 C   0  0  0  0  0  1  0  0  0  0  0  0
  193.7740  176.5310  145.4520 C   0  0  0  0  0  3  0  0  0  0  0  0
  193.6140  176.7640  146.9380 C   0  0  0  0  0  1  0  0  0  0  0  0
  192.0230  172.6210  139.2720 O   0  0  0  0  0  0  0  0  0  0  0  0
  190.6870  172.7190  138.8160 C   0  0  0  0  0  2  0  0  0  0  0  0
  189.7830  171.8520  139.6860 C   0  0  0  0  0  2  0  0  0  0  0  0
  188.8890  173.8650  140.9760 C   0  0  1  0  0  0  0  0  0  0  0  0
  187.6760  174.1050  141.8550 C   0  0  1  0  0  3  0  0  0  0  0  0
  188.5880  173.9790  139.4460 C   0  0  0  0  0  2  0  0  0  0  0  0
  188.8500  173.2320  142.2940 C   0  0  0  0  0  2  0  0  0  0  0  0
  188.5600  172.6570  140.0840 C   0  0  1  0  0  3  0  0  0  0  0  0
  187.7220  175.4890  142.5190 C   0  0  0  0  0  2  0  0  0  0  0  0
  187.6410  176.6290  141.4850 C   0  0  0  0  0  2  0  0  0  0  0  0
  186.3260  177.4060  141.6110 C   0  0  0  0  0  2  0  0  0  0  0  0
  185.4790  178.7710  143.1350 C   0  0  0  0  0  1  0  0  0  0  0  0
  186.5510  178.6410  142.2480 O   0  0  0  0  0  0  0  0  0  0  0  0
  1  5  1  0  0  0  0
  2 12  2  0  0  0  0
  2  4  1  0  0  0  0
  3 11  1  0  0  0  0
  4  7  2  0  0  0  0
  5  9  1  0  0  0  0
  6 29  1  1  0  0  0
  6  3  1  0  0  0  0
  6  4  1  0  0  0  0
  7 10  1  0  0  0  0
  7  9  1  0  0  0  0
  9  8  1  6  0  0  0
 11 13  1  0  0  0  0
 11 10  2  0  0  0  0
 12  1  1  0  0  0  0
 14 13  1  6  0  0  0
 14 25  1  0  0  0  0
 14 21  1  0  0  0  0
 15 18  1  0  0  0  0
 15 24  1  0  0  0  0
 16 17  1  0  0  0  0
 16 18  2  0  0  0  0
 19 15  2  0  0  0  0
 20 21  2  0  0  0  0
 20 19  1  0  0  0  0
 21 16  1  0  0  0  0
 22 24  2  0  0  0  0
 24 23  1  0  0  0  0
 25 27  1  0  0  0  0
 26 27  1  0  0  0  0
 27 28  1  0  0  0  0
 30 29  1  0  0  0  0
 30 31  1  0  0  0  0
 32 34  1  6  0  0  0
 32 33  1  0  0  0  0
 32 35  1  0  0  0  0
 33 35  1  0  0  0  0
 33 37  1  1  0  0  0
 34 36  1  0  0  0  0
 36 31  1  6  0  0  0
 36 32  1  0  0  0  0
 38 39  1  0  0  0  0
 38 37  1  0  0  0  0
 39 41  1  0  0  0  0
 41 40  1  0  0  0  0
M  END
>  <MODEL>
9

>  <REMARK>
 VINA RESULT:      -6.1      2.659      8.513
  Name = 
  14 active torsions:
  status: ('A' for Active; 'I' for Inactive)
    1  A    between atoms: C_4  and  C_6
    2  A    between atoms: C_4  and  C_30
    3  A    between atoms: C_10  and  C_23
    4  A    between atoms: C_13  and  O_27
    5  A    between atoms: C_15  and  O_27
    6  A    between atoms: C_15  and  C_31
    7  A    between atoms: C_15  and  C_40
    8  A    between atoms: C_19  and  O_41
    9  A    between atoms: C_24  and  C_25
   10  A    between atoms: C_24  and  C_37
   11  A    between atoms: C_25  and  O_41
   12  A    between atoms: O_29  and  C_34
   13  A    between atoms: C_30  and  C_34
   14  A    between atoms: C_31  and  C_36
                            x       y       z     vdW  Elec       q    Type
                         _______ _______ _______ _____ _____    ______ ____

>  <TORSDO>
F 14

$$$$
