=
 OpenBabel11062421003D

 38 41  0  0  1  0  0  0  0  0999 V2000
  187.2250  176.6520  146.3840 C   0  0  0  0  0  3  0  0  0  0  0  0
  184.7260  178.3420  144.0880 C   0  0  2  0  0  3  0  0  0  0  0  0
  189.2630  176.1850  145.1360 C   0  0  0  0  0  0  0  0  0  0  0  0
  186.5590  177.0040  145.2020 C   0  0  0  0  0  0  0  0  0  0  0  0
  188.5800  176.4980  143.9510 C   0  0  0  0  0  3  0  0  0  0  0  0
  186.3910  177.1770  140.2850 C   0  0  0  0  0  3  0  0  0  0  0  0
  185.2740  177.8800  142.7610 C   0  0  0  0  0  0  0  0  0  0  0  0
  186.5270  177.2300  142.7090 C   0  0  0  0  0  0  0  0  0  0  0  0
  184.5920  178.1810  141.5680 C   0  0  0  0  0  0  0  0  0  0  0  0
  187.2370  176.9030  143.9700 C   0  0  0  0  0  0  0  0  0  0  0  0
  184.5890  177.8710  146.5570 C   0  0  0  0  0  1  0  0  0  0  0  0
  187.0750  176.8830  141.4660 C   0  0  0  0  0  3  0  0  0  0  0  0
  185.1550  177.8230  140.3380 C   0  0  0  0  0  3  0  0  0  0  0  0
  188.5640  176.2550  146.3510 C   0  0  0  0  0  3  0  0  0  0  0  0
  185.2250  179.6180  144.3720 O   0  0  0  0  0  1  0  0  0  0  0  0
  185.0850  177.3560  145.2100 C   0  0  1  0  0  3  0  0  0  0  0  0
  191.4800  177.7760  144.2370 O   0  0  0  0  0  0  0  0  0  0  0  0
  191.6980  176.5770  144.5560 C   0  0  0  0  0  0  0  0  0  0  0  0
  190.6450  175.7590  145.1130 N   0  0  0  0  0  0  0  0  0  0  0  0
  190.9860  174.4490  145.6650 C   0  0  0  0  0  2  0  0  0  0  0  0
  190.3220  173.3530  144.8530 C   0  0  0  0  0  1  0  0  0  0  0  0
  193.0840  176.0400  144.3770 C   0  0  0  0  0  2  0  0  0  0  0  0
  193.5000  176.7160  146.6070 O   0  0  0  0  0  1  0  0  0  0  0  0
  194.0600  176.7230  145.3270 C   0  0  1  0  0  3  0  0  0  0  0  0
  195.2830  174.6130  145.9340 C   0  0  0  0  0  2  0  0  0  0  0  0
  197.6720  174.7060  142.4870 O   0  0  0  0  0  1  0  0  0  0  0  0
  196.6610  173.9740  146.0180 C   0  0  0  0  0  2  0  0  0  0  0  0
  197.2870  173.9120  144.6600 C   0  0  0  0  0  3  0  0  0  0  0  0
  196.0170  175.9250  143.9080 C   0  0  1  0  0  3  0  0  0  0  0  0
  197.0300  174.8190  143.7130 C   0  0  0  0  0  0  0  0  0  0  0  0
  195.4220  176.0100  145.3300 C   0  0  1  0  0  3  0  0  0  0  0  0
  196.6000  177.1480  143.5690 O   0  0  0  0  0  1  0  0  0  0  0  0
  183.3350  178.8680  141.6100 N   0  0  0  0  0  2  0  0  0  0  0  0
  182.1600  178.2030  141.7370 O   0  0  0  0  0  0  0  0  0  0  0  0
  181.4100  178.5830  140.6210 C   0  0  0  0  0  2  0  0  0  0  0  0
  180.0830  180.7150  140.4010 N   0  0  0  0  0  1  0  0  0  0  0  0
  180.2900  179.4650  141.0480 C   0  0  0  0  0  0  0  0  0  0  0  0
  179.5470  179.1220  142.0040 O   0  0  0  0  0  0  0  0  0  0  0  0
  2 15  1  1  0  0  0
  2 16  1  0  0  0  0
  3 14  2  0  0  0  0
  4 16  1  0  0  0  0
  4  1  2  0  0  0  0
  5 10  2  0  0  0  0
  5  3  1  0  0  0  0
  6 13  2  0  0  0  0
  6 12  1  0  0  0  0
  7  2  1  0  0  0  0
  8  7  1  0  0  0  0
  8 10  1  0  0  0  0
  9 33  1  0  0  0  0
  9  7  2  0  0  0  0
 10  4  1  0  0  0  0
 12  8  2  0  0  0  0
 13  9  1  0  0  0  0
 14  1  1  0  0  0  0
 16 11  1  1  0  0  0
 17 18  2  0  0  0  0
 18 19  1  0  0  0  0
 19  3  1  0  0  0  0
 19 20  1  0  0  0  0
 21 20  1  0  0  0  0
 22 18  1  0  0  0  0
 22 24  1  0  0  0  0
 24 23  1  1  0  0  0
 25 27  1  0  0  0  0
 26 30  1  0  0  0  0
 28 27  1  0  0  0  0
 29 32  1  1  0  0  0
 29 31  1  0  0  0  0
 30 29  1  0  0  0  0
 30 28  2  0  0  0  0
 31 24  1  6  0  0  0
 31 25  1  0  0  0  0
 33 34  1  0  0  0  0
 35 37  1  0  0  0  0
 35 34  1  0  0  0  0
 36 37  1  0  0  0  0
 37 38  2  0  0  0  0
M  END
>  <MODEL>
1

>  <REMARK>
 VINA RESULT:      -8.6      0.000      0.000
  Name = 
  9 active torsions:
  status: ('A' for Active; 'I' for Inactive)
    1  A    between atoms: O_3  and  C_4
    2  A    between atoms: O_3  and  N_29
    3  A    between atoms: C_4  and  C_12
    4  A    between atoms: C_7  and  C_20
    5  A    between atoms: C_7  and  C_25
    6  A    between atoms: C_11  and  N_33
    7  A    between atoms: C_13  and  N_33
    8  A    between atoms: C_20  and  C_34
    9  A    between atoms: C_21  and  N_29
                            x       y       z     vdW  Elec       q    Type
                         _______ _______ _______ _____ _____    ______ ____

>  <TORSDO>
F 9

$$$$
=
 OpenBabel11062421003D

 38 41  0  0  1  0  0  0  0  0999 V2000
  186.9980  177.2150  146.6360 C   0  0  0  0  0  3  0  0  0  0  0  0
  184.7110  178.5200  143.9090 C   0  0  2  0  0  3  0  0  0  0  0  0
  189.2190  176.8540  145.7070 C   0  0  0  0  0  0  0  0  0  0  0  0
  186.4740  177.4290  145.3540 C   0  0  0  0  0  0  0  0  0  0  0  0
  188.6830  177.0260  144.4230 C   0  0  0  0  0  3  0  0  0  0  0  0
  186.9710  177.2650  140.4590 C   0  0  0  0  0  3  0  0  0  0  0  0
  185.4710  178.0240  142.7050 C   0  0  0  0  0  0  0  0  0  0  0  0
  186.7680  177.4880  142.8680 C   0  0  0  0  0  0  0  0  0  0  0  0
  184.9380  178.1840  141.4140 C   0  0  0  0  0  0  0  0  0  0  0  0
  187.3220  177.3080  144.2330 C   0  0  0  0  0  0  0  0  0  0  0  0
  184.2730  178.2000  146.3670 C   0  0  0  0  0  1  0  0  0  0  0  0
  187.5080  177.1110  141.7380 C   0  0  0  0  0  3  0  0  0  0  0  0
  185.6920  177.7990  140.2990 C   0  0  0  0  0  3  0  0  0  0  0  0
  188.3560  176.9400  146.8110 C   0  0  0  0  0  3  0  0  0  0  0  0
  185.0610  179.8510  144.1580 O   0  0  0  0  0  1  0  0  0  0  0  0
  184.9900  177.6450  145.1400 C   0  0  1  0  0  3  0  0  0  0  0  0
  191.3580  177.7380  144.0050 O   0  0  0  0  0  0  0  0  0  0  0  0
  191.6350  176.9500  144.9480 C   0  0  0  0  0  0  0  0  0  0  0  0
  190.6210  176.5540  145.8990 N   0  0  0  0  0  0  0  0  0  0  0  0
  191.0240  175.8150  147.0940 C   0  0  0  0  0  2  0  0  0  0  0  0
  191.4200  176.7800  148.1950 C   0  0  0  0  0  1  0  0  0  0  0  0
  193.0460  176.4690  145.0760 C   0  0  0  0  0  2  0  0  0  0  0  0
  192.0280  174.8050  143.7350 O   0  0  0  0  0  1  0  0  0  0  0  0
  193.2420  175.1540  144.3310 C   0  0  1  0  0  3  0  0  0  0  0  0
  193.8190  176.0150  142.0410 C   0  0  0  0  0  2  0  0  0  0  0  0
  197.6610  177.2440  143.1940 O   0  0  0  0  0  1  0  0  0  0  0  0
  194.9010  176.0300  140.9720 C   0  0  0  0  0  2  0  0  0  0  0  0
  196.1410  176.6830  141.4980 C   0  0  0  0  0  3  0  0  0  0  0  0
  195.5940  175.9940  143.8340 C   0  0  1  0  0  3  0  0  0  0  0  0
  196.4810  176.6350  142.7900 C   0  0  0  0  0  0  0  0  0  0  0  0
  194.3480  175.2770  143.2700 C   0  0  1  0  0  3  0  0  0  0  0  0
  196.3490  175.0980  144.5930 O   0  0  0  0  0  1  0  0  0  0  0  0
  183.6360  178.7560  141.2370 N   0  0  0  0  0  2  0  0  0  0  0  0
  182.6750  178.1360  140.5090 O   0  0  0  0  0  0  0  0  0  0  0  0
  181.5230  178.2130  141.2960 C   0  0  0  0  0  2  0  0  0  0  0  0
  180.1550  180.1990  140.5620 N   0  0  0  0  0  1  0  0  0  0  0  0
  180.4120  178.8010  140.5000 C   0  0  0  0  0  0  0  0  0  0  0  0
  179.6770  178.0580  139.7990 O   0  0  0  0  0  0  0  0  0  0  0  0
  1 14  1  0  0  0  0
  2 15  1  1  0  0  0
  2 16  1  0  0  0  0
  3 19  1  0  0  0  0
  3 14  2  0  0  0  0
  4  1  2  0  0  0  0
  5  3  1  0  0  0  0
  6 12  1  0  0  0  0
  7  8  1  0  0  0  0
  7  2  1  0  0  0  0
  8 10  1  0  0  0  0
  9  7  2  0  0  0  0
 10  5  2  0  0  0  0
 10  4  1  0  0  0  0
 12  8  2  0  0  0  0
 13  6  2  0  0  0  0
 13  9  1  0  0  0  0
 16  4  1  0  0  0  0
 16 11  1  1  0  0  0
 17 18  2  0  0  0  0
 18 22  1  0  0  0  0
 18 19  1  0  0  0  0
 19 20  1  0  0  0  0
 20 21  1  0  0  0  0
 24 23  1  6  0  0  0
 24 22  1  0  0  0  0
 25 31  1  0  0  0  0
 27 28  1  0  0  0  0
 27 25  1  0  0  0  0
 28 30  2  0  0  0  0
 29 32  1  6  0  0  0
 30 26  1  0  0  0  0
 30 29  1  0  0  0  0
 31 29  1  0  0  0  0
 31 24  1  1  0  0  0
 33  9  1  0  0  0  0
 34 33  1  0  0  0  0
 34 35  1  0  0  0  0
 37 36  1  0  0  0  0
 37 35  1  0  0  0  0
 38 37  2  0  0  0  0
M  END
>  <MODEL>
2

>  <REMARK>
 VINA RESULT:      -8.4      1.483      2.032
  Name = 
  9 active torsions:
  status: ('A' for Active; 'I' for Inactive)
    1  A    between atoms: O_3  and  C_4
    2  A    between atoms: O_3  and  N_29
    3  A    between atoms: C_4  and  C_12
    4  A    between atoms: C_7  and  C_20
    5  A    between atoms: C_7  and  C_25
    6  A    between atoms: C_11  and  N_33
    7  A    between atoms: C_13  and  N_33
    8  A    between atoms: C_20  and  C_34
    9  A    between atoms: C_21  and  N_29
                            x       y       z     vdW  Elec       q    Type
                         _______ _______ _______ _____ _____    ______ ____

>  <TORSDO>
F 9

$$$$
=
 OpenBabel11062421003D

 38 41  0  0  1  0  0  0  0  0999 V2000
  187.1810  176.5380  146.4670 C   0  0  0  0  0  3  0  0  0  0  0  0
  184.8480  178.2170  143.9950 C   0  0  2  0  0  3  0  0  0  0  0  0
  189.3170  176.1100  145.3800 C   0  0  0  0  0  0  0  0  0  0  0  0
  186.6050  176.8930  145.2390 C   0  0  0  0  0  0  0  0  0  0  0  0
  188.7260  176.4250  144.1480 C   0  0  0  0  0  3  0  0  0  0  0  0
  186.8230  177.1120  140.3260 C   0  0  0  0  0  3  0  0  0  0  0  0
  185.5050  177.7760  142.7120 C   0  0  0  0  0  0  0  0  0  0  0  0
  186.7670  177.1430  142.7540 C   0  0  0  0  0  0  0  0  0  0  0  0
  184.9150  178.0800  141.4720 C   0  0  0  0  0  0  0  0  0  0  0  0
  187.3800  176.8120  144.0640 C   0  0  0  0  0  0  0  0  0  0  0  0
  184.5220  177.7200  146.4420 C   0  0  0  0  0  1  0  0  0  0  0  0
  187.4160  176.8150  141.5540 C   0  0  0  0  0  3  0  0  0  0  0  0
  185.5780  177.7420  140.2870 C   0  0  0  0  0  3  0  0  0  0  0  0
  188.5240  176.1590  146.5360 C   0  0  0  0  0  3  0  0  0  0  0  0
  185.3050  179.4970  144.3300 O   0  0  0  0  0  1  0  0  0  0  0  0
  185.1300  177.2250  145.1340 C   0  0  1  0  0  3  0  0  0  0  0  0
  190.2830  173.4220  145.0640 O   0  0  0  0  0  0  0  0  0  0  0  0
  191.1080  174.3160  145.3900 C   0  0  0  0  0  0  0  0  0  0  0  0
  190.7030  175.7020  145.4620 N   0  0  0  0  0  0  0  0  0  0  0  0
  191.7280  176.7290  145.6340 C   0  0  0  0  0  2  0  0  0  0  0  0
  192.1190  177.3050  144.2860 C   0  0  0  0  0  1  0  0  0  0  0  0
  192.5220  173.9080  145.6620 C   0  0  0  0  0  2  0  0  0  0  0  0
  192.8780  174.0940  143.3290 O   0  0  0  0  0  1  0  0  0  0  0  0
  193.1530  173.2760  144.4270 C   0  0  1  0  0  3  0  0  0  0  0  0
  195.2200  174.2040  145.5130 C   0  0  0  0  0  2  0  0  0  0  0  0
  196.7850  170.4050  146.3630 O   0  0  0  0  0  1  0  0  0  0  0  0
  196.7330  174.0690  145.5880 C   0  0  0  0  0  2  0  0  0  0  0  0
  197.1090  172.7130  146.0990 C   0  0  0  0  0  3  0  0  0  0  0  0
  195.0170  171.7120  145.1750 C   0  0  1  0  0  3  0  0  0  0  0  0
  196.3540  171.6320  145.8780 C   0  0  0  0  0  0  0  0  0  0  0  0
  194.6700  173.1040  144.6060 C   0  0  1  0  0  3  0  0  0  0  0  0
  194.9790  170.7630  144.1510 O   0  0  0  0  0  1  0  0  0  0  0  0
  183.6490  178.7490  141.4210 N   0  0  0  0  0  2  0  0  0  0  0  0
  182.6790  178.3810  140.5490 O   0  0  0  0  0  0  0  0  0  0  0  0
  181.5130  178.3120  141.3160 C   0  0  0  0  0  2  0  0  0  0  0  0
  180.1720  180.3070  140.5560 N   0  0  0  0  0  1  0  0  0  0  0  0
  180.3780  178.8990  140.5540 C   0  0  0  0  0  0  0  0  0  0  0  0
  179.5780  178.1480  139.9370 O   0  0  0  0  0  0  0  0  0  0  0  0
  1 14  1  0  0  0  0
  2 15  1  1  0  0  0
  2 16  1  0  0  0  0
  3 19  1  0  0  0  0
  3 14  2  0  0  0  0
  4  1  2  0  0  0  0
  5  3  1  0  0  0  0
  6 12  1  0  0  0  0
  7  8  1  0  0  0  0
  7  2  1  0  0  0  0
  8 10  1  0  0  0  0
  9  7  2  0  0  0  0
 10  5  2  0  0  0  0
 10  4  1  0  0  0  0
 12  8  2  0  0  0  0
 13  6  2  0  0  0  0
 13  9  1  0  0  0  0
 16  4  1  0  0  0  0
 16 11  1  1  0  0  0
 17 18  2  0  0  0  0
 18 19  1  0  0  0  0
 18 22  1  0  0  0  0
 19 20  1  0  0  0  0
 21 20  1  0  0  0  0
 24 23  1  6  0  0  0
 24 22  1  0  0  0  0
 25 27  1  0  0  0  0
 27 28  1  0  0  0  0
 29 32  1  6  0  0  0
 29 30  1  0  0  0  0
 30 28  2  0  0  0  0
 30 26  1  0  0  0  0
 31 24  1  1  0  0  0
 31 29  1  0  0  0  0
 31 25  1  0  0  0  0
 33  9  1  0  0  0  0
 34 35  1  0  0  0  0
 34 33  1  0  0  0  0
 37 36  1  0  0  0  0
 37 35  1  0  0  0  0
 38 37  2  0  0  0  0
M  END
>  <MODEL>
3

>  <REMARK>
 VINA RESULT:      -8.3      1.921      2.445
  Name = 
  9 active torsions:
  status: ('A' for Active; 'I' for Inactive)
    1  A    between atoms: O_3  and  C_4
    2  A    between atoms: O_3  and  N_29
    3  A    between atoms: C_4  and  C_12
    4  A    between atoms: C_7  and  C_20
    5  A    between atoms: C_7  and  C_25
    6  A    between atoms: C_11  and  N_33
    7  A    between atoms: C_13  and  N_33
    8  A    between atoms: C_20  and  C_34
    9  A    between atoms: C_21  and  N_29
                            x       y       z     vdW  Elec       q    Type
                         _______ _______ _______ _____ _____    ______ ____

>  <TORSDO>
F 9

$$$$
=
 OpenBabel11062421003D

 38 41  0  0  1  0  0  0  0  0999 V2000
  187.1010  177.0650  146.4780 C   0  0  0  0  0  3  0  0  0  0  0  0
  184.7530  178.4550  143.8460 C   0  0  2  0  0  3  0  0  0  0  0  0
  189.2790  176.6620  145.4680 C   0  0  0  0  0  0  0  0  0  0  0  0
  186.5390  177.3060  145.2170 C   0  0  0  0  0  0  0  0  0  0  0  0
  188.7040  176.8620  144.2050 C   0  0  0  0  0  3  0  0  0  0  0  0
  186.8630  177.1890  140.3060 C   0  0  0  0  0  3  0  0  0  0  0  0
  185.4600  177.9560  142.6110 C   0  0  0  0  0  0  0  0  0  0  0  0
  186.7480  177.3880  142.7230 C   0  0  0  0  0  0  0  0  0  0  0  0
  184.8860  178.1440  141.3410 C   0  0  0  0  0  0  0  0  0  0  0  0
  187.3440  177.1790  144.0660 C   0  0  0  0  0  0  0  0  0  0  0  0
  184.3930  178.1170  146.3140 C   0  0  0  0  0  1  0  0  0  0  0  0
  187.4390  177.0070  141.5640 C   0  0  0  0  0  3  0  0  0  0  0  0
  185.5920  177.7550  140.1960 C   0  0  0  0  0  3  0  0  0  0  0  0
  188.4580  176.7550  146.6020 C   0  0  0  0  0  3  0  0  0  0  0  0
  185.1440  179.7750  144.0970 O   0  0  0  0  0  1  0  0  0  0  0  0
  185.0540  177.5600  145.0570 C   0  0  1  0  0  3  0  0  0  0  0  0
  190.3110  174.0610  146.1190 O   0  0  0  0  0  0  0  0  0  0  0  0
  191.1240  175.0190  146.0330 C   0  0  0  0  0  0  0  0  0  0  0  0
  190.6800  176.3270  145.6070 N   0  0  0  0  0  0  0  0  0  0  0  0
  191.6800  177.3520  145.3160 C   0  0  0  0  0  2  0  0  0  0  0  0
  191.8960  177.4580  143.8180 C   0  0  0  0  0  1  0  0  0  0  0  0
  192.5630  174.7540  146.3470 C   0  0  0  0  0  2  0  0  0  0  0  0
  192.9730  174.2430  144.0720 O   0  0  0  0  0  1  0  0  0  0  0  0
  193.1580  173.7510  145.3660 C   0  0  1  0  0  3  0  0  0  0  0  0
  195.0010  172.0440  145.4540 C   0  0  0  0  0  2  0  0  0  0  0  0
  197.8440  174.6560  143.8110 O   0  0  0  0  0  1  0  0  0  0  0  0
  196.4570  171.8280  145.8390 C   0  0  0  0  0  2  0  0  0  0  0  0
  197.3470  172.7030  145.0120 C   0  0  0  0  0  3  0  0  0  0  0  0
  195.5400  174.4050  144.7470 C   0  0  1  0  0  3  0  0  0  0  0  0
  196.9490  173.8930  144.5490 C   0  0  0  0  0  0  0  0  0  0  0  0
  194.6520  173.5190  145.6470 C   0  0  1  0  0  3  0  0  0  0  0  0
  195.5900  175.7010  145.2650 O   0  0  0  0  0  1  0  0  0  0  0  0
  183.5930  178.7480  141.2160 N   0  0  0  0  0  2  0  0  0  0  0  0
  182.6100  178.1880  140.4690 O   0  0  0  0  0  0  0  0  0  0  0  0
  181.4850  178.1870  141.2980 C   0  0  0  0  0  2  0  0  0  0  0  0
  179.3030  178.2350  140.0370 N   0  0  0  0  0  1  0  0  0  0  0  0
  180.3810  178.9390  140.6430 C   0  0  0  0  0  0  0  0  0  0  0  0
  180.4170  180.1960  140.5920 O   0  0  0  0  0  0  0  0  0  0  0  0
  1 14  1  0  0  0  0
  2 15  1  1  0  0  0
  2 16  1  0  0  0  0
  3 19  1  0  0  0  0
  3 14  2  0  0  0  0
  4  1  2  0  0  0  0
  5  3  1  0  0  0  0
  6 12  1  0  0  0  0
  7  8  1  0  0  0  0
  7  2  1  0  0  0  0
  8 10  1  0  0  0  0
  9  7  2  0  0  0  0
 10  5  2  0  0  0  0
 10  4  1  0  0  0  0
 12  8  2  0  0  0  0
 13  6  2  0  0  0  0
 13  9  1  0  0  0  0
 16  4  1  0  0  0  0
 16 11  1  1  0  0  0
 18 17  2  0  0  0  0
 18 22  1  0  0  0  0
 19 18  1  0  0  0  0
 20 19  1  0  0  0  0
 21 20  1  0  0  0  0
 24 23  1  6  0  0  0
 24 22  1  0  0  0  0
 25 31  1  0  0  0  0
 25 27  1  0  0  0  0
 26 30  1  0  0  0  0
 28 27  1  0  0  0  0
 29 32  1  1  0  0  0
 29 31  1  0  0  0  0
 30 29  1  0  0  0  0
 30 28  2  0  0  0  0
 31 24  1  6  0  0  0
 33  9  1  0  0  0  0
 34 33  1  0  0  0  0
 34 35  1  0  0  0  0
 36 37  1  0  0  0  0
 37 35  1  0  0  0  0
 38 37  2  0  0  0  0
M  END
>  <MODEL>
4

>  <REMARK>
 VINA RESULT:      -8.2      1.476      1.857
  Name = 
  9 active torsions:
  status: ('A' for Active; 'I' for Inactive)
    1  A    between atoms: O_3  and  C_4
    2  A    between atoms: O_3  and  N_29
    3  A    between atoms: C_4  and  C_12
    4  A    between atoms: C_7  and  C_20
    5  A    between atoms: C_7  and  C_25
    6  A    between atoms: C_11  and  N_33
    7  A    between atoms: C_13  and  N_33
    8  A    between atoms: C_20  and  C_34
    9  A    between atoms: C_21  and  N_29
                            x       y       z     vdW  Elec       q    Type
                         _______ _______ _______ _____ _____    ______ ____

>  <TORSDO>
F 9

$$$$
=
 OpenBabel11062421003D

 38 41  0  0  1  0  0  0  0  0999 V2000
  194.8330  175.8740  144.3080 C   0  0  0  0  0  3  0  0  0  0  0  0
  196.1370  172.3390  144.7320 C   0  0  2  0  0  3  0  0  0  0  0  0
  192.4070  175.8560  144.5090 C   0  0  0  0  0  0  0  0  0  0  0  0
  194.8610  174.4730  144.2760 C   0  0  0  0  0  0  0  0  0  0  0  0
  192.4350  174.4560  144.4340 C   0  0  0  0  0  3  0  0  0  0  0  0
  192.5070  170.1650  143.9070 C   0  0  0  0  0  3  0  0  0  0  0  0
  194.8830  171.5810  144.3810 C   0  0  0  0  0  0  0  0  0  0  0  0
  193.6620  172.2760  144.2370 C   0  0  0  0  0  0  0  0  0  0  0  0
  194.9030  170.1770  144.2950 C   0  0  0  0  0  0  0  0  0  0  0  0
  193.6460  173.7570  144.3150 C   0  0  0  0  0  0  0  0  0  0  0  0
  197.3950  174.5050  144.4800 C   0  0  0  0  0  1  0  0  0  0  0  0
  192.4810  171.5570  144.0000 C   0  0  0  0  0  3  0  0  0  0  0  0
  193.7130  169.4790  144.0550 C   0  0  0  0  0  3  0  0  0  0  0  0
  193.6210  176.5570  144.4320 C   0  0  0  0  0  3  0  0  0  0  0  0
  196.2240  172.4660  146.1230 O   0  0  0  0  0  1  0  0  0  0  0  0
  196.1580  173.7200  144.0590 C   0  0  1  0  0  3  0  0  0  0  0  0
  191.1000  176.5440  146.9740 O   0  0  0  0  0  0  0  0  0  0  0  0
  190.5060  176.8020  145.8940 C   0  0  0  0  0  0  0  0  0  0  0  0
  191.1560  176.5750  144.6230 N   0  0  0  0  0  0  0  0  0  0  0  0
  190.5240  177.0800  143.4050 C   0  0  0  0  0  2  0  0  0  0  0  0
  189.8630  175.9430  142.6500 C   0  0  0  0  0  1  0  0  0  0  0  0
  189.1290  177.3820  145.9650 C   0  0  0  0  0  2  0  0  0  0  0  0
  188.0670  175.6360  147.1610 O   0  0  0  0  0  1  0  0  0  0  0  0
  188.0730  176.2830  145.9240 C   0  0  1  0  0  3  0  0  0  0  0  0
  185.9440  177.1880  146.9070 C   0  0  0  0  0  2  0  0  0  0  0  0
  185.5580  180.1650  143.9750 O   0  0  0  0  0  1  0  0  0  0  0  0
  184.5390  177.6600  146.5680 C   0  0  0  0  0  2  0  0  0  0  0  0
  184.5960  178.8540  145.6660 C   0  0  0  0  0  3  0  0  0  0  0  0
  186.7830  178.1160  144.7160 C   0  0  1  0  0  3  0  0  0  0  0  0
  185.5920  179.0440  144.7950 C   0  0  0  0  0  0  0  0  0  0  0  0
  186.6840  176.8610  145.6100 C   0  0  1  0  0  3  0  0  0  0  0  0
  186.9800  177.7330  143.3880 O   0  0  0  0  0  1  0  0  0  0  0  0
  196.1320  169.4620  144.4700 N   0  0  0  0  0  2  0  0  0  0  0  0
  196.2020  168.3290  145.2100 O   0  0  0  0  0  0  0  0  0  0  0  0
  197.1060  168.6230  146.2340 C   0  0  0  0  0  2  0  0  0  0  0  0
  195.0480  168.4160  147.6750 N   0  0  0  0  0  1  0  0  0  0  0  0
  196.4650  168.3760  147.5540 C   0  0  0  0  0  0  0  0  0  0  0  0
  197.1760  168.1670  148.5710 O   0  0  0  0  0  0  0  0  0  0  0  0
  1 14  1  0  0  0  0
  2 15  1  1  0  0  0
  3 19  1  0  0  0  0
  4  1  2  0  0  0  0
  4 10  1  0  0  0  0
  5  3  1  0  0  0  0
  6 12  2  0  0  0  0
  6 13  1  0  0  0  0
  7  2  1  0  0  0  0
  8 10  1  0  0  0  0
  8  7  2  0  0  0  0
  9  7  1  0  0  0  0
  9 33  1  0  0  0  0
 10  5  2  0  0  0  0
 12  8  1  0  0  0  0
 13  9  2  0  0  0  0
 14  3  2  0  0  0  0
 16  4  1  0  0  0  0
 16 11  1  1  0  0  0
 16  2  1  0  0  0  0
 18 22  1  0  0  0  0
 18 17  2  0  0  0  0
 19 18  1  0  0  0  0
 20 19  1  0  0  0  0
 21 20  1  0  0  0  0
 24 22  1  0  0  0  0
 24 23  1  1  0  0  0
 26 30  1  0  0  0  0
 27 25  1  0  0  0  0
 28 27  1  0  0  0  0
 29 32  1  6  0  0  0
 29 30  1  0  0  0  0
 29 31  1  0  0  0  0
 30 28  2  0  0  0  0
 31 24  1  1  0  0  0
 31 25  1  0  0  0  0
 33 34  1  0  0  0  0
 34 35  1  0  0  0  0
 35 37  1  0  0  0  0
 37 36  1  0  0  0  0
 37 38  2  0  0  0  0
M  END
>  <MODEL>
5

>  <REMARK>
 VINA RESULT:      -7.5      3.787     11.526
  Name = 
  9 active torsions:
  status: ('A' for Active; 'I' for Inactive)
    1  A    between atoms: O_3  and  C_4
    2  A    between atoms: O_3  and  N_29
    3  A    between atoms: C_4  and  C_12
    4  A    between atoms: C_7  and  C_20
    5  A    between atoms: C_7  and  C_25
    6  A    between atoms: C_11  and  N_33
    7  A    between atoms: C_13  and  N_33
    8  A    between atoms: C_20  and  C_34
    9  A    between atoms: C_21  and  N_29
                            x       y       z     vdW  Elec       q    Type
                         _______ _______ _______ _____ _____    ______ ____

>  <TORSDO>
F 9

$$$$
=
 OpenBabel11062421003D

 38 41  0  0  1  0  0  0  0  0999 V2000
  190.5740  175.5310  147.2850 C   0  0  0  0  0  3  0  0  0  0  0  0
  187.6390  176.5430  145.1090 C   0  0  2  0  0  3  0  0  0  0  0  0
  192.5230  175.1670  145.8730 C   0  0  0  0  0  0  0  0  0  0  0  0
  189.7490  175.6260  146.1560 C   0  0  0  0  0  0  0  0  0  0  0  0
  191.6880  175.2200  144.7480 C   0  0  0  0  0  3  0  0  0  0  0  0
  189.0690  175.0910  141.3100 C   0  0  0  0  0  3  0  0  0  0  0  0
  188.1140  175.9780  143.7950 C   0  0  0  0  0  0  0  0  0  0  0  0
  189.4360  175.4970  143.6760 C   0  0  0  0  0  0  0  0  0  0  0  0
  187.2790  176.0190  142.6630 C   0  0  0  0  0  0  0  0  0  0  0  0
  190.3090  175.4440  144.8750 C   0  0  0  0  0  0  0  0  0  0  0  0
  187.8180  176.4060  147.6160 C   0  0  0  0  0  1  0  0  0  0  0  0
  189.9020  175.0560  142.4290 C   0  0  0  0  0  3  0  0  0  0  0  0
  187.7640  175.5700  141.4280 C   0  0  0  0  0  3  0  0  0  0  0  0
  191.9470  175.3130  147.1440 C   0  0  0  0  0  3  0  0  0  0  0  0
  187.9730  177.9010  145.1730 O   0  0  0  0  0  1  0  0  0  0  0  0
  188.2480  175.7780  146.2940 C   0  0  1  0  0  3  0  0  0  0  0  0
  193.7620  172.5840  145.6510 O   0  0  0  0  0  0  0  0  0  0  0  0
  194.5070  173.5960  145.7310 C   0  0  0  0  0  0  0  0  0  0  0  0
  193.9440  174.9280  145.7400 N   0  0  0  0  0  0  0  0  0  0  0  0
  194.8420  176.0750  145.6190 C   0  0  0  0  0  2  0  0  0  0  0  0
  195.0690  176.4070  144.1570 C   0  0  0  0  0  1  0  0  0  0  0  0
  195.9870  173.3820  145.7780 C   0  0  0  0  0  2  0  0  0  0  0  0
  197.6060  173.6360  144.0700 O   0  0  0  0  0  1  0  0  0  0  0  0
  196.5050  172.8630  144.4420 C   0  0  1  0  0  3  0  0  0  0  0  0
  196.7970  170.9010  145.9860 C   0  0  0  0  0  2  0  0  0  0  0  0
  195.2200  168.1670  143.2210 O   0  0  0  0  0  1  0  0  0  0  0  0
  197.2860  169.4630  146.0640 C   0  0  0  0  0  2  0  0  0  0  0  0
  196.4790  168.5900  145.1550 C   0  0  0  0  0  3  0  0  0  0  0  0
  196.0130  170.5030  143.6210 C   0  0  1  0  0  3  0  0  0  0  0  0
  195.9330  169.0480  144.0240 C   0  0  0  0  0  0  0  0  0  0  0  0
  196.8950  171.3790  144.5370 C   0  0  1  0  0  3  0  0  0  0  0  0
  196.4700  170.5920  142.3040 O   0  0  0  0  0  1  0  0  0  0  0  0
  185.9470  176.5330  142.7670 N   0  0  0  0  0  2  0  0  0  0  0  0
  185.6470  177.8150  142.4470 O   0  0  0  0  0  0  0  0  0  0  0  0
  184.4510  178.0840  143.1190 C   0  0  0  0  0  2  0  0  0  0  0  0
  184.0270  178.9030  145.4660 N   0  0  0  0  0  1  0  0  0  0  0  0
  184.7050  179.0490  144.2230 C   0  0  0  0  0  0  0  0  0  0  0  0
  185.4920  180.0150  144.0480 O   0  0  0  0  0  0  0  0  0  0  0  0
  2 15  1  1  0  0  0
  2 16  1  0  0  0  0
  3 14  2  0  0  0  0
  4 16  1  0  0  0  0
  4  1  2  0  0  0  0
  5 10  2  0  0  0  0
  5  3  1  0  0  0  0
  6 13  2  0  0  0  0
  6 12  1  0  0  0  0
  7  2  1  0  0  0  0
  8  7  1  0  0  0  0
  8 10  1  0  0  0  0
  9 33  1  0  0  0  0
  9  7  2  0  0  0  0
 10  4  1  0  0  0  0
 12  8  2  0  0  0  0
 13  9  1  0  0  0  0
 14  1  1  0  0  0  0
 16 11  1  1  0  0  0
 17 18  2  0  0  0  0
 18 19  1  0  0  0  0
 18 22  1  0  0  0  0
 19  3  1  0  0  0  0
 20 19  1  0  0  0  0
 21 20  1  0  0  0  0
 24 23  1  1  0  0  0
 24 22  1  0  0  0  0
 25 27  1  0  0  0  0
 26 30  1  0  0  0  0
 28 27  1  0  0  0  0
 29 32  1  6  0  0  0
 29 30  1  0  0  0  0
 29 31  1  0  0  0  0
 30 28  2  0  0  0  0
 31 24  1  1  0  0  0
 31 25  1  0  0  0  0
 34 33  1  0  0  0  0
 34 35  1  0  0  0  0
 35 37  1  0  0  0  0
 37 36  1  0  0  0  0
 38 37  2  0  0  0  0
M  END
>  <MODEL>
6

>  <REMARK>
 VINA RESULT:      -7.2      2.819      4.572
  Name = 
  9 active torsions:
  status: ('A' for Active; 'I' for Inactive)
    1  A    between atoms: O_3  and  C_4
    2  A    between atoms: O_3  and  N_29
    3  A    between atoms: C_4  and  C_12
    4  A    between atoms: C_7  and  C_20
    5  A    between atoms: C_7  and  C_25
    6  A    between atoms: C_11  and  N_33
    7  A    between atoms: C_13  and  N_33
    8  A    between atoms: C_20  and  C_34
    9  A    between atoms: C_21  and  N_29
                            x       y       z     vdW  Elec       q    Type
                         _______ _______ _______ _____ _____    ______ ____

>  <TORSDO>
F 9

$$$$
=
 OpenBabel11062421003D

 38 41  0  0  1  0  0  0  0  0999 V2000
  193.9500  175.6020  145.6390 C   0  0  0  0  0  3  0  0  0  0  0  0
  194.7600  171.9990  144.7810 C   0  0  2  0  0  3  0  0  0  0  0  0
  191.5870  176.0090  145.2180 C   0  0  0  0  0  0  0  0  0  0  0  0
  193.8690  174.3540  145.0070 C   0  0  0  0  0  0  0  0  0  0  0  0
  191.5190  174.7780  144.5500 C   0  0  0  0  0  3  0  0  0  0  0  0
  191.3900  171.1250  142.2390 C   0  0  0  0  0  3  0  0  0  0  0  0
  193.6150  171.7170  143.8420 C   0  0  0  0  0  0  0  0  0  0  0  0
  192.5600  172.6490  143.7250 C   0  0  0  0  0  0  0  0  0  0  0  0
  193.5430  170.4890  143.1600 C   0  0  0  0  0  0  0  0  0  0  0  0
  192.6450  173.9480  144.4350 C   0  0  0  0  0  0  0  0  0  0  0  0
  196.2110  173.7790  145.8120 C   0  0  0  0  0  1  0  0  0  0  0  0
  191.4530  172.3420  142.9200 C   0  0  0  0  0  3  0  0  0  0  0  0
  192.4300  170.2040  142.3600 C   0  0  0  0  0  3  0  0  0  0  0  0
  192.8200  176.4160  145.7510 C   0  0  0  0  0  3  0  0  0  0  0  0
  194.4260  171.5480  146.0630 O   0  0  0  0  0  1  0  0  0  0  0  0
  195.1020  173.4970  144.8050 C   0  0  1  0  0  3  0  0  0  0  0  0
  189.6350  175.9090  147.3240 O   0  0  0  0  0  0  0  0  0  0  0  0
  189.4320  176.6960  146.3620 C   0  0  0  0  0  0  0  0  0  0  0  0
  190.4270  176.8660  145.3270 N   0  0  0  0  0  0  0  0  0  0  0  0
  190.2510  177.9370  144.3470 C   0  0  0  0  0  2  0  0  0  0  0  0
  189.7540  177.3650  143.0330 C   0  0  0  0  0  1  0  0  0  0  0  0
  188.1530  177.4730  146.3420 C   0  0  0  0  0  2  0  0  0  0  0  0
  186.5950  176.3170  147.6980 O   0  0  0  0  0  1  0  0  0  0  0  0
  186.9490  176.5400  146.3650 C   0  0  1  0  0  3  0  0  0  0  0  0
  185.3110  178.4420  146.2430 C   0  0  0  0  0  2  0  0  0  0  0  0
  185.4940  178.6630  142.0570 O   0  0  0  0  0  1  0  0  0  0  0  0
  184.0800  178.9570  145.5130 C   0  0  0  0  0  2  0  0  0  0  0  0
  184.3850  179.1650  144.0630 C   0  0  0  0  0  3  0  0  0  0  0  0
  186.1320  177.3820  144.1060 C   0  0  1  0  0  3  0  0  0  0  0  0
  185.2870  178.4250  143.4090 C   0  0  0  0  0  0  0  0  0  0  0  0
  185.7670  177.1400  145.5860 C   0  0  1  0  0  3  0  0  0  0  0  0
  186.0540  176.1800  143.4000 O   0  0  0  0  0  1  0  0  0  0  0  0
  194.5940  169.5250  143.2980 N   0  0  0  0  0  2  0  0  0  0  0  0
  194.5860  168.5920  144.2810 O   0  0  0  0  0  0  0  0  0  0  0  0
  195.9340  168.3640  144.5710 C   0  0  0  0  0  2  0  0  0  0  0  0
  195.1970  168.2110  146.9780 N   0  0  0  0  0  1  0  0  0  0  0  0
  196.1790  168.5940  146.0210 C   0  0  0  0  0  0  0  0  0  0  0  0
  197.2380  169.1580  146.4000 O   0  0  0  0  0  0  0  0  0  0  0  0
  1 14  1  0  0  0  0
  2 16  1  0  0  0  0
  2 15  1  1  0  0  0
  3 19  1  0  0  0  0
  3 14  2  0  0  0  0
  4  1  2  0  0  0  0
  5  3  1  0  0  0  0
  6 13  2  0  0  0  0
  6 12  1  0  0  0  0
  7  2  1  0  0  0  0
  8  7  1  0  0  0  0
  8 10  1  0  0  0  0
  9 33  1  0  0  0  0
  9  7  2  0  0  0  0
 10  5  2  0  0  0  0
 10  4  1  0  0  0  0
 12  8  2  0  0  0  0
 13  9  1  0  0  0  0
 16  4  1  0  0  0  0
 16 11  1  1  0  0  0
 18 17  2  0  0  0  0
 19 18  1  0  0  0  0
 20 19  1  0  0  0  0
 21 20  1  0  0  0  0
 22 18  1  0  0  0  0
 22 24  1  0  0  0  0
 24 23  1  1  0  0  0
 26 30  1  0  0  0  0
 27 25  1  0  0  0  0
 28 27  1  0  0  0  0
 29 32  1  6  0  0  0
 29 31  1  0  0  0  0
 30 28  2  0  0  0  0
 30 29  1  0  0  0  0
 31 25  1  0  0  0  0
 31 24  1  1  0  0  0
 33 34  1  0  0  0  0
 34 35  1  0  0  0  0
 35 37  1  0  0  0  0
 37 38  2  0  0  0  0
 37 36  1  0  0  0  0
M  END
>  <MODEL>
7

>  <REMARK>
 VINA RESULT:      -7.2      3.661     11.045
  Name = 
  9 active torsions:
  status: ('A' for Active; 'I' for Inactive)
    1  A    between atoms: O_3  and  C_4
    2  A    between atoms: O_3  and  N_29
    3  A    between atoms: C_4  and  C_12
    4  A    between atoms: C_7  and  C_20
    5  A    between atoms: C_7  and  C_25
    6  A    between atoms: C_11  and  N_33
    7  A    between atoms: C_13  and  N_33
    8  A    between atoms: C_20  and  C_34
    9  A    between atoms: C_21  and  N_29
                            x       y       z     vdW  Elec       q    Type
                         _______ _______ _______ _____ _____    ______ ____

>  <TORSDO>
F 9

$$$$
=
 OpenBabel11062421003D

 38 41  0  0  1  0  0  0  0  0999 V2000
  195.3040  175.7770  144.9400 C   0  0  0  0  0  3  0  0  0  0  0  0
  196.5810  172.2110  144.7700 C   0  0  2  0  0  3  0  0  0  0  0  0
  192.9090  175.7440  145.3730 C   0  0  0  0  0  0  0  0  0  0  0  0
  195.3040  174.3920  144.7230 C   0  0  0  0  0  0  0  0  0  0  0  0
  192.9050  174.3660  145.1150 C   0  0  0  0  0  3  0  0  0  0  0  0
  192.8510  170.1810  144.0280 C   0  0  0  0  0  3  0  0  0  0  0  0
  195.2850  171.5110  144.4480 C   0  0  0  0  0  0  0  0  0  0  0  0
  194.0680  172.2240  144.5160 C   0  0  0  0  0  0  0  0  0  0  0  0
  195.2730  170.1300  144.1780 C   0  0  0  0  0  0  0  0  0  0  0  0
  194.0870  173.6830  144.7880 C   0  0  0  0  0  0  0  0  0  0  0  0
  197.8470  174.3850  144.6810 C   0  0  0  0  0  1  0  0  0  0  0  0
  192.8580  171.5490  144.3040 C   0  0  0  0  0  3  0  0  0  0  0  0
  194.0540  169.4760  143.9660 C   0  0  0  0  0  3  0  0  0  0  0  0
  194.1210  176.4430  145.2700 C   0  0  0  0  0  3  0  0  0  0  0  0
  196.8040  172.1530  146.1500 O   0  0  0  0  0  1  0  0  0  0  0  0
  196.5610  173.6680  144.2840 C   0  0  1  0  0  3  0  0  0  0  0  0
  190.9410  176.6350  143.4790 O   0  0  0  0  0  0  0  0  0  0  0  0
  190.7890  176.9520  144.6880 C   0  0  0  0  0  0  0  0  0  0  0  0
  191.6880  176.4470  145.7010 N   0  0  0  0  0  0  0  0  0  0  0  0
  191.3570  176.6610  147.1090 C   0  0  0  0  0  2  0  0  0  0  0  0
  190.8320  175.3770  147.7220 C   0  0  0  0  0  1  0  0  0  0  0  0
  189.6330  177.8320  145.0480 C   0  0  0  0  0  2  0  0  0  0  0  0
  188.1120  176.0590  144.6650 O   0  0  0  0  0  1  0  0  0  0  0  0
  188.3670  177.3890  144.3250 C   0  0  1  0  0  3  0  0  0  0  0  0
  186.3170  178.5650  143.4680 C   0  0  0  0  0  2  0  0  0  0  0  0
  184.0590  177.6590  146.8870 O   0  0  0  0  0  1  0  0  0  0  0  0
  185.2050  179.5300  143.8500 C   0  0  0  0  0  2  0  0  0  0  0  0
  184.3780  178.9560  144.9570 C   0  0  0  0  0  3  0  0  0  0  0  0
  186.3170  177.6380  145.8140 C   0  0  1  0  0  3  0  0  0  0  0  0
  184.8880  178.1290  145.8760 C   0  0  0  0  0  0  0  0  0  0  0  0
  187.1730  178.2810  144.7020 C   0  0  1  0  0  3  0  0  0  0  0  0
  186.9270  177.8410  147.0540 O   0  0  0  0  0  1  0  0  0  0  0  0
  196.5000  169.3930  144.1380 N   0  0  0  0  0  2  0  0  0  0  0  0
  197.3070  169.2840  145.2220 O   0  0  0  0  0  0  0  0  0  0  0  0
  196.8180  168.1790  145.9240 C   0  0  0  0  0  2  0  0  0  0  0  0
  197.1920  168.4820  148.3980 N   0  0  0  0  0  1  0  0  0  0  0  0
  196.3410  168.6110  147.2660 C   0  0  0  0  0  0  0  0  0  0  0  0
  195.1730  169.0560  147.4060 O   0  0  0  0  0  0  0  0  0  0  0  0
  1 14  1  0  0  0  0
  2 15  1  1  0  0  0
  3 19  1  0  0  0  0
  4 10  1  0  0  0  0
  4  1  2  0  0  0  0
  5  3  1  0  0  0  0
  6 12  1  0  0  0  0
  7  8  1  0  0  0  0
  7  2  1  0  0  0  0
  8 10  1  0  0  0  0
  9  7  2  0  0  0  0
 10  5  2  0  0  0  0
 12  8  2  0  0  0  0
 13  6  2  0  0  0  0
 13  9  1  0  0  0  0
 14  3  2  0  0  0  0
 16 11  1  1  0  0  0
 16  4  1  0  0  0  0
 16  2  1  0  0  0  0
 17 18  2  0  0  0  0
 18 22  1  0  0  0  0
 18 19  1  0  0  0  0
 19 20  1  0  0  0  0
 20 21  1  0  0  0  0
 24 23  1  1  0  0  0
 24 22  1  0  0  0  0
 25 27  1  0  0  0  0
 25 31  1  0  0  0  0
 27 28  1  0  0  0  0
 28 30  2  0  0  0  0
 29 30  1  0  0  0  0
 29 32  1  1  0  0  0
 30 26  1  0  0  0  0
 31 24  1  6  0  0  0
 31 29  1  0  0  0  0
 33  9  1  0  0  0  0
 33 34  1  0  0  0  0
 34 35  1  0  0  0  0
 35 37  1  0  0  0  0
 37 38  2  0  0  0  0
 37 36  1  0  0  0  0
M  END
>  <MODEL>
8

>  <REMARK>
 VINA RESULT:      -7.1      3.886     11.726
  Name = 
  9 active torsions:
  status: ('A' for Active; 'I' for Inactive)
    1  A    between atoms: O_3  and  C_4
    2  A    between atoms: O_3  and  N_29
    3  A    between atoms: C_4  and  C_12
    4  A    between atoms: C_7  and  C_20
    5  A    between atoms: C_7  and  C_25
    6  A    between atoms: C_11  and  N_33
    7  A    between atoms: C_13  and  N_33
    8  A    between atoms: C_20  and  C_34
    9  A    between atoms: C_21  and  N_29
                            x       y       z     vdW  Elec       q    Type
                         _______ _______ _______ _____ _____    ______ ____

>  <TORSDO>
F 9

$$$$
=
 OpenBabel11062421003D

 38 41  0  0  1  0  0  0  0  0999 V2000
  190.9060  173.2750  142.8400 C   0  0  0  0  0  3  0  0  0  0  0  0
  194.5740  172.3290  142.7000 C   0  0  2  0  0  3  0  0  0  0  0  0
  190.6560  175.2930  144.1780 C   0  0  0  0  0  0  0  0  0  0  0  0
  192.2470  173.1570  143.2320 C   0  0  0  0  0  0  0  0  0  0  0  0
  191.9850  175.1480  144.6010 C   0  0  0  0  0  3  0  0  0  0  0  0
  195.9820  174.5300  146.1280 C   0  0  0  0  0  3  0  0  0  0  0  0
  195.0520  173.0480  143.9360 C   0  0  0  0  0  0  0  0  0  0  0  0
  194.1890  173.9490  144.5980 C   0  0  0  0  0  0  0  0  0  0  0  0
  196.3800  172.9020  144.3730 C   0  0  0  0  0  0  0  0  0  0  0  0
  192.7840  174.0910  144.1420 C   0  0  0  0  0  0  0  0  0  0  0  0
  192.5970  171.3080  141.5220 C   0  0  0  0  0  1  0  0  0  0  0  0
  194.6650  174.6840  145.6930 C   0  0  0  0  0  3  0  0  0  0  0  0
  196.8350  173.6430  145.4700 C   0  0  0  0  0  3  0  0  0  0  0  0
  190.1230  174.3360  143.3010 C   0  0  0  0  0  3  0  0  0  0  0  0
  194.8090  173.1340  141.5800 O   0  0  0  0  0  1  0  0  0  0  0  0
  193.0850  171.9690  142.8070 C   0  0  1  0  0  3  0  0  0  0  0  0
  188.9290  175.1790  146.4720 O   0  0  0  0  0  0  0  0  0  0  0  0
  188.9110  176.2210  145.7660 C   0  0  0  0  0  0  0  0  0  0  0  0
  189.8310  176.3790  144.6610 N   0  0  0  0  0  0  0  0  0  0  0  0
  189.9250  177.6800  144.0010 C   0  0  0  0  0  2  0  0  0  0  0  0
  189.2820  177.6160  142.6290 C   0  0  0  0  0  1  0  0  0  0  0  0
  187.9400  177.3020  146.1240 C   0  0  0  0  0  2  0  0  0  0  0  0
  186.3490  177.0260  147.8560 O   0  0  0  0  0  1  0  0  0  0  0  0
  186.5900  176.7120  146.5170 C   0  0  1  0  0  3  0  0  0  0  0  0
  184.9290  178.5700  146.1940 C   0  0  0  0  0  2  0  0  0  0  0  0
  185.4550  178.6590  142.0330 O   0  0  0  0  0  1  0  0  0  0  0  0
  183.7520  179.0310  145.3490 C   0  0  0  0  0  2  0  0  0  0  0  0
  184.1730  179.2000  143.9220 C   0  0  0  0  0  3  0  0  0  0  0  0
  185.9470  177.4610  144.1700 C   0  0  1  0  0  3  0  0  0  0  0  0
  185.1410  178.4600  143.3710 C   0  0  0  0  0  0  0  0  0  0  0  0
  185.4660  177.2580  145.6230 C   0  0  1  0  0  3  0  0  0  0  0  0
  185.9530  176.2350  143.5010 O   0  0  0  0  0  1  0  0  0  0  0  0
  197.2710  172.0130  143.6880 N   0  0  0  0  0  2  0  0  0  0  0  0
  197.8830  170.9830  144.3230 O   0  0  0  0  0  0  0  0  0  0  0  0
  197.1600  169.8480  143.9460 C   0  0  0  0  0  2  0  0  0  0  0  0
  197.2640  169.4180  146.4280 N   0  0  0  0  0  1  0  0  0  0  0  0
  196.6830  169.1330  145.1600 C   0  0  0  0  0  0  0  0  0  0  0  0
  195.7920  168.2500  145.0630 O   0  0  0  0  0  0  0  0  0  0  0  0
  1  4  2  0  0  0  0
  1 14  1  0  0  0  0
  2 15  1  6  0  0  0
  2 16  1  0  0  0  0
  2  7  1  0  0  0  0
  3  5  1  0  0  0  0
  3 19  1  0  0  0  0
  4 10  1  0  0  0  0
  7  9  2  0  0  0  0
  7  8  1  0  0  0  0
  8 12  2  0  0  0  0
  9 13  1  0  0  0  0
 10  8  1  0  0  0  0
 10  5  2  0  0  0  0
 12  6  1  0  0  0  0
 13  6  2  0  0  0  0
 14  3  2  0  0  0  0
 16 11  1  6  0  0  0
 16  4  1  0  0  0  0
 18 22  1  0  0  0  0
 18 17  2  0  0  0  0
 19 18  1  0  0  0  0
 20 19  1  0  0  0  0
 21 20  1  0  0  0  0
 22 24  1  0  0  0  0
 24 23  1  1  0  0  0
 26 30  1  0  0  0  0
 27 25  1  0  0  0  0
 28 27  1  0  0  0  0
 29 32  1  6  0  0  0
 29 31  1  0  0  0  0
 30 28  2  0  0  0  0
 30 29  1  0  0  0  0
 31 25  1  0  0  0  0
 31 24  1  1  0  0  0
 33 34  1  0  0  0  0
 33  9  1  0  0  0  0
 35 34  1  0  0  0  0
 35 37  1  0  0  0  0
 37 36  1  0  0  0  0
 38 37  2  0  0  0  0
M  END
>  <MODEL>
9

>  <REMARK>
 VINA RESULT:      -7.1      3.396     11.382
  Name = 
  9 active torsions:
  status: ('A' for Active; 'I' for Inactive)
    1  A    between atoms: O_3  and  C_4
    2  A    between atoms: O_3  and  N_29
    3  A    between atoms: C_4  and  C_12
    4  A    between atoms: C_7  and  C_20
    5  A    between atoms: C_7  and  C_25
    6  A    between atoms: C_11  and  N_33
    7  A    between atoms: C_13  and  N_33
    8  A    between atoms: C_20  and  C_34
    9  A    between atoms: C_21  and  N_29
                            x       y       z     vdW  Elec       q    Type
                         _______ _______ _______ _____ _____    ______ ____

>  <TORSDO>
F 9

$$$$
