=
 OpenBabel11062421093D

 27 30  0  0  1  0  0  0  0  0999 V2000
  189.8040  176.3840  145.3520 C   0  0  1  0  0  3  0  0  0  0  0  0
  186.4200  178.1220  145.7130 C   0  0  0  0  0  0  0  0  0  0  0  0
  185.6630  177.7350  146.8030 C   0  0  0  0  0  0  0  0  0  0  0  0
  188.3820  175.4540  147.2400 C   0  0  0  0  0  2  0  0  0  0  0  0
  184.4050  178.2890  147.1720 N   0  0  0  0  0  1  0  0  0  0  0  0
  187.5330  177.3130  145.7460 C   0  0  0  0  0  0  0  0  0  0  0  0
  188.6340  177.1760  144.7440 C   0  0  0  0  0  2  0  0  0  0  0  0
  189.3030  175.1140  146.0560 C   0  0  0  0  0  2  0  0  0  0  0  0
  186.2550  176.7620  147.4630 O   0  0  0  0  0  0  0  0  0  0  0  0
  187.3770  176.4850  146.8350 C   0  0  0  0  0  0  0  0  0  0  0  0
  186.0620  179.1270  144.6710 C   0  0  0  0  0  2  0  0  0  0  0  0
  184.9320  178.6990  143.9720 O   0  0  0  0  0  0  0  0  0  0  0  0
  185.5190  178.0600  142.5180 P   0  0  0  0  0  0  0  0  0  0  0  0
  185.8720  176.4160  142.7110 O   0  0  0  0  0  1  0  0  0  0  0  0
  186.7810  178.7940  142.1270 O   0  0  0  0  0  1  0  0  0  0  0  0
  184.3660  178.2480  141.2930 O   0  0  0  0  0  0  0  0  0  0  0  0
  190.8050  176.0040  144.2700 C   0  0  0  0  0  2  0  0  0  0  0  0
  192.2080  176.1980  144.7450 C   0  0  0  0  0  0  0  0  0  0  0  0
  194.5700  176.3370  144.2960 C   0  0  0  0  0  0  0  0  0  0  0  0
  195.4550  176.2800  143.1970 N   0  0  0  0  0  0  0  0  0  0  0  0
  194.8770  176.5200  145.6450 C   0  0  0  0  0  3  0  0  0  0  0  0
  193.2540  176.0280  142.4480 N   0  0  0  0  0  0  0  0  0  0  0  0
  193.8100  176.5370  146.5610 C   0  0  0  0  0  3  0  0  0  0  0  0
  192.4820  176.3730  146.1140 C   0  0  0  0  0  3  0  0  0  0  0  0
  194.6470  176.1130  141.9870 C   0  0  0  0  0  3  0  0  0  0  0  0
  196.8660  176.6240  143.2180 C   0  0  0  0  0  1  0  0  0  0  0  0
  193.2900  176.1820  143.8610 C   0  0  0  0  0  0  0  0  0  0  0  0
  1 17  1  6  0  0  0
  1  8  1  0  0  0  0
  2  6  1  0  0  0  0
  2  3  2  0  0  0  0
  3  5  1  0  0  0  0
  3  9  1  0  0  0  0
  6 10  2  0  0  0  0
  7  1  1  0  0  0  0
  7  6  1  0  0  0  0
  8  4  1  0  0  0  0
 10  4  1  0  0  0  0
 10  9  1  0  0  0  0
 11  2  1  0  0  0  0
 12 11  1  0  0  0  0
 13 14  1  0  0  0  0
 13 12  1  0  0  0  0
 15 13  1  0  0  0  0
 16 13  2  0  0  0  0
 17 18  1  0  0  0  0
 18 24  1  0  0  0  0
 19 21  2  0  0  0  0
 20 26  1  0  0  0  0
 20 19  1  0  0  0  0
 21 23  1  0  0  0  0
 22 27  1  0  0  0  0
 24 23  2  0  0  0  0
 25 22  2  0  0  0  0
 25 20  1  0  0  0  0
 27 19  1  0  0  0  0
 27 18  2  0  0  0  0
M  END
>  <MODEL>
1

>  <REMARK>
 VINA RESULT:      -7.9      0.000      0.000
  Name = 
  5 active torsions:
  status: ('A' for Active; 'I' for Inactive)
    1  A    between atoms: C_1  and  C_5
    2  A    between atoms: C_2  and  C_5
    3  A    between atoms: C_3  and  C_6
    4  A    between atoms: C_3  and  O_11
    5  A    between atoms: P_4  and  O_11
                            x       y       z     vdW  Elec       q    Type
                         _______ _______ _______ _____ _____    ______ ____

>  <TORSDO>
F 5

$$$$
=
 OpenBabel11062421093D

 27 30  0  0  1  0  0  0  0  0999 V2000
  189.8960  176.3700  145.3680 C   0  0  1  0  0  3  0  0  0  0  0  0
  186.4810  178.0580  145.6740 C   0  0  0  0  0  0  0  0  0  0  0  0
  185.7200  177.6730  146.7630 C   0  0  0  0  0  0  0  0  0  0  0  0
  188.4730  175.4440  147.2560 C   0  0  0  0  0  2  0  0  0  0  0  0
  184.4510  178.2130  147.1130 N   0  0  0  0  0  1  0  0  0  0  0  0
  187.6060  177.2670  145.7290 C   0  0  0  0  0  0  0  0  0  0  0  0
  188.7180  177.1340  144.7380 C   0  0  0  0  0  2  0  0  0  0  0  0
  189.4090  175.1020  146.0860 C   0  0  0  0  0  2  0  0  0  0  0  0
  186.3230  176.7200  147.4420 O   0  0  0  0  0  0  0  0  0  0  0  0
  187.4540  176.4530  146.8290 C   0  0  0  0  0  0  0  0  0  0  0  0
  186.1160  179.0410  144.6140 C   0  0  0  0  0  2  0  0  0  0  0  0
  185.0010  178.5820  143.9090 O   0  0  0  0  0  0  0  0  0  0  0  0
  185.6160  177.9390  142.4680 P   0  0  0  0  0  0  0  0  0  0  0  0
  186.0060  176.3060  142.6860 O   0  0  0  0  0  1  0  0  0  0  0  0
  186.8630  178.6980  142.0780 O   0  0  0  0  0  1  0  0  0  0  0  0
  184.4690  178.0840  141.2320 O   0  0  0  0  0  0  0  0  0  0  0  0
  190.9120  175.9910  144.3010 C   0  0  0  0  0  2  0  0  0  0  0  0
  192.2510  175.7190  144.9060 C   0  0  0  0  0  0  0  0  0  0  0  0
  194.0130  174.1840  145.4870 C   0  0  0  0  0  0  0  0  0  0  0  0
  194.3240  172.8130  145.3540 N   0  0  0  0  0  0  0  0  0  0  0  0
  194.7700  175.1880  146.0910 C   0  0  0  0  0  3  0  0  0  0  0  0
  192.2520  173.2490  144.3630 N   0  0  0  0  0  0  0  0  0  0  0  0
  194.2400  176.4910  146.1000 C   0  0  0  0  0  3  0  0  0  0  0  0
  192.9850  176.7550  145.5130 C   0  0  0  0  0  3  0  0  0  0  0  0
  193.2310  172.1810  144.6120 C   0  0  0  0  0  3  0  0  0  0  0  0
  195.6110  172.1990  145.6310 C   0  0  0  0  0  1  0  0  0  0  0  0
  192.8040  174.4360  144.9170 C   0  0  0  0  0  0  0  0  0  0  0  0
  1 17  1  6  0  0  0
  1  8  1  0  0  0  0
  2  6  1  0  0  0  0
  2  3  2  0  0  0  0
  3  5  1  0  0  0  0
  3  9  1  0  0  0  0
  6 10  2  0  0  0  0
  7  1  1  0  0  0  0
  7  6  1  0  0  0  0
  8  4  1  0  0  0  0
 10  4  1  0  0  0  0
 10  9  1  0  0  0  0
 11  2  1  0  0  0  0
 12 11  1  0  0  0  0
 13 14  1  0  0  0  0
 13 12  1  0  0  0  0
 15 13  1  0  0  0  0
 16 13  2  0  0  0  0
 17 18  1  0  0  0  0
 18 27  2  0  0  0  0
 18 24  1  0  0  0  0
 19 21  2  0  0  0  0
 20 19  1  0  0  0  0
 20 26  1  0  0  0  0
 21 23  1  0  0  0  0
 22 25  2  0  0  0  0
 22 27  1  0  0  0  0
 24 23  2  0  0  0  0
 25 20  1  0  0  0  0
 27 19  1  0  0  0  0
M  END
>  <MODEL>
2

>  <REMARK>
 VINA RESULT:      -7.6      1.716      1.887
  Name = 
  5 active torsions:
  status: ('A' for Active; 'I' for Inactive)
    1  A    between atoms: C_1  and  C_5
    2  A    between atoms: C_2  and  C_5
    3  A    between atoms: C_3  and  C_6
    4  A    between atoms: C_3  and  O_11
    5  A    between atoms: P_4  and  O_11
                            x       y       z     vdW  Elec       q    Type
                         _______ _______ _______ _____ _____    ______ ____

>  <TORSDO>
F 5

$$$$
=
 OpenBabel11062421093D

 27 30  0  0  1  0  0  0  0  0999 V2000
  187.6760  176.5860  146.6220 C   0  0  1  0  0  3  0  0  0  0  0  0
  185.1050  177.8690  144.1020 C   0  0  0  0  0  0  0  0  0  0  0  0
  184.1500  178.7320  144.6090 C   0  0  0  0  0  0  0  0  0  0  0  0
  185.8290  177.9760  147.6750 C   0  0  0  0  0  2  0  0  0  0  0  0
  183.1380  179.3810  143.8480 N   0  0  0  0  0  1  0  0  0  0  0  0
  185.8500  177.4820  145.1920 C   0  0  0  0  0  0  0  0  0  0  0  0
  186.9300  176.4520  145.2830 C   0  0  0  0  0  2  0  0  0  0  0  0
  186.6890  176.7070  147.7920 C   0  0  0  0  0  2  0  0  0  0  0  0
  184.2900  178.8720  145.9110 O   0  0  0  0  0  0  0  0  0  0  0  0
  185.3000  178.1180  146.2830 C   0  0  0  0  0  0  0  0  0  0  0  0
  185.2350  177.3840  142.6980 C   0  0  0  0  0  2  0  0  0  0  0  0
  185.9140  178.3330  141.9320 O   0  0  0  0  0  0  0  0  0  0  0  0
  187.1930  177.4910  141.2080 P   0  0  0  0  0  0  0  0  0  0  0  0
  188.6590  178.2620  141.5520 O   0  0  0  0  0  1  0  0  0  0  0  0
  186.9860  177.4660  139.7110 O   0  0  0  0  0  0  0  0  0  0  0  0
  187.2430  175.9010  141.7870 O   0  0  0  0  0  1  0  0  0  0  0  0
  188.5850  175.3870  146.8440 C   0  0  0  0  0  2  0  0  0  0  0  0
  190.0110  175.7340  146.5630 C   0  0  0  0  0  0  0  0  0  0  0  0
  191.8630  175.9000  145.0340 C   0  0  0  0  0  0  0  0  0  0  0  0
  192.1450  175.6800  143.6670 N   0  0  0  0  0  0  0  0  0  0  0  0
  192.7270  176.3480  146.0330 C   0  0  0  0  0  3  0  0  0  0  0  0
  189.9000  175.1860  144.0970 N   0  0  0  0  0  0  0  0  0  0  0  0
  192.2060  176.4860  147.3330 C   0  0  0  0  0  3  0  0  0  0  0  0
  190.8560  176.1770  147.5970 C   0  0  0  0  0  3  0  0  0  0  0  0
  190.9030  175.2490  143.0230 C   0  0  0  0  0  3  0  0  0  0  0  0
  193.3510  176.0890  142.9680 C   0  0  0  0  0  1  0  0  0  0  0  0
  190.5590  175.6050  145.2840 C   0  0  0  0  0  0  0  0  0  0  0  0
  1 17  1  1  0  0  0
  1  8  1  0  0  0  0
  2  3  2  0  0  0  0
  2  6  1  0  0  0  0
  3  9  1  0  0  0  0
  4  8  1  0  0  0  0
  5  3  1  0  0  0  0
  6  7  1  0  0  0  0
  6 10  2  0  0  0  0
  7  1  1  0  0  0  0
  9 10  1  0  0  0  0
 10  4  1  0  0  0  0
 11  2  1  0  0  0  0
 12 11  1  0  0  0  0
 13 14  1  0  0  0  0
 13 16  1  0  0  0  0
 13 12  1  0  0  0  0
 15 13  2  0  0  0  0
 18 17  1  0  0  0  0
 18 24  1  0  0  0  0
 19 27  1  0  0  0  0
 19 21  2  0  0  0  0
 20 19  1  0  0  0  0
 21 23  1  0  0  0  0
 22 27  1  0  0  0  0
 23 24  2  0  0  0  0
 25 20  1  0  0  0  0
 25 22  2  0  0  0  0
 26 20  1  0  0  0  0
 27 18  2  0  0  0  0
M  END
>  <MODEL>
3

>  <REMARK>
 VINA RESULT:      -7.5      1.868      2.985
  Name = 
  5 active torsions:
  status: ('A' for Active; 'I' for Inactive)
    1  A    between atoms: C_1  and  C_5
    2  A    between atoms: C_2  and  C_5
    3  A    between atoms: C_3  and  C_6
    4  A    between atoms: C_3  and  O_11
    5  A    between atoms: P_4  and  O_11
                            x       y       z     vdW  Elec       q    Type
                         _______ _______ _______ _____ _____    ______ ____

>  <TORSDO>
F 5

$$$$
=
 OpenBabel11062421093D

 27 30  0  0  1  0  0  0  0  0999 V2000
  188.4140  176.4070  144.8810 C   0  0  1  0  0  3  0  0  0  0  0  0
  190.3350  173.5700  143.1900 C   0  0  0  0  0  0  0  0  0  0  0  0
  190.7250  172.5350  144.0190 C   0  0  0  0  0  0  0  0  0  0  0  0
  189.2890  174.6640  146.5070 C   0  0  0  0  0  2  0  0  0  0  0  0
  191.3910  171.3490  143.6010 N   0  0  0  0  0  1  0  0  0  0  0  0
  189.7490  174.4940  144.0240 C   0  0  0  0  0  0  0  0  0  0  0  0
  189.2670  175.8750  143.7160 C   0  0  0  0  0  2  0  0  0  0  0  0
  189.1090  176.1660  146.2290 C   0  0  0  0  0  2  0  0  0  0  0  0
  190.4060  172.7920  145.2710 O   0  0  0  0  0  0  0  0  0  0  0  0
  189.8290  173.9730  145.2960 C   0  0  0  0  0  0  0  0  0  0  0  0
  190.5880  173.7030  141.7260 C   0  0  0  0  0  2  0  0  0  0  0  0
  189.9960  172.6370  141.0460 O   0  0  0  0  0  0  0  0  0  0  0  0
  188.4460  173.1790  140.6270 P   0  0  0  0  0  0  0  0  0  0  0  0
  187.3370  172.7390  141.8270 O   0  0  0  0  0  1  0  0  0  0  0  0
  188.0370  172.5440  139.3180 O   0  0  0  0  0  0  0  0  0  0  0  0
  188.4480  174.8620  140.4510 O   0  0  0  0  0  1  0  0  0  0  0  0
  188.1470  177.8950  144.7050 C   0  0  0  0  0  2  0  0  0  0  0  0
  186.7150  178.1480  144.3640 C   0  0  0  0  0  0  0  0  0  0  0  0
  184.9640  178.3910  142.7300 C   0  0  0  0  0  0  0  0  0  0  0  0
  184.7890  178.3180  141.3300 N   0  0  0  0  0  0  0  0  0  0  0  0
  184.0080  178.6710  143.7060 C   0  0  0  0  0  3  0  0  0  0  0  0
  187.0200  177.8710  141.8680 N   0  0  0  0  0  0  0  0  0  0  0  0
  184.4310  178.6910  145.0480 C   0  0  0  0  0  3  0  0  0  0  0  0
  185.7790  178.4340  145.3750 C   0  0  0  0  0  3  0  0  0  0  0  0
  186.0800  177.9570  140.7410 C   0  0  0  0  0  3  0  0  0  0  0  0
  183.5170  178.3030  140.6280 C   0  0  0  0  0  1  0  0  0  0  0  0
  186.2640  178.1390  143.0410 C   0  0  0  0  0  0  0  0  0  0  0  0
  1 17  1  6  0  0  0
  1  8  1  0  0  0  0
  2  3  2  0  0  0  0
  2  6  1  0  0  0  0
  3  9  1  0  0  0  0
  5  3  1  0  0  0  0
  6 10  2  0  0  0  0
  7  6  1  0  0  0  0
  7  1  1  0  0  0  0
  8  4  1  0  0  0  0
  9 10  1  0  0  0  0
 10  4  1  0  0  0  0
 11  2  1  0  0  0  0
 12 11  1  0  0  0  0
 13 12  1  0  0  0  0
 13 14  1  0  0  0  0
 15 13  2  0  0  0  0
 16 13  1  0  0  0  0
 18 17  1  0  0  0  0
 18 24  1  0  0  0  0
 19 27  1  0  0  0  0
 19 21  2  0  0  0  0
 20 19  1  0  0  0  0
 21 23  1  0  0  0  0
 22 27  1  0  0  0  0
 23 24  2  0  0  0  0
 25 20  1  0  0  0  0
 25 22  2  0  0  0  0
 26 20  1  0  0  0  0
 27 18  2  0  0  0  0
M  END
>  <MODEL>
4

>  <REMARK>
 VINA RESULT:      -7.4      4.242      7.322
  Name = 
  5 active torsions:
  status: ('A' for Active; 'I' for Inactive)
    1  A    between atoms: C_1  and  C_5
    2  A    between atoms: C_2  and  C_5
    3  A    between atoms: C_3  and  C_6
    4  A    between atoms: C_3  and  O_11
    5  A    between atoms: P_4  and  O_11
                            x       y       z     vdW  Elec       q    Type
                         _______ _______ _______ _____ _____    ______ ____

>  <TORSDO>
F 5

$$$$
=
 OpenBabel11062421093D

 27 30  0  0  1  0  0  0  0  0999 V2000
  186.6800  176.3090  142.2490 C   0  0  1  0  0  3  0  0  0  0  0  0
  186.0130  177.3720  145.8590 C   0  0  0  0  0  0  0  0  0  0  0  0
  184.9160  178.1920  146.0470 C   0  0  0  0  0  0  0  0  0  0  0  0
  184.7910  177.9910  142.4790 C   0  0  0  0  0  2  0  0  0  0  0  0
  184.4400  178.6570  147.3050 N   0  0  0  0  0  1  0  0  0  0  0  0
  186.0980  177.1980  144.4960 C   0  0  0  0  0  0  0  0  0  0  0  0
  187.1650  176.5260  143.6930 C   0  0  0  0  0  2  0  0  0  0  0  0
  186.0440  177.5880  141.6840 C   0  0  0  0  0  2  0  0  0  0  0  0
  184.3600  178.5030  144.8950 O   0  0  0  0  0  0  0  0  0  0  0  0
  185.0650  177.9250  143.9480 C   0  0  0  0  0  0  0  0  0  0  0  0
  186.9590  176.8700  146.8960 C   0  0  0  0  0  2  0  0  0  0  0  0
  187.9290  177.8400  147.1580 O   0  0  0  0  0  0  0  0  0  0  0  0
  189.3950  177.1530  146.6580 P   0  0  0  0  0  0  0  0  0  0  0  0
  189.1830  175.5020  146.3520 O   0  0  0  0  0  1  0  0  0  0  0  0
  190.4220  177.3260  147.7530 O   0  0  0  0  0  1  0  0  0  0  0  0
  189.9460  177.9200  145.2540 O   0  0  0  0  0  0  0  0  0  0  0  0
  187.8380  175.8800  141.3600 C   0  0  0  0  0  2  0  0  0  0  0  0
  188.5340  174.6850  141.9230 C   0  0  0  0  0  0  0  0  0  0  0  0
  190.4550  173.6810  142.9720 C   0  0  0  0  0  0  0  0  0  0  0  0
  191.7220  174.0600  143.4700 N   0  0  0  0  0  0  0  0  0  0  0  0
  189.8780  172.4110  142.9510 C   0  0  0  0  0  3  0  0  0  0  0  0
  190.6100  175.9410  142.6350 N   0  0  0  0  0  0  0  0  0  0  0  0
  188.5930  172.2860  142.3940 C   0  0  0  0  0  3  0  0  0  0  0  0
  187.9250  173.4170  141.8790 C   0  0  0  0  0  3  0  0  0  0  0  0
  191.8490  175.5090  143.2990 C   0  0  0  0  0  3  0  0  0  0  0  0
  192.6060  173.2320  144.2710 C   0  0  0  0  0  1  0  0  0  0  0  0
  189.8120  174.7750  142.4800 C   0  0  0  0  0  0  0  0  0  0  0  0
  1 17  1  6  0  0  0
  1  7  1  0  0  0  0
  2  3  2  0  0  0  0
  2 11  1  0  0  0  0
  3  5  1  0  0  0  0
  4 10  1  0  0  0  0
  6  2  1  0  0  0  0
  7  6  1  0  0  0  0
  8  1  1  0  0  0  0
  8  4  1  0  0  0  0
  9  3  1  0  0  0  0
 10  6  2  0  0  0  0
 10  9  1  0  0  0  0
 11 12  1  0  0  0  0
 13 12  1  0  0  0  0
 13 15  1  0  0  0  0
 14 13  1  0  0  0  0
 16 13  2  0  0  0  0
 17 18  1  0  0  0  0
 18 27  1  0  0  0  0
 19 20  1  0  0  0  0
 20 26  1  0  0  0  0
 21 19  1  0  0  0  0
 22 25  2  0  0  0  0
 23 21  2  0  0  0  0
 24 18  2  0  0  0  0
 24 23  1  0  0  0  0
 25 20  1  0  0  0  0
 27 22  1  0  0  0  0
 27 19  2  0  0  0  0
M  END
>  <MODEL>
5

>  <REMARK>
 VINA RESULT:      -7.2      3.053      4.820
  Name = 
  5 active torsions:
  status: ('A' for Active; 'I' for Inactive)
    1  A    between atoms: C_1  and  C_5
    2  A    between atoms: C_2  and  C_5
    3  A    between atoms: C_3  and  C_6
    4  A    between atoms: C_3  and  O_11
    5  A    between atoms: P_4  and  O_11
                            x       y       z     vdW  Elec       q    Type
                         _______ _______ _______ _____ _____    ______ ____

>  <TORSDO>
F 5

$$$$
=
 OpenBabel11062421093D

 27 30  0  0  1  0  0  0  0  0999 V2000
  188.5510  177.3220  146.6420 C   0  0  1  0  0  3  0  0  0  0  0  0
  186.0190  178.4290  144.0030 C   0  0  0  0  0  0  0  0  0  0  0  0
  184.6910  178.3470  144.3780 C   0  0  0  0  0  0  0  0  0  0  0  0
  186.1370  176.9260  147.3240 C   0  0  0  0  0  2  0  0  0  0  0  0
  183.5840  178.7630  143.5870 N   0  0  0  0  0  1  0  0  0  0  0  0
  186.7220  177.9060  145.0640 C   0  0  0  0  0  0  0  0  0  0  0  0
  188.1820  177.6050  145.1760 C   0  0  0  0  0  2  0  0  0  0  0  0
  187.5580  176.3400  147.2810 C   0  0  0  0  0  2  0  0  0  0  0  0
  184.5740  177.8160  145.5770 O   0  0  0  0  0  0  0  0  0  0  0  0
  185.7860  177.5320  146.0020 C   0  0  0  0  0  0  0  0  0  0  0  0
  186.5650  178.8880  142.6940 C   0  0  0  0  0  2  0  0  0  0  0  0
  186.0600  178.0900  141.6660 O   0  0  0  0  0  0  0  0  0  0  0  0
  187.2660  176.9420  141.3550 P   0  0  0  0  0  0  0  0  0  0  0  0
  187.2260  176.4900  139.7250 O   0  0  0  0  0  0  0  0  0  0  0  0
  187.0230  175.7230  142.2140 O   0  0  0  0  0  1  0  0  0  0  0  0
  188.7880  177.5860  141.7240 O   0  0  0  0  0  1  0  0  0  0  0  0
  189.9590  176.7530  146.7340 C   0  0  0  0  0  2  0  0  0  0  0  0
  190.1550  175.6400  145.7580 C   0  0  0  0  0  0  0  0  0  0  0  0
  190.9970  174.8220  143.6560 C   0  0  0  0  0  0  0  0  0  0  0  0
  191.7210  175.2910  142.5370 N   0  0  0  0  0  0  0  0  0  0  0  0
  190.4900  173.5420  143.8820 C   0  0  0  0  0  3  0  0  0  0  0  0
  191.4590  177.0220  144.0890 N   0  0  0  0  0  0  0  0  0  0  0  0
  189.7930  173.3180  145.0830 C   0  0  0  0  0  3  0  0  0  0  0  0
  189.6240  174.3620  146.0150 C   0  0  0  0  0  3  0  0  0  0  0  0
  192.0630  176.6930  142.7890 C   0  0  0  0  0  3  0  0  0  0  0  0
  192.2820  174.4720  141.4780 C   0  0  0  0  0  1  0  0  0  0  0  0
  190.8380  175.8310  144.5540 C   0  0  0  0  0  0  0  0  0  0  0  0
  1 17  1  6  0  0  0
  1  8  1  0  0  0  0
  2  3  2  0  0  0  0
  2  6  1  0  0  0  0
  3  9  1  0  0  0  0
  5  3  1  0  0  0  0
  6  7  1  0  0  0  0
  6 10  2  0  0  0  0
  7  1  1  0  0  0  0
  8  4  1  0  0  0  0
  9 10  1  0  0  0  0
 10  4  1  0  0  0  0
 11  2  1  0  0  0  0
 12 11  1  0  0  0  0
 13 12  1  0  0  0  0
 13 16  1  0  0  0  0
 13 15  1  0  0  0  0
 14 13  2  0  0  0  0
 18 24  1  0  0  0  0
 18 17  1  0  0  0  0
 19 21  2  0  0  0  0
 19 27  1  0  0  0  0
 20 25  1  0  0  0  0
 20 19  1  0  0  0  0
 21 23  1  0  0  0  0
 22 27  1  0  0  0  0
 23 24  2  0  0  0  0
 25 22  2  0  0  0  0
 26 20  1  0  0  0  0
 27 18  2  0  0  0  0
M  END
>  <MODEL>
6

>  <REMARK>
 VINA RESULT:      -7.2      2.288      3.211
  Name = 
  5 active torsions:
  status: ('A' for Active; 'I' for Inactive)
    1  A    between atoms: C_1  and  C_5
    2  A    between atoms: C_2  and  C_5
    3  A    between atoms: C_3  and  C_6
    4  A    between atoms: C_3  and  O_11
    5  A    between atoms: P_4  and  O_11
                            x       y       z     vdW  Elec       q    Type
                         _______ _______ _______ _____ _____    ______ ____

>  <TORSDO>
F 5

$$$$
=
 OpenBabel11062421093D

 27 30  0  0  1  0  0  0  0  0999 V2000
  189.9720  176.1940  145.8300 C   0  0  1  0  0  3  0  0  0  0  0  0
  193.4420  174.6240  145.5260 C   0  0  0  0  0  0  0  0  0  0  0  0
  193.4660  173.3000  145.1310 C   0  0  0  0  0  0  0  0  0  0  0  0
  189.9190  173.7060  145.3240 C   0  0  0  0  0  2  0  0  0  0  0  0
  194.6400  172.5320  144.8900 N   0  0  0  0  0  1  0  0  0  0  0  0
  192.1070  174.9370  145.6460 C   0  0  0  0  0  0  0  0  0  0  0  0
  191.4700  176.1800  146.1770 C   0  0  0  0  0  2  0  0  0  0  0  0
  189.3160  174.8460  146.1630 C   0  0  0  0  0  2  0  0  0  0  0  0
  192.2440  172.8240  145.0130 O   0  0  0  0  0  0  0  0  0  0  0  0
  191.4120  173.7910  145.3310 C   0  0  0  0  0  0  0  0  0  0  0  0
  194.6080  175.4950  145.8520 C   0  0  0  0  0  2  0  0  0  0  0  0
  194.7390  176.4900  144.8810 O   0  0  0  0  0  0  0  0  0  0  0  0
  195.9980  175.9700  143.8740 P   0  0  0  0  0  0  0  0  0  0  0  0
  196.9940  174.8870  144.7100 O   0  0  0  0  0  1  0  0  0  0  0  0
  196.8160  177.1660  143.4450 O   0  0  0  0  0  1  0  0  0  0  0  0
  195.3660  175.2090  142.5010 O   0  0  0  0  0  0  0  0  0  0  0  0
  189.2620  177.3060  146.5890 C   0  0  0  0  0  2  0  0  0  0  0  0
  187.8090  177.3480  146.2470 C   0  0  0  0  0  0  0  0  0  0  0  0
  186.0430  177.7090  144.6510 C   0  0  0  0  0  0  0  0  0  0  0  0
  185.8850  178.0320  143.2840 N   0  0  0  0  0  0  0  0  0  0  0  0
  185.0510  177.4740  145.6030 C   0  0  0  0  0  3  0  0  0  0  0  0
  188.1620  177.9160  143.8080 N   0  0  0  0  0  0  0  0  0  0  0  0
  185.4630  177.1700  146.9130 C   0  0  0  0  0  3  0  0  0  0  0  0
  186.8350  177.1110  147.2350 C   0  0  0  0  0  3  0  0  0  0  0  0
  187.2230  178.1440  142.6990 C   0  0  0  0  0  3  0  0  0  0  0  0
  184.6460  177.9690  142.5290 C   0  0  0  0  0  1  0  0  0  0  0  0
  187.3670  177.6500  144.9560 C   0  0  0  0  0  0  0  0  0  0  0  0
  1  8  1  0  0  0  0
  1  7  1  0  0  0  0
  1 17  1  1  0  0  0
  2  6  1  0  0  0  0
  2 11  1  0  0  0  0
  3  2  2  0  0  0  0
  4 10  1  0  0  0  0
  4  8  1  0  0  0  0
  5  3  1  0  0  0  0
  6  7  1  0  0  0  0
  9  3  1  0  0  0  0
  9 10  1  0  0  0  0
 10  6  2  0  0  0  0
 12 11  1  0  0  0  0
 13 14  1  0  0  0  0
 13 12  1  0  0  0  0
 15 13  1  0  0  0  0
 16 13  2  0  0  0  0
 18 17  1  0  0  0  0
 18 24  1  0  0  0  0
 19 27  1  0  0  0  0
 19 21  2  0  0  0  0
 20 19  1  0  0  0  0
 21 23  1  0  0  0  0
 22 27  1  0  0  0  0
 23 24  2  0  0  0  0
 25 20  1  0  0  0  0
 25 22  2  0  0  0  0
 26 20  1  0  0  0  0
 27 18  2  0  0  0  0
M  END
>  <MODEL>
7

>  <REMARK>
 VINA RESULT:      -7.1      5.016      8.108
  Name = 
  5 active torsions:
  status: ('A' for Active; 'I' for Inactive)
    1  A    between atoms: C_1  and  C_5
    2  A    between atoms: C_2  and  C_5
    3  A    between atoms: C_3  and  C_6
    4  A    between atoms: C_3  and  O_11
    5  A    between atoms: P_4  and  O_11
                            x       y       z     vdW  Elec       q    Type
                         _______ _______ _______ _____ _____    ______ ____

>  <TORSDO>
F 5

$$$$
=
 OpenBabel11062421093D

 27 30  0  0  1  0  0  0  0  0999 V2000
  190.2670  176.3890  144.7680 C   0  0  1  0  0  3  0  0  0  0  0  0
  186.9460  177.1930  143.0560 C   0  0  0  0  0  0  0  0  0  0  0  0
  187.0380  177.9260  141.8880 C   0  0  0  0  0  0  0  0  0  0  0  0
  190.5060  177.9270  142.7620 C   0  0  0  0  0  2  0  0  0  0  0  0
  185.9450  178.2840  141.0510 N   0  0  0  0  0  1  0  0  0  0  0  0
  188.2370  177.1040  143.5250 C   0  0  0  0  0  0  0  0  0  0  0  0
  188.7380  176.5520  144.8210 C   0  0  0  0  0  2  0  0  0  0  0  0
  190.9370  177.6540  144.2120 C   0  0  0  0  0  2  0  0  0  0  0  0
  188.2870  178.2670  141.6460 O   0  0  0  0  0  0  0  0  0  0  0  0
  189.0220  177.7920  142.6270 C   0  0  0  0  0  0  0  0  0  0  0  0
  185.7070  176.6950  143.7190 C   0  0  0  0  0  2  0  0  0  0  0  0
  184.8380  177.7610  143.9580 O   0  0  0  0  0  0  0  0  0  0  0  0
  184.9860  178.0980  145.6110 P   0  0  0  0  0  0  0  0  0  0  0  0
  185.3270  176.6740  146.4610 O   0  0  0  0  0  1  0  0  0  0  0  0
  183.6850  178.6770  146.1180 O   0  0  0  0  0  1  0  0  0  0  0  0
  186.2290  179.2170  145.8670 O   0  0  0  0  0  0  0  0  0  0  0  0
  190.8160  176.0900  146.1550 C   0  0  0  0  0  2  0  0  0  0  0  0
  192.2430  175.6550  146.0870 C   0  0  0  0  0  0  0  0  0  0  0  0
  193.9040  174.0010  145.5370 C   0  0  0  0  0  0  0  0  0  0  0  0
  193.9800  172.7050  144.9790 N   0  0  0  0  0  0  0  0  0  0  0  0
  194.9470  174.8070  145.9950 C   0  0  0  0  0  3  0  0  0  0  0  0
  191.7500  173.4060  145.0400 N   0  0  0  0  0  0  0  0  0  0  0  0
  194.6140  176.0710  146.5160 C   0  0  0  0  0  3  0  0  0  0  0  0
  193.2690  176.4920  146.5640 C   0  0  0  0  0  3  0  0  0  0  0  0
  192.6200  172.2980  144.6190 C   0  0  0  0  0  3  0  0  0  0  0  0
  195.1940  172.0250  144.5620 C   0  0  0  0  0  1  0  0  0  0  0  0
  192.6060  174.4050  145.5790 C   0  0  0  0  0  0  0  0  0  0  0  0
  1  7  1  0  0  0  0
  1 17  1  1  0  0  0
  2  6  1  0  0  0  0
  2 11  1  0  0  0  0
  3  2  2  0  0  0  0
  4  8  1  0  0  0  0
  5  3  1  0  0  0  0
  6  7  1  0  0  0  0
  8  1  1  0  0  0  0
  9  3  1  0  0  0  0
  9 10  1  0  0  0  0
 10  4  1  0  0  0  0
 10  6  2  0  0  0  0
 11 12  1  0  0  0  0
 12 13  1  0  0  0  0
 13 16  2  0  0  0  0
 13 15  1  0  0  0  0
 13 14  1  0  0  0  0
 18 17  1  0  0  0  0
 18 24  1  0  0  0  0
 19 27  1  0  0  0  0
 19 21  2  0  0  0  0
 20 19  1  0  0  0  0
 21 23  1  0  0  0  0
 22 27  1  0  0  0  0
 23 24  2  0  0  0  0
 25 20  1  0  0  0  0
 25 22  2  0  0  0  0
 26 20  1  0  0  0  0
 27 18  2  0  0  0  0
M  END
>  <MODEL>
8

>  <REMARK>
 VINA RESULT:      -7.0      2.679      3.746
  Name = 
  5 active torsions:
  status: ('A' for Active; 'I' for Inactive)
    1  A    between atoms: C_1  and  C_5
    2  A    between atoms: C_2  and  C_5
    3  A    between atoms: C_3  and  C_6
    4  A    between atoms: C_3  and  O_11
    5  A    between atoms: P_4  and  O_11
                            x       y       z     vdW  Elec       q    Type
                         _______ _______ _______ _____ _____    ______ ____

>  <TORSDO>
F 5

$$$$
=
 OpenBabel11062421093D

 27 30  0  0  1  0  0  0  0  0999 V2000
  190.7020  175.9380  145.2620 C   0  0  1  0  0  3  0  0  0  0  0  0
  194.0590  174.1160  145.3700 C   0  0  0  0  0  0  0  0  0  0  0  0
  194.0190  172.7700  145.0590 C   0  0  0  0  0  0  0  0  0  0  0  0
  190.5080  173.4310  144.9030 C   0  0  0  0  0  2  0  0  0  0  0  0
  195.1490  171.9090  144.9720 N   0  0  0  0  0  1  0  0  0  0  0  0
  192.7460  174.5270  145.3490 C   0  0  0  0  0  0  0  0  0  0  0  0
  192.1590  175.8440  145.7440 C   0  0  0  0  0  2  0  0  0  0  0  0
  189.9210  174.6620  145.6130 C   0  0  0  0  0  2  0  0  0  0  0  0
  192.7800  172.3720  144.8580 O   0  0  0  0  0  0  0  0  0  0  0  0
  191.9970  173.4130  145.0410 C   0  0  0  0  0  0  0  0  0  0  0  0
  195.2540  174.9240  145.7480 C   0  0  0  0  0  2  0  0  0  0  0  0
  195.3110  176.0770  144.9630 O   0  0  0  0  0  0  0  0  0  0  0  0
  196.3810  175.7070  143.7030 P   0  0  0  0  0  0  0  0  0  0  0  0
  195.5320  175.0230  142.4080 O   0  0  0  0  0  0  0  0  0  0  0  0
  197.4090  174.7180  144.2000 O   0  0  0  0  0  1  0  0  0  0  0  0
  197.1690  177.1110  143.1800 O   0  0  0  0  0  1  0  0  0  0  0  0
  190.0140  177.1430  145.8850 C   0  0  0  0  0  2  0  0  0  0  0  0
  188.7570  177.4840  145.1520 C   0  0  0  0  0  0  0  0  0  0  0  0
  186.4010  177.9800  145.1540 C   0  0  0  0  0  0  0  0  0  0  0  0
  185.3420  178.1380  146.0760 N   0  0  0  0  0  0  0  0  0  0  0  0
  186.3610  178.0880  143.7640 C   0  0  0  0  0  3  0  0  0  0  0  0
  187.3190  177.6540  147.2260 N   0  0  0  0  0  0  0  0  0  0  0  0
  187.5600  177.8820  143.0580 C   0  0  0  0  0  3  0  0  0  0  0  0
  188.7520  177.5780  143.7490 C   0  0  0  0  0  3  0  0  0  0  0  0
  185.8960  177.9660  147.4200 C   0  0  0  0  0  3  0  0  0  0  0  0
  184.0220  178.6670  145.7770 C   0  0  0  0  0  1  0  0  0  0  0  0
  187.5490  177.6910  145.8240 C   0  0  0  0  0  0  0  0  0  0  0  0
  1  8  1  0  0  0  0
  1  7  1  0  0  0  0
  1 17  1  1  0  0  0
  2 11  1  0  0  0  0
  3  2  2  0  0  0  0
  4 10  1  0  0  0  0
  4  8  1  0  0  0  0
  5  3  1  0  0  0  0
  6  2  1  0  0  0  0
  6  7  1  0  0  0  0
  9 10  1  0  0  0  0
  9  3  1  0  0  0  0
 10  6  2  0  0  0  0
 12 11  1  0  0  0  0
 13 15  1  0  0  0  0
 13 12  1  0  0  0  0
 14 13  2  0  0  0  0
 16 13  1  0  0  0  0
 18 27  1  0  0  0  0
 18 17  1  0  0  0  0
 19 27  2  0  0  0  0
 19 20  1  0  0  0  0
 20 25  1  0  0  0  0
 21 19  1  0  0  0  0
 22 25  2  0  0  0  0
 23 24  1  0  0  0  0
 23 21  2  0  0  0  0
 24 18  2  0  0  0  0
 26 20  1  0  0  0  0
 27 22  1  0  0  0  0
M  END
>  <MODEL>
9

>  <REMARK>
 VINA RESULT:      -7.0      5.121      8.571
  Name = 
  5 active torsions:
  status: ('A' for Active; 'I' for Inactive)
    1  A    between atoms: C_1  and  C_5
    2  A    between atoms: C_2  and  C_5
    3  A    between atoms: C_3  and  C_6
    4  A    between atoms: C_3  and  O_11
    5  A    between atoms: P_4  and  O_11
                            x       y       z     vdW  Elec       q    Type
                         _______ _______ _______ _____ _____    ______ ____

>  <TORSDO>
F 5

$$$$
