=
 OpenBabel11072408523D

 60 66  0  0  1  0  0  0  0  0999 V2000
  190.3110  173.9950  136.9510 C   0  0  0  0  0  2  0  0  0  0  0  0
  189.3290  173.0830  142.0020 C   0  0  1  0  0  3  0  0  0  0  0  0
  189.0190  172.2440  143.2300 C   0  0  0  0  0  2  0  0  0  0  0  0
  189.1210  174.1400  134.9270 O   0  0  0  0  0  0  0  0  0  0  0  0
  190.0140  172.2350  140.9050 C   0  0  1  0  0  3  0  0  0  0  0  0
  189.3060  172.3010  139.5760 C   0  0  0  0  0  3  0  0  0  0  0  0
  191.4020  172.4880  143.7280 O   0  0  0  0  0  0  0  0  0  0  0  0
  191.9650  172.0480  136.8690 O   0  0  0  0  0  0  0  0  0  0  0  0
  191.6180  171.3510  143.0850 O   0  0  0  0  0  0  0  0  0  0  0  0
  189.7770  173.4370  135.6820 C   0  0  0  0  0  0  0  0  0  0  0  0
  190.0050  172.0010  135.3590 C   0  0  0  0  0  2  0  0  0  0  0  0
  192.3190  171.6770  141.9040 C   0  0  1  0  0  3  0  0  0  0  0  0
  191.3960  170.0480  135.7540 C   0  0  0  0  0  1  0  0  0  0  0  0
  192.2270  172.4130  139.5510 C   0  0  0  0  0  2  0  0  0  0  0  0
  191.5360  172.5600  140.9060 C   0  0  1  0  0  3  0  0  0  0  0  0
  190.1180  172.3820  144.2860 C   0  0  0  0  0  2  0  0  0  0  0  0
  192.0920  173.6870  138.7200 C   0  0  0  0  0  2  0  0  0  0  0  0
  190.8420  171.2850  136.4290 C   0  0  1  0  0  0  0  0  0  0  0  0
  189.6200  171.5220  138.5770 C   0  0  0  0  0  0  0  0  0  0  0  0
  191.6930  173.3980  137.2660 C   0  0  2  0  0  3  0  0  0  0  0  0
  189.9930  170.7750  137.5730 C   0  0  0  0  0  3  0  0  0  0  0  0
  188.4670  174.7900  140.5150 O   0  0  0  0  0  1  0  0  0  0  0  0
  188.1590  173.9990  141.6260 C   0  0  2  0  0  3  0  0  0  0  0  0
  187.8020  174.8160  142.7310 O   0  0  0  0  0  0  0  0  0  0  0  0
  188.2530  176.1270  142.8630 C   0  0  0  0  0  0  0  0  0  0  0  0
  189.4730  176.4120  142.6890 O   0  0  0  0  0  0  0  0  0  0  0  0
  187.2770  177.2150  143.2210 C   0  0  2  0  0  0  0  0  0  0  0  0
  185.8940  177.1870  142.5770 C   0  0  1  0  0  3  0  0  0  0  0  0
  184.9520  177.8330  143.3730 O   0  0  0  0  0  1  0  0  0  0  0  0
  186.9280  178.1960  142.1080 C   0  0  2  0  0  3  0  0  0  0  0  0
  187.4270  177.7920  140.8740 O   0  0  0  0  0  1  0  0  0  0  0  0
  187.3910  177.8550  144.4690 O   0  0  0  0  0  0  0  0  0  0  0  0
  187.4570  176.8610  145.4590 C   0  0  2  0  0  3  0  0  0  0  0  0
  185.1970  176.4480  146.1690 O   0  0  0  0  0  1  0  0  0  0  0  0
  186.3880  177.0760  146.5260 C   0  0  0  0  0  2  0  0  0  0  0  0
  188.8550  176.7970  146.0640 C   0  0  0  0  0  2  0  0  0  0  0  0
  189.3620  175.4930  146.0070 O   0  0  0  0  0  0  0  0  0  0  0  0
  189.5260  175.1120  147.3390 C   0  0  0  0  0  2  0  0  0  0  0  0
  190.9600  175.3640  147.7630 C   0  0  0  0  0  1  0  0  0  0  0  0
  193.6970  172.2700  142.2080 C   0  0  0  0  0  2  0  0  0  0  0  0
  194.6750  172.0010  141.0730 C   0  0  2  0  0  3  0  0  0  0  0  0
  195.5790  170.8350  141.4440 C   0  0  0  0  0  1  0  0  0  0  0  0
  195.4520  173.2780  140.6840 C   0  0  2  0  0  3  0  0  0  0  0  0
  195.1580  172.5420  136.1820 C   0  0  0  0  0  3  0  0  0  0  0  0
  195.7050  174.7870  137.3070 C   0  0  0  0  0  3  0  0  0  0  0  0
  196.3820  173.1940  139.4590 C   0  0  2  0  0  0  0  0  0  0  0  0
  195.9260  172.4970  138.3330 C   0  0  0  0  0  0  0  0  0  0  0  0
  195.2540  174.0020  136.1840 C   0  0  0  0  0  3  0  0  0  0  0  0
  197.8770  173.1270  139.6810 C   0  0  0  0  0  1  0  0  0  0  0  0
  196.0260  173.9630  138.3380 C   0  0  0  0  0  0  0  0  0  0  0  0
  195.5000  171.7090  137.3050 C   0  0  0  0  0  3  0  0  0  0  0  0
  196.0430  174.0690  141.8580 C   0  0  0  0  0  2  0  0  0  0  0  0
  195.8320  175.5800  141.7240 C   0  0  1  0  0  3  0  0  0  0  0  0
  194.4650  175.9060  141.1150 C   0  0  0  0  0  2  0  0  0  0  0  0
  194.8810  175.9450  144.0530 C   0  0  2  0  0  3  0  0  0  0  0  0
  195.0670  176.6930  145.2220 O   0  0  0  0  0  1  0  0  0  0  0  0
  196.0130  176.2850  143.0770 C   0  0  0  0  0  2  0  0  0  0  0  0
  193.3320  175.5690  142.0880 C   0  0  0  0  0  2  0  0  0  0  0  0
  193.5160  176.2770  143.4280 C   0  0  1  0  0  3  0  0  0  0  0  0
  192.3930  175.8570  144.3580 C   0  0  0  0  0  1  0  0  0  0  0  0
  2 23  1  6  0  0  0
  2  3  1  0  0  0  0
  3 16  1  0  0  0  0
  4 10  2  0  0  0  0
  5  6  1  6  0  0  0
  5 15  1  0  0  0  0
  5  2  1  0  0  0  0
  7 16  1  0  0  0  0
  8 20  1  0  0  0  0
  9  7  1  0  0  0  0
 10  1  1  0  0  0  0
 11 10  1  0  0  0  0
 11 18  1  0  0  0  0
 12 40  1  1  0  0  0
 12  9  1  0  0  0  0
 15 14  1  6  0  0  0
 15 12  1  0  0  0  0
 17 14  1  0  0  0  0
 18 13  1  6  0  0  0
 18  8  1  0  0  0  0
 18 21  1  0  0  0  0
 19  6  2  0  0  0  0
 20  1  1  1  0  0  0
 20 17  1  0  0  0  0
 21 19  2  0  0  0  0
 23 22  1  6  0  0  0
 23 24  1  0  0  0  0
 24 25  1  0  0  0  0
 26 25  2  0  0  0  0
 27 25  1  6  0  0  0
 27 32  1  0  0  0  0
 28 27  1  0  0  0  0
 28 29  1  1  0  0  0
 30 31  1  6  0  0  0
 30 28  1  0  0  0  0
 30 27  1  0  0  0  0
 32 33  1  0  0  0  0
 33 36  1  1  0  0  0
 33 35  1  0  0  0  0
 34 35  1  0  0  0  0
 37 36  1  0  0  0  0
 37 38  1  0  0  0  0
 38 39  1  0  0  0  0
 41 42  1  1  0  0  0
 41 40  1  0  0  0  0
 43 41  1  0  0  0  0
 43 52  1  1  0  0  0
 44 48  2  0  0  0  0
 44 51  1  0  0  0  0
 45 50  2  0  0  0  0
 46 49  1  1  0  0  0
 46 43  1  0  0  0  0
 47 50  1  0  0  0  0
 47 46  1  0  0  0  0
 48 45  1  0  0  0  0
 50 46  1  0  0  0  0
 51 47  2  0  0  0  0
 53 52  1  1  0  0  0
 53 57  1  0  0  0  0
 54 53  1  0  0  0  0
 54 58  1  0  0  0  0
 55 56  1  1  0  0  0
 57 55  1  0  0  0  0
 58 59  1  0  0  0  0
 59 55  1  0  0  0  0
 59 60  1  1  0  0  0
M  END
>  <MODEL>
1

>  <REMARK>
 VINA RESULT:      -6.9      0.000      0.000
  Name = 
  16 active torsions:
  status: ('A' for Active; 'I' for Inactive)
    1  A    between atoms: C_2  and  O_52
    2  A    between atoms: C_4  and  C_19
    3  A    between atoms: C_5  and  C_48
    4  A    between atoms: C_7  and  C_11
    5  A    between atoms: C_7  and  O_27
    6  A    between atoms: C_11  and  O_45
    7  A    between atoms: C_14  and  C_20
    8  A    between atoms: C_14  and  C_32
    9  A    between atoms: C_19  and  C_23
   10  A    between atoms: C_20  and  C_23
   11  A    between atoms: C_23  and  C_26
   12  A    between atoms: O_27  and  C_48
   13  A    between atoms: C_29  and  C_39
   14  A    between atoms: C_29  and  O_52
   15  A    between atoms: C_39  and  O_45
   16  A    between atoms: C_39  and  C_47
                            x       y       z     vdW  Elec       q    Type
                         _______ _______ _______ _____ _____    ______ ____

>  <TORSDO>
F 16

$$$$
=
 OpenBabel11072408523D

 60 66  0  0  1  0  0  0  0  0999 V2000
  195.3010  173.5080  141.3430 C   0  0  0  0  0  2  0  0  0  0  0  0
  190.2710  172.1160  141.6080 C   0  0  1  0  0  3  0  0  0  0  0  0
  188.9630  171.7490  142.2880 C   0  0  0  0  0  2  0  0  0  0  0  0
  197.4160  172.5080  141.5820 O   0  0  0  0  0  0  0  0  0  0  0  0
  191.1690  172.9580  142.5440 C   0  0  1  0  0  3  0  0  0  0  0  0
  192.5480  172.3770  142.7250 C   0  0  0  0  0  3  0  0  0  0  0  0
  188.3090  174.0520  141.7830 O   0  0  0  0  0  0  0  0  0  0  0  0
  194.9550  175.2910  143.1400 O   0  0  0  0  0  0  0  0  0  0  0  0
  188.7560  174.4040  142.9790 O   0  0  0  0  0  0  0  0  0  0  0  0
  196.5130  173.1350  142.1160 C   0  0  0  0  0  0  0  0  0  0  0  0
  196.6010  173.4910  143.5600 C   0  0  0  0  0  2  0  0  0  0  0  0
  189.9090  175.1910  142.7660 C   0  0  1  0  0  3  0  0  0  0  0  0
  195.8050  174.9680  145.3170 C   0  0  0  0  0  1  0  0  0  0  0  0
  192.3450  175.2720  142.3800 C   0  0  0  0  0  2  0  0  0  0  0  0
  191.0890  174.4470  142.1000 C   0  0  1  0  0  3  0  0  0  0  0  0
  187.8500  172.7310  141.9130 C   0  0  0  0  0  2  0  0  0  0  0  0
  193.3630  175.1300  141.2510 C   0  0  0  0  0  2  0  0  0  0  0  0
  195.3700  174.2700  144.0460 C   0  0  1  0  0  0  0  0  0  0  0  0
  193.3910  172.8360  143.6090 C   0  0  0  0  0  0  0  0  0  0  0  0
  194.7860  174.8920  141.7750 C   0  0  2  0  0  3  0  0  0  0  0  0
  194.2380  173.3520  144.4570 C   0  0  0  0  0  3  0  0  0  0  0  0
  191.6790  170.1470  141.6890 O   0  0  0  0  0  1  0  0  0  0  0  0
  190.8750  170.9280  140.8530 C   0  0  2  0  0  3  0  0  0  0  0  0
  191.6230  171.3860  139.7350 O   0  0  0  0  0  0  0  0  0  0  0  0
  191.6170  170.7190  138.5140 C   0  0  0  0  0  0  0  0  0  0  0  0
  191.7360  169.4610  138.4620 O   0  0  0  0  0  0  0  0  0  0  0  0
  191.4700  171.5070  137.2400 C   0  0  2  0  0  0  0  0  0  0  0  0
  192.5430  171.3570  136.1670 C   0  0  1  0  0  3  0  0  0  0  0  0
  192.0360  171.6360  134.9000 O   0  0  0  0  0  1  0  0  0  0  0  0
  192.4900  172.6160  137.0140 C   0  0  2  0  0  3  0  0  0  0  0  0
  193.5230  172.5790  137.9460 O   0  0  0  0  0  1  0  0  0  0  0  0
  190.1820  171.8820  136.8110 O   0  0  0  0  0  0  0  0  0  0  0  0
  189.9840  173.2260  137.1670 C   0  0  2  0  0  3  0  0  0  0  0  0
  188.0580  174.3070  138.1190 O   0  0  0  0  0  1  0  0  0  0  0  0
  189.0390  173.3460  138.3580 C   0  0  0  0  0  2  0  0  0  0  0  0
  189.4920  174.0330  135.9710 C   0  0  0  0  0  2  0  0  0  0  0  0
  190.2600  175.1910  135.8020 O   0  0  0  0  0  0  0  0  0  0  0  0
  189.6320  175.8930  134.7720 C   0  0  0  0  0  2  0  0  0  0  0  0
  188.2060  176.2120  135.1750 C   0  0  0  0  0  1  0  0  0  0  0  0
  189.5820  176.4900  142.0270 C   0  0  0  0  0  2  0  0  0  0  0  0
  189.3930  177.6450  143.0000 C   0  0  2  0  0  3  0  0  0  0  0  0
  190.7510  178.1360  143.4790 C   0  0  0  0  0  1  0  0  0  0  0  0
  188.4400  177.2610  144.1530 C   0  0  2  0  0  3  0  0  0  0  0  0
  184.5330  177.8350  146.4550 C   0  0  0  0  0  3  0  0  0  0  0  0
  185.6020  179.5410  144.8570 C   0  0  0  0  0  3  0  0  0  0  0  0
  186.9270  177.3270  143.8720 C   0  0  2  0  0  0  0  0  0  0  0  0
  186.0490  177.0620  144.9310 C   0  0  0  0  0  0  0  0  0  0  0  0
  184.7120  179.1920  145.9370 C   0  0  0  0  0  3  0  0  0  0  0  0
  186.4180  176.9070  142.5100 C   0  0  0  0  0  1  0  0  0  0  0  0
  186.2290  178.4230  144.4060 C   0  0  0  0  0  0  0  0  0  0  0  0
  185.2290  176.6800  145.9510 C   0  0  0  0  0  3  0  0  0  0  0  0
  188.8370  177.7910  145.5360 C   0  0  0  0  0  2  0  0  0  0  0  0
  188.6830  176.7430  146.6430 C   0  0  1  0  0  3  0  0  0  0  0  0
  189.1120  175.3530  146.1660 C   0  0  0  0  0  2  0  0  0  0  0  0
  190.9740  177.0910  147.6890 C   0  0  2  0  0  3  0  0  0  0  0  0
  191.6050  177.3880  148.9030 O   0  0  0  0  0  1  0  0  0  0  0  0
  189.4580  177.1540  147.9040 C   0  0  0  0  0  2  0  0  0  0  0  0
  190.6270  175.2850  145.9510 C   0  0  0  0  0  2  0  0  0  0  0  0
  191.3890  175.6900  147.2100 C   0  0  1  0  0  3  0  0  0  0  0  0
  192.8770  175.6540  146.9100 C   0  0  0  0  0  1  0  0  0  0  0  0
  1 20  1  0  0  0  0
  1 10  1  0  0  0  0
  2 23  1  1  0  0  0
  2  3  1  0  0  0  0
  2  5  1  0  0  0  0
  4 10  2  0  0  0  0
  5  6  1  6  0  0  0
  6 19  2  0  0  0  0
  7 16  1  0  0  0  0
  7  9  1  0  0  0  0
  8 18  1  0  0  0  0
 10 11  1  0  0  0  0
 11 18  1  0  0  0  0
 12 40  1  6  0  0  0
 12  9  1  0  0  0  0
 15 14  1  1  0  0  0
 15  5  1  0  0  0  0
 15 12  1  0  0  0  0
 16  3  1  0  0  0  0
 17 14  1  0  0  0  0
 18 21  1  0  0  0  0
 18 13  1  1  0  0  0
 19 21  2  0  0  0  0
 20 17  1  1  0  0  0
 20  8  1  0  0  0  0
 23 22  1  1  0  0  0
 24 23  1  0  0  0  0
 25 24  1  0  0  0  0
 26 25  2  0  0  0  0
 27 32  1  6  0  0  0
 27 25  1  0  0  0  0
 28 29  1  6  0  0  0
 28 30  1  0  0  0  0
 28 27  1  0  0  0  0
 30 27  1  0  0  0  0
 30 31  1  1  0  0  0
 32 33  1  0  0  0  0
 33 36  1  6  0  0  0
 33 35  1  0  0  0  0
 34 35  1  0  0  0  0
 37 36  1  0  0  0  0
 38 39  1  0  0  0  0
 38 37  1  0  0  0  0
 40 41  1  0  0  0  0
 41 42  1  1  0  0  0
 41 43  1  0  0  0  0
 43 52  1  1  0  0  0
 45 48  1  0  0  0  0
 46 49  1  6  0  0  0
 46 43  1  0  0  0  0
 46 50  1  0  0  0  0
 46 47  1  0  0  0  0
 47 51  2  0  0  0  0
 48 44  2  0  0  0  0
 50 45  2  0  0  0  0
 50 47  1  0  0  0  0
 51 44  1  0  0  0  0
 53 52  1  6  0  0  0
 53 57  1  0  0  0  0
 54 53  1  0  0  0  0
 55 57  1  0  0  0  0
 55 56  1  1  0  0  0
 58 54  1  0  0  0  0
 58 59  1  0  0  0  0
 59 60  1  6  0  0  0
 59 55  1  0  0  0  0
M  END
>  <MODEL>
2

>  <REMARK>
 VINA RESULT:      -6.8      2.210      8.800
  Name = 
  16 active torsions:
  status: ('A' for Active; 'I' for Inactive)
    1  A    between atoms: C_2  and  O_52
    2  A    between atoms: C_4  and  C_19
    3  A    between atoms: C_5  and  C_48
    4  A    between atoms: C_7  and  C_11
    5  A    between atoms: C_7  and  O_27
    6  A    between atoms: C_11  and  O_45
    7  A    between atoms: C_14  and  C_20
    8  A    between atoms: C_14  and  C_32
    9  A    between atoms: C_19  and  C_23
   10  A    between atoms: C_20  and  C_23
   11  A    between atoms: C_23  and  C_26
   12  A    between atoms: O_27  and  C_48
   13  A    between atoms: C_29  and  C_39
   14  A    between atoms: C_29  and  O_52
   15  A    between atoms: C_39  and  O_45
   16  A    between atoms: C_39  and  C_47
                            x       y       z     vdW  Elec       q    Type
                         _______ _______ _______ _____ _____    ______ ____

>  <TORSDO>
F 16

$$$$
=
 OpenBabel11072408523D

 60 66  0  0  1  0  0  0  0  0999 V2000
  190.3200  171.0170  138.0500 C   0  0  0  0  0  2  0  0  0  0  0  0
  191.9120  173.2580  142.4940 C   0  0  1  0  0  3  0  0  0  0  0  0
  192.5020  174.3530  143.3660 C   0  0  0  0  0  2  0  0  0  0  0  0
  191.2690  169.9520  136.1800 O   0  0  0  0  0  0  0  0  0  0  0  0
  191.3340  173.8400  141.1830 C   0  0  1  0  0  3  0  0  0  0  0  0
  191.8920  173.1850  139.9460 C   0  0  0  0  0  3  0  0  0  0  0  0
  190.1760  174.8430  143.9420 O   0  0  0  0  0  0  0  0  0  0  0  0
  189.1240  173.1600  137.3390 O   0  0  0  0  0  0  0  0  0  0  0  0
  190.1550  175.7290  142.9580 O   0  0  0  0  0  0  0  0  0  0  0  0
  190.8490  170.9940  136.6630 C   0  0  0  0  0  0  0  0  0  0  0  0
  190.9090  172.2590  135.8790 C   0  0  0  0  0  2  0  0  0  0  0  0
  189.2990  175.2110  141.9620 C   0  0  1  0  0  3  0  0  0  0  0  0
  190.0110  174.5010  135.6120 C   0  0  0  0  0  1  0  0  0  0  0  0
  189.0250  173.7530  139.9900 C   0  0  0  0  0  2  0  0  0  0  0  0
  189.7830  173.8960  141.3090 C   0  0  1  0  0  3  0  0  0  0  0  0
  191.4960  174.8230  144.4190 C   0  0  0  0  0  2  0  0  0  0  0  0
  188.8090  172.2840  139.6330 C   0  0  0  0  0  2  0  0  0  0  0  0
  190.3420  173.4560  136.6570 C   0  0  1  0  0  0  0  0  0  0  0  0
  191.6670  173.6500  138.7470 C   0  0  0  0  0  0  0  0  0  0  0  0
  189.1320  171.9870  138.1610 C   0  0  2  0  0  3  0  0  0  0  0  0
  191.3780  174.0970  137.5550 C   0  0  0  0  0  3  0  0  0  0  0  0
  192.1120  170.8550  142.7260 O   0  0  0  0  0  1  0  0  0  0  0  0
  192.8200  172.0250  142.4340 C   0  0  2  0  0  3  0  0  0  0  0  0
  193.9130  172.1770  143.3280 O   0  0  0  0  0  0  0  0  0  0  0  0
  195.0910  171.4480  143.1930 C   0  0  0  0  0  0  0  0  0  0  0  0
  195.3730  170.8680  142.1050 O   0  0  0  0  0  0  0  0  0  0  0  0
  196.0380  171.3470  144.3590 C   0  0  2  0  0  0  0  0  0  0  0  0
  196.3410  169.9650  144.9280 C   0  0  1  0  0  3  0  0  0  0  0  0
  197.5860  169.9350  145.5510 O   0  0  0  0  0  1  0  0  0  0  0  0
  195.4260  170.9120  145.6850 C   0  0  2  0  0  3  0  0  0  0  0  0
  194.1110  170.4810  145.5420 O   0  0  0  0  0  1  0  0  0  0  0  0
  197.0180  172.3420  144.5340 O   0  0  0  0  0  0  0  0  0  0  0  0
  196.4510  173.5740  144.1690 C   0  0  2  0  0  3  0  0  0  0  0  0
  197.9410  173.2440  142.3100 O   0  0  0  0  0  1  0  0  0  0  0  0
  197.2090  174.2040  143.0040 C   0  0  0  0  0  2  0  0  0  0  0  0
  196.3800  174.5100  145.3700 C   0  0  0  0  0  2  0  0  0  0  0  0
  195.0510  174.7410  145.7430 O   0  0  0  0  0  0  0  0  0  0  0  0
  194.8190  176.0820  145.4360 C   0  0  0  0  0  2  0  0  0  0  0  0
  194.2630  176.7900  146.6560 C   0  0  0  0  0  1  0  0  0  0  0  0
  187.8580  175.0860  142.4610 C   0  0  0  0  0  2  0  0  0  0  0  0
  186.9970  176.2330  141.9520 C   0  0  2  0  0  3  0  0  0  0  0  0
  187.7850  177.0530  140.9410 C   0  0  0  0  0  1  0  0  0  0  0  0
  186.4360  177.0760  143.1190 C   0  0  2  0  0  3  0  0  0  0  0  0
  182.9560  178.4460  140.4920 C   0  0  0  0  0  3  0  0  0  0  0  0
  182.9520  178.3430  143.0590 C   0  0  0  0  0  3  0  0  0  0  0  0
  185.6970  178.3790  142.7590 C   0  0  2  0  0  0  0  0  0  0  0  0
  184.9750  178.4160  141.5590 C   0  0  0  0  0  0  0  0  0  0  0  0
  182.2760  178.3920  141.7860 C   0  0  0  0  0  3  0  0  0  0  0  0
  186.3070  179.7020  143.1700 C   0  0  0  0  0  1  0  0  0  0  0  0
  184.2960  178.3630  142.8620 C   0  0  0  0  0  0  0  0  0  0  0  0
  184.3860  178.4550  140.3300 C   0  0  0  0  0  3  0  0  0  0  0  0
  187.3580  177.2040  144.3380 C   0  0  0  0  0  2  0  0  0  0  0  0
  186.8670  176.3950  145.5430 C   0  0  1  0  0  3  0  0  0  0  0  0
  187.8170  176.5280  146.7360 C   0  0  0  0  0  2  0  0  0  0  0  0
  185.3820  178.2110  146.5220 C   0  0  2  0  0  3  0  0  0  0  0  0
  184.0680  178.4670  146.9360 O   0  0  0  0  0  1  0  0  0  0  0  0
  185.4360  176.7970  145.9320 C   0  0  0  0  0  2  0  0  0  0  0  0
  187.7640  177.9390  147.3300 C   0  0  0  0  0  2  0  0  0  0  0  0
  186.3410  178.3290  147.7190 C   0  0  1  0  0  3  0  0  0  0  0  0
  186.3550  179.7520  148.2460 C   0  0  0  0  0  1  0  0  0  0  0  0
  2 23  1  6  0  0  0
  2  3  1  0  0  0  0
  3 16  1  0  0  0  0
  4 10  2  0  0  0  0
  5  6  1  6  0  0  0
  5 15  1  0  0  0  0
  5  2  1  0  0  0  0
  7 16  1  0  0  0  0
  8 20  1  0  0  0  0
  9  7  1  0  0  0  0
 10  1  1  0  0  0  0
 11 18  1  0  0  0  0
 11 10  1  0  0  0  0
 12 40  1  1  0  0  0
 12  9  1  0  0  0  0
 15 14  1  6  0  0  0
 15 12  1  0  0  0  0
 17 14  1  0  0  0  0
 18 13  1  6  0  0  0
 18  8  1  0  0  0  0
 18 21  1  0  0  0  0
 19  6  2  0  0  0  0
 20  1  1  1  0  0  0
 20 17  1  0  0  0  0
 21 19  2  0  0  0  0
 23 22  1  1  0  0  0
 23 24  1  0  0  0  0
 25 24  1  0  0  0  0
 26 25  2  0  0  0  0
 27 25  1  6  0  0  0
 27 32  1  0  0  0  0
 27 28  1  0  0  0  0
 27 30  1  0  0  0  0
 28 29  1  1  0  0  0
 28 30  1  0  0  0  0
 30 31  1  6  0  0  0
 33 35  1  6  0  0  0
 33 32  1  0  0  0  0
 33 36  1  0  0  0  0
 34 35  1  0  0  0  0
 36 37  1  0  0  0  0
 38 37  1  0  0  0  0
 38 39  1  0  0  0  0
 41 42  1  6  0  0  0
 41 40  1  0  0  0  0
 41 43  1  0  0  0  0
 43 52  1  1  0  0  0
 44 48  1  0  0  0  0
 46 50  1  0  0  0  0
 46 43  1  0  0  0  0
 46 49  1  1  0  0  0
 47 46  1  0  0  0  0
 47 50  2  0  0  0  0
 48 45  2  0  0  0  0
 50 45  1  0  0  0  0
 51 44  2  0  0  0  0
 51 47  1  0  0  0  0
 53 52  1  6  0  0  0
 53 57  1  0  0  0  0
 53 54  1  0  0  0  0
 54 58  1  0  0  0  0
 55 56  1  1  0  0  0
 55 59  1  0  0  0  0
 57 55  1  0  0  0  0
 58 59  1  0  0  0  0
 59 60  1  6  0  0  0
M  END
>  <MODEL>
3

>  <REMARK>
 VINA RESULT:      -6.7      2.403      8.710
  Name = 
  16 active torsions:
  status: ('A' for Active; 'I' for Inactive)
    1  A    between atoms: C_2  and  O_52
    2  A    between atoms: C_4  and  C_19
    3  A    between atoms: C_5  and  C_48
    4  A    between atoms: C_7  and  C_11
    5  A    between atoms: C_7  and  O_27
    6  A    between atoms: C_11  and  O_45
    7  A    between atoms: C_14  and  C_20
    8  A    between atoms: C_14  and  C_32
    9  A    between atoms: C_19  and  C_23
   10  A    between atoms: C_20  and  C_23
   11  A    between atoms: C_23  and  C_26
   12  A    between atoms: O_27  and  C_48
   13  A    between atoms: C_29  and  C_39
   14  A    between atoms: C_29  and  O_52
   15  A    between atoms: C_39  and  O_45
   16  A    between atoms: C_39  and  C_47
                            x       y       z     vdW  Elec       q    Type
                         _______ _______ _______ _____ _____    ______ ____

>  <TORSDO>
F 16

$$$$
=
 OpenBabel11072408523D

 60 66  0  0  1  0  0  0  0  0999 V2000
  195.7230  175.0220  139.2450 C   0  0  0  0  0  2  0  0  0  0  0  0
  193.2420  170.6120  140.5500 C   0  0  1  0  0  3  0  0  0  0  0  0
  192.9760  169.3510  141.3550 C   0  0  0  0  0  2  0  0  0  0  0  0
  197.6900  175.6690  138.1280 O   0  0  0  0  0  0  0  0  0  0  0  0
  194.0270  171.6510  141.3840 C   0  0  1  0  0  3  0  0  0  0  0  0
  195.2930  172.1190  140.7120 C   0  0  0  0  0  3  0  0  0  0  0  0
  191.2130  170.6700  142.4230 O   0  0  0  0  0  0  0  0  0  0  0  0
  195.8110  175.7560  141.6920 O   0  0  0  0  0  0  0  0  0  0  0  0
  192.0830  171.0080  143.3620 O   0  0  0  0  0  0  0  0  0  0  0  0
  197.1530  175.4230  139.1990 C   0  0  0  0  0  0  0  0  0  0  0  0
  197.9410  175.4780  140.4620 C   0  0  0  0  0  2  0  0  0  0  0  0
  192.3500  172.3830  143.1940 C   0  0  1  0  0  3  0  0  0  0  0  0
  197.8490  175.6980  142.8790 C   0  0  0  0  0  1  0  0  0  0  0  0
  193.6570  174.1370  142.0520 C   0  0  0  0  0  2  0  0  0  0  0  0
  193.0370  172.7540  141.8600 C   0  0  1  0  0  3  0  0  0  0  0  0
  191.5850  169.3860  141.9920 C   0  0  0  0  0  2  0  0  0  0  0  0
  193.6860  174.9180  140.7390 C   0  0  0  0  0  2  0  0  0  0  0  0
  197.0950  175.1320  141.6950 C   0  0  1  0  0  0  0  0  0  0  0  0
  196.1800  172.8540  141.3260 C   0  0  0  0  0  0  0  0  0  0  0  0
  195.0390  175.6010  140.4950 C   0  0  2  0  0  3  0  0  0  0  0  0
  197.0230  173.6400  141.9390 C   0  0  0  0  0  3  0  0  0  0  0  0
  195.0430  169.9100  139.0910 O   0  0  0  0  0  1  0  0  0  0  0  0
  193.6990  170.2920  139.1230 C   0  0  2  0  0  3  0  0  0  0  0  0
  193.4850  171.4130  138.2770 O   0  0  0  0  0  0  0  0  0  0  0  0
  192.8290  171.3060  137.0530 C   0  0  0  0  0  0  0  0  0  0  0  0
  193.4230  171.5900  135.9730 O   0  0  0  0  0  0  0  0  0  0  0  0
  191.3960  170.8490  137.0180 C   0  0  2  0  0  0  0  0  0  0  0  0
  191.0430  169.5190  137.6750 C   0  0  1  0  0  3  0  0  0  0  0  0
  189.7100  169.4920  138.0800 O   0  0  0  0  0  1  0  0  0  0  0  0
  191.1020  169.6230  136.1610 C   0  0  2  0  0  3  0  0  0  0  0  0
  192.2650  169.0050  135.7110 O   0  0  0  0  0  1  0  0  0  0  0  0
  190.3720  171.8110  136.9250 O   0  0  0  0  0  0  0  0  0  0  0  0
  190.8250  172.9850  137.5490 C   0  0  2  0  0  3  0  0  0  0  0  0
  189.0590  172.5380  139.1190 O   0  0  0  0  0  1  0  0  0  0  0  0
  190.3450  173.0590  138.9950 C   0  0  0  0  0  2  0  0  0  0  0  0
  190.4080  174.2140  136.7500 C   0  0  0  0  0  2  0  0  0  0  0  0
  191.4830  174.7100  136.0030 O   0  0  0  0  0  0  0  0  0  0  0  0
  192.5060  174.9060  136.9310 C   0  0  0  0  0  2  0  0  0  0  0  0
  193.3750  176.0660  136.4870 C   0  0  0  0  0  1  0  0  0  0  0  0
  191.1030  173.2370  143.4330 C   0  0  0  0  0  2  0  0  0  0  0  0
  190.7000  173.2260  144.9000 C   0  0  2  0  0  3  0  0  0  0  0  0
  189.3910  172.4670  145.0650 C   0  0  0  0  0  1  0  0  0  0  0  0
  190.6560  174.6560  145.4830 C   0  0  2  0  0  3  0  0  0  0  0  0
  195.2120  174.9570  145.2900 C   0  0  0  0  0  3  0  0  0  0  0  0
  193.5730  176.9370  145.2980 C   0  0  0  0  0  3  0  0  0  0  0  0
  191.8290  175.0900  146.3820 C   0  0  2  0  0  0  0  0  0  0  0  0
  193.1030  174.5910  146.0880 C   0  0  0  0  0  0  0  0  0  0  0  0
  194.8650  176.3550  145.0300 C   0  0  0  0  0  3  0  0  0  0  0  0
  191.5690  175.3330  147.8540 C   0  0  0  0  0  1  0  0  0  0  0  0
  192.7510  175.9930  145.8300 C   0  0  0  0  0  0  0  0  0  0  0  0
  194.3030  173.9890  145.8460 C   0  0  0  0  0  3  0  0  0  0  0  0
  189.2830  175.1140  145.9920 C   0  0  0  0  0  2  0  0  0  0  0  0
  189.1270  176.6380  145.9940 C   0  0  1  0  0  3  0  0  0  0  0  0
  189.3400  177.2280  144.5980 C   0  0  0  0  0  2  0  0  0  0  0  0
  186.6120  176.6700  145.6250 C   0  0  2  0  0  3  0  0  0  0  0  0
  185.4170  177.1610  146.1670 O   0  0  0  0  0  1  0  0  0  0  0  0
  187.7620  177.0520  146.5640 C   0  0  0  0  0  2  0  0  0  0  0  0
  188.1920  176.8500  143.6570 C   0  0  0  0  0  2  0  0  0  0  0  0
  186.8400  177.2700  144.2270 C   0  0  1  0  0  3  0  0  0  0  0  0
  185.7490  176.8170  143.2740 C   0  0  0  0  0  1  0  0  0  0  0  0
  2 23  1  6  0  0  0
  2  3  1  0  0  0  0
  2  5  1  0  0  0  0
  3 16  1  0  0  0  0
  4 10  2  0  0  0  0
  5  6  1  6  0  0  0
  5 15  1  0  0  0  0
  6 19  2  0  0  0  0
  7  9  1  0  0  0  0
  8 18  1  0  0  0  0
 10  1  1  0  0  0  0
 10 11  1  0  0  0  0
 11 18  1  0  0  0  0
 12  9  1  0  0  0  0
 12 40  1  6  0  0  0
 15 14  1  1  0  0  0
 15 12  1  0  0  0  0
 16  7  1  0  0  0  0
 17 14  1  0  0  0  0
 18 21  1  0  0  0  0
 18 13  1  1  0  0  0
 19 21  2  0  0  0  0
 20  1  1  6  0  0  0
 20 17  1  0  0  0  0
 20  8  1  0  0  0  0
 23 22  1  1  0  0  0
 24 23  1  0  0  0  0
 25 24  1  0  0  0  0
 26 25  2  0  0  0  0
 27 32  1  1  0  0  0
 27 25  1  0  0  0  0
 27 28  1  0  0  0  0
 28 29  1  6  0  0  0
 30 31  1  1  0  0  0
 30 27  1  0  0  0  0
 30 28  1  0  0  0  0
 32 33  1  0  0  0  0
 33 36  1  6  0  0  0
 33 35  1  0  0  0  0
 35 34  1  0  0  0  0
 37 36  1  0  0  0  0
 37 38  1  0  0  0  0
 39 38  1  0  0  0  0
 40 41  1  0  0  0  0
 41 42  1  6  0  0  0
 41 43  1  0  0  0  0
 43 52  1  1  0  0  0
 43 46  1  0  0  0  0
 44 51  1  0  0  0  0
 45 50  2  0  0  0  0
 46 49  1  1  0  0  0
 47 46  1  0  0  0  0
 48 44  2  0  0  0  0
 48 45  1  0  0  0  0
 50 47  1  0  0  0  0
 50 46  1  0  0  0  0
 51 47  2  0  0  0  0
 53 52  1  6  0  0  0
 53 57  1  0  0  0  0
 54 53  1  0  0  0  0
 55 56  1  1  0  0  0
 55 57  1  0  0  0  0
 58 59  1  0  0  0  0
 58 54  1  0  0  0  0
 59 60  1  6  0  0  0
 59 55  1  0  0  0  0
M  END
>  <MODEL>
4

>  <REMARK>
 VINA RESULT:      -6.7      2.175      8.091
  Name = 
  16 active torsions:
  status: ('A' for Active; 'I' for Inactive)
    1  A    between atoms: C_2  and  O_52
    2  A    between atoms: C_4  and  C_19
    3  A    between atoms: C_5  and  C_48
    4  A    between atoms: C_7  and  C_11
    5  A    between atoms: C_7  and  O_27
    6  A    between atoms: C_11  and  O_45
    7  A    between atoms: C_14  and  C_20
    8  A    between atoms: C_14  and  C_32
    9  A    between atoms: C_19  and  C_23
   10  A    between atoms: C_20  and  C_23
   11  A    between atoms: C_23  and  C_26
   12  A    between atoms: O_27  and  C_48
   13  A    between atoms: C_29  and  C_39
   14  A    between atoms: C_29  and  O_52
   15  A    between atoms: C_39  and  O_45
   16  A    between atoms: C_39  and  C_47
                            x       y       z     vdW  Elec       q    Type
                         _______ _______ _______ _____ _____    ______ ____

>  <TORSDO>
F 16

$$$$
=
 OpenBabel11072408523D

 60 66  0  0  1  0  0  0  0  0999 V2000
  190.2020  173.9770  136.7240 C   0  0  0  0  0  2  0  0  0  0  0  0
  189.3420  173.2140  141.8210 C   0  0  1  0  0  3  0  0  0  0  0  0
  189.0090  172.4180  143.0720 C   0  0  0  0  0  2  0  0  0  0  0  0
  188.9510  174.2010  134.7440 O   0  0  0  0  0  0  0  0  0  0  0  0
  189.9080  172.2970  140.7120 C   0  0  1  0  0  3  0  0  0  0  0  0
  189.1580  172.4080  139.4100 C   0  0  0  0  0  3  0  0  0  0  0  0
  191.4210  172.4620  143.4760 O   0  0  0  0  0  0  0  0  0  0  0  0
  191.6780  171.8940  136.6090 O   0  0  0  0  0  0  0  0  0  0  0  0
  191.5130  171.3030  142.8430 O   0  0  0  0  0  0  0  0  0  0  0  0
  189.5730  173.4530  135.4850 C   0  0  0  0  0  0  0  0  0  0  0  0
  189.6640  171.9990  135.1740 C   0  0  0  0  0  2  0  0  0  0  0  0
  192.1940  171.5530  141.6320 C   0  0  1  0  0  3  0  0  0  0  0  0
  190.8960  169.9380  135.5460 C   0  0  0  0  0  1  0  0  0  0  0  0
  192.0740  172.2670  139.2730 C   0  0  0  0  0  2  0  0  0  0  0  0
  191.4510  172.4890  140.6510 C   0  0  1  0  0  3  0  0  0  0  0  0
  190.1560  172.4740  144.0840 C   0  0  0  0  0  2  0  0  0  0  0  0
  192.0170  173.5380  138.4290 C   0  0  0  0  0  2  0  0  0  0  0  0
  190.4780  171.2260  136.2230 C   0  0  1  0  0  0  0  0  0  0  0  0
  189.3640  171.5930  138.4110 C   0  0  0  0  0  0  0  0  0  0  0  0
  191.5390  173.2670  136.9950 C   0  0  2  0  0  3  0  0  0  0  0  0
  189.6320  170.8050  137.4060 C   0  0  0  0  0  3  0  0  0  0  0  0
  188.6780  175.1490  140.5250 O   0  0  0  0  0  1  0  0  0  0  0  0
  188.2420  174.2220  141.4760 C   0  0  2  0  0  3  0  0  0  0  0  0
  187.8020  174.8900  142.6500 O   0  0  0  0  0  0  0  0  0  0  0  0
  188.1650  176.2020  142.9390 C   0  0  0  0  0  0  0  0  0  0  0  0
  189.3800  176.5230  143.0780 O   0  0  0  0  0  0  0  0  0  0  0  0
  187.0960  177.2510  143.0890 C   0  0  2  0  0  0  0  0  0  0  0  0
  185.8990  177.2050  142.1450 C   0  0  1  0  0  3  0  0  0  0  0  0
  184.7780  177.8000  142.7190 O   0  0  0  0  0  1  0  0  0  0  0  0
  186.9770  178.2570  141.9500 C   0  0  2  0  0  3  0  0  0  0  0  0
  187.7590  177.9060  140.8540 O   0  0  0  0  0  1  0  0  0  0  0  0
  186.9000  177.8550  144.3460 O   0  0  0  0  0  0  0  0  0  0  0  0
  186.7700  176.8330  145.3000 C   0  0  2  0  0  3  0  0  0  0  0  0
  185.0050  177.3180  146.8590 O   0  0  0  0  0  1  0  0  0  0  0  0
  185.3100  176.6260  145.6890 C   0  0  0  0  0  2  0  0  0  0  0  0
  187.6450  177.1170  146.5150 C   0  0  0  0  0  2  0  0  0  0  0  0
  188.9640  176.7100  146.2840 O   0  0  0  0  0  0  0  0  0  0  0  0
  188.9450  175.3230  146.4380 C   0  0  0  0  0  2  0  0  0  0  0  0
  189.7750  174.9370  147.6460 C   0  0  0  0  0  1  0  0  0  0  0  0
  193.6280  172.0280  141.8740 C   0  0  0  0  0  2  0  0  0  0  0  0
  193.6570  173.4700  142.3620 C   0  0  2  0  0  3  0  0  0  0  0  0
  194.0760  174.3860  141.2220 C   0  0  0  0  0  1  0  0  0  0  0  0
  194.5360  173.6210  143.6230 C   0  0  2  0  0  3  0  0  0  0  0  0
  192.1560  177.1630  145.2610 C   0  0  0  0  0  3  0  0  0  0  0  0
  193.7290  175.6500  146.6190 C   0  0  0  0  0  3  0  0  0  0  0  0
  194.7900  175.0490  144.1410 C   0  0  2  0  0  0  0  0  0  0  0  0
  193.7240  175.9560  144.1190 C   0  0  0  0  0  0  0  0  0  0  0  0
  192.6440  176.5950  146.5190 C   0  0  0  0  0  3  0  0  0  0  0  0
  196.1540  175.6700  143.9290 C   0  0  0  0  0  1  0  0  0  0  0  0
  194.2180  175.3860  145.3790 C   0  0  0  0  0  0  0  0  0  0  0  0
  192.7000  176.8440  143.9670 C   0  0  0  0  0  3  0  0  0  0  0  0
  195.7720  172.7140  143.6730 C   0  0  0  0  0  2  0  0  0  0  0  0
  196.0660  172.1860  145.0800 C   0  0  1  0  0  3  0  0  0  0  0  0
  194.7840  171.7680  145.8040 C   0  0  0  0  0  2  0  0  0  0  0  0
  196.4700  169.7700  144.4010 C   0  0  2  0  0  3  0  0  0  0  0  0
  197.4140  168.7380  144.4800 O   0  0  0  0  0  1  0  0  0  0  0  0
  197.0740  171.0270  145.0350 C   0  0  0  0  0  2  0  0  0  0  0  0
  194.1780  170.5100  145.1750 C   0  0  0  0  0  2  0  0  0  0  0  0
  195.1840  169.3620  145.1380 C   0  0  1  0  0  3  0  0  0  0  0  0
  194.5370  168.1710  144.4550 C   0  0  0  0  0  1  0  0  0  0  0  0
  2 23  1  6  0  0  0
  2  3  1  0  0  0  0
  3 16  1  0  0  0  0
  4 10  2  0  0  0  0
  5  6  1  6  0  0  0
  5  2  1  0  0  0  0
  7 16  1  0  0  0  0
  8 20  1  0  0  0  0
  9  7  1  0  0  0  0
 10  1  1  0  0  0  0
 11 10  1  0  0  0  0
 11 18  1  0  0  0  0
 12 40  1  1  0  0  0
 12  9  1  0  0  0  0
 15 14  1  6  0  0  0
 15  5  1  0  0  0  0
 15 12  1  0  0  0  0
 17 14  1  0  0  0  0
 18 13  1  6  0  0  0
 18  8  1  0  0  0  0
 18 21  1  0  0  0  0
 19  6  2  0  0  0  0
 20  1  1  1  0  0  0
 20 17  1  0  0  0  0
 21 19  2  0  0  0  0
 23 22  1  6  0  0  0
 23 24  1  0  0  0  0
 24 25  1  0  0  0  0
 25 26  2  0  0  0  0
 27 25  1  6  0  0  0
 27 32  1  0  0  0  0
 28 29  1  1  0  0  0
 28 27  1  0  0  0  0
 30 31  1  6  0  0  0
 30 28  1  0  0  0  0
 30 27  1  0  0  0  0
 32 33  1  0  0  0  0
 33 35  1  1  0  0  0
 33 36  1  0  0  0  0
 35 34  1  0  0  0  0
 37 38  1  0  0  0  0
 37 36  1  0  0  0  0
 38 39  1  0  0  0  0
 40 41  1  0  0  0  0
 41 42  1  6  0  0  0
 41 43  1  0  0  0  0
 43 52  1  6  0  0  0
 43 46  1  0  0  0  0
 44 48  1  0  0  0  0
 46 49  1  6  0  0  0
 46 50  1  0  0  0  0
 47 46  1  0  0  0  0
 47 50  2  0  0  0  0
 48 45  2  0  0  0  0
 50 45  1  0  0  0  0
 51 47  1  0  0  0  0
 51 44  2  0  0  0  0
 53 52  1  6  0  0  0
 53 54  1  0  0  0  0
 55 56  1  1  0  0  0
 55 57  1  0  0  0  0
 55 59  1  0  0  0  0
 57 53  1  0  0  0  0
 58 54  1  0  0  0  0
 59 60  1  6  0  0  0
 59 58  1  0  0  0  0
M  END
>  <MODEL>
5

>  <REMARK>
 VINA RESULT:      -6.5      1.793      4.021
  Name = 
  16 active torsions:
  status: ('A' for Active; 'I' for Inactive)
    1  A    between atoms: C_2  and  O_52
    2  A    between atoms: C_4  and  C_19
    3  A    between atoms: C_5  and  C_48
    4  A    between atoms: C_7  and  C_11
    5  A    between atoms: C_7  and  O_27
    6  A    between atoms: C_11  and  O_45
    7  A    between atoms: C_14  and  C_20
    8  A    between atoms: C_14  and  C_32
    9  A    between atoms: C_19  and  C_23
   10  A    between atoms: C_20  and  C_23
   11  A    between atoms: C_23  and  C_26
   12  A    between atoms: O_27  and  C_48
   13  A    between atoms: C_29  and  C_39
   14  A    between atoms: C_29  and  O_52
   15  A    between atoms: C_39  and  O_45
   16  A    between atoms: C_39  and  C_47
                            x       y       z     vdW  Elec       q    Type
                         _______ _______ _______ _____ _____    ______ ____

>  <TORSDO>
F 16

$$$$
=
 OpenBabel11072408523D

 60 66  0  0  1  0  0  0  0  0999 V2000
  190.9260  170.9940  140.5020 C   0  0  0  0  0  2  0  0  0  0  0  0
  192.3880  174.9490  143.5890 C   0  0  1  0  0  3  0  0  0  0  0  0
  192.9880  176.3040  143.9240 C   0  0  0  0  0  2  0  0  0  0  0  0
  191.9190  169.1810  139.3800 O   0  0  0  0  0  0  0  0  0  0  0  0
  191.9180  174.8960  142.1160 C   0  0  1  0  0  3  0  0  0  0  0  0
  192.5080  173.7420  141.3460 C   0  0  0  0  0  3  0  0  0  0  0  0
  190.6640  177.0580  144.0430 O   0  0  0  0  0  0  0  0  0  0  0  0
  189.8950  172.6200  138.8220 O   0  0  0  0  0  0  0  0  0  0  0  0
  190.7490  177.4080  142.7690 O   0  0  0  0  0  0  0  0  0  0  0  0
  191.5310  170.3380  139.3150 C   0  0  0  0  0  0  0  0  0  0  0  0
  191.7060  171.1160  138.0560 C   0  0  0  0  0  2  0  0  0  0  0  0
  189.9230  176.5200  142.0460 C   0  0  1  0  0  3  0  0  0  0  0  0
  190.9530  173.0220  136.7520 C   0  0  0  0  0  1  0  0  0  0  0  0
  189.6790  174.3410  140.9160 C   0  0  0  0  0  2  0  0  0  0  0  0
  190.3690  175.0410  142.0860 C   0  0  1  0  0  3  0  0  0  0  0  0
  191.9510  177.2210  144.5780 C   0  0  0  0  0  2  0  0  0  0  0  0
  189.4020  172.8730  141.2350 C   0  0  0  0  0  2  0  0  0  0  0  0
  191.1640  172.5490  138.1740 C   0  0  1  0  0  0  0  0  0  0  0  0
  192.3780  173.6260  140.0530 C   0  0  0  0  0  0  0  0  0  0  0  0
  189.7900  171.9400  140.0790 C   0  0  2  0  0  3  0  0  0  0  0  0
  192.1820  173.4980  138.7680 C   0  0  0  0  0  3  0  0  0  0  0  0
  192.4650  172.9700  144.9830 O   0  0  0  0  0  1  0  0  0  0  0  0
  193.2270  173.7980  144.1530 C   0  0  2  0  0  3  0  0  0  0  0  0
  194.3480  174.3090  144.8600 O   0  0  0  0  0  0  0  0  0  0  0  0
  195.6520  174.1510  144.4000 C   0  0  0  0  0  0  0  0  0  0  0  0
  196.3200  175.1450  143.9950 O   0  0  0  0  0  0  0  0  0  0  0  0
  196.2710  172.7790  144.3830 C   0  0  2  0  0  0  0  0  0  0  0  0
  195.8310  171.7730  145.4410 C   0  0  1  0  0  3  0  0  0  0  0  0
  196.0010  170.4640  144.9970 O   0  0  0  0  0  1  0  0  0  0  0  0
  197.1900  172.4420  145.5510 C   0  0  2  0  0  3  0  0  0  0  0  0
  197.1400  173.4050  146.5550 O   0  0  0  0  0  1  0  0  0  0  0  0
  196.7560  172.2610  143.1670 O   0  0  0  0  0  0  0  0  0  0  0  0
  195.8070  172.5410  142.1700 C   0  0  2  0  0  3  0  0  0  0  0  0
  195.1000  171.1180  140.3650 O   0  0  0  0  0  1  0  0  0  0  0  0
  195.0650  171.2760  141.7480 C   0  0  0  0  0  2  0  0  0  0  0  0
  196.4640  173.2340  140.9820 C   0  0  0  0  0  2  0  0  0  0  0  0
  195.9400  174.5210  140.8070 O   0  0  0  0  0  0  0  0  0  0  0  0
  195.9940  174.7470  139.4300 C   0  0  0  0  0  2  0  0  0  0  0  0
  197.3740  175.2500  139.0550 C   0  0  0  0  0  1  0  0  0  0  0  0
  188.4510  176.6680  142.4380 C   0  0  0  0  0  2  0  0  0  0  0  0
  188.1620  175.9780  143.7640 C   0  0  2  0  0  3  0  0  0  0  0  0
  187.4800  174.6430  143.5070 C   0  0  0  0  0  1  0  0  0  0  0  0
  187.3650  176.8980  144.7150 C   0  0  2  0  0  3  0  0  0  0  0  0
  190.5250  175.3190  147.6150 C   0  0  0  0  0  3  0  0  0  0  0  0
  189.8060  177.7740  147.3650 C   0  0  0  0  0  3  0  0  0  0  0  0
  187.5420  176.6740  146.2290 C   0  0  2  0  0  0  0  0  0  0  0  0
  188.4990  175.7430  146.6480 C   0  0  0  0  0  0  0  0  0  0  0  0
  190.7410  176.7570  147.7800 C   0  0  0  0  0  3  0  0  0  0  0  0
  186.3300  176.7850  147.1290 C   0  0  0  0  0  1  0  0  0  0  0  0
  188.7110  177.1870  146.8140 C   0  0  0  0  0  0  0  0  0  0  0  0
  189.3510  174.7430  147.0150 C   0  0  0  0  0  3  0  0  0  0  0  0
  185.9170  177.1790  144.2950 C   0  0  0  0  0  2  0  0  0  0  0  0
  185.6750  178.6480  143.9350 C   0  0  1  0  0  3  0  0  0  0  0  0
  186.3260  179.0150  142.5990 C   0  0  0  0  0  2  0  0  0  0  0  0
  183.4530  178.2920  142.7540 C   0  0  2  0  0  3  0  0  0  0  0  0
  182.1150  178.7100  142.7560 O   0  0  0  0  0  1  0  0  0  0  0  0
  184.1740  178.9740  143.9220 C   0  0  0  0  0  2  0  0  0  0  0  0
  185.6080  178.3380  141.4290 C   0  0  0  0  0  2  0  0  0  0  0  0
  184.1180  178.6700  141.4200 C   0  0  1  0  0  3  0  0  0  0  0  0
  183.4610  177.9250  140.2720 C   0  0  0  0  0  1  0  0  0  0  0  0
  2  3  1  0  0  0  0
  2 23  1  6  0  0  0
  3 16  1  0  0  0  0
  5  6  1  1  0  0  0
  5  2  1  0  0  0  0
  7 16  1  0  0  0  0
  8 20  1  0  0  0  0
  9  7  1  0  0  0  0
 10  4  2  0  0  0  0
 10  1  1  0  0  0  0
 11 18  1  0  0  0  0
 11 10  1  0  0  0  0
 12 15  1  0  0  0  0
 12 40  1  1  0  0  0
 12  9  1  0  0  0  0
 14 17  1  0  0  0  0
 15 14  1  6  0  0  0
 15  5  1  0  0  0  0
 18 13  1  6  0  0  0
 18 21  1  0  0  0  0
 18  8  1  0  0  0  0
 19  6  2  0  0  0  0
 20  1  1  1  0  0  0
 20 17  1  0  0  0  0
 21 19  2  0  0  0  0
 23 24  1  0  0  0  0
 23 22  1  1  0  0  0
 25 24  1  0  0  0  0
 26 25  2  0  0  0  0
 27 32  1  6  0  0  0
 27 25  1  0  0  0  0
 27 28  1  0  0  0  0
 27 30  1  0  0  0  0
 28 29  1  6  0  0  0
 28 30  1  0  0  0  0
 30 31  1  1  0  0  0
 33 36  1  6  0  0  0
 33 32  1  0  0  0  0
 34 35  1  0  0  0  0
 35 33  1  0  0  0  0
 37 36  1  0  0  0  0
 38 37  1  0  0  0  0
 39 38  1  0  0  0  0
 40 41  1  0  0  0  0
 41 42  1  6  0  0  0
 41 43  1  0  0  0  0
 43 52  1  6  0  0  0
 43 46  1  0  0  0  0
 44 48  1  0  0  0  0
 45 48  2  0  0  0  0
 46 47  1  0  0  0  0
 46 50  1  0  0  0  0
 46 49  1  1  0  0  0
 47 50  2  0  0  0  0
 47 51  1  0  0  0  0
 50 45  1  0  0  0  0
 51 44  2  0  0  0  0
 53 52  1  6  0  0  0
 54 53  1  0  0  0  0
 55 56  1  6  0  0  0
 55 57  1  0  0  0  0
 57 53  1  0  0  0  0
 58 54  1  0  0  0  0
 59 60  1  6  0  0  0
 59 58  1  0  0  0  0
 59 55  1  0  0  0  0
M  END
>  <MODEL>
6

>  <REMARK>
 VINA RESULT:      -6.5      2.311      8.944
  Name = 
  16 active torsions:
  status: ('A' for Active; 'I' for Inactive)
    1  A    between atoms: C_2  and  O_52
    2  A    between atoms: C_4  and  C_19
    3  A    between atoms: C_5  and  C_48
    4  A    between atoms: C_7  and  C_11
    5  A    between atoms: C_7  and  O_27
    6  A    between atoms: C_11  and  O_45
    7  A    between atoms: C_14  and  C_20
    8  A    between atoms: C_14  and  C_32
    9  A    between atoms: C_19  and  C_23
   10  A    between atoms: C_20  and  C_23
   11  A    between atoms: C_23  and  C_26
   12  A    between atoms: O_27  and  C_48
   13  A    between atoms: C_29  and  C_39
   14  A    between atoms: C_29  and  O_52
   15  A    between atoms: C_39  and  O_45
   16  A    between atoms: C_39  and  C_47
                            x       y       z     vdW  Elec       q    Type
                         _______ _______ _______ _____ _____    ______ ____

>  <TORSDO>
F 16

$$$$
=
 OpenBabel11072408523D

 60 66  0  0  1  0  0  0  0  0999 V2000
  195.7050  175.5600  140.4320 C   0  0  0  0  0  2  0  0  0  0  0  0
  191.1730  173.5140  138.8280 C   0  0  1  0  0  3  0  0  0  0  0  0
  190.1530  172.4160  138.5770 C   0  0  0  0  0  2  0  0  0  0  0  0
  197.9320  175.7020  139.6870 O   0  0  0  0  0  0  0  0  0  0  0  0
  192.1520  173.1180  139.9580 C   0  0  1  0  0  3  0  0  0  0  0  0
  193.5990  173.2050  139.5460 C   0  0  0  0  0  3  0  0  0  0  0  0
  189.0650  173.2670  140.5960 O   0  0  0  0  0  0  0  0  0  0  0  0
  195.5850  174.2430  142.6180 O   0  0  0  0  0  0  0  0  0  0  0  0
  189.7520  172.3790  141.2990 O   0  0  0  0  0  0  0  0  0  0  0  0
  197.1180  175.1040  140.3750 C   0  0  0  0  0  0  0  0  0  0  0  0
  197.5250  173.8830  141.1250 C   0  0  0  0  0  2  0  0  0  0  0  0
  190.6840  173.1040  142.0720 C   0  0  1  0  0  3  0  0  0  0  0  0
  197.0090  172.3960  142.9760 C   0  0  0  0  0  1  0  0  0  0  0  0
  192.8980  174.1860  142.2090 C   0  0  0  0  0  2  0  0  0  0  0  0
  191.7450  173.8760  141.2550 C   0  0  1  0  0  3  0  0  0  0  0  0
  188.8520  172.6850  139.3370 C   0  0  0  0  0  2  0  0  0  0  0  0
  193.5980  175.4880  141.8270 C   0  0  0  0  0  2  0  0  0  0  0  0
  196.3640  173.2710  141.9220 C   0  0  1  0  0  0  0  0  0  0  0  0
  194.5680  172.7460  140.2910 C   0  0  0  0  0  0  0  0  0  0  0  0
  195.1270  175.3570  141.8430 C   0  0  2  0  0  3  0  0  0  0  0  0
  195.5230  172.3350  141.0810 C   0  0  0  0  0  3  0  0  0  0  0  0
  190.6980  174.5580  136.6950 O   0  0  0  0  0  1  0  0  0  0  0  0
  191.7250  174.0910  137.5200 C   0  0  2  0  0  3  0  0  0  0  0  0
  192.4980  173.1110  136.8410 O   0  0  0  0  0  0  0  0  0  0  0  0
  193.1700  173.3880  135.6540 C   0  0  0  0  0  0  0  0  0  0  0  0
  192.6570  173.0950  134.5360 O   0  0  0  0  0  0  0  0  0  0  0  0
  194.5260  174.0400  135.7040 C   0  0  2  0  0  0  0  0  0  0  0  0
  194.6830  175.3220  136.5140 C   0  0  1  0  0  3  0  0  0  0  0  0
  195.9950  175.4880  136.9520 O   0  0  0  0  0  1  0  0  0  0  0  0
  194.6510  175.3840  134.9970 C   0  0  2  0  0  3  0  0  0  0  0  0
  193.4170  175.8820  134.5900 O   0  0  0  0  0  1  0  0  0  0  0  0
  195.6760  173.2460  135.5300 O   0  0  0  0  0  0  0  0  0  0  0  0
  195.4620  172.0270  136.1940 C   0  0  2  0  0  3  0  0  0  0  0  0
  197.0240  173.1110  137.6670 O   0  0  0  0  0  1  0  0  0  0  0  0
  196.3170  171.9300  137.4540 C   0  0  0  0  0  2  0  0  0  0  0  0
  195.7060  170.8530  135.2530 C   0  0  0  0  0  2  0  0  0  0  0  0
  196.6250  169.9540  135.8080 O   0  0  0  0  0  0  0  0  0  0  0  0
  196.3140  168.7200  135.2340 C   0  0  0  0  0  2  0  0  0  0  0  0
  194.9440  168.7950  134.5880 C   0  0  0  0  0  1  0  0  0  0  0  0
  189.9920  174.0170  143.0870 C   0  0  0  0  0  2  0  0  0  0  0  0
  190.4930  173.7490  144.4990 C   0  0  2  0  0  3  0  0  0  0  0  0
  189.7510  172.5580  145.0860 C   0  0  0  0  0  1  0  0  0  0  0  0
  190.4060  175.0170  145.3770 C   0  0  2  0  0  3  0  0  0  0  0  0
  194.9670  174.9270  145.6560 C   0  0  0  0  0  3  0  0  0  0  0  0
  193.4940  177.0290  145.7840 C   0  0  0  0  0  3  0  0  0  0  0  0
  191.5080  175.2230  146.4330 C   0  0  2  0  0  0  0  0  0  0  0  0
  192.7640  174.6530  146.1930 C   0  0  0  0  0  0  0  0  0  0  0  0
  194.7580  176.3720  145.5600 C   0  0  0  0  0  3  0  0  0  0  0  0
  191.1150  175.2950  147.8930 C   0  0  0  0  0  1  0  0  0  0  0  0
  192.5510  176.1030  146.1000 C   0  0  0  0  0  0  0  0  0  0  0  0
  193.9330  173.9820  145.9840 C   0  0  0  0  0  3  0  0  0  0  0  0
  188.9990  175.3780  145.8710 C   0  0  0  0  0  2  0  0  0  0  0  0
  188.8050  176.8850  146.0660 C   0  0  1  0  0  3  0  0  0  0  0  0
  189.0900  177.6610  144.7770 C   0  0  0  0  0  2  0  0  0  0  0  0
  186.3180  176.9240  145.5400 C   0  0  2  0  0  3  0  0  0  0  0  0
  185.0800  177.3170  146.0630 O   0  0  0  0  0  1  0  0  0  0  0  0
  187.3960  177.1960  146.5940 C   0  0  0  0  0  2  0  0  0  0  0  0
  188.0130  177.3930  143.7210 C   0  0  0  0  0  2  0  0  0  0  0  0
  186.6180  177.7090  144.2530 C   0  0  1  0  0  3  0  0  0  0  0  0
  185.6010  177.3700  143.1780 C   0  0  0  0  0  1  0  0  0  0  0  0
  2 23  1  6  0  0  0
  2  5  1  0  0  0  0
  3  2  1  0  0  0  0
  3 16  1  0  0  0  0
  4 10  2  0  0  0  0
  5  6  1  6  0  0  0
  5 15  1  0  0  0  0
  6 19  2  0  0  0  0
  7  9  1  0  0  0  0
  9 12  1  0  0  0  0
 10  1  1  0  0  0  0
 10 11  1  0  0  0  0
 11 18  1  0  0  0  0
 12 40  1  6  0  0  0
 15 12  1  0  0  0  0
 15 14  1  1  0  0  0
 16  7  1  0  0  0  0
 17 20  1  0  0  0  0
 17 14  1  0  0  0  0
 18  8  1  0  0  0  0
 18 13  1  1  0  0  0
 19 21  2  0  0  0  0
 20  1  1  6  0  0  0
 20  8  1  0  0  0  0
 21 18  1  0  0  0  0
 23 22  1  6  0  0  0
 24 23  1  0  0  0  0
 25 27  1  0  0  0  0
 25 24  1  0  0  0  0
 26 25  2  0  0  0  0
 27 32  1  6  0  0  0
 27 28  1  0  0  0  0
 28 29  1  6  0  0  0
 30 31  1  1  0  0  0
 30 27  1  0  0  0  0
 30 28  1  0  0  0  0
 32 33  1  0  0  0  0
 33 36  1  6  0  0  0
 33 35  1  0  0  0  0
 35 34  1  0  0  0  0
 36 37  1  0  0  0  0
 38 37  1  0  0  0  0
 39 38  1  0  0  0  0
 40 41  1  0  0  0  0
 41 42  1  1  0  0  0
 41 43  1  0  0  0  0
 43 52  1  1  0  0  0
 43 46  1  0  0  0  0
 44 51  1  0  0  0  0
 45 50  2  0  0  0  0
 46 49  1  1  0  0  0
 47 46  1  0  0  0  0
 48 44  2  0  0  0  0
 48 45  1  0  0  0  0
 50 47  1  0  0  0  0
 50 46  1  0  0  0  0
 51 47  2  0  0  0  0
 53 52  1  6  0  0  0
 53 57  1  0  0  0  0
 54 53  1  0  0  0  0
 55 56  1  1  0  0  0
 55 57  1  0  0  0  0
 58 59  1  0  0  0  0
 58 54  1  0  0  0  0
 59 60  1  6  0  0  0
 59 55  1  0  0  0  0
M  END
>  <MODEL>
7

>  <REMARK>
 VINA RESULT:      -6.5      2.320      8.871
  Name = 
  16 active torsions:
  status: ('A' for Active; 'I' for Inactive)
    1  A    between atoms: C_2  and  O_52
    2  A    between atoms: C_4  and  C_19
    3  A    between atoms: C_5  and  C_48
    4  A    between atoms: C_7  and  C_11
    5  A    between atoms: C_7  and  O_27
    6  A    between atoms: C_11  and  O_45
    7  A    between atoms: C_14  and  C_20
    8  A    between atoms: C_14  and  C_32
    9  A    between atoms: C_19  and  C_23
   10  A    between atoms: C_20  and  C_23
   11  A    between atoms: C_23  and  C_26
   12  A    between atoms: O_27  and  C_48
   13  A    between atoms: C_29  and  C_39
   14  A    between atoms: C_29  and  O_52
   15  A    between atoms: C_39  and  O_45
   16  A    between atoms: C_39  and  C_47
                            x       y       z     vdW  Elec       q    Type
                         _______ _______ _______ _____ _____    ______ ____

>  <TORSDO>
F 16

$$$$
=
 OpenBabel11072408523D

 60 66  0  0  1  0  0  0  0  0999 V2000
  189.8860  171.2890  137.6160 C   0  0  0  0  0  2  0  0  0  0  0  0
  191.0170  172.2300  142.6300 C   0  0  1  0  0  3  0  0  0  0  0  0
  191.6470  172.9680  143.8000 C   0  0  0  0  0  2  0  0  0  0  0  0
  190.9320  170.3680  135.7210 O   0  0  0  0  0  0  0  0  0  0  0  0
  190.8500  173.1630  141.4080 C   0  0  1  0  0  3  0  0  0  0  0  0
  191.4850  172.6180  140.1540 C   0  0  0  0  0  3  0  0  0  0  0  0
  189.4160  173.9210  144.1150 O   0  0  0  0  0  0  0  0  0  0  0  0
  189.3490  173.7560  137.2220 O   0  0  0  0  0  0  0  0  0  0  0  0
  189.7830  174.9430  143.3570 O   0  0  0  0  0  0  0  0  0  0  0  0
  190.6610  171.3790  136.3520 C   0  0  0  0  0  0  0  0  0  0  0  0
  191.1480  172.7070  135.8830 C   0  0  0  0  0  2  0  0  0  0  0  0
  189.0490  174.8430  142.1550 C   0  0  1  0  0  3  0  0  0  0  0  0
  190.8310  175.1130  135.9840 C   0  0  0  0  0  1  0  0  0  0  0  0
  188.8600  173.8760  139.8930 C   0  0  0  0  0  2  0  0  0  0  0  0
  189.3550  173.5860  141.3090 C   0  0  1  0  0  3  0  0  0  0  0  0
  190.5790  173.4830  144.7680 C   0  0  0  0  0  2  0  0  0  0  0  0
  188.4050  172.5960  139.1940 C   0  0  0  0  0  2  0  0  0  0  0  0
  190.7130  173.8510  136.8110 C   0  0  1  0  0  0  0  0  0  0  0  0
  191.6090  173.3300  139.0670 C   0  0  0  0  0  0  0  0  0  0  0  0
  188.9390  172.4930  137.7580 C   0  0  2  0  0  3  0  0  0  0  0  0
  191.6650  174.0390  137.9720 C   0  0  0  0  0  3  0  0  0  0  0  0
  190.6680  169.9120  142.0220 O   0  0  0  0  0  1  0  0  0  0  0  0
  191.6290  170.8380  142.4370 C   0  0  2  0  0  3  0  0  0  0  0  0
  192.2470  170.4040  143.6400 O   0  0  0  0  0  0  0  0  0  0  0  0
  193.4540  169.7110  143.6470 C   0  0  0  0  0  0  0  0  0  0  0  0
  193.4790  168.4560  143.8040 O   0  0  0  0  0  0  0  0  0  0  0  0
  194.7440  170.4660  143.4690 C   0  0  2  0  0  0  0  0  0  0  0  0
  195.8640  170.2340  144.4760 C   0  0  1  0  0  3  0  0  0  0  0  0
  197.1120  170.4980  143.9160 O   0  0  0  0  0  1  0  0  0  0  0  0
  195.0570  171.5190  144.5250 C   0  0  2  0  0  3  0  0  0  0  0  0
  194.1790  171.4610  145.6030 O   0  0  0  0  0  1  0  0  0  0  0  0
  195.1170  170.8890  142.1780 O   0  0  0  0  0  0  0  0  0  0  0  0
  194.8140  169.8530  141.2810 C   0  0  2  0  0  3  0  0  0  0  0  0
  197.1260  169.5260  140.7050 O   0  0  0  0  0  1  0  0  0  0  0  0
  195.9790  168.8760  141.1550 C   0  0  0  0  0  2  0  0  0  0  0  0
  194.4010  170.4180  139.9270 C   0  0  0  0  0  2  0  0  0  0  0  0
  194.8350  171.7420  139.7870 O   0  0  0  0  0  0  0  0  0  0  0  0
  195.4630  171.7850  138.5420 C   0  0  0  0  0  2  0  0  0  0  0  0
  194.4480  171.4970  137.4540 C   0  0  0  0  0  1  0  0  0  0  0  0
  187.5460  175.0000  142.3930 C   0  0  0  0  0  2  0  0  0  0  0  0
  187.0640  176.3820  141.9770 C   0  0  2  0  0  3  0  0  0  0  0  0
  188.1950  177.1330  141.2920 C   0  0  0  0  0  1  0  0  0  0  0  0
  186.4560  177.1500  143.1720 C   0  0  2  0  0  3  0  0  0  0  0  0
  183.0670  178.5240  140.4300 C   0  0  0  0  0  3  0  0  0  0  0  0
  182.9130  178.2270  142.9780 C   0  0  0  0  0  3  0  0  0  0  0  0
  185.6640  178.4340  142.8590 C   0  0  2  0  0  0  0  0  0  0  0  0
  185.0160  178.5220  141.6220 C   0  0  0  0  0  0  0  0  0  0  0  0
  182.3150  178.3350  141.6700 C   0  0  0  0  0  3  0  0  0  0  0  0
  186.1700  179.7530  143.4040 C   0  0  0  0  0  1  0  0  0  0  0  0
  184.2640  178.3350  142.8700 C   0  0  0  0  0  0  0  0  0  0  0  0
  184.5010  178.6220  140.3630 C   0  0  0  0  0  3  0  0  0  0  0  0
  187.3600  177.2650  144.4060 C   0  0  0  0  0  2  0  0  0  0  0  0
  186.8620  176.4280  145.5890 C   0  0  1  0  0  3  0  0  0  0  0  0
  187.8110  176.5260  146.7860 C   0  0  0  0  0  2  0  0  0  0  0  0
  185.3850  178.2260  146.6110 C   0  0  2  0  0  3  0  0  0  0  0  0
  184.0720  178.4790  147.0280 O   0  0  0  0  0  1  0  0  0  0  0  0
  185.4330  176.8280  145.9850 C   0  0  0  0  0  2  0  0  0  0  0  0
  187.7640  177.9220  147.4160 C   0  0  0  0  0  2  0  0  0  0  0  0
  186.3420  178.3100  147.8120 C   0  0  1  0  0  3  0  0  0  0  0  0
  186.3620  179.7190  148.3750 C   0  0  0  0  0  1  0  0  0  0  0  0
  2 23  1  6  0  0  0
  2  3  1  0  0  0  0
  3 16  1  0  0  0  0
  4 10  2  0  0  0  0
  5  6  1  6  0  0  0
  5  2  1  0  0  0  0
  7 16  1  0  0  0  0
  8 20  1  0  0  0  0
  9  7  1  0  0  0  0
 10  1  1  0  0  0  0
 11 10  1  0  0  0  0
 11 18  1  0  0  0  0
 12 40  1  1  0  0  0
 12  9  1  0  0  0  0
 15 14  1  6  0  0  0
 15  5  1  0  0  0  0
 15 12  1  0  0  0  0
 17 14  1  0  0  0  0
 18 13  1  6  0  0  0
 18  8  1  0  0  0  0
 18 21  1  0  0  0  0
 19  6  2  0  0  0  0
 20  1  1  1  0  0  0
 20 17  1  0  0  0  0
 21 19  2  0  0  0  0
 23 22  1  1  0  0  0
 23 24  1  0  0  0  0
 24 25  1  0  0  0  0
 25 26  2  0  0  0  0
 27 32  1  6  0  0  0
 27 25  1  0  0  0  0
 27 28  1  0  0  0  0
 27 30  1  0  0  0  0
 28 29  1  6  0  0  0
 28 30  1  0  0  0  0
 30 31  1  1  0  0  0
 33 36  1  6  0  0  0
 33 32  1  0  0  0  0
 34 35  1  0  0  0  0
 35 33  1  0  0  0  0
 37 36  1  0  0  0  0
 38 37  1  0  0  0  0
 39 38  1  0  0  0  0
 41 42  1  1  0  0  0
 41 40  1  0  0  0  0
 41 43  1  0  0  0  0
 43 52  1  1  0  0  0
 44 48  1  0  0  0  0
 46 50  1  0  0  0  0
 46 43  1  0  0  0  0
 46 49  1  1  0  0  0
 47 46  1  0  0  0  0
 47 50  2  0  0  0  0
 48 45  2  0  0  0  0
 50 45  1  0  0  0  0
 51 44  2  0  0  0  0
 51 47  1  0  0  0  0
 53 52  1  6  0  0  0
 53 57  1  0  0  0  0
 53 54  1  0  0  0  0
 54 58  1  0  0  0  0
 55 56  1  1  0  0  0
 55 59  1  0  0  0  0
 57 55  1  0  0  0  0
 58 59  1  0  0  0  0
 59 60  1  6  0  0  0
M  END
>  <MODEL>
8

>  <REMARK>
 VINA RESULT:      -6.3      2.499      8.995
  Name = 
  16 active torsions:
  status: ('A' for Active; 'I' for Inactive)
    1  A    between atoms: C_2  and  O_52
    2  A    between atoms: C_4  and  C_19
    3  A    between atoms: C_5  and  C_48
    4  A    between atoms: C_7  and  C_11
    5  A    between atoms: C_7  and  O_27
    6  A    between atoms: C_11  and  O_45
    7  A    between atoms: C_14  and  C_20
    8  A    between atoms: C_14  and  C_32
    9  A    between atoms: C_19  and  C_23
   10  A    between atoms: C_20  and  C_23
   11  A    between atoms: C_23  and  C_26
   12  A    between atoms: O_27  and  C_48
   13  A    between atoms: C_29  and  C_39
   14  A    between atoms: C_29  and  O_52
   15  A    between atoms: C_39  and  O_45
   16  A    between atoms: C_39  and  C_47
                            x       y       z     vdW  Elec       q    Type
                         _______ _______ _______ _____ _____    ______ ____

>  <TORSDO>
F 16

$$$$
=
 OpenBabel11072408523D

 60 66  0  0  1  0  0  0  0  0999 V2000
  190.1010  174.0170  136.7720 C   0  0  0  0  0  2  0  0  0  0  0  0
  189.4080  173.2470  141.8930 C   0  0  1  0  0  3  0  0  0  0  0  0
  189.1460  172.4440  143.1570 C   0  0  0  0  0  2  0  0  0  0  0  0
  188.7910  174.1650  134.8230 O   0  0  0  0  0  0  0  0  0  0  0  0
  189.9910  172.3510  140.7750 C   0  0  1  0  0  3  0  0  0  0  0  0
  189.2040  172.4160  139.4920 C   0  0  0  0  0  3  0  0  0  0  0  0
  191.5630  172.6100  143.4990 O   0  0  0  0  0  0  0  0  0  0  0  0
  191.6750  172.0100  136.6310 O   0  0  0  0  0  0  0  0  0  0  0  0
  191.6970  171.4530  142.8700 O   0  0  0  0  0  0  0  0  0  0  0  0
  189.4680  173.4540  135.5520 C   0  0  0  0  0  0  0  0  0  0  0  0
  189.6230  172.0040  135.2470 C   0  0  0  0  0  2  0  0  0  0  0  0
  192.3330  171.7290  141.6410 C   0  0  1  0  0  3  0  0  0  0  0  0
  190.9660  170.0100  135.5990 C   0  0  0  0  0  1  0  0  0  0  0  0
  192.1190  172.4190  139.2820 C   0  0  0  0  0  2  0  0  0  0  0  0
  191.5210  172.6190  140.6740 C   0  0  1  0  0  3  0  0  0  0  0  0
  190.3140  172.5630  144.1390 C   0  0  0  0  0  2  0  0  0  0  0  0
  191.9770  173.6800  138.4320 C   0  0  0  0  0  2  0  0  0  0  0  0
  190.5010  171.2800  136.2790 C   0  0  1  0  0  0  0  0  0  0  0  0
  189.4260  171.6050  138.4930 C   0  0  0  0  0  0  0  0  0  0  0  0
  191.4780  173.3760  137.0130 C   0  0  2  0  0  3  0  0  0  0  0  0
  189.7070  170.8250  137.4850 C   0  0  0  0  0  3  0  0  0  0  0  0
  188.5860  175.0790  140.5390 O   0  0  0  0  0  1  0  0  0  0  0  0
  188.2500  174.1970  141.5700 C   0  0  2  0  0  3  0  0  0  0  0  0
  187.8690  174.9180  142.7330 O   0  0  0  0  0  0  0  0  0  0  0  0
  188.3070  176.2170  142.9790 C   0  0  0  0  0  0  0  0  0  0  0  0
  189.5400  176.4980  142.9680 O   0  0  0  0  0  0  0  0  0  0  0  0
  187.2980  177.2970  143.2630 C   0  0  2  0  0  0  0  0  0  0  0  0
  185.9740  177.2690  142.5080 C   0  0  1  0  0  3  0  0  0  0  0  0
  184.9650  177.9040  143.2290 O   0  0  0  0  0  1  0  0  0  0  0  0
  187.0370  178.2870  142.1340 C   0  0  2  0  0  3  0  0  0  0  0  0
  187.6380  177.8950  140.9420 O   0  0  0  0  0  1  0  0  0  0  0  0
  187.3060  177.9280  144.5230 O   0  0  0  0  0  0  0  0  0  0  0  0
  187.2990  176.9260  145.5060 C   0  0  2  0  0  3  0  0  0  0  0  0
  185.8020  177.4780  147.3060 O   0  0  0  0  0  1  0  0  0  0  0  0
  185.9100  176.7630  146.1150 C   0  0  0  0  0  2  0  0  0  0  0  0
  188.3530  177.2090  146.5700 C   0  0  0  0  0  2  0  0  0  0  0  0
  189.6170  176.7830  146.1430 O   0  0  0  0  0  0  0  0  0  0  0  0
  189.6970  175.4460  146.5340 C   0  0  0  0  0  2  0  0  0  0  0  0
  190.7820  175.2900  147.5810 C   0  0  0  0  0  1  0  0  0  0  0  0
  193.7480  172.2760  141.8450 C   0  0  0  0  0  2  0  0  0  0  0  0
  193.7240  173.6030  142.5880 C   0  0  2  0  0  3  0  0  0  0  0  0
  193.5960  174.7450  141.5910 C   0  0  0  0  0  1  0  0  0  0  0  0
  194.9410  173.7450  143.5280 C   0  0  2  0  0  3  0  0  0  0  0  0
  195.1080  169.9700  146.1000 C   0  0  0  0  0  3  0  0  0  0  0  0
  196.8120  171.8940  146.1400 C   0  0  0  0  0  3  0  0  0  0  0  0
  194.7500  173.3350  145.0010 C   0  0  2  0  0  0  0  0  0  0  0  0
  194.4470  171.9960  145.2770 C   0  0  0  0  0  0  0  0  0  0  0  0
  196.4260  170.5300  146.4040 C   0  0  0  0  0  3  0  0  0  0  0  0
  194.1400  174.3320  145.9620 C   0  0  0  0  0  1  0  0  0  0  0  0
  195.7690  172.5620  145.5820 C   0  0  0  0  0  0  0  0  0  0  0  0
  194.0340  170.7150  145.4980 C   0  0  0  0  0  3  0  0  0  0  0  0
  195.7670  175.0250  143.3440 C   0  0  0  0  0  2  0  0  0  0  0  0
  197.2550  174.7450  143.1120 C   0  0  1  0  0  3  0  0  0  0  0  0
  197.5100  173.2660  142.8120 C   0  0  0  0  0  2  0  0  0  0  0  0
  197.2580  175.2520  140.6210 C   0  0  2  0  0  3  0  0  0  0  0  0
  197.8850  176.0440  139.6510 O   0  0  0  0  0  1  0  0  0  0  0  0
  197.8170  175.6370  141.9950 C   0  0  0  0  0  2  0  0  0  0  0  0
  196.9550  172.8760  141.4390 C   0  0  0  0  0  2  0  0  0  0  0  0
  197.5220  173.7640  140.3340 C   0  0  1  0  0  3  0  0  0  0  0  0
  196.8900  173.3600  139.0140 C   0  0  0  0  0  1  0  0  0  0  0  0
  2 23  1  6  0  0  0
  2  3  1  0  0  0  0
  3 16  1  0  0  0  0
  4 10  2  0  0  0  0
  5  6  1  6  0  0  0
  5  2  1  0  0  0  0
  7 16  1  0  0  0  0
  8 20  1  0  0  0  0
  9  7  1  0  0  0  0
 10  1  1  0  0  0  0
 11 10  1  0  0  0  0
 11 18  1  0  0  0  0
 12 40  1  1  0  0  0
 12  9  1  0  0  0  0
 15 14  1  6  0  0  0
 15  5  1  0  0  0  0
 15 12  1  0  0  0  0
 17 14  1  0  0  0  0
 18 13  1  6  0  0  0
 18  8  1  0  0  0  0
 18 21  1  0  0  0  0
 19  6  2  0  0  0  0
 20  1  1  1  0  0  0
 20 17  1  0  0  0  0
 21 19  2  0  0  0  0
 23 22  1  6  0  0  0
 23 24  1  0  0  0  0
 24 25  1  0  0  0  0
 26 25  2  0  0  0  0
 27 25  1  6  0  0  0
 27 32  1  0  0  0  0
 28 29  1  1  0  0  0
 28 27  1  0  0  0  0
 30 31  1  6  0  0  0
 30 28  1  0  0  0  0
 30 27  1  0  0  0  0
 32 33  1  0  0  0  0
 33 35  1  1  0  0  0
 33 36  1  0  0  0  0
 35 34  1  0  0  0  0
 37 38  1  0  0  0  0
 37 36  1  0  0  0  0
 38 39  1  0  0  0  0
 40 41  1  0  0  0  0
 41 42  1  6  0  0  0
 41 43  1  0  0  0  0
 43 52  1  1  0  0  0
 43 46  1  0  0  0  0
 44 48  1  0  0  0  0
 45 48  2  0  0  0  0
 46 47  1  0  0  0  0
 46 50  1  0  0  0  0
 46 49  1  1  0  0  0
 47 51  1  0  0  0  0
 47 50  2  0  0  0  0
 50 45  1  0  0  0  0
 51 44  2  0  0  0  0
 53 52  1  6  0  0  0
 54 53  1  0  0  0  0
 55 56  1  6  0  0  0
 55 57  1  0  0  0  0
 57 53  1  0  0  0  0
 58 54  1  0  0  0  0
 59 60  1  6  0  0  0
 59 55  1  0  0  0  0
 59 58  1  0  0  0  0
M  END
>  <MODEL>
9

>  <REMARK>
 VINA RESULT:      -6.2      1.824      3.682
  Name = 
  16 active torsions:
  status: ('A' for Active; 'I' for Inactive)
    1  A    between atoms: C_2  and  O_52
    2  A    between atoms: C_4  and  C_19
    3  A    between atoms: C_5  and  C_48
    4  A    between atoms: C_7  and  C_11
    5  A    between atoms: C_7  and  O_27
    6  A    between atoms: C_11  and  O_45
    7  A    between atoms: C_14  and  C_20
    8  A    between atoms: C_14  and  C_32
    9  A    between atoms: C_19  and  C_23
   10  A    between atoms: C_20  and  C_23
   11  A    between atoms: C_23  and  C_26
   12  A    between atoms: O_27  and  C_48
   13  A    between atoms: C_29  and  C_39
   14  A    between atoms: C_29  and  O_52
   15  A    between atoms: C_39  and  O_45
   16  A    between atoms: C_39  and  C_47
                            x       y       z     vdW  Elec       q    Type
                         _______ _______ _______ _____ _____    ______ ____

>  <TORSDO>
F 16

$$$$
