=
 OpenBabel11062420053D

 35 39  0  0  1  0  0  0  0  0999 V2000
  189.8190  176.6080  144.0540 C   0  0  2  0  0  3  0  0  0  0  0  0
  187.3300  176.1810  141.5700 N   0  0  0  0  0  0  0  0  0  0  0  0
  188.7000  176.1400  142.0320 C   0  0  1  0  0  0  0  0  0  0  0  0
  190.0060  177.8420  143.1730 C   0  0  0  0  0  2  0  0  0  0  0  0
  188.8000  175.7190  143.4520 N   0  0  1  0  0  0  0  0  0  0  0  0
  189.3590  174.8790  142.3640 C   0  0  1  0  0  0  0  0  0  0  0  0
  188.2520  178.2770  141.5900 N   0  0  0  0  0  2  0  0  0  0  0  0
  187.1340  177.4320  141.2840 C   0  0  0  0  0  3  0  0  0  0  0  0
  189.1980  177.5010  141.9980 C   0  0  2  0  0  3  0  0  0  0  0  0
  188.6000  173.7270  142.1510 O   0  0  0  0  0  1  0  0  0  0  0  0
  189.4090  177.0070  145.3560 O   0  0  0  0  0  0  0  0  0  0  0  0
  186.3070  176.3500  147.2440 C   0  0  0  0  0  3  0  0  0  0  0  0
  187.1300  177.8380  145.0570 C   0  0  0  0  0  3  0  0  0  0  0  0
  187.6460  176.3050  146.8500 C   0  0  0  0  0  0  0  0  0  0  0  0
  188.0660  177.0550  145.7480 C   0  0  0  0  0  0  0  0  0  0  0  0
  185.7890  177.8470  145.4660 C   0  0  0  0  0  0  0  0  0  0  0  0
  185.4190  177.1170  146.5560 N   0  0  0  0  0  0  0  0  0  0  0  0
  188.5270  175.5390  147.5390 F   0  0  0  0  0  0  0  0  0  0  0  0
  184.7830  178.7210  144.7680 C   0  0  0  0  0  0  0  0  0  0  0  0
  184.2490  178.0610  143.6590 O   0  0  0  0  0  1  0  0  0  0  0  0
  183.7430  179.0440  145.6440 O   0  0  0  0  0  1  0  0  0  0  0  0
  185.4550  180.0000  144.3070 C   0  0  0  0  0  1  0  0  0  0  0  0
  190.8850  174.7590  142.2530 C   0  0  0  0  0  2  0  0  0  0  0  0
  191.3840  173.4410  142.8300 C   0  0  0  0  0  2  0  0  0  0  0  0
  193.1070  174.6810  145.8810 C   0  0  0  0  0  2  0  0  0  0  0  0
  193.8430  175.4460  144.7780 C   0  0  1  0  0  0  0  0  0  0  0  0
  192.1000  173.7710  145.2040 C   0  0  0  0  0  2  0  0  0  0  0  0
  193.2400  174.9670  143.4640 C   0  0  0  0  0  2  0  0  0  0  0  0
  193.5600  176.9290  144.9590 C   0  0  0  0  0  1  0  0  0  0  0  0
  192.5620  173.6530  143.7700 C   0  0  2  0  0  3  0  0  0  0  0  0
  195.9160  174.4120  145.8630 C   0  0  0  0  0  1  0  0  0  0  0  0
  195.3000  175.1950  144.7940 N   0  0  0  0  0  0  0  0  0  0  0  0
  196.1590  175.7140  143.7590 C   0  0  0  0  0  0  0  0  0  0  0  0
  197.3980  175.4870  143.7860 O   0  0  0  0  0  1  0  0  0  0  0  0
  195.6350  176.4680  142.7150 O   0  0  0  0  0  0  0  0  0  0  0  0
  1 11  1  1  0  0  0
  3  2  1  6  0  0  0
  3  6  1  0  0  0  0
  3  5  1  0  0  0  0
  4  1  1  0  0  0  0
  5  1  1  0  0  0  0
  6  5  1  0  0  0  0
  7  9  1  0  0  0  0
  8  2  2  0  0  0  0
  8  7  1  0  0  0  0
  9  3  1  0  0  0  0
  9  4  1  0  0  0  0
 10  6  1  0  0  0  0
 11 15  1  0  0  0  0
 13 16  2  0  0  0  0
 13 15  1  0  0  0  0
 14 12  1  0  0  0  0
 14 18  1  0  0  0  0
 15 14  2  0  0  0  0
 16 17  1  0  0  0  0
 17 12  2  0  0  0  0
 19 16  1  0  0  0  0
 19 21  1  0  0  0  0
 20 19  1  0  0  0  0
 22 19  1  0  0  0  0
 23  6  1  0  0  0  0
 23 24  1  0  0  0  0
 24 30  1  0  0  0  0
 26 32  1  0  0  0  0
 26 29  1  0  0  0  0
 26 25  1  0  0  0  0
 27 25  1  0  0  0  0
 28 30  1  0  0  0  0
 28 26  1  0  0  0  0
 30 27  1  0  0  0  0
 32 31  1  0  0  0  0
 33 34  1  0  0  0  0
 33 32  1  0  0  0  0
 35 33  2  0  0  0  0
M  END
>  <MODEL>
1

>  <REMARK>
 VINA RESULT:      -7.9      0.000      0.000
  Name = 
  7 active torsions:
  status: ('A' for Active; 'I' for Inactive)
    1  A    between atoms: C_3  and  O_17
    2  A    between atoms: C_4  and  C_21
    3  A    between atoms: C_4  and  C_34
    4  A    between atoms: C_5  and  C_24
    5  A    between atoms: N_7  and  C_10
    6  A    between atoms: O_17  and  C_18
    7  A    between atoms: C_21  and  C_23
                            x       y       z     vdW  Elec       q    Type
                         _______ _______ _______ _____ _____    ______ ____

>  <TORSDO>
F 7

$$$$
=
 OpenBabel11062420053D

 35 39  0  0  1  0  0  0  0  0999 V2000
  190.9130  176.7250  144.2500 C   0  0  2  0  0  3  0  0  0  0  0  0
  189.5790  174.1430  146.2760 N   0  0  0  0  0  0  0  0  0  0  0  0
  189.5670  174.9850  145.1000 C   0  0  1  0  0  0  0  0  0  0  0  0
  189.7190  177.4040  144.9200 C   0  0  0  0  0  2  0  0  0  0  0  0
  190.9370  175.2900  144.6160 N   0  0  1  0  0  0  0  0  0  0  0  0
  189.9980  174.4850  143.7960 C   0  0  1  0  0  0  0  0  0  0  0  0
  188.7320  176.2150  146.7590 N   0  0  0  0  0  2  0  0  0  0  0  0
  189.0440  174.8860  147.1980 C   0  0  0  0  0  3  0  0  0  0  0  0
  189.0070  176.2610  145.4990 C   0  0  2  0  0  3  0  0  0  0  0  0
  190.3620  173.1390  143.7570 O   0  0  0  0  0  1  0  0  0  0  0  0
  192.1180  177.3530  144.6690 O   0  0  0  0  0  0  0  0  0  0  0  0
  194.7770  175.4810  146.4130 C   0  0  0  0  0  3  0  0  0  0  0  0
  194.2140  176.3920  143.8590 C   0  0  0  0  0  3  0  0  0  0  0  0
  193.5940  176.1870  146.1840 C   0  0  0  0  0  0  0  0  0  0  0  0
  193.3050  176.6470  144.8960 C   0  0  0  0  0  0  0  0  0  0  0  0
  195.4020  175.6970  144.1270 C   0  0  0  0  0  0  0  0  0  0  0  0
  195.6420  175.2480  145.3910 N   0  0  0  0  0  0  0  0  0  0  0  0
  192.7340  176.4160  147.2070 F   0  0  0  0  0  0  0  0  0  0  0  0
  196.3640  175.3710  143.0170 C   0  0  0  0  0  0  0  0  0  0  0  0
  197.6370  175.1160  143.5330 O   0  0  0  0  0  1  0  0  0  0  0  0
  195.9250  174.2420  142.3210 O   0  0  0  0  0  1  0  0  0  0  0  0
  196.4440  176.5420  142.0560 C   0  0  0  0  0  1  0  0  0  0  0  0
  189.4370  175.1120  142.5120 C   0  0  0  0  0  2  0  0  0  0  0  0
  187.9610  174.7850  142.3300 C   0  0  0  0  0  2  0  0  0  0  0  0
  187.2440  178.4220  142.0700 C   0  0  0  0  0  2  0  0  0  0  0  0
  186.0830  177.9400  142.9420 C   0  0  1  0  0  0  0  0  0  0  0  0
  188.0670  177.2040  141.6990 C   0  0  0  0  0  2  0  0  0  0  0  0
  186.2560  176.4330  143.0710 C   0  0  0  0  0  2  0  0  0  0  0  0
  186.2160  178.5880  144.3110 C   0  0  0  0  0  1  0  0  0  0  0  0
  187.1610  176.0170  141.9360 C   0  0  2  0  0  3  0  0  0  0  0  0
  183.6140  178.5610  143.2000 C   0  0  0  0  0  1  0  0  0  0  0  0
  184.7640  178.2560  142.3510 N   0  0  0  0  0  0  0  0  0  0  0  0
  184.5710  178.2740  140.9230 C   0  0  0  0  0  0  0  0  0  0  0  0
  183.4420  178.5490  140.4370 O   0  0  0  0  0  1  0  0  0  0  0  0
  185.6240  177.9910  140.0610 O   0  0  0  0  0  0  0  0  0  0  0  0
  1  5  1  0  0  0  0
  1 11  1  1  0  0  0
  1  4  1  0  0  0  0
  2  8  2  0  0  0  0
  3  9  1  0  0  0  0
  3  2  1  1  0  0  0
  4  9  1  0  0  0  0
  5  3  1  0  0  0  0
  6  5  1  0  0  0  0
  6  3  1  0  0  0  0
  7  8  1  0  0  0  0
  9  7  1  0  0  0  0
 10  6  1  0  0  0  0
 11 15  1  0  0  0  0
 13 16  2  0  0  0  0
 13 15  1  0  0  0  0
 14 12  1  0  0  0  0
 14 18  1  0  0  0  0
 15 14  2  0  0  0  0
 16 17  1  0  0  0  0
 17 12  2  0  0  0  0
 19 20  1  0  0  0  0
 19 16  1  0  0  0  0
 21 19  1  0  0  0  0
 22 19  1  0  0  0  0
 23  6  1  0  0  0  0
 24 23  1  0  0  0  0
 25 26  1  0  0  0  0
 26 28  1  0  0  0  0
 26 29  1  0  0  0  0
 27 30  1  0  0  0  0
 27 25  1  0  0  0  0
 30 24  1  0  0  0  0
 30 28  1  0  0  0  0
 32 26  1  0  0  0  0
 32 31  1  0  0  0  0
 33 32  1  0  0  0  0
 34 33  1  0  0  0  0
 35 33  2  0  0  0  0
M  END
>  <MODEL>
2

>  <REMARK>
 VINA RESULT:      -7.8      2.289      8.187
  Name = 
  7 active torsions:
  status: ('A' for Active; 'I' for Inactive)
    1  A    between atoms: C_3  and  O_17
    2  A    between atoms: C_4  and  C_21
    3  A    between atoms: C_4  and  C_34
    4  A    between atoms: C_5  and  C_24
    5  A    between atoms: N_7  and  C_10
    6  A    between atoms: O_17  and  C_18
    7  A    between atoms: C_21  and  C_23
                            x       y       z     vdW  Elec       q    Type
                         _______ _______ _______ _____ _____    ______ ____

>  <TORSDO>
F 7

$$$$
=
 OpenBabel11062420053D

 35 39  0  0  1  0  0  0  0  0999 V2000
  188.5680  175.7190  146.2960 C   0  0  2  0  0  3  0  0  0  0  0  0
  191.5320  177.4230  147.2240 N   0  0  0  0  0  0  0  0  0  0  0  0
  190.8020  176.4620  146.4260 C   0  0  1  0  0  0  0  0  0  0  0  0
  189.3120  174.6740  147.1260 C   0  0  0  0  0  2  0  0  0  0  0  0
  189.4200  176.9170  146.1260 N   0  0  1  0  0  0  0  0  0  0  0  0
  190.4210  176.7460  145.0440 C   0  0  1  0  0  0  0  0  0  0  0  0
  191.1910  175.4800  148.3880 N   0  0  0  0  0  2  0  0  0  0  0  0
  191.7720  176.7900  148.3320 C   0  0  0  0  0  3  0  0  0  0  0  0
  190.6470  175.2700  147.2370 C   0  0  2  0  0  3  0  0  0  0  0  0
  190.8570  177.9710  144.5380 O   0  0  0  0  0  1  0  0  0  0  0  0
  187.3550  176.0750  146.9500 O   0  0  0  0  0  0  0  0  0  0  0  0
  184.5490  178.4430  146.5930 C   0  0  0  0  0  3  0  0  0  0  0  0
  186.2680  177.0040  144.9680 C   0  0  0  0  0  3  0  0  0  0  0  0
  185.5160  177.6230  147.1770 C   0  0  0  0  0  0  0  0  0  0  0  0
  186.3870  176.8960  146.3610 C   0  0  0  0  0  0  0  0  0  0  0  0
  185.2750  177.8220  144.4120 C   0  0  0  0  0  0  0  0  0  0  0  0
  184.4540  178.5300  145.2390 N   0  0  0  0  0  0  0  0  0  0  0  0
  185.6050  177.5400  148.5280 F   0  0  0  0  0  0  0  0  0  0  0  0
  185.1670  177.9900  142.9210 C   0  0  0  0  0  0  0  0  0  0  0  0
  185.9790  179.0410  142.4880 O   0  0  0  0  0  1  0  0  0  0  0  0
  185.5670  176.8160  142.2790 O   0  0  0  0  0  1  0  0  0  0  0  0
  183.7270  178.2910  142.5490 C   0  0  0  0  0  1  0  0  0  0  0  0
  190.2240  175.5920  144.0510 C   0  0  0  0  0  2  0  0  0  0  0  0
  191.2420  175.6500  142.9200 C   0  0  0  0  0  2  0  0  0  0  0  0
  193.5250  173.6820  145.0940 C   0  0  0  0  0  2  0  0  0  0  0  0
  194.3610  174.9330  144.8210 C   0  0  1  0  0  0  0  0  0  0  0  0
  192.2300  173.8250  144.3180 C   0  0  0  0  0  2  0  0  0  0  0  0
  193.5270  175.7970  143.8850 C   0  0  0  0  0  2  0  0  0  0  0  0
  194.5700  175.6640  146.1380 C   0  0  0  0  0  1  0  0  0  0  0  0
  192.5040  174.8750  143.2650 C   0  0  2  0  0  3  0  0  0  0  0  0
  196.0960  173.2300  144.0220 C   0  0  0  0  0  1  0  0  0  0  0  0
  195.6650  174.6160  144.1980 N   0  0  0  0  0  0  0  0  0  0  0  0
  196.5520  175.6590  143.7470 C   0  0  0  0  0  0  0  0  0  0  0  0
  197.6570  175.3700  143.2160 O   0  0  0  0  0  0  0  0  0  0  0  0
  196.2020  176.9970  143.8880 O   0  0  0  0  0  1  0  0  0  0  0  0
  1 11  1  1  0  0  0
  1  4  1  0  0  0  0
  2  8  2  0  0  0  0
  3  2  1  1  0  0  0
  3  9  1  0  0  0  0
  4  9  1  0  0  0  0
  5  1  1  0  0  0  0
  5  3  1  0  0  0  0
  6  5  1  0  0  0  0
  6  3  1  0  0  0  0
  8  7  1  0  0  0  0
  9  7  1  0  0  0  0
 10  6  1  0  0  0  0
 12 14  1  0  0  0  0
 13 15  1  0  0  0  0
 14 18  1  0  0  0  0
 15 11  1  0  0  0  0
 15 14  2  0  0  0  0
 16 13  2  0  0  0  0
 16 17  1  0  0  0  0
 17 12  2  0  0  0  0
 19 16  1  0  0  0  0
 20 19  1  0  0  0  0
 21 19  1  0  0  0  0
 22 19  1  0  0  0  0
 23  6  1  0  0  0  0
 24 30  1  0  0  0  0
 24 23  1  0  0  0  0
 26 25  1  0  0  0  0
 26 29  1  0  0  0  0
 27 25  1  0  0  0  0
 28 26  1  0  0  0  0
 30 28  1  0  0  0  0
 30 27  1  0  0  0  0
 31 32  1  0  0  0  0
 32 26  1  0  0  0  0
 33 35  1  0  0  0  0
 33 32  1  0  0  0  0
 34 33  2  0  0  0  0
M  END
>  <MODEL>
3

>  <REMARK>
 VINA RESULT:      -7.7      2.285      3.539
  Name = 
  7 active torsions:
  status: ('A' for Active; 'I' for Inactive)
    1  A    between atoms: C_3  and  O_17
    2  A    between atoms: C_4  and  C_21
    3  A    between atoms: C_4  and  C_34
    4  A    between atoms: C_5  and  C_24
    5  A    between atoms: N_7  and  C_10
    6  A    between atoms: O_17  and  C_18
    7  A    between atoms: C_21  and  C_23
                            x       y       z     vdW  Elec       q    Type
                         _______ _______ _______ _____ _____    ______ ____

>  <TORSDO>
F 7

$$$$
=
 OpenBabel11062420053D

 35 39  0  0  1  0  0  0  0  0999 V2000
  189.8870  177.3010  143.7720 C   0  0  2  0  0  3  0  0  0  0  0  0
  189.5970  173.7790  143.5160 N   0  0  0  0  0  0  0  0  0  0  0  0
  190.2210  174.9800  144.0260 C   0  0  1  0  0  0  0  0  0  0  0  0
  191.0350  176.9350  142.8320 C   0  0  0  0  0  2  0  0  0  0  0  0
  189.2360  176.0660  144.2650 N   0  0  1  0  0  0  0  0  0  0  0  0
  189.9820  175.4480  145.3890 C   0  0  1  0  0  0  0  0  0  0  0  0
  191.0030  174.6970  141.9590 N   0  0  0  0  0  2  0  0  0  0  0  0
  190.1170  173.6340  142.3350 C   0  0  0  0  0  3  0  0  0  0  0  0
  191.0960  175.4770  142.9820 C   0  0  2  0  0  3  0  0  0  0  0  0
  189.1650  174.6320  146.1730 O   0  0  0  0  0  1  0  0  0  0  0  0
  188.9390  178.1050  143.0800 O   0  0  0  0  0  0  0  0  0  0  0  0
  185.3880  177.4720  142.3040 C   0  0  0  0  0  3  0  0  0  0  0  0
  186.9430  178.1630  144.4890 C   0  0  0  0  0  3  0  0  0  0  0  0
  186.7680  177.6160  142.1440 C   0  0  0  0  0  0  0  0  0  0  0  0
  187.5570  177.9620  143.2440 C   0  0  0  0  0  0  0  0  0  0  0  0
  185.5530  178.0300  144.6120 C   0  0  0  0  0  0  0  0  0  0  0  0
  184.8180  177.6740  143.5210 N   0  0  0  0  0  0  0  0  0  0  0  0
  187.3320  177.4140  140.9270 F   0  0  0  0  0  0  0  0  0  0  0  0
  184.8850  178.1910  145.9500 C   0  0  0  0  0  0  0  0  0  0  0  0
  183.6490  178.8260  145.8050 O   0  0  0  0  0  1  0  0  0  0  0  0
  184.6840  176.9400  146.5370 O   0  0  0  0  0  1  0  0  0  0  0  0
  185.7670  179.0260  146.8590 C   0  0  0  0  0  1  0  0  0  0  0  0
  191.0440  176.2950  146.1060 C   0  0  0  0  0  2  0  0  0  0  0  0
  191.8780  175.4520  147.0600 C   0  0  0  0  0  2  0  0  0  0  0  0
  194.6190  175.5980  144.5550 C   0  0  0  0  0  2  0  0  0  0  0  0
  194.4810  174.0900  144.7740 C   0  0  1  0  0  0  0  0  0  0  0  0
  193.6370  176.2820  145.4860 C   0  0  0  0  0  2  0  0  0  0  0  0
  193.4030  173.9190  145.8350 C   0  0  0  0  0  2  0  0  0  0  0  0
  194.0170  173.4610  143.4700 C   0  0  0  0  0  1  0  0  0  0  0  0
  193.2930  175.2510  146.5370 C   0  0  2  0  0  3  0  0  0  0  0  0
  196.9960  174.2220  145.2260 C   0  0  0  0  0  1  0  0  0  0  0  0
  195.7450  173.4670  145.2230 N   0  0  0  0  0  0  0  0  0  0  0  0
  195.7850  172.0970  145.6700 C   0  0  0  0  0  0  0  0  0  0  0  0
  196.8700  171.5830  146.0530 O   0  0  0  0  0  1  0  0  0  0  0  0
  194.6300  171.3240  145.6890 O   0  0  0  0  0  0  0  0  0  0  0  0
  1 11  1  6  0  0  0
  1  5  1  0  0  0  0
  3  2  1  6  0  0  0
  3  5  1  0  0  0  0
  3  6  1  0  0  0  0
  4  9  1  0  0  0  0
  4  1  1  0  0  0  0
  5  6  1  0  0  0  0
  6 23  1  0  0  0  0
  6 10  1  0  0  0  0
  7  8  1  0  0  0  0
  7  9  1  0  0  0  0
  8  2  2  0  0  0  0
  9  3  1  0  0  0  0
 11 15  1  0  0  0  0
 12 17  1  0  0  0  0
 13 16  1  0  0  0  0
 14 12  2  0  0  0  0
 14 15  1  0  0  0  0
 15 13  2  0  0  0  0
 16 19  1  0  0  0  0
 17 16  2  0  0  0  0
 18 14  1  0  0  0  0
 19 21  1  0  0  0  0
 19 22  1  0  0  0  0
 20 19  1  0  0  0  0
 23 24  1  0  0  0  0
 25 26  1  0  0  0  0
 25 27  1  0  0  0  0
 26 32  1  0  0  0  0
 26 28  1  0  0  0  0
 27 30  1  0  0  0  0
 28 30  1  0  0  0  0
 29 26  1  0  0  0  0
 30 24  1  0  0  0  0
 32 31  1  0  0  0  0
 32 33  1  0  0  0  0
 33 35  2  0  0  0  0
 33 34  1  0  0  0  0
M  END
>  <MODEL>
4

>  <REMARK>
 VINA RESULT:      -7.7      2.561      3.458
  Name = 
  7 active torsions:
  status: ('A' for Active; 'I' for Inactive)
    1  A    between atoms: C_3  and  O_17
    2  A    between atoms: C_4  and  C_21
    3  A    between atoms: C_4  and  C_34
    4  A    between atoms: C_5  and  C_24
    5  A    between atoms: N_7  and  C_10
    6  A    between atoms: O_17  and  C_18
    7  A    between atoms: C_21  and  C_23
                            x       y       z     vdW  Elec       q    Type
                         _______ _______ _______ _____ _____    ______ ____

>  <TORSDO>
F 7

$$$$
=
 OpenBabel11062420053D

 35 39  0  0  1  0  0  0  0  0999 V2000
  189.1600  176.1200  146.7050 C   0  0  2  0  0  3  0  0  0  0  0  0
  190.2040  175.7650  143.3390 N   0  0  0  0  0  0  0  0  0  0  0  0
  190.4640  175.9820  144.7450 C   0  0  1  0  0  0  0  0  0  0  0  0
  189.4460  177.5610  146.2870 C   0  0  0  0  0  2  0  0  0  0  0  0
  189.5450  175.1990  145.6120 N   0  0  1  0  0  0  0  0  0  0  0  0
  191.0030  174.9240  145.5960 C   0  0  1  0  0  0  0  0  0  0  0  0
  189.7500  177.9300  143.9320 N   0  0  0  0  0  2  0  0  0  0  0  0
  189.8370  176.9330  142.9050 C   0  0  0  0  0  3  0  0  0  0  0  0
  190.1610  177.3720  145.0210 C   0  0  2  0  0  3  0  0  0  0  0  0
  191.3010  173.7230  144.9510 O   0  0  0  0  0  1  0  0  0  0  0  0
  187.7760  175.9710  146.9990 O   0  0  0  0  0  0  0  0  0  0  0  0
  184.9320  178.3080  146.7420 C   0  0  0  0  0  3  0  0  0  0  0  0
  186.6500  176.9380  145.0570 C   0  0  0  0  0  3  0  0  0  0  0  0
  185.9180  177.4860  147.2910 C   0  0  0  0  0  0  0  0  0  0  0  0
  186.7890  176.7940  146.4450 C   0  0  0  0  0  0  0  0  0  0  0  0
  185.6380  177.7560  144.5360 C   0  0  0  0  0  0  0  0  0  0  0  0
  184.8180  178.4290  145.3920 N   0  0  0  0  0  0  0  0  0  0  0  0
  186.0260  177.3690  148.6380 F   0  0  0  0  0  0  0  0  0  0  0  0
  185.5080  177.9610  143.0510 C   0  0  0  0  0  0  0  0  0  0  0  0
  186.3260  179.0130  142.6310 O   0  0  0  0  0  1  0  0  0  0  0  0
  185.8840  176.7990  142.3740 O   0  0  0  0  0  1  0  0  0  0  0  0
  184.0670  178.2870  142.7100 C   0  0  0  0  0  1  0  0  0  0  0  0
  191.8220  175.2860  146.8440 C   0  0  0  0  0  2  0  0  0  0  0  0
  193.0900  176.0450  146.4770 C   0  0  0  0  0  2  0  0  0  0  0  0
  196.2630  174.8190  144.9810 C   0  0  0  0  0  2  0  0  0  0  0  0
  195.6560  175.6060  143.8170 C   0  0  1  0  0  0  0  0  0  0  0  0
  195.2720  174.8730  146.1280 C   0  0  0  0  0  2  0  0  0  0  0  0
  194.3110  176.1170  144.3150 C   0  0  0  0  0  2  0  0  0  0  0  0
  196.5690  176.7840  143.5140 C   0  0  0  0  0  1  0  0  0  0  0  0
  193.9510  175.2560  145.5020 C   0  0  2  0  0  3  0  0  0  0  0  0
  195.6970  173.3300  142.6480 C   0  0  0  0  0  1  0  0  0  0  0  0
  195.4730  174.7740  142.6080 N   0  0  0  0  0  0  0  0  0  0  0  0
  195.0710  175.3580  141.3530 C   0  0  0  0  0  0  0  0  0  0  0  0
  194.9160  174.6340  140.3340 O   0  0  0  0  0  0  0  0  0  0  0  0
  194.8450  176.7260  141.2480 O   0  0  0  0  0  1  0  0  0  0  0  0
  1 11  1  6  0  0  0
  3  2  1  6  0  0  0
  3  9  1  0  0  0  0
  3  6  1  0  0  0  0
  3  5  1  0  0  0  0
  4  1  1  0  0  0  0
  5  1  1  0  0  0  0
  6  5  1  0  0  0  0
  6 23  1  0  0  0  0
  7  9  1  0  0  0  0
  8  2  2  0  0  0  0
  8  7  1  0  0  0  0
  9  4  1  0  0  0  0
 10  6  1  0  0  0  0
 12 14  1  0  0  0  0
 13 15  1  0  0  0  0
 14 18  1  0  0  0  0
 15 11  1  0  0  0  0
 15 14  2  0  0  0  0
 16 13  2  0  0  0  0
 16 17  1  0  0  0  0
 17 12  2  0  0  0  0
 19 16  1  0  0  0  0
 20 19  1  0  0  0  0
 21 19  1  0  0  0  0
 22 19  1  0  0  0  0
 24 23  1  0  0  0  0
 25 27  1  0  0  0  0
 26 28  1  0  0  0  0
 26 25  1  0  0  0  0
 28 30  1  0  0  0  0
 29 26  1  0  0  0  0
 30 27  1  0  0  0  0
 30 24  1  0  0  0  0
 32 31  1  0  0  0  0
 32 26  1  0  0  0  0
 33 32  1  0  0  0  0
 34 33  2  0  0  0  0
 35 33  1  0  0  0  0
M  END
>  <MODEL>
5

>  <REMARK>
 VINA RESULT:      -7.6      2.174      2.999
  Name = 
  7 active torsions:
  status: ('A' for Active; 'I' for Inactive)
    1  A    between atoms: C_3  and  O_17
    2  A    between atoms: C_4  and  C_21
    3  A    between atoms: C_4  and  C_34
    4  A    between atoms: C_5  and  C_24
    5  A    between atoms: N_7  and  C_10
    6  A    between atoms: O_17  and  C_18
    7  A    between atoms: C_21  and  C_23
                            x       y       z     vdW  Elec       q    Type
                         _______ _______ _______ _____ _____    ______ ____

>  <TORSDO>
F 7

$$$$
=
 OpenBabel11062420053D

 35 39  0  0  1  0  0  0  0  0999 V2000
  191.4450  175.6460  144.0680 C   0  0  2  0  0  3  0  0  0  0  0  0
  193.2960  176.1470  147.0470 N   0  0  0  0  0  0  0  0  0  0  0  0
  192.2740  176.5230  146.0940 C   0  0  1  0  0  0  0  0  0  0  0  0
  192.4150  176.7610  143.6800 C   0  0  0  0  0  2  0  0  0  0  0  0
  191.5920  175.3410  145.5090 N   0  0  1  0  0  0  0  0  0  0  0  0
  190.8560  176.3040  146.3660 C   0  0  1  0  0  0  0  0  0  0  0  0
  194.2180  177.1660  145.2150 N   0  0  0  0  0  2  0  0  0  0  0  0
  194.3970  176.5820  146.5130 C   0  0  0  0  0  3  0  0  0  0  0  0
  192.9490  177.1660  144.9840 C   0  0  2  0  0  3  0  0  0  0  0  0
  190.5570  175.7660  147.6190 O   0  0  0  0  0  1  0  0  0  0  0  0
  191.7170  174.4840  143.2950 O   0  0  0  0  0  0  0  0  0  0  0  0
  188.9470  172.1230  142.6870 C   0  0  0  0  0  3  0  0  0  0  0  0
  190.4790  173.9360  141.2600 C   0  0  0  0  0  3  0  0  0  0  0  0
  189.9440  172.8450  143.3470 C   0  0  0  0  0  0  0  0  0  0  0  0
  190.7180  173.7620  142.6310 C   0  0  0  0  0  0  0  0  0  0  0  0
  189.4830  173.1830  140.6240 C   0  0  0  0  0  0  0  0  0  0  0  0
  188.7360  172.3100  141.3570 N   0  0  0  0  0  0  0  0  0  0  0  0
  190.1500  172.6540  144.6730 F   0  0  0  0  0  0  0  0  0  0  0  0
  189.1790  173.3940  139.1660 C   0  0  0  0  0  0  0  0  0  0  0  0
  190.3450  173.7050  138.4640 O   0  0  0  0  0  1  0  0  0  0  0  0
  188.6200  172.2340  138.6220 O   0  0  0  0  0  1  0  0  0  0  0  0
  188.1910  174.5340  139.0150 C   0  0  0  0  0  1  0  0  0  0  0  0
  189.8010  177.2020  145.7040 C   0  0  0  0  0  2  0  0  0  0  0  0
  188.3890  176.7220  146.0110 C   0  0  0  0  0  2  0  0  0  0  0  0
  187.4880  176.2090  142.4420 C   0  0  0  0  0  2  0  0  0  0  0  0
  187.4660  177.7350  142.5500 C   0  0  1  0  0  0  0  0  0  0  0  0
  187.8010  175.6630  143.8220 C   0  0  0  0  0  2  0  0  0  0  0  0
  187.7770  178.0560  144.0060 C   0  0  0  0  0  2  0  0  0  0  0  0
  188.5660  178.2900  141.6590 C   0  0  0  0  0  1  0  0  0  0  0  0
  187.4960  176.7910  144.7810 C   0  0  2  0  0  3  0  0  0  0  0  0
  185.3450  179.0410  143.1370 C   0  0  0  0  0  1  0  0  0  0  0  0
  186.1580  178.3090  142.1670 N   0  0  0  0  0  0  0  0  0  0  0  0
  185.6410  178.1650  140.8290 C   0  0  0  0  0  0  0  0  0  0  0  0
  184.5270  178.6640  140.5200 O   0  0  0  0  0  1  0  0  0  0  0  0
  186.3640  177.4780  139.8610 O   0  0  0  0  0  0  0  0  0  0  0  0
  1 11  1  6  0  0  0
  1  5  1  0  0  0  0
  3  6  1  0  0  0  0
  3  2  1  1  0  0  0
  4  1  1  0  0  0  0
  4  9  1  0  0  0  0
  5  3  1  0  0  0  0
  5  6  1  0  0  0  0
  6 10  1  0  0  0  0
  7  8  1  0  0  0  0
  8  2  2  0  0  0  0
  9  7  1  0  0  0  0
  9  3  1  0  0  0  0
 12 14  1  0  0  0  0
 13 15  1  0  0  0  0
 14 18  1  0  0  0  0
 15 11  1  0  0  0  0
 15 14  2  0  0  0  0
 16 13  2  0  0  0  0
 16 17  1  0  0  0  0
 17 12  2  0  0  0  0
 19 16  1  0  0  0  0
 20 19  1  0  0  0  0
 21 19  1  0  0  0  0
 22 19  1  0  0  0  0
 23 24  1  0  0  0  0
 23  6  1  0  0  0  0
 25 26  1  0  0  0  0
 25 27  1  0  0  0  0
 26 28  1  0  0  0  0
 27 30  1  0  0  0  0
 28 30  1  0  0  0  0
 29 26  1  0  0  0  0
 30 24  1  0  0  0  0
 32 26  1  0  0  0  0
 32 31  1  0  0  0  0
 33 32  1  0  0  0  0
 34 33  1  0  0  0  0
 35 33  2  0  0  0  0
M  END
>  <MODEL>
6

>  <REMARK>
 VINA RESULT:      -7.6      2.704      7.381
  Name = 
  7 active torsions:
  status: ('A' for Active; 'I' for Inactive)
    1  A    between atoms: C_3  and  O_17
    2  A    between atoms: C_4  and  C_21
    3  A    between atoms: C_4  and  C_34
    4  A    between atoms: C_5  and  C_24
    5  A    between atoms: N_7  and  C_10
    6  A    between atoms: O_17  and  C_18
    7  A    between atoms: C_21  and  C_23
                            x       y       z     vdW  Elec       q    Type
                         _______ _______ _______ _____ _____    ______ ____

>  <TORSDO>
F 7

$$$$
=
 OpenBabel11062420053D

 35 39  0  0  1  0  0  0  0  0999 V2000
  188.7280  175.8640  146.2780 C   0  0  2  0  0  3  0  0  0  0  0  0
  192.1520  176.5750  145.7080 N   0  0  0  0  0  0  0  0  0  0  0  0
  190.9740  175.7470  145.5680 C   0  0  1  0  0  0  0  0  0  0  0  0
  189.4350  174.9370  147.2650 C   0  0  0  0  0  2  0  0  0  0  0  0
  189.7340  176.5540  145.4380 N   0  0  1  0  0  0  0  0  0  0  0  0
  190.2130  175.7010  144.3210 C   0  0  1  0  0  0  0  0  0  0  0  0
  191.7750  175.3580  147.6100 N   0  0  0  0  0  2  0  0  0  0  0  0
  192.6040  176.2790  146.8880 C   0  0  0  0  0  3  0  0  0  0  0  0
  190.8260  175.0100  146.8080 C   0  0  2  0  0  3  0  0  0  0  0  0
  190.7310  176.4600  143.2710 O   0  0  0  0  0  1  0  0  0  0  0  0
  187.9530  176.8210  146.9900 O   0  0  0  0  0  0  0  0  0  0  0  0
  184.5670  178.2850  146.8890 C   0  0  0  0  0  3  0  0  0  0  0  0
  186.5410  177.4970  145.1130 C   0  0  0  0  0  3  0  0  0  0  0  0
  185.7600  177.7520  147.3830 C   0  0  0  0  0  0  0  0  0  0  0  0
  186.7590  177.3550  146.4910 C   0  0  0  0  0  0  0  0  0  0  0  0
  185.3250  178.0180  144.6480 C   0  0  0  0  0  0  0  0  0  0  0  0
  184.3800  178.4110  145.5480 N   0  0  0  0  0  0  0  0  0  0  0  0
  185.9410  177.6280  148.7220 F   0  0  0  0  0  0  0  0  0  0  0  0
  185.0950  178.2250  143.1760 C   0  0  0  0  0  0  0  0  0  0  0  0
  183.7270  178.2900  142.9010 O   0  0  0  0  0  1  0  0  0  0  0  0
  185.6960  179.4160  142.7620 O   0  0  0  0  0  1  0  0  0  0  0  0
  185.7010  177.0710  142.4010 C   0  0  0  0  0  1  0  0  0  0  0  0
  189.3990  174.4490  143.9650 C   0  0  0  0  0  2  0  0  0  0  0  0
  188.6060  174.6460  142.6810 C   0  0  0  0  0  2  0  0  0  0  0  0
  190.0630  171.4520  141.4630 C   0  0  0  0  0  2  0  0  0  0  0  0
  190.4060  172.4050  140.3150 C   0  0  1  0  0  0  0  0  0  0  0  0
  189.2670  172.2410  142.4830 C   0  0  0  0  0  2  0  0  0  0  0  0
  189.8020  173.7500  140.6960 C   0  0  0  0  0  2  0  0  0  0  0  0
  191.9200  172.5290  140.2370 C   0  0  0  0  0  1  0  0  0  0  0  0
  188.7560  173.4570  141.7440 C   0  0  2  0  0  3  0  0  0  0  0  0
  189.0890  172.8490  138.1670 C   0  0  0  0  0  1  0  0  0  0  0  0
  189.8610  171.9460  139.0190 N   0  0  0  0  0  0  0  0  0  0  0  0
  190.0720  170.5980  138.5550 C   0  0  0  0  0  0  0  0  0  0  0  0
  189.6040  170.2260  137.4460 O   0  0  0  0  0  0  0  0  0  0  0  0
  190.7950  169.6900  139.3200 O   0  0  0  0  0  1  0  0  0  0  0  0
  1 11  1  1  0  0  0
  1  4  1  0  0  0  0
  2  8  2  0  0  0  0
  3  2  1  6  0  0  0
  3  9  1  0  0  0  0
  5  3  1  0  0  0  0
  5  1  1  0  0  0  0
  6  5  1  0  0  0  0
  6  3  1  0  0  0  0
  8  7  1  0  0  0  0
  9  4  1  0  0  0  0
  9  7  1  0  0  0  0
 10  6  1  0  0  0  0
 12 14  1  0  0  0  0
 13 15  1  0  0  0  0
 14 18  1  0  0  0  0
 15 11  1  0  0  0  0
 15 14  2  0  0  0  0
 16 13  2  0  0  0  0
 16 17  1  0  0  0  0
 17 12  2  0  0  0  0
 19 16  1  0  0  0  0
 20 19  1  0  0  0  0
 21 19  1  0  0  0  0
 22 19  1  0  0  0  0
 23  6  1  0  0  0  0
 24 23  1  0  0  0  0
 25 27  1  0  0  0  0
 26 28  1  0  0  0  0
 26 25  1  0  0  0  0
 28 30  1  0  0  0  0
 29 26  1  0  0  0  0
 30 27  1  0  0  0  0
 30 24  1  0  0  0  0
 31 32  1  0  0  0  0
 32 26  1  0  0  0  0
 33 32  1  0  0  0  0
 33 35  1  0  0  0  0
 34 33  2  0  0  0  0
M  END
>  <MODEL>
7

>  <REMARK>
 VINA RESULT:      -7.5      2.912      5.373
  Name = 
  7 active torsions:
  status: ('A' for Active; 'I' for Inactive)
    1  A    between atoms: C_3  and  O_17
    2  A    between atoms: C_4  and  C_21
    3  A    between atoms: C_4  and  C_34
    4  A    between atoms: C_5  and  C_24
    5  A    between atoms: N_7  and  C_10
    6  A    between atoms: O_17  and  C_18
    7  A    between atoms: C_21  and  C_23
                            x       y       z     vdW  Elec       q    Type
                         _______ _______ _______ _____ _____    ______ ____

>  <TORSDO>
F 7

$$$$
=
 OpenBabel11062420053D

 35 39  0  0  1  0  0  0  0  0999 V2000
  190.7540  177.0400  144.0220 C   0  0  2  0  0  3  0  0  0  0  0  0
  189.9720  173.7830  145.1730 N   0  0  0  0  0  0  0  0  0  0  0  0
  190.8940  174.8730  144.9410 C   0  0  1  0  0  0  0  0  0  0  0  0
  191.3120  176.1480  142.9140 C   0  0  0  0  0  2  0  0  0  0  0  0
  190.2520  176.1990  145.1320 N   0  0  1  0  0  0  0  0  0  0  0  0
  191.3430  175.7410  146.0270 C   0  0  1  0  0  0  0  0  0  0  0  0
  190.6340  173.8440  142.9820 N   0  0  0  0  0  2  0  0  0  0  0  0
  189.8910  173.1910  144.0200 C   0  0  0  0  0  3  0  0  0  0  0  0
  191.2630  174.8230  143.5400 C   0  0  2  0  0  3  0  0  0  0  0  0
  190.8710  175.4100  147.2980 O   0  0  0  0  0  1  0  0  0  0  0  0
  189.6990  177.8420  143.5050 O   0  0  0  0  0  0  0  0  0  0  0  0
  186.4390  176.3190  142.6900 C   0  0  0  0  0  3  0  0  0  0  0  0
  187.5540  177.8950  144.6750 C   0  0  0  0  0  3  0  0  0  0  0  0
  187.7830  176.6840  142.5990 C   0  0  0  0  0  0  0  0  0  0  0  0
  188.3510  177.4780  143.6000 C   0  0  0  0  0  0  0  0  0  0  0  0
  186.2030  177.5270  144.7280 C   0  0  0  0  0  0  0  0  0  0  0  0
  185.6870  176.7370  143.7440 N   0  0  0  0  0  0  0  0  0  0  0  0
  188.5270  176.2640  141.5460 F   0  0  0  0  0  0  0  0  0  0  0  0
  185.3470  177.9220  145.9010 C   0  0  0  0  0  0  0  0  0  0  0  0
  184.8240  176.7880  146.5270 O   0  0  0  0  0  1  0  0  0  0  0  0
  186.1090  178.6380  146.8270 O   0  0  0  0  0  1  0  0  0  0  0  0
  184.2040  178.7950  145.4210 C   0  0  0  0  0  1  0  0  0  0  0  0
  192.7030  176.4460  145.9320 C   0  0  0  0  0  2  0  0  0  0  0  0
  193.8280  175.5620  146.4520 C   0  0  0  0  0  2  0  0  0  0  0  0
  196.8520  174.6280  144.5040 C   0  0  0  0  0  2  0  0  0  0  0  0
  196.0940  175.4990  143.5000 C   0  0  1  0  0  0  0  0  0  0  0  0
  195.9940  174.5260  145.7510 C   0  0  0  0  0  2  0  0  0  0  0  0
  194.7970  175.8990  144.1890 C   0  0  0  0  0  2  0  0  0  0  0  0
  196.9280  176.7400  143.2220 C   0  0  0  0  0  1  0  0  0  0  0  0
  194.5990  174.9110  145.3140 C   0  0  2  0  0  3  0  0  0  0  0  0
  196.2240  173.3960  142.0480 C   0  0  0  0  0  1  0  0  0  0  0  0
  195.8040  174.7820  142.2390 N   0  0  0  0  0  0  0  0  0  0  0  0
  195.1000  175.4270  141.1580 C   0  0  0  0  0  0  0  0  0  0  0  0
  194.8580  174.8000  140.0930 O   0  0  0  0  0  0  0  0  0  0  0  0
  194.6760  176.7450  141.2760 O   0  0  0  0  0  1  0  0  0  0  0  0
  1 11  1  6  0  0  0
  1  5  1  0  0  0  0
  3  5  1  0  0  0  0
  3  2  1  1  0  0  0
  3  6  1  0  0  0  0
  4  9  1  0  0  0  0
  4  1  1  0  0  0  0
  5  6  1  0  0  0  0
  6 10  1  0  0  0  0
  7  9  1  0  0  0  0
  7  8  1  0  0  0  0
  8  2  2  0  0  0  0
  9  3  1  0  0  0  0
 11 15  1  0  0  0  0
 12 17  1  0  0  0  0
 13 16  1  0  0  0  0
 14 12  2  0  0  0  0
 14 15  1  0  0  0  0
 15 13  2  0  0  0  0
 16 19  1  0  0  0  0
 17 16  2  0  0  0  0
 18 14  1  0  0  0  0
 19 20  1  0  0  0  0
 19 21  1  0  0  0  0
 22 19  1  0  0  0  0
 23  6  1  0  0  0  0
 23 24  1  0  0  0  0
 25 27  1  0  0  0  0
 26 28  1  0  0  0  0
 26 25  1  0  0  0  0
 28 30  1  0  0  0  0
 29 26  1  0  0  0  0
 30 27  1  0  0  0  0
 30 24  1  0  0  0  0
 31 32  1  0  0  0  0
 32 26  1  0  0  0  0
 33 35  1  0  0  0  0
 33 32  1  0  0  0  0
 34 33  2  0  0  0  0
M  END
>  <MODEL>
8

>  <REMARK>
 VINA RESULT:      -7.5      2.342      3.619
  Name = 
  7 active torsions:
  status: ('A' for Active; 'I' for Inactive)
    1  A    between atoms: C_3  and  O_17
    2  A    between atoms: C_4  and  C_21
    3  A    between atoms: C_4  and  C_34
    4  A    between atoms: C_5  and  C_24
    5  A    between atoms: N_7  and  C_10
    6  A    between atoms: O_17  and  C_18
    7  A    between atoms: C_21  and  C_23
                            x       y       z     vdW  Elec       q    Type
                         _______ _______ _______ _____ _____    ______ ____

>  <TORSDO>
F 7

$$$$
=
 OpenBabel11062420053D

 35 39  0  0  1  0  0  0  0  0999 V2000
  189.7890  173.3570  144.0730 C   0  0  2  0  0  3  0  0  0  0  0  0
  191.8440  172.1470  141.4530 N   0  0  0  0  0  0  0  0  0  0  0  0
  190.6400  172.7740  141.9520 C   0  0  1  0  0  0  0  0  0  0  0  0
  189.1130  172.0390  143.6940 C   0  0  0  0  0  2  0  0  0  0  0  0
  190.9040  173.6290  143.1370 N   0  0  1  0  0  0  0  0  0  0  0  0
  190.4340  174.2180  141.8590 C   0  0  1  0  0  0  0  0  0  0  0  0
  190.3800  170.5830  142.2630 N   0  0  0  0  0  2  0  0  0  0  0  0
  191.6250  170.8770  141.6140 C   0  0  0  0  0  3  0  0  0  0  0  0
  189.7760  171.7120  142.4280 C   0  0  2  0  0  3  0  0  0  0  0  0
  191.4430  174.9310  141.2100 O   0  0  0  0  0  1  0  0  0  0  0  0
  190.2820  173.2770  145.4050 O   0  0  0  0  0  0  0  0  0  0  0  0
  190.7720  176.1270  147.6970 C   0  0  0  0  0  3  0  0  0  0  0  0
  192.1880  174.7690  145.7420 C   0  0  0  0  0  3  0  0  0  0  0  0
  190.1730  175.0470  147.0440 C   0  0  0  0  0  0  0  0  0  0  0  0
  190.8850  174.3580  146.0580 C   0  0  0  0  0  0  0  0  0  0  0  0
  192.7540  175.8680  146.4030 C   0  0  0  0  0  0  0  0  0  0  0  0
  192.0370  176.5050  147.3720 N   0  0  0  0  0  0  0  0  0  0  0  0
  188.9120  174.6740  147.3720 F   0  0  0  0  0  0  0  0  0  0  0  0
  194.1680  176.2900  146.1130 C   0  0  0  0  0  0  0  0  0  0  0  0
  194.4870  177.4490  146.8240 O   0  0  0  0  0  1  0  0  0  0  0  0
  195.0540  175.2750  146.4840 O   0  0  0  0  0  1  0  0  0  0  0  0
  194.3220  176.5610  144.6290 C   0  0  0  0  0  1  0  0  0  0  0  0
  189.0080  174.7860  141.8040 C   0  0  0  0  0  2  0  0  0  0  0  0
  188.9560  176.2120  142.3340 C   0  0  0  0  0  2  0  0  0  0  0  0
  185.5180  176.9940  143.5090 C   0  0  0  0  0  2  0  0  0  0  0  0
  186.3370  178.0840  144.2030 C   0  0  1  0  0  0  0  0  0  0  0  0
  186.4910  176.1140  142.7480 C   0  0  0  0  0  2  0  0  0  0  0  0
  187.7880  177.8220  143.8230 C   0  0  0  0  0  2  0  0  0  0  0  0
  185.9000  179.4320  143.6490 C   0  0  0  0  0  1  0  0  0  0  0  0
  187.8460  176.3860  143.3600 C   0  0  2  0  0  3  0  0  0  0  0  0
  187.2850  177.6580  146.5410 C   0  0  0  0  0  1  0  0  0  0  0  0
  186.1800  178.0590  145.6740 N   0  0  0  0  0  0  0  0  0  0  0  0
  184.9340  178.4270  146.2980 C   0  0  0  0  0  0  0  0  0  0  0  0
  184.8190  178.4040  147.5520 O   0  0  0  0  0  1  0  0  0  0  0  0
  183.8430  178.8160  145.5290 O   0  0  0  0  0  0  0  0  0  0  0  0
  1 11  1  1  0  0  0
  2  8  2  0  0  0  0
  3  2  1  6  0  0  0
  3  9  1  0  0  0  0
  3  5  1  0  0  0  0
  4  1  1  0  0  0  0
  5  1  1  0  0  0  0
  6  3  1  0  0  0  0
  6  5  1  0  0  0  0
  7  9  1  0  0  0  0
  8  7  1  0  0  0  0
  9  4  1  0  0  0  0
 10  6  1  0  0  0  0
 11 15  1  0  0  0  0
 13 15  2  0  0  0  0
 13 16  1  0  0  0  0
 14 18  1  0  0  0  0
 14 12  2  0  0  0  0
 15 14  1  0  0  0  0
 16 17  2  0  0  0  0
 17 12  1  0  0  0  0
 19 16  1  0  0  0  0
 19 21  1  0  0  0  0
 19 20  1  0  0  0  0
 22 19  1  0  0  0  0
 23  6  1  0  0  0  0
 23 24  1  0  0  0  0
 24 30  1  0  0  0  0
 25 26  1  0  0  0  0
 26 32  1  0  0  0  0
 27 30  1  0  0  0  0
 27 25  1  0  0  0  0
 28 26  1  0  0  0  0
 29 26  1  0  0  0  0
 30 28  1  0  0  0  0
 32 33  1  0  0  0  0
 32 31  1  0  0  0  0
 33 34  1  0  0  0  0
 35 33  2  0  0  0  0
M  END
>  <MODEL>
9

>  <REMARK>
 VINA RESULT:      -7.4      2.526      7.358
  Name = 
  7 active torsions:
  status: ('A' for Active; 'I' for Inactive)
    1  A    between atoms: C_3  and  O_17
    2  A    between atoms: C_4  and  C_21
    3  A    between atoms: C_4  and  C_34
    4  A    between atoms: C_5  and  C_24
    5  A    between atoms: N_7  and  C_10
    6  A    between atoms: O_17  and  C_18
    7  A    between atoms: C_21  and  C_23
                            x       y       z     vdW  Elec       q    Type
                         _______ _______ _______ _____ _____    ______ ____

>  <TORSDO>
F 7

$$$$
