=
 OpenBabel11072408483D

 26 29  0  0  1  0  0  0  0  0999 V2000
  186.6370  177.7280  147.4220 C   0  0  0  0  0  2  0  0  0  0  0  0
  184.3460  178.2780  146.6490 C   0  0  0  0  0  1  0  0  0  0  0  0
  187.2120  177.1940  145.1000 C   0  0  0  0  0  2  0  0  0  0  0  0
  185.2310  180.1050  144.1150 O   0  0  0  0  0  0  0  0  0  0  0  0
  185.9840  179.0990  144.0060 C   0  0  0  0  0  0  0  0  0  0  0  0
  186.2610  178.2830  145.1490 N   0  0  0  0  0  0  0  0  0  0  0  0
  185.8200  178.6090  146.4920 C   0  0  2  0  0  3  0  0  0  0  0  0
  187.3890  176.7350  146.5400 C   0  0  1  0  0  3  0  0  0  0  0  0
  190.3410  174.7920  146.0190 N   0  0  0  0  0  0  0  0  0  0  0  0
  188.8500  174.3930  147.7610 O   0  0  0  0  0  0  0  0  0  0  0  0
  190.9420  175.6330  145.2350 C   0  0  0  0  0  0  0  0  0  0  0  0
  189.3400  175.2190  146.9480 C   0  0  0  0  0  0  0  0  0  0  0  0
  189.7000  177.5110  146.0960 N   0  0  0  0  0  0  0  0  0  0  0  0
  191.9380  175.1700  144.3320 N   0  0  0  0  0  1  0  0  0  0  0  0
  190.6310  177.0680  145.3050 C   0  0  0  0  0  3  0  0  0  0  0  0
  188.8640  176.6500  146.9470 C   0  0  1  0  0  3  0  0  0  0  0  0
  186.5680  178.7830  142.7790 O   0  0  0  0  0  0  0  0  0  0  0  0
  185.8630  178.0790  141.7660 C   0  0  0  0  0  2  0  0  0  0  0  0
  186.8450  177.5040  140.7540 C   0  0  0  0  0  2  0  0  0  0  0  0
  188.9250  176.6950  141.9540 C   0  0  0  0  0  2  0  0  0  0  0  0
  186.8720  175.5490  142.2430 O   0  0  0  0  0  0  0  0  0  0  0  0
  189.6150  175.4670  141.9350 O   0  0  0  0  0  0  0  0  0  0  0  0
  188.0500  175.4330  140.3400 O   0  0  0  0  0  0  0  0  0  0  0  0
  187.5640  174.3240  142.2100 C   0  0  0  0  0  2  0  0  0  0  0  0
  187.6160  176.3110  141.3140 C   0  0  1  0  0  0  0  0  0  0  0  0
  188.7040  174.6220  141.2520 C   0  0  2  0  0  3  0  0  0  0  0  0
  3  6  1  0  0  0  0
  5  4  2  0  0  0  0
  5  6  1  0  0  0  0
  6  7  1  0  0  0  0
  7  2  1  6  0  0  0
  7  1  1  0  0  0  0
  8  3  1  6  0  0  0
  8 16  1  0  0  0  0
  8  1  1  0  0  0  0
  9 12  1  0  0  0  0
 11 15  1  0  0  0  0
 11  9  2  0  0  0  0
 12 10  2  0  0  0  0
 14 11  1  0  0  0  0
 15 13  2  0  0  0  0
 16 13  1  6  0  0  0
 16 12  1  0  0  0  0
 17  5  1  0  0  0  0
 18 17  1  0  0  0  0
 19 18  1  0  0  0  0
 22 20  1  0  0  0  0
 23 26  1  0  0  0  0
 23 25  1  0  0  0  0
 24 21  1  0  0  0  0
 25 19  1  6  0  0  0
 25 20  1  0  0  0  0
 25 21  1  0  0  0  0
 26 22  1  0  0  0  0
 26 24  1  1  0  0  0
M  END
>  <MODEL>
1

>  <REMARK>
 VINA RESULT:      -7.2      0.000      0.000
  Name = 
  5 active torsions:
  status: ('A' for Active; 'I' for Inactive)
    1  A    between atoms: C_12  and  C_14
    2  A    between atoms: C_12  and  C_18
    3  A    between atoms: C_14  and  O_24
    4  A    between atoms: C_17  and  O_24
    5  A    between atoms: C_23  and  C_26
                            x       y       z     vdW  Elec       q    Type
                         _______ _______ _______ _____ _____    ______ ____

>  <TORSDO>
F 5

$$$$
=
 OpenBabel11072408483D

 26 29  0  0  1  0  0  0  0  0999 V2000
  185.2880  177.8760  143.9190 C   0  0  0  0  0  2  0  0  0  0  0  0
  184.6380  178.7140  146.1600 C   0  0  0  0  0  1  0  0  0  0  0  0
  187.5830  177.6560  144.7490 C   0  0  0  0  0  2  0  0  0  0  0  0
  186.1550  176.4150  147.8780 O   0  0  0  0  0  0  0  0  0  0  0  0
  187.0270  176.7450  147.0280 C   0  0  0  0  0  0  0  0  0  0  0  0
  186.6340  177.3710  145.8020 N   0  0  0  0  0  0  0  0  0  0  0  0
  185.2510  177.5500  145.4020 C   0  0  2  0  0  3  0  0  0  0  0  0
  186.7540  178.0970  143.5520 C   0  0  1  0  0  3  0  0  0  0  0  0
  189.4140  176.2450  142.0500 N   0  0  0  0  0  0  0  0  0  0  0  0
  189.1270  178.5330  141.7390 O   0  0  0  0  0  0  0  0  0  0  0  0
  188.8940  175.0680  142.2170 C   0  0  0  0  0  0  0  0  0  0  0  0
  188.6000  177.4210  142.0020 C   0  0  0  0  0  0  0  0  0  0  0  0
  186.6500  175.9400  142.3380 N   0  0  0  0  0  0  0  0  0  0  0  0
  189.7360  173.9220  142.2510 N   0  0  0  0  0  1  0  0  0  0  0  0
  187.4370  174.9060  142.3300 C   0  0  0  0  0  3  0  0  0  0  0  0
  187.1200  177.3330  142.2760 C   0  0  1  0  0  3  0  0  0  0  0  0
  188.3780  176.4880  147.2660 O   0  0  0  0  0  0  0  0  0  0  0  0
  188.8940  175.1670  147.3390 C   0  0  0  0  0  2  0  0  0  0  0  0
  189.4470  174.7490  145.9840 C   0  0  0  0  0  2  0  0  0  0  0  0
  191.6300  175.4160  147.0840 C   0  0  0  0  0  2  0  0  0  0  0  0
  191.6500  174.3210  144.9830 O   0  0  0  0  0  0  0  0  0  0  0  0
  192.6870  176.2480  146.6680 O   0  0  0  0  0  0  0  0  0  0  0  0
  191.0010  176.4540  145.2160 O   0  0  0  0  0  0  0  0  0  0  0  0
  192.6990  175.1640  144.5670 C   0  0  0  0  0  2  0  0  0  0  0  0
  190.8920  175.2010  145.7880 C   0  0  1  0  0  0  0  0  0  0  0  0
  192.3840  176.4580  145.2990 C   0  0  2  0  0  3  0  0  0  0  0  0
  1  7  1  0  0  0  0
  3  6  1  0  0  0  0
  5 17  1  0  0  0  0
  5  4  2  0  0  0  0
  6  5  1  0  0  0  0
  7  6  1  0  0  0  0
  7  2  1  1  0  0  0
  8  1  1  1  0  0  0
  8  3  1  0  0  0  0
  9 11  2  0  0  0  0
 10 12  2  0  0  0  0
 11 14  1  0  0  0  0
 11 15  1  0  0  0  0
 12  9  1  0  0  0  0
 15 13  2  0  0  0  0
 16 12  1  1  0  0  0
 16 13  1  0  0  0  0
 16  8  1  0  0  0  0
 17 18  1  0  0  0  0
 19 18  1  0  0  0  0
 21 25  1  0  0  0  0
 22 20  1  0  0  0  0
 23 26  1  0  0  0  0
 23 25  1  0  0  0  0
 24 21  1  0  0  0  0
 25 19  1  1  0  0  0
 25 20  1  0  0  0  0
 26 24  1  6  0  0  0
 26 22  1  0  0  0  0
M  END
>  <MODEL>
2

>  <REMARK>
 VINA RESULT:      -6.8      2.276      4.908
  Name = 
  5 active torsions:
  status: ('A' for Active; 'I' for Inactive)
    1  A    between atoms: C_12  and  C_14
    2  A    between atoms: C_12  and  C_18
    3  A    between atoms: C_14  and  O_24
    4  A    between atoms: C_17  and  O_24
    5  A    between atoms: C_23  and  C_26
                            x       y       z     vdW  Elec       q    Type
                         _______ _______ _______ _____ _____    ______ ____

>  <TORSDO>
F 5

$$$$
=
 OpenBabel11072408483D

 26 29  0  0  1  0  0  0  0  0999 V2000
  192.0400  175.7910  144.0880 C   0  0  0  0  0  2  0  0  0  0  0  0
  192.7090  175.2310  146.4090 C   0  0  0  0  0  1  0  0  0  0  0  0
  189.7450  175.1680  144.6780 C   0  0  0  0  0  2  0  0  0  0  0  0
  190.2990  176.8220  147.8920 O   0  0  0  0  0  0  0  0  0  0  0  0
  189.6960  176.2050  146.9700 C   0  0  0  0  0  0  0  0  0  0  0  0
  190.4140  175.7690  145.8110 N   0  0  0  0  0  0  0  0  0  0  0  0
  191.8030  176.1010  145.5560 C   0  0  2  0  0  3  0  0  0  0  0  0
  190.7980  175.0600  143.5850 C   0  0  1  0  0  3  0  0  0  0  0  0
  187.8800  175.4000  141.5510 N   0  0  0  0  0  0  0  0  0  0  0  0
  189.3880  173.6410  141.3250 O   0  0  0  0  0  0  0  0  0  0  0  0
  187.6560  176.6510  141.8120 C   0  0  0  0  0  0  0  0  0  0  0  0
  189.1870  174.8310  141.6810 C   0  0  0  0  0  0  0  0  0  0  0  0
  189.9580  177.0670  142.4000 N   0  0  0  0  0  0  0  0  0  0  0  0
  186.3460  177.1810  141.6620 N   0  0  0  0  0  1  0  0  0  0  0  0
  188.7580  177.5350  142.2210 C   0  0  0  0  0  3  0  0  0  0  0  0
  190.3180  175.6480  142.2540 C   0  0  1  0  0  3  0  0  0  0  0  0
  188.3260  175.9590  147.0640 O   0  0  0  0  0  0  0  0  0  0  0  0
  187.3610  176.9900  146.9170 C   0  0  0  0  0  2  0  0  0  0  0  0
  186.4950  176.7200  145.6950 C   0  0  0  0  0  2  0  0  0  0  0  0
  184.7070  178.3390  146.4700 C   0  0  0  0  0  2  0  0  0  0  0  0
  186.3400  179.0420  144.9050 O   0  0  0  0  0  0  0  0  0  0  0  0
  183.7200  179.0670  145.7760 O   0  0  0  0  0  0  0  0  0  0  0  0
  184.6830  177.6360  144.3560 O   0  0  0  0  0  0  0  0  0  0  0  0
  185.3480  179.7580  144.2080 C   0  0  0  0  0  2  0  0  0  0  0  0
  185.6110  177.9130  145.3410 C   0  0  1  0  0  0  0  0  0  0  0  0
  184.1160  178.8970  144.4250 C   0  0  2  0  0  3  0  0  0  0  0  0
  1  7  1  0  0  0  0
  3  6  1  0  0  0  0
  5 17  1  0  0  0  0
  5  4  2  0  0  0  0
  6  5  1  0  0  0  0
  7  6  1  0  0  0  0
  7  2  1  1  0  0  0
  8  1  1  1  0  0  0
  8  3  1  0  0  0  0
  9 12  1  0  0  0  0
  9 11  2  0  0  0  0
 10 12  2  0  0  0  0
 11 15  1  0  0  0  0
 14 11  1  0  0  0  0
 15 13  2  0  0  0  0
 16 12  1  1  0  0  0
 16 13  1  0  0  0  0
 16  8  1  0  0  0  0
 18 17  1  0  0  0  0
 19 18  1  0  0  0  0
 21 25  1  0  0  0  0
 22 20  1  0  0  0  0
 23 26  1  0  0  0  0
 23 25  1  0  0  0  0
 24 21  1  0  0  0  0
 25 19  1  1  0  0  0
 25 20  1  0  0  0  0
 26 24  1  1  0  0  0
 26 22  1  0  0  0  0
M  END
>  <MODEL>
3

>  <REMARK>
 VINA RESULT:      -6.8      2.028      5.788
  Name = 
  5 active torsions:
  status: ('A' for Active; 'I' for Inactive)
    1  A    between atoms: C_12  and  C_14
    2  A    between atoms: C_12  and  C_18
    3  A    between atoms: C_14  and  O_24
    4  A    between atoms: C_17  and  O_24
    5  A    between atoms: C_23  and  C_26
                            x       y       z     vdW  Elec       q    Type
                         _______ _______ _______ _____ _____    ______ ____

>  <TORSDO>
F 5

$$$$
=
 OpenBabel11072408483D

 26 29  0  0  1  0  0  0  0  0999 V2000
  189.6560  176.6730  147.3390 C   0  0  0  0  0  2  0  0  0  0  0  0
  191.8580  176.4080  146.2300 C   0  0  0  0  0  1  0  0  0  0  0  0
  188.6080  176.5130  145.1290 C   0  0  0  0  0  2  0  0  0  0  0  0
  191.0350  173.8920  144.3510 O   0  0  0  0  0  0  0  0  0  0  0  0
  190.0580  174.6770  144.2040 C   0  0  0  0  0  0  0  0  0  0  0  0
  189.7830  175.6730  145.1940 N   0  0  0  0  0  0  0  0  0  0  0  0
  190.4980  175.7710  146.4530 C   0  0  2  0  0  3  0  0  0  0  0  0
  188.5600  177.2600  146.4540 C   0  0  1  0  0  3  0  0  0  0  0  0
  185.5400  179.0900  146.9990 N   0  0  0  0  0  0  0  0  0  0  0  0
  187.3350  179.1350  148.4790 O   0  0  0  0  0  0  0  0  0  0  0  0
  184.8080  178.4340  146.1520 C   0  0  0  0  0  0  0  0  0  0  0  0
  186.7070  178.5070  147.5870 C   0  0  0  0  0  0  0  0  0  0  0  0
  186.2160  176.4800  146.2620 N   0  0  0  0  0  0  0  0  0  0  0  0
  183.6510  179.0440  145.5960 N   0  0  0  0  0  1  0  0  0  0  0  0
  185.1440  177.0470  145.7950 C   0  0  0  0  0  3  0  0  0  0  0  0
  187.1910  177.1530  147.1350 C   0  0  1  0  0  3  0  0  0  0  0  0
  189.2290  174.5710  143.0870 O   0  0  0  0  0  0  0  0  0  0  0  0
  189.4030  175.3840  141.9360 C   0  0  0  0  0  2  0  0  0  0  0  0
  188.1360  175.3680  141.0920 C   0  0  0  0  0  2  0  0  0  0  0  0
  188.1520  177.8090  141.7710 C   0  0  0  0  0  2  0  0  0  0  0  0
  186.7350  177.0790  140.0190 O   0  0  0  0  0  0  0  0  0  0  0  0
  187.1410  178.6720  142.2380 O   0  0  0  0  0  0  0  0  0  0  0  0
  186.3300  176.5900  142.1690 O   0  0  0  0  0  0  0  0  0  0  0  0
  185.7230  177.9330  140.4970 C   0  0  0  0  0  2  0  0  0  0  0  0
  187.3380  176.6630  141.2280 C   0  0  1  0  0  0  0  0  0  0  0  0
  185.9660  177.9160  141.9960 C   0  0  2  0  0  3  0  0  0  0  0  0
  3  6  1  0  0  0  0
  5  4  2  0  0  0  0
  5  6  1  0  0  0  0
  6  7  1  0  0  0  0
  7  2  1  6  0  0  0
  7  1  1  0  0  0  0
  8  3  1  6  0  0  0
  8 16  1  0  0  0  0
  8  1  1  0  0  0  0
  9 12  1  0  0  0  0
 11  9  2  0  0  0  0
 12 10  2  0  0  0  0
 14 11  1  0  0  0  0
 15 11  1  0  0  0  0
 15 13  2  0  0  0  0
 16 13  1  6  0  0  0
 16 12  1  0  0  0  0
 17  5  1  0  0  0  0
 18 17  1  0  0  0  0
 19 18  1  0  0  0  0
 20 22  1  0  0  0  0
 21 24  1  0  0  0  0
 21 25  1  0  0  0  0
 25 19  1  6  0  0  0
 25 20  1  0  0  0  0
 25 23  1  0  0  0  0
 26 24  1  6  0  0  0
 26 23  1  0  0  0  0
 26 22  1  0  0  0  0
M  END
>  <MODEL>
4

>  <REMARK>
 VINA RESULT:      -6.8      1.792      4.880
  Name = 
  5 active torsions:
  status: ('A' for Active; 'I' for Inactive)
    1  A    between atoms: C_12  and  C_14
    2  A    between atoms: C_12  and  C_18
    3  A    between atoms: C_14  and  O_24
    4  A    between atoms: C_17  and  O_24
    5  A    between atoms: C_23  and  C_26
                            x       y       z     vdW  Elec       q    Type
                         _______ _______ _______ _____ _____    ______ ____

>  <TORSDO>
F 5

$$$$
=
 OpenBabel11072408483D

 26 29  0  0  1  0  0  0  0  0999 V2000
  186.5800  178.1250  146.7270 C   0  0  0  0  0  2  0  0  0  0  0  0
  184.3370  178.4800  145.7310 C   0  0  0  0  0  1  0  0  0  0  0  0
  186.9970  176.4350  145.0010 C   0  0  0  0  0  2  0  0  0  0  0  0
  185.3210  178.6710  142.6430 O   0  0  0  0  0  0  0  0  0  0  0  0
  185.9500  177.6650  143.0710 C   0  0  0  0  0  0  0  0  0  0  0  0
  186.1780  177.5060  144.4750 N   0  0  0  0  0  0  0  0  0  0  0  0
  185.8310  178.5100  145.4630 C   0  0  2  0  0  3  0  0  0  0  0  0
  187.1780  176.7430  146.4810 C   0  0  1  0  0  3  0  0  0  0  0  0
  190.1950  174.8920  145.9900 N   0  0  0  0  0  0  0  0  0  0  0  0
  188.6920  174.4370  147.7080 O   0  0  0  0  0  0  0  0  0  0  0  0
  190.7820  175.7570  145.2200 C   0  0  0  0  0  0  0  0  0  0  0  0
  189.1690  175.2840  146.9070 C   0  0  0  0  0  0  0  0  0  0  0  0
  189.4710  177.5910  146.0750 N   0  0  0  0  0  0  0  0  0  0  0  0
  191.8030  175.3300  144.3280 N   0  0  0  0  0  1  0  0  0  0  0  0
  190.4260  177.1820  145.2940 C   0  0  0  0  0  3  0  0  0  0  0  0
  188.6490  176.6990  146.9080 C   0  0  1  0  0  3  0  0  0  0  0  0
  186.4440  176.7100  142.1820 O   0  0  0  0  0  0  0  0  0  0  0  0
  187.5460  176.9730  141.3250 C   0  0  0  0  0  2  0  0  0  0  0  0
  188.7980  176.3000  141.8680 C   0  0  0  0  0  2  0  0  0  0  0  0
  190.2270  174.2750  141.3390 C   0  0  0  0  0  2  0  0  0  0  0  0
  188.1950  174.0100  142.5270 O   0  0  0  0  0  0  0  0  0  0  0  0
  189.9680  173.0920  140.6200 O   0  0  0  0  0  0  0  0  0  0  0  0
  188.2480  174.4910  140.3380 O   0  0  0  0  0  0  0  0  0  0  0  0
  187.9340  172.8360  141.7960 C   0  0  0  0  0  2  0  0  0  0  0  0
  188.8330  174.8070  141.5490 C   0  0  1  0  0  0  0  0  0  0  0  0
  188.5610  173.1470  140.4480 C   0  0  2  0  0  3  0  0  0  0  0  0
  4  5  2  0  0  0  0
  5  6  1  0  0  0  0
  6  3  1  0  0  0  0
  6  7  1  0  0  0  0
  7  2  1  1  0  0  0
  7  1  1  0  0  0  0
  8  3  1  6  0  0  0
  8  1  1  0  0  0  0
  8 16  1  0  0  0  0
  9 12  1  0  0  0  0
 11 15  1  0  0  0  0
 11  9  2  0  0  0  0
 12 16  1  0  0  0  0
 12 10  2  0  0  0  0
 14 11  1  0  0  0  0
 15 13  2  0  0  0  0
 16 13  1  6  0  0  0
 17  5  1  0  0  0  0
 18 19  1  0  0  0  0
 18 17  1  0  0  0  0
 20 25  1  0  0  0  0
 22 20  1  0  0  0  0
 23 26  1  0  0  0  0
 23 25  1  0  0  0  0
 24 21  1  0  0  0  0
 25 19  1  1  0  0  0
 25 21  1  0  0  0  0
 26 22  1  0  0  0  0
 26 24  1  1  0  0  0
M  END
>  <MODEL>
5

>  <REMARK>
 VINA RESULT:      -6.7      1.090      1.480
  Name = 
  5 active torsions:
  status: ('A' for Active; 'I' for Inactive)
    1  A    between atoms: C_12  and  C_14
    2  A    between atoms: C_12  and  C_18
    3  A    between atoms: C_14  and  O_24
    4  A    between atoms: C_17  and  O_24
    5  A    between atoms: C_23  and  C_26
                            x       y       z     vdW  Elec       q    Type
                         _______ _______ _______ _____ _____    ______ ____

>  <TORSDO>
F 5

$$$$
=
 OpenBabel11072408483D

 26 29  0  0  1  0  0  0  0  0999 V2000
  189.0550  175.4020  147.3020 C   0  0  0  0  0  2  0  0  0  0  0  0
  191.3870  175.2640  148.1330 C   0  0  0  0  0  1  0  0  0  0  0  0
  189.7870  177.1620  145.7610 C   0  0  0  0  0  2  0  0  0  0  0  0
  192.8230  175.1960  145.2210 O   0  0  0  0  0  0  0  0  0  0  0  0
  191.9820  176.1280  145.0930 C   0  0  0  0  0  0  0  0  0  0  0  0
  190.8360  176.1850  145.9500 N   0  0  0  0  0  0  0  0  0  0  0  0
  190.5000  175.1470  146.9060 C   0  0  2  0  0  3  0  0  0  0  0  0
  188.6660  176.7520  146.7060 C   0  0  1  0  0  3  0  0  0  0  0  0
  185.7170  178.6570  146.0460 N   0  0  0  0  0  0  0  0  0  0  0  0
  185.9250  177.2340  147.8750 O   0  0  0  0  0  0  0  0  0  0  0  0
  185.9820  178.9250  144.8040 C   0  0  0  0  0  0  0  0  0  0  0  0
  186.2820  177.5180  146.7020 C   0  0  0  0  0  0  0  0  0  0  0  0
  187.4320  177.0120  144.5730 N   0  0  0  0  0  0  0  0  0  0  0  0
  185.3940  180.0610  144.1850 N   0  0  0  0  0  1  0  0  0  0  0  0
  186.8540  178.0370  144.0210 C   0  0  0  0  0  3  0  0  0  0  0  0
  187.3100  176.6680  145.9990 C   0  0  1  0  0  3  0  0  0  0  0  0
  192.1500  177.1000  144.1060 O   0  0  0  0  0  0  0  0  0  0  0  0
  191.6890  176.9150  142.7760 C   0  0  0  0  0  2  0  0  0  0  0  0
  191.4890  175.4310  142.4980 C   0  0  0  0  0  2  0  0  0  0  0  0
  189.3790  174.2280  143.2190 C   0  0  0  0  0  2  0  0  0  0  0  0
  189.2270  176.2410  141.9800 O   0  0  0  0  0  0  0  0  0  0  0  0
  188.2960  173.6930  142.4950 O   0  0  0  0  0  0  0  0  0  0  0  0
  189.8870  174.3110  141.0520 O   0  0  0  0  0  0  0  0  0  0  0  0
  188.1540  175.6970  141.2500 C   0  0  0  0  0  2  0  0  0  0  0  0
  190.0340  175.0980  142.1770 C   0  0  1  0  0  0  0  0  0  0  0  0
  188.5130  174.2220  141.1970 C   0  0  2  0  0  3  0  0  0  0  0  0
  3  6  1  0  0  0  0
  5  4  2  0  0  0  0
  5  6  1  0  0  0  0
  6  7  1  0  0  0  0
  7  1  1  0  0  0  0
  7  2  1  1  0  0  0
  8  3  1  6  0  0  0
  8  1  1  0  0  0  0
  9 12  1  0  0  0  0
 11  9  2  0  0  0  0
 12 10  2  0  0  0  0
 14 11  1  0  0  0  0
 15 13  2  0  0  0  0
 15 11  1  0  0  0  0
 16 13  1  6  0  0  0
 16 12  1  0  0  0  0
 16  8  1  0  0  0  0
 17  5  1  0  0  0  0
 18 17  1  0  0  0  0
 19 18  1  0  0  0  0
 21 25  1  0  0  0  0
 22 20  1  0  0  0  0
 23 26  1  0  0  0  0
 23 25  1  0  0  0  0
 24 21  1  0  0  0  0
 25 19  1  1  0  0  0
 25 20  1  0  0  0  0
 26 24  1  1  0  0  0
 26 22  1  0  0  0  0
M  END
>  <MODEL>
6

>  <REMARK>
 VINA RESULT:      -6.6      2.037      4.822
  Name = 
  5 active torsions:
  status: ('A' for Active; 'I' for Inactive)
    1  A    between atoms: C_12  and  C_14
    2  A    between atoms: C_12  and  C_18
    3  A    between atoms: C_14  and  O_24
    4  A    between atoms: C_17  and  O_24
    5  A    between atoms: C_23  and  C_26
                            x       y       z     vdW  Elec       q    Type
                         _______ _______ _______ _____ _____    ______ ____

>  <TORSDO>
F 5

$$$$
=
 OpenBabel11072408483D

 26 29  0  0  1  0  0  0  0  0999 V2000
  185.7010  177.3470  145.9990 C   0  0  0  0  0  2  0  0  0  0  0  0
  186.8610  178.3410  147.9530 C   0  0  0  0  0  1  0  0  0  0  0  0
  187.6770  177.8780  144.6510 C   0  0  0  0  0  2  0  0  0  0  0  0
  189.7040  176.8360  147.5100 O   0  0  0  0  0  0  0  0  0  0  0  0
  189.4210  177.2400  146.3490 C   0  0  0  0  0  0  0  0  0  0  0  0
  188.0630  177.5300  146.0000 N   0  0  0  0  0  0  0  0  0  0  0  0
  186.9380  177.2710  146.8780 C   0  0  2  0  0  3  0  0  0  0  0  0
  186.1550  177.8830  144.6440 C   0  0  1  0  0  3  0  0  0  0  0  0
  185.2990  178.0600  141.1800 N   0  0  0  0  0  0  0  0  0  0  0  0
  183.7850  178.5190  142.8870 O   0  0  0  0  0  0  0  0  0  0  0  0
  186.3080  177.3740  140.7380 C   0  0  0  0  0  0  0  0  0  0  0  0
  184.8260  177.9120  142.5220 C   0  0  0  0  0  0  0  0  0  0  0  0
  186.6210  176.2450  142.8450 N   0  0  0  0  0  0  0  0  0  0  0  0
  186.7430  177.5430  139.3950 N   0  0  0  0  0  1  0  0  0  0  0  0
  186.9770  176.3920  141.6030 C   0  0  0  0  0  3  0  0  0  0  0  0
  185.5750  177.0440  143.5020 C   0  0  1  0  0  3  0  0  0  0  0  0
  190.4230  177.3900  145.3900 O   0  0  0  0  0  0  0  0  0  0  0  0
  191.1740  176.2870  144.9010 C   0  0  0  0  0  2  0  0  0  0  0  0
  190.4820  175.6860  143.6860 C   0  0  0  0  0  2  0  0  0  0  0  0
  189.3420  173.5940  142.8250 C   0  0  0  0  0  2  0  0  0  0  0  0
  191.5630  173.4800  143.6400 O   0  0  0  0  0  0  0  0  0  0  0  0
  189.0510  172.3540  143.4280 O   0  0  0  0  0  0  0  0  0  0  0  0
  189.8020  173.7550  144.9980 O   0  0  0  0  0  0  0  0  0  0  0  0
  191.2640  172.2480  144.2520 C   0  0  0  0  0  2  0  0  0  0  0  0
  190.3400  174.1700  143.7960 C   0  0  1  0  0  0  0  0  0  0  0  0
  189.8020  172.4210  144.6280 C   0  0  2  0  0  3  0  0  0  0  0  0
  1  7  1  0  0  0  0
  3  6  1  0  0  0  0
  5  4  2  0  0  0  0
  6  5  1  0  0  0  0
  6  7  1  0  0  0  0
  7  2  1  1  0  0  0
  8  3  1  1  0  0  0
  8  1  1  0  0  0  0
  9 12  1  0  0  0  0
 11  9  2  0  0  0  0
 11 15  1  0  0  0  0
 12 10  2  0  0  0  0
 13 16  1  0  0  0  0
 14 11  1  0  0  0  0
 15 13  2  0  0  0  0
 16 12  1  6  0  0  0
 16  8  1  0  0  0  0
 17  5  1  0  0  0  0
 18 17  1  0  0  0  0
 19 18  1  0  0  0  0
 20 22  1  0  0  0  0
 20 25  1  0  0  0  0
 21 25  1  0  0  0  0
 21 24  1  0  0  0  0
 22 26  1  0  0  0  0
 25 19  1  6  0  0  0
 25 23  1  0  0  0  0
 26 24  1  6  0  0  0
 26 23  1  0  0  0  0
M  END
>  <MODEL>
7

>  <REMARK>
 VINA RESULT:      -6.5      2.584      5.048
  Name = 
  5 active torsions:
  status: ('A' for Active; 'I' for Inactive)
    1  A    between atoms: C_12  and  C_14
    2  A    between atoms: C_12  and  C_18
    3  A    between atoms: C_14  and  O_24
    4  A    between atoms: C_17  and  O_24
    5  A    between atoms: C_23  and  C_26
                            x       y       z     vdW  Elec       q    Type
                         _______ _______ _______ _____ _____    ______ ____

>  <TORSDO>
F 5

$$$$
=
 OpenBabel11072408483D

 26 29  0  0  1  0  0  0  0  0999 V2000
  185.7460  177.1870  145.9390 C   0  0  0  0  0  2  0  0  0  0  0  0
  186.8680  178.2260  147.8910 C   0  0  0  0  0  1  0  0  0  0  0  0
  187.6070  177.9670  144.5490 C   0  0  0  0  0  2  0  0  0  0  0  0
  189.8320  177.0420  147.2990 O   0  0  0  0  0  0  0  0  0  0  0  0
  189.4680  177.4540  146.1640 C   0  0  0  0  0  0  0  0  0  0  0  0
  188.0760  177.6140  145.8710 N   0  0  0  0  0  0  0  0  0  0  0  0
  187.0150  177.2090  146.7740 C   0  0  2  0  0  3  0  0  0  0  0  0
  186.0940  177.8140  144.5920 C   0  0  1  0  0  3  0  0  0  0  0  0
  185.2370  177.9890  141.1280 N   0  0  0  0  0  0  0  0  0  0  0  0
  183.6960  178.3440  142.8360 O   0  0  0  0  0  0  0  0  0  0  0  0
  186.2820  177.3640  140.6790 C   0  0  0  0  0  0  0  0  0  0  0  0
  184.7690  177.7990  142.4670 C   0  0  0  0  0  0  0  0  0  0  0  0
  186.6510  176.2260  142.7730 N   0  0  0  0  0  0  0  0  0  0  0  0
  186.7100  177.5730  139.3400 N   0  0  0  0  0  1  0  0  0  0  0  0
  187.0010  176.4080  141.5340 C   0  0  0  0  0  3  0  0  0  0  0  0
  185.5620  176.9590  143.4370 C   0  0  1  0  0  3  0  0  0  0  0  0
  190.4140  177.7410  145.1790 O   0  0  0  0  0  0  0  0  0  0  0  0
  190.8220  176.7780  144.2190 C   0  0  0  0  0  2  0  0  0  0  0  0
  191.4180  175.5650  144.9200 C   0  0  0  0  0  2  0  0  0  0  0  0
  193.7290  174.5440  145.1070 C   0  0  0  0  0  2  0  0  0  0  0  0
  193.4900  176.8440  144.5900 O   0  0  0  0  0  0  0  0  0  0  0  0
  194.8330  174.8380  145.9320 O   0  0  0  0  0  0  0  0  0  0  0  0
  193.0770  176.0270  146.6360 O   0  0  0  0  0  0  0  0  0  0  0  0
  194.5860  177.1340  145.4260 C   0  0  0  0  0  2  0  0  0  0  0  0
  192.8830  175.7780  145.2920 C   0  0  1  0  0  0  0  0  0  0  0  0
  194.4550  176.0770  146.5090 C   0  0  2  0  0  3  0  0  0  0  0  0
  1  7  1  0  0  0  0
  3  6  1  0  0  0  0
  5  4  2  0  0  0  0
  6  5  1  0  0  0  0
  6  7  1  0  0  0  0
  7  2  1  1  0  0  0
  8  3  1  6  0  0  0
  8  1  1  0  0  0  0
  9 12  1  0  0  0  0
 11  9  2  0  0  0  0
 11 15  1  0  0  0  0
 12 10  2  0  0  0  0
 13 16  1  0  0  0  0
 14 11  1  0  0  0  0
 15 13  2  0  0  0  0
 16 12  1  6  0  0  0
 16  8  1  0  0  0  0
 17  5  1  0  0  0  0
 18 19  1  0  0  0  0
 18 17  1  0  0  0  0
 20 25  1  0  0  0  0
 20 22  1  0  0  0  0
 21 25  1  0  0  0  0
 21 24  1  0  0  0  0
 22 26  1  0  0  0  0
 25 19  1  6  0  0  0
 25 23  1  0  0  0  0
 26 24  1  6  0  0  0
 26 23  1  0  0  0  0
M  END
>  <MODEL>
8

>  <REMARK>
 VINA RESULT:      -6.5      3.037      5.901
  Name = 
  5 active torsions:
  status: ('A' for Active; 'I' for Inactive)
    1  A    between atoms: C_12  and  C_14
    2  A    between atoms: C_12  and  C_18
    3  A    between atoms: C_14  and  O_24
    4  A    between atoms: C_17  and  O_24
    5  A    between atoms: C_23  and  C_26
                            x       y       z     vdW  Elec       q    Type
                         _______ _______ _______ _____ _____    ______ ____

>  <TORSDO>
F 5

$$$$
=
 OpenBabel11072408483D

 26 29  0  0  1  0  0  0  0  0999 V2000
  191.7510  174.8870  145.6840 C   0  0  0  0  0  2  0  0  0  0  0  0
  191.5740  175.7200  148.0120 C   0  0  0  0  0  1  0  0  0  0  0  0
  189.3050  174.7450  145.6270 C   0  0  0  0  0  2  0  0  0  0  0  0
  189.2450  177.9130  147.4530 O   0  0  0  0  0  0  0  0  0  0  0  0
  188.8190  176.8950  146.8410 C   0  0  0  0  0  0  0  0  0  0  0  0
  189.7290  175.8680  146.4330 N   0  0  0  0  0  0  0  0  0  0  0  0
  191.1700  175.9740  146.5710 C   0  0  2  0  0  3  0  0  0  0  0  0
  190.5810  174.0220  145.2220 C   0  0  1  0  0  3  0  0  0  0  0  0
  188.5200  173.7490  142.3170 N   0  0  0  0  0  0  0  0  0  0  0  0
  189.1250  171.9180  143.6210 O   0  0  0  0  0  0  0  0  0  0  0  0
  188.8200  174.9030  141.8070 C   0  0  0  0  0  0  0  0  0  0  0  0
  189.4020  173.0800  143.2240 C   0  0  0  0  0  0  0  0  0  0  0  0
  190.9260  175.0100  142.9760 N   0  0  0  0  0  0  0  0  0  0  0  0
  187.9210  175.5320  140.9030 N   0  0  0  0  0  1  0  0  0  0  0  0
  190.1030  175.5470  142.1250 C   0  0  0  0  0  3  0  0  0  0  0  0
  190.6520  173.7660  143.7130 C   0  0  1  0  0  3  0  0  0  0  0  0
  187.4620  176.7680  146.5420 O   0  0  0  0  0  0  0  0  0  0  0  0
  186.5780  177.8790  146.5550 C   0  0  0  0  0  2  0  0  0  0  0  0
  185.2920  177.5280  145.8200 C   0  0  0  0  0  2  0  0  0  0  0  0
  184.0660  178.6660  143.9170 C   0  0  0  0  0  2  0  0  0  0  0  0
  186.4280  178.7950  144.0470 O   0  0  0  0  0  0  0  0  0  0  0  0
  184.1450  178.5250  142.5170 O   0  0  0  0  0  0  0  0  0  0  0  0
  185.3620  176.9100  143.4690 O   0  0  0  0  0  0  0  0  0  0  0  0
  186.5020  178.6410  142.6500 C   0  0  0  0  0  2  0  0  0  0  0  0
  185.3260  177.9670  144.3580 C   0  0  1  0  0  0  0  0  0  0  0  0
  185.3150  177.7390  142.3610 C   0  0  2  0  0  3  0  0  0  0  0  0
  1  7  1  0  0  0  0
  3  6  1  0  0  0  0
  5  4  2  0  0  0  0
  6  7  1  0  0  0  0
  6  5  1  0  0  0  0
  7  2  1  1  0  0  0
  8  3  1  6  0  0  0
  8  1  1  0  0  0  0
  9 12  1  0  0  0  0
 11 15  1  0  0  0  0
 11  9  2  0  0  0  0
 12 10  2  0  0  0  0
 12 16  1  0  0  0  0
 14 11  1  0  0  0  0
 15 13  2  0  0  0  0
 16 13  1  6  0  0  0
 16  8  1  0  0  0  0
 17 18  1  0  0  0  0
 17  5  1  0  0  0  0
 19 18  1  0  0  0  0
 20 25  1  0  0  0  0
 21 25  1  0  0  0  0
 22 20  1  0  0  0  0
 23 25  1  0  0  0  0
 24 21  1  0  0  0  0
 25 19  1  1  0  0  0
 26 22  1  0  0  0  0
 26 24  1  1  0  0  0
 26 23  1  0  0  0  0
M  END
>  <MODEL>
9

>  <REMARK>
 VINA RESULT:      -6.5      2.329      4.912
  Name = 
  5 active torsions:
  status: ('A' for Active; 'I' for Inactive)
    1  A    between atoms: C_12  and  C_14
    2  A    between atoms: C_12  and  C_18
    3  A    between atoms: C_14  and  O_24
    4  A    between atoms: C_17  and  O_24
    5  A    between atoms: C_23  and  C_26
                            x       y       z     vdW  Elec       q    Type
                         _______ _______ _______ _____ _____    ______ ____

>  <TORSDO>
F 5

$$$$
