=
 OpenBabel11062420093D

 35 38  0  0  1  0  0  0  0  0999 V2000
  187.5840  174.8680  140.2710 O   0  0  0  0  0  0  0  0  0  0  0  0
  188.7880  176.8740  145.0930 O   0  0  0  0  0  0  0  0  0  0  0  0
  184.8230  176.9180  146.7950 N   0  0  0  0  0  1  0  0  0  0  0  0
  191.0650  176.5690  144.4960 C   0  0  0  0  0  2  0  0  0  0  0  0
  186.4480  177.6830  145.1880 C   0  0  0  0  0  0  0  0  0  0  0  0
  190.4550  172.9940  141.9280 C   0  0  1  0  0  3  0  0  0  0  0  0
  186.1710  178.1700  142.8200 C   0  0  0  0  0  0  0  0  0  0  0  0
  186.8300  178.6030  144.0800 C   0  0  0  0  0  2  0  0  0  0  0  0
  184.1310  178.4700  145.0270 N   0  0  0  0  0  0  0  0  0  0  0  0
  189.6560  173.7090  140.8210 C   0  0  0  0  0  2  0  0  0  0  0  0
  189.9510  176.1320  145.4700 C   0  0  2  0  0  0  0  0  0  0  0  0
  184.8540  178.2950  142.6740 C   0  0  0  0  0  3  0  0  0  0  0  0
  183.9610  178.7460  143.7610 C   0  0  0  0  0  3  0  0  0  0  0  0
  186.8500  177.0960  140.4180 C   0  0  0  0  0  2  0  0  0  0  0  0
  190.6710  173.7890  143.2250 C   0  0  1  0  0  3  0  0  0  0  0  0
  185.1720  177.6770  145.6410 C   0  0  0  0  0  0  0  0  0  0  0  0
  187.3430  176.0540  146.7030 O   0  0  0  0  0  0  0  0  0  0  0  0
  187.3880  172.7180  141.2570 C   0  0  0  0  0  1  0  0  0  0  0  0
  188.0460  176.2000  140.4200 C   0  0  1  0  0  3  0  0  0  0  0  0
  188.1530  176.6780  141.8370 C   0  0  0  0  0  2  0  0  0  0  0  0
  186.9490  177.5130  141.8250 N   0  0  0  0  0  0  0  0  0  0  0  0
  191.5400  175.0180  142.9850 C   0  0  0  0  0  2  0  0  0  0  0  0
  189.3680  174.1420  143.9480 C   0  0  0  0  0  2  0  0  0  0  0  0
  187.5330  176.8220  145.7210 C   0  0  0  0  0  0  0  0  0  0  0  0
  189.6380  174.6230  145.3720 C   0  0  0  0  0  2  0  0  0  0  0  0
  188.1990  174.0000  141.1940 C   0  0  2  0  0  3  0  0  0  0  0  0
  191.9670  175.5380  144.2110 O   0  0  0  0  0  0  0  0  0  0  0  0
  190.2790  177.8820  147.1210 O   0  0  0  0  0  1  0  0  0  0  0  0
  190.3350  176.4990  146.9280 C   0  0  2  0  0  3  0  0  0  0  0  0
  191.6650  175.9540  147.4820 C   0  0  2  0  0  3  0  0  0  0  0  0
  191.4700  175.1830  148.6290 O   0  0  0  0  0  1  0  0  0  0  0  0
  192.6280  177.0090  147.7460 N   0  0  0  0  0  2  0  0  0  0  0  0
  193.8020  176.7360  146.9350 C   0  0  0  0  0  1  0  0  0  0  0  0
  189.9380  171.7250  142.2020 O   0  0  0  0  0  0  0  0  0  0  0  0
  190.6580  170.8580  141.3780 C   0  0  0  0  0  1  0  0  0  0  0  0
  1 19  1  0  0  0  0
  1 26  1  0  0  0  0
  2 11  1  0  0  0  0
  2 24  1  0  0  0  0
  4 11  1  0  0  0  0
  5 16  2  0  0  0  0
  5 24  1  0  0  0  0
  6 34  1  1  0  0  0
  6 15  1  0  0  0  0
  7  8  1  0  0  0  0
  8  5  1  0  0  0  0
  9 16  1  0  0  0  0
 10 26  1  0  0  0  0
 10  6  1  0  0  0  0
 11 29  1  1  0  0  0
 12  7  2  0  0  0  0
 12 13  1  0  0  0  0
 13  9  2  0  0  0  0
 14 21  1  0  0  0  0
 15 22  1  6  0  0  0
 15 23  1  0  0  0  0
 16  3  1  0  0  0  0
 19 14  1  6  0  0  0
 19 20  1  0  0  0  0
 21 20  1  0  0  0  0
 21  7  1  0  0  0  0
 22 27  1  0  0  0  0
 23 25  1  0  0  0  0
 24 17  2  0  0  0  0
 25 11  1  0  0  0  0
 26 18  1  6  0  0  0
 27  4  1  0  0  0  0
 29 28  1  6  0  0  0
 29 30  1  0  0  0  0
 30 32  1  0  0  0  0
 30 31  1  1  0  0  0
 33 32  1  0  0  0  0
 35 34  1  0  0  0  0
M  END
>  <MODEL>
1

>  <REMARK>
 VINA RESULT:      -7.0      0.000      0.000
  Name = 
  4 active torsions:
  status: ('A' for Active; 'I' for Inactive)
    1  A    between atoms: C_7  and  O_28
    2  A    between atoms: C_8  and  C_16
    3  A    between atoms: C_8  and  N_21
    4  A    between atoms: C_13  and  C_16
                            x       y       z     vdW  Elec       q    Type
                         _______ _______ _______ _____ _____    ______ ____

>  <TORSDO>
F 4

$$$$
=
 OpenBabel11062420093D

 35 38  0  0  1  0  0  0  0  0999 V2000
  191.0530  176.4330  146.6910 O   0  0  0  0  0  0  0  0  0  0  0  0
  188.0410  174.7460  142.5910 O   0  0  0  0  0  0  0  0  0  0  0  0
  186.5860  178.5720  141.2260 N   0  0  0  0  0  1  0  0  0  0  0  0
  189.0240  172.6120  142.9300 C   0  0  0  0  0  2  0  0  0  0  0  0
  186.7260  176.8250  142.8810 C   0  0  0  0  0  0  0  0  0  0  0  0
  192.9590  174.0770  144.3850 C   0  0  1  0  0  3  0  0  0  0  0  0
  186.9120  176.9980  145.3010 C   0  0  0  0  0  0  0  0  0  0  0  0
  186.2880  176.2450  144.1810 C   0  0  0  0  0  2  0  0  0  0  0  0
  185.5120  178.8890  143.4070 N   0  0  0  0  0  0  0  0  0  0  0  0
  192.4400  174.6930  145.7000 C   0  0  0  0  0  2  0  0  0  0  0  0
  188.8860  173.7900  141.9430 C   0  0  2  0  0  0  0  0  0  0  0  0
  186.5370  178.2490  145.5590 C   0  0  0  0  0  3  0  0  0  0  0  0
  185.5910  179.0000  144.7070 C   0  0  0  0  0  3  0  0  0  0  0  0
  188.7750  176.6150  147.2410 C   0  0  0  0  0  2  0  0  0  0  0  0
  191.8880  173.6670  143.3630 C   0  0  1  0  0  3  0  0  0  0  0  0
  186.3040  178.0610  142.5260 C   0  0  0  0  0  0  0  0  0  0  0  0
  187.9930  176.3310  140.9060 O   0  0  0  0  0  0  0  0  0  0  0  0
  192.7090  177.1270  145.1380 C   0  0  0  0  0  1  0  0  0  0  0  0
  189.8800  175.6670  146.9050 C   0  0  1  0  0  3  0  0  0  0  0  0
  189.0420  175.4360  145.6830 C   0  0  0  0  0  2  0  0  0  0  0  0
  187.9950  176.4070  146.0120 N   0  0  0  0  0  0  0  0  0  0  0  0
  191.0190  172.5320  143.8940 C   0  0  0  0  0  2  0  0  0  0  0  0
  191.0470  174.8420  142.8570 C   0  0  0  0  0  2  0  0  0  0  0  0
  187.6160  175.9720  142.0540 C   0  0  0  0  0  0  0  0  0  0  0  0
  190.2410  174.4540  141.6190 C   0  0  0  0  0  2  0  0  0  0  0  0
  191.7260  176.0350  145.5190 C   0  0  2  0  0  3  0  0  0  0  0  0
  190.2720  171.9830  142.8470 O   0  0  0  0  0  0  0  0  0  0  0  0
  187.4510  172.1600  140.8550 O   0  0  0  0  0  1  0  0  0  0  0  0
  188.2010  173.3170  140.6330 C   0  0  2  0  0  3  0  0  0  0  0  0
  189.0860  173.1270  139.3850 C   0  0  2  0  0  3  0  0  0  0  0  0
  188.5850  173.8240  138.2850 O   0  0  0  0  0  1  0  0  0  0  0  0
  189.2710  171.7250  139.0480 N   0  0  0  0  0  2  0  0  0  0  0  0
  190.6450  171.3820  139.3700 C   0  0  0  0  0  1  0  0  0  0  0  0
  193.9360  174.8790  143.7880 O   0  0  0  0  0  0  0  0  0  0  0  0
  195.1490  174.3940  144.2800 C   0  0  0  0  0  1  0  0  0  0  0  0
  1 19  1  0  0  0  0
  3 16  1  0  0  0  0
  5  8  1  0  0  0  0
  6 34  1  6  0  0  0
  6 10  1  0  0  0  0
  7 12  2  0  0  0  0
  7 21  1  0  0  0  0
  8  7  1  0  0  0  0
  9 13  2  0  0  0  0
 11 29  1  6  0  0  0
 11  2  1  0  0  0  0
 11  4  1  0  0  0  0
 13 12  1  0  0  0  0
 15 23  1  1  0  0  0
 15 22  1  0  0  0  0
 15  6  1  0  0  0  0
 16  5  2  0  0  0  0
 16  9  1  0  0  0  0
 17 24  2  0  0  0  0
 19 20  1  6  0  0  0
 19 14  1  0  0  0  0
 20 21  1  0  0  0  0
 21 14  1  0  0  0  0
 24  2  1  0  0  0  0
 24  5  1  0  0  0  0
 25 11  1  0  0  0  0
 25 23  1  0  0  0  0
 26 18  1  1  0  0  0
 26 10  1  0  0  0  0
 26  1  1  0  0  0  0
 27  4  1  0  0  0  0
 27 22  1  0  0  0  0
 29 28  1  1  0  0  0
 30 31  1  6  0  0  0
 30 29  1  0  0  0  0
 32 33  1  0  0  0  0
 32 30  1  0  0  0  0
 34 35  1  0  0  0  0
M  END
>  <MODEL>
2

>  <REMARK>
 VINA RESULT:      -7.0      2.105      5.803
  Name = 
  4 active torsions:
  status: ('A' for Active; 'I' for Inactive)
    1  A    between atoms: C_7  and  O_28
    2  A    between atoms: C_8  and  C_16
    3  A    between atoms: C_8  and  N_21
    4  A    between atoms: C_13  and  C_16
                            x       y       z     vdW  Elec       q    Type
                         _______ _______ _______ _____ _____    ______ ____

>  <TORSDO>
F 4

$$$$
=
 OpenBabel11062420093D

 35 38  0  0  1  0  0  0  0  0999 V2000
  192.4540  176.1860  146.8000 O   0  0  0  0  0  0  0  0  0  0  0  0
  188.5450  174.9090  143.3640 O   0  0  0  0  0  0  0  0  0  0  0  0
  186.6790  178.7840  143.0200 N   0  0  0  0  0  1  0  0  0  0  0  0
  189.6420  172.8200  143.1100 C   0  0  0  0  0  2  0  0  0  0  0  0
  187.2880  176.8310  144.2930 C   0  0  0  0  0  0  0  0  0  0  0  0
  193.7750  174.3210  143.7540 C   0  0  1  0  0  3  0  0  0  0  0  0
  188.0810  176.6650  146.5880 C   0  0  0  0  0  0  0  0  0  0  0  0
  187.2140  176.0410  145.5540 C   0  0  0  0  0  2  0  0  0  0  0  0
  186.1890  178.7110  145.4210 N   0  0  0  0  0  0  0  0  0  0  0  0
  193.5920  174.7050  145.2360 C   0  0  0  0  0  2  0  0  0  0  0  0
  189.2220  174.1150  142.3850 C   0  0  2  0  0  0  0  0  0  0  0  0
  187.7490  177.8370  147.1240 C   0  0  0  0  0  3  0  0  0  0  0  0
  186.5950  178.6380  146.6620 C   0  0  0  0  0  3  0  0  0  0  0  0
  190.3880  176.1330  147.9200 C   0  0  0  0  0  2  0  0  0  0  0  0
  192.4900  173.9920  142.9790 C   0  0  1  0  0  3  0  0  0  0  0  0
  186.7540  178.0740  144.2530 C   0  0  0  0  0  0  0  0  0  0  0  0
  188.0210  176.7130  142.0140 O   0  0  0  0  0  0  0  0  0  0  0  0
  193.6380  177.2080  145.0140 C   0  0  0  0  0  1  0  0  0  0  0  0
  191.3970  175.3200  147.1760 C   0  0  1  0  0  3  0  0  0  0  0  0
  190.2810  175.2120  146.1800 C   0  0  0  0  0  2  0  0  0  0  0  0
  189.3260  176.0520  146.9060 N   0  0  0  0  0  0  0  0  0  0  0  0
  191.8190  172.7370  143.5240 C   0  0  0  0  0  2  0  0  0  0  0  0
  191.5140  175.1690  142.8870 C   0  0  0  0  0  2  0  0  0  0  0  0
  187.9610  176.1680  143.1490 C   0  0  0  0  0  0  0  0  0  0  0  0
  190.4310  174.9090  141.8440 C   0  0  0  0  0  2  0  0  0  0  0  0
  192.8160  176.0080  145.4510 C   0  0  2  0  0  3  0  0  0  0  0  0
  190.8450  172.2950  142.6220 O   0  0  0  0  0  0  0  0  0  0  0  0
  187.4720  172.6640  141.5320 O   0  0  0  0  0  1  0  0  0  0  0  0
  188.2390  173.7910  141.2290 C   0  0  2  0  0  3  0  0  0  0  0  0
  188.8190  173.6550  139.8070 C   0  0  2  0  0  3  0  0  0  0  0  0
  188.1930  174.5200  138.9090 O   0  0  0  0  0  1  0  0  0  0  0  0
  188.7560  172.2890  139.3140 N   0  0  0  0  0  2  0  0  0  0  0  0
  190.1230  171.8140  139.1860 C   0  0  0  0  0  1  0  0  0  0  0  0
  194.5430  175.2660  143.0670 O   0  0  0  0  0  0  0  0  0  0  0  0
  195.8510  174.7820  143.1350 C   0  0  0  0  0  1  0  0  0  0  0  0
  1 19  1  0  0  0  0
  3 16  1  0  0  0  0
  5  8  1  0  0  0  0
  6 34  1  6  0  0  0
  6 10  1  0  0  0  0
  7 21  1  0  0  0  0
  7 12  2  0  0  0  0
  8  7  1  0  0  0  0
  9 13  2  0  0  0  0
 10 26  1  0  0  0  0
 11 29  1  6  0  0  0
 11  4  1  0  0  0  0
 11  2  1  0  0  0  0
 13 12  1  0  0  0  0
 15 23  1  1  0  0  0
 15 22  1  0  0  0  0
 15  6  1  0  0  0  0
 16  5  2  0  0  0  0
 16  9  1  0  0  0  0
 17 24  2  0  0  0  0
 19 20  1  6  0  0  0
 19 14  1  0  0  0  0
 20 21  1  0  0  0  0
 21 14  1  0  0  0  0
 24  2  1  0  0  0  0
 24  5  1  0  0  0  0
 25 11  1  0  0  0  0
 25 23  1  0  0  0  0
 26 18  1  1  0  0  0
 26  1  1  0  0  0  0
 27  4  1  0  0  0  0
 27 22  1  0  0  0  0
 29 28  1  1  0  0  0
 30 31  1  6  0  0  0
 30 29  1  0  0  0  0
 32 30  1  0  0  0  0
 33 32  1  0  0  0  0
 34 35  1  0  0  0  0
M  END
>  <MODEL>
3

>  <REMARK>
 VINA RESULT:      -7.0      2.192      5.894
  Name = 
  4 active torsions:
  status: ('A' for Active; 'I' for Inactive)
    1  A    between atoms: C_7  and  O_28
    2  A    between atoms: C_8  and  C_16
    3  A    between atoms: C_8  and  N_21
    4  A    between atoms: C_13  and  C_16
                            x       y       z     vdW  Elec       q    Type
                         _______ _______ _______ _____ _____    ______ ____

>  <TORSDO>
F 4

$$$$
=
 OpenBabel11062420093D

 35 38  0  0  1  0  0  0  0  0999 V2000
  188.2730  174.0810  141.6780 O   0  0  0  0  0  0  0  0  0  0  0  0
  192.5870  176.1200  144.1190 O   0  0  0  0  0  0  0  0  0  0  0  0
  191.1910  175.9200  148.1970 N   0  0  0  0  0  1  0  0  0  0  0  0
  193.6800  175.9530  142.0190 C   0  0  0  0  0  2  0  0  0  0  0  0
  191.0620  176.7900  145.9530 C   0  0  0  0  0  0  0  0  0  0  0  0
  191.4890  172.3660  140.5750 C   0  0  1  0  0  3  0  0  0  0  0  0
  189.1040  177.2770  144.5930 C   0  0  0  0  0  0  0  0  0  0  0  0
  190.4650  177.7390  144.9720 C   0  0  0  0  0  2  0  0  0  0  0  0
  189.3640  177.4410  147.5980 N   0  0  0  0  0  0  0  0  0  0  0  0
  190.1080  173.0410  140.4590 C   0  0  0  0  0  2  0  0  0  0  0  0
  193.6710  175.4440  143.4750 C   0  0  2  0  0  0  0  0  0  0  0  0
  188.1090  177.3250  145.4760 C   0  0  0  0  0  3  0  0  0  0  0  0
  188.3010  177.7160  146.8880 C   0  0  0  0  0  3  0  0  0  0  0  0
  187.8150  176.2610  142.4280 C   0  0  0  0  0  2  0  0  0  0  0  0
  192.5690  173.1630  141.3240 C   0  0  1  0  0  3  0  0  0  0  0  0
  190.5440  176.7070  147.2010 C   0  0  0  0  0  0  0  0  0  0  0  0
  192.8410  175.2060  146.2290 O   0  0  0  0  0  0  0  0  0  0  0  0
  188.9460  171.9160  142.3820 C   0  0  0  0  0  1  0  0  0  0  0  0
  188.6470  175.4370  141.5010 C   0  0  1  0  0  3  0  0  0  0  0  0
  189.7540  175.9100  142.3950 C   0  0  0  0  0  2  0  0  0  0  0  0
  188.9100  176.6730  143.3180 N   0  0  0  0  0  0  0  0  0  0  0  0
  192.9310  174.4430  140.5790 C   0  0  0  0  0  2  0  0  0  0  0  0
  192.2200  173.4340  142.7900 C   0  0  0  0  0  2  0  0  0  0  0  0
  192.2140  175.9900  145.4660 C   0  0  0  0  0  0  0  0  0  0  0  0
  193.4400  173.9200  143.5690 C   0  0  0  0  0  2  0  0  0  0  0  0
  189.3980  173.2430  141.8010 C   0  0  2  0  0  3  0  0  0  0  0  0
  194.1090  174.9780  141.1100 O   0  0  0  0  0  0  0  0  0  0  0  0
  195.6930  176.7900  143.4560 O   0  0  0  0  0  1  0  0  0  0  0  0
  194.9970  175.8230  144.1870 C   0  0  2  0  0  3  0  0  0  0  0  0
  195.9570  174.6830  144.5790 C   0  0  2  0  0  3  0  0  0  0  0  0
  196.0690  174.5550  145.9630 O   0  0  0  0  0  1  0  0  0  0  0  0
  197.2720  174.8380  143.9810 N   0  0  0  0  0  2  0  0  0  0  0  0
  197.4150  173.8000  142.9750 C   0  0  0  0  0  1  0  0  0  0  0  0
  191.3890  171.0670  141.0810 O   0  0  0  0  0  0  0  0  0  0  0  0
  191.2910  170.2490  139.9540 C   0  0  0  0  0  1  0  0  0  0  0  0
  1 26  1  0  0  0  0
  2 24  1  0  0  0  0
  4 11  1  0  0  0  0
  5 16  2  0  0  0  0
  6 34  1  1  0  0  0
  6 15  1  0  0  0  0
  7  8  1  0  0  0  0
  7 12  2  0  0  0  0
  8  5  1  0  0  0  0
 10  6  1  0  0  0  0
 10 26  1  0  0  0  0
 11 25  1  0  0  0  0
 11  2  1  0  0  0  0
 11 29  1  1  0  0  0
 12 13  1  0  0  0  0
 13  9  2  0  0  0  0
 14 21  1  0  0  0  0
 15 22  1  6  0  0  0
 15 23  1  0  0  0  0
 16  9  1  0  0  0  0
 16  3  1  0  0  0  0
 19  1  1  0  0  0  0
 19 20  1  1  0  0  0
 19 14  1  0  0  0  0
 20 21  1  0  0  0  0
 21  7  1  0  0  0  0
 22 27  1  0  0  0  0
 23 25  1  0  0  0  0
 24  5  1  0  0  0  0
 24 17  2  0  0  0  0
 26 18  1  6  0  0  0
 27  4  1  0  0  0  0
 29 28  1  6  0  0  0
 29 30  1  0  0  0  0
 30 31  1  1  0  0  0
 32 30  1  0  0  0  0
 33 32  1  0  0  0  0
 35 34  1  0  0  0  0
M  END
>  <MODEL>
4

>  <REMARK>
 VINA RESULT:      -6.7      2.662      4.198
  Name = 
  4 active torsions:
  status: ('A' for Active; 'I' for Inactive)
    1  A    between atoms: C_7  and  O_28
    2  A    between atoms: C_8  and  C_16
    3  A    between atoms: C_8  and  N_21
    4  A    between atoms: C_13  and  C_16
                            x       y       z     vdW  Elec       q    Type
                         _______ _______ _______ _____ _____    ______ ____

>  <TORSDO>
F 4

$$$$
=
 OpenBabel11062420093D

 35 38  0  0  1  0  0  0  0  0999 V2000
  193.3250  176.7930  147.1550 O   0  0  0  0  0  0  0  0  0  0  0  0
  190.2530  174.0260  143.7450 O   0  0  0  0  0  0  0  0  0  0  0  0
  187.8660  177.2810  142.2210 N   0  0  0  0  0  1  0  0  0  0  0  0
  191.6980  172.1880  144.1550 C   0  0  0  0  0  2  0  0  0  0  0  0
  188.5750  175.8290  144.0090 C   0  0  0  0  0  0  0  0  0  0  0  0
  195.3850  174.5690  144.8500 C   0  0  1  0  0  3  0  0  0  0  0  0
  189.0190  176.3530  146.3430 C   0  0  0  0  0  0  0  0  0  0  0  0
  188.4340  175.3520  145.4130 C   0  0  0  0  0  2  0  0  0  0  0  0
  187.0280  177.6690  144.4920 N   0  0  0  0  0  0  0  0  0  0  0  0
  194.9150  175.2400  146.1560 C   0  0  0  0  0  2  0  0  0  0  0  0
  191.1930  173.1750  143.0820 C   0  0  2  0  0  0  0  0  0  0  0  0
  188.4240  177.5300  146.5230 C   0  0  0  0  0  3  0  0  0  0  0  0
  187.2430  177.9640  145.7470 C   0  0  0  0  0  3  0  0  0  0  0  0
  191.1460  176.5990  148.0150 C   0  0  0  0  0  2  0  0  0  0  0  0
  194.3060  173.8270  144.0460 C   0  0  1  0  0  3  0  0  0  0  0  0
  187.8620  176.9020  143.5940 C   0  0  0  0  0  0  0  0  0  0  0  0
  189.6630  175.3340  141.9300 O   0  0  0  0  0  0  0  0  0  0  0  0
  194.5930  177.5850  145.3110 C   0  0  0  0  0  1  0  0  0  0  0  0
  192.3760  175.8480  147.6190 C   0  0  1  0  0  3  0  0  0  0  0  0
  191.4600  175.3000  146.5660 C   0  0  0  0  0  2  0  0  0  0  0  0
  190.2810  176.0830  146.9440 N   0  0  0  0  0  0  0  0  0  0  0  0
  193.7690  172.6250  144.8150 C   0  0  0  0  0  2  0  0  0  0  0  0
  193.1810  174.7390  143.5510 C   0  0  0  0  0  2  0  0  0  0  0  0
  189.5160  175.0640  143.1530 C   0  0  0  0  0  0  0  0  0  0  0  0
  192.3280  174.0410  142.4940 C   0  0  0  0  0  2  0  0  0  0  0  0
  193.9170  176.3820  145.9450 C   0  0  2  0  0  3  0  0  0  0  0  0
  193.0300  171.8080  143.9530 O   0  0  0  0  0  0  0  0  0  0  0  0
  190.0700  171.1410  142.3750 O   0  0  0  0  0  1  0  0  0  0  0  0
  190.4670  172.4090  141.9440 C   0  0  2  0  0  3  0  0  0  0  0  0
  191.1810  172.2920  140.5840 C   0  0  2  0  0  3  0  0  0  0  0  0
  190.3810  172.7530  139.5380 O   0  0  0  0  0  1  0  0  0  0  0  0
  191.6310  170.9370  140.3110 N   0  0  0  0  0  2  0  0  0  0  0  0
  193.0740  170.9200  140.4770 C   0  0  0  0  0  1  0  0  0  0  0  0
  196.0890  175.4600  144.0350 O   0  0  0  0  0  0  0  0  0  0  0  0
  197.3540  174.8880  143.8870 C   0  0  0  0  0  1  0  0  0  0  0  0
  1 19  1  0  0  0  0
  3 16  1  0  0  0  0
  5  8  1  0  0  0  0
  6 34  1  6  0  0  0
  6 10  1  0  0  0  0
  7 12  2  0  0  0  0
  7 21  1  0  0  0  0
  8  7  1  0  0  0  0
  9 13  2  0  0  0  0
 11 29  1  6  0  0  0
 11  2  1  0  0  0  0
 11  4  1  0  0  0  0
 13 12  1  0  0  0  0
 15 23  1  1  0  0  0
 15 22  1  0  0  0  0
 15  6  1  0  0  0  0
 16  5  2  0  0  0  0
 16  9  1  0  0  0  0
 17 24  2  0  0  0  0
 19 20  1  6  0  0  0
 19 14  1  0  0  0  0
 20 21  1  0  0  0  0
 21 14  1  0  0  0  0
 24  2  1  0  0  0  0
 24  5  1  0  0  0  0
 25 11  1  0  0  0  0
 25 23  1  0  0  0  0
 26 18  1  1  0  0  0
 26 10  1  0  0  0  0
 26  1  1  0  0  0  0
 27  4  1  0  0  0  0
 27 22  1  0  0  0  0
 29 28  1  1  0  0  0
 30 31  1  6  0  0  0
 30 29  1  0  0  0  0
 32 33  1  0  0  0  0
 32 30  1  0  0  0  0
 35 34  1  0  0  0  0
M  END
>  <MODEL>
5

>  <REMARK>
 VINA RESULT:      -6.7      2.669      6.352
  Name = 
  4 active torsions:
  status: ('A' for Active; 'I' for Inactive)
    1  A    between atoms: C_7  and  O_28
    2  A    between atoms: C_8  and  C_16
    3  A    between atoms: C_8  and  N_21
    4  A    between atoms: C_13  and  C_16
                            x       y       z     vdW  Elec       q    Type
                         _______ _______ _______ _____ _____    ______ ____

>  <TORSDO>
F 4

$$$$
=
 OpenBabel11062420093D

 35 38  0  0  1  0  0  0  0  0999 V2000
  192.8330  169.9910  142.2080 O   0  0  0  0  0  0  0  0  0  0  0  0
  192.8910  174.7800  144.6150 O   0  0  0  0  0  0  0  0  0  0  0  0
  196.7710  176.1320  143.2960 N   0  0  0  0  0  1  0  0  0  0  0  0
  190.6040  174.3970  145.1180 C   0  0  0  0  0  2  0  0  0  0  0  0
  195.3630  174.6300  144.5490 C   0  0  0  0  0  0  0  0  0  0  0  0
  189.6690  171.9890  141.5030 C   0  0  1  0  0  3  0  0  0  0  0  0
  195.5560  172.2230  144.8550 C   0  0  0  0  0  0  0  0  0  0  0  0
  195.2180  173.5090  145.5200 C   0  0  0  0  0  2  0  0  0  0  0  0
  197.7810  174.2280  144.4650 N   0  0  0  0  0  0  0  0  0  0  0  0
  190.5540  170.7790  141.8660 C   0  0  0  0  0  2  0  0  0  0  0  0
  191.5860  175.2950  144.3380 C   0  0  2  0  0  0  0  0  0  0  0  0
  196.8120  171.9580  144.5050 C   0  0  0  0  0  3  0  0  0  0  0  0
  197.9100  172.9380  144.6360 C   0  0  0  0  0  3  0  0  0  0  0  0
  194.3100  169.9520  144.0370 C   0  0  0  0  0  2  0  0  0  0  0  0
  189.8740  173.2540  142.3510 C   0  0  1  0  0  3  0  0  0  0  0  0
  196.5950  174.9710  144.1040 C   0  0  0  0  0  0  0  0  0  0  0  0
  194.1120  176.3040  143.3730 O   0  0  0  0  0  0  0  0  0  0  0  0
  192.3650  171.0750  140.1490 C   0  0  0  0  0  1  0  0  0  0  0  0
  192.8830  170.1050  143.6200 C   0  0  1  0  0  3  0  0  0  0  0  0
  193.0900  171.4980  144.1370 C   0  0  0  0  0  2  0  0  0  0  0  0
  194.5020  171.3360  144.4930 N   0  0  0  0  0  0  0  0  0  0  0  0
  189.4690  173.0210  143.8020 C   0  0  0  0  0  2  0  0  0  0  0  0
  191.2840  173.8420  142.2370 C   0  0  0  0  0  2  0  0  0  0  0  0
  194.1050  175.3000  144.1370 C   0  0  0  0  0  0  0  0  0  0  0  0
  191.3420  175.2540  142.8140 C   0  0  0  0  0  2  0  0  0  0  0  0
  192.0500  171.0100  141.6320 C   0  0  2  0  0  3  0  0  0  0  0  0
  189.3750  174.2490  144.4660 O   0  0  0  0  0  0  0  0  0  0  0  0
  191.2000  176.7900  146.2130 O   0  0  0  0  0  1  0  0  0  0  0  0
  191.5010  176.7580  144.8490 C   0  0  2  0  0  3  0  0  0  0  0  0
  190.5780  177.7340  144.0930 C   0  0  2  0  0  3  0  0  0  0  0  0
  191.1910  178.9700  143.8870 O   0  0  0  0  0  1  0  0  0  0  0  0
  189.3000  177.9130  144.7600 N   0  0  0  0  0  2  0  0  0  0  0  0
  188.2620  177.5570  143.8080 C   0  0  0  0  0  1  0  0  0  0  0  0
  189.7360  172.2880  140.1390 O   0  0  0  0  0  0  0  0  0  0  0  0
  188.5150  172.8980  139.8450 C   0  0  0  0  0  1  0  0  0  0  0  0
  1 19  1  0  0  0  0
  3 16  1  0  0  0  0
  5  8  1  0  0  0  0
  6 34  1  6  0  0  0
  6 10  1  0  0  0  0
  6 15  1  0  0  0  0
  7  8  1  0  0  0  0
  9 13  2  0  0  0  0
 11  2  1  0  0  0  0
 11 29  1  1  0  0  0
 11  4  1  0  0  0  0
 12 13  1  0  0  0  0
 12  7  2  0  0  0  0
 14 21  1  0  0  0  0
 15 23  1  1  0  0  0
 15 22  1  0  0  0  0
 16  9  1  0  0  0  0
 16  5  2  0  0  0  0
 17 24  2  0  0  0  0
 19 14  1  6  0  0  0
 19 20  1  0  0  0  0
 20 21  1  0  0  0  0
 21  7  1  0  0  0  0
 22 27  1  0  0  0  0
 23 25  1  0  0  0  0
 24  5  1  0  0  0  0
 24  2  1  0  0  0  0
 25 11  1  0  0  0  0
 26 18  1  6  0  0  0
 26 10  1  0  0  0  0
 26  1  1  0  0  0  0
 27  4  1  0  0  0  0
 29 28  1  1  0  0  0
 30 31  1  1  0  0  0
 30 32  1  0  0  0  0
 30 29  1  0  0  0  0
 33 32  1  0  0  0  0
 35 34  1  0  0  0  0
M  END
>  <MODEL>
6

>  <REMARK>
 VINA RESULT:      -6.5      3.429      7.581
  Name = 
  4 active torsions:
  status: ('A' for Active; 'I' for Inactive)
    1  A    between atoms: C_7  and  O_28
    2  A    between atoms: C_8  and  C_16
    3  A    between atoms: C_8  and  N_21
    4  A    between atoms: C_13  and  C_16
                            x       y       z     vdW  Elec       q    Type
                         _______ _______ _______ _____ _____    ______ ____

>  <TORSDO>
F 4

$$$$
=
 OpenBabel11062420093D

 35 38  0  0  1  0  0  0  0  0999 V2000
  192.9980  176.4530  146.9710 O   0  0  0  0  0  0  0  0  0  0  0  0
  191.7750  173.2540  142.8490 O   0  0  0  0  0  0  0  0  0  0  0  0
  193.4130  169.5640  144.3720 N   0  0  0  0  0  1  0  0  0  0  0  0
  190.4820  175.0600  142.0120 C   0  0  0  0  0  2  0  0  0  0  0  0
  193.6640  171.8240  143.5760 C   0  0  0  0  0  0  0  0  0  0  0  0
  189.3390  176.7530  145.9580 C   0  0  1  0  0  3  0  0  0  0  0  0
  195.1260  173.5950  144.3820 C   0  0  0  0  0  0  0  0  0  0  0  0
  194.5420  172.9580  143.1720 C   0  0  0  0  0  2  0  0  0  0  0  0
  195.6270  170.6170  144.4130 N   0  0  0  0  0  0  0  0  0  0  0  0
  190.7560  177.1970  146.3740 C   0  0  0  0  0  2  0  0  0  0  0  0
  190.4230  173.6150  142.5500 C   0  0  2  0  0  0  0  0  0  0  0  0
  196.0350  172.9500  145.1080 C   0  0  0  0  0  3  0  0  0  0  0  0
  196.4330  171.5510  144.8450 C   0  0  0  0  0  3  0  0  0  0  0  0
  194.9410  175.9310  145.7570 C   0  0  0  0  0  2  0  0  0  0  0  0
  189.2530  175.8330  144.7310 C   0  0  1  0  0  3  0  0  0  0  0  0
  194.2150  170.7140  144.1200 C   0  0  0  0  0  0  0  0  0  0  0  0
  191.3800  171.0940  143.5790 O   0  0  0  0  0  0  0  0  0  0  0  0
  191.1890  175.5120  148.1880 C   0  0  0  0  0  1  0  0  0  0  0  0
  193.6140  176.6150  145.7050 C   0  0  1  0  0  3  0  0  0  0  0  0
  193.3180  175.5300  144.7120 C   0  0  0  0  0  2  0  0  0  0  0  0
  194.6110  174.8490  144.8170 N   0  0  0  0  0  0  0  0  0  0  0  0
  189.7180  176.5470  143.4670 C   0  0  0  0  0  2  0  0  0  0  0  0
  189.9650  174.4910  144.9240 C   0  0  0  0  0  2  0  0  0  0  0  0
  192.2110  172.0120  143.3400 C   0  0  0  0  0  0  0  0  0  0  0  0
  189.5750  173.4950  143.8350 C   0  0  0  0  0  2  0  0  0  0  0  0
  191.6540  176.0500  146.8460 C   0  0  2  0  0  3  0  0  0  0  0  0
  189.3440  175.8040  142.3430 O   0  0  0  0  0  0  0  0  0  0  0  0
  190.8500  172.3830  140.5010 O   0  0  0  0  0  1  0  0  0  0  0  0
  189.8730  172.6560  141.4600 C   0  0  2  0  0  3  0  0  0  0  0  0
  188.5550  173.0420  140.7600 C   0  0  2  0  0  3  0  0  0  0  0  0
  187.4410  172.6660  141.5120 O   0  0  0  0  0  1  0  0  0  0  0  0
  188.4620  172.4930  139.4180 N   0  0  0  0  0  2  0  0  0  0  0  0
  188.1910  173.6000  138.5170 C   0  0  0  0  0  1  0  0  0  0  0  0
  188.6280  176.2150  147.0350 O   0  0  0  0  0  0  0  0  0  0  0  0
  187.3030  176.5970  146.8170 C   0  0  0  0  0  1  0  0  0  0  0  0
  2 24  1  0  0  0  0
  4 27  1  0  0  0  0
  4 11  1  0  0  0  0
  5 16  2  0  0  0  0
  6 10  1  0  0  0  0
  6 34  1  1  0  0  0
  7 21  1  0  0  0  0
  7 12  2  0  0  0  0
  8  5  1  0  0  0  0
  8  7  1  0  0  0  0
  9 13  2  0  0  0  0
 10 26  1  0  0  0  0
 11 29  1  6  0  0  0
 11  2  1  0  0  0  0
 11 25  1  0  0  0  0
 13 12  1  0  0  0  0
 15 22  1  6  0  0  0
 15 23  1  0  0  0  0
 15  6  1  0  0  0  0
 16  3  1  0  0  0  0
 16  9  1  0  0  0  0
 19 20  1  6  0  0  0
 19 14  1  0  0  0  0
 19  1  1  0  0  0  0
 20 21  1  0  0  0  0
 21 14  1  0  0  0  0
 24  5  1  0  0  0  0
 24 17  2  0  0  0  0
 25 23  1  0  0  0  0
 26  1  1  0  0  0  0
 26 18  1  1  0  0  0
 27 22  1  0  0  0  0
 29 28  1  6  0  0  0
 30 29  1  0  0  0  0
 30 31  1  1  0  0  0
 32 30  1  0  0  0  0
 33 32  1  0  0  0  0
 35 34  1  0  0  0  0
M  END
>  <MODEL>
7

>  <REMARK>
 VINA RESULT:      -6.5      3.393      8.325
  Name = 
  4 active torsions:
  status: ('A' for Active; 'I' for Inactive)
    1  A    between atoms: C_7  and  O_28
    2  A    between atoms: C_8  and  C_16
    3  A    between atoms: C_8  and  N_21
    4  A    between atoms: C_13  and  C_16
                            x       y       z     vdW  Elec       q    Type
                         _______ _______ _______ _____ _____    ______ ____

>  <TORSDO>
F 4

$$$$
=
 OpenBabel11062420093D

 35 38  0  0  1  0  0  0  0  0999 V2000
  187.8400  175.5850  140.9480 O   0  0  0  0  0  0  0  0  0  0  0  0
  192.3920  174.7340  143.6460 O   0  0  0  0  0  0  0  0  0  0  0  0
  195.1730  176.3490  140.7680 N   0  0  0  0  0  1  0  0  0  0  0  0
  191.0230  174.1680  145.5000 C   0  0  0  0  0  2  0  0  0  0  0  0
  193.5320  174.7200  141.4460 C   0  0  0  0  0  0  0  0  0  0  0  0
  187.6600  176.9010  144.5170 C   0  0  1  0  0  3  0  0  0  0  0  0
  191.7410  173.6990  140.1530 C   0  0  0  0  0  0  0  0  0  0  0  0
  192.7850  173.4570  141.1830 C   0  0  0  0  0  2  0  0  0  0  0  0
  194.4330  174.6470  139.1660 N   0  0  0  0  0  0  0  0  0  0  0  0
  187.2190  176.1790  143.2280 C   0  0  0  0  0  2  0  0  0  0  0  0
  192.0690  175.1710  144.9690 C   0  0  2  0  0  0  0  0  0  0  0  0
  192.0850  173.9370  138.8900 C   0  0  0  0  0  3  0  0  0  0  0  0
  193.4880  174.0930  138.4520 C   0  0  0  0  0  3  0  0  0  0  0  0
  189.0320  173.8100  139.9710 C   0  0  0  0  0  2  0  0  0  0  0  0
  189.0140  176.4720  145.1020 C   0  0  1  0  0  3  0  0  0  0  0  0
  194.3370  175.2310  140.4850 C   0  0  0  0  0  0  0  0  0  0  0  0
  193.9580  176.3610  143.1410 O   0  0  0  0  0  0  0  0  0  0  0  0
  187.9660  177.8810  141.5360 C   0  0  0  0  0  1  0  0  0  0  0  0
  188.3150  174.2720  141.1970 C   0  0  1  0  0  3  0  0  0  0  0  0
  189.6910  174.1980  141.7880 C   0  0  0  0  0  2  0  0  0  0  0  0
  190.3790  173.7910  140.5600 N   0  0  0  0  0  0  0  0  0  0  0  0
  188.9790  175.0230  145.5770 C   0  0  0  0  0  2  0  0  0  0  0  0
  190.1950  176.7390  144.1650 C   0  0  0  0  0  2  0  0  0  0  0  0
  193.3260  175.3310  142.7820 C   0  0  0  0  0  0  0  0  0  0  0  0
  191.5260  176.6140  144.9040 C   0  0  0  0  0  2  0  0  0  0  0  0
  188.1230  176.4510  142.0210 C   0  0  2  0  0  3  0  0  0  0  0  0
  190.1010  174.7620  146.3700 O   0  0  0  0  0  0  0  0  0  0  0  0
  193.8410  176.4130  146.0710 O   0  0  0  0  0  1  0  0  0  0  0  0
  193.3510  175.1250  145.8430 C   0  0  2  0  0  3  0  0  0  0  0  0
  194.5020  174.2070  145.3880 C   0  0  2  0  0  3  0  0  0  0  0  0
  194.2840  172.8810  145.7630 O   0  0  0  0  0  1  0  0  0  0  0  0
  195.7940  174.6590  145.8750 N   0  0  0  0  0  2  0  0  0  0  0  0
  196.7350  174.5410  144.7740 C   0  0  0  0  0  1  0  0  0  0  0  0
  187.5960  178.2910  144.3790 O   0  0  0  0  0  0  0  0  0  0  0  0
  186.3030  178.6320  144.7810 C   0  0  0  0  0  1  0  0  0  0  0  0
  1 19  1  0  0  0  0
  1 26  1  0  0  0  0
  2 11  1  0  0  0  0
  4 27  1  0  0  0  0
  5 24  1  0  0  0  0
  6 34  1  6  0  0  0
  6 15  1  0  0  0  0
  7 21  1  0  0  0  0
  7  8  1  0  0  0  0
  8  5  1  0  0  0  0
  9 16  1  0  0  0  0
 10  6  1  0  0  0  0
 11  4  1  0  0  0  0
 11 29  1  1  0  0  0
 12  7  2  0  0  0  0
 13 12  1  0  0  0  0
 13  9  2  0  0  0  0
 14 21  1  0  0  0  0
 15 23  1  6  0  0  0
 15 22  1  0  0  0  0
 16  3  1  0  0  0  0
 16  5  2  0  0  0  0
 19 14  1  6  0  0  0
 19 20  1  0  0  0  0
 21 20  1  0  0  0  0
 22 27  1  0  0  0  0
 23 25  1  0  0  0  0
 24 17  2  0  0  0  0
 24  2  1  0  0  0  0
 25 11  1  0  0  0  0
 26 18  1  6  0  0  0
 26 10  1  0  0  0  0
 29 28  1  6  0  0  0
 30 31  1  1  0  0  0
 30 29  1  0  0  0  0
 30 32  1  0  0  0  0
 33 32  1  0  0  0  0
 34 35  1  0  0  0  0
M  END
>  <MODEL>
8

>  <REMARK>
 VINA RESULT:      -6.5      3.075      6.351
  Name = 
  4 active torsions:
  status: ('A' for Active; 'I' for Inactive)
    1  A    between atoms: C_7  and  O_28
    2  A    between atoms: C_8  and  C_16
    3  A    between atoms: C_8  and  N_21
    4  A    between atoms: C_13  and  C_16
                            x       y       z     vdW  Elec       q    Type
                         _______ _______ _______ _____ _____    ______ ____

>  <TORSDO>
F 4

$$$$
=
 OpenBabel11062420093D

 35 38  0  0  1  0  0  0  0  0999 V2000
  187.4420  175.4880  140.9810 O   0  0  0  0  0  0  0  0  0  0  0  0
  190.9920  175.1530  144.9820 O   0  0  0  0  0  0  0  0  0  0  0  0
  194.5970  175.8860  142.7260 N   0  0  0  0  0  1  0  0  0  0  0  0
  189.1260  175.1230  146.4480 C   0  0  0  0  0  2  0  0  0  0  0  0
  192.6670  174.5440  143.2610 C   0  0  0  0  0  0  0  0  0  0  0  0
  186.4630  177.6580  143.9530 C   0  0  1  0  0  3  0  0  0  0  0  0
  191.1840  173.3070  141.7800 C   0  0  0  0  0  0  0  0  0  0  0  0
  191.8850  173.2880  143.0910 C   0  0  0  0  0  2  0  0  0  0  0  0
  194.1290  173.8690  141.4110 N   0  0  0  0  0  0  0  0  0  0  0  0
  186.3050  176.6560  142.7920 C   0  0  0  0  0  2  0  0  0  0  0  0
  190.3780  175.9180  146.0230 C   0  0  2  0  0  0  0  0  0  0  0  0
  191.8760  173.2090  140.6480 C   0  0  0  0  0  3  0  0  0  0  0  0
  193.3540  173.1940  140.6040 C   0  0  0  0  0  3  0  0  0  0  0  0
  188.6510  173.4790  140.8140 C   0  0  0  0  0  2  0  0  0  0  0  0
  187.5570  177.3340  144.9810 C   0  0  1  0  0  3  0  0  0  0  0  0
  193.7490  174.7670  142.4790 C   0  0  0  0  0  0  0  0  0  0  0  0
  192.8030  176.5380  144.5860 O   0  0  0  0  0  0  0  0  0  0  0  0
  187.6550  177.8520  141.0410 C   0  0  0  0  0  1  0  0  0  0  0  0
  187.6880  174.2610  141.6470 C   0  0  1  0  0  3  0  0  0  0  0  0
  188.8400  174.2800  142.6060 C   0  0  0  0  0  2  0  0  0  0  0  0
  189.7820  173.5520  141.7510 N   0  0  0  0  0  0  0  0  0  0  0  0
  187.2410  176.0520  145.7440 C   0  0  0  0  0  2  0  0  0  0  0  0
  188.9670  177.3110  144.3840 C   0  0  0  0  0  2  0  0  0  0  0  0
  192.1810  175.4770  144.3080 C   0  0  0  0  0  0  0  0  0  0  0  0
  190.0320  177.3210  145.4790 C   0  0  0  0  0  2  0  0  0  0  0  0
  187.5220  176.5820  141.8640 C   0  0  2  0  0  3  0  0  0  0  0  0
  188.0760  175.9510  146.8610 O   0  0  0  0  0  0  0  0  0  0  0  0
  190.9970  175.1890  148.2560 O   0  0  0  0  0  1  0  0  0  0  0  0
  191.3680  176.0400  147.2120 C   0  0  2  0  0  3  0  0  0  0  0  0
  191.6530  177.4480  147.7700 C   0  0  2  0  0  3  0  0  0  0  0  0
  192.9760  177.5780  148.1950 O   0  0  0  0  0  1  0  0  0  0  0  0
  190.7440  177.8100  148.8450 N   0  0  0  0  0  2  0  0  0  0  0  0
  191.5550  178.1010  150.0160 C   0  0  0  0  0  1  0  0  0  0  0  0
  186.5890  178.9710  143.4890 O   0  0  0  0  0  0  0  0  0  0  0  0
  185.5800  179.6810  144.1430 C   0  0  0  0  0  1  0  0  0  0  0  0
  1 19  1  0  0  0  0
  1 26  1  0  0  0  0
  2 11  1  0  0  0  0
  4 27  1  0  0  0  0
  5 24  1  0  0  0  0
  6 34  1  6  0  0  0
  6 15  1  0  0  0  0
  7  8  1  0  0  0  0
  8  5  1  0  0  0  0
  9 16  1  0  0  0  0
 10  6  1  0  0  0  0
 11  4  1  0  0  0  0
 11 29  1  1  0  0  0
 12  7  2  0  0  0  0
 13 12  1  0  0  0  0
 13  9  2  0  0  0  0
 14 21  1  0  0  0  0
 15 23  1  6  0  0  0
 15 22  1  0  0  0  0
 16  3  1  0  0  0  0
 16  5  2  0  0  0  0
 19 14  1  6  0  0  0
 19 20  1  0  0  0  0
 21  7  1  0  0  0  0
 21 20  1  0  0  0  0
 22 27  1  0  0  0  0
 23 25  1  0  0  0  0
 24 17  2  0  0  0  0
 24  2  1  0  0  0  0
 25 11  1  0  0  0  0
 26 18  1  6  0  0  0
 26 10  1  0  0  0  0
 29 30  1  0  0  0  0
 29 28  1  1  0  0  0
 30 31  1  1  0  0  0
 30 32  1  0  0  0  0
 32 33  1  0  0  0  0
 34 35  1  0  0  0  0
M  END
>  <MODEL>
9

>  <REMARK>
 VINA RESULT:      -6.3      2.481      5.970
  Name = 
  4 active torsions:
  status: ('A' for Active; 'I' for Inactive)
    1  A    between atoms: C_7  and  O_28
    2  A    between atoms: C_8  and  C_16
    3  A    between atoms: C_8  and  N_21
    4  A    between atoms: C_13  and  C_16
                            x       y       z     vdW  Elec       q    Type
                         _______ _______ _______ _____ _____    ______ ____

>  <TORSDO>
F 4

$$$$
