=
 OpenBabel11062421333D

 55 61  0  0  1  0  0  0  0  0999 V2000
  193.5290  175.1330  146.2840 C   0  0  2  0  0  3  0  0  0  0  0  0
  193.9790  176.5930  146.1070 C   0  0  0  0  0  2  0  0  0  0  0  0
  195.8870  175.8310  144.7130 C   0  0  0  0  0  0  0  0  0  0  0  0
  196.7260  176.0420  143.7980 O   0  0  0  0  0  0  0  0  0  0  0  0
  195.9470  174.6040  145.5820 C   0  0  1  0  0  3  0  0  0  0  0  0
  194.8320  176.7610  144.9380 N   0  0  0  0  0  2  0  0  0  0  0  0
  194.5130  174.0860  145.7240 C   0  0  0  0  0  2  0  0  0  0  0  0
  196.8090  172.2610  145.8790 C   0  0  0  0  0  2  0  0  0  0  0  0
  196.4540  173.0720  143.6380 C   0  0  0  0  0  2  0  0  0  0  0  0
  196.8820  173.5170  145.0220 C   0  0  1  0  0  3  0  0  0  0  0  0
  195.8790  171.2820  145.1840 C   0  0  0  0  0  2  0  0  0  0  0  0
  195.5210  171.9000  143.8450 C   0  0  2  0  0  3  0  0  0  0  0  0
  195.6400  170.9390  142.7510 N   0  0  0  0  0  2  0  0  0  0  0  0
  194.5010  172.1860  141.1310 O   0  0  0  0  0  0  0  0  0  0  0  0
  195.0400  171.0920  141.4550 C   0  0  0  0  0  0  0  0  0  0  0  0
  195.0580  169.9640  140.4620 C   0  0  2  0  0  3  0  0  0  0  0  0
  196.0650  170.2660  139.3620 C   0  0  0  0  0  2  0  0  0  0  0  0
  195.4150  170.8120  138.2540 O   0  0  0  0  0  0  0  0  0  0  0  0
  196.9750  171.9900  136.5180 O   0  0  0  0  0  0  0  0  0  0  0  0
  195.2630  173.5320  137.7480 O   0  0  0  0  0  1  0  0  0  0  0  0
  197.4790  172.4940  139.0290 O   0  0  0  0  0  1  0  0  0  0  0  0
  196.2980  172.1990  137.8530 P   0  0  0  0  0  0  0  0  0  0  0  0
  193.6870  169.7180  139.8400 C   0  0  0  0  0  2  0  0  0  0  0  0
  191.3600  170.0720  140.6160 C   0  0  2  0  0  3  0  0  0  0  0  0
  191.5320  168.6070  140.2920 C   0  0  0  0  0  2  0  0  0  0  0  0
  192.6750  169.3800  140.9150 C   0  0  1  0  0  3  0  0  0  0  0  0
  190.5710  170.2110  141.8990 C   0  0  0  0  0  2  0  0  0  0  0  0
  189.4790  171.8080  143.2720 O   0  0  0  0  0  1  0  0  0  0  0  0
  190.0000  171.6080  141.9960 C   0  0  0  0  0  2  0  0  0  0  0  0
  192.1620  174.9400  145.6530 C   0  0  0  0  0  2  0  0  0  0  0  0
  190.4690  176.4310  144.5580 C   0  0  2  0  0  3  0  0  0  0  0  0
  189.2340  176.9940  144.9340 O   0  0  0  0  0  0  0  0  0  0  0  0
  190.3290  176.2000  146.9100 C   0  0  1  0  0  0  0  0  0  0  0  0
  189.9440  174.8980  147.2920 O   0  0  0  0  0  0  0  0  0  0  0  0
  187.9700  176.0400  146.6950 C   0  0  1  0  0  3  0  0  0  0  0  0
  191.3290  176.2110  145.7830 C   0  0  1  0  0  3  0  0  0  0  0  0
  189.1340  176.9170  146.3410 C   0  0  2  0  0  3  0  0  0  0  0  0
  190.8390  176.8980  148.0060 O   0  0  0  0  0  1  0  0  0  0  0  0
  188.5720  174.9750  147.5770 C   0  0  0  0  0  2  0  0  0  0  0  0
  191.9460  178.2250  144.1100 F   0  0  0  0  0  0  0  0  0  0  0  0
  190.1770  177.9720  142.7320 O   0  0  0  0  0  1  0  0  0  0  0  0
  191.1440  177.2930  143.4780 C   0  0  2  0  0  0  0  0  0  0  0  0
  191.4270  175.2510  142.2130 O   0  0  0  0  0  1  0  0  0  0  0  0
  192.0300  176.4660  142.5440 C   0  0  0  0  0  2  0  0  0  0  0  0
  186.9940  176.7600  147.4060 O   0  0  0  0  0  0  0  0  0  0  0  0
  184.8480  178.7160  145.1750 C   0  0  2  0  0  0  0  0  0  0  0  0
  185.2670  177.5860  144.3790 N   0  0  0  0  0  0  0  0  0  0  0  0
  185.9270  179.3750  143.1620 C   0  0  0  0  0  3  0  0  0  0  0  0
  185.8540  177.0340  146.6000 C   0  0  1  0  0  3  0  0  0  0  0  0
  185.4870  178.5220  146.5540 C   0  0  1  0  0  3  0  0  0  0  0  0
  185.8380  176.5110  145.1560 C   0  0  0  0  0  2  0  0  0  0  0  0
  183.4570  178.7220  145.2900 O   0  0  0  0  0  1  0  0  0  0  0  0
  185.3120  179.9480  144.3950 C   0  0  0  0  0  2  0  0  0  0  0  0
  186.6260  179.3200  146.7070 O   0  0  0  0  0  1  0  0  0  0  0  0
  185.9010  178.0560  143.2030 C   0  0  0  0  0  3  0  0  0  0  0  0
  1 30  1  6  0  0  0
  2  1  1  0  0  0  0
  3  6  1  0  0  0  0
  3  5  1  0  0  0  0
  4  3  2  0  0  0  0
  5  7  1  6  0  0  0
  6  2  1  0  0  0  0
  7  1  1  0  0  0  0
  9 12  1  0  0  0  0
 10  9  1  6  0  0  0
 10  5  1  0  0  0  0
 10  8  1  0  0  0  0
 11  8  1  0  0  0  0
 12 13  1  6  0  0  0
 12 11  1  0  0  0  0
 14 15  2  0  0  0  0
 15 13  1  0  0  0  0
 16 17  1  6  0  0  0
 16 15  1  0  0  0  0
 18 17  1  0  0  0  0
 19 22  2  0  0  0  0
 20 22  1  0  0  0  0
 22 18  1  0  0  0  0
 22 21  1  0  0  0  0
 23 16  1  0  0  0  0
 24 26  1  0  0  0  0
 24 27  1  1  0  0  0
 25 24  1  0  0  0  0
 25 26  1  0  0  0  0
 26 23  1  6  0  0  0
 27 29  1  0  0  0  0
 29 28  1  0  0  0  0
 31 42  1  6  0  0  0
 31 32  1  0  0  0  0
 31 36  1  0  0  0  0
 33 34  1  0  0  0  0
 33 38  1  1  0  0  0
 34 39  1  0  0  0  0
 35 45  1  1  0  0  0
 35 39  1  0  0  0  0
 36 30  1  6  0  0  0
 36 33  1  0  0  0  0
 37 32  1  6  0  0  0
 37 35  1  0  0  0  0
 37 33  1  0  0  0  0
 42 41  1  6  0  0  0
 42 40  1  0  0  0  0
 43 44  1  0  0  0  0
 44 42  1  0  0  0  0
 46 52  1  1  0  0  0
 46 50  1  0  0  0  0
 47 51  1  0  0  0  0
 47 46  1  0  0  0  0
 48 55  2  0  0  0  0
 48 53  1  0  0  0  0
 49 45  1  6  0  0  0
 50 49  1  0  0  0  0
 50 54  1  6  0  0  0
 51 49  1  0  0  0  0
 53 46  1  0  0  0  0
 55 47  1  0  0  0  0
M  END
>  <MODEL>
1

>  <REMARK>
 VINA RESULT:      -6.9      0.000      0.000
  Name = 
  16 active torsions:
  status: ('A' for Active; 'I' for Inactive)
    1  A    between atoms: N_2  and  C_46
    2  A    between atoms: C_5  and  C_15
    3  A    between atoms: C_5  and  C_18
    4  A    between atoms: C_5  and  C_25
    5  A    between atoms: C_7  and  C_40
    6  A    between atoms: C_11  and  C_17
    7  A    between atoms: C_14  and  C_19
    8  A    between atoms: C_14  and  C_37
    9  A    between atoms: C_15  and  C_52
   10  A    between atoms: C_17  and  C_44
   11  A    between atoms: C_18  and  O_33
   12  A    between atoms: C_22  and  O_51
   13  A    between atoms: C_29  and  O_51
   14  A    between atoms: O_33  and  P_48
   15  A    between atoms: C_35  and  C_41
   16  A    between atoms: C_40  and  C_55
                            x       y       z     vdW  Elec       q    Type
                         _______ _______ _______ _____ _____    ______ ____

>  <TORSDO>
F 16

$$$$
=
 OpenBabel11062421333D

 55 61  0  0  1  0  0  0  0  0999 V2000
  194.7490  173.2140  144.7540 C   0  0  2  0  0  3  0  0  0  0  0  0
  195.7750  173.8330  145.7180 C   0  0  0  0  0  2  0  0  0  0  0  0
  195.9730  175.8100  144.2270 C   0  0  0  0  0  0  0  0  0  0  0  0
  196.2160  177.0340  144.0610 O   0  0  0  0  0  0  0  0  0  0  0  0
  195.7570  174.8750  143.0680 C   0  0  1  0  0  3  0  0  0  0  0  0
  195.8810  175.2760  145.5450 N   0  0  0  0  0  2  0  0  0  0  0  0
  194.5660  173.9820  143.4290 C   0  0  0  0  0  2  0  0  0  0  0  0
  196.7920  175.6280  140.9040 C   0  0  0  0  0  2  0  0  0  0  0  0
  194.4960  174.8980  140.8790 C   0  0  0  0  0  2  0  0  0  0  0  0
  195.5190  175.6130  141.7390 C   0  0  1  0  0  3  0  0  0  0  0  0
  196.6790  174.5220  139.8700 C   0  0  0  0  0  2  0  0  0  0  0  0
  195.2780  173.9520  139.9970 C   0  0  2  0  0  3  0  0  0  0  0  0
  194.6330  173.7960  138.6960 N   0  0  0  0  0  2  0  0  0  0  0  0
  195.1430  171.5340  138.3770 O   0  0  0  0  0  0  0  0  0  0  0  0
  194.6730  172.6020  137.8980 C   0  0  0  0  0  0  0  0  0  0  0  0
  194.1420  172.6000  136.4910 C   0  0  2  0  0  3  0  0  0  0  0  0
  195.0700  173.4030  135.5910 C   0  0  0  0  0  2  0  0  0  0  0  0
  196.3170  173.5510  136.2000 O   0  0  0  0  0  0  0  0  0  0  0  0
  197.3760  175.2440  134.5130 O   0  0  0  0  0  0  0  0  0  0  0  0
  195.4280  176.1670  135.9900 O   0  0  0  0  0  1  0  0  0  0  0  0
  197.9330  175.6460  137.0320 O   0  0  0  0  0  1  0  0  0  0  0  0
  196.7770  175.1510  135.8980 P   0  0  0  0  0  0  0  0  0  0  0  0
  192.7310  173.1720  136.4040 C   0  0  0  0  0  2  0  0  0  0  0  0
  190.4100  173.0060  137.2580 C   0  0  2  0  0  3  0  0  0  0  0  0
  190.8210  171.6480  136.7370 C   0  0  0  0  0  2  0  0  0  0  0  0
  191.8360  172.5240  137.4400 C   0  0  1  0  0  3  0  0  0  0  0  0
  189.6600  172.8360  138.5590 C   0  0  0  0  0  2  0  0  0  0  0  0
  188.1360  174.5630  139.1310 O   0  0  0  0  0  1  0  0  0  0  0  0
  188.2550  173.3760  138.4110 C   0  0  0  0  0  2  0  0  0  0  0  0
  193.4090  173.0760  145.4540 C   0  0  0  0  0  2  0  0  0  0  0  0
  191.0590  173.2500  144.5930 C   0  0  2  0  0  3  0  0  0  0  0  0
  189.9810  174.1340  144.7880 O   0  0  0  0  0  0  0  0  0  0  0  0
  191.9690  175.1810  145.6180 C   0  0  1  0  0  0  0  0  0  0  0  0
  192.1750  174.9990  147.0000 O   0  0  0  0  0  0  0  0  0  0  0  0
  189.8910  175.5040  146.7180 C   0  0  1  0  0  3  0  0  0  0  0  0
  192.3690  173.9800  144.8000 C   0  0  1  0  0  3  0  0  0  0  0  0
  190.4930  175.3220  145.3560 C   0  0  2  0  0  3  0  0  0  0  0  0
  192.6530  176.3120  145.1690 O   0  0  0  0  0  1  0  0  0  0  0  0
  191.0840  175.6150  147.6330 C   0  0  0  0  0  2  0  0  0  0  0  0
  189.6580  172.0840  143.0840 F   0  0  0  0  0  0  0  0  0  0  0  0
  191.8320  171.4840  143.1520 O   0  0  0  0  0  1  0  0  0  0  0  0
  190.9480  172.5630  143.2220 C   0  0  2  0  0  0  0  0  0  0  0  0
  190.1070  174.3350  141.8050 O   0  0  0  0  0  1  0  0  0  0  0  0
  191.2170  173.5280  142.0640 C   0  0  0  0  0  2  0  0  0  0  0  0
  189.1260  176.6830  146.7770 O   0  0  0  0  0  0  0  0  0  0  0  0
  185.5960  177.4960  146.2490 C   0  0  2  0  0  0  0  0  0  0  0  0
  186.1290  177.3100  144.9190 N   0  0  0  0  0  0  0  0  0  0  0  0
  185.2600  179.3980  144.8630 C   0  0  0  0  0  3  0  0  0  0  0  0
  187.7800  176.4550  146.3770 C   0  0  1  0  0  3  0  0  0  0  0  0
  186.7590  177.2390  147.2110 C   0  0  1  0  0  3  0  0  0  0  0  0
  187.4150  176.6520  144.8990 C   0  0  0  0  0  2  0  0  0  0  0  0
  184.5730  176.5740  146.4790 O   0  0  0  0  0  1  0  0  0  0  0  0
  185.0280  178.9170  146.2570 C   0  0  0  0  0  2  0  0  0  0  0  0
  187.3120  178.4350  147.6780 O   0  0  0  0  0  1  0  0  0  0  0  0
  185.8950  178.4820  144.1570 C   0  0  0  0  0  3  0  0  0  0  0  0
  1 30  1  1  0  0  0
  1  2  1  0  0  0  0
  3  6  1  0  0  0  0
  4  3  2  0  0  0  0
  5  7  1  1  0  0  0
  5  3  1  0  0  0  0
  6  2  1  0  0  0  0
  7  1  1  0  0  0  0
  8 10  1  0  0  0  0
 10  9  1  6  0  0  0
 10  5  1  0  0  0  0
 11 12  1  0  0  0  0
 11  8  1  0  0  0  0
 12 13  1  6  0  0  0
 12  9  1  0  0  0  0
 15 14  2  0  0  0  0
 15 13  1  0  0  0  0
 16 17  1  6  0  0  0
 16 15  1  0  0  0  0
 17 18  1  0  0  0  0
 19 22  2  0  0  0  0
 22 20  1  0  0  0  0
 22 18  1  0  0  0  0
 22 21  1  0  0  0  0
 23 16  1  0  0  0  0
 24 26  1  0  0  0  0
 24 27  1  1  0  0  0
 25 24  1  0  0  0  0
 25 26  1  0  0  0  0
 26 23  1  6  0  0  0
 29 27  1  0  0  0  0
 29 28  1  0  0  0  0
 31 42  1  6  0  0  0
 31 32  1  0  0  0  0
 31 36  1  0  0  0  0
 33 38  1  6  0  0  0
 33 34  1  0  0  0  0
 34 39  1  0  0  0  0
 35 45  1  6  0  0  0
 35 39  1  0  0  0  0
 36 30  1  1  0  0  0
 36 33  1  0  0  0  0
 37 32  1  1  0  0  0
 37 33  1  0  0  0  0
 37 35  1  0  0  0  0
 41 42  1  0  0  0  0
 42 40  1  6  0  0  0
 43 44  1  0  0  0  0
 44 42  1  0  0  0  0
 46 53  1  0  0  0  0
 46 52  1  1  0  0  0
 46 50  1  0  0  0  0
 47 46  1  0  0  0  0
 48 53  1  0  0  0  0
 49 45  1  6  0  0  0
 49 50  1  0  0  0  0
 50 54  1  6  0  0  0
 51 47  1  0  0  0  0
 51 49  1  0  0  0  0
 55 48  2  0  0  0  0
 55 47  1  0  0  0  0
M  END
>  <MODEL>
2

>  <REMARK>
 VINA RESULT:      -6.8      2.886      3.593
  Name = 
  16 active torsions:
  status: ('A' for Active; 'I' for Inactive)
    1  A    between atoms: N_2  and  C_46
    2  A    between atoms: C_5  and  C_15
    3  A    between atoms: C_5  and  C_18
    4  A    between atoms: C_5  and  C_25
    5  A    between atoms: C_7  and  C_40
    6  A    between atoms: C_11  and  C_17
    7  A    between atoms: C_14  and  C_19
    8  A    between atoms: C_14  and  C_37
    9  A    between atoms: C_15  and  C_52
   10  A    between atoms: C_17  and  C_44
   11  A    between atoms: C_18  and  O_33
   12  A    between atoms: C_22  and  O_51
   13  A    between atoms: C_29  and  O_51
   14  A    between atoms: O_33  and  P_48
   15  A    between atoms: C_35  and  C_41
   16  A    between atoms: C_40  and  C_55
                            x       y       z     vdW  Elec       q    Type
                         _______ _______ _______ _____ _____    ______ ____

>  <TORSDO>
F 16

$$$$
=
 OpenBabel11062421333D

 55 61  0  0  1  0  0  0  0  0999 V2000
  189.4080  176.6080  145.5350 C   0  0  2  0  0  3  0  0  0  0  0  0
  188.6660  177.1420  146.7720 C   0  0  0  0  0  2  0  0  0  0  0  0
  186.5020  176.8730  145.5840 C   0  0  0  0  0  0  0  0  0  0  0  0
  185.2590  176.6780  145.6080 O   0  0  0  0  0  0  0  0  0  0  0  0
  187.2290  177.2300  144.3150 C   0  0  1  0  0  3  0  0  0  0  0  0
  187.2650  176.7430  146.7800 N   0  0  0  0  0  2  0  0  0  0  0  0
  188.5180  176.4030  144.2920 C   0  0  0  0  0  2  0  0  0  0  0  0
  186.5830  178.1190  142.0550 C   0  0  0  0  0  2  0  0  0  0  0  0
  186.8280  175.7360  142.3180 C   0  0  0  0  0  2  0  0  0  0  0  0
  186.3860  176.9860  143.0520 C   0  0  1  0  0  3  0  0  0  0  0  0
  187.5840  177.6480  141.0140 C   0  0  0  0  0  2  0  0  0  0  0  0
  187.8640  176.1860  141.3120 C   0  0  2  0  0  3  0  0  0  0  0  0
  187.8130  175.3640  140.1060 N   0  0  0  0  0  2  0  0  0  0  0  0
  188.9220  173.4930  140.9710 O   0  0  0  0  0  0  0  0  0  0  0  0
  188.4300  174.0750  139.9650 C   0  0  0  0  0  0  0  0  0  0  0  0
  188.4850  173.3910  138.6270 C   0  0  2  0  0  3  0  0  0  0  0  0
  188.7770  171.9100  138.8200 C   0  0  0  0  0  2  0  0  0  0  0  0
  189.8550  171.5280  138.0200 O   0  0  0  0  0  0  0  0  0  0  0  0
  190.5340  170.7690  140.4290 O   0  0  0  0  0  1  0  0  0  0  0  0
  190.2750  168.8640  138.6600 O   0  0  0  0  0  1  0  0  0  0  0  0
  192.4070  170.6200  138.6170 O   0  0  0  0  0  0  0  0  0  0  0  0
  190.7590  170.4560  138.9680 P   0  0  0  0  0  0  0  0  0  0  0  0
  189.5390  174.0010  137.7090 C   0  0  0  0  0  2  0  0  0  0  0  0
  189.0230  175.5190  135.8190 C   0  0  2  0  0  3  0  0  0  0  0  0
  190.1230  174.5790  135.3830 C   0  0  0  0  0  2  0  0  0  0  0  0
  189.0180  174.0770  136.2890 C   0  0  1  0  0  3  0  0  0  0  0  0
  188.0260  175.6760  134.6930 C   0  0  0  0  0  2  0  0  0  0  0  0
  188.1450  178.0450  134.7370 O   0  0  0  0  0  1  0  0  0  0  0  0
  187.2660  176.9730  134.8650 C   0  0  0  0  0  2  0  0  0  0  0  0
  190.1100  175.3080  145.8820 C   0  0  0  0  0  2  0  0  0  0  0  0
  192.5870  174.9150  145.8560 C   0  0  2  0  0  3  0  0  0  0  0  0
  193.4520  174.0010  145.2240 O   0  0  0  0  0  0  0  0  0  0  0  0
  191.3230  173.8980  144.1300 C   0  0  1  0  0  0  0  0  0  0  0  0
  190.4790  172.8820  144.6220 O   0  0  0  0  0  0  0  0  0  0  0  0
  192.6260  171.9340  144.4160 C   0  0  1  0  0  3  0  0  0  0  0  0
  191.3480  175.1200  145.0120 C   0  0  1  0  0  3  0  0  0  0  0  0
  192.7460  173.4060  144.1550 C   0  0  2  0  0  3  0  0  0  0  0  0
  190.9540  174.2530  142.8330 O   0  0  0  0  0  1  0  0  0  0  0  0
  191.1430  171.6740  144.3590 C   0  0  0  0  0  2  0  0  0  0  0  0
  192.9250  176.6450  147.4350 F   0  0  0  0  0  0  0  0  0  0  0  0
  193.0050  177.2070  145.2510 O   0  0  0  0  0  1  0  0  0  0  0  0
  193.3320  176.2190  146.1840 C   0  0  2  0  0  0  0  0  0  0  0  0
  195.4460  176.4400  145.0280 O   0  0  0  0  0  1  0  0  0  0  0  0
  194.8500  176.0280  146.2230 C   0  0  0  0  0  2  0  0  0  0  0  0
  193.2850  171.1900  143.4200 O   0  0  0  0  0  0  0  0  0  0  0  0
  196.9000  171.3430  143.9780 C   0  0  2  0  0  0  0  0  0  0  0  0
  196.3270  171.3460  145.3040 N   0  0  0  0  0  0  0  0  0  0  0  0
  197.5810  173.2280  145.2570 C   0  0  0  0  0  3  0  0  0  0  0  0
  194.5580  170.7340  143.8620 C   0  0  1  0  0  3  0  0  0  0  0  0
  195.7200  171.2540  143.0070 C   0  0  1  0  0  3  0  0  0  0  0  0
  194.9390  170.9480  145.3340 C   0  0  0  0  0  2  0  0  0  0  0  0
  197.7290  170.2300  143.8250 O   0  0  0  0  0  1  0  0  0  0  0  0
  197.7300  172.6260  143.8980 C   0  0  0  0  0  2  0  0  0  0  0  0
  195.4120  172.5040  142.4580 O   0  0  0  0  0  1  0  0  0  0  0  0
  196.7740  172.4950  146.0010 C   0  0  0  0  0  3  0  0  0  0  0  0
  1 30  1  1  0  0  0
  1  2  1  0  0  0  0
  2  6  1  0  0  0  0
  3  4  2  0  0  0  0
  3  6  1  0  0  0  0
  5  7  1  6  0  0  0
  5  3  1  0  0  0  0
  7  1  1  0  0  0  0
  9 10  1  0  0  0  0
 10  8  1  6  0  0  0
 10  5  1  0  0  0  0
 11 12  1  0  0  0  0
 11  8  1  0  0  0  0
 12 13  1  6  0  0  0
 12  9  1  0  0  0  0
 15 13  1  0  0  0  0
 15 14  2  0  0  0  0
 16 23  1  6  0  0  0
 16 17  1  0  0  0  0
 16 15  1  0  0  0  0
 18 17  1  0  0  0  0
 18 22  1  0  0  0  0
 20 22  1  0  0  0  0
 21 22  2  0  0  0  0
 22 19  1  0  0  0  0
 24 27  1  6  0  0  0
 24 26  1  0  0  0  0
 25 24  1  0  0  0  0
 25 26  1  0  0  0  0
 26 23  1  1  0  0  0
 27 29  1  0  0  0  0
 28 29  1  0  0  0  0
 31 42  1  6  0  0  0
 32 31  1  0  0  0  0
 33 38  1  6  0  0  0
 33 37  1  0  0  0  0
 33 34  1  0  0  0  0
 33 36  1  0  0  0  0
 35 45  1  6  0  0  0
 36 31  1  0  0  0  0
 36 30  1  1  0  0  0
 37 35  1  0  0  0  0
 37 32  1  1  0  0  0
 39 35  1  0  0  0  0
 39 34  1  0  0  0  0
 42 41  1  6  0  0  0
 42 44  1  0  0  0  0
 42 40  1  0  0  0  0
 43 44  1  0  0  0  0
 46 52  1  6  0  0  0
 46 47  1  0  0  0  0
 47 51  1  0  0  0  0
 47 55  1  0  0  0  0
 48 55  2  0  0  0  0
 49 45  1  6  0  0  0
 49 51  1  0  0  0  0
 50 54  1  1  0  0  0
 50 49  1  0  0  0  0
 50 46  1  0  0  0  0
 53 46  1  0  0  0  0
 53 48  1  0  0  0  0
M  END
>  <MODEL>
3

>  <REMARK>
 VINA RESULT:      -6.8      3.710      8.699
  Name = 
  16 active torsions:
  status: ('A' for Active; 'I' for Inactive)
    1  A    between atoms: N_2  and  C_46
    2  A    between atoms: C_5  and  C_15
    3  A    between atoms: C_5  and  C_18
    4  A    between atoms: C_5  and  C_25
    5  A    between atoms: C_7  and  C_40
    6  A    between atoms: C_11  and  C_17
    7  A    between atoms: C_14  and  C_19
    8  A    between atoms: C_14  and  C_37
    9  A    between atoms: C_15  and  C_52
   10  A    between atoms: C_17  and  C_44
   11  A    between atoms: C_18  and  O_33
   12  A    between atoms: C_22  and  O_51
   13  A    between atoms: C_29  and  O_51
   14  A    between atoms: O_33  and  P_48
   15  A    between atoms: C_35  and  C_41
   16  A    between atoms: C_40  and  C_55
                            x       y       z     vdW  Elec       q    Type
                         _______ _______ _______ _____ _____    ______ ____

>  <TORSDO>
F 16

$$$$
=
 OpenBabel11062421333D

 55 61  0  0  1  0  0  0  0  0999 V2000
  188.6960  176.4980  146.0180 C   0  0  2  0  0  3  0  0  0  0  0  0
  188.2310  177.7410  146.7940 C   0  0  0  0  0  2  0  0  0  0  0  0
  186.2400  177.9110  145.3180 C   0  0  0  0  0  0  0  0  0  0  0  0
  185.0470  178.2640  145.1280 O   0  0  0  0  0  0  0  0  0  0  0  0
  187.1050  177.3880  144.2030 C   0  0  1  0  0  3  0  0  0  0  0  0
  186.8040  177.9850  146.6240 N   0  0  0  0  0  2  0  0  0  0  0  0
  187.8680  176.1810  144.7570 C   0  0  0  0  0  2  0  0  0  0  0  0
  186.4860  178.0640  141.8620 C   0  0  0  0  0  2  0  0  0  0  0  0
  186.7990  175.7210  142.3290 C   0  0  0  0  0  2  0  0  0  0  0  0
  186.3000  177.0120  142.9460 C   0  0  1  0  0  3  0  0  0  0  0  0
  187.5260  177.5420  140.8860 C   0  0  0  0  0  2  0  0  0  0  0  0
  187.8440  176.1200  141.3110 C   0  0  2  0  0  3  0  0  0  0  0  0
  187.8480  175.2000  140.1780 N   0  0  0  0  0  2  0  0  0  0  0  0
  189.6600  173.8860  140.8630 O   0  0  0  0  0  0  0  0  0  0  0  0
  188.8240  174.1680  139.9610 C   0  0  0  0  0  0  0  0  0  0  0  0
  188.8550  173.3970  138.6710 C   0  0  2  0  0  3  0  0  0  0  0  0
  189.2090  171.9440  138.9500 C   0  0  0  0  0  2  0  0  0  0  0  0
  190.5900  171.7630  138.8610 O   0  0  0  0  0  0  0  0  0  0  0  0
  192.2160  170.3870  137.3460 O   0  0  0  0  0  1  0  0  0  0  0  0
  190.5390  168.9940  138.7850 O   0  0  0  0  0  1  0  0  0  0  0  0
  189.7210  170.4450  136.5820 O   0  0  0  0  0  0  0  0  0  0  0  0
  190.8030  170.3990  137.8820 P   0  0  0  0  0  0  0  0  0  0  0  0
  189.8510  173.9790  137.6730 C   0  0  0  0  0  2  0  0  0  0  0  0
  189.8760  175.2730  135.5590 C   0  0  2  0  0  3  0  0  0  0  0  0
  190.2120  173.8350  135.2380 C   0  0  0  0  0  2  0  0  0  0  0  0
  189.1980  174.1480  136.3170 C   0  0  1  0  0  3  0  0  0  0  0  0
  188.9240  175.8090  134.5130 C   0  0  0  0  0  2  0  0  0  0  0  0
  188.0160  177.7120  135.5990 O   0  0  0  0  0  1  0  0  0  0  0  0
  188.8870  177.3190  134.5860 C   0  0  0  0  0  2  0  0  0  0  0  0
  188.7030  175.2930  146.9410 C   0  0  0  0  0  2  0  0  0  0  0  0
  190.4170  174.3430  145.3750 C   0  0  2  0  0  3  0  0  0  0  0  0
  191.8160  174.4330  145.2430 O   0  0  0  0  0  0  0  0  0  0  0  0
  191.2140  175.2460  147.4140 C   0  0  1  0  0  0  0  0  0  0  0  0
  191.0480  176.6450  147.4730 O   0  0  0  0  0  0  0  0  0  0  0  0
  192.9940  176.2490  146.2050 C   0  0  1  0  0  3  0  0  0  0  0  0
  190.0230  174.5370  146.8230 C   0  0  1  0  0  3  0  0  0  0  0  0
  192.3350  174.9260  146.4610 C   0  0  2  0  0  3  0  0  0  0  0  0
  191.4930  174.7350  148.6820 O   0  0  0  0  0  1  0  0  0  0  0  0
  192.3010  177.1910  147.1550 C   0  0  0  0  0  2  0  0  0  0  0  0
  188.9800  173.3330  143.7900 F   0  0  0  0  0  0  0  0  0  0  0  0
  189.2750  172.2580  145.7520 O   0  0  0  0  0  1  0  0  0  0  0  0
  189.9060  173.0250  144.7690 C   0  0  2  0  0  0  0  0  0  0  0  0
  190.5960  171.6110  142.9320 O   0  0  0  0  0  1  0  0  0  0  0  0
  191.0260  172.2110  144.1180 C   0  0  0  0  0  2  0  0  0  0  0  0
  194.3690  176.1920  146.4980 O   0  0  0  0  0  0  0  0  0  0  0  0
  196.1990  174.7100  143.6950 C   0  0  2  0  0  0  0  0  0  0  0  0
  195.1010  175.4180  143.0780 N   0  0  0  0  0  0  0  0  0  0  0  0
  194.8580  173.2960  142.3310 C   0  0  0  0  0  3  0  0  0  0  0  0
  195.1570  176.1810  145.3140 C   0  0  1  0  0  3  0  0  0  0  0  0
  196.0650  174.9500  145.2010 C   0  0  1  0  0  3  0  0  0  0  0  0
  194.4480  176.3550  143.9630 C   0  0  0  0  0  2  0  0  0  0  0  0
  197.4110  175.2280  143.2340 O   0  0  0  0  0  1  0  0  0  0  0  0
  196.0450  173.2580  143.2370 C   0  0  0  0  0  2  0  0  0  0  0  0
  195.4920  173.8490  145.8460 O   0  0  0  0  0  1  0  0  0  0  0  0
  194.3500  174.5140  142.2890 C   0  0  0  0  0  3  0  0  0  0  0  0
  1  2  1  0  0  0  0
  1 30  1  1  0  0  0
  3  6  1  0  0  0  0
  4  3  2  0  0  0  0
  5  7  1  1  0  0  0
  5  3  1  0  0  0  0
  6  2  1  0  0  0  0
  7  1  1  0  0  0  0
  9 10  1  0  0  0  0
 10  8  1  6  0  0  0
 10  5  1  0  0  0  0
 11 12  1  0  0  0  0
 11  8  1  0  0  0  0
 12 13  1  6  0  0  0
 12  9  1  0  0  0  0
 15 13  1  0  0  0  0
 15 14  2  0  0  0  0
 16 23  1  6  0  0  0
 16 17  1  0  0  0  0
 16 15  1  0  0  0  0
 18 17  1  0  0  0  0
 19 22  1  0  0  0  0
 21 22  2  0  0  0  0
 22 20  1  0  0  0  0
 22 18  1  0  0  0  0
 24 27  1  6  0  0  0
 24 26  1  0  0  0  0
 25 24  1  0  0  0  0
 25 26  1  0  0  0  0
 26 23  1  1  0  0  0
 27 29  1  0  0  0  0
 29 28  1  0  0  0  0
 31 42  1  1  0  0  0
 31 36  1  0  0  0  0
 32 31  1  0  0  0  0
 33 34  1  0  0  0  0
 33 38  1  1  0  0  0
 35 37  1  0  0  0  0
 35 45  1  1  0  0  0
 35 39  1  0  0  0  0
 36 30  1  6  0  0  0
 36 33  1  0  0  0  0
 37 32  1  6  0  0  0
 37 33  1  0  0  0  0
 39 34  1  0  0  0  0
 42 40  1  6  0  0  0
 42 41  1  0  0  0  0
 43 44  1  0  0  0  0
 44 42  1  0  0  0  0
 46 52  1  6  0  0  0
 46 50  1  0  0  0  0
 47 46  1  0  0  0  0
 47 51  1  0  0  0  0
 48 53  1  0  0  0  0
 49 45  1  1  0  0  0
 50 49  1  0  0  0  0
 50 54  1  1  0  0  0
 51 49  1  0  0  0  0
 53 46  1  0  0  0  0
 55 48  2  0  0  0  0
 55 47  1  0  0  0  0
M  END
>  <MODEL>
4

>  <REMARK>
 VINA RESULT:      -6.8      3.702      8.053
  Name = 
  16 active torsions:
  status: ('A' for Active; 'I' for Inactive)
    1  A    between atoms: N_2  and  C_46
    2  A    between atoms: C_5  and  C_15
    3  A    between atoms: C_5  and  C_18
    4  A    between atoms: C_5  and  C_25
    5  A    between atoms: C_7  and  C_40
    6  A    between atoms: C_11  and  C_17
    7  A    between atoms: C_14  and  C_19
    8  A    between atoms: C_14  and  C_37
    9  A    between atoms: C_15  and  C_52
   10  A    between atoms: C_17  and  C_44
   11  A    between atoms: C_18  and  O_33
   12  A    between atoms: C_22  and  O_51
   13  A    between atoms: C_29  and  O_51
   14  A    between atoms: O_33  and  P_48
   15  A    between atoms: C_35  and  C_41
   16  A    between atoms: C_40  and  C_55
                            x       y       z     vdW  Elec       q    Type
                         _______ _______ _______ _____ _____    ______ ____

>  <TORSDO>
F 16

$$$$
=
 OpenBabel11062421333D

 55 61  0  0  1  0  0  0  0  0999 V2000
  189.6370  176.6560  145.4270 C   0  0  2  0  0  3  0  0  0  0  0  0
  188.9520  177.4020  146.5840 C   0  0  0  0  0  2  0  0  0  0  0  0
  186.7320  176.8570  145.6120 C   0  0  0  0  0  0  0  0  0  0  0  0
  185.5000  176.6400  145.7540 O   0  0  0  0  0  0  0  0  0  0  0  0
  187.3700  176.9770  144.2550 C   0  0  1  0  0  3  0  0  0  0  0  0
  187.5680  176.9790  146.7590 N   0  0  0  0  0  2  0  0  0  0  0  0
  188.6840  176.1930  144.3070 C   0  0  0  0  0  2  0  0  0  0  0  0
  186.2120  177.5830  142.1070 C   0  0  0  0  0  2  0  0  0  0  0  0
  187.1250  175.3630  142.3260 C   0  0  0  0  0  2  0  0  0  0  0  0
  186.4630  176.4730  143.1180 C   0  0  1  0  0  3  0  0  0  0  0  0
  187.1540  177.3620  140.9370 C   0  0  0  0  0  2  0  0  0  0  0  0
  187.8560  176.0400  141.1890 C   0  0  2  0  0  3  0  0  0  0  0  0
  187.8680  175.1940  139.9990 N   0  0  0  0  0  2  0  0  0  0  0  0
  189.4380  173.6330  140.7570 O   0  0  0  0  0  0  0  0  0  0  0  0
  188.7350  174.0650  139.8030 C   0  0  0  0  0  0  0  0  0  0  0  0
  188.8080  173.3740  138.4700 C   0  0  2  0  0  3  0  0  0  0  0  0
  189.2220  171.9230  138.6670 C   0  0  0  0  0  2  0  0  0  0  0  0
  190.6140  171.8180  138.6610 O   0  0  0  0  0  0  0  0  0  0  0  0
  191.9610  170.2760  137.0350 O   0  0  0  0  0  0  0  0  0  0  0  0
  191.5660  169.3360  139.4410 O   0  0  0  0  0  1  0  0  0  0  0  0
  189.5280  169.5050  137.5840 O   0  0  0  0  0  1  0  0  0  0  0  0
  190.9440  170.2380  138.1520 P   0  0  0  0  0  0  0  0  0  0  0  0
  189.7840  174.0550  137.5170 C   0  0  0  0  0  2  0  0  0  0  0  0
  188.8210  175.5810  135.8180 C   0  0  2  0  0  3  0  0  0  0  0  0
  190.0900  174.9870  135.2540 C   0  0  0  0  0  2  0  0  0  0  0  0
  189.1870  174.1430  136.1280 C   0  0  1  0  0  3  0  0  0  0  0  0
  187.7580  175.6010  134.7430 C   0  0  0  0  0  2  0  0  0  0  0  0
  186.2430  176.0460  136.5130 O   0  0  0  0  0  1  0  0  0  0  0  0
  186.5750  176.4170  135.2120 C   0  0  0  0  0  2  0  0  0  0  0  0
  190.4040  175.4650  145.9710 C   0  0  0  0  0  2  0  0  0  0  0  0
  192.8460  174.8910  146.0350 C   0  0  2  0  0  3  0  0  0  0  0  0
  193.6710  173.9410  145.4040 O   0  0  0  0  0  0  0  0  0  0  0  0
  191.5930  174.0360  144.2170 C   0  0  1  0  0  0  0  0  0  0  0  0
  190.6550  173.0680  144.6300 O   0  0  0  0  0  0  0  0  0  0  0  0
  192.7360  171.9720  144.4770 C   0  0  1  0  0  3  0  0  0  0  0  0
  191.6650  175.2190  145.1480 C   0  0  1  0  0  3  0  0  0  0  0  0
  192.9740  173.4400  144.2820 C   0  0  2  0  0  3  0  0  0  0  0  0
  191.3090  174.4670  142.9200 O   0  0  0  0  0  1  0  0  0  0  0  0
  191.2420  171.8240  144.3460 C   0  0  0  0  0  2  0  0  0  0  0  0
  194.9120  175.6910  146.8670 F   0  0  0  0  0  0  0  0  0  0  0  0
  193.0440  176.7810  147.5120 O   0  0  0  0  0  1  0  0  0  0  0  0
  193.6670  176.1240  146.4480 C   0  0  2  0  0  0  0  0  0  0  0  0
  194.9200  176.6900  144.4580 O   0  0  0  0  0  1  0  0  0  0  0  0
  193.8740  177.1000  145.2870 C   0  0  0  0  0  2  0  0  0  0  0  0
  193.3840  171.2200  143.4800 O   0  0  0  0  0  0  0  0  0  0  0  0
  195.7460  172.2270  140.8700 C   0  0  2  0  0  0  0  0  0  0  0  0
  194.4960  172.0280  140.1730 N   0  0  0  0  0  0  0  0  0  0  0  0
  195.9330  170.6460  139.1030 C   0  0  0  0  0  3  0  0  0  0  0  0
  193.9320  172.0550  142.4670 C   0  0  1  0  0  3  0  0  0  0  0  0
  195.4570  171.9420  142.3460 C   0  0  1  0  0  3  0  0  0  0  0  0
  193.3500  171.9600  141.0490 C   0  0  0  0  0  2  0  0  0  0  0  0
  196.1690  173.5480  140.7120 O   0  0  0  0  0  1  0  0  0  0  0  0
  196.7370  171.2770  140.1920 C   0  0  0  0  0  2  0  0  0  0  0  0
  195.8910  170.6650  142.7170 O   0  0  0  0  0  1  0  0  0  0  0  0
  194.6860  171.0750  139.1420 C   0  0  0  0  0  3  0  0  0  0  0  0
  1 30  1  1  0  0  0
  1  2  1  0  0  0  0
  2  6  1  0  0  0  0
  3  4  2  0  0  0  0
  3  6  1  0  0  0  0
  5  7  1  1  0  0  0
  5  3  1  0  0  0  0
  7  1  1  0  0  0  0
  9 10  1  0  0  0  0
 10  8  1  6  0  0  0
 10  5  1  0  0  0  0
 11 12  1  0  0  0  0
 11  8  1  0  0  0  0
 12 13  1  6  0  0  0
 12  9  1  0  0  0  0
 15 13  1  0  0  0  0
 15 14  2  0  0  0  0
 16 23  1  6  0  0  0
 16 17  1  0  0  0  0
 16 15  1  0  0  0  0
 18 17  1  0  0  0  0
 19 22  2  0  0  0  0
 21 22  1  0  0  0  0
 22 18  1  0  0  0  0
 22 20  1  0  0  0  0
 24 27  1  6  0  0  0
 24 26  1  0  0  0  0
 25 24  1  0  0  0  0
 25 26  1  0  0  0  0
 26 23  1  1  0  0  0
 27 29  1  0  0  0  0
 29 28  1  0  0  0  0
 31 42  1  6  0  0  0
 32 31  1  0  0  0  0
 33 38  1  6  0  0  0
 33 37  1  0  0  0  0
 33 34  1  0  0  0  0
 33 36  1  0  0  0  0
 35 45  1  6  0  0  0
 36 30  1  1  0  0  0
 36 31  1  0  0  0  0
 37 35  1  0  0  0  0
 37 32  1  1  0  0  0
 39 35  1  0  0  0  0
 39 34  1  0  0  0  0
 42 40  1  1  0  0  0
 42 41  1  0  0  0  0
 43 44  1  0  0  0  0
 44 42  1  0  0  0  0
 46 52  1  6  0  0  0
 46 50  1  0  0  0  0
 47 46  1  0  0  0  0
 47 51  1  0  0  0  0
 48 55  2  0  0  0  0
 48 53  1  0  0  0  0
 49 45  1  1  0  0  0
 50 49  1  0  0  0  0
 50 54  1  6  0  0  0
 51 49  1  0  0  0  0
 53 46  1  0  0  0  0
 55 47  1  0  0  0  0
M  END
>  <MODEL>
5

>  <REMARK>
 VINA RESULT:      -6.5      3.729      8.491
  Name = 
  16 active torsions:
  status: ('A' for Active; 'I' for Inactive)
    1  A    between atoms: N_2  and  C_46
    2  A    between atoms: C_5  and  C_15
    3  A    between atoms: C_5  and  C_18
    4  A    between atoms: C_5  and  C_25
    5  A    between atoms: C_7  and  C_40
    6  A    between atoms: C_11  and  C_17
    7  A    between atoms: C_14  and  C_19
    8  A    between atoms: C_14  and  C_37
    9  A    between atoms: C_15  and  C_52
   10  A    between atoms: C_17  and  C_44
   11  A    between atoms: C_18  and  O_33
   12  A    between atoms: C_22  and  O_51
   13  A    between atoms: C_29  and  O_51
   14  A    between atoms: O_33  and  P_48
   15  A    between atoms: C_35  and  C_41
   16  A    between atoms: C_40  and  C_55
                            x       y       z     vdW  Elec       q    Type
                         _______ _______ _______ _____ _____    ______ ____

>  <TORSDO>
F 16

$$$$
=
 OpenBabel11062421333D

 55 61  0  0  1  0  0  0  0  0999 V2000
  197.2240  174.0190  137.6490 C   0  0  2  0  0  3  0  0  0  0  0  0
  197.8700  174.9050  136.5700 C   0  0  0  0  0  2  0  0  0  0  0  0
  195.6220  175.7270  135.9080 C   0  0  0  0  0  0  0  0  0  0  0  0
  194.8860  176.6240  135.4190 O   0  0  0  0  0  0  0  0  0  0  0  0
  195.0940  174.3590  136.2460 C   0  0  1  0  0  3  0  0  0  0  0  0
  196.9950  176.0000  136.1710 N   0  0  0  0  0  2  0  0  0  0  0  0
  195.6830  173.9770  137.6070 C   0  0  0  0  0  2  0  0  0  0  0  0
  193.0800  172.8710  136.0280 C   0  0  0  0  0  2  0  0  0  0  0  0
  192.9990  174.6750  137.6230 C   0  0  0  0  0  2  0  0  0  0  0  0
  193.5570  174.2970  136.2660 C   0  0  1  0  0  3  0  0  0  0  0  0
  192.7410  172.2670  137.3800 C   0  0  0  0  0  2  0  0  0  0  0  0
  192.8740  173.3830  138.3990 C   0  0  2  0  0  3  0  0  0  0  0  0
  191.7340  173.4290  139.3100 N   0  0  0  0  0  2  0  0  0  0  0  0
  192.9480  173.4020  141.3110 O   0  0  0  0  0  0  0  0  0  0  0  0
  191.8230  173.3470  140.7420 C   0  0  0  0  0  0  0  0  0  0  0  0
  190.5850  173.2100  141.5830 C   0  0  2  0  0  3  0  0  0  0  0  0
  189.9720  171.8330  141.3740 C   0  0  0  0  0  2  0  0  0  0  0  0
  190.5060  170.9280  142.2920 O   0  0  0  0  0  0  0  0  0  0  0  0
  190.4510  168.3990  141.6350 O   0  0  0  0  0  1  0  0  0  0  0  0
  191.0540  170.0670  139.7160 O   0  0  0  0  0  0  0  0  0  0  0  0
  192.8180  169.4920  141.7630 O   0  0  0  0  0  1  0  0  0  0  0  0
  191.1860  169.6910  141.3610 P   0  0  0  0  0  0  0  0  0  0  0  0
  189.5470  174.2810  141.2620 C   0  0  0  0  0  2  0  0  0  0  0  0
  188.6120  175.9330  142.8550 C   0  0  2  0  0  3  0  0  0  0  0  0
  187.4770  175.3860  142.0210 C   0  0  0  0  0  2  0  0  0  0  0  0
  188.6130  174.4760  142.4380 C   0  0  1  0  0  3  0  0  0  0  0  0
  188.1680  176.0360  144.2970 C   0  0  0  0  0  2  0  0  0  0  0  0
  187.9810  177.6130  146.0590 O   0  0  0  0  0  1  0  0  0  0  0  0
  187.9890  177.4900  144.6720 C   0  0  0  0  0  2  0  0  0  0  0  0
  197.6870  174.4680  139.0230 C   0  0  0  0  0  2  0  0  0  0  0  0
  197.1680  173.1760  141.1090 C   0  0  2  0  0  3  0  0  0  0  0  0
  196.6360  173.4850  142.3760 O   0  0  0  0  0  0  0  0  0  0  0  0
  196.1780  175.3170  140.9020 C   0  0  1  0  0  0  0  0  0  0  0  0
  197.1360  176.3500  140.9620 O   0  0  0  0  0  0  0  0  0  0  0  0
  196.6920  175.7100  143.1860 C   0  0  1  0  0  3  0  0  0  0  0  0
  196.6330  174.1420  140.0750 C   0  0  1  0  0  3  0  0  0  0  0  0
  195.9940  174.7390  142.2800 C   0  0  2  0  0  3  0  0  0  0  0  0
  194.9660  175.8040  140.4120 O   0  0  0  0  0  1  0  0  0  0  0  0
  197.0800  176.8450  142.2750 C   0  0  0  0  0  2  0  0  0  0  0  0
  197.8310  171.3120  139.8100 F   0  0  0  0  0  0  0  0  0  0  0  0
  195.6270  171.5490  140.2320 O   0  0  0  0  0  1  0  0  0  0  0  0
  196.9100  171.7000  140.7650 C   0  0  2  0  0  0  0  0  0  0  0  0
  196.1470  169.7390  141.9590 O   0  0  0  0  0  1  0  0  0  0  0  0
  197.0760  170.7820  141.9790 C   0  0  0  0  0  2  0  0  0  0  0  0
  195.8250  176.1730  144.1920 O   0  0  0  0  0  0  0  0  0  0  0  0
  192.6960  174.7830  145.4890 C   0  0  2  0  0  0  0  0  0  0  0  0
  192.2850  175.8930  144.6610 N   0  0  0  0  0  0  0  0  0  0  0  0
  191.3790  176.3660  146.6790 C   0  0  0  0  0  3  0  0  0  0  0  0
  194.5580  175.5280  144.1300 C   0  0  1  0  0  3  0  0  0  0  0  0
  194.2230  174.7270  145.3950 C   0  0  1  0  0  3  0  0  0  0  0  0
  193.3250  176.3730  143.7810 C   0  0  0  0  0  2  0  0  0  0  0  0
  192.1430  173.5990  144.9990 O   0  0  0  0  0  1  0  0  0  0  0  0
  192.1280  175.0890  146.8770 C   0  0  0  0  0  2  0  0  0  0  0  0
  194.8280  175.2970  146.5190 O   0  0  0  0  0  1  0  0  0  0  0  0
  191.5110  176.7900  145.4360 C   0  0  0  0  0  3  0  0  0  0  0  0
  1 30  1  1  0  0  0
  2  1  1  0  0  0  0
  3  6  1  0  0  0  0
  3  5  1  0  0  0  0
  4  3  2  0  0  0  0
  5 10  1  0  0  0  0
  5  7  1  1  0  0  0
  6  2  1  0  0  0  0
  7  1  1  0  0  0  0
  8 11  1  0  0  0  0
  9 12  1  0  0  0  0
 10  8  1  1  0  0  0
 10  9  1  0  0  0  0
 11 12  1  0  0  0  0
 12 13  1  1  0  0  0
 13 15  1  0  0  0  0
 15 14  2  0  0  0  0
 15 16  1  0  0  0  0
 16 23  1  6  0  0  0
 17 16  1  0  0  0  0
 17 18  1  0  0  0  0
 20 22  2  0  0  0  0
 22 19  1  0  0  0  0
 22 21  1  0  0  0  0
 22 18  1  0  0  0  0
 24 27  1  1  0  0  0
 25 26  1  0  0  0  0
 25 24  1  0  0  0  0
 26 23  1  6  0  0  0
 26 24  1  0  0  0  0
 27 29  1  0  0  0  0
 29 28  1  0  0  0  0
 31 42  1  6  0  0  0
 31 32  1  0  0  0  0
 33 38  1  6  0  0  0
 33 34  1  0  0  0  0
 33 37  1  0  0  0  0
 34 39  1  0  0  0  0
 35 45  1  1  0  0  0
 36 30  1  6  0  0  0
 36 33  1  0  0  0  0
 36 31  1  0  0  0  0
 37 32  1  6  0  0  0
 37 35  1  0  0  0  0
 39 35  1  0  0  0  0
 41 42  1  0  0  0  0
 42 40  1  6  0  0  0
 42 44  1  0  0  0  0
 43 44  1  0  0  0  0
 46 52  1  6  0  0  0
 46 53  1  0  0  0  0
 47 55  1  0  0  0  0
 47 46  1  0  0  0  0
 48 53  1  0  0  0  0
 49 45  1  1  0  0  0
 49 50  1  0  0  0  0
 50 46  1  0  0  0  0
 50 54  1  1  0  0  0
 51 49  1  0  0  0  0
 51 47  1  0  0  0  0
 55 48  2  0  0  0  0
M  END
>  <MODEL>
6

>  <REMARK>
 VINA RESULT:      -6.4      3.783      8.083
  Name = 
  16 active torsions:
  status: ('A' for Active; 'I' for Inactive)
    1  A    between atoms: N_2  and  C_46
    2  A    between atoms: C_5  and  C_15
    3  A    between atoms: C_5  and  C_18
    4  A    between atoms: C_5  and  C_25
    5  A    between atoms: C_7  and  C_40
    6  A    between atoms: C_11  and  C_17
    7  A    between atoms: C_14  and  C_19
    8  A    between atoms: C_14  and  C_37
    9  A    between atoms: C_15  and  C_52
   10  A    between atoms: C_17  and  C_44
   11  A    between atoms: C_18  and  O_33
   12  A    between atoms: C_22  and  O_51
   13  A    between atoms: C_29  and  O_51
   14  A    between atoms: O_33  and  P_48
   15  A    between atoms: C_35  and  C_41
   16  A    between atoms: C_40  and  C_55
                            x       y       z     vdW  Elec       q    Type
                         _______ _______ _______ _____ _____    ______ ____

>  <TORSDO>
F 16

$$$$
=
 OpenBabel11062421333D

 55 61  0  0  1  0  0  0  0  0999 V2000
  195.7420  171.8180  143.0270 C   0  0  2  0  0  3  0  0  0  0  0  0
  197.2440  172.0990  143.2040 C   0  0  0  0  0  2  0  0  0  0  0  0
  196.7870  173.1070  145.4270 C   0  0  0  0  0  0  0  0  0  0  0  0
  197.1600  173.3940  146.5950 O   0  0  0  0  0  0  0  0  0  0  0  0
  195.4830  173.6030  144.8610 C   0  0  1  0  0  3  0  0  0  0  0  0
  197.6020  172.2760  144.6050 N   0  0  0  0  0  2  0  0  0  0  0  0
  194.8410  172.4260  144.1210 C   0  0  0  0  0  2  0  0  0  0  0  0
  194.8270  175.6450  146.1710 C   0  0  0  0  0  2  0  0  0  0  0  0
  193.0910  174.1180  145.4910 C   0  0  0  0  0  2  0  0  0  0  0  0
  194.5390  174.1690  145.9370 C   0  0  1  0  0  3  0  0  0  0  0  0
  193.7980  176.4450  145.3920 C   0  0  0  0  0  2  0  0  0  0  0  0
  192.8140  175.4430  144.8180 C   0  0  2  0  0  3  0  0  0  0  0  0
  191.4290  175.8560  145.0280 N   0  0  0  0  0  2  0  0  0  0  0  0
  190.4870  174.6680  143.2450 O   0  0  0  0  0  0  0  0  0  0  0  0
  190.3300  175.5140  144.1680 C   0  0  0  0  0  0  0  0  0  0  0  0
  188.9790  176.1430  144.3600 C   0  0  2  0  0  3  0  0  0  0  0  0
  188.2990  176.3220  143.0100 C   0  0  0  0  0  2  0  0  0  0  0  0
  188.1900  177.6800  142.7070 O   0  0  0  0  0  0  0  0  0  0  0  0
  186.1010  179.2210  143.0130 O   0  0  0  0  0  1  0  0  0  0  0  0
  186.3260  178.0470  140.6900 O   0  0  0  0  0  0  0  0  0  0  0  0
  185.6280  176.6540  142.9710 O   0  0  0  0  0  1  0  0  0  0  0  0
  186.5530  177.9340  142.3630 P   0  0  0  0  0  0  0  0  0  0  0  0
  189.0620  177.4910  145.0690 C   0  0  0  0  0  2  0  0  0  0  0  0
  186.8930  177.6480  146.2560 C   0  0  2  0  0  3  0  0  0  0  0  0
  187.4250  176.2450  146.4280 C   0  0  0  0  0  2  0  0  0  0  0  0
  188.3820  177.4170  146.4200 C   0  0  1  0  0  3  0  0  0  0  0  0
  186.3190  178.1290  147.5700 C   0  0  0  0  0  2  0  0  0  0  0  0
  184.4130  178.0650  146.1590 O   0  0  0  0  0  1  0  0  0  0  0  0
  184.8850  178.5670  147.3690 C   0  0  0  0  0  2  0  0  0  0  0  0
  195.5090  170.3200  142.9470 C   0  0  0  0  0  2  0  0  0  0  0  0
  193.3020  170.9080  141.9100 C   0  0  2  0  0  3  0  0  0  0  0  0
  192.8490  171.1970  140.6080 O   0  0  0  0  0  0  0  0  0  0  0  0
  195.0170  170.1920  140.4430 C   0  0  1  0  0  0  0  0  0  0  0  0
  196.0730  171.1230  140.3700 O   0  0  0  0  0  0  0  0  0  0  0  0
  194.3730  171.9160  138.9440 C   0  0  1  0  0  3  0  0  0  0  0  0
  194.5050  169.9930  141.8460 C   0  0  1  0  0  3  0  0  0  0  0  0
  193.8280  170.7400  139.6990 C   0  0  2  0  0  3  0  0  0  0  0  0
  195.4090  168.9680  139.9000 O   0  0  0  0  0  1  0  0  0  0  0  0
  195.8590  171.8500  139.1880 C   0  0  0  0  0  2  0  0  0  0  0  0
  191.9800  171.1940  143.8510 F   0  0  0  0  0  0  0  0  0  0  0  0
  192.4750  169.0800  143.2380 O   0  0  0  0  0  1  0  0  0  0  0  0
  192.1510  170.3550  142.7660 C   0  0  2  0  0  0  0  0  0  0  0  0
  189.9990  171.3730  142.3400 O   0  0  0  0  0  1  0  0  0  0  0  0
  190.8280  170.3020  141.9990 C   0  0  0  0  0  2  0  0  0  0  0  0
  194.1050  171.8000  137.5680 O   0  0  0  0  0  0  0  0  0  0  0  0
  190.6760  172.8600  136.8450 C   0  0  2  0  0  0  0  0  0  0  0  0
  191.0850  173.6870  137.9570 N   0  0  0  0  0  0  0  0  0  0  0  0
  189.2130  172.6640  138.7100 C   0  0  0  0  0  3  0  0  0  0  0  0
  193.0720  172.6880  137.1580 C   0  0  1  0  0  3  0  0  0  0  0  0
  191.8790  171.9750  136.5100 C   0  0  1  0  0  3  0  0  0  0  0  0
  192.5120  173.6800  138.1880 C   0  0  0  0  0  2  0  0  0  0  0  0
  190.3560  173.6660  135.7520 O   0  0  0  0  0  1  0  0  0  0  0  0
  189.4260  172.1240  137.3340 C   0  0  0  0  0  2  0  0  0  0  0  0
  191.7290  170.6860  137.0310 O   0  0  0  0  0  1  0  0  0  0  0  0
  190.1720  173.5140  139.0260 C   0  0  0  0  0  3  0  0  0  0  0  0
  1 30  1  1  0  0  0
  1  2  1  0  0  0  0
  1  7  1  0  0  0  0
  2  6  1  0  0  0  0
  3  4  2  0  0  0  0
  5  7  1  1  0  0  0
  5  3  1  0  0  0  0
  5 10  1  0  0  0  0
  6  3  1  0  0  0  0
 10  9  1  6  0  0  0
 10  8  1  0  0  0  0
 11  8  1  0  0  0  0
 12 13  1  1  0  0  0
 12 11  1  0  0  0  0
 12  9  1  0  0  0  0
 14 15  2  0  0  0  0
 15 16  1  0  0  0  0
 15 13  1  0  0  0  0
 16 17  1  6  0  0  0
 16 23  1  0  0  0  0
 18 17  1  0  0  0  0
 20 22  2  0  0  0  0
 22 18  1  0  0  0  0
 22 21  1  0  0  0  0
 22 19  1  0  0  0  0
 24 26  1  0  0  0  0
 24 25  1  0  0  0  0
 24 27  1  1  0  0  0
 26 23  1  6  0  0  0
 26 25  1  0  0  0  0
 28 29  1  0  0  0  0
 29 27  1  0  0  0  0
 31 42  1  1  0  0  0
 32 31  1  0  0  0  0
 33 38  1  6  0  0  0
 33 36  1  0  0  0  0
 34 33  1  0  0  0  0
 35 45  1  6  0  0  0
 35 39  1  0  0  0  0
 35 37  1  0  0  0  0
 36 31  1  0  0  0  0
 36 30  1  1  0  0  0
 37 33  1  0  0  0  0
 37 32  1  1  0  0  0
 39 34  1  0  0  0  0
 42 41  1  1  0  0  0
 42 40  1  0  0  0  0
 44 43  1  0  0  0  0
 44 42  1  0  0  0  0
 46 52  1  6  0  0  0
 46 53  1  0  0  0  0
 46 47  1  0  0  0  0
 47 51  1  0  0  0  0
 47 55  1  0  0  0  0
 48 55  2  0  0  0  0
 49 45  1  1  0  0  0
 49 51  1  0  0  0  0
 50 46  1  0  0  0  0
 50 54  1  1  0  0  0
 50 49  1  0  0  0  0
 53 48  1  0  0  0  0
M  END
>  <MODEL>
7

>  <REMARK>
 VINA RESULT:      -6.3      3.274      9.204
  Name = 
  16 active torsions:
  status: ('A' for Active; 'I' for Inactive)
    1  A    between atoms: N_2  and  C_46
    2  A    between atoms: C_5  and  C_15
    3  A    between atoms: C_5  and  C_18
    4  A    between atoms: C_5  and  C_25
    5  A    between atoms: C_7  and  C_40
    6  A    between atoms: C_11  and  C_17
    7  A    between atoms: C_14  and  C_19
    8  A    between atoms: C_14  and  C_37
    9  A    between atoms: C_15  and  C_52
   10  A    between atoms: C_17  and  C_44
   11  A    between atoms: C_18  and  O_33
   12  A    between atoms: C_22  and  O_51
   13  A    between atoms: C_29  and  O_51
   14  A    between atoms: O_33  and  P_48
   15  A    between atoms: C_35  and  C_41
   16  A    between atoms: C_40  and  C_55
                            x       y       z     vdW  Elec       q    Type
                         _______ _______ _______ _____ _____    ______ ____

>  <TORSDO>
F 16

$$$$
=
 OpenBabel11062421333D

 55 61  0  0  1  0  0  0  0  0999 V2000
  189.2780  176.7510  145.3180 C   0  0  2  0  0  3  0  0  0  0  0  0
  190.5870  177.5150  145.5810 C   0  0  0  0  0  2  0  0  0  0  0  0
  191.8420  175.7910  144.3080 C   0  0  0  0  0  0  0  0  0  0  0  0
  192.8270  175.4570  143.5980 O   0  0  0  0  0  0  0  0  0  0  0  0
  190.8600  174.7800  144.8370 C   0  0  1  0  0  3  0  0  0  0  0  0
  191.6230  177.1640  144.6190 N   0  0  0  0  0  2  0  0  0  0  0  0
  189.4610  175.3740  144.6470 C   0  0  0  0  0  2  0  0  0  0  0  0
  189.6690  172.6460  144.2480 C   0  0  0  0  0  2  0  0  0  0  0  0
  191.2430  173.5500  142.6630 C   0  0  0  0  0  2  0  0  0  0  0  0
  190.9820  173.4090  144.1490 C   0  0  1  0  0  3  0  0  0  0  0  0
  188.9370  172.8160  142.9280 C   0  0  0  0  0  2  0  0  0  0  0  0
  189.8840  173.5530  141.9990 C   0  0  2  0  0  3  0  0  0  0  0  0
  189.9470  172.9310  140.6790 N   0  0  0  0  0  2  0  0  0  0  0  0
  188.5650  174.4550  139.5630 O   0  0  0  0  0  0  0  0  0  0  0  0
  189.2040  173.3670  139.5290 C   0  0  0  0  0  0  0  0  0  0  0  0
  189.1880  172.5500  138.2680 C   0  0  2  0  0  3  0  0  0  0  0  0
  189.5390  171.1050  138.5890 C   0  0  0  0  0  2  0  0  0  0  0  0
  190.4400  170.6100  137.6450 O   0  0  0  0  0  0  0  0  0  0  0  0
  192.2770  168.7530  137.5300 O   0  0  0  0  0  0  0  0  0  0  0  0
  192.5330  170.4990  139.4570 O   0  0  0  0  0  1  0  0  0  0  0  0
  190.5740  168.5520  139.4990 O   0  0  0  0  0  1  0  0  0  0  0  0
  191.4750  169.5850  138.5050 P   0  0  0  0  0  0  0  0  0  0  0  0
  190.1570  173.0860  137.2190 C   0  0  0  0  0  2  0  0  0  0  0  0
  192.6120  173.4240  137.1870 C   0  0  2  0  0  3  0  0  0  0  0  0
  191.9480  174.7510  136.9010 C   0  0  0  0  0  2  0  0  0  0  0  0
  191.3190  173.7910  137.8880 C   0  0  1  0  0  3  0  0  0  0  0  0
  193.7690  173.6390  138.1370 C   0  0  0  0  0  2  0  0  0  0  0  0
  195.9360  172.8540  138.6990 O   0  0  0  0  0  1  0  0  0  0  0  0
  194.8420  172.6070  137.8730 C   0  0  0  0  0  2  0  0  0  0  0  0
  188.3460  177.6080  144.4800 C   0  0  0  0  0  2  0  0  0  0  0  0
  186.0140  177.9900  145.3230 C   0  0  2  0  0  3  0  0  0  0  0  0
  184.7280  177.9970  144.7500 O   0  0  0  0  0  0  0  0  0  0  0  0
  186.2310  176.9480  143.2070 C   0  0  1  0  0  0  0  0  0  0  0  0
  186.7560  177.8260  142.2370 O   0  0  0  0  0  0  0  0  0  0  0  0
  184.4580  178.3160  142.4190 C   0  0  1  0  0  3  0  0  0  0  0  0
  186.9220  177.0650  144.5410 C   0  0  1  0  0  3  0  0  0  0  0  0
  184.8070  177.3390  143.5020 C   0  0  2  0  0  3  0  0  0  0  0  0
  186.2890  175.6300  142.7540 O   0  0  0  0  0  1  0  0  0  0  0  0
  185.6520  178.2830  141.5000 C   0  0  0  0  0  2  0  0  0  0  0  0
  186.3130  176.3330  146.9860 F   0  0  0  0  0  0  0  0  0  0  0  0
  184.6180  177.7930  147.2730 O   0  0  0  0  0  1  0  0  0  0  0  0
  185.9320  177.6520  146.8200 C   0  0  2  0  0  0  0  0  0  0  0  0
  186.3090  179.7790  147.9090 O   0  0  0  0  0  1  0  0  0  0  0  0
  186.8660  178.5210  147.6660 C   0  0  0  0  0  2  0  0  0  0  0  0
  183.3040  177.9090  141.7250 O   0  0  0  0  0  0  0  0  0  0  0  0
  180.0770  179.4480  140.9370 C   0  0  2  0  0  0  0  0  0  0  0  0
  180.1070  179.3840  142.3810 N   0  0  0  0  0  0  0  0  0  0  0  0
  178.2200  178.2630  141.8330 C   0  0  0  0  0  3  0  0  0  0  0  0
  182.3220  178.9380  141.6910 C   0  0  1  0  0  3  0  0  0  0  0  0
  181.4100  178.8650  140.4600 C   0  0  1  0  0  3  0  0  0  0  0  0
  181.4220  179.1290  142.9210 C   0  0  0  0  0  2  0  0  0  0  0  0
  179.9610  180.7770  140.5270 O   0  0  0  0  0  1  0  0  0  0  0  0
  178.8260  178.6660  140.5290 C   0  0  0  0  0  2  0  0  0  0  0  0
  181.2660  177.5440  140.0260 O   0  0  0  0  0  1  0  0  0  0  0  0
  178.9770  178.6640  142.8380 C   0  0  0  0  0  3  0  0  0  0  0  0
  1 30  1  6  0  0  0
  1  2  1  0  0  0  0
  3  6  1  0  0  0  0
  3  5  1  0  0  0  0
  4  3  2  0  0  0  0
  5  7  1  6  0  0  0
  6  2  1  0  0  0  0
  7  1  1  0  0  0  0
 10  9  1  6  0  0  0
 10  8  1  0  0  0  0
 10  5  1  0  0  0  0
 11  8  1  0  0  0  0
 12 13  1  6  0  0  0
 12  9  1  0  0  0  0
 12 11  1  0  0  0  0
 15 14  2  0  0  0  0
 15 13  1  0  0  0  0
 16 23  1  6  0  0  0
 16 17  1  0  0  0  0
 16 15  1  0  0  0  0
 18 22  1  0  0  0  0
 18 17  1  0  0  0  0
 19 22  2  0  0  0  0
 22 20  1  0  0  0  0
 22 21  1  0  0  0  0
 24 26  1  0  0  0  0
 24 27  1  1  0  0  0
 25 24  1  0  0  0  0
 25 26  1  0  0  0  0
 26 23  1  6  0  0  0
 29 27  1  0  0  0  0
 29 28  1  0  0  0  0
 31 42  1  1  0  0  0
 32 31  1  0  0  0  0
 33 38  1  6  0  0  0
 33 37  1  0  0  0  0
 33 36  1  0  0  0  0
 34 33  1  0  0  0  0
 35 45  1  6  0  0  0
 35 37  1  0  0  0  0
 36 30  1  6  0  0  0
 36 31  1  0  0  0  0
 37 32  1  1  0  0  0
 39 34  1  0  0  0  0
 39 35  1  0  0  0  0
 42 40  1  1  0  0  0
 42 41  1  0  0  0  0
 42 44  1  0  0  0  0
 44 43  1  0  0  0  0
 46 52  1  6  0  0  0
 46 47  1  0  0  0  0
 47 55  1  0  0  0  0
 47 51  1  0  0  0  0
 48 55  2  0  0  0  0
 49 45  1  1  0  0  0
 49 51  1  0  0  0  0
 50 54  1  1  0  0  0
 50 46  1  0  0  0  0
 50 49  1  0  0  0  0
 53 46  1  0  0  0  0
 53 48  1  0  0  0  0
M  END
>  <MODEL>
8

>  <REMARK>
 VINA RESULT:      -6.2      3.931      6.244
  Name = 
  16 active torsions:
  status: ('A' for Active; 'I' for Inactive)
    1  A    between atoms: N_2  and  C_46
    2  A    between atoms: C_5  and  C_15
    3  A    between atoms: C_5  and  C_18
    4  A    between atoms: C_5  and  C_25
    5  A    between atoms: C_7  and  C_40
    6  A    between atoms: C_11  and  C_17
    7  A    between atoms: C_14  and  C_19
    8  A    between atoms: C_14  and  C_37
    9  A    between atoms: C_15  and  C_52
   10  A    between atoms: C_17  and  C_44
   11  A    between atoms: C_18  and  O_33
   12  A    between atoms: C_22  and  O_51
   13  A    between atoms: C_29  and  O_51
   14  A    between atoms: O_33  and  P_48
   15  A    between atoms: C_35  and  C_41
   16  A    between atoms: C_40  and  C_55
                            x       y       z     vdW  Elec       q    Type
                         _______ _______ _______ _____ _____    ______ ____

>  <TORSDO>
F 16

$$$$
=
 OpenBabel11062421333D

 55 61  0  0  1  0  0  0  0  0999 V2000
  187.3460  176.6770  144.7660 C   0  0  2  0  0  3  0  0  0  0  0  0
  186.8730  176.4230  146.2080 C   0  0  0  0  0  2  0  0  0  0  0  0
  188.9260  175.0940  146.6400 C   0  0  0  0  0  0  0  0  0  0  0  0
  189.7980  174.6560  147.4370 O   0  0  0  0  0  0  0  0  0  0  0  0
  188.8560  174.6410  145.2070 C   0  0  1  0  0  3  0  0  0  0  0  0
  187.9790  176.0600  147.0850 N   0  0  0  0  0  2  0  0  0  0  0  0
  188.6070  175.8900  144.3550 C   0  0  0  0  0  2  0  0  0  0  0  0
  189.8780  172.3950  144.7270 C   0  0  0  0  0  2  0  0  0  0  0  0
  190.4980  174.2540  143.3250 C   0  0  0  0  0  2  0  0  0  0  0  0
  190.1230  173.8970  144.7500 C   0  0  1  0  0  3  0  0  0  0  0  0
  189.5880  171.9970  143.2910 C   0  0  0  0  0  2  0  0  0  0  0  0
  189.8090  173.2370  142.4440 C   0  0  2  0  0  3  0  0  0  0  0  0
  190.6070  172.9500  141.2550 N   0  0  0  0  0  2  0  0  0  0  0  0
  189.2760  174.1050  139.7150 O   0  0  0  0  0  0  0  0  0  0  0  0
  190.2510  173.3290  139.9160 C   0  0  0  0  0  0  0  0  0  0  0  0
  191.0370  172.8250  138.7390 C   0  0  2  0  0  3  0  0  0  0  0  0
  191.6750  171.4860  139.0830 C   0  0  0  0  0  2  0  0  0  0  0  0
  190.7180  170.4730  139.0300 O   0  0  0  0  0  0  0  0  0  0  0  0
  190.5700  168.3460  137.5160 O   0  0  0  0  0  1  0  0  0  0  0  0
  189.6700  170.5630  136.4660 O   0  0  0  0  0  0  0  0  0  0  0  0
  192.3710  170.1090  136.8330 O   0  0  0  0  0  1  0  0  0  0  0  0
  190.8250  169.8350  137.4660 P   0  0  0  0  0  0  0  0  0  0  0  0
  192.1210  173.8050  138.3040 C   0  0  0  0  0  2  0  0  0  0  0  0
  194.5050  174.4450  138.5290 C   0  0  2  0  0  3  0  0  0  0  0  0
  193.8270  174.6710  139.8610 C   0  0  0  0  0  2  0  0  0  0  0  0
  193.4270  173.4890  139.0020 C   0  0  1  0  0  3  0  0  0  0  0  0
  195.8610  173.8160  138.7590 C   0  0  0  0  0  2  0  0  0  0  0  0
  196.9160  175.6100  137.6210 O   0  0  0  0  0  1  0  0  0  0  0  0
  196.8050  174.2220  137.6500 C   0  0  0  0  0  2  0  0  0  0  0  0
  187.5810  178.1630  144.5600 C   0  0  0  0  0  2  0  0  0  0  0  0
  186.1130  177.5700  142.6140 C   0  0  2  0  0  3  0  0  0  0  0  0
  184.8010  177.8880  142.2130 O   0  0  0  0  0  0  0  0  0  0  0  0
  185.4570  179.4320  143.9220 C   0  0  1  0  0  0  0  0  0  0  0  0
  185.0550  179.0520  145.2190 O   0  0  0  0  0  0  0  0  0  0  0  0
  183.2170  178.6550  143.7970 C   0  0  1  0  0  3  0  0  0  0  0  0
  186.6840  178.6960  143.4480 C   0  0  1  0  0  3  0  0  0  0  0  0
  184.3910  179.0270  142.9390 C   0  0  2  0  0  3  0  0  0  0  0  0
  185.6750  180.8090  143.8640 O   0  0  0  0  0  1  0  0  0  0  0  0
  183.6510  179.0310  145.1910 C   0  0  0  0  0  2  0  0  0  0  0  0
  187.3780  175.8940  141.5240 F   0  0  0  0  0  0  0  0  0  0  0  0
  188.1120  178.0200  141.3520 O   0  0  0  0  0  1  0  0  0  0  0  0
  186.9750  177.2100  141.3930 C   0  0  2  0  0  0  0  0  0  0  0  0
  187.0650  177.5420  138.9990 O   0  0  0  0  0  1  0  0  0  0  0  0
  186.2020  177.3370  140.0780 C   0  0  0  0  0  2  0  0  0  0  0  0
  182.0740  179.3910  143.4340 O   0  0  0  0  0  0  0  0  0  0  0  0
  179.0800  178.4700  141.5390 C   0  0  2  0  0  0  0  0  0  0  0  0
  179.9100  179.1720  140.5880 N   0  0  0  0  0  0  0  0  0  0  0  0
  177.9680  180.3310  140.5630 C   0  0  0  0  0  3  0  0  0  0  0  0
  181.3180  178.7220  142.4310 C   0  0  1  0  0  3  0  0  0  0  0  0
  179.8700  178.4400  142.8500 C   0  0  1  0  0  3  0  0  0  0  0  0
  181.2800  179.3270  141.0200 C   0  0  0  0  0  2  0  0  0  0  0  0
  178.8480  177.1680  141.0900 O   0  0  0  0  0  1  0  0  0  0  0  0
  177.7640  179.2510  141.5740 C   0  0  0  0  0  2  0  0  0  0  0  0
  179.4140  179.4120  143.7460 O   0  0  0  0  0  1  0  0  0  0  0  0
  179.1840  180.2650  140.0540 C   0  0  0  0  0  3  0  0  0  0  0  0
  1 30  1  1  0  0  0
  1  2  1  0  0  0  0
  2  6  1  0  0  0  0
  3  6  1  0  0  0  0
  3  4  2  0  0  0  0
  5  7  1  6  0  0  0
  5  3  1  0  0  0  0
  7  1  1  0  0  0  0
  8 10  1  0  0  0  0
 10  9  1  6  0  0  0
 10  5  1  0  0  0  0
 11  8  1  0  0  0  0
 12 13  1  6  0  0  0
 12 11  1  0  0  0  0
 12  9  1  0  0  0  0
 14 15  2  0  0  0  0
 15 13  1  0  0  0  0
 16 23  1  1  0  0  0
 16 17  1  0  0  0  0
 16 15  1  0  0  0  0
 18 17  1  0  0  0  0
 20 22  2  0  0  0  0
 21 22  1  0  0  0  0
 22 19  1  0  0  0  0
 22 18  1  0  0  0  0
 24 27  1  1  0  0  0
 24 26  1  0  0  0  0
 24 25  1  0  0  0  0
 26 23  1  6  0  0  0
 26 25  1  0  0  0  0
 28 29  1  0  0  0  0
 29 27  1  0  0  0  0
 31 42  1  6  0  0  0
 31 36  1  0  0  0  0
 32 31  1  0  0  0  0
 33 38  1  6  0  0  0
 33 34  1  0  0  0  0
 35 45  1  6  0  0  0
 35 39  1  0  0  0  0
 36 33  1  0  0  0  0
 36 30  1  1  0  0  0
 37 32  1  1  0  0  0
 37 35  1  0  0  0  0
 37 33  1  0  0  0  0
 39 34  1  0  0  0  0
 42 41  1  6  0  0  0
 42 40  1  0  0  0  0
 43 44  1  0  0  0  0
 44 42  1  0  0  0  0
 46 52  1  6  0  0  0
 46 53  1  0  0  0  0
 46 50  1  0  0  0  0
 47 51  1  0  0  0  0
 47 46  1  0  0  0  0
 48 53  1  0  0  0  0
 49 50  1  0  0  0  0
 49 45  1  1  0  0  0
 50 54  1  1  0  0  0
 51 49  1  0  0  0  0
 55 48  2  0  0  0  0
 55 47  1  0  0  0  0
M  END
>  <MODEL>
9

>  <REMARK>
 VINA RESULT:      -6.2      4.064      6.517
  Name = 
  16 active torsions:
  status: ('A' for Active; 'I' for Inactive)
    1  A    between atoms: N_2  and  C_46
    2  A    between atoms: C_5  and  C_15
    3  A    between atoms: C_5  and  C_18
    4  A    between atoms: C_5  and  C_25
    5  A    between atoms: C_7  and  C_40
    6  A    between atoms: C_11  and  C_17
    7  A    between atoms: C_14  and  C_19
    8  A    between atoms: C_14  and  C_37
    9  A    between atoms: C_15  and  C_52
   10  A    between atoms: C_17  and  C_44
   11  A    between atoms: C_18  and  O_33
   12  A    between atoms: C_22  and  O_51
   13  A    between atoms: C_29  and  O_51
   14  A    between atoms: O_33  and  P_48
   15  A    between atoms: C_35  and  C_41
   16  A    between atoms: C_40  and  C_55
                            x       y       z     vdW  Elec       q    Type
                         _______ _______ _______ _____ _____    ______ ____

>  <TORSDO>
F 16

$$$$
