=
 OpenBabel11062419563D

 28 32  0  0  1  0  0  0  0  0999 V2000
  189.3620  174.4370  146.7040 C   0  0  0  0  0  3  0  0  0  0  0  0
  186.5230  178.5500  146.5170 C   0  0  1  0  0  3  0  0  0  0  0  0
  185.2780  178.2720  144.4420 C   0  0  2  0  0  0  0  0  0  0  0  0
  189.9580  174.6810  145.3480 C   0  0  0  0  0  2  0  0  0  0  0  0
  189.1140  175.5600  144.5360 N   0  0  0  0  0  0  0  0  0  0  0  0
  184.2610  178.3010  145.5670 C   0  0  0  0  0  3  0  0  0  0  0  0
  187.8180  177.7600  144.3650 C   0  0  0  0  0  2  0  0  0  0  0  0
  188.4790  175.2830  147.2320 C   0  0  0  0  0  3  0  0  0  0  0  0
  187.1110  177.3700  147.1450 N   0  0  0  0  0  2  0  0  0  0  0  0
  186.6140  178.4190  145.0160 C   0  0  2  0  0  0  0  0  0  0  0  0
  187.9940  176.4510  146.4800 C   0  0  0  0  0  0  0  0  0  0  0  0
  185.0350  178.6140  146.8460 C   0  0  0  0  0  3  0  0  0  0  0  0
  186.0220  179.4610  144.2720 O   0  0  0  0  0  0  0  0  0  0  0  0
  188.2970  176.5750  145.1670 C   0  0  0  0  0  0  0  0  0  0  0  0
  189.2510  174.1600  140.4900 C   0  0  0  0  0  0  0  0  0  0  0  0
  187.8920  174.7850  142.5360 C   0  0  0  0  0  2  0  0  0  0  0  0
  189.1830  175.3810  143.0860 C   0  0  2  0  0  3  0  0  0  0  0  0
  190.3590  174.1320  141.2450 C   0  0  0  0  0  3  0  0  0  0  0  0
  190.3770  174.5090  142.7000 C   0  0  0  0  0  2  0  0  0  0  0  0
  187.9570  174.7380  141.0110 C   0  0  0  0  0  2  0  0  0  0  0  0
  189.3210  173.7420  139.0790 C   0  0  0  0  0  0  0  0  0  0  0  0
  190.4060  173.3390  138.5800 O   0  0  0  0  0  1  0  0  0  0  0  0
  188.1820  173.7820  138.2840 O   0  0  0  0  0  0  0  0  0  0  0  0
  185.1110  177.4210  143.1920 C   0  0  0  0  0  2  0  0  0  0  0  0
  184.0920  178.0490  142.2570 C   0  0  0  0  0  2  0  0  0  0  0  0
  184.6820  178.2070  140.8640 C   0  0  0  0  0  2  0  0  0  0  0  0
  186.1840  177.9630  140.8700 C   0  0  0  0  0  2  0  0  0  0  0  0
  186.6180  177.6160  139.5900 O   0  0  0  0  0  1  0  0  0  0  0  0
  1  8  2  0  0  0  0
  2 12  1  6  0  0  0
  2  9  1  0  0  0  0
  3 24  1  6  0  0  0
  3 10  1  0  0  0  0
  3  6  1  0  0  0  0
  4  1  1  0  0  0  0
  5 14  1  0  0  0  0
  5  4  1  0  0  0  0
  6 12  2  0  0  0  0
  7 14  1  0  0  0  0
 10  7  1  6  0  0  0
 10  2  1  0  0  0  0
 11  9  1  0  0  0  0
 11  8  1  0  0  0  0
 13  3  1  0  0  0  0
 13 10  1  0  0  0  0
 14 11  2  0  0  0  0
 15 20  1  0  0  0  0
 15 18  2  0  0  0  0
 17 16  1  1  0  0  0
 17  5  1  0  0  0  0
 18 19  1  0  0  0  0
 19 17  1  0  0  0  0
 20 16  1  0  0  0  0
 21 15  1  0  0  0  0
 22 21  1  0  0  0  0
 23 21  2  0  0  0  0
 25 24  1  0  0  0  0
 26 27  1  0  0  0  0
 26 25  1  0  0  0  0
 28 27  1  0  0  0  0
M  END
>  <MODEL>
1

>  <REMARK>
 VINA RESULT:      -7.4      0.000      0.000
  Name = 
  6 active torsions:
  status: ('A' for Active; 'I' for Inactive)
    1  A    between atoms: C_2  and  C_7
    2  A    between atoms: C_4  and  C_13
    3  A    between atoms: C_5  and  C_12
    4  A    between atoms: N_11  and  C_20
    5  A    between atoms: C_12  and  C_24
    6  A    between atoms: C_13  and  C_24
                            x       y       z     vdW  Elec       q    Type
                         _______ _______ _______ _____ _____    ______ ____

>  <TORSDO>
F 6

$$$$
=
 OpenBabel11062419563D

 28 32  0  0  1  0  0  0  0  0999 V2000
  185.2900  176.9420  146.9350 C   0  0  0  0  0  3  0  0  0  0  0  0
  186.4550  178.6890  142.3960 C   0  0  1  0  0  3  0  0  0  0  0  0
  188.0540  177.0510  141.5640 C   0  0  2  0  0  0  0  0  0  0  0  0
  186.7230  176.8920  147.3800 C   0  0  0  0  0  2  0  0  0  0  0  0
  187.6420  176.8470  146.2410 N   0  0  0  0  0  0  0  0  0  0  0  0
  186.8610  177.0170  140.6290 C   0  0  0  0  0  3  0  0  0  0  0  0
  188.3680  177.8620  144.0050 C   0  0  0  0  0  2  0  0  0  0  0  0
  184.9590  177.3760  145.7200 C   0  0  0  0  0  3  0  0  0  0  0  0
  185.5550  178.3010  143.4780 N   0  0  0  0  0  2  0  0  0  0  0  0
  187.8030  178.0420  142.6070 C   0  0  2  0  0  0  0  0  0  0  0  0
  185.9860  177.7560  144.7370 C   0  0  0  0  0  0  0  0  0  0  0  0
  185.9270  178.1400  141.0740 C   0  0  0  0  0  3  0  0  0  0  0  0
  188.7600  178.2750  141.5970 O   0  0  0  0  0  0  0  0  0  0  0  0
  187.2870  177.4860  144.9900 C   0  0  0  0  0  0  0  0  0  0  0  0
  191.5980  175.2120  146.0580 C   0  0  0  0  0  0  0  0  0  0  0  0
  190.0700  177.1740  146.5530 C   0  0  0  0  0  2  0  0  0  0  0  0
  188.9230  176.1730  146.4550 C   0  0  2  0  0  3  0  0  0  0  0  0
  190.5910  174.6010  145.4170 C   0  0  0  0  0  3  0  0  0  0  0  0
  189.1970  175.1580  145.3460 C   0  0  0  0  0  2  0  0  0  0  0  0
  191.3620  176.4400  146.9060 C   0  0  0  0  0  2  0  0  0  0  0  0
  192.9410  174.6080  146.0490 C   0  0  0  0  0  0  0  0  0  0  0  0
  193.9410  175.2580  146.4570 O   0  0  0  0  0  1  0  0  0  0  0  0
  193.1170  173.3070  145.5940 O   0  0  0  0  0  0  0  0  0  0  0  0
  188.8720  175.8160  141.9130 C   0  0  0  0  0  2  0  0  0  0  0  0
  188.4340  174.6340  141.0680 C   0  0  0  0  0  2  0  0  0  0  0  0
  188.0050  173.4780  141.9590 C   0  0  0  0  0  2  0  0  0  0  0  0
  189.1600  172.5220  142.2160 C   0  0  0  0  0  2  0  0  0  0  0  0
  189.0140  171.9180  143.4650 O   0  0  0  0  0  1  0  0  0  0  0  0
  1  4  1  0  0  0  0
  2 12  1  6  0  0  0
  2 10  1  0  0  0  0
  2  9  1  0  0  0  0
  3 13  1  0  0  0  0
  3 24  1  1  0  0  0
  3 10  1  0  0  0  0
  5 17  1  0  0  0  0
  5  4  1  0  0  0  0
  6 12  2  0  0  0  0
  6  3  1  0  0  0  0
  7 14  1  0  0  0  0
  8  1  2  0  0  0  0
  9 11  1  0  0  0  0
 10  7  1  1  0  0  0
 11 14  2  0  0  0  0
 11  8  1  0  0  0  0
 13 10  1  0  0  0  0
 14  5  1  0  0  0  0
 15 20  1  0  0  0  0
 16 20  1  0  0  0  0
 17 19  1  6  0  0  0
 17 16  1  0  0  0  0
 18 15  2  0  0  0  0
 19 18  1  0  0  0  0
 21 15  1  0  0  0  0
 21 22  1  0  0  0  0
 23 21  2  0  0  0  0
 25 24  1  0  0  0  0
 25 26  1  0  0  0  0
 26 27  1  0  0  0  0
 27 28  1  0  0  0  0
M  END
>  <MODEL>
2

>  <REMARK>
 VINA RESULT:      -6.9      2.972      5.244
  Name = 
  6 active torsions:
  status: ('A' for Active; 'I' for Inactive)
    1  A    between atoms: C_2  and  C_7
    2  A    between atoms: C_4  and  C_13
    3  A    between atoms: C_5  and  C_12
    4  A    between atoms: N_11  and  C_20
    5  A    between atoms: C_12  and  C_24
    6  A    between atoms: C_13  and  C_24
                            x       y       z     vdW  Elec       q    Type
                         _______ _______ _______ _____ _____    ______ ____

>  <TORSDO>
F 6

$$$$
=
 OpenBabel11062419563D

 28 32  0  0  1  0  0  0  0  0999 V2000
  185.2110  178.3730  141.2540 C   0  0  0  0  0  3  0  0  0  0  0  0
  184.9760  177.3430  146.1430 C   0  0  1  0  0  3  0  0  0  0  0  0
  187.2700  177.6720  146.8910 C   0  0  2  0  0  0  0  0  0  0  0  0
  186.3070  177.3780  141.0080 C   0  0  0  0  0  2  0  0  0  0  0  0
  187.0370  177.0620  142.2370 N   0  0  0  0  0  0  0  0  0  0  0  0
  186.4150  178.6790  147.6340 C   0  0  0  0  0  3  0  0  0  0  0  0
  186.9320  176.3430  144.6910 C   0  0  0  0  0  2  0  0  0  0  0  0
  184.6900  178.5410  142.4690 C   0  0  0  0  0  3  0  0  0  0  0  0
  184.5480  177.9730  144.8970 N   0  0  0  0  0  2  0  0  0  0  0  0
  186.4090  176.8870  146.0100 C   0  0  2  0  0  0  0  0  0  0  0  0
  185.2170  177.8110  143.6340 C   0  0  0  0  0  0  0  0  0  0  0  0
  184.9640  178.3760  147.2650 C   0  0  0  0  0  3  0  0  0  0  0  0
  186.9810  176.3160  147.1660 O   0  0  0  0  0  0  0  0  0  0  0  0
  186.3630  177.1040  143.5190 C   0  0  0  0  0  0  0  0  0  0  0  0
  191.1320  175.8910  142.6990 C   0  0  0  0  0  0  0  0  0  0  0  0
  188.6800  175.2550  142.6060 C   0  0  0  0  0  2  0  0  0  0  0  0
  188.4390  176.6690  142.0870 C   0  0  2  0  0  3  0  0  0  0  0  0
  190.7840  177.1780  142.8430 C   0  0  0  0  0  3  0  0  0  0  0  0
  189.3610  177.6600  142.7970 C   0  0  0  0  0  2  0  0  0  0  0  0
  190.1200  174.8400  142.3110 C   0  0  0  0  0  2  0  0  0  0  0  0
  192.5510  175.5050  142.7910 C   0  0  0  0  0  0  0  0  0  0  0  0
  193.1070  175.3610  143.9130 O   0  0  0  0  0  1  0  0  0  0  0  0
  193.2900  175.2890  141.6340 O   0  0  0  0  0  0  0  0  0  0  0  0
  188.6980  177.9590  146.4490 C   0  0  0  0  0  2  0  0  0  0  0  0
  189.6790  177.1290  147.2580 C   0  0  0  0  0  2  0  0  0  0  0  0
  190.5990  176.3480  146.3320 C   0  0  0  0  0  2  0  0  0  0  0  0
  190.1230  174.9130  146.1640 C   0  0  0  0  0  2  0  0  0  0  0  0
  189.4400  174.4980  147.3070 O   0  0  0  0  0  1  0  0  0  0  0  0
  1  8  2  0  0  0  0
  2 12  1  1  0  0  0
  3 24  1  6  0  0  0
  3 13  1  0  0  0  0
  3  6  1  0  0  0  0
  4  1  1  0  0  0  0
  4  5  1  0  0  0  0
  5 14  1  0  0  0  0
  8 11  1  0  0  0  0
  9  2  1  0  0  0  0
 10  7  1  6  0  0  0
 10  2  1  0  0  0  0
 10  3  1  0  0  0  0
 10 13  1  0  0  0  0
 11  9  1  0  0  0  0
 12  6  2  0  0  0  0
 14 11  2  0  0  0  0
 14  7  1  0  0  0  0
 15 21  1  0  0  0  0
 15 18  2  0  0  0  0
 17  5  1  1  0  0  0
 17 16  1  0  0  0  0
 17 19  1  0  0  0  0
 19 18  1  0  0  0  0
 20 16  1  0  0  0  0
 20 15  1  0  0  0  0
 21 22  1  0  0  0  0
 23 21  2  0  0  0  0
 24 25  1  0  0  0  0
 26 25  1  0  0  0  0
 27 26  1  0  0  0  0
 27 28  1  0  0  0  0
M  END
>  <MODEL>
3

>  <REMARK>
 VINA RESULT:      -6.7      2.700      4.920
  Name = 
  6 active torsions:
  status: ('A' for Active; 'I' for Inactive)
    1  A    between atoms: C_2  and  C_7
    2  A    between atoms: C_4  and  C_13
    3  A    between atoms: C_5  and  C_12
    4  A    between atoms: N_11  and  C_20
    5  A    between atoms: C_12  and  C_24
    6  A    between atoms: C_13  and  C_24
                            x       y       z     vdW  Elec       q    Type
                         _______ _______ _______ _____ _____    ______ ____

>  <TORSDO>
F 6

$$$$
=
 OpenBabel11062419563D

 28 32  0  0  1  0  0  0  0  0999 V2000
  192.3320  176.7530  144.9970 C   0  0  0  0  0  3  0  0  0  0  0  0
  191.4190  172.1350  143.3070 C   0  0  1  0  0  3  0  0  0  0  0  0
  189.2860  172.3760  142.1580 C   0  0  2  0  0  0  0  0  0  0  0  0
  191.0170  176.8440  145.7150 C   0  0  0  0  0  2  0  0  0  0  0  0
  190.0370  175.9030  145.1710 N   0  0  0  0  0  0  0  0  0  0  0  0
  190.3020  171.9500  141.1160 C   0  0  0  0  0  3  0  0  0  0  0  0
  189.4980  173.4960  144.4850 C   0  0  0  0  0  2  0  0  0  0  0  0
  192.6780  175.6540  144.3260 C   0  0  0  0  0  3  0  0  0  0  0  0
  192.2290  173.3280  143.5390 N   0  0  0  0  0  2  0  0  0  0  0  0
  189.9570  172.4830  143.4510 C   0  0  2  0  0  0  0  0  0  0  0  0
  191.7560  174.5140  144.1990 C   0  0  0  0  0  0  0  0  0  0  0  0
  191.6020  171.6680  141.8670 C   0  0  0  0  0  3  0  0  0  0  0  0
  189.0490  171.4370  143.1880 O   0  0  0  0  0  0  0  0  0  0  0  0
  190.4710  174.6440  144.6000 C   0  0  0  0  0  0  0  0  0  0  0  0
  186.2280  177.6650  146.0320 C   0  0  0  0  0  0  0  0  0  0  0  0
  188.3800  177.6710  144.6930 C   0  0  0  0  0  2  0  0  0  0  0  0
  188.6290  176.2840  145.2780 C   0  0  2  0  0  3  0  0  0  0  0  0
  186.7850  176.8150  146.9070 C   0  0  0  0  0  3  0  0  0  0  0  0
  188.1590  176.2300  146.7320 C   0  0  0  0  0  2  0  0  0  0  0  0
  186.8830  177.9730  144.7070 C   0  0  0  0  0  2  0  0  0  0  0  0
  184.8880  178.2140  146.3010 C   0  0  0  0  0  0  0  0  0  0  0  0
  184.4980  178.4080  147.4840 O   0  0  0  0  0  1  0  0  0  0  0  0
  184.0400  178.5290  145.2470 O   0  0  0  0  0  0  0  0  0  0  0  0
  188.1300  173.3190  141.8560 C   0  0  0  0  0  2  0  0  0  0  0  0
  188.5740  174.4090  140.8960 C   0  0  0  0  0  2  0  0  0  0  0  0
  188.4880  175.7710  141.5690 C   0  0  0  0  0  2  0  0  0  0  0  0
  187.3720  176.6130  140.9680 C   0  0  0  0  0  2  0  0  0  0  0  0
  187.6180  177.9670  141.1970 O   0  0  0  0  0  1  0  0  0  0  0  0
  1  4  1  0  0  0  0
  2 12  1  6  0  0  0
  2 10  1  0  0  0  0
  2  9  1  0  0  0  0
  3 24  1  6  0  0  0
  3 13  1  0  0  0  0
  3 10  1  0  0  0  0
  5 17  1  0  0  0  0
  5  4  1  0  0  0  0
  6 12  2  0  0  0  0
  6  3  1  0  0  0  0
  7 14  1  0  0  0  0
  8  1  2  0  0  0  0
  9 11  1  0  0  0  0
 10  7  1  1  0  0  0
 11  8  1  0  0  0  0
 11 14  2  0  0  0  0
 13 10  1  0  0  0  0
 14  5  1  0  0  0  0
 15 21  1  0  0  0  0
 15 18  2  0  0  0  0
 16 20  1  0  0  0  0
 17 16  1  1  0  0  0
 17 19  1  0  0  0  0
 19 18  1  0  0  0  0
 20 15  1  0  0  0  0
 21 22  1  0  0  0  0
 23 21  2  0  0  0  0
 25 26  1  0  0  0  0
 25 24  1  0  0  0  0
 27 28  1  0  0  0  0
 27 26  1  0  0  0  0
M  END
>  <MODEL>
4

>  <REMARK>
 VINA RESULT:      -6.6      2.251      6.575
  Name = 
  6 active torsions:
  status: ('A' for Active; 'I' for Inactive)
    1  A    between atoms: C_2  and  C_7
    2  A    between atoms: C_4  and  C_13
    3  A    between atoms: C_5  and  C_12
    4  A    between atoms: N_11  and  C_20
    5  A    between atoms: C_12  and  C_24
    6  A    between atoms: C_13  and  C_24
                            x       y       z     vdW  Elec       q    Type
                         _______ _______ _______ _____ _____    ______ ____

>  <TORSDO>
F 6

$$$$
=
 OpenBabel11062419563D

 28 32  0  0  1  0  0  0  0  0999 V2000
  192.3680  176.2730  146.9250 C   0  0  0  0  0  3  0  0  0  0  0  0
  191.9780  171.9810  144.3860 C   0  0  1  0  0  3  0  0  0  0  0  0
  190.3920  172.5240  142.6180 C   0  0  2  0  0  0  0  0  0  0  0  0
  190.8870  176.3750  147.1510 C   0  0  0  0  0  2  0  0  0  0  0  0
  190.1350  175.5850  146.1750 N   0  0  0  0  0  0  0  0  0  0  0  0
  191.6980  172.1540  141.9410 C   0  0  0  0  0  3  0  0  0  0  0  0
  189.8040  173.3290  145.0100 C   0  0  0  0  0  2  0  0  0  0  0  0
  192.8960  175.2420  146.2650 C   0  0  0  0  0  3  0  0  0  0  0  0
  192.6880  173.0720  145.0490 N   0  0  0  0  0  2  0  0  0  0  0  0
  190.5690  172.4200  144.0650 C   0  0  2  0  0  0  0  0  0  0  0  0
  192.0460  174.2000  145.6670 C   0  0  0  0  0  0  0  0  0  0  0  0
  192.6430  171.6830  143.0450 C   0  0  0  0  0  3  0  0  0  0  0  0
  189.7820  171.4860  143.3590 O   0  0  0  0  0  0  0  0  0  0  0  0
  190.7070  174.3770  145.6160 C   0  0  0  0  0  0  0  0  0  0  0  0
  186.3760  177.6080  145.8120 C   0  0  0  0  0  0  0  0  0  0  0  0
  188.8270  177.4340  145.1900 C   0  0  0  0  0  2  0  0  0  0  0  0
  188.7900  176.0560  145.8440 C   0  0  2  0  0  3  0  0  0  0  0  0
  186.5820  176.7560  146.8270 C   0  0  0  0  0  3  0  0  0  0  0  0
  187.9000  176.0820  147.0860 C   0  0  0  0  0  2  0  0  0  0  0  0
  187.4210  177.8280  144.7440 C   0  0  0  0  0  2  0  0  0  0  0  0
  185.0590  178.2470  145.6530 C   0  0  0  0  0  0  0  0  0  0  0  0
  184.1040  177.9520  146.4220 O   0  0  0  0  0  1  0  0  0  0  0  0
  184.8590  179.1920  144.6540 O   0  0  0  0  0  0  0  0  0  0  0  0
  189.4440  173.5830  142.0740 C   0  0  0  0  0  2  0  0  0  0  0  0
  190.2250  174.7010  141.4070 C   0  0  0  0  0  2  0  0  0  0  0  0
  190.4050  175.8650  142.3690 C   0  0  0  0  0  2  0  0  0  0  0  0
  191.8770  176.1350  142.6390 C   0  0  0  0  0  2  0  0  0  0  0  0
  192.0160  177.2430  143.4760 O   0  0  0  0  0  1  0  0  0  0  0  0
  1  4  1  0  0  0  0
  2 12  1  6  0  0  0
  2  9  1  0  0  0  0
  3 24  1  6  0  0  0
  3 13  1  0  0  0  0
  3 10  1  0  0  0  0
  5  4  1  0  0  0  0
  6  3  1  0  0  0  0
  6 12  2  0  0  0  0
  7 14  1  0  0  0  0
  8  1  2  0  0  0  0
  9 11  1  0  0  0  0
 10  2  1  0  0  0  0
 10  7  1  1  0  0  0
 11  8  1  0  0  0  0
 13 10  1  0  0  0  0
 14 11  2  0  0  0  0
 14  5  1  0  0  0  0
 15 18  2  0  0  0  0
 17 16  1  1  0  0  0
 17  5  1  0  0  0  0
 17 19  1  0  0  0  0
 18 19  1  0  0  0  0
 20 16  1  0  0  0  0
 20 15  1  0  0  0  0
 21 15  1  0  0  0  0
 21 22  1  0  0  0  0
 23 21  2  0  0  0  0
 25 24  1  0  0  0  0
 25 26  1  0  0  0  0
 26 27  1  0  0  0  0
 27 28  1  0  0  0  0
M  END
>  <MODEL>
5

>  <REMARK>
 VINA RESULT:      -6.6      2.696      6.869
  Name = 
  6 active torsions:
  status: ('A' for Active; 'I' for Inactive)
    1  A    between atoms: C_2  and  C_7
    2  A    between atoms: C_4  and  C_13
    3  A    between atoms: C_5  and  C_12
    4  A    between atoms: N_11  and  C_20
    5  A    between atoms: C_12  and  C_24
    6  A    between atoms: C_13  and  C_24
                            x       y       z     vdW  Elec       q    Type
                         _______ _______ _______ _____ _____    ______ ____

>  <TORSDO>
F 6

$$$$
=
 OpenBabel11062419563D

 28 32  0  0  1  0  0  0  0  0999 V2000
  189.2460  173.7500  141.1220 C   0  0  0  0  0  3  0  0  0  0  0  0
  193.4000  175.1200  143.5460 C   0  0  1  0  0  3  0  0  0  0  0  0
  192.5450  176.0810  145.6140 C   0  0  2  0  0  0  0  0  0  0  0  0
  188.6410  175.1210  141.2030 C   0  0  0  0  0  2  0  0  0  0  0  0
  189.2320  175.9100  142.2860 N   0  0  0  0  0  0  0  0  0  0  0  0
  193.3890  174.8820  146.0000 C   0  0  0  0  0  3  0  0  0  0  0  0
  191.3580  176.7770  143.4180 C   0  0  0  0  0  2  0  0  0  0  0  0
  190.4520  173.4960  141.6270 C   0  0  0  0  0  3  0  0  0  0  0  0
  192.5430  174.2120  142.7890 N   0  0  0  0  0  2  0  0  0  0  0  0
  192.5570  176.2130  144.1590 C   0  0  2  0  0  0  0  0  0  0  0  0
  191.2110  174.5290  142.3500 C   0  0  0  0  0  0  0  0  0  0  0  0
  194.0320  174.3690  144.7130 C   0  0  0  0  0  3  0  0  0  0  0  0
  193.2460  177.1310  144.9790 O   0  0  0  0  0  0  0  0  0  0  0  0
  190.6100  175.6950  142.6770 C   0  0  0  0  0  0  0  0  0  0  0  0
  186.0750  178.4680  143.6400 C   0  0  0  0  0  0  0  0  0  0  0  0
  187.3870  176.3130  143.8760 C   0  0  0  0  0  2  0  0  0  0  0  0
  188.3800  176.9300  142.8970 C   0  0  2  0  0  3  0  0  0  0  0  0
  186.6030  178.6460  142.4200 C   0  0  0  0  0  3  0  0  0  0  0  0
  187.6420  177.7350  141.8290 C   0  0  0  0  0  2  0  0  0  0  0  0
  186.6110  177.4200  144.5860 C   0  0  0  0  0  2  0  0  0  0  0  0
  185.0370  179.3940  144.1270 C   0  0  0  0  0  0  0  0  0  0  0  0
  183.8960  178.9680  144.4520 O   0  0  0  0  0  1  0  0  0  0  0  0
  185.3120  180.7520  144.2390 O   0  0  0  0  0  0  0  0  0  0  0  0
  191.2930  176.4960  146.3730 C   0  0  0  0  0  2  0  0  0  0  0  0
  190.9930  175.5040  147.4820 C   0  0  0  0  0  2  0  0  0  0  0  0
  189.6250  174.8730  147.2690 C   0  0  0  0  0  2  0  0  0  0  0  0
  189.4370  174.4380  145.8230 C   0  0  0  0  0  2  0  0  0  0  0  0
  190.2350  173.3270  145.5500 O   0  0  0  0  0  1  0  0  0  0  0  0
  1  4  1  0  0  0  0
  1  8  2  0  0  0  0
  2 10  1  0  0  0  0
  2 12  1  1  0  0  0
  3  6  1  0  0  0  0
  3 24  1  1  0  0  0
  4  5  1  0  0  0  0
  5 14  1  0  0  0  0
  5 17  1  0  0  0  0
  8 11  1  0  0  0  0
  9  2  1  0  0  0  0
 10  7  1  6  0  0  0
 10 13  1  0  0  0  0
 10  3  1  0  0  0  0
 11 14  2  0  0  0  0
 11  9  1  0  0  0  0
 12  6  2  0  0  0  0
 13  3  1  0  0  0  0
 14  7  1  0  0  0  0
 15 21  1  0  0  0  0
 15 20  1  0  0  0  0
 16 20  1  0  0  0  0
 17 19  1  6  0  0  0
 17 16  1  0  0  0  0
 18 15  2  0  0  0  0
 19 18  1  0  0  0  0
 21 23  2  0  0  0  0
 21 22  1  0  0  0  0
 24 25  1  0  0  0  0
 26 25  1  0  0  0  0
 27 26  1  0  0  0  0
 28 27  1  0  0  0  0
M  END
>  <MODEL>
6

>  <REMARK>
 VINA RESULT:      -6.6      2.912      6.959
  Name = 
  6 active torsions:
  status: ('A' for Active; 'I' for Inactive)
    1  A    between atoms: C_2  and  C_7
    2  A    between atoms: C_4  and  C_13
    3  A    between atoms: C_5  and  C_12
    4  A    between atoms: N_11  and  C_20
    5  A    between atoms: C_12  and  C_24
    6  A    between atoms: C_13  and  C_24
                            x       y       z     vdW  Elec       q    Type
                         _______ _______ _______ _____ _____    ______ ____

>  <TORSDO>
F 6

$$$$
=
 OpenBabel11062419563D

 28 32  0  0  1  0  0  0  0  0999 V2000
  189.8050  174.9160  147.6320 C   0  0  0  0  0  3  0  0  0  0  0  0
  186.5540  177.6360  144.9770 C   0  0  1  0  0  3  0  0  0  0  0  0
  187.3560  177.3840  142.6910 C   0  0  2  0  0  0  0  0  0  0  0  0
  190.9960  175.6520  147.0930 C   0  0  0  0  0  2  0  0  0  0  0  0
  190.6930  176.3160  145.8240 N   0  0  0  0  0  0  0  0  0  0  0  0
  185.9620  176.7910  142.7370 C   0  0  0  0  0  3  0  0  0  0  0  0
  189.1360  177.8680  144.5130 C   0  0  0  0  0  2  0  0  0  0  0  0
  188.5660  175.2410  147.2630 C   0  0  0  0  0  3  0  0  0  0  0  0
  186.9550  176.6460  145.9730 N   0  0  0  0  0  2  0  0  0  0  0  0
  187.6980  177.8800  144.0220 C   0  0  2  0  0  0  0  0  0  0  0  0
  188.3180  176.2850  146.2560 C   0  0  0  0  0  0  0  0  0  0  0  0
  185.4130  177.0760  144.1340 C   0  0  0  0  0  3  0  0  0  0  0  0
  187.4310  178.7700  142.9610 O   0  0  0  0  0  0  0  0  0  0  0  0
  189.3530  176.7960  145.5520 C   0  0  0  0  0  0  0  0  0  0  0  0
  194.2160  176.0410  143.4020 C   0  0  0  0  0  0  0  0  0  0  0  0
  191.7770  175.4620  143.7760 C   0  0  0  0  0  2  0  0  0  0  0  0
  191.8070  176.4990  144.8940 C   0  0  2  0  0  3  0  0  0  0  0  0
  194.3140  176.4190  144.6860 C   0  0  0  0  0  3  0  0  0  0  0  0
  193.1450  176.4460  145.6310 C   0  0  0  0  0  2  0  0  0  0  0  0
  192.8760  175.7680  142.7620 C   0  0  0  0  0  2  0  0  0  0  0  0
  195.4210  176.0150  142.5560 C   0  0  0  0  0  0  0  0  0  0  0  0
  195.4210  175.4000  141.4560 O   0  0  0  0  0  0  0  0  0  0  0  0
  196.5730  176.6760  142.9640 O   0  0  0  0  0  1  0  0  0  0  0  0
  188.4680  176.8280  141.8130 C   0  0  0  0  0  2  0  0  0  0  0  0
  188.1490  175.4050  141.3920 C   0  0  0  0  0  2  0  0  0  0  0  0
  188.5950  174.4250  142.4670 C   0  0  0  0  0  2  0  0  0  0  0  0
  188.4500  172.9860  141.9950 C   0  0  0  0  0  2  0  0  0  0  0  0
  188.9410  172.1120  142.9650 O   0  0  0  0  0  1  0  0  0  0  0  0
  2 12  1  6  0  0  0
  2  9  1  0  0  0  0
  3 24  1  6  0  0  0
  3  6  1  0  0  0  0
  3 13  1  0  0  0  0
  3 10  1  0  0  0  0
  4  1  1  0  0  0  0
  5  4  1  0  0  0  0
  6 12  2  0  0  0  0
  7 14  1  0  0  0  0
  8  1  2  0  0  0  0
  9 11  1  0  0  0  0
 10  7  1  1  0  0  0
 10  2  1  0  0  0  0
 11  8  1  0  0  0  0
 13 10  1  0  0  0  0
 14  5  1  0  0  0  0
 14 11  2  0  0  0  0
 15 18  2  0  0  0  0
 17 16  1  6  0  0  0
 17 19  1  0  0  0  0
 17  5  1  0  0  0  0
 18 19  1  0  0  0  0
 20 15  1  0  0  0  0
 20 16  1  0  0  0  0
 21 23  1  0  0  0  0
 21 15  1  0  0  0  0
 22 21  2  0  0  0  0
 25 24  1  0  0  0  0
 25 26  1  0  0  0  0
 27 26  1  0  0  0  0
 27 28  1  0  0  0  0
M  END
>  <MODEL>
7

>  <REMARK>
 VINA RESULT:      -6.6      3.072      4.410
  Name = 
  6 active torsions:
  status: ('A' for Active; 'I' for Inactive)
    1  A    between atoms: C_2  and  C_7
    2  A    between atoms: C_4  and  C_13
    3  A    between atoms: C_5  and  C_12
    4  A    between atoms: N_11  and  C_20
    5  A    between atoms: C_12  and  C_24
    6  A    between atoms: C_13  and  C_24
                            x       y       z     vdW  Elec       q    Type
                         _______ _______ _______ _____ _____    ______ ____

>  <TORSDO>
F 6

$$$$
=
 OpenBabel11062419563D

 28 32  0  0  1  0  0  0  0  0999 V2000
  191.8610  176.7810  147.5050 C   0  0  0  0  0  3  0  0  0  0  0  0
  192.4710  172.7210  144.6490 C   0  0  1  0  0  3  0  0  0  0  0  0
  191.1610  173.2380  142.6620 C   0  0  2  0  0  0  0  0  0  0  0  0
  190.3630  176.6930  147.4620 C   0  0  0  0  0  2  0  0  0  0  0  0
  189.8990  175.9150  146.3120 N   0  0  0  0  0  0  0  0  0  0  0  0
  192.6000  173.0810  142.2120 C   0  0  0  0  0  3  0  0  0  0  0  0
  190.0670  173.7510  144.9550 C   0  0  0  0  0  2  0  0  0  0  0  0
  192.6230  175.8810  146.8840 C   0  0  0  0  0  3  0  0  0  0  0  0
  192.9090  173.8200  145.5040 N   0  0  0  0  0  2  0  0  0  0  0  0
  191.0950  173.0240  144.1050 C   0  0  2  0  0  0  0  0  0  0  0  0
  192.0310  174.8080  146.0700 C   0  0  0  0  0  0  0  0  0  0  0  0
  193.3910  172.6230  143.4360 C   0  0  0  0  0  3  0  0  0  0  0  0
  190.5690  172.0740  143.2040 O   0  0  0  0  0  0  0  0  0  0  0  0
  190.7090  174.8350  145.7860 C   0  0  0  0  0  0  0  0  0  0  0  0
  186.1340  177.6590  145.2450 C   0  0  0  0  0  0  0  0  0  0  0  0
  188.6440  177.5200  144.9160 C   0  0  0  0  0  2  0  0  0  0  0  0
  188.5830  176.2590  145.7730 C   0  0  2  0  0  3  0  0  0  0  0  0
  186.2570  176.9850  146.3990 C   0  0  0  0  0  3  0  0  0  0  0  0
  187.5620  176.4290  146.8960 C   0  0  0  0  0  2  0  0  0  0  0  0
  187.2820  177.7660  144.2700 C   0  0  0  0  0  2  0  0  0  0  0  0
  184.8210  178.1960  144.8520 C   0  0  0  0  0  0  0  0  0  0  0  0
  184.0600  178.7260  145.7060 O   0  0  0  0  0  1  0  0  0  0  0  0
  184.4100  178.1300  143.5260 O   0  0  0  0  0  0  0  0  0  0  0  0
  190.1940  174.2270  142.0260 C   0  0  0  0  0  2  0  0  0  0  0  0
  189.4750  173.5850  140.8530 C   0  0  0  0  0  2  0  0  0  0  0  0
  188.4460  174.5450  140.2760 C   0  0  0  0  0  2  0  0  0  0  0  0
  188.1700  175.6970  141.2310 C   0  0  0  0  0  2  0  0  0  0  0  0
  187.2080  176.5490  140.6890 O   0  0  0  0  0  1  0  0  0  0  0  0
  2 12  1  6  0  0  0
  2  9  1  0  0  0  0
  3 24  1  6  0  0  0
  3 13  1  0  0  0  0
  3 10  1  0  0  0  0
  4  1  1  0  0  0  0
  5  4  1  0  0  0  0
  6  3  1  0  0  0  0
  6 12  2  0  0  0  0
  7 14  1  0  0  0  0
  8  1  2  0  0  0  0
  9 11  1  0  0  0  0
 10  2  1  0  0  0  0
 10  7  1  1  0  0  0
 11  8  1  0  0  0  0
 13 10  1  0  0  0  0
 14 11  2  0  0  0  0
 14  5  1  0  0  0  0
 15 18  2  0  0  0  0
 17 16  1  1  0  0  0
 17  5  1  0  0  0  0
 17 19  1  0  0  0  0
 18 19  1  0  0  0  0
 20 16  1  0  0  0  0
 20 15  1  0  0  0  0
 21 15  1  0  0  0  0
 21 22  1  0  0  0  0
 23 21  2  0  0  0  0
 25 24  1  0  0  0  0
 26 25  1  0  0  0  0
 26 27  1  0  0  0  0
 28 27  1  0  0  0  0
M  END
>  <MODEL>
8

>  <REMARK>
 VINA RESULT:      -6.5      2.249      6.489
  Name = 
  6 active torsions:
  status: ('A' for Active; 'I' for Inactive)
    1  A    between atoms: C_2  and  C_7
    2  A    between atoms: C_4  and  C_13
    3  A    between atoms: C_5  and  C_12
    4  A    between atoms: N_11  and  C_20
    5  A    between atoms: C_12  and  C_24
    6  A    between atoms: C_13  and  C_24
                            x       y       z     vdW  Elec       q    Type
                         _______ _______ _______ _____ _____    ______ ____

>  <TORSDO>
F 6

$$$$
=
 OpenBabel11062419563D

 28 32  0  0  1  0  0  0  0  0999 V2000
  191.9390  176.4690  147.0610 C   0  0  0  0  0  3  0  0  0  0  0  0
  191.9590  172.2960  144.3050 C   0  0  1  0  0  3  0  0  0  0  0  0
  190.4630  172.8400  142.4620 C   0  0  2  0  0  0  0  0  0  0  0  0
  190.4430  176.4800  147.1910 C   0  0  0  0  0  2  0  0  0  0  0  0
  189.8020  175.7000  146.1310 N   0  0  0  0  0  0  0  0  0  0  0  0
  191.8280  172.5750  141.8580 C   0  0  0  0  0  3  0  0  0  0  0  0
  189.6760  173.4910  144.8440 C   0  0  0  0  0  2  0  0  0  0  0  0
  192.5660  175.5030  146.3910 C   0  0  0  0  0  3  0  0  0  0  0  0
  192.5610  173.3880  145.0640 N   0  0  0  0  0  2  0  0  0  0  0  0
  190.5510  172.6730  143.9100 C   0  0  2  0  0  0  0  0  0  0  0  0
  191.8180  174.4480  145.6890 C   0  0  0  0  0  0  0  0  0  0  0  0
  192.7250  172.1020  142.9990 C   0  0  0  0  0  3  0  0  0  0  0  0
  189.8660  171.7350  143.1110 O   0  0  0  0  0  0  0  0  0  0  0  0
  190.4760  174.5540  145.5560 C   0  0  0  0  0  0  0  0  0  0  0  0
  186.0300  177.6280  145.4880 C   0  0  0  0  0  0  0  0  0  0  0  0
  188.4890  177.4010  144.9130 C   0  0  0  0  0  2  0  0  0  0  0  0
  188.4560  176.1150  145.7330 C   0  0  2  0  0  3  0  0  0  0  0  0
  186.2340  176.9110  146.6030 C   0  0  0  0  0  3  0  0  0  0  0  0
  187.5550  176.2860  146.9550 C   0  0  0  0  0  2  0  0  0  0  0  0
  187.0830  177.7230  144.4100 C   0  0  0  0  0  2  0  0  0  0  0  0
  184.7090  178.2310  145.2400 C   0  0  0  0  0  0  0  0  0  0  0  0
  184.0020  178.6460  146.1970 O   0  0  0  0  0  1  0  0  0  0  0  0
  184.2330  178.3530  143.9410 O   0  0  0  0  0  0  0  0  0  0  0  0
  189.4920  173.8720  141.9050 C   0  0  0  0  0  2  0  0  0  0  0  0
  188.2700  173.1870  141.3210 C   0  0  0  0  0  2  0  0  0  0  0  0
  188.5560  172.7140  139.9040 C   0  0  0  0  0  2  0  0  0  0  0  0
  189.0700  173.8530  139.0360 C   0  0  0  0  0  2  0  0  0  0  0  0
  187.9990  174.5610  138.4910 O   0  0  0  0  0  1  0  0  0  0  0  0
  1  4  1  0  0  0  0
  2 12  1  6  0  0  0
  2  9  1  0  0  0  0
  3 24  1  6  0  0  0
  3 13  1  0  0  0  0
  3 10  1  0  0  0  0
  5  4  1  0  0  0  0
  6  3  1  0  0  0  0
  6 12  2  0  0  0  0
  7 14  1  0  0  0  0
  8  1  2  0  0  0  0
  9 11  1  0  0  0  0
 10  2  1  0  0  0  0
 10  7  1  1  0  0  0
 11  8  1  0  0  0  0
 13 10  1  0  0  0  0
 14 11  2  0  0  0  0
 14  5  1  0  0  0  0
 15 18  2  0  0  0  0
 17 16  1  1  0  0  0
 17  5  1  0  0  0  0
 17 19  1  0  0  0  0
 18 19  1  0  0  0  0
 20 16  1  0  0  0  0
 20 15  1  0  0  0  0
 21 15  1  0  0  0  0
 21 22  1  0  0  0  0
 23 21  2  0  0  0  0
 25 24  1  0  0  0  0
 26 25  1  0  0  0  0
 27 26  1  0  0  0  0
 28 27  1  0  0  0  0
M  END
>  <MODEL>
9

>  <REMARK>
 VINA RESULT:      -6.5      2.184      6.622
  Name = 
  6 active torsions:
  status: ('A' for Active; 'I' for Inactive)
    1  A    between atoms: C_2  and  C_7
    2  A    between atoms: C_4  and  C_13
    3  A    between atoms: C_5  and  C_12
    4  A    between atoms: N_11  and  C_20
    5  A    between atoms: C_12  and  C_24
    6  A    between atoms: C_13  and  C_24
                            x       y       z     vdW  Elec       q    Type
                         _______ _______ _______ _____ _____    ______ ____

>  <TORSDO>
F 6

$$$$
