=
 OpenBabel11072409093D

 57 61  0  0  1  0  0  0  0  0999 V2000
  189.5770  175.4490  144.4570 C   0  0  0  0  0  3  0  0  0  0  0  0
  190.2120  174.4810  143.8560 C   0  0  0  0  0  0  0  0  0  0  0  0
  193.6840  175.2230  141.7430 C   0  0  1  0  0  3  0  0  0  0  0  0
  191.9480  173.9800  142.2590 C   0  0  2  0  0  3  0  0  0  0  0  0
  194.1380  173.8100  141.4110 C   0  0  1  0  0  3  0  0  0  0  0  0
  194.7920  171.9170  143.4380 C   0  0  0  0  0  1  0  0  0  0  0  0
  189.0430  172.0270  143.0290 N   0  0  0  0  0  2  0  0  0  0  0  0
  191.1760  171.0460  143.1190 N   0  0  0  0  0  2  0  0  0  0  0  0
  192.9780  172.9380  141.8470 C   0  0  1  0  0  3  0  0  0  0  0  0
  193.3760  171.9850  142.9590 C   0  0  0  0  0  0  0  0  0  0  0  0
  192.5480  171.0970  143.4200 N   0  0  0  0  0  0  0  0  0  0  0  0
  192.6350  175.1330  142.6660 O   0  0  0  0  0  0  0  0  0  0  0  0
  190.3240  172.1950  143.1070 C   0  0  0  0  0  0  0  0  0  0  0  0
  190.8870  173.5500  143.2320 C   0  0  0  0  0  0  0  0  0  0  0  0
  189.1990  176.6700  143.6960 C   0  0  2  0  0  3  0  0  0  0  0  0
  189.3180  177.7920  144.5030 F   0  0  0  0  0  0  0  0  0  0  0  0
  187.7700  176.5510  143.2040 C   0  0  0  0  0  2  0  0  0  0  0  0
  186.8540  177.4040  144.0940 C   0  0  1  0  0  3  0  0  0  0  0  0
  186.4080  178.5890  141.6750 O   0  0  0  0  0  0  0  0  0  0  0  0
  185.6810  179.9890  143.7510 O   0  0  0  0  0  1  0  0  0  0  0  0
  185.7950  178.4560  143.0520 P   0  0  2  0  0  0  0  0  0  0  0  0
  184.2390  177.7900  142.9480 O   0  0  0  0  0  0  0  0  0  0  0  0
  183.5530  178.5550  142.0000 C   0  0  0  0  0  2  0  0  0  0  0  0
  182.1090  178.0810  141.8830 C   0  0  0  0  0  2  0  0  0  0  0  0
  181.5860  178.2290  140.4590 C   0  0  0  0  0  2  0  0  0  0  0  0
  178.1120  178.6770  139.4300 C   0  0  0  0  0  1  0  0  0  0  0  0
  179.2370  177.8930  139.9110 N   0  0  0  0  0  0  0  0  0  0  0  0
  180.2010  178.8570  140.4590 C   0  0  1  0  0  3  0  0  0  0  0  0
  179.3190  178.1220  141.3600 C   0  0  0  0  0  2  0  0  0  0  0  0
  186.6420  176.7270  146.4480 C   0  0  0  0  0  2  0  0  0  0  0  0
  185.5540  177.6510  146.1220 C   0  0  0  0  0  2  0  0  0  0  0  0
  186.0320  176.6990  145.1050 N   0  0  0  0  0  0  0  0  0  0  0  0
  194.8240  176.0460  142.3270 C   0  0  0  0  0  2  0  0  0  0  0  0
  195.5190  175.2840  143.4450 C   0  0  0  0  0  2  0  0  0  0  0  0
  195.0970  175.8340  144.7980 C   0  0  0  0  0  2  0  0  0  0  0  0
  194.8300  174.6890  145.7560 C   0  0  0  0  0  2  0  0  0  0  0  0
  193.3430  174.5710  146.0450 C   0  0  0  0  0  2  0  0  0  0  0  0
  192.7830  175.8670  146.6180 C   0  0  0  0  0  2  0  0  0  0  0  0
  191.6130  175.5970  147.5560 C   0  0  0  0  0  2  0  0  0  0  0  0
  191.5880  177.5610  149.1030 O   0  0  0  0  0  1  0  0  0  0  0  0
  190.0190  177.3730  147.4410 O   0  0  0  0  0  0  0  0  0  0  0  0
  191.0180  176.8820  148.0320 C   0  0  0  0  0  0  0  0  0  0  0  0
  194.3520  173.6890  140.0340 O   0  0  0  0  0  0  0  0  0  0  0  0
  193.5570  174.6830  139.4510 C   0  0  0  0  0  2  0  0  0  0  0  0
  192.9970  174.2110  138.2610 O   0  0  0  0  0  0  0  0  0  0  0  0
  191.7960  173.7420  138.6280 O   0  0  0  0  0  0  0  0  0  0  0  0
  191.7990  170.1490  137.8390 C   0  0  1  0  0  3  0  0  0  0  0  0
  190.0330  170.1500  138.2980 S   0  0  0  0  0  0  0  0  0  0  0  0
  191.4220  172.4270  138.3660 C   0  0  0  0  0  0  0  0  0  0  0  0
  190.0050  171.9710  138.3860 C   0  0  1  0  0  3  0  0  0  0  0  0
  192.3300  171.5140  138.0850 C   0  0  0  0  0  3  0  0  0  0  0  0
  189.2850  172.5270  137.1990 C   0  0  0  0  0  3  0  0  0  0  0  0
  189.8290  172.5700  136.1090 O   0  0  0  0  0  0  0  0  0  0  0  0
  192.5800  169.0950  138.6220 C   0  0  0  0  0  2  0  0  0  0  0  0
  192.1260  168.3850  140.8150 C   0  0  0  0  0  1  0  0  0  0  0  0
  192.7100  169.4570  140.0300 N   0  0  0  0  0  0  0  0  0  0  0  0
  194.1320  169.4740  140.3330 C   0  0  0  0  0  1  0  0  0  0  0  0
  2  1  2  0  0  0  0
  3 33  1  1  0  0  0
  3 12  1  0  0  0  0
  4 12  1  1  0  0  0
  4 14  1  0  0  0  0
  5 43  1  6  0  0  0
  5  3  1  0  0  0  0
  5  9  1  0  0  0  0
  7 13  2  0  0  0  0
  8 11  1  0  0  0  0
  9  4  1  0  0  0  0
  9 10  1  1  0  0  0
 10 11  2  0  0  0  0
 10  6  1  0  0  0  0
 13  8  1  0  0  0  0
 13 14  1  0  0  0  0
 14  2  2  0  0  0  0
 15  1  1  0  0  0  0
 15 16  1  1  0  0  0
 17 15  1  0  0  0  0
 18 17  1  6  0  0  0
 18 32  1  0  0  0  0
 21 19  2  6  0  0  0
 21 20  1  0  0  0  0
 21 18  1  0  0  0  0
 22 21  1  0  0  0  0
 23 22  1  0  0  0  0
 24 23  1  0  0  0  0
 25 24  1  0  0  0  0
 26 27  1  0  0  0  0
 27 28  1  0  0  0  0
 27 29  1  0  0  0  0
 28 25  1  1  0  0  0
 28 29  1  0  0  0  0
 31 30  1  0  0  0  0
 32 31  1  0  0  0  0
 32 30  1  0  0  0  0
 33 34  1  0  0  0  0
 34 35  1  0  0  0  0
 35 36  1  0  0  0  0
 36 37  1  0  0  0  0
 37 38  1  0  0  0  0
 38 39  1  0  0  0  0
 39 42  1  0  0  0  0
 41 42  2  0  0  0  0
 42 40  1  0  0  0  0
 44 43  1  0  0  0  0
 45 46  1  0  0  0  0
 45 44  1  0  0  0  0
 47 51  1  0  0  0  0
 47 48  1  0  0  0  0
 47 54  1  1  0  0  0
 48 50  1  0  0  0  0
 49 50  1  0  0  0  0
 49 46  1  0  0  0  0
 50 52  1  6  0  0  0
 51 49  2  0  0  0  0
 53 52  2  0  0  0  0
 54 56  1  0  0  0  0
 56 57  1  0  0  0  0
 56 55  1  0  0  0  0
M  END
>  <MODEL>
1

>  <REMARK>
 VINA RESULT:      -5.6      0.000      0.000
  Name = 
  26 active torsions:
  status: ('A' for Active; 'I' for Inactive)
    1  A    between atoms: C_2  and  C_40
    2  A    between atoms: O_4  and  O_7
    3  A    between atoms: O_4  and  C_31
    4  A    between atoms: N_5  and  C_48
    5  A    between atoms: O_7  and  C_29
    6  A    between atoms: C_8  and  C_10
    7  A    between atoms: C_8  and  C_32
    8  A    between atoms: C_9  and  C_28
    9  A    between atoms: C_10  and  C_27
   10  A    between atoms: C_11  and  P_45
   11  A    between atoms: C_11  and  N_46
   12  A    between atoms: C_11  and  C_49
   13  A    between atoms: C_15  and  C_48
   14  A    between atoms: C_17  and  C_26
   15  A    between atoms: C_17  and  C_36
   16  A    between atoms: O_18  and  C_26
   17  A    between atoms: O_18  and  P_45
   18  A    between atoms: C_21  and  C_32
   19  A    between atoms: C_24  and  O_30
   20  A    between atoms: C_27  and  C_52
   21  A    between atoms: C_28  and  C_49
   22  A    between atoms: C_29  and  O_30
   23  A    between atoms: C_36  and  C_44
   24  A    between atoms: C_41  and  C_42
   25  A    between atoms: C_42  and  C_43
   26  A    between atoms: C_43  and  C_52
                            x       y       z     vdW  Elec       q    Type
                         _______ _______ _______ _____ _____    ______ ____

>  <TORSDO>
F 26

$$$$
=
 OpenBabel11072409093D

 57 61  0  0  1  0  0  0  0  0999 V2000
  189.6750  172.3330  145.3990 C   0  0  0  0  0  3  0  0  0  0  0  0
  189.6890  173.6150  145.6410 C   0  0  0  0  0  0  0  0  0  0  0  0
  188.5650  176.3260  142.7330 C   0  0  1  0  0  3  0  0  0  0  0  0
  189.5550  175.7960  144.6200 C   0  0  2  0  0  3  0  0  0  0  0  0
  188.5570  177.6250  143.5240 C   0  0  1  0  0  3  0  0  0  0  0  0
  186.8210  178.0290  145.7470 C   0  0  0  0  0  1  0  0  0  0  0  0
  191.2670  174.8830  147.6340 N   0  0  0  0  0  2  0  0  0  0  0  0
  189.7220  176.6530  147.6510 N   0  0  0  0  0  2  0  0  0  0  0  0
  189.1590  177.2460  144.8620 C   0  0  1  0  0  3  0  0  0  0  0  0
  188.1710  177.4380  145.9990 C   0  0  0  0  0  0  0  0  0  0  0  0
  188.5160  177.2460  147.2360 N   0  0  0  0  0  0  0  0  0  0  0  0
  188.7020  175.2690  143.6410 O   0  0  0  0  0  0  0  0  0  0  0  0
  190.2730  175.4750  147.0540 C   0  0  0  0  0  0  0  0  0  0  0  0
  189.6880  174.9100  145.8270 C   0  0  0  0  0  0  0  0  0  0  0  0
  190.3890  171.7970  144.2090 C   0  0  2  0  0  3  0  0  0  0  0  0
  191.3480  170.8760  144.6020 F   0  0  0  0  0  0  0  0  0  0  0  0
  191.0570  172.9300  143.4540 C   0  0  0  0  0  2  0  0  0  0  0  0
  191.9260  172.3480  142.3300 C   0  0  1  0  0  3  0  0  0  0  0  0
  191.1950  171.3590  139.8920 O   0  0  0  0  0  0  0  0  0  0  0  0
  191.9070  173.8670  139.9070 O   0  0  0  0  0  1  0  0  0  0  0  0
  191.1130  172.6210  140.7240 P   0  0  2  0  0  0  0  0  0  0  0  0
  189.4960  173.0720  140.9620 O   0  0  0  0  0  0  0  0  0  0  0  0
  188.8540  172.8730  139.7360 C   0  0  0  0  0  2  0  0  0  0  0  0
  188.4450  174.2100  139.1300 C   0  0  0  0  0  2  0  0  0  0  0  0
  188.4560  174.1610  137.6070 C   0  0  0  0  0  2  0  0  0  0  0  0
  189.8060  171.7840  135.1870 C   0  0  0  0  0  1  0  0  0  0  0  0
  189.4670  173.1180  135.6520 N   0  0  0  0  0  0  0  0  0  0  0  0
  189.3280  173.0180  137.1120 C   0  0  1  0  0  3  0  0  0  0  0  0
  190.5610  173.5460  136.5350 C   0  0  0  0  0  2  0  0  0  0  0  0
  194.2330  171.9240  143.0640 C   0  0  0  0  0  2  0  0  0  0  0  0
  194.1590  171.7460  141.6120 C   0  0  0  0  0  2  0  0  0  0  0  0
  193.3410  172.7830  142.2640 N   0  0  0  0  0  0  0  0  0  0  0  0
  187.2840  176.1620  141.9280 C   0  0  0  0  0  2  0  0  0  0  0  0
  186.4630  177.4430  141.9570 C   0  0  0  0  0  2  0  0  0  0  0  0
  185.2020  177.2420  142.7820 C   0  0  0  0  0  2  0  0  0  0  0  0
  184.1410  178.2330  142.3460 C   0  0  0  0  0  2  0  0  0  0  0  0
  183.9410  178.1720  140.8400 C   0  0  0  0  0  2  0  0  0  0  0  0
  182.4620  178.1960  140.4740 C   0  0  0  0  0  2  0  0  0  0  0  0
  181.5890  178.3680  141.7110 C   0  0  0  0  0  2  0  0  0  0  0  0
  179.2600  179.1570  142.1620 O   0  0  0  0  0  1  0  0  0  0  0  0
  180.5090  180.1190  140.4970 O   0  0  0  0  0  0  0  0  0  0  0  0
  180.4250  179.2550  141.4090 C   0  0  0  0  0  0  0  0  0  0  0  0
  189.3520  178.5800  142.8820 O   0  0  0  0  0  0  0  0  0  0  0  0
  190.2850  177.8430  142.1430 C   0  0  0  0  0  2  0  0  0  0  0  0
  191.5280  177.8670  142.7820 O   0  0  0  0  0  0  0  0  0  0  0  0
  192.0060  176.6260  142.6120 O   0  0  0  0  0  0  0  0  0  0  0  0
  195.5300  175.7020  142.0940 C   0  0  1  0  0  3  0  0  0  0  0  0
  195.8280  176.2910  143.7950 S   0  0  0  0  0  0  0  0  0  0  0  0
  193.3580  176.3420  142.7890 C   0  0  0  0  0  0  0  0  0  0  0  0
  194.0390  176.4510  144.1080 C   0  0  1  0  0  3  0  0  0  0  0  0
  194.1030  175.9590  141.7710 C   0  0  0  0  0  3  0  0  0  0  0  0
  193.5770  175.3430  145.0000 C   0  0  0  0  0  3  0  0  0  0  0  0
  194.1060  175.1590  146.0830 O   0  0  0  0  0  0  0  0  0  0  0  0
  196.4620  176.3830  141.0940 C   0  0  0  0  0  2  0  0  0  0  0  0
  197.2190  174.1590  141.0270 C   0  0  0  0  0  1  0  0  0  0  0  0
  197.5980  175.5320  140.7520 N   0  0  0  0  0  0  0  0  0  0  0  0
  197.7870  175.6360  139.3140 C   0  0  0  0  0  1  0  0  0  0  0  0
  1  2  2  0  0  0  0
  2 14  2  0  0  0  0
  3 33  1  1  0  0  0
  3  5  1  0  0  0  0
  3 12  1  0  0  0  0
  4 12  1  6  0  0  0
  4  9  1  0  0  0  0
  4 14  1  0  0  0  0
  5 43  1  6  0  0  0
  5  9  1  0  0  0  0
  6 10  1  0  0  0  0
  9 10  1  1  0  0  0
 10 11  2  0  0  0  0
 11  8  1  0  0  0  0
 13  7  2  0  0  0  0
 13  8  1  0  0  0  0
 14 13  1  0  0  0  0
 15 16  1  1  0  0  0
 15  1  1  0  0  0  0
 17 15  1  0  0  0  0
 18 17  1  1  0  0  0
 20 21  1  0  0  0  0
 21 19  2  6  0  0  0
 21 22  1  0  0  0  0
 21 18  1  0  0  0  0
 23 22  1  0  0  0  0
 24 23  1  0  0  0  0
 25 24  1  0  0  0  0
 26 27  1  0  0  0  0
 27 29  1  0  0  0  0
 27 28  1  0  0  0  0
 28 25  1  1  0  0  0
 29 28  1  0  0  0  0
 31 32  1  0  0  0  0
 31 30  1  0  0  0  0
 32 18  1  0  0  0  0
 32 30  1  0  0  0  0
 33 34  1  0  0  0  0
 34 35  1  0  0  0  0
 36 35  1  0  0  0  0
 37 36  1  0  0  0  0
 38 37  1  0  0  0  0
 38 39  1  0  0  0  0
 41 42  2  0  0  0  0
 42 39  1  0  0  0  0
 42 40  1  0  0  0  0
 44 45  1  0  0  0  0
 44 43  1  0  0  0  0
 46 45  1  0  0  0  0
 46 49  1  0  0  0  0
 47 54  1  6  0  0  0
 47 48  1  0  0  0  0
 48 50  1  0  0  0  0
 49 50  1  0  0  0  0
 50 52  1  1  0  0  0
 51 47  1  0  0  0  0
 51 49  2  0  0  0  0
 52 53  2  0  0  0  0
 56 55  1  0  0  0  0
 56 54  1  0  0  0  0
 57 56  1  0  0  0  0
M  END
>  <MODEL>
2

>  <REMARK>
 VINA RESULT:      -5.0      3.468      8.742
  Name = 
  26 active torsions:
  status: ('A' for Active; 'I' for Inactive)
    1  A    between atoms: C_2  and  C_40
    2  A    between atoms: O_4  and  O_7
    3  A    between atoms: O_4  and  C_31
    4  A    between atoms: N_5  and  C_48
    5  A    between atoms: O_7  and  C_29
    6  A    between atoms: C_8  and  C_10
    7  A    between atoms: C_8  and  C_32
    8  A    between atoms: C_9  and  C_28
    9  A    between atoms: C_10  and  C_27
   10  A    between atoms: C_11  and  P_45
   11  A    between atoms: C_11  and  N_46
   12  A    between atoms: C_11  and  C_49
   13  A    between atoms: C_15  and  C_48
   14  A    between atoms: C_17  and  C_26
   15  A    between atoms: C_17  and  C_36
   16  A    between atoms: O_18  and  C_26
   17  A    between atoms: O_18  and  P_45
   18  A    between atoms: C_21  and  C_32
   19  A    between atoms: C_24  and  O_30
   20  A    between atoms: C_27  and  C_52
   21  A    between atoms: C_28  and  C_49
   22  A    between atoms: C_29  and  O_30
   23  A    between atoms: C_36  and  C_44
   24  A    between atoms: C_41  and  C_42
   25  A    between atoms: C_42  and  C_43
   26  A    between atoms: C_43  and  C_52
                            x       y       z     vdW  Elec       q    Type
                         _______ _______ _______ _____ _____    ______ ____

>  <TORSDO>
F 26

$$$$
=
 OpenBabel11072409093D

 57 61  0  0  1  0  0  0  0  0999 V2000
  188.6000  172.8860  140.8320 C   0  0  0  0  0  3  0  0  0  0  0  0
  189.8090  172.8510  140.3450 C   0  0  0  0  0  0  0  0  0  0  0  0
  193.0940  172.7070  142.8480 C   0  0  1  0  0  3  0  0  0  0  0  0
  192.1460  173.0720  140.9000 C   0  0  2  0  0  3  0  0  0  0  0  0
  194.2190  172.4860  141.8490 C   0  0  1  0  0  3  0  0  0  0  0  0
  194.3380  170.1680  140.1950 C   0  0  0  0  0  1  0  0  0  0  0  0
  190.5570  173.7780  137.7660 N   0  0  0  0  0  2  0  0  0  0  0  0
  192.4090  172.3340  137.8450 N   0  0  0  0  0  2  0  0  0  0  0  0
  193.5520  172.6490  140.4980 C   0  0  1  0  0  3  0  0  0  0  0  0
  193.6060  171.3680  139.6850 C   0  0  0  0  0  0  0  0  0  0  0  0
  193.1600  171.3200  138.4660 N   0  0  0  0  0  0  0  0  0  0  0  0
  191.8790  172.5440  142.1710 O   0  0  0  0  0  0  0  0  0  0  0  0
  191.3230  173.0160  138.4790 C   0  0  0  0  0  0  0  0  0  0  0  0
  191.0430  172.8180  139.9110 C   0  0  0  0  0  0  0  0  0  0  0  0
  188.2410  173.9150  141.8450 C   0  0  2  0  0  3  0  0  0  0  0  0
  186.9020  173.8010  142.1870 F   0  0  0  0  0  0  0  0  0  0  0  0
  188.5030  175.3000  141.2880 C   0  0  0  0  0  2  0  0  0  0  0  0
  188.1540  176.3500  142.3540 C   0  0  1  0  0  3  0  0  0  0  0  0
  190.3600  177.9360  142.6290 O   0  0  0  0  0  0  0  0  0  0  0  0
  190.6830  175.4480  143.3380 O   0  0  0  0  0  1  0  0  0  0  0  0
  189.6480  176.7820  143.3010 P   0  0  2  0  0  0  0  0  0  0  0  0
  189.2280  177.1880  144.8920 O   0  0  0  0  0  0  0  0  0  0  0  0
  188.1360  176.3800  145.2230 C   0  0  0  0  0  2  0  0  0  0  0  0
  187.9860  176.2890  146.7370 C   0  0  0  0  0  2  0  0  0  0  0  0
  186.6090  176.7550  147.1930 C   0  0  0  0  0  2  0  0  0  0  0  0
  184.1180  178.7460  145.4150 C   0  0  0  0  0  1  0  0  0  0  0  0
  184.6790  178.1160  146.5990 N   0  0  0  0  0  0  0  0  0  0  0  0
  186.0960  177.8720  146.2980 C   0  0  1  0  0  3  0  0  0  0  0  0
  185.7150  179.0250  147.1080 C   0  0  0  0  0  2  0  0  0  0  0  0
  186.3870  177.3030  140.9360 C   0  0  0  0  0  2  0  0  0  0  0  0
  186.0600  177.5650  142.3390 C   0  0  0  0  0  2  0  0  0  0  0  0
  187.4660  177.5820  141.9010 N   0  0  0  0  0  0  0  0  0  0  0  0
  193.1830  171.7250  144.0070 C   0  0  0  0  0  2  0  0  0  0  0  0
  193.9640  172.3290  145.1640 C   0  0  0  0  0  2  0  0  0  0  0  0
  195.4010  171.8370  145.1440 C   0  0  0  0  0  2  0  0  0  0  0  0
  196.3290  172.9420  145.6110 C   0  0  0  0  0  2  0  0  0  0  0  0
  195.5450  174.2160  145.8820 C   0  0  0  0  0  2  0  0  0  0  0  0
  195.9890  175.3480  144.9630 C   0  0  0  0  0  2  0  0  0  0  0  0
  194.7970  175.9980  144.2720 C   0  0  0  0  0  2  0  0  0  0  0  0
  192.7690  177.2260  145.0680 O   0  0  0  0  0  0  0  0  0  0  0  0
  194.7960  177.5480  146.0900 O   0  0  0  0  0  1  0  0  0  0  0  0
  194.1320  176.9750  145.1860 C   0  0  0  0  0  0  0  0  0  0  0  0
  195.2120  173.4550  142.0260 O   0  0  0  0  0  0  0  0  0  0  0  0
  196.4030  172.8340  141.6330 C   0  0  0  0  0  2  0  0  0  0  0  0
  197.0520  173.6090  140.6670 O   0  0  0  0  0  0  0  0  0  0  0  0
  197.4380  172.7210  139.7400 O   0  0  0  0  0  0  0  0  0  0  0  0
  195.6260  173.6410  136.6730 C   0  0  1  0  0  3  0  0  0  0  0  0
  196.7670  172.5260  135.7860 S   0  0  0  0  0  0  0  0  0  0  0  0
  196.9570  172.7850  138.4350 C   0  0  0  0  0  0  0  0  0  0  0  0
  197.4330  171.8780  137.3550 C   0  0  1  0  0  3  0  0  0  0  0  0
  196.0410  173.6710  138.0990 C   0  0  0  0  0  3  0  0  0  0  0  0
  196.9110  170.4970  137.5970 C   0  0  0  0  0  3  0  0  0  0  0  0
  195.9700  170.0690  136.9500 O   0  0  0  0  0  0  0  0  0  0  0  0
  195.6210  175.0400  136.0600 C   0  0  0  0  0  2  0  0  0  0  0  0
  193.6170  174.2980  135.0830 C   0  0  0  0  0  1  0  0  0  0  0  0
  194.2760  175.4510  135.6670 N   0  0  0  0  0  0  0  0  0  0  0  0
  193.5580  175.7730  136.8890 C   0  0  0  0  0  1  0  0  0  0  0  0
  1 15  1  0  0  0  0
  2  1  2  0  0  0  0
  3 33  1  1  0  0  0
  4 14  1  6  0  0  0
  4 12  1  0  0  0  0
  5 43  1  1  0  0  0
  5  3  1  0  0  0  0
  7 13  2  0  0  0  0
  8 11  1  0  0  0  0
  8 13  1  0  0  0  0
  9 10  1  1  0  0  0
  9  4  1  0  0  0  0
  9  5  1  0  0  0  0
 10  6  1  0  0  0  0
 11 10  2  0  0  0  0
 12  3  1  0  0  0  0
 13 14  1  0  0  0  0
 14  2  2  0  0  0  0
 15 16  1  6  0  0  0
 17 15  1  0  0  0  0
 18 17  1  6  0  0  0
 18 21  1  0  0  0  0
 21 19  2  6  0  0  0
 21 20  1  0  0  0  0
 21 22  1  0  0  0  0
 22 23  1  0  0  0  0
 23 24  1  0  0  0  0
 24 25  1  0  0  0  0
 26 27  1  0  0  0  0
 27 29  1  0  0  0  0
 28 27  1  0  0  0  0
 28 29  1  0  0  0  0
 28 25  1  1  0  0  0
 30 32  1  0  0  0  0
 30 31  1  0  0  0  0
 32 31  1  0  0  0  0
 32 18  1  0  0  0  0
 33 34  1  0  0  0  0
 35 34  1  0  0  0  0
 35 36  1  0  0  0  0
 36 37  1  0  0  0  0
 38 37  1  0  0  0  0
 39 38  1  0  0  0  0
 39 42  1  0  0  0  0
 40 42  2  0  0  0  0
 42 41  1  0  0  0  0
 44 43  1  0  0  0  0
 45 44  1  0  0  0  0
 46 45  1  0  0  0  0
 47 54  1  6  0  0  0
 47 51  1  0  0  0  0
 48 47  1  0  0  0  0
 48 50  1  0  0  0  0
 49 46  1  0  0  0  0
 50 52  1  1  0  0  0
 50 49  1  0  0  0  0
 51 49  2  0  0  0  0
 53 52  2  0  0  0  0
 55 56  1  0  0  0  0
 56 54  1  0  0  0  0
 56 57  1  0  0  0  0
M  END
>  <MODEL>
3

>  <REMARK>
 VINA RESULT:      -5.0      3.697      5.384
  Name = 
  26 active torsions:
  status: ('A' for Active; 'I' for Inactive)
    1  A    between atoms: C_2  and  C_40
    2  A    between atoms: O_4  and  O_7
    3  A    between atoms: O_4  and  C_31
    4  A    between atoms: N_5  and  C_48
    5  A    between atoms: O_7  and  C_29
    6  A    between atoms: C_8  and  C_10
    7  A    between atoms: C_8  and  C_32
    8  A    between atoms: C_9  and  C_28
    9  A    between atoms: C_10  and  C_27
   10  A    between atoms: C_11  and  P_45
   11  A    between atoms: C_11  and  N_46
   12  A    between atoms: C_11  and  C_49
   13  A    between atoms: C_15  and  C_48
   14  A    between atoms: C_17  and  C_26
   15  A    between atoms: C_17  and  C_36
   16  A    between atoms: O_18  and  C_26
   17  A    between atoms: O_18  and  P_45
   18  A    between atoms: C_21  and  C_32
   19  A    between atoms: C_24  and  O_30
   20  A    between atoms: C_27  and  C_52
   21  A    between atoms: C_28  and  C_49
   22  A    between atoms: C_29  and  O_30
   23  A    between atoms: C_36  and  C_44
   24  A    between atoms: C_41  and  C_42
   25  A    between atoms: C_42  and  C_43
   26  A    between atoms: C_43  and  C_52
                            x       y       z     vdW  Elec       q    Type
                         _______ _______ _______ _____ _____    ______ ____

>  <TORSDO>
F 26

$$$$
=
 OpenBabel11072409093D

 57 61  0  0  1  0  0  0  0  0999 V2000
  188.4240  173.4520  142.3460 C   0  0  0  0  0  3  0  0  0  0  0  0
  188.9280  173.2040  141.1690 C   0  0  0  0  0  0  0  0  0  0  0  0
  192.6470  171.4450  140.7870 C   0  0  1  0  0  3  0  0  0  0  0  0
  190.9420  172.5820  139.9970 C   0  0  2  0  0  3  0  0  0  0  0  0
  192.7020  171.1890  139.2890 C   0  0  1  0  0  3  0  0  0  0  0  0
  190.8390  169.4760  137.9790 C   0  0  0  0  0  1  0  0  0  0  0  0
  188.2020  174.5410  138.7690 N   0  0  0  0  0  2  0  0  0  0  0  0
  188.9330  172.6590  137.5660 N   0  0  0  0  0  2  0  0  0  0  0  0
  191.4770  171.8980  138.7470 C   0  0  1  0  0  3  0  0  0  0  0  0
  190.5030  170.9280  138.1050 C   0  0  0  0  0  0  0  0  0  0  0  0
  189.4260  171.3430  137.5090 N   0  0  0  0  0  0  0  0  0  0  0  0
  191.3400  171.8290  141.1100 O   0  0  0  0  0  0  0  0  0  0  0  0
  188.8610  173.4260  138.7720 C   0  0  0  0  0  0  0  0  0  0  0  0
  189.4810  172.9360  140.0140 C   0  0  0  0  0  0  0  0  0  0  0  0
  189.2160  174.2260  143.3410 C   0  0  2  0  0  3  0  0  0  0  0  0
  189.4910  173.4390  144.4490 F   0  0  0  0  0  0  0  0  0  0  0  0
  188.4410  175.4550  143.7730 C   0  0  0  0  0  2  0  0  0  0  0  0
  189.3940  176.4330  144.4790 C   0  0  1  0  0  3  0  0  0  0  0  0
  189.5530  177.7110  146.8860 O   0  0  0  0  0  0  0  0  0  0  0  0
  189.9130  175.1300  146.9710 O   0  0  0  0  0  1  0  0  0  0  0  0
  189.0720  176.4150  146.2700 P   0  0  2  0  0  0  0  0  0  0  0  0
  187.4150  176.2010  146.5600 O   0  0  0  0  0  0  0  0  0  0  0  0
  186.9840  177.3550  147.2200 C   0  0  0  0  0  2  0  0  0  0  0  0
  185.5320  177.6560  146.8670 C   0  0  0  0  0  2  0  0  0  0  0  0
  185.2260  177.3100  145.4150 C   0  0  0  0  0  2  0  0  0  0  0  0
  186.3000  178.6620  142.1980 C   0  0  0  0  0  1  0  0  0  0  0  0
  185.3010  178.2480  143.1690 N   0  0  0  0  0  0  0  0  0  0  0  0
  185.9790  178.2360  144.4720 C   0  0  1  0  0  3  0  0  0  0  0  0
  185.1350  179.3690  144.1050 C   0  0  0  0  0  2  0  0  0  0  0  0
  191.3080  177.1100  143.0940 C   0  0  0  0  0  2  0  0  0  0  0  0
  191.5390  177.5550  144.4700 C   0  0  0  0  0  2  0  0  0  0  0  0
  190.8440  176.2800  144.2220 N   0  0  0  0  0  0  0  0  0  0  0  0
  193.0360  170.2030  141.5750 C   0  0  0  0  0  2  0  0  0  0  0  0
  193.1230  170.5140  143.0610 C   0  0  0  0  0  2  0  0  0  0  0  0
  194.2160  171.5360  143.3230 C   0  0  0  0  0  2  0  0  0  0  0  0
  195.1360  171.0350  144.4190 C   0  0  0  0  0  2  0  0  0  0  0  0
  195.3940  172.1310  145.4410 C   0  0  0  0  0  2  0  0  0  0  0  0
  195.2130  173.5150  144.8290 C   0  0  0  0  0  2  0  0  0  0  0  0
  195.6380  174.6080  145.8010 C   0  0  0  0  0  2  0  0  0  0  0  0
  193.2560  175.0520  146.4140 O   0  0  0  0  0  1  0  0  0  0  0  0
  194.6880  176.7920  145.9920 O   0  0  0  0  0  0  0  0  0  0  0  0
  194.5050  175.5480  146.0590 C   0  0  0  0  0  0  0  0  0  0  0  0
  193.8670  171.7450  138.7520 O   0  0  0  0  0  0  0  0  0  0  0  0
  194.8100  170.7100  138.7730 C   0  0  0  0  0  2  0  0  0  0  0  0
  195.8880  171.0260  137.9410 O   0  0  0  0  0  0  0  0  0  0  0  0
  196.8160  171.5080  138.7790 O   0  0  0  0  0  0  0  0  0  0  0  0
  196.6710  174.9360  140.1070 C   0  0  1  0  0  3  0  0  0  0  0  0
  197.9410  175.3610  138.8680 S   0  0  0  0  0  0  0  0  0  0  0  0
  196.9720  172.8780  138.9750 C   0  0  0  0  0  0  0  0  0  0  0  0
  197.7610  173.7400  138.0530 C   0  0  1  0  0  3  0  0  0  0  0  0
  196.4150  173.4760  140.0080 C   0  0  0  0  0  3  0  0  0  0  0  0
  197.0230  173.8970  136.7630 C   0  0  0  0  0  3  0  0  0  0  0  0
  196.2320  174.8130  136.6100 O   0  0  0  0  0  0  0  0  0  0  0  0
  197.1070  175.3350  141.5160 C   0  0  0  0  0  2  0  0  0  0  0  0
  195.0750  176.3700  142.0820 C   0  0  0  0  0  1  0  0  0  0  0  0
  196.5000  176.5970  141.9300 N   0  0  0  0  0  0  0  0  0  0  0  0
  197.0210  176.9030  143.2520 C   0  0  0  0  0  1  0  0  0  0  0  0
  1 15  1  0  0  0  0
  2  1  2  0  0  0  0
  3 12  1  0  0  0  0
  3 33  1  1  0  0  0
  4 14  1  6  0  0  0
  4 12  1  0  0  0  0
  5 43  1  6  0  0  0
  5  3  1  0  0  0  0
  6 10  1  0  0  0  0
  7 13  2  0  0  0  0
  8 13  1  0  0  0  0
  9 10  1  1  0  0  0
  9  5  1  0  0  0  0
  9  4  1  0  0  0  0
 11  8  1  0  0  0  0
 11 10  2  0  0  0  0
 13 14  1  0  0  0  0
 14  2  2  0  0  0  0
 15 17  1  0  0  0  0
 15 16  1  1  0  0  0
 18 17  1  6  0  0  0
 18 21  1  0  0  0  0
 21 22  1  0  0  0  0
 21 19  2  1  0  0  0
 21 20  1  0  0  0  0
 22 23  1  0  0  0  0
 24 23  1  0  0  0  0
 25 24  1  0  0  0  0
 26 27  1  0  0  0  0
 27 29  1  0  0  0  0
 27 28  1  0  0  0  0
 28 25  1  1  0  0  0
 29 28  1  0  0  0  0
 30 32  1  0  0  0  0
 30 31  1  0  0  0  0
 32 31  1  0  0  0  0
 32 18  1  0  0  0  0
 33 34  1  0  0  0  0
 34 35  1  0  0  0  0
 35 36  1  0  0  0  0
 36 37  1  0  0  0  0
 38 37  1  0  0  0  0
 38 39  1  0  0  0  0
 39 42  1  0  0  0  0
 41 42  2  0  0  0  0
 42 40  1  0  0  0  0
 43 44  1  0  0  0  0
 45 44  1  0  0  0  0
 45 46  1  0  0  0  0
 46 49  1  0  0  0  0
 47 54  1  1  0  0  0
 48 47  1  0  0  0  0
 49 51  2  0  0  0  0
 50 52  1  6  0  0  0
 50 48  1  0  0  0  0
 50 49  1  0  0  0  0
 51 47  1  0  0  0  0
 53 52  2  0  0  0  0
 54 56  1  0  0  0  0
 56 55  1  0  0  0  0
 56 57  1  0  0  0  0
M  END
>  <MODEL>
4

>  <REMARK>
 VINA RESULT:      -5.0      3.625      5.692
  Name = 
  26 active torsions:
  status: ('A' for Active; 'I' for Inactive)
    1  A    between atoms: C_2  and  C_40
    2  A    between atoms: O_4  and  O_7
    3  A    between atoms: O_4  and  C_31
    4  A    between atoms: N_5  and  C_48
    5  A    between atoms: O_7  and  C_29
    6  A    between atoms: C_8  and  C_10
    7  A    between atoms: C_8  and  C_32
    8  A    between atoms: C_9  and  C_28
    9  A    between atoms: C_10  and  C_27
   10  A    between atoms: C_11  and  P_45
   11  A    between atoms: C_11  and  N_46
   12  A    between atoms: C_11  and  C_49
   13  A    between atoms: C_15  and  C_48
   14  A    between atoms: C_17  and  C_26
   15  A    between atoms: C_17  and  C_36
   16  A    between atoms: O_18  and  C_26
   17  A    between atoms: O_18  and  P_45
   18  A    between atoms: C_21  and  C_32
   19  A    between atoms: C_24  and  O_30
   20  A    between atoms: C_27  and  C_52
   21  A    between atoms: C_28  and  C_49
   22  A    between atoms: C_29  and  O_30
   23  A    between atoms: C_36  and  C_44
   24  A    between atoms: C_41  and  C_42
   25  A    between atoms: C_42  and  C_43
   26  A    between atoms: C_43  and  C_52
                            x       y       z     vdW  Elec       q    Type
                         _______ _______ _______ _____ _____    ______ ____

>  <TORSDO>
F 26

$$$$
=
 OpenBabel11072409093D

 57 61  0  0  1  0  0  0  0  0999 V2000
  186.4140  176.0230  138.2240 C   0  0  0  0  0  3  0  0  0  0  0  0
  187.4310  175.2490  137.9640 C   0  0  0  0  0  0  0  0  0  0  0  0
  189.5050  173.3880  141.0150 C   0  0  1  0  0  3  0  0  0  0  0  0
  189.3080  174.0950  138.9450 C   0  0  2  0  0  3  0  0  0  0  0  0
  190.4340  172.4750  140.2300 C   0  0  1  0  0  3  0  0  0  0  0  0
  189.4430  170.4150  138.5280 C   0  0  0  0  0  1  0  0  0  0  0  0
  189.0120  175.3660  135.6070 N   0  0  0  0  0  2  0  0  0  0  0  0
  189.6050  173.1200  135.9600 N   0  0  0  0  0  2  0  0  0  0  0  0
  190.2360  172.8990  138.7890 C   0  0  1  0  0  3  0  0  0  0  0  0
  189.6630  171.7750  137.9450 C   0  0  0  0  0  0  0  0  0  0  0  0
  189.4930  171.9080  136.6640 N   0  0  0  0  0  0  0  0  0  0  0  0
  188.5670  173.9210  140.1220 O   0  0  0  0  0  0  0  0  0  0  0  0
  189.0430  174.3540  136.4140 C   0  0  0  0  0  0  0  0  0  0  0  0
  188.4600  174.4650  137.7610 C   0  0  0  0  0  0  0  0  0  0  0  0
  186.5650  177.1390  139.1970 C   0  0  2  0  0  3  0  0  0  0  0  0
  187.4840  178.0630  138.7250 F   0  0  0  0  0  0  0  0  0  0  0  0
  187.0320  176.5980  140.5340 C   0  0  0  0  0  2  0  0  0  0  0  0
  187.0800  177.7430  141.5560 C   0  0  1  0  0  3  0  0  0  0  0  0
  185.1310  176.6790  143.1440 O   0  0  0  0  0  1  0  0  0  0  0  0
  184.2750  178.1290  141.1540 O   0  0  0  0  0  0  0  0  0  0  0  0
  185.4510  177.9250  142.3480 P   0  0  2  0  0  0  0  0  0  0  0  0
  185.4450  179.2900  143.3540 O   0  0  0  0  0  0  0  0  0  0  0  0
  184.3320  179.1510  144.1890 C   0  0  0  0  0  2  0  0  0  0  0  0
  184.7580  179.2070  145.6520 C   0  0  0  0  0  2  0  0  0  0  0  0
  184.7650  177.8210  146.2860 C   0  0  0  0  0  2  0  0  0  0  0  0
  187.7820  175.9300  147.0910 C   0  0  0  0  0  1  0  0  0  0  0  0
  186.8350  176.5430  146.1750 N   0  0  0  0  0  0  0  0  0  0  0  0
  186.0990  177.5450  146.9600 C   0  0  1  0  0  3  0  0  0  0  0  0
  187.1940  177.9660  146.0900 C   0  0  0  0  0  2  0  0  0  0  0  0
  188.4370  176.3220  143.0330 C   0  0  0  0  0  2  0  0  0  0  0  0
  189.3200  176.9790  142.0670 C   0  0  0  0  0  2  0  0  0  0  0  0
  188.1440  177.6970  142.5860 N   0  0  0  0  0  0  0  0  0  0  0  0
  188.7960  172.6310  142.1280 C   0  0  0  0  0  2  0  0  0  0  0  0
  189.8040  171.9480  143.0410 C   0  0  0  0  0  2  0  0  0  0  0  0
  189.7650  172.5690  144.4270 C   0  0  0  0  0  2  0  0  0  0  0  0
  190.4940  173.8990  144.4140 C   0  0  0  0  0  2  0  0  0  0  0  0
  190.9660  174.2620  145.8120 C   0  0  0  0  0  2  0  0  0  0  0  0
  191.2190  175.7590  145.9430 C   0  0  0  0  0  2  0  0  0  0  0  0
  192.5810  176.0370  146.5670 C   0  0  0  0  0  2  0  0  0  0  0  0
  194.7800  177.0430  145.9320 O   0  0  0  0  0  1  0  0  0  0  0  0
  193.0040  177.1290  144.4850 O   0  0  0  0  0  0  0  0  0  0  0  0
  193.4540  176.7770  145.6070 C   0  0  0  0  0  0  0  0  0  0  0  0
  191.7580  172.6860  140.6260 O   0  0  0  0  0  0  0  0  0  0  0  0
  192.0470  174.0030  140.2480 C   0  0  0  0  0  2  0  0  0  0  0  0
  192.4580  174.7410  141.3620 O   0  0  0  0  0  0  0  0  0  0  0  0
  193.7940  174.7750  141.2570 O   0  0  0  0  0  0  0  0  0  0  0  0
  195.1130  173.7450  144.5340 C   0  0  1  0  0  3  0  0  0  0  0  0
  196.7680  174.1490  143.8800 S   0  0  0  0  0  0  0  0  0  0  0  0
  194.6120  174.5380  142.3590 C   0  0  0  0  0  0  0  0  0  0  0  0
  196.0490  174.9240  142.3950 C   0  0  1  0  0  3  0  0  0  0  0  0
  194.1330  173.9500  143.4370 C   0  0  0  0  0  3  0  0  0  0  0  0
  196.1640  176.4110  142.4910 C   0  0  0  0  0  3  0  0  0  0  0  0
  196.8110  176.9260  143.3870 O   0  0  0  0  0  0  0  0  0  0  0  0
  195.0580  172.3180  145.0770 C   0  0  0  0  0  2  0  0  0  0  0  0
  196.8360  171.0080  145.8770 C   0  0  0  0  0  1  0  0  0  0  0  0
  196.2280  171.5430  144.6740 N   0  0  0  0  0  0  0  0  0  0  0  0
  195.7400  170.4080  143.9070 C   0  0  0  0  0  1  0  0  0  0  0  0
  1 15  1  0  0  0  0
  2  1  2  0  0  0  0
  3 33  1  1  0  0  0
  4 14  1  6  0  0  0
  4 12  1  0  0  0  0
  5 43  1  1  0  0  0
  5  3  1  0  0  0  0
  7 13  2  0  0  0  0
  8 13  1  0  0  0  0
  8 11  1  0  0  0  0
  9 10  1  6  0  0  0
  9  4  1  0  0  0  0
  9  5  1  0  0  0  0
 10  6  1  0  0  0  0
 11 10  2  0  0  0  0
 12  3  1  0  0  0  0
 13 14  1  0  0  0  0
 14  2  2  0  0  0  0
 15 16  1  6  0  0  0
 15 17  1  0  0  0  0
 18 17  1  1  0  0  0
 18 21  1  0  0  0  0
 18 32  1  0  0  0  0
 21 20  2  6  0  0  0
 21 19  1  0  0  0  0
 21 22  1  0  0  0  0
 22 23  1  0  0  0  0
 23 24  1  0  0  0  0
 24 25  1  0  0  0  0
 27 28  1  0  0  0  0
 27 26  1  0  0  0  0
 28 25  1  6  0  0  0
 29 27  1  0  0  0  0
 29 28  1  0  0  0  0
 31 32  1  0  0  0  0
 31 30  1  0  0  0  0
 32 30  1  0  0  0  0
 33 34  1  0  0  0  0
 34 35  1  0  0  0  0
 36 35  1  0  0  0  0
 36 37  1  0  0  0  0
 37 38  1  0  0  0  0
 38 39  1  0  0  0  0
 41 42  2  0  0  0  0
 42 40  1  0  0  0  0
 42 39  1  0  0  0  0
 44 43  1  0  0  0  0
 44 45  1  0  0  0  0
 46 45  1  0  0  0  0
 46 49  1  0  0  0  0
 47 54  1  6  0  0  0
 48 47  1  0  0  0  0
 49 50  1  0  0  0  0
 49 51  2  0  0  0  0
 50 52  1  1  0  0  0
 50 48  1  0  0  0  0
 51 47  1  0  0  0  0
 52 53  2  0  0  0  0
 56 54  1  0  0  0  0
 56 55  1  0  0  0  0
 57 56  1  0  0  0  0
M  END
>  <MODEL>
5

>  <REMARK>
 VINA RESULT:      -4.9      3.483      6.103
  Name = 
  26 active torsions:
  status: ('A' for Active; 'I' for Inactive)
    1  A    between atoms: C_2  and  C_40
    2  A    between atoms: O_4  and  O_7
    3  A    between atoms: O_4  and  C_31
    4  A    between atoms: N_5  and  C_48
    5  A    between atoms: O_7  and  C_29
    6  A    between atoms: C_8  and  C_10
    7  A    between atoms: C_8  and  C_32
    8  A    between atoms: C_9  and  C_28
    9  A    between atoms: C_10  and  C_27
   10  A    between atoms: C_11  and  P_45
   11  A    between atoms: C_11  and  N_46
   12  A    between atoms: C_11  and  C_49
   13  A    between atoms: C_15  and  C_48
   14  A    between atoms: C_17  and  C_26
   15  A    between atoms: C_17  and  C_36
   16  A    between atoms: O_18  and  C_26
   17  A    between atoms: O_18  and  P_45
   18  A    between atoms: C_21  and  C_32
   19  A    between atoms: C_24  and  O_30
   20  A    between atoms: C_27  and  C_52
   21  A    between atoms: C_28  and  C_49
   22  A    between atoms: C_29  and  O_30
   23  A    between atoms: C_36  and  C_44
   24  A    between atoms: C_41  and  C_42
   25  A    between atoms: C_42  and  C_43
   26  A    between atoms: C_43  and  C_52
                            x       y       z     vdW  Elec       q    Type
                         _______ _______ _______ _____ _____    ______ ____

>  <TORSDO>
F 26

$$$$
=
 OpenBabel11072409093D

 57 61  0  0  1  0  0  0  0  0999 V2000
  188.2260  172.8880  139.9810 C   0  0  0  0  0  3  0  0  0  0  0  0
  188.9640  172.8970  141.0560 C   0  0  0  0  0  0  0  0  0  0  0  0
  190.1660  176.4600  142.7680 C   0  0  1  0  0  3  0  0  0  0  0  0
  190.3250  174.2880  142.4800 C   0  0  2  0  0  3  0  0  0  0  0  0
  190.8090  175.9700  144.0550 C   0  0  1  0  0  3  0  0  0  0  0  0
  189.3300  174.5570  146.0400 C   0  0  0  0  0  1  0  0  0  0  0  0
  190.6430  170.7660  141.9010 N   0  0  0  0  0  2  0  0  0  0  0  0
  190.4840  171.5850  144.0970 N   0  0  0  0  0  2  0  0  0  0  0  0
  190.8410  174.4620  143.9010 C   0  0  1  0  0  3  0  0  0  0  0  0
  189.9980  173.7710  144.9570 C   0  0  0  0  0  0  0  0  0  0  0  0
  189.9560  172.4750  145.0490 N   0  0  0  0  0  0  0  0  0  0  0  0
  189.4970  175.3790  142.1810 O   0  0  0  0  0  0  0  0  0  0  0  0
  190.3080  171.7390  142.6860 C   0  0  0  0  0  0  0  0  0  0  0  0
  189.7070  172.9630  142.1310 C   0  0  0  0  0  0  0  0  0  0  0  0
  188.6570  173.6560  138.7820 C   0  0  2  0  0  3  0  0  0  0  0  0
  188.1480  173.0730  137.6320 F   0  0  0  0  0  0  0  0  0  0  0  0
  190.1710  173.6860  138.7060 C   0  0  0  0  0  2  0  0  0  0  0  0
  190.6090  173.4920  137.2460 C   0  0  1  0  0  3  0  0  0  0  0  0
  189.9930  171.1270  136.0290 O   0  0  0  0  0  0  0  0  0  0  0  0
  190.9880  170.9170  138.4300 O   0  0  0  0  0  1  0  0  0  0  0  0
  191.0180  171.7420  136.9570 P   0  0  2  0  0  0  0  0  0  0  0  0
  192.5730  171.6120  136.2940 O   0  0  0  0  0  0  0  0  0  0  0  0
  193.3520  172.5760  136.9390 C   0  0  0  0  0  2  0  0  0  0  0  0
  194.5170  172.9970  136.0510 C   0  0  0  0  0  2  0  0  0  0  0  0
  195.2080  174.2450  136.5880 C   0  0  0  0  0  2  0  0  0  0  0  0
  197.9410  173.2620  138.8000 C   0  0  0  0  0  1  0  0  0  0  0  0
  197.3480  174.0530  137.7340 N   0  0  0  0  0  0  0  0  0  0  0  0
  195.8930  173.9510  137.9130 C   0  0  1  0  0  3  0  0  0  0  0  0
  196.6000  175.1390  138.3830 C   0  0  0  0  0  2  0  0  0  0  0  0
  190.1060  175.2950  135.6530 C   0  0  0  0  0  2  0  0  0  0  0  0
  190.4140  174.0740  134.9040 C   0  0  0  0  0  2  0  0  0  0  0  0
  189.6970  173.9820  136.1870 N   0  0  0  0  0  0  0  0  0  0  0  0
  189.1900  177.5960  143.0360 C   0  0  0  0  0  2  0  0  0  0  0  0
  188.9240  177.7360  144.5270 C   0  0  0  0  0  2  0  0  0  0  0  0
  187.4910  177.3460  144.8460 C   0  0  0  0  0  2  0  0  0  0  0  0
  186.6880  178.5830  145.2000 C   0  0  0  0  0  2  0  0  0  0  0  0
  185.2430  178.4260  144.7560 C   0  0  0  0  0  2  0  0  0  0  0  0
  185.1310  177.5190  143.5370 C   0  0  0  0  0  2  0  0  0  0  0  0
  184.1270  178.0670  142.5310 C   0  0  0  0  0  2  0  0  0  0  0  0
  186.1290  177.9820  141.0350 O   0  0  0  0  0  1  0  0  0  0  0  0
  184.1070  178.7010  140.2270 O   0  0  0  0  0  0  0  0  0  0  0  0
  184.7820  178.2820  141.2050 C   0  0  0  0  0  0  0  0  0  0  0  0
  192.1070  176.4790  144.1650 O   0  0  0  0  0  0  0  0  0  0  0  0
  192.6440  176.3930  142.8750 C   0  0  0  0  0  2  0  0  0  0  0  0
  193.9990  176.0560  142.9430 O   0  0  0  0  0  0  0  0  0  0  0  0
  193.9970  174.7510  143.2460 O   0  0  0  0  0  0  0  0  0  0  0  0
  196.2720  172.4640  145.0170 C   0  0  1  0  0  3  0  0  0  0  0  0
  197.0540  173.9540  145.7230 S   0  0  0  0  0  0  0  0  0  0  0  0
  194.9550  174.2050  144.0960 C   0  0  0  0  0  0  0  0  0  0  0  0
  195.7290  175.0220  145.0700 C   0  0  1  0  0  3  0  0  0  0  0  0
  195.2190  172.9140  144.0690 C   0  0  0  0  0  3  0  0  0  0  0  0
  194.8300  175.4560  146.1830 C   0  0  0  0  0  3  0  0  0  0  0  0
  194.5730  176.6360  146.3480 O   0  0  0  0  0  0  0  0  0  0  0  0
  197.2970  171.5650  144.3300 C   0  0  0  0  0  2  0  0  0  0  0  0
  196.6710  170.3600  146.2470 C   0  0  0  0  0  1  0  0  0  0  0  0
  197.5950  170.3800  145.1290 N   0  0  0  0  0  0  0  0  0  0  0  0
  197.2840  169.2230  144.3050 C   0  0  0  0  0  1  0  0  0  0  0  0
  1  2  2  0  0  0  0
  2 14  2  0  0  0  0
  3 33  1  1  0  0  0
  3  5  1  0  0  0  0
  4 14  1  1  0  0  0
  4  9  1  0  0  0  0
  5 43  1  6  0  0  0
  7 13  2  0  0  0  0
  8 11  1  0  0  0  0
  9  5  1  0  0  0  0
  9 10  1  1  0  0  0
 10 11  2  0  0  0  0
 10  6  1  0  0  0  0
 12  4  1  0  0  0  0
 12  3  1  0  0  0  0
 13  8  1  0  0  0  0
 14 13  1  0  0  0  0
 15 16  1  6  0  0  0
 15  1  1  0  0  0  0
 17 15  1  0  0  0  0
 18 17  1  1  0  0  0
 21 19  2  6  0  0  0
 21 18  1  0  0  0  0
 21 20  1  0  0  0  0
 22 23  1  0  0  0  0
 22 21  1  0  0  0  0
 24 25  1  0  0  0  0
 24 23  1  0  0  0  0
 27 28  1  0  0  0  0
 27 29  1  0  0  0  0
 27 26  1  0  0  0  0
 28 25  1  6  0  0  0
 28 29  1  0  0  0  0
 30 32  1  0  0  0  0
 31 30  1  0  0  0  0
 31 32  1  0  0  0  0
 32 18  1  0  0  0  0
 33 34  1  0  0  0  0
 34 35  1  0  0  0  0
 35 36  1  0  0  0  0
 37 36  1  0  0  0  0
 38 37  1  0  0  0  0
 39 38  1  0  0  0  0
 40 42  1  0  0  0  0
 41 42  2  0  0  0  0
 42 39  1  0  0  0  0
 44 45  1  0  0  0  0
 44 43  1  0  0  0  0
 45 46  1  0  0  0  0
 46 49  1  0  0  0  0
 47 54  1  6  0  0  0
 47 48  1  0  0  0  0
 49 50  1  0  0  0  0
 50 48  1  0  0  0  0
 50 52  1  1  0  0  0
 51 49  2  0  0  0  0
 51 47  1  0  0  0  0
 52 53  2  0  0  0  0
 54 56  1  0  0  0  0
 56 55  1  0  0  0  0
 57 56  1  0  0  0  0
M  END
>  <MODEL>
6

>  <REMARK>
 VINA RESULT:      -4.9      3.873      9.287
  Name = 
  26 active torsions:
  status: ('A' for Active; 'I' for Inactive)
    1  A    between atoms: C_2  and  C_40
    2  A    between atoms: O_4  and  O_7
    3  A    between atoms: O_4  and  C_31
    4  A    between atoms: N_5  and  C_48
    5  A    between atoms: O_7  and  C_29
    6  A    between atoms: C_8  and  C_10
    7  A    between atoms: C_8  and  C_32
    8  A    between atoms: C_9  and  C_28
    9  A    between atoms: C_10  and  C_27
   10  A    between atoms: C_11  and  P_45
   11  A    between atoms: C_11  and  N_46
   12  A    between atoms: C_11  and  C_49
   13  A    between atoms: C_15  and  C_48
   14  A    between atoms: C_17  and  C_26
   15  A    between atoms: C_17  and  C_36
   16  A    between atoms: O_18  and  C_26
   17  A    between atoms: O_18  and  P_45
   18  A    between atoms: C_21  and  C_32
   19  A    between atoms: C_24  and  O_30
   20  A    between atoms: C_27  and  C_52
   21  A    between atoms: C_28  and  C_49
   22  A    between atoms: C_29  and  O_30
   23  A    between atoms: C_36  and  C_44
   24  A    between atoms: C_41  and  C_42
   25  A    between atoms: C_42  and  C_43
   26  A    between atoms: C_43  and  C_52
                            x       y       z     vdW  Elec       q    Type
                         _______ _______ _______ _____ _____    ______ ____

>  <TORSDO>
F 26

$$$$
=
 OpenBabel11072409093D

 57 61  0  0  1  0  0  0  0  0999 V2000
  188.8200  175.1230  144.3940 C   0  0  0  0  0  3  0  0  0  0  0  0
  189.3740  174.3320  143.5170 C   0  0  0  0  0  0  0  0  0  0  0  0
  192.8460  175.4350  141.5690 C   0  0  1  0  0  3  0  0  0  0  0  0
  191.0380  174.2050  141.7760 C   0  0  2  0  0  3  0  0  0  0  0  0
  193.1930  174.1520  140.8290 C   0  0  1  0  0  3  0  0  0  0  0  0
  193.7520  171.7190  142.2030 C   0  0  0  0  0  1  0  0  0  0  0  0
  188.0190  172.2960  142.0700 N   0  0  0  0  0  2  0  0  0  0  0  0
  190.0780  171.2010  141.7920 N   0  0  0  0  0  2  0  0  0  0  0  0
  191.9830  173.2640  141.0430 C   0  0  1  0  0  3  0  0  0  0  0  0
  192.3360  172.0100  141.8210 C   0  0  0  0  0  0  0  0  0  0  0  0
  191.4570  171.0790  142.0410 N   0  0  0  0  0  0  0  0  0  0  0  0
  191.8120  175.1480  142.4680 O   0  0  0  0  0  0  0  0  0  0  0  0
  189.3100  172.3560  142.1420 C   0  0  0  0  0  0  0  0  0  0  0  0
  189.9690  173.5790  142.6270 C   0  0  0  0  0  0  0  0  0  0  0  0
  188.5140  176.5330  144.0280 C   0  0  2  0  0  3  0  0  0  0  0  0
  188.6830  177.3580  145.1290 F   0  0  0  0  0  0  0  0  0  0  0  0
  187.0860  176.6380  143.5310 C   0  0  0  0  0  2  0  0  0  0  0  0
  186.3000  177.5900  144.4450 C   0  0  1  0  0  3  0  0  0  0  0  0
  186.3330  179.0990  142.1700 O   0  0  0  0  0  0  0  0  0  0  0  0
  185.5770  180.3540  144.3260 O   0  0  0  0  0  1  0  0  0  0  0  0
  185.5440  178.9130  143.4480 P   0  0  2  0  0  0  0  0  0  0  0  0
  183.9310  178.5260  143.0980 O   0  0  0  0  0  0  0  0  0  0  0  0
  183.9470  177.8760  141.8600 C   0  0  0  0  0  2  0  0  0  0  0  0
  182.9100  178.4890  140.9280 C   0  0  0  0  0  2  0  0  0  0  0  0
  181.5010  178.3580  141.4930 C   0  0  0  0  0  2  0  0  0  0  0  0
  178.4410  178.3750  139.5020 C   0  0  0  0  0  1  0  0  0  0  0  0
  179.1870  178.2410  140.7410 N   0  0  0  0  0  0  0  0  0  0  0  0
  180.4760  178.9110  140.5160 C   0  0  1  0  0  3  0  0  0  0  0  0
  179.4160  179.6030  141.2440 C   0  0  0  0  0  2  0  0  0  0  0  0
  185.7990  176.7940  146.7160 C   0  0  0  0  0  2  0  0  0  0  0  0
  184.9410  177.9430  146.4180 C   0  0  0  0  0  2  0  0  0  0  0  0
  185.2880  176.9930  145.3470 N   0  0  0  0  0  0  0  0  0  0  0  0
  194.0520  175.9830  142.3180 C   0  0  0  0  0  2  0  0  0  0  0  0
  193.8670  175.8310  143.8200 C   0  0  0  0  0  2  0  0  0  0  0  0
  193.8810  177.1930  144.4940 C   0  0  0  0  0  2  0  0  0  0  0  0
  194.7340  177.1370  145.7460 C   0  0  0  0  0  2  0  0  0  0  0  0
  194.2510  176.0310  146.6710 C   0  0  0  0  0  2  0  0  0  0  0  0
  192.9210  176.3920  147.3220 C   0  0  0  0  0  2  0  0  0  0  0  0
  191.8940  175.2820  147.1330 C   0  0  0  0  0  2  0  0  0  0  0  0
  190.2750  177.1340  147.5810 O   0  0  0  0  0  0  0  0  0  0  0  0
  189.5900  174.9480  147.6650 O   0  0  0  0  0  1  0  0  0  0  0  0
  190.5270  175.7700  147.4870 C   0  0  0  0  0  0  0  0  0  0  0  0
  193.3700  174.4190  139.4680 O   0  0  0  0  0  0  0  0  0  0  0  0
  193.3480  173.1660  138.8440 C   0  0  0  0  0  2  0  0  0  0  0  0
  194.0730  173.2130  137.6500 O   0  0  0  0  0  0  0  0  0  0  0  0
  193.1310  173.2030  136.6960 O   0  0  0  0  0  0  0  0  0  0  0  0
  192.9680  169.9590  134.9660 C   0  0  1  0  0  3  0  0  0  0  0  0
  191.2440  169.8470  135.5550 S   0  0  0  0  0  0  0  0  0  0  0  0
  192.7000  172.0100  136.1190 C   0  0  0  0  0  0  0  0  0  0  0  0
  191.2770  171.5760  136.1350 C   0  0  1  0  0  3  0  0  0  0  0  0
  193.5560  171.2030  135.5260 C   0  0  0  0  0  3  0  0  0  0  0  0
  190.4810  172.4380  135.2080 C   0  0  0  0  0  3  0  0  0  0  0  0
  189.7870  173.3410  135.6440 O   0  0  0  0  0  0  0  0  0  0  0  0
  193.7780  168.7270  135.3650 C   0  0  0  0  0  2  0  0  0  0  0  0
  195.3730  168.4210  137.0630 C   0  0  0  0  0  1  0  0  0  0  0  0
  195.1250  169.0860  135.7970 N   0  0  0  0  0  0  0  0  0  0  0  0
  196.0470  168.5100  134.8320 C   0  0  0  0  0  1  0  0  0  0  0  0
  2  1  2  0  0  0  0
  3 33  1  1  0  0  0
  3 12  1  0  0  0  0
  4 12  1  1  0  0  0
  4 14  1  0  0  0  0
  5 43  1  6  0  0  0
  5  9  1  0  0  0  0
  5  3  1  0  0  0  0
  7 13  2  0  0  0  0
  8 11  1  0  0  0  0
  8 13  1  0  0  0  0
  9  4  1  0  0  0  0
  9 10  1  1  0  0  0
 10 11  2  0  0  0  0
 10  6  1  0  0  0  0
 13 14  1  0  0  0  0
 14  2  2  0  0  0  0
 15  1  1  0  0  0  0
 15 16  1  1  0  0  0
 17 15  1  0  0  0  0
 18 17  1  6  0  0  0
 18 32  1  0  0  0  0
 21 19  2  6  0  0  0
 21 20  1  0  0  0  0
 21 18  1  0  0  0  0
 22 21  1  0  0  0  0
 23 22  1  0  0  0  0
 24 25  1  0  0  0  0
 24 23  1  0  0  0  0
 26 27  1  0  0  0  0
 27 29  1  0  0  0  0
 28 27  1  0  0  0  0
 28 29  1  0  0  0  0
 28 25  1  1  0  0  0
 31 30  1  0  0  0  0
 32 31  1  0  0  0  0
 32 30  1  0  0  0  0
 33 34  1  0  0  0  0
 34 35  1  0  0  0  0
 35 36  1  0  0  0  0
 36 37  1  0  0  0  0
 37 38  1  0  0  0  0
 39 38  1  0  0  0  0
 39 42  1  0  0  0  0
 42 40  2  0  0  0  0
 42 41  1  0  0  0  0
 44 43  1  0  0  0  0
 45 44  1  0  0  0  0
 46 45  1  0  0  0  0
 47 54  1  1  0  0  0
 47 51  1  0  0  0  0
 47 48  1  0  0  0  0
 48 50  1  0  0  0  0
 49 50  1  0  0  0  0
 49 46  1  0  0  0  0
 50 52  1  6  0  0  0
 51 49  2  0  0  0  0
 52 53  2  0  0  0  0
 54 56  1  0  0  0  0
 56 55  1  0  0  0  0
 57 56  1  0  0  0  0
M  END
>  <MODEL>
7

>  <REMARK>
 VINA RESULT:      -4.8      1.763      1.974
  Name = 
  26 active torsions:
  status: ('A' for Active; 'I' for Inactive)
    1  A    between atoms: C_2  and  C_40
    2  A    between atoms: O_4  and  O_7
    3  A    between atoms: O_4  and  C_31
    4  A    between atoms: N_5  and  C_48
    5  A    between atoms: O_7  and  C_29
    6  A    between atoms: C_8  and  C_10
    7  A    between atoms: C_8  and  C_32
    8  A    between atoms: C_9  and  C_28
    9  A    between atoms: C_10  and  C_27
   10  A    between atoms: C_11  and  P_45
   11  A    between atoms: C_11  and  N_46
   12  A    between atoms: C_11  and  C_49
   13  A    between atoms: C_15  and  C_48
   14  A    between atoms: C_17  and  C_26
   15  A    between atoms: C_17  and  C_36
   16  A    between atoms: O_18  and  C_26
   17  A    between atoms: O_18  and  P_45
   18  A    between atoms: C_21  and  C_32
   19  A    between atoms: C_24  and  O_30
   20  A    between atoms: C_27  and  C_52
   21  A    between atoms: C_28  and  C_49
   22  A    between atoms: C_29  and  O_30
   23  A    between atoms: C_36  and  C_44
   24  A    between atoms: C_41  and  C_42
   25  A    between atoms: C_42  and  C_43
   26  A    between atoms: C_43  and  C_52
                            x       y       z     vdW  Elec       q    Type
                         _______ _______ _______ _____ _____    ______ ____

>  <TORSDO>
F 26

$$$$
=
 OpenBabel11072409093D

 57 61  0  0  1  0  0  0  0  0999 V2000
  188.6690  172.8050  140.2040 C   0  0  0  0  0  3  0  0  0  0  0  0
  189.2470  173.0370  141.3500 C   0  0  0  0  0  0  0  0  0  0  0  0
  189.9820  176.9050  142.6030 C   0  0  1  0  0  3  0  0  0  0  0  0
  190.3080  174.7350  142.6940 C   0  0  2  0  0  3  0  0  0  0  0  0
  190.4650  176.6700  144.0250 C   0  0  1  0  0  3  0  0  0  0  0  0
  188.8070  175.4620  146.0040 C   0  0  0  0  0  1  0  0  0  0  0  0
  190.9120  171.2020  142.7400 N   0  0  0  0  0  2  0  0  0  0  0  0
  190.3960  172.3310  144.7350 N   0  0  0  0  0  2  0  0  0  0  0  0
  190.6080  175.1650  144.1230 C   0  0  1  0  0  3  0  0  0  0  0  0
  189.6660  174.5760  145.1590 C   0  0  0  0  0  0  0  0  0  0  0  0
  189.6880  173.3110  145.4530 N   0  0  0  0  0  0  0  0  0  0  0  0
  189.4680  175.6970  142.1170 O   0  0  0  0  0  0  0  0  0  0  0  0
  190.4130  172.2540  143.3060 C   0  0  0  0  0  0  0  0  0  0  0  0
  189.8250  173.3270  142.4880 C   0  0  0  0  0  0  0  0  0  0  0  0
  189.2190  173.4140  138.9630 C   0  0  2  0  0  3  0  0  0  0  0  0
  188.4730  174.5270  138.6060 F   0  0  0  0  0  0  0  0  0  0  0  0
  189.1880  172.4020  137.8340 C   0  0  0  0  0  2  0  0  0  0  0  0
  190.6210  172.1450  137.3440 C   0  0  1  0  0  3  0  0  0  0  0  0
  191.9680  174.5110  137.5490 O   0  0  0  0  0  1  0  0  0  0  0  0
  189.9800  174.5050  135.8620 O   0  0  0  0  0  0  0  0  0  0  0  0
  191.2670  173.6400  136.5290 P   0  0  2  0  0  0  0  0  0  0  0  0
  192.3340  173.2070  135.2850 O   0  0  0  0  0  0  0  0  0  0  0  0
  193.5940  173.0850  135.8790 C   0  0  0  0  0  2  0  0  0  0  0  0
  194.5180  174.1940  135.3900 C   0  0  0  0  0  2  0  0  0  0  0  0
  195.9840  173.8180  135.5630 C   0  0  0  0  0  2  0  0  0  0  0  0
  197.9410  175.2380  138.2990 C   0  0  0  0  0  1  0  0  0  0  0  0
  197.0910  175.3250  137.1240 N   0  0  0  0  0  0  0  0  0  0  0  0
  196.4250  174.0200  137.0040 C   0  0  1  0  0  3  0  0  0  0  0  0
  195.7080  175.1490  137.5910 C   0  0  0  0  0  2  0  0  0  0  0  0
  191.1290  170.4310  139.0310 C   0  0  0  0  0  2  0  0  0  0  0  0
  192.0870  170.3090  137.9290 C   0  0  0  0  0  2  0  0  0  0  0  0
  191.6020  171.6400  138.3320 N   0  0  0  0  0  0  0  0  0  0  0  0
  188.9120  177.9860  142.5540 C   0  0  0  0  0  2  0  0  0  0  0  0
  187.8140  177.6120  141.5700 C   0  0  0  0  0  2  0  0  0  0  0  0
  186.4640  177.6030  142.2670 C   0  0  0  0  0  2  0  0  0  0  0  0
  186.2050  178.9560  142.9020 C   0  0  0  0  0  2  0  0  0  0  0  0
  185.4420  178.7960  144.2060 C   0  0  0  0  0  2  0  0  0  0  0  0
  185.8060  177.4920  144.9070 C   0  0  0  0  0  2  0  0  0  0  0  0
  185.0730  177.3560  146.2360 C   0  0  0  0  0  2  0  0  0  0  0  0
  185.8370  179.2830  147.6340 O   0  0  0  0  0  0  0  0  0  0  0  0
  186.6160  177.1670  148.0500 O   0  0  0  0  0  1  0  0  0  0  0  0
  185.8960  177.9230  147.3470 C   0  0  0  0  0  0  0  0  0  0  0  0
  191.7020  177.2930  144.2190 O   0  0  0  0  0  0  0  0  0  0  0  0
  192.6440  176.4130  143.6750 C   0  0  0  0  0  2  0  0  0  0  0  0
  193.5710  176.0400  144.6520 O   0  0  0  0  0  0  0  0  0  0  0  0
  194.7550  176.1250  144.0290 O   0  0  0  0  0  0  0  0  0  0  0  0
  196.0120  172.9750  142.6010 C   0  0  1  0  0  3  0  0  0  0  0  0
  197.5430  173.2760  143.5480 S   0  0  0  0  0  0  0  0  0  0  0  0
  195.5050  174.9870  143.7440 C   0  0  0  0  0  0  0  0  0  0  0  0
  196.7720  174.6570  144.4540 C   0  0  1  0  0  3  0  0  0  0  0  0
  195.1140  174.1390  142.8140 C   0  0  0  0  0  3  0  0  0  0  0  0
  196.4630  174.2370  145.8550 C   0  0  0  0  0  3  0  0  0  0  0  0
  197.2020  173.4710  146.4490 O   0  0  0  0  0  0  0  0  0  0  0  0
  196.3050  172.7570  141.1180 C   0  0  0  0  0  2  0  0  0  0  0  0
  195.2080  170.7540  141.6710 C   0  0  0  0  0  1  0  0  0  0  0  0
  196.1400  171.3560  140.7380 N   0  0  0  0  0  0  0  0  0  0  0  0
  195.4980  171.3450  139.4330 C   0  0  0  0  0  1  0  0  0  0  0  0
  1  2  2  0  0  0  0
  2 14  2  0  0  0  0
  3 33  1  1  0  0  0
  3  5  1  0  0  0  0
  4 12  1  1  0  0  0
  4  9  1  0  0  0  0
  5  9  1  0  0  0  0
  5 43  1  6  0  0  0
  7 13  2  0  0  0  0
  8 11  1  0  0  0  0
  9 10  1  1  0  0  0
 10 11  2  0  0  0  0
 10  6  1  0  0  0  0
 12  3  1  0  0  0  0
 13  8  1  0  0  0  0
 14  4  1  0  0  0  0
 14 13  1  0  0  0  0
 15 16  1  6  0  0  0
 15  1  1  0  0  0  0
 17 15  1  0  0  0  0
 18 17  1  1  0  0  0
 18 32  1  0  0  0  0
 21 20  2  6  0  0  0
 21 18  1  0  0  0  0
 21 19  1  0  0  0  0
 22 23  1  0  0  0  0
 22 21  1  0  0  0  0
 24 25  1  0  0  0  0
 24 23  1  0  0  0  0
 27 29  1  0  0  0  0
 27 26  1  0  0  0  0
 28 25  1  6  0  0  0
 28 27  1  0  0  0  0
 28 29  1  0  0  0  0
 31 32  1  0  0  0  0
 31 30  1  0  0  0  0
 32 30  1  0  0  0  0
 34 35  1  0  0  0  0
 34 33  1  0  0  0  0
 35 36  1  0  0  0  0
 36 37  1  0  0  0  0
 37 38  1  0  0  0  0
 38 39  1  0  0  0  0
 39 42  1  0  0  0  0
 42 40  2  0  0  0  0
 42 41  1  0  0  0  0
 44 43  1  0  0  0  0
 44 45  1  0  0  0  0
 46 45  1  0  0  0  0
 47 54  1  6  0  0  0
 47 51  1  0  0  0  0
 47 48  1  0  0  0  0
 48 50  1  0  0  0  0
 49 46  1  0  0  0  0
 49 50  1  0  0  0  0
 50 52  1  1  0  0  0
 51 49  2  0  0  0  0
 52 53  2  0  0  0  0
 56 54  1  0  0  0  0
 56 55  1  0  0  0  0
 57 56  1  0  0  0  0
M  END
>  <MODEL>
8

>  <REMARK>
 VINA RESULT:      -4.6      3.962      8.962
  Name = 
  26 active torsions:
  status: ('A' for Active; 'I' for Inactive)
    1  A    between atoms: C_2  and  C_40
    2  A    between atoms: O_4  and  O_7
    3  A    between atoms: O_4  and  C_31
    4  A    between atoms: N_5  and  C_48
    5  A    between atoms: O_7  and  C_29
    6  A    between atoms: C_8  and  C_10
    7  A    between atoms: C_8  and  C_32
    8  A    between atoms: C_9  and  C_28
    9  A    between atoms: C_10  and  C_27
   10  A    between atoms: C_11  and  P_45
   11  A    between atoms: C_11  and  N_46
   12  A    between atoms: C_11  and  C_49
   13  A    between atoms: C_15  and  C_48
   14  A    between atoms: C_17  and  C_26
   15  A    between atoms: C_17  and  C_36
   16  A    between atoms: O_18  and  C_26
   17  A    between atoms: O_18  and  P_45
   18  A    between atoms: C_21  and  C_32
   19  A    between atoms: C_24  and  O_30
   20  A    between atoms: C_27  and  C_52
   21  A    between atoms: C_28  and  C_49
   22  A    between atoms: C_29  and  O_30
   23  A    between atoms: C_36  and  C_44
   24  A    between atoms: C_41  and  C_42
   25  A    between atoms: C_42  and  C_43
   26  A    between atoms: C_43  and  C_52
                            x       y       z     vdW  Elec       q    Type
                         _______ _______ _______ _____ _____    ______ ____

>  <TORSDO>
F 26

$$$$
=
 OpenBabel11072409093D

 57 61  0  0  1  0  0  0  0  0999 V2000
  187.9260  174.2030  141.9700 C   0  0  0  0  0  3  0  0  0  0  0  0
  188.7030  173.4850  141.2070 C   0  0  0  0  0  0  0  0  0  0  0  0
  192.3580  172.1360  142.5820 C   0  0  1  0  0  3  0  0  0  0  0  0
  190.9320  172.5930  140.9760 C   0  0  2  0  0  3  0  0  0  0  0  0
  192.7820  171.2160  141.4480 C   0  0  1  0  0  3  0  0  0  0  0  0
  191.2680  168.9110  140.7270 C   0  0  0  0  0  1  0  0  0  0  0  0
  188.6330  173.4630  138.3670 N   0  0  0  0  0  2  0  0  0  0  0  0
  189.5990  171.3210  138.4160 N   0  0  0  0  0  2  0  0  0  0  0  0
  191.7480  171.4620  140.3670 C   0  0  1  0  0  3  0  0  0  0  0  0
  190.9430  170.2110  140.0620 C   0  0  0  0  0  0  0  0  0  0  0  0
  190.0600  170.1890  139.1100 N   0  0  0  0  0  0  0  0  0  0  0  0
  191.0210  172.4930  142.3710 O   0  0  0  0  0  0  0  0  0  0  0  0
  189.2440  172.5520  139.0540 C   0  0  0  0  0  0  0  0  0  0  0  0
  189.5220  172.7650  140.4840 C   0  0  0  0  0  0  0  0  0  0  0  0
  188.4610  175.4270  142.6260 C   0  0  2  0  0  3  0  0  0  0  0  0
  189.7580  175.2060  143.0630 F   0  0  0  0  0  0  0  0  0  0  0  0
  187.5870  175.8040  143.8060 C   0  0  0  0  0  2  0  0  0  0  0  0
  187.6380  177.3260  144.0100 C   0  0  1  0  0  3  0  0  0  0  0  0
  187.2990  178.4130  141.5280 O   0  0  0  0  0  0  0  0  0  0  0  0
  186.0090  179.6090  143.4520 O   0  0  0  0  0  1  0  0  0  0  0  0
  186.5390  178.1410  142.8080 P   0  0  2  0  0  0  0  0  0  0  0  0
  185.1890  177.1630  142.5010 O   0  0  0  0  0  0  0  0  0  0  0  0
  184.0920  178.0270  142.4330 C   0  0  0  0  0  2  0  0  0  0  0  0
  183.7630  178.3520  140.9810 C   0  0  0  0  0  2  0  0  0  0  0  0
  182.3520  177.9100  140.6140 C   0  0  0  0  0  2  0  0  0  0  0  0
  179.4020  180.0290  140.2430 C   0  0  0  0  0  1  0  0  0  0  0  0
  180.0940  178.7520  140.2570 N   0  0  0  0  0  0  0  0  0  0  0  0
  181.3360  178.9690  141.0130 C   0  0  1  0  0  3  0  0  0  0  0  0
  180.1910  178.3410  141.6650 C   0  0  0  0  0  2  0  0  0  0  0  0
  186.1740  177.2400  145.9830 C   0  0  0  0  0  2  0  0  0  0  0  0
  187.5050  176.7580  146.3600 C   0  0  0  0  0  2  0  0  0  0  0  0
  187.3740  177.8430  145.3720 N   0  0  0  0  0  0  0  0  0  0  0  0
  192.5100  171.4530  143.9330 C   0  0  0  0  0  2  0  0  0  0  0  0
  193.3120  172.3240  144.8890 C   0  0  0  0  0  2  0  0  0  0  0  0
  194.6120  172.7630  144.2370 C   0  0  0  0  0  2  0  0  0  0  0  0
  194.7340  174.2730  144.3030 C   0  0  0  0  0  2  0  0  0  0  0  0
  195.0710  174.7190  145.7170 C   0  0  0  0  0  2  0  0  0  0  0  0
  194.4100  176.0510  146.0530 C   0  0  0  0  0  2  0  0  0  0  0  0
  192.9330  175.8680  146.3780 C   0  0  0  0  0  2  0  0  0  0  0  0
  192.6630  177.1730  144.2620 O   0  0  0  0  0  0  0  0  0  0  0  0
  190.8440  176.7080  145.5790 O   0  0  0  0  0  1  0  0  0  0  0  0
  192.0870  176.6140  145.3980 C   0  0  0  0  0  0  0  0  0  0  0  0
  194.0560  171.5700  140.9960 O   0  0  0  0  0  0  0  0  0  0  0  0
  194.3910  170.5970  140.0470 C   0  0  0  0  0  2  0  0  0  0  0  0
  195.3170  171.1150  139.1370 O   0  0  0  0  0  0  0  0  0  0  0  0
  196.1890  171.7860  139.9030 O   0  0  0  0  0  0  0  0  0  0  0  0
  197.9390  174.4520  138.0700 C   0  0  1  0  0  3  0  0  0  0  0  0
  197.1080  175.6280  139.1910 S   0  0  0  0  0  0  0  0  0  0  0  0
  196.7190  173.0070  139.4950 C   0  0  0  0  0  0  0  0  0  0  0  0
  196.5050  174.2710  140.2500 C   0  0  1  0  0  3  0  0  0  0  0  0
  197.4460  173.0900  138.3990 C   0  0  0  0  0  3  0  0  0  0  0  0
  197.2900  174.2320  141.5220 C   0  0  0  0  0  3  0  0  0  0  0  0
  197.5560  173.1670  142.0530 O   0  0  0  0  0  0  0  0  0  0  0  0
  197.6860  174.8010  136.6040 C   0  0  0  0  0  2  0  0  0  0  0  0
  196.7850  176.6410  135.4540 C   0  0  0  0  0  1  0  0  0  0  0  0
  196.4900  175.6240  136.4460 N   0  0  0  0  0  0  0  0  0  0  0  0
  195.4600  174.7680  135.8780 C   0  0  0  0  0  1  0  0  0  0  0  0
  1 15  1  0  0  0  0
  2  1  2  0  0  0  0
  3 33  1  1  0  0  0
  4 14  1  1  0  0  0
  4 12  1  0  0  0  0
  5 43  1  6  0  0  0
  5  3  1  0  0  0  0
  7 13  2  0  0  0  0
  8 13  1  0  0  0  0
  8 11  1  0  0  0  0
  9 10  1  1  0  0  0
  9  4  1  0  0  0  0
  9  5  1  0  0  0  0
 10  6  1  0  0  0  0
 11 10  2  0  0  0  0
 12  3  1  0  0  0  0
 13 14  1  0  0  0  0
 14  2  2  0  0  0  0
 15 16  1  1  0  0  0
 15 17  1  0  0  0  0
 18 17  1  1  0  0  0
 18 32  1  0  0  0  0
 21 19  2  6  0  0  0
 21 20  1  0  0  0  0
 21 18  1  0  0  0  0
 22 21  1  0  0  0  0
 23 22  1  0  0  0  0
 24 23  1  0  0  0  0
 25 24  1  0  0  0  0
 26 27  1  0  0  0  0
 27 28  1  0  0  0  0
 27 29  1  0  0  0  0
 28 25  1  6  0  0  0
 28 29  1  0  0  0  0
 30 31  1  0  0  0  0
 32 30  1  0  0  0  0
 32 31  1  0  0  0  0
 33 34  1  0  0  0  0
 35 36  1  0  0  0  0
 35 34  1  0  0  0  0
 36 37  1  0  0  0  0
 37 38  1  0  0  0  0
 38 39  1  0  0  0  0
 40 42  2  0  0  0  0
 42 41  1  0  0  0  0
 42 39  1  0  0  0  0
 44 43  1  0  0  0  0
 45 46  1  0  0  0  0
 45 44  1  0  0  0  0
 47 54  1  6  0  0  0
 47 51  1  0  0  0  0
 47 48  1  0  0  0  0
 48 50  1  0  0  0  0
 49 46  1  0  0  0  0
 49 50  1  0  0  0  0
 50 52  1  1  0  0  0
 51 49  2  0  0  0  0
 52 53  2  0  0  0  0
 55 56  1  0  0  0  0
 56 54  1  0  0  0  0
 57 56  1  0  0  0  0
M  END
>  <MODEL>
9

>  <REMARK>
 VINA RESULT:      -4.6      2.886      4.472
  Name = 
  26 active torsions:
  status: ('A' for Active; 'I' for Inactive)
    1  A    between atoms: C_2  and  C_40
    2  A    between atoms: O_4  and  O_7
    3  A    between atoms: O_4  and  C_31
    4  A    between atoms: N_5  and  C_48
    5  A    between atoms: O_7  and  C_29
    6  A    between atoms: C_8  and  C_10
    7  A    between atoms: C_8  and  C_32
    8  A    between atoms: C_9  and  C_28
    9  A    between atoms: C_10  and  C_27
   10  A    between atoms: C_11  and  P_45
   11  A    between atoms: C_11  and  N_46
   12  A    between atoms: C_11  and  C_49
   13  A    between atoms: C_15  and  C_48
   14  A    between atoms: C_17  and  C_26
   15  A    between atoms: C_17  and  C_36
   16  A    between atoms: O_18  and  C_26
   17  A    between atoms: O_18  and  P_45
   18  A    between atoms: C_21  and  C_32
   19  A    between atoms: C_24  and  O_30
   20  A    between atoms: C_27  and  C_52
   21  A    between atoms: C_28  and  C_49
   22  A    between atoms: C_29  and  O_30
   23  A    between atoms: C_36  and  C_44
   24  A    between atoms: C_41  and  C_42
   25  A    between atoms: C_42  and  C_43
   26  A    between atoms: C_43  and  C_52
                            x       y       z     vdW  Elec       q    Type
                         _______ _______ _______ _____ _____    ______ ____

>  <TORSDO>
F 26

$$$$
