=
 OpenBabel11062421323D

 55 58  0  0  1  0  0  0  0  0999 V2000
  186.5440  177.2830  144.7700 C   0  0  0  0  0  0  0  0  0  0  0  0
  189.6180  174.8370  144.4210 C   0  0  2  0  0  3  0  0  0  0  0  0
  186.7860  177.9470  143.4520 C   0  0  1  0  0  3  0  0  0  0  0  0
  189.0060  174.8760  145.8460 C   0  0  2  0  0  3  0  0  0  0  0  0
  188.5510  175.0710  143.3560 C   0  0  0  0  0  2  0  0  0  0  0  0
  187.3570  177.0130  142.3600 C   0  0  1  0  0  3  0  0  0  0  0  0
  185.3920  178.5610  143.1450 C   0  0  2  0  0  3  0  0  0  0  0  0
  187.5470  177.7840  141.0650 C   0  0  0  0  0  1  0  0  0  0  0  0
  184.6260  178.4330  144.3830 N   0  0  0  0  0  2  0  0  0  0  0  0
  188.4560  176.2290  146.2010 C   0  0  0  0  0  3  0  0  0  0  0  0
  184.6990  177.4370  146.6040 C   0  0  0  0  0  1  0  0  0  0  0  0
  188.7150  176.4570  142.7580 C   0  0  0  0  0  2  0  0  0  0  0  0
  184.6960  177.8420  142.0870 N   0  0  0  0  0  1  0  0  0  0  0  0
  187.4830  176.7710  145.5200 C   0  0  0  0  0  0  0  0  0  0  0  0
  185.2550  177.7240  145.2540 C   0  0  2  0  0  3  0  0  0  0  0  0
  190.4000  173.5450  144.1310 C   0  0  1  0  0  3  0  0  0  0  0  0
  189.6390  172.2740  144.5000 C   0  0  0  0  0  1  0  0  0  0  0  0
  190.9340  173.4960  142.7000 C   0  0  0  0  0  2  0  0  0  0  0  0
  190.4990  172.3460  142.0280 O   0  0  0  0  0  0  0  0  0  0  0  0
  191.2580  172.2940  140.8530 C   0  0  1  0  0  3  0  0  0  0  0  0
  191.1050  170.9390  140.1650 C   0  0  0  0  0  2  0  0  0  0  0  0
  190.9260  169.8400  141.1940 C   0  0  0  0  0  1  0  0  0  0  0  0
  190.8850  173.4510  139.9130 C   0  0  0  0  0  2  0  0  0  0  0  0
  189.8730  173.1360  138.7960 C   0  0  2  0  0  3  0  0  0  0  0  0
  189.3490  174.1770  136.7460 O   0  0  0  0  0  0  0  0  0  0  0  0
  190.2360  173.8190  137.5080 C   0  0  0  0  0  0  0  0  0  0  0  0
  191.8110  175.2030  136.1670 C   0  0  0  0  0  1  0  0  0  0  0  0
  191.6720  174.0110  137.0990 C   0  0  2  0  0  3  0  0  0  0  0  0
  192.0360  172.4340  135.3640 O   0  0  0  0  0  0  0  0  0  0  0  0
  192.3060  172.7830  136.5030 C   0  0  0  0  0  0  0  0  0  0  0  0
  193.3060  172.0120  137.3020 C   0  0  0  0  0  2  0  0  0  0  0  0
  194.1730  172.9590  138.1180 C   0  0  0  0  0  2  0  0  0  0  0  0
  195.3700  173.4100  137.3020 C   0  0  0  0  0  2  0  0  0  0  0  0
  196.4770  173.7370  138.1830 N   0  0  0  0  0  1  0  0  0  0  0  0
  188.5490  173.4200  139.1480 O   0  0  0  0  0  0  0  0  0  0  0  0
  188.6330  174.4830  139.9200 O   0  0  0  0  0  1  0  0  0  0  0  0
  190.0350  174.5200  146.9140 C   0  0  0  0  0  2  0  0  0  0  0  0
  190.6730  175.7640  147.5320 C   0  0  0  0  0  2  0  0  0  0  0  0
  193.6250  175.2780  145.4120 C   0  0  2  0  0  0  0  0  0  0  0  0
  194.1800  174.3840  144.3650 C   0  0  2  0  0  0  0  0  0  0  0  0
  192.2320  177.1020  146.0170 C   0  0  0  0  0  2  0  0  0  0  0  0
  192.1160  176.0110  147.0850 C   0  0  2  0  0  3  0  0  0  0  0  0
  194.9550  174.8200  145.4620 O   0  0  0  0  0  0  0  0  0  0  0  0
  194.6390  177.5700  145.6900 C   0  0  0  0  0  1  0  0  0  0  0  0
  192.7930  174.7560  146.5530 C   0  0  0  0  0  2  0  0  0  0  0  0
  193.4530  176.7690  145.1770 C   0  0  1  0  0  3  0  0  0  0  0  0
  194.7300  174.9150  143.0700 C   0  0  0  0  0  0  0  0  0  0  0  0
  193.9510  175.1650  142.1060 O   0  0  0  0  0  0  0  0  0  0  0  0
  196.1020  175.1240  142.9450 O   0  0  0  0  0  0  0  0  0  0  0  0
  196.6520  176.4310  142.8590 C   0  0  0  0  0  1  0  0  0  0  0  0
  193.9280  173.0050  144.4610 O   0  0  0  0  0  0  0  0  0  0  0  0
  194.3680  172.4340  143.2560 C   0  0  0  0  0  2  0  0  0  0  0  0
  194.1320  170.9350  143.2760 C   0  0  0  0  0  2  0  0  0  0  0  0
  192.8710  169.0980  144.3400 C   0  0  0  0  0  1  0  0  0  0  0  0
  192.9610  170.6010  144.1770 C   0  0  0  0  0  2  0  0  0  0  0  0
  1 15  1  0  0  0  0
  1 14  2  0  0  0  0
  2 16  1  6  0  0  0
  2  4  1  0  0  0  0
  3  1  1  1  0  0  0
  4 10  1  0  0  0  0
  4 37  1  1  0  0  0
  5  2  1  0  0  0  0
  6  8  1  6  0  0  0
  6 12  1  0  0  0  0
  6  3  1  0  0  0  0
  7 13  1  6  0  0  0
  7  3  1  0  0  0  0
  7  9  1  0  0  0  0
  9 15  1  0  0  0  0
 12  5  1  0  0  0  0
 14 10  2  0  0  0  0
 15 11  1  1  0  0  0
 16 17  1  6  0  0  0
 18 16  1  0  0  0  0
 19 18  1  0  0  0  0
 20 23  1  6  0  0  0
 20 19  1  0  0  0  0
 21 20  1  0  0  0  0
 21 22  1  0  0  0  0
 24 35  1  0  0  0  0
 24 23  1  1  0  0  0
 25 26  2  0  0  0  0
 26 24  1  0  0  0  0
 28 27  1  6  0  0  0
 28 26  1  0  0  0  0
 29 30  2  0  0  0  0
 30 28  1  0  0  0  0
 30 31  1  0  0  0  0
 31 32  1  0  0  0  0
 33 32  1  0  0  0  0
 33 34  1  0  0  0  0
 35 36  1  0  0  0  0
 37 38  1  0  0  0  0
 39 43  1  0  0  0  0
 39 45  1  1  0  0  0
 40 47  1  6  0  0  0
 40 51  1  0  0  0  0
 40 39  1  0  0  0  0
 40 43  1  0  0  0  0
 41 42  1  0  0  0  0
 42 38  1  6  0  0  0
 45 42  1  0  0  0  0
 46 39  1  0  0  0  0
 46 44  1  1  0  0  0
 46 41  1  0  0  0  0
 48 47  2  0  0  0  0
 49 47  1  0  0  0  0
 50 49  1  0  0  0  0
 52 53  1  0  0  0  0
 52 51  1  0  0  0  0
 53 55  1  0  0  0  0
 55 54  1  0  0  0  0
M  END
>  <MODEL>
1

>  <REMARK>
 VINA RESULT:      -6.0      0.000      0.000
  Name = 
  23 active torsions:
  status: ('A' for Active; 'I' for Inactive)
    1  A    between atoms: O_1  and  C_25
    2  A    between atoms: O_2  and  C_9
    3  A    between atoms: O_2  and  C_22
    4  A    between atoms: C_4  and  C_17
    5  A    between atoms: O_5  and  C_16
    6  A    between atoms: C_6  and  C_35
    7  A    between atoms: C_8  and  C_47
    8  A    between atoms: C_9  and  C_33
    9  A    between atoms: C_15  and  C_16
   10  A    between atoms: C_15  and  C_46
   11  A    between atoms: C_16  and  C_26
   12  A    between atoms: C_17  and  C_54
   13  A    between atoms: C_19  and  C_35
   14  A    between atoms: C_19  and  C_55
   15  A    between atoms: C_20  and  C_33
   16  A    between atoms: C_22  and  C_25
   17  A    between atoms: C_23  and  C_36
   18  A    between atoms: C_26  and  C_36
   19  A    between atoms: C_30  and  C_32
   20  A    between atoms: C_30  and  C_47
   21  A    between atoms: C_36  and  O_40
   22  A    between atoms: O_40  and  C_54
   23  A    between atoms: C_46  and  C_55
                            x       y       z     vdW  Elec       q    Type
                         _______ _______ _______ _____ _____    ______ ____

>  <TORSDO>
F 23

$$$$
=
 OpenBabel11062421323D

 55 58  0  0  1  0  0  0  0  0999 V2000
  186.8520  177.7450  144.7660 C   0  0  0  0  0  0  0  0  0  0  0  0
  189.7180  175.0450  144.5500 C   0  0  2  0  0  3  0  0  0  0  0  0
  186.9300  178.0990  143.3150 C   0  0  1  0  0  3  0  0  0  0  0  0
  189.3240  175.4270  146.0010 C   0  0  2  0  0  3  0  0  0  0  0  0
  188.5190  175.1360  143.6110 C   0  0  0  0  0  2  0  0  0  0  0  0
  187.2880  176.9160  142.3850 C   0  0  1  0  0  3  0  0  0  0  0  0
  185.5380  178.7440  143.0700 C   0  0  2  0  0  3  0  0  0  0  0  0
  187.3230  177.3840  140.9400 C   0  0  0  0  0  1  0  0  0  0  0  0
  184.9570  178.9380  144.3970 N   0  0  0  0  0  2  0  0  0  0  0  0
  188.8990  176.8640  146.1240 C   0  0  0  0  0  3  0  0  0  0  0  0
  185.3060  178.4220  146.7510 C   0  0  0  0  0  1  0  0  0  0  0  0
  188.6610  176.3490  142.7110 C   0  0  0  0  0  2  0  0  0  0  0  0
  184.6590  177.8780  142.2950 N   0  0  0  0  0  1  0  0  0  0  0  0
  187.8650  177.3270  145.4760 C   0  0  0  0  0  0  0  0  0  0  0  0
  185.6710  178.3770  145.3090 C   0  0  2  0  0  3  0  0  0  0  0  0
  190.3850  173.6630  144.4460 C   0  0  1  0  0  3  0  0  0  0  0  0
  189.5580  172.5370  145.0610 C   0  0  0  0  0  1  0  0  0  0  0  0
  190.8260  173.3350  143.0190 C   0  0  0  0  0  2  0  0  0  0  0  0
  191.3340  172.0330  142.9250 O   0  0  0  0  0  0  0  0  0  0  0  0
  190.9460  171.5750  141.6600 C   0  0  1  0  0  3  0  0  0  0  0  0
  190.5540  170.0990  141.7130 C   0  0  0  0  0  2  0  0  0  0  0  0
  191.2800  169.3190  140.6330 C   0  0  0  0  0  1  0  0  0  0  0  0
  189.8110  172.4410  141.0930 C   0  0  0  0  0  2  0  0  0  0  0  0
  189.5990  172.3940  139.5680 C   0  0  2  0  0  3  0  0  0  0  0  0
  191.4920  173.7870  139.3840 O   0  0  0  0  0  0  0  0  0  0  0  0
  190.7710  172.9710  138.8270 C   0  0  0  0  0  0  0  0  0  0  0  0
  192.4060  171.9730  137.2370 C   0  0  0  0  0  1  0  0  0  0  0  0
  191.0400  172.6210  137.3870 C   0  0  2  0  0  3  0  0  0  0  0  0
  189.7930  174.3010  136.2690 O   0  0  0  0  0  0  0  0  0  0  0  0
  190.8840  173.7780  136.4380 C   0  0  0  0  0  0  0  0  0  0  0  0
  192.0860  174.3130  135.7300 C   0  0  0  0  0  2  0  0  0  0  0  0
  192.5060  175.6440  136.3350 C   0  0  0  0  0  2  0  0  0  0  0  0
  192.2880  176.7680  135.3390 C   0  0  0  0  0  2  0  0  0  0  0  0
  193.3990  177.7000  135.3910 N   0  0  0  0  0  1  0  0  0  0  0  0
  188.4080  172.9970  139.1540 O   0  0  0  0  0  0  0  0  0  0  0  0
  188.2970  174.0670  139.9110 O   0  0  0  0  0  1  0  0  0  0  0  0
  190.4810  175.2210  146.9730 C   0  0  0  0  0  2  0  0  0  0  0  0
  191.3540  176.4690  147.0990 C   0  0  0  0  0  2  0  0  0  0  0  0
  194.0440  174.7330  145.3140 C   0  0  2  0  0  0  0  0  0  0  0  0
  194.3840  173.4300  144.6870 C   0  0  2  0  0  0  0  0  0  0  0  0
  192.9910  176.8550  145.1790 C   0  0  0  0  0  2  0  0  0  0  0  0
  192.7830  176.2840  146.5840 C   0  0  2  0  0  3  0  0  0  0  0  0
  195.2900  174.1120  145.5300 O   0  0  0  0  0  0  0  0  0  0  0  0
  195.4120  176.7560  144.6850 C   0  0  0  0  0  1  0  0  0  0  0  0
  193.2230  174.8280  146.5720 C   0  0  0  0  0  2  0  0  0  0  0  0
  194.0860  176.0300  144.5250 C   0  0  1  0  0  3  0  0  0  0  0  0
  194.9170  173.3320  143.2860 C   0  0  0  0  0  0  0  0  0  0  0  0
  194.1590  172.9650  142.3430 O   0  0  0  0  0  0  0  0  0  0  0  0
  196.2520  173.6490  143.0390 O   0  0  0  0  0  0  0  0  0  0  0  0
  196.6460  174.3720  141.8820 C   0  0  0  0  0  1  0  0  0  0  0  0
  193.9310  172.2530  145.3070 O   0  0  0  0  0  0  0  0  0  0  0  0
  195.0740  171.4940  145.6040 C   0  0  0  0  0  2  0  0  0  0  0  0
  194.8770  170.0600  145.1490 C   0  0  0  0  0  2  0  0  0  0  0  0
  194.7430  168.9190  147.3350 C   0  0  0  0  0  1  0  0  0  0  0  0
  195.5850  169.1090  146.0920 C   0  0  0  0  0  2  0  0  0  0  0  0
  1 15  1  0  0  0  0
  1 14  2  0  0  0  0
  2 16  1  1  0  0  0
  2  4  1  0  0  0  0
  3  1  1  1  0  0  0
  4 10  1  0  0  0  0
  4 37  1  1  0  0  0
  5  2  1  0  0  0  0
  6  8  1  6  0  0  0
  6 12  1  0  0  0  0
  6  3  1  0  0  0  0
  7 13  1  6  0  0  0
  7  3  1  0  0  0  0
  7  9  1  0  0  0  0
  9 15  1  0  0  0  0
 12  5  1  0  0  0  0
 14 10  2  0  0  0  0
 15 11  1  1  0  0  0
 16 17  1  6  0  0  0
 18 16  1  0  0  0  0
 19 18  1  0  0  0  0
 20 23  1  1  0  0  0
 20 21  1  0  0  0  0
 20 19  1  0  0  0  0
 22 21  1  0  0  0  0
 24 23  1  1  0  0  0
 26 25  2  0  0  0  0
 26 24  1  0  0  0  0
 28 27  1  1  0  0  0
 28 26  1  0  0  0  0
 29 30  2  0  0  0  0
 30 28  1  0  0  0  0
 31 32  1  0  0  0  0
 31 30  1  0  0  0  0
 33 34  1  0  0  0  0
 33 32  1  0  0  0  0
 35 24  1  0  0  0  0
 35 36  1  0  0  0  0
 37 38  1  0  0  0  0
 39 43  1  0  0  0  0
 39 45  1  1  0  0  0
 40 47  1  6  0  0  0
 40 51  1  0  0  0  0
 40 39  1  0  0  0  0
 40 43  1  0  0  0  0
 41 42  1  0  0  0  0
 42 38  1  6  0  0  0
 45 42  1  0  0  0  0
 46 44  1  1  0  0  0
 46 41  1  0  0  0  0
 46 39  1  0  0  0  0
 48 47  2  0  0  0  0
 49 47  1  0  0  0  0
 50 49  1  0  0  0  0
 51 52  1  0  0  0  0
 53 52  1  0  0  0  0
 53 55  1  0  0  0  0
 55 54  1  0  0  0  0
M  END
>  <MODEL>
2

>  <REMARK>
 VINA RESULT:      -5.9      1.493      1.916
  Name = 
  23 active torsions:
  status: ('A' for Active; 'I' for Inactive)
    1  A    between atoms: O_1  and  C_25
    2  A    between atoms: O_2  and  C_9
    3  A    between atoms: O_2  and  C_22
    4  A    between atoms: C_4  and  C_17
    5  A    between atoms: O_5  and  C_16
    6  A    between atoms: C_6  and  C_35
    7  A    between atoms: C_8  and  C_47
    8  A    between atoms: C_9  and  C_33
    9  A    between atoms: C_15  and  C_16
   10  A    between atoms: C_15  and  C_46
   11  A    between atoms: C_16  and  C_26
   12  A    between atoms: C_17  and  C_54
   13  A    between atoms: C_19  and  C_35
   14  A    between atoms: C_19  and  C_55
   15  A    between atoms: C_20  and  C_33
   16  A    between atoms: C_22  and  C_25
   17  A    between atoms: C_23  and  C_36
   18  A    between atoms: C_26  and  C_36
   19  A    between atoms: C_30  and  C_32
   20  A    between atoms: C_30  and  C_47
   21  A    between atoms: C_36  and  O_40
   22  A    between atoms: O_40  and  C_54
   23  A    between atoms: C_46  and  C_55
                            x       y       z     vdW  Elec       q    Type
                         _______ _______ _______ _____ _____    ______ ____

>  <TORSDO>
F 23

$$$$
=
 OpenBabel11062421323D

 55 58  0  0  1  0  0  0  0  0999 V2000
  186.6800  177.3480  144.7060 C   0  0  0  0  0  0  0  0  0  0  0  0
  189.6680  174.7950  144.3820 C   0  0  2  0  0  3  0  0  0  0  0  0
  186.9210  177.9650  143.3650 C   0  0  1  0  0  3  0  0  0  0  0  0
  189.0810  174.8960  145.8140 C   0  0  2  0  0  3  0  0  0  0  0  0
  188.5910  175.0320  143.3270 C   0  0  0  0  0  2  0  0  0  0  0  0
  187.4430  176.9800  142.2920 C   0  0  1  0  0  3  0  0  0  0  0  0
  185.5420  178.6140  143.0610 C   0  0  2  0  0  3  0  0  0  0  0  0
  187.6350  177.7060  140.9710 C   0  0  0  0  0  1  0  0  0  0  0  0
  184.7940  178.5490  144.3150 N   0  0  0  0  0  2  0  0  0  0  0  0
  188.5810  176.2760  146.1380 C   0  0  0  0  0  3  0  0  0  0  0  0
  184.8720  177.6180  146.5640 C   0  0  0  0  0  1  0  0  0  0  0  0
  188.7880  176.3920  142.6850 C   0  0  0  0  0  2  0  0  0  0  0  0
  184.8050  177.8870  142.0370 N   0  0  0  0  0  1  0  0  0  0  0  0
  187.6150  176.8290  145.4550 C   0  0  0  0  0  0  0  0  0  0  0  0
  185.4150  177.8460  145.1970 C   0  0  2  0  0  3  0  0  0  0  0  0
  190.4030  173.4690  144.1190 C   0  0  1  0  0  3  0  0  0  0  0  0
  189.6250  172.2380  144.5760 C   0  0  0  0  0  1  0  0  0  0  0  0
  190.8740  173.3430  142.6700 C   0  0  0  0  0  2  0  0  0  0  0  0
  190.2710  172.2540  142.0270 O   0  0  0  0  0  0  0  0  0  0  0  0
  191.3100  171.5990  141.3550 C   0  0  1  0  0  3  0  0  0  0  0  0
  192.4660  171.2960  142.3060 C   0  0  0  0  0  2  0  0  0  0  0  0
  192.2440  169.9690  143.0050 C   0  0  0  0  0  1  0  0  0  0  0  0
  190.7940  170.3250  140.6680 C   0  0  0  0  0  2  0  0  0  0  0  0
  191.5130  169.8970  139.3750 C   0  0  2  0  0  3  0  0  0  0  0  0
  189.6010  169.7910  137.9980 O   0  0  0  0  0  0  0  0  0  0  0  0
  190.7200  170.2610  138.1520 C   0  0  0  0  0  0  0  0  0  0  0  0
  192.8130  171.0260  137.0420 C   0  0  0  0  0  1  0  0  0  0  0  0
  191.2980  171.1380  137.0730 C   0  0  2  0  0  3  0  0  0  0  0  0
  191.5750  173.4080  137.7080 O   0  0  0  0  0  0  0  0  0  0  0  0
  190.8660  172.5770  137.1600 C   0  0  0  0  0  0  0  0  0  0  0  0
  189.5750  172.9950  136.5340 C   0  0  0  0  0  2  0  0  0  0  0  0
  188.9890  174.1850  137.2770 C   0  0  0  0  0  2  0  0  0  0  0  0
  188.1390  173.7130  138.4430 C   0  0  0  0  0  2  0  0  0  0  0  0
  188.6830  174.2160  139.6900 N   0  0  0  0  0  1  0  0  0  0  0  0
  191.8580  168.5420  139.3530 O   0  0  0  0  0  0  0  0  0  0  0  0
  193.0600  168.4980  139.8850 O   0  0  0  0  0  1  0  0  0  0  0  0
  190.1170  174.5390  146.8760 C   0  0  0  0  0  2  0  0  0  0  0  0
  190.7620  175.7820  147.4890 C   0  0  0  0  0  2  0  0  0  0  0  0
  193.7510  175.1800  145.4520 C   0  0  2  0  0  0  0  0  0  0  0  0
  194.3390  174.2110  144.4940 C   0  0  2  0  0  0  0  0  0  0  0  0
  192.3110  177.0180  145.8800 C   0  0  0  0  0  2  0  0  0  0  0  0
  192.2050  176.0210  147.0380 C   0  0  2  0  0  3  0  0  0  0  0  0
  195.0900  174.7590  145.5580 O   0  0  0  0  0  0  0  0  0  0  0  0
  194.7110  177.5100  145.5390 C   0  0  0  0  0  1  0  0  0  0  0  0
  192.9150  174.7410  146.6260 C   0  0  0  0  0  2  0  0  0  0  0  0
  193.5490  176.6400  145.0860 C   0  0  1  0  0  3  0  0  0  0  0  0
  194.8940  174.6380  143.1640 C   0  0  0  0  0  0  0  0  0  0  0  0
  196.0500  175.1450  143.0930 O   0  0  0  0  0  0  0  0  0  0  0  0
  194.1210  174.4720  142.0160 O   0  0  0  0  0  0  0  0  0  0  0  0
  194.6400  173.8450  140.8520 C   0  0  0  0  0  1  0  0  0  0  0  0
  194.1160  172.8400  144.7080 O   0  0  0  0  0  0  0  0  0  0  0  0
  195.3320  172.1920  144.4440 C   0  0  0  0  0  2  0  0  0  0  0  0
  195.7330  171.3360  145.6310 C   0  0  0  0  0  2  0  0  0  0  0  0
  195.1970  169.2800  146.8900 C   0  0  0  0  0  1  0  0  0  0  0  0
  194.6520  170.3190  145.9330 C   0  0  0  0  0  2  0  0  0  0  0  0
  1 15  1  0  0  0  0
  1 14  2  0  0  0  0
  2 16  1  6  0  0  0
  2  4  1  0  0  0  0
  3  1  1  1  0  0  0
  4 10  1  0  0  0  0
  4 37  1  1  0  0  0
  5  2  1  0  0  0  0
  6  8  1  6  0  0  0
  6 12  1  0  0  0  0
  6  3  1  0  0  0  0
  7 13  1  6  0  0  0
  7  3  1  0  0  0  0
  7  9  1  0  0  0  0
  9 15  1  0  0  0  0
 12  5  1  0  0  0  0
 14 10  2  0  0  0  0
 15 11  1  1  0  0  0
 16 17  1  6  0  0  0
 18 16  1  0  0  0  0
 19 18  1  0  0  0  0
 20 23  1  1  0  0  0
 20 19  1  0  0  0  0
 20 21  1  0  0  0  0
 21 22  1  0  0  0  0
 24 23  1  1  0  0  0
 25 26  2  0  0  0  0
 26 24  1  0  0  0  0
 28 27  1  1  0  0  0
 28 30  1  0  0  0  0
 28 26  1  0  0  0  0
 30 29  2  0  0  0  0
 31 30  1  0  0  0  0
 31 32  1  0  0  0  0
 32 33  1  0  0  0  0
 33 34  1  0  0  0  0
 35 24  1  0  0  0  0
 35 36  1  0  0  0  0
 37 38  1  0  0  0  0
 39 43  1  0  0  0  0
 39 45  1  1  0  0  0
 40 47  1  6  0  0  0
 40 51  1  0  0  0  0
 40 39  1  0  0  0  0
 40 43  1  0  0  0  0
 41 42  1  0  0  0  0
 42 38  1  6  0  0  0
 45 42  1  0  0  0  0
 46 39  1  0  0  0  0
 46 44  1  1  0  0  0
 46 41  1  0  0  0  0
 48 47  2  0  0  0  0
 49 47  1  0  0  0  0
 50 49  1  0  0  0  0
 52 51  1  0  0  0  0
 52 53  1  0  0  0  0
 53 55  1  0  0  0  0
 55 54  1  0  0  0  0
M  END
>  <MODEL>
3

>  <REMARK>
 VINA RESULT:      -5.9      1.764      2.743
  Name = 
  23 active torsions:
  status: ('A' for Active; 'I' for Inactive)
    1  A    between atoms: O_1  and  C_25
    2  A    between atoms: O_2  and  C_9
    3  A    between atoms: O_2  and  C_22
    4  A    between atoms: C_4  and  C_17
    5  A    between atoms: O_5  and  C_16
    6  A    between atoms: C_6  and  C_35
    7  A    between atoms: C_8  and  C_47
    8  A    between atoms: C_9  and  C_33
    9  A    between atoms: C_15  and  C_16
   10  A    between atoms: C_15  and  C_46
   11  A    between atoms: C_16  and  C_26
   12  A    between atoms: C_17  and  C_54
   13  A    between atoms: C_19  and  C_35
   14  A    between atoms: C_19  and  C_55
   15  A    between atoms: C_20  and  C_33
   16  A    between atoms: C_22  and  C_25
   17  A    between atoms: C_23  and  C_36
   18  A    between atoms: C_26  and  C_36
   19  A    between atoms: C_30  and  C_32
   20  A    between atoms: C_30  and  C_47
   21  A    between atoms: C_36  and  O_40
   22  A    between atoms: O_40  and  C_54
   23  A    between atoms: C_46  and  C_55
                            x       y       z     vdW  Elec       q    Type
                         _______ _______ _______ _____ _____    ______ ____

>  <TORSDO>
F 23

$$$$
=
 OpenBabel11062421323D

 55 58  0  0  1  0  0  0  0  0999 V2000
  186.8110  177.6540  144.5470 C   0  0  0  0  0  0  0  0  0  0  0  0
  189.0070  174.6920  143.1490 C   0  0  2  0  0  3  0  0  0  0  0  0
  186.5710  178.2550  143.1990 C   0  0  1  0  0  3  0  0  0  0  0  0
  189.0750  174.8500  144.6900 C   0  0  2  0  0  3  0  0  0  0  0  0
  187.6400  175.1070  142.6120 C   0  0  0  0  0  2  0  0  0  0  0  0
  186.4630  177.2250  142.0490 C   0  0  1  0  0  3  0  0  0  0  0  0
  185.2970  179.1070  143.4520 C   0  0  2  0  0  3  0  0  0  0  0  0
  186.2040  177.9400  140.7340 C   0  0  0  0  0  1  0  0  0  0  0  0
  185.1230  179.1290  144.9030 N   0  0  0  0  0  2  0  0  0  0  0  0
  188.9540  176.2830  145.1300 C   0  0  0  0  0  3  0  0  0  0  0  0
  185.9750  178.1520  146.9650 C   0  0  0  0  0  1  0  0  0  0  0  0
  187.7530  176.4360  141.8880 C   0  0  0  0  0  2  0  0  0  0  0  0
  184.1110  178.5190  142.8460 N   0  0  0  0  0  1  0  0  0  0  0  0
  187.8840  176.9860  144.8750 C   0  0  0  0  0  0  0  0  0  0  0  0
  185.9410  178.3240  145.4870 C   0  0  2  0  0  3  0  0  0  0  0  0
  189.3720  173.2770  142.6670 C   0  0  1  0  0  3  0  0  0  0  0  0
  188.2560  172.5910  141.8830 C   0  0  0  0  0  1  0  0  0  0  0  0
  190.7020  173.2440  141.9150 C   0  0  0  0  0  2  0  0  0  0  0  0
  190.6290  173.9520  140.7090 O   0  0  0  0  0  0  0  0  0  0  0  0
  191.8630  173.7460  140.0820 C   0  0  1  0  0  3  0  0  0  0  0  0
  192.5750  172.5290  140.6700 C   0  0  0  0  0  2  0  0  0  0  0  0
  194.0190  172.4850  140.2090 C   0  0  0  0  0  1  0  0  0  0  0  0
  191.6860  173.6170  138.5620 C   0  0  0  0  0  2  0  0  0  0  0  0
  190.4100  172.9070  138.0700 C   0  0  2  0  0  3  0  0  0  0  0  0
  190.7890  172.3680  135.8060 O   0  0  0  0  0  0  0  0  0  0  0  0
  190.7030  171.9480  136.9520 C   0  0  0  0  0  0  0  0  0  0  0  0
  189.6600  169.9640  138.0340 C   0  0  0  0  0  1  0  0  0  0  0  0
  190.8240  170.4680  137.1980 C   0  0  2  0  0  3  0  0  0  0  0  0
  193.1910  170.5030  137.3690 O   0  0  0  0  0  0  0  0  0  0  0  0
  192.1400  170.0560  137.8030 C   0  0  0  0  0  0  0  0  0  0  0  0
  192.1510  169.1210  138.9690 C   0  0  0  0  0  2  0  0  0  0  0  0
  193.5740  168.9150  139.4650 C   0  0  0  0  0  2  0  0  0  0  0  0
  193.5690  168.5300  140.9330 C   0  0  0  0  0  2  0  0  0  0  0  0
  194.6440  169.2120  141.6290 N   0  0  0  0  0  1  0  0  0  0  0  0
  189.3880  173.7900  137.7080 O   0  0  0  0  0  0  0  0  0  0  0  0
  188.2770  173.1510  138.0030 O   0  0  0  0  0  1  0  0  0  0  0  0
  190.3900  174.3220  145.2550 C   0  0  0  0  0  2  0  0  0  0  0  0
  190.8080  175.0640  146.5240 C   0  0  0  0  0  2  0  0  0  0  0  0
  194.2640  175.1860  145.3060 C   0  0  2  0  0  0  0  0  0  0  0  0
  195.2230  174.4660  144.4300 C   0  0  2  0  0  0  0  0  0  0  0  0
  192.4790  176.7310  145.5510 C   0  0  0  0  0  2  0  0  0  0  0  0
  192.2570  175.5560  146.5090 C   0  0  2  0  0  3  0  0  0  0  0  0
  195.5860  174.9290  145.7140 O   0  0  0  0  0  0  0  0  0  0  0  0
  194.7730  177.5760  145.9290 C   0  0  0  0  0  1  0  0  0  0  0  0
  193.2500  174.4610  146.1510 C   0  0  0  0  0  2  0  0  0  0  0  0
  193.9200  176.6480  145.0780 C   0  0  1  0  0  3  0  0  0  0  0  0
  196.0090  175.1690  143.3590 C   0  0  0  0  0  0  0  0  0  0  0  0
  197.0450  175.8270  143.6630 O   0  0  0  0  0  0  0  0  0  0  0  0
  195.5840  175.0880  142.0340 O   0  0  0  0  0  0  0  0  0  0  0  0
  194.6310  175.9970  141.5010 C   0  0  0  0  0  1  0  0  0  0  0  0
  195.1840  173.0620  144.4090 O   0  0  0  0  0  0  0  0  0  0  0  0
  196.4640  172.6220  144.7810 C   0  0  0  0  0  2  0  0  0  0  0  0
  196.3510  171.4930  145.7900 C   0  0  0  0  0  2  0  0  0  0  0  0
  194.9580  169.6030  146.5550 C   0  0  0  0  0  1  0  0  0  0  0  0
  194.9700  170.8740  145.7310 C   0  0  0  0  0  2  0  0  0  0  0  0
  1 14  2  0  0  0  0
  1 15  1  0  0  0  0
  2 16  1  1  0  0  0
  2  4  1  0  0  0  0
  3  7  1  0  0  0  0
  3  1  1  1  0  0  0
  4 10  1  0  0  0  0
  4 37  1  6  0  0  0
  5  2  1  0  0  0  0
  6  8  1  6  0  0  0
  6  3  1  0  0  0  0
  7 13  1  6  0  0  0
  7  9  1  0  0  0  0
  9 15  1  0  0  0  0
 12  6  1  0  0  0  0
 12  5  1  0  0  0  0
 14 10  2  0  0  0  0
 15 11  1  1  0  0  0
 16 17  1  6  0  0  0
 18 16  1  0  0  0  0
 19 18  1  0  0  0  0
 20 23  1  6  0  0  0
 20 21  1  0  0  0  0
 20 19  1  0  0  0  0
 22 21  1  0  0  0  0
 24 23  1  6  0  0  0
 25 26  2  0  0  0  0
 26 28  1  0  0  0  0
 26 24  1  0  0  0  0
 28 30  1  0  0  0  0
 28 27  1  1  0  0  0
 29 30  2  0  0  0  0
 30 31  1  0  0  0  0
 31 32  1  0  0  0  0
 32 33  1  0  0  0  0
 33 34  1  0  0  0  0
 35 36  1  0  0  0  0
 35 24  1  0  0  0  0
 37 38  1  0  0  0  0
 39 43  1  0  0  0  0
 39 45  1  1  0  0  0
 40 47  1  6  0  0  0
 40 39  1  0  0  0  0
 40 43  1  0  0  0  0
 41 42  1  0  0  0  0
 42 38  1  6  0  0  0
 45 42  1  0  0  0  0
 46 39  1  0  0  0  0
 46 41  1  0  0  0  0
 46 44  1  1  0  0  0
 47 48  2  0  0  0  0
 49 47  1  0  0  0  0
 50 49  1  0  0  0  0
 51 40  1  0  0  0  0
 51 52  1  0  0  0  0
 52 53  1  0  0  0  0
 55 53  1  0  0  0  0
 55 54  1  0  0  0  0
M  END
>  <MODEL>
4

>  <REMARK>
 VINA RESULT:      -5.7      1.859      2.420
  Name = 
  23 active torsions:
  status: ('A' for Active; 'I' for Inactive)
    1  A    between atoms: O_1  and  C_25
    2  A    between atoms: O_2  and  C_9
    3  A    between atoms: O_2  and  C_22
    4  A    between atoms: C_4  and  C_17
    5  A    between atoms: O_5  and  C_16
    6  A    between atoms: C_6  and  C_35
    7  A    between atoms: C_8  and  C_47
    8  A    between atoms: C_9  and  C_33
    9  A    between atoms: C_15  and  C_16
   10  A    between atoms: C_15  and  C_46
   11  A    between atoms: C_16  and  C_26
   12  A    between atoms: C_17  and  C_54
   13  A    between atoms: C_19  and  C_35
   14  A    between atoms: C_19  and  C_55
   15  A    between atoms: C_20  and  C_33
   16  A    between atoms: C_22  and  C_25
   17  A    between atoms: C_23  and  C_36
   18  A    between atoms: C_26  and  C_36
   19  A    between atoms: C_30  and  C_32
   20  A    between atoms: C_30  and  C_47
   21  A    between atoms: C_36  and  O_40
   22  A    between atoms: O_40  and  C_54
   23  A    between atoms: C_46  and  C_55
                            x       y       z     vdW  Elec       q    Type
                         _______ _______ _______ _____ _____    ______ ____

>  <TORSDO>
F 23

$$$$
=
 OpenBabel11062421323D

 55 58  0  0  1  0  0  0  0  0999 V2000
  186.7130  177.9280  144.6890 C   0  0  0  0  0  0  0  0  0  0  0  0
  188.6040  175.0270  142.8020 C   0  0  2  0  0  3  0  0  0  0  0  0
  186.2140  178.5650  143.4310 C   0  0  1  0  0  3  0  0  0  0  0  0
  188.9700  175.1400  144.3050 C   0  0  2  0  0  3  0  0  0  0  0  0
  187.1590  175.4460  142.5530 C   0  0  0  0  0  2  0  0  0  0  0  0
  185.8890  177.5690  142.2930 C   0  0  1  0  0  3  0  0  0  0  0  0
  185.0120  179.3990  143.9520 C   0  0  2  0  0  3  0  0  0  0  0  0
  185.3780  178.3200  141.0760 C   0  0  0  0  0  1  0  0  0  0  0  0
  185.1220  179.3770  145.4090 N   0  0  0  0  0  2  0  0  0  0  0  0
  188.9320  176.5580  144.8030 C   0  0  0  0  0  3  0  0  0  0  0  0
  186.3600  178.3470  147.2360 C   0  0  0  0  0  1  0  0  0  0  0  0
  187.1250  176.7960  141.8620 C   0  0  0  0  0  2  0  0  0  0  0  0
  183.7320  178.8180  143.5700 N   0  0  0  0  0  1  0  0  0  0  0  0
  187.8320  177.2600  144.7810 C   0  0  0  0  0  0  0  0  0  0  0  0
  186.0400  178.5620  145.7990 C   0  0  2  0  0  3  0  0  0  0  0  0
  188.8730  173.6300  142.2160 C   0  0  1  0  0  3  0  0  0  0  0  0
  187.6090  172.8030  142.0010 C   0  0  0  0  0  1  0  0  0  0  0  0
  189.7410  173.6840  140.9590 C   0  0  0  0  0  2  0  0  0  0  0  0
  190.4040  172.4690  140.7390 O   0  0  0  0  0  0  0  0  0  0  0  0
  190.8780  172.0730  141.9950 C   0  0  1  0  0  3  0  0  0  0  0  0
  190.7150  170.5670  142.1880 C   0  0  0  0  0  2  0  0  0  0  0  0
  191.9800  169.9680  142.7730 C   0  0  0  0  0  1  0  0  0  0  0  0
  192.3370  172.5140  142.1890 C   0  0  0  0  0  2  0  0  0  0  0  0
  192.8180  173.7090  141.3440 C   0  0  2  0  0  3  0  0  0  0  0  0
  194.3930  174.1470  139.6450 O   0  0  0  0  0  0  0  0  0  0  0  0
  193.9600  173.3290  140.4450 C   0  0  0  0  0  0  0  0  0  0  0  0
  195.7920  171.8870  141.3160 C   0  0  0  0  0  1  0  0  0  0  0  0
  194.5400  171.9400  140.4560 C   0  0  2  0  0  3  0  0  0  0  0  0
  195.9300  171.3900  138.6130 O   0  0  0  0  0  0  0  0  0  0  0  0
  194.8030  171.3780  139.0850 C   0  0  0  0  0  0  0  0  0  0  0  0
  193.6790  170.7650  138.3150 C   0  0  0  0  0  2  0  0  0  0  0  0
  192.8440  169.8720  139.2210 C   0  0  0  0  0  2  0  0  0  0  0  0
  191.4950  169.5920  138.5850 C   0  0  0  0  0  2  0  0  0  0  0  0
  191.1070  170.7000  137.7330 N   0  0  0  0  0  1  0  0  0  0  0  0
  193.1440  174.8340  142.1070 O   0  0  0  0  0  0  0  0  0  0  0  0
  192.1360  175.6600  141.9280 O   0  0  0  0  0  1  0  0  0  0  0  0
  190.3710  174.6080  144.5890 C   0  0  0  0  0  2  0  0  0  0  0  0
  190.7680  174.7890  146.0530 C   0  0  0  0  0  2  0  0  0  0  0  0
  194.3600  175.0350  145.3590 C   0  0  2  0  0  0  0  0  0  0  0  0
  195.4620  174.3530  144.6360 C   0  0  2  0  0  0  0  0  0  0  0  0
  192.5050  176.5160  145.3360 C   0  0  0  0  0  2  0  0  0  0  0  0
  192.1850  175.3310  146.2520 C   0  0  2  0  0  3  0  0  0  0  0  0
  195.6160  174.8230  145.9590 O   0  0  0  0  0  0  0  0  0  0  0  0
  194.6870  177.4390  146.0470 C   0  0  0  0  0  1  0  0  0  0  0  0
  193.2580  174.2720  146.0450 C   0  0  0  0  0  2  0  0  0  0  0  0
  194.0020  176.4850  145.0810 C   0  0  1  0  0  3  0  0  0  0  0  0
  196.3730  175.0870  143.6920 C   0  0  0  0  0  0  0  0  0  0  0  0
  197.5350  175.4200  144.0640 O   0  0  0  0  0  0  0  0  0  0  0  0
  195.9230  175.3960  142.4090 O   0  0  0  0  0  0  0  0  0  0  0  0
  196.2660  176.6190  141.7740 C   0  0  0  0  0  1  0  0  0  0  0  0
  195.4760  172.9480  144.6110 O   0  0  0  0  0  0  0  0  0  0  0  0
  196.6060  172.5480  145.3410 C   0  0  0  0  0  2  0  0  0  0  0  0
  196.4180  171.1310  145.8520 C   0  0  0  0  0  2  0  0  0  0  0  0
  195.5570  169.4330  144.2800 C   0  0  0  0  0  1  0  0  0  0  0  0
  195.1660  170.5210  145.2570 C   0  0  0  0  0  2  0  0  0  0  0  0
  1 14  2  0  0  0  0
  1 15  1  0  0  0  0
  2 16  1  1  0  0  0
  2  4  1  0  0  0  0
  3  7  1  0  0  0  0
  3  1  1  1  0  0  0
  4 37  1  6  0  0  0
  4 10  1  0  0  0  0
  5  2  1  0  0  0  0
  6  8  1  6  0  0  0
  6  3  1  0  0  0  0
  7 13  1  1  0  0  0
  7  9  1  0  0  0  0
  9 15  1  0  0  0  0
 12  6  1  0  0  0  0
 12  5  1  0  0  0  0
 14 10  2  0  0  0  0
 15 11  1  6  0  0  0
 16 17  1  6  0  0  0
 18 16  1  0  0  0  0
 19 18  1  0  0  0  0
 19 20  1  0  0  0  0
 20 21  1  6  0  0  0
 20 23  1  0  0  0  0
 21 22  1  0  0  0  0
 24 35  1  0  0  0  0
 24 23  1  1  0  0  0
 25 26  2  0  0  0  0
 26 28  1  0  0  0  0
 26 24  1  0  0  0  0
 28 27  1  1  0  0  0
 29 30  2  0  0  0  0
 30 28  1  0  0  0  0
 31 30  1  0  0  0  0
 31 32  1  0  0  0  0
 33 32  1  0  0  0  0
 34 33  1  0  0  0  0
 36 35  1  0  0  0  0
 37 38  1  0  0  0  0
 39 43  1  0  0  0  0
 39 45  1  1  0  0  0
 40 47  1  6  0  0  0
 40 39  1  0  0  0  0
 40 43  1  0  0  0  0
 41 42  1  0  0  0  0
 42 38  1  6  0  0  0
 45 42  1  0  0  0  0
 46 41  1  0  0  0  0
 46 39  1  0  0  0  0
 46 44  1  1  0  0  0
 47 48  2  0  0  0  0
 49 47  1  0  0  0  0
 50 49  1  0  0  0  0
 51 40  1  0  0  0  0
 51 52  1  0  0  0  0
 52 53  1  0  0  0  0
 54 55  1  0  0  0  0
 55 53  1  0  0  0  0
M  END
>  <MODEL>
5

>  <REMARK>
 VINA RESULT:      -5.6      2.192      2.944
  Name = 
  23 active torsions:
  status: ('A' for Active; 'I' for Inactive)
    1  A    between atoms: O_1  and  C_25
    2  A    between atoms: O_2  and  C_9
    3  A    between atoms: O_2  and  C_22
    4  A    between atoms: C_4  and  C_17
    5  A    between atoms: O_5  and  C_16
    6  A    between atoms: C_6  and  C_35
    7  A    between atoms: C_8  and  C_47
    8  A    between atoms: C_9  and  C_33
    9  A    between atoms: C_15  and  C_16
   10  A    between atoms: C_15  and  C_46
   11  A    between atoms: C_16  and  C_26
   12  A    between atoms: C_17  and  C_54
   13  A    between atoms: C_19  and  C_35
   14  A    between atoms: C_19  and  C_55
   15  A    between atoms: C_20  and  C_33
   16  A    between atoms: C_22  and  C_25
   17  A    between atoms: C_23  and  C_36
   18  A    between atoms: C_26  and  C_36
   19  A    between atoms: C_30  and  C_32
   20  A    between atoms: C_30  and  C_47
   21  A    between atoms: C_36  and  O_40
   22  A    between atoms: O_40  and  C_54
   23  A    between atoms: C_46  and  C_55
                            x       y       z     vdW  Elec       q    Type
                         _______ _______ _______ _____ _____    ______ ____

>  <TORSDO>
F 23

$$$$
=
 OpenBabel11062421323D

 55 58  0  0  1  0  0  0  0  0999 V2000
  186.4000  178.0110  145.4060 C   0  0  0  0  0  0  0  0  0  0  0  0
  189.2220  175.3740  144.6080 C   0  0  2  0  0  3  0  0  0  0  0  0
  186.3980  178.5860  144.0250 C   0  0  1  0  0  3  0  0  0  0  0  0
  188.9160  175.5270  146.1210 C   0  0  2  0  0  3  0  0  0  0  0  0
  187.9720  175.6110  143.7660 C   0  0  0  0  0  2  0  0  0  0  0  0
  186.6900  177.5610  142.9040 C   0  0  1  0  0  3  0  0  0  0  0  0
  185.0000  179.2620  143.9650 C   0  0  2  0  0  3  0  0  0  0  0  0
  186.6460  178.2470  141.5490 C   0  0  0  0  0  1  0  0  0  0  0  0
  184.4990  179.2480  145.3380 N   0  0  0  0  0  2  0  0  0  0  0  0
  188.5140  176.9280  146.4900 C   0  0  0  0  0  3  0  0  0  0  0  0
  184.9780  178.3740  147.5590 C   0  0  0  0  0  1  0  0  0  0  0  0
  188.0730  176.9490  143.0580 C   0  0  0  0  0  2  0  0  0  0  0  0
  184.0700  178.5270  143.1180 N   0  0  0  0  0  1  0  0  0  0  0  0
  187.4480  177.4870  145.9830 C   0  0  0  0  0  0  0  0  0  0  0  0
  185.2590  178.5530  146.1090 C   0  0  2  0  0  3  0  0  0  0  0  0
  189.8680  174.0240  144.2530 C   0  0  1  0  0  3  0  0  0  0  0  0
  189.7180  172.9680  145.3450 C   0  0  0  0  0  1  0  0  0  0  0  0
  189.4150  173.5040  142.8880 C   0  0  0  0  0  2  0  0  0  0  0  0
  190.2950  173.8950  141.8710 O   0  0  0  0  0  0  0  0  0  0  0  0
  190.0640  173.0030  140.8170 C   0  0  1  0  0  3  0  0  0  0  0  0
  188.6310  173.1270  140.3050 C   0  0  0  0  0  2  0  0  0  0  0  0
  188.3920  174.5090  139.7260 C   0  0  0  0  0  1  0  0  0  0  0  0
  191.0870  173.2140  139.6920 C   0  0  0  0  0  2  0  0  0  0  0  0
  191.9920  172.0170  139.3440 C   0  0  2  0  0  3  0  0  0  0  0  0
  192.5850  170.8240  137.3990 O   0  0  0  0  0  0  0  0  0  0  0  0
  191.7400  171.5150  137.9510 C   0  0  0  0  0  0  0  0  0  0  0  0
  189.8080  170.6680  136.6300 C   0  0  0  0  0  1  0  0  0  0  0  0
  190.4990  171.9000  137.1900 C   0  0  2  0  0  3  0  0  0  0  0  0
  191.2600  172.6020  135.0560 O   0  0  0  0  0  0  0  0  0  0  0  0
  190.7370  172.9220  136.1120 C   0  0  0  0  0  0  0  0  0  0  0  0
  190.2900  174.3320  136.3260 C   0  0  0  0  0  2  0  0  0  0  0  0
  189.2100  174.7010  135.3210 C   0  0  0  0  0  2  0  0  0  0  0  0
  188.1150  175.5060  135.9960 C   0  0  0  0  0  2  0  0  0  0  0  0
  187.2050  176.0410  135.0010 N   0  0  0  0  0  1  0  0  0  0  0  0
  191.9090  170.9710  140.2680 O   0  0  0  0  0  0  0  0  0  0  0  0
  193.1580  170.6230  140.4900 O   0  0  0  0  0  1  0  0  0  0  0  0
  190.1250  175.1720  146.9810 C   0  0  0  0  0  2  0  0  0  0  0  0
  191.0650  176.3620  147.1690 C   0  0  0  0  0  2  0  0  0  0  0  0
  193.6150  174.6370  145.1780 C   0  0  2  0  0  0  0  0  0  0  0  0
  193.8630  173.3810  144.4270 C   0  0  2  0  0  0  0  0  0  0  0  0
  192.6970  176.8240  145.2610 C   0  0  0  0  0  2  0  0  0  0  0  0
  192.4730  176.1380  146.6110 C   0  0  2  0  0  3  0  0  0  0  0  0
  194.8220  173.9230  145.3110 O   0  0  0  0  0  0  0  0  0  0  0  0
  195.1010  176.6210  144.7130 C   0  0  0  0  0  1  0  0  0  0  0  0
  192.8190  174.6640  146.4550 C   0  0  0  0  0  2  0  0  0  0  0  0
  193.7290  175.9980  144.5120 C   0  0  1  0  0  3  0  0  0  0  0  0
  194.3700  173.3820  143.0120 C   0  0  0  0  0  0  0  0  0  0  0  0
  193.5790  173.6220  142.0550 O   0  0  0  0  0  0  0  0  0  0  0  0
  195.7160  173.1140  142.7690 O   0  0  0  0  0  0  0  0  0  0  0  0
  196.2240  171.7880  142.7650 C   0  0  0  0  0  1  0  0  0  0  0  0
  193.3450  172.1810  144.9440 O   0  0  0  0  0  0  0  0  0  0  0  0
  192.7390  171.5120  143.8680 C   0  0  0  0  0  2  0  0  0  0  0  0
  192.7180  170.0180  144.1310 C   0  0  0  0  0  2  0  0  0  0  0  0
  194.5490  168.3620  144.0760 C   0  0  0  0  0  1  0  0  0  0  0  0
  194.0120  169.5840  144.7900 C   0  0  0  0  0  2  0  0  0  0  0  0
  1 14  2  0  0  0  0
  1 15  1  0  0  0  0
  2 16  1  1  0  0  0
  2  4  1  0  0  0  0
  3  1  1  1  0  0  0
  4 10  1  0  0  0  0
  4 37  1  1  0  0  0
  5  2  1  0  0  0  0
  6  8  1  6  0  0  0
  6 12  1  0  0  0  0
  6  3  1  0  0  0  0
  7 13  1  6  0  0  0
  7  3  1  0  0  0  0
  7  9  1  0  0  0  0
  9 15  1  0  0  0  0
 12  5  1  0  0  0  0
 14 10  2  0  0  0  0
 15 11  1  1  0  0  0
 16 17  1  1  0  0  0
 18 16  1  0  0  0  0
 19 18  1  0  0  0  0
 20 23  1  6  0  0  0
 20 19  1  0  0  0  0
 21 20  1  0  0  0  0
 22 21  1  0  0  0  0
 24 23  1  1  0  0  0
 24 35  1  0  0  0  0
 25 26  2  0  0  0  0
 26 24  1  0  0  0  0
 28 27  1  6  0  0  0
 28 26  1  0  0  0  0
 29 30  2  0  0  0  0
 30 31  1  0  0  0  0
 30 28  1  0  0  0  0
 32 33  1  0  0  0  0
 32 31  1  0  0  0  0
 34 33  1  0  0  0  0
 35 36  1  0  0  0  0
 37 38  1  0  0  0  0
 39 43  1  0  0  0  0
 39 45  1  1  0  0  0
 40 47  1  6  0  0  0
 40 51  1  0  0  0  0
 40 39  1  0  0  0  0
 40 43  1  0  0  0  0
 41 42  1  0  0  0  0
 42 38  1  6  0  0  0
 45 42  1  0  0  0  0
 46 44  1  1  0  0  0
 46 39  1  0  0  0  0
 46 41  1  0  0  0  0
 48 47  2  0  0  0  0
 49 47  1  0  0  0  0
 50 49  1  0  0  0  0
 52 53  1  0  0  0  0
 52 51  1  0  0  0  0
 53 55  1  0  0  0  0
 54 55  1  0  0  0  0
M  END
>  <MODEL>
6

>  <REMARK>
 VINA RESULT:      -5.5      2.059      2.876
  Name = 
  23 active torsions:
  status: ('A' for Active; 'I' for Inactive)
    1  A    between atoms: O_1  and  C_25
    2  A    between atoms: O_2  and  C_9
    3  A    between atoms: O_2  and  C_22
    4  A    between atoms: C_4  and  C_17
    5  A    between atoms: O_5  and  C_16
    6  A    between atoms: C_6  and  C_35
    7  A    between atoms: C_8  and  C_47
    8  A    between atoms: C_9  and  C_33
    9  A    between atoms: C_15  and  C_16
   10  A    between atoms: C_15  and  C_46
   11  A    between atoms: C_16  and  C_26
   12  A    between atoms: C_17  and  C_54
   13  A    between atoms: C_19  and  C_35
   14  A    between atoms: C_19  and  C_55
   15  A    between atoms: C_20  and  C_33
   16  A    between atoms: C_22  and  C_25
   17  A    between atoms: C_23  and  C_36
   18  A    between atoms: C_26  and  C_36
   19  A    between atoms: C_30  and  C_32
   20  A    between atoms: C_30  and  C_47
   21  A    between atoms: C_36  and  O_40
   22  A    between atoms: O_40  and  C_54
   23  A    between atoms: C_46  and  C_55
                            x       y       z     vdW  Elec       q    Type
                         _______ _______ _______ _____ _____    ______ ____

>  <TORSDO>
F 23

$$$$
=
 OpenBabel11062421323D

 55 58  0  0  1  0  0  0  0  0999 V2000
  195.8070  172.8870  143.5640 C   0  0  0  0  0  0  0  0  0  0  0  0
  191.8950  173.2680  143.2350 C   0  0  2  0  0  3  0  0  0  0  0  0
  195.9580  174.0930  144.4360 C   0  0  1  0  0  3  0  0  0  0  0  0
  192.5130  172.2510  142.2390 C   0  0  2  0  0  3  0  0  0  0  0  0
  192.6780  173.3020  144.5440 C   0  0  0  0  0  2  0  0  0  0  0  0
  194.7710  174.3430  145.3960 C   0  0  1  0  0  3  0  0  0  0  0  0
  197.3250  173.8210  145.1210 C   0  0  2  0  0  3  0  0  0  0  0  0
  195.0370  175.5770  146.2410 C   0  0  0  0  0  1  0  0  0  0  0  0
  197.9100  172.6950  144.3950 N   0  0  0  0  0  2  0  0  0  0  0  0
  193.8970  172.6400  141.8010 C   0  0  0  0  0  3  0  0  0  0  0  0
  197.4100  171.0260  142.6950 C   0  0  0  0  0  1  0  0  0  0  0  0
  193.4800  174.5880  144.6310 C   0  0  0  0  0  2  0  0  0  0  0  0
  197.1740  173.4490  146.5210 N   0  0  0  0  0  1  0  0  0  0  0  0
  194.8780  172.7480  142.6560 C   0  0  0  0  0  0  0  0  0  0  0  0
  197.0700  172.1860  143.5630 C   0  0  2  0  0  3  0  0  0  0  0  0
  190.4000  173.0230  143.5030 C   0  0  1  0  0  3  0  0  0  0  0  0
  190.1020  171.6480  144.0950 C   0  0  0  0  0  1  0  0  0  0  0  0
  189.7640  174.1480  144.3190 C   0  0  0  0  0  2  0  0  0  0  0  0
  189.7590  173.8500  145.6880 O   0  0  0  0  0  0  0  0  0  0  0  0
  189.3430  175.0260  146.3220 C   0  0  1  0  0  3  0  0  0  0  0  0
  190.5370  175.9250  146.6380 C   0  0  0  0  0  2  0  0  0  0  0  0
  191.4490  175.2600  147.6510 C   0  0  0  0  0  1  0  0  0  0  0  0
  188.2930  175.7580  145.4740 C   0  0  0  0  0  2  0  0  0  0  0  0
  188.0920  177.2580  145.7620 C   0  0  2  0  0  3  0  0  0  0  0  0
  186.1740  176.6070  146.9680 O   0  0  0  0  0  0  0  0  0  0  0  0
  186.7700  177.5260  146.4230 C   0  0  0  0  0  0  0  0  0  0  0  0
  185.8650  179.4110  147.7730 C   0  0  0  0  0  1  0  0  0  0  0  0
  186.1270  178.8860  146.3720 C   0  0  2  0  0  3  0  0  0  0  0  0
  183.7890  178.6800  146.0230 O   0  0  0  0  0  0  0  0  0  0  0  0
  184.8780  178.9390  145.5330 C   0  0  0  0  0  0  0  0  0  0  0  0
  184.9730  179.3500  144.1000 C   0  0  0  0  0  2  0  0  0  0  0  0
  183.8900  178.6650  143.2810 C   0  0  0  0  0  2  0  0  0  0  0  0
  184.4220  178.2950  141.9090 C   0  0  0  0  0  2  0  0  0  0  0  0
  185.4540  177.2830  142.0320 N   0  0  0  0  0  1  0  0  0  0  0  0
  188.2510  178.0670  144.6320 O   0  0  0  0  0  0  0  0  0  0  0  0
  188.3210  177.2220  143.6270 O   0  0  0  0  0  1  0  0  0  0  0  0
  191.6700  172.1140  140.9750 C   0  0  0  0  0  2  0  0  0  0  0  0
  191.4660  173.4560  140.2730 C   0  0  0  0  0  2  0  0  0  0  0  0
  194.3730  173.8690  138.0770 C   0  0  2  0  0  0  0  0  0  0  0  0
  195.8060  174.2570  138.0920 C   0  0  2  0  0  0  0  0  0  0  0  0
  192.6960  172.2220  138.4070 C   0  0  0  0  0  2  0  0  0  0  0  0
  192.1810  173.5680  138.9250 C   0  0  2  0  0  3  0  0  0  0  0  0
  194.9110  174.7420  137.1120 O   0  0  0  0  0  0  0  0  0  0  0  0
  193.5040  172.5730  136.0960 C   0  0  0  0  0  1  0  0  0  0  0  0
  193.3510  174.5410  138.9550 C   0  0  0  0  0  2  0  0  0  0  0  0
  193.9200  172.5150  137.5570 C   0  0  1  0  0  3  0  0  0  0  0  0
  196.8730  173.3990  137.4720 C   0  0  0  0  0  0  0  0  0  0  0  0
  197.4040  173.7410  136.3770 O   0  0  0  0  0  0  0  0  0  0  0  0
  197.2660  172.2260  138.1150 O   0  0  0  0  0  0  0  0  0  0  0  0
  197.3730  170.9930  137.4190 C   0  0  0  0  0  1  0  0  0  0  0  0
  196.2070  175.2980  138.9460 O   0  0  0  0  0  0  0  0  0  0  0  0
  197.1120  174.7370  139.8600 C   0  0  0  0  0  2  0  0  0  0  0  0
  196.9880  175.4310  141.2050 C   0  0  0  0  0  2  0  0  0  0  0  0
  194.7660  176.3220  141.8100 C   0  0  0  0  0  1  0  0  0  0  0  0
  196.0650  176.6270  141.0940 C   0  0  0  0  0  2  0  0  0  0  0  0
  2 16  1  1  0  0  0
  2  5  1  0  0  0  0
  3  1  1  1  0  0  0
  3  7  1  0  0  0  0
  3  6  1  0  0  0  0
  4 37  1  6  0  0  0
  4  2  1  0  0  0  0
  5 12  1  0  0  0  0
  6  8  1  6  0  0  0
  7 13  1  1  0  0  0
  9  7  1  0  0  0  0
 10  4  1  0  0  0  0
 10 14  2  0  0  0  0
 12  6  1  0  0  0  0
 14  1  2  0  0  0  0
 15 11  1  6  0  0  0
 15  1  1  0  0  0  0
 15  9  1  0  0  0  0
 16 17  1  1  0  0  0
 16 18  1  0  0  0  0
 18 19  1  0  0  0  0
 19 20  1  0  0  0  0
 20 23  1  6  0  0  0
 20 21  1  0  0  0  0
 21 22  1  0  0  0  0
 24 23  1  6  0  0  0
 24 26  1  0  0  0  0
 26 25  2  0  0  0  0
 28 26  1  0  0  0  0
 28 27  1  1  0  0  0
 30 29  2  0  0  0  0
 30 28  1  0  0  0  0
 31 30  1  0  0  0  0
 32 31  1  0  0  0  0
 33 34  1  0  0  0  0
 33 32  1  0  0  0  0
 35 24  1  0  0  0  0
 36 35  1  0  0  0  0
 38 37  1  0  0  0  0
 39 40  1  0  0  0  0
 39 45  1  1  0  0  0
 40 47  1  6  0  0  0
 40 51  1  0  0  0  0
 41 42  1  0  0  0  0
 42 45  1  0  0  0  0
 42 38  1  1  0  0  0
 43 39  1  0  0  0  0
 43 40  1  0  0  0  0
 46 44  1  6  0  0  0
 46 39  1  0  0  0  0
 46 41  1  0  0  0  0
 47 49  1  0  0  0  0
 48 47  2  0  0  0  0
 50 49  1  0  0  0  0
 51 52  1  0  0  0  0
 52 53  1  0  0  0  0
 55 53  1  0  0  0  0
 55 54  1  0  0  0  0
M  END
>  <MODEL>
7

>  <REMARK>
 VINA RESULT:      -5.3      3.148      9.163
  Name = 
  23 active torsions:
  status: ('A' for Active; 'I' for Inactive)
    1  A    between atoms: O_1  and  C_25
    2  A    between atoms: O_2  and  C_9
    3  A    between atoms: O_2  and  C_22
    4  A    between atoms: C_4  and  C_17
    5  A    between atoms: O_5  and  C_16
    6  A    between atoms: C_6  and  C_35
    7  A    between atoms: C_8  and  C_47
    8  A    between atoms: C_9  and  C_33
    9  A    between atoms: C_15  and  C_16
   10  A    between atoms: C_15  and  C_46
   11  A    between atoms: C_16  and  C_26
   12  A    between atoms: C_17  and  C_54
   13  A    between atoms: C_19  and  C_35
   14  A    between atoms: C_19  and  C_55
   15  A    between atoms: C_20  and  C_33
   16  A    between atoms: C_22  and  C_25
   17  A    between atoms: C_23  and  C_36
   18  A    between atoms: C_26  and  C_36
   19  A    between atoms: C_30  and  C_32
   20  A    between atoms: C_30  and  C_47
   21  A    between atoms: C_36  and  O_40
   22  A    between atoms: O_40  and  C_54
   23  A    between atoms: C_46  and  C_55
                            x       y       z     vdW  Elec       q    Type
                         _______ _______ _______ _____ _____    ______ ____

>  <TORSDO>
F 23

$$$$
=
 OpenBabel11062421323D

 55 58  0  0  1  0  0  0  0  0999 V2000
  185.6610  177.4930  142.9440 C   0  0  0  0  0  0  0  0  0  0  0  0
  189.3430  176.3500  143.7740 C   0  0  2  0  0  3  0  0  0  0  0  0
  185.2900  177.7050  144.3770 C   0  0  1  0  0  3  0  0  0  0  0  0
  188.9160  176.0750  142.3080 C   0  0  2  0  0  3  0  0  0  0  0  0
  188.6640  177.6020  144.3200 C   0  0  0  0  0  2  0  0  0  0  0  0
  186.4470  178.2120  145.2700 C   0  0  1  0  0  3  0  0  0  0  0  0
  184.0740  178.6640  144.2520 C   0  0  2  0  0  3  0  0  0  0  0  0
  185.9570  178.4080  146.6940 C   0  0  0  0  0  1  0  0  0  0  0  0
  183.7220  178.6670  142.8340 N   0  0  0  0  0  2  0  0  0  0  0  0
  187.4530  175.7530  142.1840 C   0  0  0  0  0  3  0  0  0  0  0  0
  184.4850  177.8950  140.6540 C   0  0  0  0  0  1  0  0  0  0  0  0
  187.5910  177.2110  145.3190 C   0  0  0  0  0  2  0  0  0  0  0  0
  184.4010  180.0230  144.6580 N   0  0  0  0  0  1  0  0  0  0  0  0
  186.5340  176.6120  142.5330 C   0  0  0  0  0  0  0  0  0  0  0  0
  184.6000  178.0410  142.1300 C   0  0  2  0  0  3  0  0  0  0  0  0
  190.8690  176.4380  143.9550 C   0  0  1  0  0  3  0  0  0  0  0  0
  191.5810  177.1500  142.8080 C   0  0  0  0  0  1  0  0  0  0  0  0
  191.2610  177.0130  145.3160 C   0  0  0  0  0  2  0  0  0  0  0  0
  192.6080  176.7640  145.6100 O   0  0  0  0  0  0  0  0  0  0  0  0
  192.5920  175.8530  146.6730 C   0  0  1  0  0  3  0  0  0  0  0  0
  191.3800  176.0870  147.5730 C   0  0  0  0  0  2  0  0  0  0  0  0
  190.3600  174.9810  147.3860 C   0  0  0  0  0  1  0  0  0  0  0  0
  192.6390  174.4090  146.1520 C   0  0  0  0  0  2  0  0  0  0  0  0
  193.9140  173.9850  145.3990 C   0  0  2  0  0  3  0  0  0  0  0  0
  194.4310  175.1730  143.4290 O   0  0  0  0  0  0  0  0  0  0  0  0
  193.8030  174.2470  143.9250 C   0  0  0  0  0  0  0  0  0  0  0  0
  191.7960  172.7760  143.8810 C   0  0  0  0  0  1  0  0  0  0  0  0
  192.8810  173.4400  143.0500 C   0  0  2  0  0  3  0  0  0  0  0  0
  193.9340  171.3530  142.6390 O   0  0  0  0  0  0  0  0  0  0  0  0
  193.5890  172.4330  142.1840 C   0  0  0  0  0  0  0  0  0  0  0  0
  193.8320  172.7470  140.7430 C   0  0  0  0  0  2  0  0  0  0  0  0
  193.0820  174.0090  140.3440 C   0  0  0  0  0  2  0  0  0  0  0  0
  193.9630  174.8960  139.4840 C   0  0  0  0  0  2  0  0  0  0  0  0
  195.2540  175.0810  140.1210 N   0  0  0  0  0  1  0  0  0  0  0  0
  194.2850  172.6570  145.6370 O   0  0  0  0  0  0  0  0  0  0  0  0
  195.5540  172.6010  145.2950 O   0  0  0  0  0  1  0  0  0  0  0  0
  189.6810  174.9000  141.7070 C   0  0  0  0  0  2  0  0  0  0  0  0
  188.9160  173.5840  141.8490 C   0  0  0  0  0  2  0  0  0  0  0  0
  189.7330  172.8040  138.3600 C   0  0  2  0  0  0  0  0  0  0  0  0
  190.2320  173.4250  137.1080 C   0  0  2  0  0  0  0  0  0  0  0  0
  190.1760  171.8350  140.4820 C   0  0  0  0  0  2  0  0  0  0  0  0
  188.9290  172.7180  140.5870 C   0  0  2  0  0  3  0  0  0  0  0  0
  189.1260  172.5470  137.1170 O   0  0  0  0  0  0  0  0  0  0  0  0
  189.8390  170.2940  138.5770 C   0  0  0  0  0  1  0  0  0  0  0  0
  188.8180  173.5340  139.3080 C   0  0  0  0  0  2  0  0  0  0  0  0
  190.4420  171.6230  139.0010 C   0  0  1  0  0  3  0  0  0  0  0  0
  191.3780  172.8430  136.3280 C   0  0  0  0  0  0  0  0  0  0  0  0
  191.1750  171.8950  135.5160 O   0  0  0  0  0  0  0  0  0  0  0  0
  192.6610  173.3570  136.5130 O   0  0  0  0  0  0  0  0  0  0  0  0
  193.8190  172.5650  136.2960 C   0  0  0  0  0  1  0  0  0  0  0  0
  189.8170  174.7310  136.7980 O   0  0  0  0  0  0  0  0  0  0  0  0
  189.6350  174.7720  135.4070 C   0  0  0  0  0  2  0  0  0  0  0  0
  188.2500  175.3000  135.0800 C   0  0  0  0  0  2  0  0  0  0  0  0
  186.1160  176.1110  136.0220 C   0  0  0  0  0  1  0  0  0  0  0  0
  187.5530  175.7610  136.3440 C   0  0  0  0  0  2  0  0  0  0  0  0
  2 16  1  6  0  0  0
  2  5  1  0  0  0  0
  3  1  1  6  0  0  0
  3  6  1  0  0  0  0
  4 37  1  1  0  0  0
  4  2  1  0  0  0  0
  5 12  1  0  0  0  0
  6 12  1  0  0  0  0
  6  8  1  1  0  0  0
  7  3  1  0  0  0  0
  7 13  1  6  0  0  0
  9  7  1  0  0  0  0
 10  4  1  0  0  0  0
 10 14  2  0  0  0  0
 14  1  2  0  0  0  0
 15 11  1  1  0  0  0
 15  9  1  0  0  0  0
 15  1  1  0  0  0  0
 16 17  1  6  0  0  0
 16 18  1  0  0  0  0
 18 19  1  0  0  0  0
 19 20  1  0  0  0  0
 20 23  1  6  0  0  0
 20 21  1  0  0  0  0
 22 21  1  0  0  0  0
 24 35  1  0  0  0  0
 24 23  1  1  0  0  0
 25 26  2  0  0  0  0
 26 24  1  0  0  0  0
 28 27  1  1  0  0  0
 28 26  1  0  0  0  0
 30 29  2  0  0  0  0
 30 28  1  0  0  0  0
 31 30  1  0  0  0  0
 32 31  1  0  0  0  0
 33 34  1  0  0  0  0
 33 32  1  0  0  0  0
 36 35  1  0  0  0  0
 37 38  1  0  0  0  0
 39 46  1  0  0  0  0
 39 45  1  1  0  0  0
 40 47  1  6  0  0  0
 40 43  1  0  0  0  0
 40 39  1  0  0  0  0
 41 42  1  0  0  0  0
 42 38  1  1  0  0  0
 43 39  1  0  0  0  0
 45 42  1  0  0  0  0
 46 44  1  6  0  0  0
 46 41  1  0  0  0  0
 47 49  1  0  0  0  0
 48 47  2  0  0  0  0
 50 49  1  0  0  0  0
 51 40  1  0  0  0  0
 52 51  1  0  0  0  0
 53 52  1  0  0  0  0
 53 55  1  0  0  0  0
 54 55  1  0  0  0  0
M  END
>  <MODEL>
8

>  <REMARK>
 VINA RESULT:      -5.2      1.864      6.887
  Name = 
  23 active torsions:
  status: ('A' for Active; 'I' for Inactive)
    1  A    between atoms: O_1  and  C_25
    2  A    between atoms: O_2  and  C_9
    3  A    between atoms: O_2  and  C_22
    4  A    between atoms: C_4  and  C_17
    5  A    between atoms: O_5  and  C_16
    6  A    between atoms: C_6  and  C_35
    7  A    between atoms: C_8  and  C_47
    8  A    between atoms: C_9  and  C_33
    9  A    between atoms: C_15  and  C_16
   10  A    between atoms: C_15  and  C_46
   11  A    between atoms: C_16  and  C_26
   12  A    between atoms: C_17  and  C_54
   13  A    between atoms: C_19  and  C_35
   14  A    between atoms: C_19  and  C_55
   15  A    between atoms: C_20  and  C_33
   16  A    between atoms: C_22  and  C_25
   17  A    between atoms: C_23  and  C_36
   18  A    between atoms: C_26  and  C_36
   19  A    between atoms: C_30  and  C_32
   20  A    between atoms: C_30  and  C_47
   21  A    between atoms: C_36  and  O_40
   22  A    between atoms: O_40  and  C_54
   23  A    between atoms: C_46  and  C_55
                            x       y       z     vdW  Elec       q    Type
                         _______ _______ _______ _____ _____    ______ ____

>  <TORSDO>
F 23

$$$$
=
 OpenBabel11062421323D

 55 58  0  0  1  0  0  0  0  0999 V2000
  185.6070  177.4140  143.3070 C   0  0  0  0  0  0  0  0  0  0  0  0
  189.3010  176.0340  143.3080 C   0  0  2  0  0  3  0  0  0  0  0  0
  185.5170  177.4780  144.7990 C   0  0  1  0  0  3  0  0  0  0  0  0
  188.5980  175.9440  141.9280 C   0  0  2  0  0  3  0  0  0  0  0  0
  188.8110  177.2440  144.0980 C   0  0  0  0  0  2  0  0  0  0  0  0
  186.8460  177.8330  145.5060 C   0  0  1  0  0  3  0  0  0  0  0  0
  184.3600  178.4940  145.0040 C   0  0  2  0  0  3  0  0  0  0  0  0
  186.6360  177.8870  147.0100 C   0  0  0  0  0  1  0  0  0  0  0  0
  183.7560  178.6720  143.6850 N   0  0  0  0  0  2  0  0  0  0  0  0
  187.1200  175.6990  142.0480 C   0  0  0  0  0  3  0  0  0  0  0  0
  184.0600  178.1210  141.3330 C   0  0  0  0  0  1  0  0  0  0  0  0
  187.9160  176.7870  145.2360 C   0  0  0  0  0  2  0  0  0  0  0  0
  184.8380  179.7840  145.4790 N   0  0  0  0  0  1  0  0  0  0  0  0
  186.3340  176.5510  142.6500 C   0  0  0  0  0  0  0  0  0  0  0  0
  184.4510  178.0940  142.7680 C   0  0  2  0  0  3  0  0  0  0  0  0
  190.8370  176.0380  143.2070 C   0  0  1  0  0  3  0  0  0  0  0  0
  191.4370  177.4340  143.0640 C   0  0  0  0  0  1  0  0  0  0  0  0
  191.4950  175.2460  144.3370 C   0  0  0  0  0  2  0  0  0  0  0  0
  192.0060  176.0930  145.3290 O   0  0  0  0  0  0  0  0  0  0  0  0
  192.6300  175.2470  146.2530 C   0  0  1  0  0  3  0  0  0  0  0  0
  191.9260  175.3080  147.6070 C   0  0  0  0  0  2  0  0  0  0  0  0
  190.4790  175.7280  147.4350 C   0  0  0  0  0  1  0  0  0  0  0  0
  192.6970  173.8100  145.7150 C   0  0  0  0  0  2  0  0  0  0  0  0
  194.0760  173.1240  145.7400 C   0  0  2  0  0  3  0  0  0  0  0  0
  195.7410  174.7490  146.1280 O   0  0  0  0  0  0  0  0  0  0  0  0
  195.1680  174.0560  145.2980 C   0  0  0  0  0  0  0  0  0  0  0  0
  197.0360  174.2860  143.6690 C   0  0  0  0  0  1  0  0  0  0  0  0
  195.5290  174.2110  143.8440 C   0  0  2  0  0  3  0  0  0  0  0  0
  194.7810  176.4590  143.7160 O   0  0  0  0  0  0  0  0  0  0  0  0
  194.8490  175.3700  143.1670 C   0  0  0  0  0  0  0  0  0  0  0  0
  194.2880  175.1900  141.7930 C   0  0  0  0  0  2  0  0  0  0  0  0
  195.1020  175.9850  140.7830 C   0  0  0  0  0  2  0  0  0  0  0  0
  195.4490  175.1170  139.5880 C   0  0  0  0  0  2  0  0  0  0  0  0
  194.4560  175.2880  138.5440 N   0  0  0  0  0  1  0  0  0  0  0  0
  194.1190  171.9330  145.0080 O   0  0  0  0  0  0  0  0  0  0  0  0
  194.7610  171.0890  145.7850 O   0  0  0  0  0  1  0  0  0  0  0  0
  189.1670  174.8150  141.0760 C   0  0  0  0  0  2  0  0  0  0  0  0
  188.4550  173.4870  141.3330 C   0  0  0  0  0  2  0  0  0  0  0  0
  191.0200  171.3080  139.8770 C   0  0  2  0  0  0  0  0  0  0  0  0
  191.7640  171.0560  138.6180 C   0  0  2  0  0  0  0  0  0  0  0  0
  190.7600  172.5410  141.8890 C   0  0  0  0  0  2  0  0  0  0  0  0
  189.3770  172.2660  141.2900 C   0  0  2  0  0  3  0  0  0  0  0  0
  191.2050  170.0050  139.3790 O   0  0  0  0  0  0  0  0  0  0  0  0
  191.9540  170.3800  142.0270 C   0  0  0  0  0  1  0  0  0  0  0  0
  189.5710  171.7210  139.8840 C   0  0  0  0  0  2  0  0  0  0  0  0
  191.7380  171.6220  141.1780 C   0  0  1  0  0  3  0  0  0  0  0  0
  193.2630  170.9590  138.5820 C   0  0  0  0  0  0  0  0  0  0  0  0
  193.9700  171.9360  138.9610 O   0  0  0  0  0  0  0  0  0  0  0  0
  193.8620  169.7860  138.1250 O   0  0  0  0  0  0  0  0  0  0  0  0
  194.9510  169.1890  138.8130 C   0  0  0  0  0  1  0  0  0  0  0  0
  191.0800  171.1940  137.3980 O   0  0  0  0  0  0  0  0  0  0  0  0
  191.6420  172.3040  136.7490 C   0  0  0  0  0  2  0  0  0  0  0  0
  191.1320  173.5870  137.3810 C   0  0  0  0  0  2  0  0  0  0  0  0
  190.2400  173.8930  135.0990 C   0  0  0  0  0  1  0  0  0  0  0  0
  189.9850  174.1520  136.5680 C   0  0  0  0  0  2  0  0  0  0  0  0
  2 16  1  6  0  0  0
  2  5  1  0  0  0  0
  3  1  1  6  0  0  0
  3  7  1  0  0  0  0
  3  6  1  0  0  0  0
  4 37  1  6  0  0  0
  4 10  1  0  0  0  0
  4  2  1  0  0  0  0
  5 12  1  0  0  0  0
  6  8  1  1  0  0  0
  7 13  1  6  0  0  0
  9  7  1  0  0  0  0
 10 14  2  0  0  0  0
 12  6  1  0  0  0  0
 14  1  2  0  0  0  0
 15 11  1  1  0  0  0
 15  1  1  0  0  0  0
 15  9  1  0  0  0  0
 16 17  1  1  0  0  0
 16 18  1  0  0  0  0
 18 19  1  0  0  0  0
 19 20  1  0  0  0  0
 20 23  1  6  0  0  0
 20 21  1  0  0  0  0
 22 21  1  0  0  0  0
 24 23  1  6  0  0  0
 26 24  1  0  0  0  0
 26 25  2  0  0  0  0
 28 27  1  1  0  0  0
 28 26  1  0  0  0  0
 30 29  2  0  0  0  0
 30 28  1  0  0  0  0
 31 30  1  0  0  0  0
 32 31  1  0  0  0  0
 33 32  1  0  0  0  0
 34 33  1  0  0  0  0
 35 24  1  0  0  0  0
 35 36  1  0  0  0  0
 37 38  1  0  0  0  0
 39 45  1  6  0  0  0
 39 46  1  0  0  0  0
 40 51  1  6  0  0  0
 40 43  1  0  0  0  0
 40 39  1  0  0  0  0
 42 38  1  6  0  0  0
 42 41  1  0  0  0  0
 43 39  1  0  0  0  0
 45 42  1  0  0  0  0
 46 41  1  0  0  0  0
 46 44  1  1  0  0  0
 47 40  1  0  0  0  0
 47 48  2  0  0  0  0
 49 47  1  0  0  0  0
 49 50  1  0  0  0  0
 52 53  1  0  0  0  0
 52 51  1  0  0  0  0
 54 55  1  0  0  0  0
 55 53  1  0  0  0  0
M  END
>  <MODEL>
9

>  <REMARK>
 VINA RESULT:      -5.2      2.006      6.523
  Name = 
  23 active torsions:
  status: ('A' for Active; 'I' for Inactive)
    1  A    between atoms: O_1  and  C_25
    2  A    between atoms: O_2  and  C_9
    3  A    between atoms: O_2  and  C_22
    4  A    between atoms: C_4  and  C_17
    5  A    between atoms: O_5  and  C_16
    6  A    between atoms: C_6  and  C_35
    7  A    between atoms: C_8  and  C_47
    8  A    between atoms: C_9  and  C_33
    9  A    between atoms: C_15  and  C_16
   10  A    between atoms: C_15  and  C_46
   11  A    between atoms: C_16  and  C_26
   12  A    between atoms: C_17  and  C_54
   13  A    between atoms: C_19  and  C_35
   14  A    between atoms: C_19  and  C_55
   15  A    between atoms: C_20  and  C_33
   16  A    between atoms: C_22  and  C_25
   17  A    between atoms: C_23  and  C_36
   18  A    between atoms: C_26  and  C_36
   19  A    between atoms: C_30  and  C_32
   20  A    between atoms: C_30  and  C_47
   21  A    between atoms: C_36  and  O_40
   22  A    between atoms: O_40  and  C_54
   23  A    between atoms: C_46  and  C_55
                            x       y       z     vdW  Elec       q    Type
                         _______ _______ _______ _____ _____    ______ ____

>  <TORSDO>
F 23

$$$$
