=
 OpenBabel11062422483D

 67 75  0  0  1  0  0  0  0  0999 V2000
  186.7840  178.2720  146.0220 C   0  0  0  0  0  2  0  0  0  0  0  0
  189.9760  173.9270  144.5230 C   0  0  0  0  0  2  0  0  0  0  0  0
  184.0720  177.3010  146.8440 F   0  0  0  0  0  0  0  0  0  0  0  0
  187.8720  178.5000  140.9150 N   0  0  0  0  0  2  0  0  0  0  0  0
  190.2260  174.3650  143.0860 C   0  0  2  0  0  0  0  0  0  0  0  0
  187.6540  175.5020  140.9040 N   0  0  0  0  0  0  0  0  0  0  0  0
  187.3870  175.6660  139.5570 C   0  0  0  0  0  0  0  0  0  0  0  0
  189.8420  172.4870  141.1790 C   0  0  0  0  0  2  0  0  0  0  0  0
  183.6350  178.8280  145.2110 N   0  0  0  0  0  0  0  0  0  0  0  0
  186.9430  176.3320  147.9290 C   0  0  0  0  0  1  0  0  0  0  0  0
  184.4260  178.0000  145.8010 C   0  0  0  0  0  0  0  0  0  0  0  0
  187.5540  178.9890  142.2380 N   0  0  0  0  0  2  0  0  0  0  0  0
  188.9270  175.3160  146.2560 C   0  0  1  0  0  3  0  0  0  0  0  0
  188.8470  176.8590  146.3850 C   0  0  2  0  0  3  0  0  0  0  0  0
  188.9480  173.4890  140.5270 C   0  0  0  0  0  0  0  0  0  0  0  0
  184.2360  179.3570  144.0270 C   0  0  0  0  0  2  0  0  0  0  0  0
  188.5740  173.4440  139.1880 C   0  0  0  0  0  3  0  0  0  0  0  0
  185.5760  177.6670  141.4500 C   0  0  1  0  0  3  0  0  0  0  0  0
  189.9680  177.4590  146.9690 F   0  0  0  0  0  0  0  0  0  0  0  0
  187.6580  177.4400  147.0660 C   0  0  1  0  0  3  0  0  0  0  0  0
  186.8910  176.9170  139.2340 C   0  0  0  0  0  3  0  0  0  0  0  0
  186.5850  178.0350  140.2970 C   0  0  2  0  0  3  0  0  0  0  0  0
  185.6730  177.7200  145.1020 C   0  0  1  0  0  3  0  0  0  0  0  0
  185.5700  178.7080  143.9630 C   0  0  1  0  0  3  0  0  0  0  0  0
  189.9560  175.1420  145.2860 N   0  0  0  0  0  2  0  0  0  0  0  0
  188.9120  174.8370  142.6380 O   0  0  0  0  0  0  0  0  0  0  0  0
  190.7570  173.1340  142.2650 C   0  0  0  0  0  2  0  0  0  0  0  0
  187.7040  174.5780  138.5810 C   0  0  0  0  0  2  0  0  0  0  0  0
  189.2880  174.5760  147.4670 C   0  0  0  0  0  1  0  0  0  0  0  0
  188.4690  174.5680  141.3540 C   0  0  0  0  0  0  0  0  0  0  0  0
  186.2680  178.3920  142.5960 C   0  0  2  0  0  3  0  0  0  0  0  0
  183.0810  177.3900  139.4930 O   0  0  0  0  0  0  0  0  0  0  0  0
  184.2990  178.3360  141.2800 N   0  0  0  0  0  2  0  0  0  0  0  0
  183.0950  177.8620  140.6620 C   0  0  0  0  0  0  0  0  0  0  0  0
  181.6880  178.1310  141.3120 C   0  0  1  0  0  3  0  0  0  0  0  0
  181.7700  179.1640  142.2620 O   0  0  0  0  0  0  0  0  0  0  0  0
  180.5090  179.3390  142.8330 C   0  0  0  0  0  1  0  0  0  0  0  0
  180.6220  178.4370  140.2210 C   0  0  0  0  0  2  0  0  0  0  0  0
  178.4030  176.7410  138.2540 C   0  0  0  0  0  1  0  0  0  0  0  0
  179.4380  177.6130  140.3640 N   0  0  0  0  0  2  0  0  0  0  0  0
  177.7440  178.7450  139.3040 O   0  0  0  0  0  0  0  0  0  0  0  0
  178.4520  177.7160  139.3540 C   0  0  0  0  0  0  0  0  0  0  0  0
  191.2360  175.5530  142.9390 C   0  0  0  0  0  2  0  0  0  0  0  0
  192.2580  175.6520  143.8670 O   0  0  0  0  0  0  0  0  0  0  0  0
  193.3680  176.1140  143.0920 C   0  0  0  0  0  2  0  0  0  0  0  0
  194.0330  175.8220  141.6500 C   0  0  0  0  0  2  0  0  0  0  0  0
  196.0000  173.5290  139.3090 N   0  0  1  0  0  0  0  0  0  0  0  0
  195.8880  174.3980  135.2970 C   0  0  0  0  0  3  0  0  0  0  0  0
  195.0610  174.9660  136.3180 N   0  0  0  0  0  0  0  0  0  0  0  0
  197.9410  172.8330  140.9160 C   0  0  0  0  0  2  0  0  0  0  0  0
  194.5180  174.4100  141.0780 C   0  0  2  0  0  3  0  0  0  0  0  0
  196.9920  173.7340  135.6140 C   0  0  0  0  0  3  0  0  0  0  0  0
  195.4350  174.9570  137.5790 C   0  0  0  0  0  0  0  0  0  0  0  0
  195.5950  173.5540  141.9120 C   0  0  2  0  0  3  0  0  0  0  0  0
  196.6570  174.3110  138.1350 C   0  0  2  0  0  3  0  0  0  0  0  0
  196.6180  173.1350  140.7120 C   0  0  0  0  0  0  0  0  0  0  0  0
  194.5360  175.2020  138.6190 N   0  0  0  0  0  2  0  0  0  0  0  0
  197.3680  173.3980  137.0790 C   0  0  0  0  0  2  0  0  0  0  0  0
  196.9960  171.5670  140.7800 C   0  0  0  0  0  2  0  0  0  0  0  0
  195.2150  174.6900  139.7490 C   0  0  2  0  0  3  0  0  0  0  0  0
  195.4200  173.1720  143.4740 C   0  0  2  0  0  3  0  0  0  0  0  0
  194.0560  172.5630  143.7950 C   0  0  0  0  0  2  0  0  0  0  0  0
  193.9820  171.2320  143.0790 C   0  0  0  0  0  1  0  0  0  0  0  0
  196.2660  174.0000  144.4610 N   0  0  0  0  0  0  0  0  0  0  0  0
  195.4940  174.6520  145.5310 C   0  0  0  0  0  1  0  0  0  0  0  0
  197.3500  173.2920  145.1060 C   0  0  0  0  0  2  0  0  0  0  0  0
  197.0430  172.6760  146.3900 O   0  0  0  0  0  1  0  0  0  0  0  0
  1 20  1  0  0  0  0
  2 25  1  0  0  0  0
  4 12  1  0  0  0  0
  5 43  1  6  0  0  0
  5  2  1  0  0  0  0
  6 30  2  0  0  0  0
  7  6  1  0  0  0  0
  8 27  1  0  0  0  0
  9 11  2  0  0  0  0
 11  3  1  0  0  0  0
 13 14  1  0  0  0  0
 13 29  1  1  0  0  0
 14 19  1  1  0  0  0
 14 20  1  0  0  0  0
 15  8  1  0  0  0  0
 15 30  1  0  0  0  0
 16  9  1  0  0  0  0
 17 15  2  0  0  0  0
 18 33  1  6  0  0  0
 18 31  1  0  0  0  0
 20 10  1  6  0  0  0
 21  7  2  0  0  0  0
 22 21  1  6  0  0  0
 22  4  1  0  0  0  0
 22 18  1  0  0  0  0
 23 11  1  0  0  0  0
 23  1  1  1  0  0  0
 24 16  1  6  0  0  0
 24 23  1  0  0  0  0
 25 13  1  0  0  0  0
 26  5  1  0  0  0  0
 27  5  1  0  0  0  0
 28 17  1  0  0  0  0
 28  7  1  0  0  0  0
 30 26  1  0  0  0  0
 31 12  1  6  0  0  0
 31 24  1  0  0  0  0
 32 34  2  0  0  0  0
 34 33  1  0  0  0  0
 34 35  1  0  0  0  0
 35 38  1  6  0  0  0
 35 36  1  0  0  0  0
 36 37  1  0  0  0  0
 38 40  1  0  0  0  0
 39 42  1  0  0  0  0
 41 42  2  0  0  0  0
 42 40  1  0  0  0  0
 43 44  1  0  0  0  0
 45 44  1  0  0  0  0
 46 45  1  0  0  0  0
 47 60  1  0  0  0  0
 47 56  1  1  0  0  0
 48 52  2  0  0  0  0
 48 49  1  0  0  0  0
 49 53  2  0  0  0  0
 51 46  1  1  0  0  0
 51 54  1  0  0  0  0
 52 58  1  0  0  0  0
 53 55  1  0  0  0  0
 53 57  1  0  0  0  0
 54 61  1  6  0  0  0
 55 58  1  6  0  0  0
 55 47  1  0  0  0  0
 56 59  1  0  0  0  0
 56 50  1  0  0  0  0
 56 54  1  0  0  0  0
 59 50  1  0  0  0  0
 60 57  1  6  0  0  0
 60 51  1  0  0  0  0
 61 62  1  1  0  0  0
 61 64  1  0  0  0  0
 63 62  1  0  0  0  0
 64 66  1  0  0  0  0
 64 65  1  0  0  0  0
 66 67  1  0  0  0  0
M  END
>  <MODEL>
1

>  <REMARK>
 VINA RESULT:      -7.9      0.000      0.000
  Name = 
  14 active torsions:
  status: ('A' for Active; 'I' for Inactive)
    1  A    between atoms: C_3  and  C_30
    2  A    between atoms: C_9  and  C_38
    3  A    between atoms: N_13  and  C_49
    4  A    between atoms: O_17  and  C_36
    5  A    between atoms: C_20  and  C_57
    6  A    between atoms: N_23  and  C_37
    7  A    between atoms: C_25  and  C_30
    8  A    between atoms: O_27  and  C_38
    9  A    between atoms: O_27  and  C_39
   10  A    between atoms: C_28  and  N_41
   11  A    between atoms: C_30  and  N_41
   12  A    between atoms: C_36  and  C_49
   13  A    between atoms: C_36  and  C_67
   14  A    between atoms: C_39  and  C_57
                            x       y       z     vdW  Elec       q    Type
                         _______ _______ _______ _____ _____    ______ ____

>  <TORSDO>
F 14

$$$$
=
 OpenBabel11062422483D

 67 75  0  0  1  0  0  0  0  0999 V2000
  186.8100  178.2670  146.1170 C   0  0  0  0  0  2  0  0  0  0  0  0
  189.9420  173.8360  144.7510 C   0  0  0  0  0  2  0  0  0  0  0  0
  184.0650  177.3630  146.9060 F   0  0  0  0  0  0  0  0  0  0  0  0
  187.9930  178.3850  141.0270 N   0  0  0  0  0  2  0  0  0  0  0  0
  190.2270  174.2440  143.3120 C   0  0  2  0  0  0  0  0  0  0  0  0
  187.7160  175.3920  141.0640 N   0  0  0  0  0  0  0  0  0  0  0  0
  187.4770  175.5380  139.7100 C   0  0  0  0  0  0  0  0  0  0  0  0
  189.8400  172.3410  141.4300 C   0  0  0  0  0  2  0  0  0  0  0  0
  183.6870  178.8690  145.2390 N   0  0  0  0  0  0  0  0  0  0  0  0
  186.8960  176.3580  148.0590 C   0  0  0  0  0  1  0  0  0  0  0  0
  184.4510  178.0370  145.8580 C   0  0  0  0  0  0  0  0  0  0  0  0
  187.6610  178.9030  142.3360 N   0  0  0  0  0  2  0  0  0  0  0  0
  188.8890  175.2750  146.4410 C   0  0  1  0  0  3  0  0  0  0  0  0
  188.8370  176.8210  146.5420 C   0  0  2  0  0  3  0  0  0  0  0  0
  188.9780  173.3480  140.7460 C   0  0  0  0  0  0  0  0  0  0  0  0
  184.3200  179.3660  144.0580 C   0  0  0  0  0  2  0  0  0  0  0  0
  188.6270  173.2870  139.4000 C   0  0  0  0  0  3  0  0  0  0  0  0
  185.6720  177.6060  141.5350 C   0  0  1  0  0  3  0  0  0  0  0  0
  189.9600  177.4090  147.1360 F   0  0  0  0  0  0  0  0  0  0  0  0
  187.6480  177.4370  147.1910 C   0  0  1  0  0  3  0  0  0  0  0  0
  187.0120  176.7920  139.3570 C   0  0  0  0  0  3  0  0  0  0  0  0
  186.7090  177.9340  140.3940 C   0  0  2  0  0  3  0  0  0  0  0  0
  185.7040  177.7200  145.1870 C   0  0  1  0  0  3  0  0  0  0  0  0
  185.6410  178.6900  144.0290 C   0  0  1  0  0  3  0  0  0  0  0  0
  189.9320  175.0650  145.4930 N   0  0  0  0  0  2  0  0  0  0  0  0
  188.9310  174.7340  142.8320 O   0  0  0  0  0  0  0  0  0  0  0  0
  190.7480  172.9890  142.5220 C   0  0  0  0  0  2  0  0  0  0  0  0
  187.7910  174.4270  138.7590 C   0  0  0  0  0  2  0  0  0  0  0  0
  189.2140  174.5500  147.6700 C   0  0  0  0  0  1  0  0  0  0  0  0
  188.5050  174.4510  141.5450 C   0  0  0  0  0  0  0  0  0  0  0  0
  186.3570  178.3370  142.6810 C   0  0  2  0  0  3  0  0  0  0  0  0
  183.3130  177.4950  139.4000 O   0  0  0  0  0  0  0  0  0  0  0  0
  184.4120  178.2960  141.3300 N   0  0  0  0  0  2  0  0  0  0  0  0
  183.2500  177.8790  140.6000 C   0  0  0  0  0  0  0  0  0  0  0  0
  181.8040  178.1110  141.1730 C   0  0  1  0  0  3  0  0  0  0  0  0
  181.6530  179.4360  141.6170 O   0  0  0  0  0  0  0  0  0  0  0  0
  180.9670  179.4190  142.8320 C   0  0  0  0  0  1  0  0  0  0  0  0
  180.7230  177.7320  140.1200 C   0  0  0  0  0  2  0  0  0  0  0  0
  177.6920  178.8990  141.1830 C   0  0  0  0  0  1  0  0  0  0  0  0
  179.8130  178.8280  139.8480 N   0  0  0  0  0  2  0  0  0  0  0  0
  177.8770  177.8690  139.0710 O   0  0  0  0  0  0  0  0  0  0  0  0
  178.4280  178.5610  139.9540 C   0  0  0  0  0  0  0  0  0  0  0  0
  191.2620  175.4100  143.1630 C   0  0  0  0  0  2  0  0  0  0  0  0
  192.2150  175.3060  142.1650 O   0  0  0  0  0  0  0  0  0  0  0  0
  193.4330  175.1040  142.8850 C   0  0  0  0  0  2  0  0  0  0  0  0
  194.8800  174.4340  142.6350 C   0  0  0  0  0  2  0  0  0  0  0  0
  194.6200  170.6290  142.8760 N   0  0  1  0  0  0  0  0  0  0  0  0
  195.1400  168.9400  146.5830 C   0  0  0  0  0  3  0  0  0  0  0  0
  195.4140  170.2960  146.2150 N   0  0  0  0  0  0  0  0  0  0  0  0
  192.8990  170.1910  140.9570 C   0  0  0  0  0  2  0  0  0  0  0  0
  195.1840  172.9310  142.1830 C   0  0  2  0  0  3  0  0  0  0  0  0
  194.3970  168.1660  145.8030 C   0  0  0  0  0  3  0  0  0  0  0  0
  194.8380  170.8470  145.1690 C   0  0  0  0  0  0  0  0  0  0  0  0
  194.4450  172.3400  140.8810 C   0  0  2  0  0  3  0  0  0  0  0  0
  193.9360  170.1670  144.1960 C   0  0  2  0  0  3  0  0  0  0  0  0
  193.9690  170.8890  141.4560 C   0  0  0  0  0  0  0  0  0  0  0  0
  195.3130  172.0290  144.6000 N   0  0  0  0  0  2  0  0  0  0  0  0
  193.9200  168.6140  144.3980 C   0  0  0  0  0  2  0  0  0  0  0  0
  194.3070  169.7020  140.4170 C   0  0  0  0  0  2  0  0  0  0  0  0
  194.7150  172.0250  143.3190 C   0  0  2  0  0  3  0  0  0  0  0  0
  194.4540  173.0690  139.4370 C   0  0  2  0  0  3  0  0  0  0  0  0
  193.0880  173.6240  139.0370 C   0  0  0  0  0  2  0  0  0  0  0  0
  192.2180  172.4440  138.6650 C   0  0  0  0  0  1  0  0  0  0  0  0
  195.5260  172.5750  138.4470 N   0  0  0  0  0  0  0  0  0  0  0  0
  195.1970  172.7950  137.0290 C   0  0  0  0  0  1  0  0  0  0  0  0
  196.8580  173.1030  138.6480 C   0  0  0  0  0  2  0  0  0  0  0  0
  197.7780  172.2600  139.3980 O   0  0  0  0  0  1  0  0  0  0  0  0
  1 20  1  0  0  0  0
  2 25  1  0  0  0  0
  4 12  1  0  0  0  0
  5 43  1  6  0  0  0
  5  2  1  0  0  0  0
  6 30  2  0  0  0  0
  7  6  1  0  0  0  0
  8 27  1  0  0  0  0
  9 11  2  0  0  0  0
 11  3  1  0  0  0  0
 13 14  1  0  0  0  0
 13 29  1  1  0  0  0
 14 19  1  1  0  0  0
 14 20  1  0  0  0  0
 15  8  1  0  0  0  0
 15 30  1  0  0  0  0
 16  9  1  0  0  0  0
 17 15  2  0  0  0  0
 18 33  1  6  0  0  0
 18 31  1  0  0  0  0
 20 10  1  6  0  0  0
 21  7  2  0  0  0  0
 22 21  1  1  0  0  0
 22  4  1  0  0  0  0
 22 18  1  0  0  0  0
 23 11  1  0  0  0  0
 23  1  1  1  0  0  0
 24 16  1  6  0  0  0
 24 23  1  0  0  0  0
 25 13  1  0  0  0  0
 26  5  1  0  0  0  0
 27  5  1  0  0  0  0
 28 17  1  0  0  0  0
 28  7  1  0  0  0  0
 30 26  1  0  0  0  0
 31 12  1  6  0  0  0
 31 24  1  0  0  0  0
 32 34  2  0  0  0  0
 34 35  1  0  0  0  0
 34 33  1  0  0  0  0
 35 38  1  6  0  0  0
 35 36  1  0  0  0  0
 36 37  1  0  0  0  0
 40 42  1  0  0  0  0
 40 38  1  0  0  0  0
 41 42  2  0  0  0  0
 42 39  1  0  0  0  0
 44 45  1  0  0  0  0
 44 43  1  0  0  0  0
 46 45  1  0  0  0  0
 47 56  1  6  0  0  0
 47 60  1  0  0  0  0
 47 55  1  0  0  0  0
 49 48  1  0  0  0  0
 50 56  1  0  0  0  0
 51 46  1  1  0  0  0
 51 60  1  0  0  0  0
 52 48  2  0  0  0  0
 53 49  2  0  0  0  0
 54 61  1  6  0  0  0
 54 56  1  0  0  0  0
 54 51  1  0  0  0  0
 55 58  1  1  0  0  0
 55 53  1  0  0  0  0
 57 53  1  0  0  0  0
 58 52  1  0  0  0  0
 59 50  1  0  0  0  0
 59 56  1  0  0  0  0
 60 57  1  1  0  0  0
 61 62  1  6  0  0  0
 63 62  1  0  0  0  0
 64 66  1  0  0  0  0
 64 61  1  0  0  0  0
 65 64  1  0  0  0  0
 66 67  1  0  0  0  0
M  END
>  <MODEL>
2

>  <REMARK>
 VINA RESULT:      -7.6      1.782      4.046
  Name = 
  14 active torsions:
  status: ('A' for Active; 'I' for Inactive)
    1  A    between atoms: C_3  and  C_30
    2  A    between atoms: C_9  and  C_38
    3  A    between atoms: N_13  and  C_49
    4  A    between atoms: O_17  and  C_36
    5  A    between atoms: C_20  and  C_57
    6  A    between atoms: N_23  and  C_37
    7  A    between atoms: C_25  and  C_30
    8  A    between atoms: O_27  and  C_38
    9  A    between atoms: O_27  and  C_39
   10  A    between atoms: C_28  and  N_41
   11  A    between atoms: C_30  and  N_41
   12  A    between atoms: C_36  and  C_49
   13  A    between atoms: C_36  and  C_67
   14  A    between atoms: C_39  and  C_57
                            x       y       z     vdW  Elec       q    Type
                         _______ _______ _______ _____ _____    ______ ____

>  <TORSDO>
F 14

$$$$
=
 OpenBabel11062422483D

 67 75  0  0  1  0  0  0  0  0999 V2000
  190.8260  171.0750  137.6030 C   0  0  0  0  0  2  0  0  0  0  0  0
  196.1690  172.5760  136.8830 C   0  0  0  0  0  2  0  0  0  0  0  0
  189.0420  172.8870  136.0190 F   0  0  0  0  0  0  0  0  0  0  0  0
  192.8180  172.8850  142.0830 N   0  0  0  0  0  2  0  0  0  0  0  0
  196.4730  172.8890  138.3420 C   0  0  2  0  0  0  0  0  0  0  0  0
  194.3500  174.8590  140.4110 N   0  0  0  0  0  0  0  0  0  0  0  0
  194.3820  175.6060  141.5740 C   0  0  0  0  0  0  0  0  0  0  0  0
  197.7100  175.2450  138.8250 C   0  0  0  0  0  2  0  0  0  0  0  0
  188.2390  173.0490  138.1450 N   0  0  0  0  0  0  0  0  0  0  0  0
  191.5770  171.1950  134.9860 C   0  0  0  0  0  1  0  0  0  0  0  0
  189.1820  172.7770  137.3110 C   0  0  0  0  0  0  0  0  0  0  0  0
  191.9630  172.1020  141.2190 N   0  0  0  0  0  2  0  0  0  0  0  0
  194.1260  171.4730  136.0760 C   0  0  1  0  0  3  0  0  0  0  0  0
  193.1570  170.5100  136.8090 C   0  0  2  0  0  3  0  0  0  0  0  0
  196.6010  175.5030  139.7910 C   0  0  0  0  0  0  0  0  0  0  0  0
  188.7050  172.9660  139.4930 C   0  0  0  0  0  2  0  0  0  0  0  0
  196.6660  176.4390  140.8180 C   0  0  0  0  0  3  0  0  0  0  0  0
  191.3550  174.5080  140.8690 C   0  0  1  0  0  3  0  0  0  0  0  0
  193.5530  169.1680  136.8120 F   0  0  0  0  0  0  0  0  0  0  0  0
  191.7250  170.5240  136.4050 C   0  0  1  0  0  3  0  0  0  0  0  0
  193.3630  175.3040  142.4600 C   0  0  0  0  0  3  0  0  0  0  0  0
  192.2250  174.2610  142.1590 C   0  0  2  0  0  3  0  0  0  0  0  0
  190.4950  172.5530  137.9040 C   0  0  1  0  0  3  0  0  0  0  0  0
  190.1360  172.5910  139.3710 C   0  0  1  0  0  3  0  0  0  0  0  0
  195.2740  171.4530  136.9210 N   0  0  0  0  0  2  0  0  0  0  0  0
  195.2850  173.6210  138.7900 O   0  0  0  0  0  0  0  0  0  0  0  0
  197.7920  173.7420  138.4130 C   0  0  0  0  0  2  0  0  0  0  0  0
  195.4900  176.5790  141.8220 C   0  0  0  0  0  2  0  0  0  0  0  0
  194.5290  171.0910  134.7220 C   0  0  0  0  0  1  0  0  0  0  0  0
  195.4080  174.7090  139.6380 C   0  0  0  0  0  0  0  0  0  0  0  0
  191.2020  173.0610  140.4190 C   0  0  2  0  0  3  0  0  0  0  0  0
  189.2520  173.9300  143.1870 O   0  0  0  0  0  0  0  0  0  0  0  0
  190.0150  174.9550  141.2020 N   0  0  0  0  0  2  0  0  0  0  0  0
  189.3450  174.9640  142.4700 C   0  0  0  0  0  0  0  0  0  0  0  0
  188.4760  176.1940  142.9220 C   0  0  1  0  0  3  0  0  0  0  0  0
  189.2720  177.3470  143.0400 O   0  0  0  0  0  0  0  0  0  0  0  0
  189.8710  177.3430  144.3000 C   0  0  0  0  0  1  0  0  0  0  0  0
  187.2830  176.4180  141.9500 C   0  0  0  0  0  2  0  0  0  0  0  0
  184.4120  178.2700  142.0500 C   0  0  0  0  0  1  0  0  0  0  0  0
  186.0070  176.4280  142.6390 N   0  0  0  0  0  2  0  0  0  0  0  0
  185.9450  178.3860  143.8360 O   0  0  0  0  0  0  0  0  0  0  0  0
  185.4380  177.6900  142.9310 C   0  0  0  0  0  0  0  0  0  0  0  0
  196.6290  171.6270  139.2550 C   0  0  0  0  0  2  0  0  0  0  0  0
  197.7430  171.5530  140.0730 O   0  0  0  0  0  0  0  0  0  0  0  0
  197.3250  172.2180  141.2680 C   0  0  0  0  0  2  0  0  0  0  0  0
  197.8670  172.4420  142.7720 C   0  0  0  0  0  2  0  0  0  0  0  0
  195.1170  172.8280  145.3970 N   0  0  1  0  0  0  0  0  0  0  0  0
  194.2020  176.6430  146.6130 C   0  0  0  0  0  3  0  0  0  0  0  0
  195.3300  176.2430  145.8280 N   0  0  0  0  0  0  0  0  0  0  0  0
  193.6360  170.7650  144.7780 C   0  0  0  0  0  2  0  0  0  0  0  0
  197.1080  172.0920  144.1340 C   0  0  2  0  0  3  0  0  0  0  0  0
  193.1690  175.8260  146.7750 C   0  0  0  0  0  3  0  0  0  0  0  0
  195.3190  175.1190  145.1440 C   0  0  0  0  0  0  0  0  0  0  0  0
  196.2240  170.7500  144.2170 C   0  0  2  0  0  3  0  0  0  0  0  0
  194.2400  174.0910  145.1510 C   0  0  2  0  0  3  0  0  0  0  0  0
  194.8730  171.3390  144.9180 C   0  0  0  0  0  0  0  0  0  0  0  0
  196.4890  174.5490  144.6410 N   0  0  0  0  0  2  0  0  0  0  0  0
  193.1800  174.3610  146.2710 C   0  0  0  0  0  2  0  0  0  0  0  0
  194.3770  170.3950  146.1300 C   0  0  0  0  0  2  0  0  0  0  0  0
  196.1020  173.2140  144.3790 C   0  0  2  0  0  3  0  0  0  0  0  0
  196.7850  169.2830  143.8300 C   0  0  2  0  0  3  0  0  0  0  0  0
  197.8150  168.7510  144.8250 C   0  0  0  0  0  2  0  0  0  0  0  0
  197.0620  168.3390  146.0700 C   0  0  0  0  0  1  0  0  0  0  0  0
  196.7490  168.9310  142.3300 N   0  0  0  0  0  0  0  0  0  0  0  0
  197.9410  168.2190  141.8410 C   0  0  0  0  0  1  0  0  0  0  0  0
  195.6020  168.1660  141.8910 C   0  0  0  0  0  2  0  0  0  0  0  0
  195.3200  168.1900  140.4630 O   0  0  0  0  0  1  0  0  0  0  0  0
  2 25  1  0  0  0  0
  2  5  1  0  0  0  0
  3 11  1  0  0  0  0
  4 22  1  0  0  0  0
  5 27  1  0  0  0  0
  5 26  1  0  0  0  0
  5 43  1  1  0  0  0
  6  7  1  0  0  0  0
  7 28  1  0  0  0  0
  7 21  2  0  0  0  0
  8 15  1  0  0  0  0
  9 16  1  0  0  0  0
 11 23  1  0  0  0  0
 11  9  2  0  0  0  0
 12  4  1  0  0  0  0
 13 29  1  6  0  0  0
 13 14  1  0  0  0  0
 13 25  1  0  0  0  0
 14 19  1  6  0  0  0
 15 17  2  0  0  0  0
 17 28  1  0  0  0  0
 18 33  1  1  0  0  0
 18 22  1  0  0  0  0
 20 10  1  6  0  0  0
 20 14  1  0  0  0  0
 20  1  1  0  0  0  0
 22 21  1  6  0  0  0
 23  1  1  6  0  0  0
 23 24  1  0  0  0  0
 24 16  1  6  0  0  0
 24 31  1  0  0  0  0
 26 30  1  0  0  0  0
 27  8  1  0  0  0  0
 30 15  1  0  0  0  0
 30  6  2  0  0  0  0
 31 18  1  0  0  0  0
 31 12  1  1  0  0  0
 33 34  1  0  0  0  0
 34 35  1  0  0  0  0
 34 32  2  0  0  0  0
 35 38  1  6  0  0  0
 35 36  1  0  0  0  0
 36 37  1  0  0  0  0
 38 40  1  0  0  0  0
 39 42  1  0  0  0  0
 40 42  1  0  0  0  0
 42 41  2  0  0  0  0
 43 44  1  0  0  0  0
 44 45  1  0  0  0  0
 45 46  1  0  0  0  0
 47 56  1  6  0  0  0
 48 52  2  0  0  0  0
 49 48  1  0  0  0  0
 50 56  1  0  0  0  0
 50 59  1  0  0  0  0
 51 46  1  6  0  0  0
 51 54  1  0  0  0  0
 51 60  1  0  0  0  0
 53 55  1  0  0  0  0
 53 49  2  0  0  0  0
 54 61  1  1  0  0  0
 54 56  1  0  0  0  0
 55 47  1  0  0  0  0
 55 58  1  1  0  0  0
 56 59  1  0  0  0  0
 57 53  1  0  0  0  0
 58 52  1  0  0  0  0
 60 57  1  1  0  0  0
 60 47  1  0  0  0  0
 61 62  1  6  0  0  0
 62 63  1  0  0  0  0
 64 61  1  0  0  0  0
 65 64  1  0  0  0  0
 66 64  1  0  0  0  0
 67 66  1  0  0  0  0
M  END
>  <MODEL>
3

>  <REMARK>
 VINA RESULT:      -7.0      3.796      8.611
  Name = 
  14 active torsions:
  status: ('A' for Active; 'I' for Inactive)
    1  A    between atoms: C_3  and  C_30
    2  A    between atoms: C_9  and  C_38
    3  A    between atoms: N_13  and  C_49
    4  A    between atoms: O_17  and  C_36
    5  A    between atoms: C_20  and  C_57
    6  A    between atoms: N_23  and  C_37
    7  A    between atoms: C_25  and  C_30
    8  A    between atoms: O_27  and  C_38
    9  A    between atoms: O_27  and  C_39
   10  A    between atoms: C_28  and  N_41
   11  A    between atoms: C_30  and  N_41
   12  A    between atoms: C_36  and  C_49
   13  A    between atoms: C_36  and  C_67
   14  A    between atoms: C_39  and  C_57
                            x       y       z     vdW  Elec       q    Type
                         _______ _______ _______ _____ _____    ______ ____

>  <TORSDO>
F 14

$$$$
=
 OpenBabel11062422483D

 67 75  0  0  1  0  0  0  0  0999 V2000
  193.8330  176.3440  143.9370 C   0  0  0  0  0  2  0  0  0  0  0  0
  195.3900  171.0320  144.7570 C   0  0  0  0  0  2  0  0  0  0  0  0
  191.8620  177.1580  146.0410 F   0  0  0  0  0  0  0  0  0  0  0  0
  192.1420  173.3360  140.0120 N   0  0  0  0  0  2  0  0  0  0  0  0
  194.9010  170.4860  143.4220 C   0  0  2  0  0  0  0  0  0  0  0  0
  191.6840  171.1950  142.0720 N   0  0  0  0  0  0  0  0  0  0  0  0
  190.7760  170.7010  141.1530 C   0  0  0  0  0  0  0  0  0  0  0  0
  193.4210  168.2250  143.5270 C   0  0  0  0  0  2  0  0  0  0  0  0
  190.7820  177.5900  144.0820 N   0  0  0  0  0  0  0  0  0  0  0  0
  194.7800  175.8650  146.4470 C   0  0  0  0  0  1  0  0  0  0  0  0
  191.6860  176.9750  144.7610 C   0  0  0  0  0  0  0  0  0  0  0  0
  192.5980  174.5360  140.6770 N   0  0  0  0  0  2  0  0  0  0  0  0
  195.5160  173.4150  145.3420 C   0  0  1  0  0  3  0  0  0  0  0  0
  195.6520  174.6610  144.4280 C   0  0  2  0  0  3  0  0  0  0  0  0
  192.4130  168.9780  142.7250 C   0  0  0  0  0  0  0  0  0  0  0  0
  190.7300  177.1050  142.7380 C   0  0  0  0  0  2  0  0  0  0  0  0
  191.3990  168.3770  141.9860 C   0  0  0  0  0  3  0  0  0  0  0  0
  190.3890  173.9300  141.6930 C   0  0  1  0  0  3  0  0  0  0  0  0
  196.9620  174.9670  144.0440 F   0  0  0  0  0  0  0  0  0  0  0  0
  195.0430  175.9360  144.8950 C   0  0  1  0  0  3  0  0  0  0  0  0
  190.2980  171.6550  140.2720 C   0  0  0  0  0  3  0  0  0  0  0  0
  190.6860  173.1780  140.3410 C   0  0  2  0  0  3  0  0  0  0  0  0
  192.3620  175.8890  144.0630 C   0  0  1  0  0  3  0  0  0  0  0  0
  191.7750  176.0520  142.6810 C   0  0  1  0  0  3  0  0  0  0  0  0
  195.8760  172.3510  144.4640 N   0  0  0  0  0  2  0  0  0  0  0  0
  193.5920  171.1250  143.2490 O   0  0  0  0  0  0  0  0  0  0  0  0
  194.8190  168.9180  143.5150 C   0  0  0  0  0  2  0  0  0  0  0  0
  190.4460  169.2430  141.1190 C   0  0  0  0  0  2  0  0  0  0  0  0
  196.3820  173.3710  146.5200 C   0  0  0  0  0  1  0  0  0  0  0  0
  192.5280  170.4150  142.7200 C   0  0  0  0  0  0  0  0  0  0  0  0
  191.6350  174.8040  141.7440 C   0  0  2  0  0  3  0  0  0  0  0  0
  187.2820  173.8840  142.3840 O   0  0  0  0  0  0  0  0  0  0  0  0
  189.2730  174.8490  141.5620 N   0  0  0  0  0  2  0  0  0  0  0  0
  188.0350  174.8910  142.2850 C   0  0  0  0  0  0  0  0  0  0  0  0
  187.4290  176.2550  142.7810 C   0  0  1  0  0  3  0  0  0  0  0  0
  186.4470  176.7150  141.8870 O   0  0  0  0  0  0  0  0  0  0  0  0
  186.9310  177.8560  141.2480 C   0  0  0  0  0  1  0  0  0  0  0  0
  186.8720  176.1210  144.2270 C   0  0  0  0  0  2  0  0  0  0  0  0
  184.7900  177.5690  146.5170 C   0  0  0  0  0  1  0  0  0  0  0  0
  186.6600  177.4110  144.8550 N   0  0  0  0  0  2  0  0  0  0  0  0
  184.5550  178.0840  144.2290 O   0  0  0  0  0  0  0  0  0  0  0  0
  185.3260  177.7700  145.1610 C   0  0  0  0  0  0  0  0  0  0  0  0
  195.7910  170.8820  142.1960 C   0  0  0  0  0  2  0  0  0  0  0  0
  196.4700  169.8720  141.5370 O   0  0  0  0  0  0  0  0  0  0  0  0
  195.5080  169.3760  140.6030 C   0  0  0  0  0  2  0  0  0  0  0  0
  194.3890  169.9670  139.6000 C   0  0  0  0  0  2  0  0  0  0  0  0
  196.1290  172.9680  137.9970 N   0  0  1  0  0  0  0  0  0  0  0  0
  197.1460  176.0890  140.4650 C   0  0  0  0  0  3  0  0  0  0  0  0
  196.2990  174.9820  140.7910 N   0  0  0  0  0  0  0  0  0  0  0  0
  197.4040  171.7490  136.0680 C   0  0  0  0  0  2  0  0  0  0  0  0
  194.5880  171.1030  138.4930 C   0  0  2  0  0  3  0  0  0  0  0  0
  197.9310  176.0470  139.3960 C   0  0  0  0  0  3  0  0  0  0  0  0
  196.3690  173.8520  140.1210 C   0  0  0  0  0  0  0  0  0  0  0  0
  195.1810  170.6990  137.0530 C   0  0  2  0  0  3  0  0  0  0  0  0
  197.2160  173.5830  138.9250 C   0  0  2  0  0  3  0  0  0  0  0  0
  196.2920  171.8790  136.8600 C   0  0  0  0  0  0  0  0  0  0  0  0
  195.3630  172.8870  140.1930 N   0  0  0  0  0  2  0  0  0  0  0  0
  197.8690  174.8920  138.3640 C   0  0  0  0  0  2  0  0  0  0  0  0
  196.2070  172.5340  135.3880 C   0  0  0  0  0  2  0  0  0  0  0  0
  195.6110  172.0880  139.0530 C   0  0  2  0  0  3  0  0  0  0  0  0
  194.5690  169.5200  136.1300 C   0  0  2  0  0  3  0  0  0  0  0  0
  195.5920  168.4430  135.7740 C   0  0  0  0  0  2  0  0  0  0  0  0
  196.4080  168.1720  137.0180 C   0  0  0  0  0  1  0  0  0  0  0  0
  193.3700  169.9180  135.2480 N   0  0  0  0  0  0  0  0  0  0  0  0
  192.4220  168.8260  134.9750 C   0  0  0  0  0  1  0  0  0  0  0  0
  192.5840  171.0370  135.7240 C   0  0  0  0  0  2  0  0  0  0  0  0
  191.1590  170.7950  135.8970 O   0  0  0  0  0  1  0  0  0  0  0  0
  1 20  1  0  0  0  0
  4 22  1  0  0  0  0
  4 12  1  0  0  0  0
  5 43  1  6  0  0  0
  5 27  1  0  0  0  0
  5  2  1  0  0  0  0
  6 30  2  0  0  0  0
  7  6  1  0  0  0  0
  9 11  2  0  0  0  0
 11  3  1  0  0  0  0
 13 29  1  1  0  0  0
 14 19  1  1  0  0  0
 14 20  1  0  0  0  0
 14 13  1  0  0  0  0
 15  8  1  0  0  0  0
 16  9  1  0  0  0  0
 17 15  2  0  0  0  0
 18 33  1  6  0  0  0
 18 31  1  0  0  0  0
 20 10  1  1  0  0  0
 21  7  2  0  0  0  0
 22 21  1  1  0  0  0
 22 18  1  0  0  0  0
 23  1  1  6  0  0  0
 23 11  1  0  0  0  0
 24 16  1  1  0  0  0
 24 23  1  0  0  0  0
 25  2  1  0  0  0  0
 25 13  1  0  0  0  0
 26  5  1  0  0  0  0
 27  8  1  0  0  0  0
 28  7  1  0  0  0  0
 28 17  1  0  0  0  0
 30 15  1  0  0  0  0
 30 26  1  0  0  0  0
 31 12  1  6  0  0  0
 31 24  1  0  0  0  0
 33 34  1  0  0  0  0
 34 32  2  0  0  0  0
 34 35  1  0  0  0  0
 35 38  1  1  0  0  0
 36 35  1  0  0  0  0
 37 36  1  0  0  0  0
 38 40  1  0  0  0  0
 40 42  1  0  0  0  0
 41 42  2  0  0  0  0
 42 39  1  0  0  0  0
 44 43  1  0  0  0  0
 45 44  1  0  0  0  0
 46 45  1  0  0  0  0
 47 56  1  6  0  0  0
 47 55  1  0  0  0  0
 47 60  1  0  0  0  0
 48 49  1  0  0  0  0
 50 56  1  0  0  0  0
 51 60  1  0  0  0  0
 51 46  1  1  0  0  0
 52 48  2  0  0  0  0
 53 57  1  0  0  0  0
 53 49  2  0  0  0  0
 54 61  1  6  0  0  0
 54 51  1  0  0  0  0
 55 58  1  6  0  0  0
 55 53  1  0  0  0  0
 56 54  1  0  0  0  0
 58 52  1  0  0  0  0
 59 50  1  0  0  0  0
 59 56  1  0  0  0  0
 60 57  1  1  0  0  0
 61 62  1  6  0  0  0
 62 63  1  0  0  0  0
 64 66  1  0  0  0  0
 64 61  1  0  0  0  0
 65 64  1  0  0  0  0
 66 67  1  0  0  0  0
M  END
>  <MODEL>
4

>  <REMARK>
 VINA RESULT:      -6.6      3.520      6.913
  Name = 
  14 active torsions:
  status: ('A' for Active; 'I' for Inactive)
    1  A    between atoms: C_3  and  C_30
    2  A    between atoms: C_9  and  C_38
    3  A    between atoms: N_13  and  C_49
    4  A    between atoms: O_17  and  C_36
    5  A    between atoms: C_20  and  C_57
    6  A    between atoms: N_23  and  C_37
    7  A    between atoms: C_25  and  C_30
    8  A    between atoms: O_27  and  C_38
    9  A    between atoms: O_27  and  C_39
   10  A    between atoms: C_28  and  N_41
   11  A    between atoms: C_30  and  N_41
   12  A    between atoms: C_36  and  C_49
   13  A    between atoms: C_36  and  C_67
   14  A    between atoms: C_39  and  C_57
                            x       y       z     vdW  Elec       q    Type
                         _______ _______ _______ _____ _____    ______ ____

>  <TORSDO>
F 14

$$$$
=
 OpenBabel11062422483D

 67 75  0  0  1  0  0  0  0  0999 V2000
  188.5420  173.8620  141.0420 C   0  0  0  0  0  2  0  0  0  0  0  0
  194.0770  173.9400  140.2220 C   0  0  0  0  0  2  0  0  0  0  0  0
  187.3090  176.3280  139.8690 F   0  0  0  0  0  0  0  0  0  0  0  0
  191.0430  174.2960  145.6100 N   0  0  0  0  0  2  0  0  0  0  0  0
  194.4840  173.9150  141.6890 C   0  0  2  0  0  0  0  0  0  0  0  0
  193.0360  176.0230  144.1650 N   0  0  0  0  0  0  0  0  0  0  0  0
  193.2970  176.5310  145.4240 C   0  0  0  0  0  0  0  0  0  0  0  0
  196.3400  175.7290  142.4470 C   0  0  0  0  0  2  0  0  0  0  0  0
  186.6220  176.3520  142.0410 N   0  0  0  0  0  0  0  0  0  0  0  0
  189.2480  174.2000  138.4310 C   0  0  0  0  0  1  0  0  0  0  0  0
  187.4360  175.9730  141.1180 C   0  0  0  0  0  0  0  0  0  0  0  0
  189.9870  173.9310  144.6920 N   0  0  0  0  0  2  0  0  0  0  0  0
  191.7930  173.5870  139.3870 C   0  0  1  0  0  3  0  0  0  0  0  0
  190.6060  172.8190  140.0250 C   0  0  2  0  0  3  0  0  0  0  0  0
  195.3660  176.1190  143.5090 C   0  0  0  0  0  0  0  0  0  0  0  0
  187.0700  175.9240  143.3290 C   0  0  0  0  0  2  0  0  0  0  0  0
  195.7090  176.8200  144.6610 C   0  0  0  0  0  3  0  0  0  0  0  0
  190.0710  176.4350  144.7520 C   0  0  1  0  0  3  0  0  0  0  0  0
  190.6090  171.4380  139.7980 F   0  0  0  0  0  0  0  0  0  0  0  0
  189.2280  173.2910  139.7190 C   0  0  1  0  0  3  0  0  0  0  0  0
  192.2510  176.3780  146.3170 C   0  0  0  0  0  3  0  0  0  0  0  0
  190.8610  175.7510  145.9330 C   0  0  2  0  0  3  0  0  0  0  0  0
  188.6440  175.3050  141.5850 C   0  0  1  0  0  3  0  0  0  0  0  0
  188.3370  175.1980  143.0600 C   0  0  1  0  0  3  0  0  0  0  0  0
  192.9040  173.1160  140.1450 N   0  0  0  0  0  2  0  0  0  0  0  0
  193.5570  174.8600  142.3190 O   0  0  0  0  0  0  0  0  0  0  0  0
  195.9900  174.3500  141.8060 C   0  0  0  0  0  2  0  0  0  0  0  0
  194.6380  177.1090  145.7470 C   0  0  0  0  0  2  0  0  0  0  0  0
  192.0470  173.3370  137.9680 C   0  0  0  0  0  1  0  0  0  0  0  0
  193.9950  175.7180  143.3130 C   0  0  0  0  0  0  0  0  0  0  0  0
  189.5110  175.1790  144.0980 C   0  0  2  0  0  3  0  0  0  0  0  0
  187.5080  175.7820  146.5230 O   0  0  0  0  0  0  0  0  0  0  0  0
  188.9170  177.1710  145.2350 N   0  0  0  0  0  2  0  0  0  0  0  0
  188.0660  176.9010  146.3570 C   0  0  0  0  0  0  0  0  0  0  0  0
  187.5850  178.0570  147.3090 C   0  0  1  0  0  3  0  0  0  0  0  0
  188.6340  178.9580  147.5640 O   0  0  0  0  0  0  0  0  0  0  0  0
  189.5640  178.3280  148.3910 C   0  0  0  0  0  1  0  0  0  0  0  0
  186.3400  178.7790  146.7190 C   0  0  0  0  0  2  0  0  0  0  0  0
  185.1780  179.5050  143.5890 C   0  0  0  0  0  1  0  0  0  0  0  0
  185.8030  178.0900  145.5610 N   0  0  0  0  0  2  0  0  0  0  0  0
  183.6660  178.8820  145.2850 O   0  0  0  0  0  0  0  0  0  0  0  0
  184.8150  178.7660  144.8070 C   0  0  0  0  0  0  0  0  0  0  0  0
  194.2960  172.5260  142.3870 C   0  0  0  0  0  2  0  0  0  0  0  0
  193.0920  172.2790  143.0240 O   0  0  0  0  0  0  0  0  0  0  0  0
  193.4650  171.4720  144.1440 C   0  0  0  0  0  2  0  0  0  0  0  0
  194.1050  170.0150  144.4160 C   0  0  0  0  0  2  0  0  0  0  0  0
  195.1050  168.8150  140.9290 N   0  0  1  0  0  0  0  0  0  0  0  0
  192.0810  168.1780  138.2230 C   0  0  0  0  0  3  0  0  0  0  0  0
  191.9370  168.4020  139.6290 N   0  0  0  0  0  0  0  0  0  0  0  0
  197.4450  169.9630  140.7300 C   0  0  0  0  0  2  0  0  0  0  0  0
  194.8960  169.0980  143.3730 C   0  0  2  0  0  3  0  0  0  0  0  0
  193.2250  168.4540  137.6090 C   0  0  0  0  0  3  0  0  0  0  0  0
  192.8800  169.0030  140.3230 C   0  0  0  0  0  0  0  0  0  0  0  0
  196.4610  169.3710  143.1170 C   0  0  2  0  0  3  0  0  0  0  0  0
  194.2130  169.4350  139.8140 C   0  0  2  0  0  3  0  0  0  0  0  0
  196.4970  169.3220  141.4860 C   0  0  0  0  0  0  0  0  0  0  0  0
  192.9190  168.9510  141.7160 N   0  0  0  0  0  2  0  0  0  0  0  0
  194.5010  168.8760  138.3790 C   0  0  0  0  0  2  0  0  0  0  0  0
  197.7210  168.4170  140.9500 C   0  0  0  0  0  2  0  0  0  0  0  0
  194.2510  169.3260  142.0080 C   0  0  2  0  0  3  0  0  0  0  0  0
  197.5610  169.4550  144.2990 C   0  0  2  0  0  3  0  0  0  0  0  0
  197.6450  168.1780  145.1330 C   0  0  0  0  0  2  0  0  0  0  0  0
  196.8580  168.4190  146.4020 C   0  0  0  0  0  1  0  0  0  0  0  0
  197.8660  170.8700  144.8280 N   0  0  0  0  0  0  0  0  0  0  0  0
  197.9400  171.9080  143.7870 C   0  0  0  0  0  1  0  0  0  0  0  0
  196.9650  171.3680  145.8450 C   0  0  0  0  0  2  0  0  0  0  0  0
  196.3880  172.6830  145.6050 O   0  0  0  0  0  1  0  0  0  0  0  0
  2  5  1  0  0  0  0
  3 11  1  0  0  0  0
  4 22  1  0  0  0  0
  5 27  1  0  0  0  0
  5 26  1  0  0  0  0
  5 43  1  1  0  0  0
  6  7  1  0  0  0  0
  7 28  1  0  0  0  0
  7 21  2  0  0  0  0
  8 15  1  0  0  0  0
  9 16  1  0  0  0  0
 11 23  1  0  0  0  0
 11  9  2  0  0  0  0
 12  4  1  0  0  0  0
 13 29  1  6  0  0  0
 13 14  1  0  0  0  0
 13 25  1  0  0  0  0
 14 19  1  6  0  0  0
 15 17  2  0  0  0  0
 17 28  1  0  0  0  0
 18 33  1  1  0  0  0
 18 22  1  0  0  0  0
 20 10  1  6  0  0  0
 20 14  1  0  0  0  0
 20  1  1  0  0  0  0
 22 21  1  6  0  0  0
 23  1  1  6  0  0  0
 23 24  1  0  0  0  0
 24 16  1  1  0  0  0
 24 31  1  0  0  0  0
 25  2  1  0  0  0  0
 26 30  1  0  0  0  0
 27  8  1  0  0  0  0
 30 15  1  0  0  0  0
 30  6  2  0  0  0  0
 31 12  1  1  0  0  0
 31 18  1  0  0  0  0
 33 34  1  0  0  0  0
 34 32  2  0  0  0  0
 34 35  1  0  0  0  0
 35 38  1  6  0  0  0
 35 36  1  0  0  0  0
 36 37  1  0  0  0  0
 39 42  1  0  0  0  0
 40 38  1  0  0  0  0
 42 41  2  0  0  0  0
 42 40  1  0  0  0  0
 43 44  1  0  0  0  0
 44 45  1  0  0  0  0
 45 46  1  0  0  0  0
 47 56  1  1  0  0  0
 47 60  1  0  0  0  0
 48 49  1  0  0  0  0
 49 53  2  0  0  0  0
 50 59  1  0  0  0  0
 50 56  1  0  0  0  0
 51 46  1  1  0  0  0
 52 48  2  0  0  0  0
 52 58  1  0  0  0  0
 53 57  1  0  0  0  0
 54 51  1  0  0  0  0
 54 61  1  1  0  0  0
 55 58  1  6  0  0  0
 55 53  1  0  0  0  0
 55 47  1  0  0  0  0
 56 54  1  0  0  0  0
 59 56  1  0  0  0  0
 60 57  1  1  0  0  0
 60 51  1  0  0  0  0
 61 64  1  0  0  0  0
 61 62  1  1  0  0  0
 62 63  1  0  0  0  0
 64 66  1  0  0  0  0
 65 64  1  0  0  0  0
 67 66  1  0  0  0  0
M  END
>  <MODEL>
5

>  <REMARK>
 VINA RESULT:      -6.4      3.544      6.782
  Name = 
  14 active torsions:
  status: ('A' for Active; 'I' for Inactive)
    1  A    between atoms: C_3  and  C_30
    2  A    between atoms: C_9  and  C_38
    3  A    between atoms: N_13  and  C_49
    4  A    between atoms: O_17  and  C_36
    5  A    between atoms: C_20  and  C_57
    6  A    between atoms: N_23  and  C_37
    7  A    between atoms: C_25  and  C_30
    8  A    between atoms: O_27  and  C_38
    9  A    between atoms: O_27  and  C_39
   10  A    between atoms: C_28  and  N_41
   11  A    between atoms: C_30  and  N_41
   12  A    between atoms: C_36  and  C_49
   13  A    between atoms: C_36  and  C_67
   14  A    between atoms: C_39  and  C_57
                            x       y       z     vdW  Elec       q    Type
                         _______ _______ _______ _____ _____    ______ ____

>  <TORSDO>
F 14

$$$$
=
 OpenBabel11062422483D

 67 75  0  0  1  0  0  0  0  0999 V2000
  194.5060  172.7790  137.1640 C   0  0  0  0  0  2  0  0  0  0  0  0
  189.1420  171.8980  138.4940 C   0  0  0  0  0  2  0  0  0  0  0  0
  196.0800  170.2650  137.5850 F   0  0  0  0  0  0  0  0  0  0  0  0
  193.1960  175.5950  141.3680 N   0  0  0  0  0  2  0  0  0  0  0  0
  189.0510  172.9370  139.6040 C   0  0  2  0  0  0  0  0  0  0  0  0
  191.4790  173.2660  142.1860 N   0  0  0  0  0  0  0  0  0  0  0  0
  191.6250  173.7870  143.4590 C   0  0  0  0  0  0  0  0  0  0  0  0
  187.9370  172.1110  141.9250 C   0  0  0  0  0  2  0  0  0  0  0  0
  197.1780  171.8150  138.8430 N   0  0  0  0  0  0  0  0  0  0  0  0
  193.3960  170.6630  135.8550 C   0  0  0  0  0  1  0  0  0  0  0  0
  196.1220  171.3930  138.2380 C   0  0  0  0  0  0  0  0  0  0  0  0
  193.9070  175.2500  140.1570 N   0  0  0  0  0  2  0  0  0  0  0  0
  191.0310  171.6590  136.9400 C   0  0  1  0  0  3  0  0  0  0  0  0
  192.0770  172.7030  136.4740 C   0  0  2  0  0  3  0  0  0  0  0  0
  189.1740  172.6310  142.5770 C   0  0  0  0  0  0  0  0  0  0  0  0
  196.9050  173.0090  139.5810 C   0  0  0  0  0  2  0  0  0  0  0  0
  189.2710  172.9360  143.9310 C   0  0  0  0  0  3  0  0  0  0  0  0
  194.5020  173.5230  141.8730 C   0  0  1  0  0  3  0  0  0  0  0  0
  191.6620  173.5160  135.4130 F   0  0  0  0  0  0  0  0  0  0  0  0
  193.4380  172.2150  136.1210 C   0  0  1  0  0  3  0  0  0  0  0  0
  192.7520  174.5730  143.6160 C   0  0  0  0  0  3  0  0  0  0  0  0
  193.8180  174.8050  142.4830 C   0  0  2  0  0  3  0  0  0  0  0  0
  194.9020  172.1420  138.5140 C   0  0  1  0  0  3  0  0  0  0  0  0
  195.4640  173.2750  139.3410 C   0  0  1  0  0  3  0  0  0  0  0  0
  190.0130  172.4780  137.5110 N   0  0  0  0  0  2  0  0  0  0  0  0
  190.3040  172.7560  140.3450 O   0  0  0  0  0  0  0  0  0  0  0  0
  187.7710  172.6450  140.4680 C   0  0  0  0  0  2  0  0  0  0  0  0
  190.5790  173.5480  144.5010 C   0  0  0  0  0  2  0  0  0  0  0  0
  190.4350  170.8190  135.9000 C   0  0  0  0  0  1  0  0  0  0  0  0
  190.3200  172.8350  141.7270 C   0  0  0  0  0  0  0  0  0  0  0  0
  194.5650  173.9700  140.4190 C   0  0  2  0  0  3  0  0  0  0  0  0
  196.5610  175.2900  143.5380 O   0  0  0  0  0  0  0  0  0  0  0  0
  195.8830  173.3960  142.3010 N   0  0  0  0  0  2  0  0  0  0  0  0
  196.5640  174.0370  143.3890 C   0  0  0  0  0  0  0  0  0  0  0  0
  197.5550  173.2370  144.3110 C   0  0  1  0  0  3  0  0  0  0  0  0
  197.0080  173.0630  145.5940 O   0  0  0  0  0  0  0  0  0  0  0  0
  196.3000  174.2170  145.9320 C   0  0  0  0  0  1  0  0  0  0  0  0
  197.9410  171.8770  143.6630 C   0  0  0  0  0  2  0  0  0  0  0  0
  196.0510  169.0800  143.1360 C   0  0  0  0  0  1  0  0  0  0  0  0
  197.4230  170.7460  144.4090 N   0  0  0  0  0  2  0  0  0  0  0  0
  195.1350  170.9100  144.3040 O   0  0  0  0  0  0  0  0  0  0  0  0
  196.1560  170.2450  144.0280 C   0  0  0  0  0  0  0  0  0  0  0  0
  189.0040  174.4190  139.1000 C   0  0  0  0  0  2  0  0  0  0  0  0
  187.8150  175.1130  139.2420 O   0  0  0  0  0  0  0  0  0  0  0  0
  188.0410  175.9330  140.3910 C   0  0  0  0  0  2  0  0  0  0  0  0
  187.4480  176.1020  141.8830 C   0  0  0  0  0  2  0  0  0  0  0  0
  184.7690  178.4860  143.2020 N   0  0  1  0  0  0  0  0  0  0  0  0
  181.5150  179.1750  140.7920 C   0  0  0  0  0  3  0  0  0  0  0  0
  182.7300  178.5150  140.4210 N   0  0  0  0  0  0  0  0  0  0  0  0
  185.0070  178.0300  145.7650 C   0  0  0  0  0  2  0  0  0  0  0  0
  186.9160  177.4470  142.5640 C   0  0  2  0  0  3  0  0  0  0  0  0
  181.2160  179.3700  142.0700 C   0  0  0  0  0  3  0  0  0  0  0  0
  183.5140  177.9720  141.3280 C   0  0  0  0  0  0  0  0  0  0  0  0
  187.0730  177.6360  144.1540 C   0  0  2  0  0  3  0  0  0  0  0  0
  183.3330  178.0360  142.8050 C   0  0  2  0  0  3  0  0  0  0  0  0
  185.5780  178.1760  144.5260 C   0  0  0  0  0  0  0  0  0  0  0  0
  184.8330  177.6140  141.0460 N   0  0  0  0  0  2  0  0  0  0  0  0
  182.2090  179.0480  143.2150 C   0  0  0  0  0  2  0  0  0  0  0  0
  185.6410  179.4590  145.5030 C   0  0  0  0  0  2  0  0  0  0  0  0
  185.4080  177.4920  142.3310 C   0  0  2  0  0  3  0  0  0  0  0  0
  188.4740  177.4630  144.9430 C   0  0  2  0  0  3  0  0  0  0  0  0
  189.6300  177.0540  144.0320 C   0  0  0  0  0  2  0  0  0  0  0  0
  190.6090  178.2070  144.0070 C   0  0  0  0  0  1  0  0  0  0  0  0
  188.3580  177.0940  146.4350 N   0  0  0  0  0  0  0  0  0  0  0  0
  188.4640  175.6530  146.7180 C   0  0  0  0  0  1  0  0  0  0  0  0
  189.2890  177.7590  147.3210 C   0  0  0  0  0  2  0  0  0  0  0  0
  190.5770  177.1060  147.5080 O   0  0  0  0  0  1  0  0  0  0  0  0
  2  5  1  0  0  0  0
  3 11  1  0  0  0  0
  4 22  1  0  0  0  0
  5 43  1  6  0  0  0
  5 26  1  0  0  0  0
  5 27  1  0  0  0  0
  6  7  1  0  0  0  0
  7 21  2  0  0  0  0
  7 28  1  0  0  0  0
  8 15  1  0  0  0  0
  9 16  1  0  0  0  0
 11 23  1  0  0  0  0
 11  9  2  0  0  0  0
 12  4  1  0  0  0  0
 13 29  1  6  0  0  0
 13 25  1  0  0  0  0
 14 19  1  6  0  0  0
 14 13  1  0  0  0  0
 15 17  2  0  0  0  0
 17 28  1  0  0  0  0
 18 33  1  1  0  0  0
 18 22  1  0  0  0  0
 20 10  1  1  0  0  0
 20 14  1  0  0  0  0
 20  1  1  0  0  0  0
 22 21  1  1  0  0  0
 23  1  1  6  0  0  0
 23 24  1  0  0  0  0
 24 16  1  1  0  0  0
 24 31  1  0  0  0  0
 25  2  1  0  0  0  0
 26 30  1  0  0  0  0
 27  8  1  0  0  0  0
 30  6  2  0  0  0  0
 30 15  1  0  0  0  0
 31 12  1  1  0  0  0
 31 18  1  0  0  0  0
 33 34  1  0  0  0  0
 34 32  2  0  0  0  0
 34 35  1  0  0  0  0
 35 38  1  6  0  0  0
 35 36  1  0  0  0  0
 36 37  1  0  0  0  0
 38 40  1  0  0  0  0
 39 42  1  0  0  0  0
 42 41  2  0  0  0  0
 42 40  1  0  0  0  0
 43 44  1  0  0  0  0
 44 45  1  0  0  0  0
 45 46  1  0  0  0  0
 47 56  1  1  0  0  0
 48 52  2  0  0  0  0
 49 48  1  0  0  0  0
 49 53  2  0  0  0  0
 51 46  1  1  0  0  0
 51 54  1  0  0  0  0
 52 58  1  0  0  0  0
 53 55  1  0  0  0  0
 54 56  1  0  0  0  0
 54 61  1  6  0  0  0
 55 47  1  0  0  0  0
 55 58  1  6  0  0  0
 56 59  1  0  0  0  0
 56 50  1  0  0  0  0
 57 53  1  0  0  0  0
 59 50  1  0  0  0  0
 60 57  1  6  0  0  0
 60 51  1  0  0  0  0
 60 47  1  0  0  0  0
 61 62  1  6  0  0  0
 61 64  1  0  0  0  0
 63 62  1  0  0  0  0
 64 65  1  0  0  0  0
 64 66  1  0  0  0  0
 66 67  1  0  0  0  0
M  END
>  <MODEL>
6

>  <REMARK>
 VINA RESULT:      -6.2      3.512     11.986
  Name = 
  14 active torsions:
  status: ('A' for Active; 'I' for Inactive)
    1  A    between atoms: C_3  and  C_30
    2  A    between atoms: C_9  and  C_38
    3  A    between atoms: N_13  and  C_49
    4  A    between atoms: O_17  and  C_36
    5  A    between atoms: C_20  and  C_57
    6  A    between atoms: N_23  and  C_37
    7  A    between atoms: C_25  and  C_30
    8  A    between atoms: O_27  and  C_38
    9  A    between atoms: O_27  and  C_39
   10  A    between atoms: C_28  and  N_41
   11  A    between atoms: C_30  and  N_41
   12  A    between atoms: C_36  and  C_49
   13  A    between atoms: C_36  and  C_67
   14  A    between atoms: C_39  and  C_57
                            x       y       z     vdW  Elec       q    Type
                         _______ _______ _______ _____ _____    ______ ____

>  <TORSDO>
F 14

$$$$
=
 OpenBabel11062422483D

 67 75  0  0  1  0  0  0  0  0999 V2000
  188.0550  173.9000  138.1760 C   0  0  0  0  0  2  0  0  0  0  0  0
  193.5060  173.1660  139.2060 C   0  0  0  0  0  2  0  0  0  0  0  0
  187.6570  176.3810  136.5450 F   0  0  0  0  0  0  0  0  0  0  0  0
  189.0210  174.4430  143.2830 N   0  0  0  0  0  2  0  0  0  0  0  0
  193.4190  173.2300  140.7250 C   0  0  2  0  0  0  0  0  0  0  0  0
  191.6130  175.7410  142.4850 N   0  0  0  0  0  0  0  0  0  0  0  0
  191.5390  176.3310  143.7340 C   0  0  0  0  0  0  0  0  0  0  0  0
  195.2010  174.8490  141.9570 C   0  0  0  0  0  2  0  0  0  0  0  0
  186.3320  176.7070  138.3690 N   0  0  0  0  0  0  0  0  0  0  0  0
  189.5920  173.8860  135.9260 C   0  0  0  0  0  1  0  0  0  0  0  0
  187.3260  176.1360  137.7820 C   0  0  0  0  0  0  0  0  0  0  0  0
  188.2660  174.1320  142.0910 N   0  0  0  0  0  2  0  0  0  0  0  0
  191.5760  173.0380  137.6900 C   0  0  1  0  0  3  0  0  0  0  0  0
  190.1440  172.5000  137.9410 C   0  0  2  0  0  3  0  0  0  0  0  0
  194.0150  175.4650  142.6220 C   0  0  0  0  0  0  0  0  0  0  0  0
  186.2780  176.3510  139.7520 C   0  0  0  0  0  2  0  0  0  0  0  0
  194.0830  176.2230  143.7860 C   0  0  0  0  0  3  0  0  0  0  0  0
  188.7170  176.5970  142.0510 C   0  0  1  0  0  3  0  0  0  0  0  0
  190.0030  171.1150  137.7970 F   0  0  0  0  0  0  0  0  0  0  0  0
  189.0250  173.1170  137.1800 C   0  0  1  0  0  3  0  0  0  0  0  0
  190.2550  176.4060  144.2420 C   0  0  0  0  0  3  0  0  0  0  0  0
  188.9770  175.9330  143.4560 C   0  0  2  0  0  3  0  0  0  0  0  0
  188.2040  175.3620  138.6510 C   0  0  1  0  0  3  0  0  0  0  0  0
  187.4350  175.4410  139.9490 C   0  0  1  0  0  3  0  0  0  0  0  0
  192.3040  172.5000  138.7910 N   0  0  0  0  0  2  0  0  0  0  0  0
  192.5010  174.3460  140.9700 O   0  0  0  0  0  0  0  0  0  0  0  0
  194.8600  173.4720  141.3050 C   0  0  0  0  0  2  0  0  0  0  0  0
  192.7830  176.7550  144.4480 C   0  0  0  0  0  2  0  0  0  0  0  0
  192.2230  172.6200  136.4450 C   0  0  0  0  0  1  0  0  0  0  0  0
  192.7320  175.2310  142.0090 C   0  0  0  0  0  0  0  0  0  0  0  0
  188.2030  175.3690  141.3120 C   0  0  2  0  0  3  0  0  0  0  0  0
  185.7540  176.5680  143.2130 O   0  0  0  0  0  0  0  0  0  0  0  0
  187.6000  177.5220  142.0930 N   0  0  0  0  0  2  0  0  0  0  0  0
  186.4880  177.5710  142.9970 C   0  0  0  0  0  0  0  0  0  0  0  0
  185.9730  178.9380  143.5800 C   0  0  1  0  0  3  0  0  0  0  0  0
  184.6940  179.2390  143.0810 O   0  0  0  0  0  0  0  0  0  0  0  0
  183.7660  179.0580  144.1070 C   0  0  0  0  0  1  0  0  0  0  0  0
  185.9930  178.9210  145.1350 C   0  0  0  0  0  2  0  0  0  0  0  0
  187.0380  176.2650  147.0130 C   0  0  0  0  0  1  0  0  0  0  0  0
  187.2260  178.3680  145.6630 N   0  0  0  0  0  2  0  0  0  0  0  0
  187.0220  178.4280  147.9490 O   0  0  0  0  0  0  0  0  0  0  0  0
  187.1610  177.7280  146.9230 C   0  0  0  0  0  0  0  0  0  0  0  0
  192.8060  171.9530  141.3910 C   0  0  0  0  0  2  0  0  0  0  0  0
  191.7610  172.1260  142.2820 O   0  0  0  0  0  0  0  0  0  0  0  0
  191.9970  171.1230  143.2730 C   0  0  0  0  0  2  0  0  0  0  0  0
  192.3060  169.5390  143.3320 C   0  0  0  0  0  2  0  0  0  0  0  0
  195.5210  168.8230  141.3940 N   0  0  1  0  0  0  0  0  0  0  0  0
  195.1780  168.2020  137.3490 C   0  0  0  0  0  3  0  0  0  0  0  0
  194.1090  168.2580  138.2980 N   0  0  0  0  0  0  0  0  0  0  0  0
  197.2110  170.2010  142.8360 C   0  0  0  0  0  2  0  0  0  0  0  0
  193.7090  168.8190  143.0720 C   0  0  2  0  0  3  0  0  0  0  0  0
  196.3860  168.6490  137.6650 C   0  0  0  0  0  3  0  0  0  0  0  0
  194.2580  168.8660  139.4560 C   0  0  0  0  0  0  0  0  0  0  0  0
  194.9910  169.2640  143.9360 C   0  0  2  0  0  3  0  0  0  0  0  0
  195.5140  169.4740  139.9800 C   0  0  2  0  0  3  0  0  0  0  0  0
  196.1040  169.3950  142.7500 C   0  0  0  0  0  0  0  0  0  0  0  0
  193.3720  168.6670  140.5150 N   0  0  0  0  0  2  0  0  0  0  0  0
  196.7550  169.1040  139.1000 C   0  0  0  0  0  2  0  0  0  0  0  0
  197.4890  168.6730  143.1570 C   0  0  0  0  0  2  0  0  0  0  0  0
  194.1050  169.1320  141.6310 C   0  0  2  0  0  3  0  0  0  0  0  0
  195.0060  169.3220  145.5520 C   0  0  2  0  0  3  0  0  0  0  0  0
  194.1700  168.2200  146.2010 C   0  0  0  0  0  2  0  0  0  0  0  0
  194.5580  168.1660  147.6620 C   0  0  0  0  0  1  0  0  0  0  0  0
  195.2540  170.7130  146.1670 N   0  0  0  0  0  0  0  0  0  0  0  0
  196.6210  171.2280  145.9850 C   0  0  0  0  0  1  0  0  0  0  0  0
  194.3560  171.7610  145.7320 C   0  0  0  0  0  2  0  0  0  0  0  0
  194.9330  172.7880  144.8750 O   0  0  0  0  0  1  0  0  0  0  0  0
  2  5  1  0  0  0  0
  3 11  1  0  0  0  0
  4 22  1  0  0  0  0
  5 26  1  0  0  0  0
  5 27  1  0  0  0  0
  5 43  1  1  0  0  0
  6  7  1  0  0  0  0
  7 21  2  0  0  0  0
  7 28  1  0  0  0  0
  8 15  1  0  0  0  0
  9 16  1  0  0  0  0
 11  9  2  0  0  0  0
 11 23  1  0  0  0  0
 12  4  1  0  0  0  0
 13 29  1  6  0  0  0
 13 14  1  0  0  0  0
 13 25  1  0  0  0  0
 14 19  1  6  0  0  0
 15 17  2  0  0  0  0
 17 28  1  0  0  0  0
 18 33  1  1  0  0  0
 18 22  1  0  0  0  0
 20 10  1  6  0  0  0
 20 14  1  0  0  0  0
 20  1  1  0  0  0  0
 22 21  1  6  0  0  0
 23  1  1  6  0  0  0
 23 24  1  0  0  0  0
 24 16  1  6  0  0  0
 24 31  1  0  0  0  0
 25  2  1  0  0  0  0
 26 30  1  0  0  0  0
 27  8  1  0  0  0  0
 30  6  2  0  0  0  0
 30 15  1  0  0  0  0
 31 18  1  0  0  0  0
 31 12  1  1  0  0  0
 33 34  1  0  0  0  0
 34 32  2  0  0  0  0
 34 35  1  0  0  0  0
 35 38  1  1  0  0  0
 36 35  1  0  0  0  0
 36 37  1  0  0  0  0
 38 40  1  0  0  0  0
 40 42  1  0  0  0  0
 42 39  1  0  0  0  0
 42 41  2  0  0  0  0
 43 44  1  0  0  0  0
 44 45  1  0  0  0  0
 45 46  1  0  0  0  0
 47 60  1  0  0  0  0
 47 56  1  1  0  0  0
 48 52  2  0  0  0  0
 48 49  1  0  0  0  0
 49 53  2  0  0  0  0
 50 59  1  0  0  0  0
 51 46  1  1  0  0  0
 51 54  1  0  0  0  0
 52 58  1  0  0  0  0
 53 55  1  0  0  0  0
 53 57  1  0  0  0  0
 54 61  1  1  0  0  0
 55 58  1  6  0  0  0
 55 47  1  0  0  0  0
 56 50  1  0  0  0  0
 56 59  1  0  0  0  0
 56 54  1  0  0  0  0
 60 57  1  6  0  0  0
 60 51  1  0  0  0  0
 61 64  1  0  0  0  0
 61 62  1  1  0  0  0
 62 63  1  0  0  0  0
 65 64  1  0  0  0  0
 66 64  1  0  0  0  0
 67 66  1  0  0  0  0
M  END
>  <MODEL>
7

>  <REMARK>
 VINA RESULT:      -6.0      3.660      6.742
  Name = 
  14 active torsions:
  status: ('A' for Active; 'I' for Inactive)
    1  A    between atoms: C_3  and  C_30
    2  A    between atoms: C_9  and  C_38
    3  A    between atoms: N_13  and  C_49
    4  A    between atoms: O_17  and  C_36
    5  A    between atoms: C_20  and  C_57
    6  A    between atoms: N_23  and  C_37
    7  A    between atoms: C_25  and  C_30
    8  A    between atoms: O_27  and  C_38
    9  A    between atoms: O_27  and  C_39
   10  A    between atoms: C_28  and  N_41
   11  A    between atoms: C_30  and  N_41
   12  A    between atoms: C_36  and  C_49
   13  A    between atoms: C_36  and  C_67
   14  A    between atoms: C_39  and  C_57
                            x       y       z     vdW  Elec       q    Type
                         _______ _______ _______ _____ _____    ______ ____

>  <TORSDO>
F 14

$$$$
=
 OpenBabel11062422483D

 67 75  0  0  1  0  0  0  0  0999 V2000
  193.5820  172.4320  137.0150 C   0  0  0  0  0  2  0  0  0  0  0  0
  188.3410  172.4520  138.9740 C   0  0  0  0  0  2  0  0  0  0  0  0
  194.5180  169.6100  136.6530 F   0  0  0  0  0  0  0  0  0  0  0  0
  193.4680  174.3860  141.8610 N   0  0  0  0  0  2  0  0  0  0  0  0
  188.6300  173.1920  140.2740 C   0  0  2  0  0  0  0  0  0  0  0  0
  191.3240  172.3620  142.4470 N   0  0  0  0  0  0  0  0  0  0  0  0
  191.7290  172.5210  143.7600 C   0  0  0  0  0  0  0  0  0  0  0  0
  187.5980  172.1020  142.5240 C   0  0  0  0  0  2  0  0  0  0  0  0
  196.0940  170.5390  138.0110 N   0  0  0  0  0  0  0  0  0  0  0  0
  191.8480  170.9820  135.4930 C   0  0  0  0  0  1  0  0  0  0  0  0
  194.9080  170.5130  137.5100 C   0  0  0  0  0  0  0  0  0  0  0  0
  193.9380  174.1920  140.5080 N   0  0  0  0  0  2  0  0  0  0  0  0
  189.9340  172.1820  137.1240 C   0  0  1  0  0  3  0  0  0  0  0  0
  191.1510  173.0540  136.7200 C   0  0  2  0  0  3  0  0  0  0  0  0
  188.9880  172.1700  143.0620 C   0  0  0  0  0  0  0  0  0  0  0  0
  196.2060  171.5530  139.0120 C   0  0  0  0  0  2  0  0  0  0  0  0
  189.3020  172.1160  144.4170 C   0  0  0  0  0  3  0  0  0  0  0  0
  194.2650  172.0200  141.7150 C   0  0  1  0  0  3  0  0  0  0  0  0
  190.8410  174.1660  135.9290 F   0  0  0  0  0  0  0  0  0  0  0  0
  192.3030  172.3790  136.0620 C   0  0  1  0  0  3  0  0  0  0  0  0
  193.0260  172.9810  143.8930 C   0  0  0  0  0  3  0  0  0  0  0  0
  193.9900  173.2380  142.6760 C   0  0  2  0  0  3  0  0  0  0  0  0
  193.9490  171.4220  138.1240 C   0  0  1  0  0  3  0  0  0  0  0  0
  194.8600  172.1760  139.0650 C   0  0  1  0  0  3  0  0  0  0  0  0
  189.2190  173.0440  138.0050 N   0  0  0  0  0  2  0  0  0  0  0  0
  189.8690  172.5720  140.7520 O   0  0  0  0  0  0  0  0  0  0  0  0
  187.4160  172.9900  141.2530 C   0  0  0  0  0  2  0  0  0  0  0  0
  190.7740  172.2750  144.8840 C   0  0  0  0  0  2  0  0  0  0  0  0
  189.0410  171.7640  136.0420 C   0  0  0  0  0  1  0  0  0  0  0  0
  190.0520  172.3150  142.1000 C   0  0  0  0  0  0  0  0  0  0  0  0
  194.2810  172.7750  140.3930 C   0  0  2  0  0  3  0  0  0  0  0  0
  197.1400  173.2350  142.3370 O   0  0  0  0  0  0  0  0  0  0  0  0
  195.6090  171.4970  141.8820 N   0  0  0  0  0  2  0  0  0  0  0  0
  196.7300  172.0660  142.5720 C   0  0  0  0  0  0  0  0  0  0  0  0
  197.6610  171.1800  143.4790 C   0  0  1  0  0  3  0  0  0  0  0  0
  197.7680  171.7310  144.7670 O   0  0  0  0  0  0  0  0  0  0  0  0
  196.9140  172.8310  144.8490 C   0  0  0  0  0  1  0  0  0  0  0  0
  197.1550  169.7090  143.5240 C   0  0  0  0  0  2  0  0  0  0  0  0
  194.4630  168.2050  144.9960 C   0  0  0  0  0  1  0  0  0  0  0  0
  196.7000  169.3250  144.8460 N   0  0  0  0  0  2  0  0  0  0  0  0
  194.7830  170.5280  145.2340 O   0  0  0  0  0  0  0  0  0  0  0  0
  195.3110  169.4030  145.1010 C   0  0  0  0  0  0  0  0  0  0  0  0
  188.8990  174.7240  140.0990 C   0  0  0  0  0  2  0  0  0  0  0  0
  187.8530  175.5970  140.3440 O   0  0  0  0  0  0  0  0  0  0  0  0
  188.5030  176.7640  140.8550 C   0  0  0  0  0  2  0  0  0  0  0  0
  189.0300  177.3230  142.2750 C   0  0  0  0  0  2  0  0  0  0  0  0
  190.7930  176.4530  145.5520 N   0  0  1  0  0  0  0  0  0  0  0  0
  194.8930  176.2370  145.4810 C   0  0  0  0  0  3  0  0  0  0  0  0
  194.0220  176.3190  144.3480 N   0  0  0  0  0  0  0  0  0  0  0  0
  189.1050  177.5110  147.2450 C   0  0  0  0  0  2  0  0  0  0  0  0
  189.2570  176.4860  143.6180 C   0  0  2  0  0  3  0  0  0  0  0  0
  194.4490  176.5250  146.6970 C   0  0  0  0  0  3  0  0  0  0  0  0
  192.8030  176.8010  144.4610 C   0  0  0  0  0  0  0  0  0  0  0  0
  188.2640  176.7160  144.8630 C   0  0  2  0  0  3  0  0  0  0  0  0
  192.1330  177.2250  145.7230 C   0  0  2  0  0  3  0  0  0  0  0  0
  189.3490  176.8360  146.0760 C   0  0  0  0  0  0  0  0  0  0  0  0
  191.8340  176.6010  143.4770 N   0  0  0  0  0  2  0  0  0  0  0  0
  192.9540  176.8080  146.9900 C   0  0  0  0  0  2  0  0  0  0  0  0
  188.9160  175.9400  147.3460 C   0  0  0  0  0  2  0  0  0  0  0  0
  190.6280  176.8840  144.1580 C   0  0  2  0  0  3  0  0  0  0  0  0
  186.6530  176.6260  144.7520 C   0  0  2  0  0  3  0  0  0  0  0  0
  186.1700  176.1570  143.3800 C   0  0  0  0  0  2  0  0  0  0  0  0
  185.4120  177.3060  142.7560 C   0  0  0  0  0  1  0  0  0  0  0  0
  185.8670  177.5690  145.6840 N   0  0  0  0  0  0  0  0  0  0  0  0
  186.0410  177.2940  147.1190 C   0  0  0  0  0  1  0  0  0  0  0  0
  186.1140  178.9830  145.5010 C   0  0  0  0  0  2  0  0  0  0  0  0
  184.9890  179.7760  145.0250 O   0  0  0  0  0  1  0  0  0  0  0  0
  2  5  1  0  0  0  0
  3 11  1  0  0  0  0
  4 22  1  0  0  0  0
  5 43  1  6  0  0  0
  5 26  1  0  0  0  0
  5 27  1  0  0  0  0
  6  7  1  0  0  0  0
  7 21  2  0  0  0  0
  7 28  1  0  0  0  0
  8 15  1  0  0  0  0
  9 16  1  0  0  0  0
 11  9  2  0  0  0  0
 11 23  1  0  0  0  0
 12  4  1  0  0  0  0
 13 29  1  6  0  0  0
 13 25  1  0  0  0  0
 14 19  1  6  0  0  0
 14 13  1  0  0  0  0
 15 17  2  0  0  0  0
 17 28  1  0  0  0  0
 18 33  1  1  0  0  0
 18 22  1  0  0  0  0
 20 10  1  1  0  0  0
 20 14  1  0  0  0  0
 20  1  1  0  0  0  0
 22 21  1  1  0  0  0
 23  1  1  6  0  0  0
 23 24  1  0  0  0  0
 24 16  1  1  0  0  0
 24 31  1  0  0  0  0
 25  2  1  0  0  0  0
 26 30  1  0  0  0  0
 27  8  1  0  0  0  0
 30  6  2  0  0  0  0
 30 15  1  0  0  0  0
 31 12  1  1  0  0  0
 31 18  1  0  0  0  0
 32 34  2  0  0  0  0
 33 34  1  0  0  0  0
 34 35  1  0  0  0  0
 35 38  1  1  0  0  0
 35 36  1  0  0  0  0
 36 37  1  0  0  0  0
 38 40  1  0  0  0  0
 39 42  1  0  0  0  0
 40 42  1  0  0  0  0
 42 41  2  0  0  0  0
 43 44  1  0  0  0  0
 44 45  1  0  0  0  0
 45 46  1  0  0  0  0
 47 55  1  0  0  0  0
 47 56  1  1  0  0  0
 48 52  2  0  0  0  0
 49 53  2  0  0  0  0
 49 48  1  0  0  0  0
 50 59  1  0  0  0  0
 51 46  1  6  0  0  0
 51 60  1  0  0  0  0
 51 54  1  0  0  0  0
 52 58  1  0  0  0  0
 53 55  1  0  0  0  0
 54 61  1  1  0  0  0
 54 56  1  0  0  0  0
 55 58  1  1  0  0  0
 56 50  1  0  0  0  0
 56 59  1  0  0  0  0
 57 53  1  0  0  0  0
 60 57  1  6  0  0  0
 60 47  1  0  0  0  0
 61 62  1  6  0  0  0
 61 64  1  0  0  0  0
 63 62  1  0  0  0  0
 64 65  1  0  0  0  0
 66 64  1  0  0  0  0
 67 66  1  0  0  0  0
M  END
>  <MODEL>
8

>  <REMARK>
 VINA RESULT:      -5.6      3.969     11.435
  Name = 
  14 active torsions:
  status: ('A' for Active; 'I' for Inactive)
    1  A    between atoms: C_3  and  C_30
    2  A    between atoms: C_9  and  C_38
    3  A    between atoms: N_13  and  C_49
    4  A    between atoms: O_17  and  C_36
    5  A    between atoms: C_20  and  C_57
    6  A    between atoms: N_23  and  C_37
    7  A    between atoms: C_25  and  C_30
    8  A    between atoms: O_27  and  C_38
    9  A    between atoms: O_27  and  C_39
   10  A    between atoms: C_28  and  N_41
   11  A    between atoms: C_30  and  N_41
   12  A    between atoms: C_36  and  C_49
   13  A    between atoms: C_36  and  C_67
   14  A    between atoms: C_39  and  C_57
                            x       y       z     vdW  Elec       q    Type
                         _______ _______ _______ _____ _____    ______ ____

>  <TORSDO>
F 14

$$$$
=
 OpenBabel11062422483D

 67 75  0  0  1  0  0  0  0  0999 V2000
  192.9170  176.3580  145.6970 C   0  0  0  0  0  2  0  0  0  0  0  0
  194.0330  172.5370  141.7650 C   0  0  0  0  0  2  0  0  0  0  0  0
  191.9070  175.0030  148.1700 F   0  0  0  0  0  0  0  0  0  0  0  0
  189.6320  176.8950  141.6680 N   0  0  0  0  0  2  0  0  0  0  0  0
  193.0500  173.0510  140.7200 C   0  0  2  0  0  0  0  0  0  0  0  0
  189.6710  173.8960  141.4520 N   0  0  0  0  0  0  0  0  0  0  0  0
  188.4500  174.0660  140.8260 C   0  0  0  0  0  0  0  0  0  0  0  0
  191.4470  171.2000  139.5740 C   0  0  0  0  0  2  0  0  0  0  0  0
  190.2720  176.5070  147.6640 N   0  0  0  0  0  0  0  0  0  0  0  0
  194.6130  174.3980  146.5380 C   0  0  0  0  0  1  0  0  0  0  0  0
  191.2780  175.7760  147.3280 C   0  0  0  0  0  0  0  0  0  0  0  0
  190.4270  177.2930  142.8080 N   0  0  0  0  0  2  0  0  0  0  0  0
  194.6290  173.7150  143.8360 C   0  0  1  0  0  3  0  0  0  0  0  0
  194.5840  175.2280  144.1720 C   0  0  2  0  0  3  0  0  0  0  0  0
  190.3180  172.0910  139.9720 C   0  0  0  0  0  0  0  0  0  0  0  0
  189.7010  177.1500  146.5220 C   0  0  0  0  0  2  0  0  0  0  0  0
  189.0480  172.0390  139.4060 C   0  0  0  0  0  3  0  0  0  0  0  0
  188.6520  175.7400  143.6580 C   0  0  1  0  0  3  0  0  0  0  0  0
  195.7060  175.9560  143.7580 F   0  0  0  0  0  0  0  0  0  0  0  0
  194.3280  175.6200  145.5840 C   0  0  1  0  0  3  0  0  0  0  0  0
  187.8110  175.2470  141.1580 C   0  0  0  0  0  3  0  0  0  0  0  0
  188.3720  176.2790  142.2040 C   0  0  2  0  0  3  0  0  0  0  0  0
  191.5390  175.6900  145.8970 C   0  0  1  0  0  3  0  0  0  0  0  0
  190.5320  176.6910  145.3800 C   0  0  1  0  0  3  0  0  0  0  0  0
  194.5360  173.7140  142.4140 N   0  0  0  0  0  2  0  0  0  0  0  0
  191.8470  173.3540  141.5010 O   0  0  0  0  0  0  0  0  0  0  0  0
  192.8250  171.9300  139.6410 C   0  0  0  0  0  2  0  0  0  0  0  0
  187.9610  173.0630  139.8300 C   0  0  0  0  0  2  0  0  0  0  0  0
  195.8400  172.9930  144.2320 C   0  0  0  0  0  1  0  0  0  0  0  0
  190.5900  173.0680  140.9960 C   0  0  0  0  0  0  0  0  0  0  0  0
  189.9310  176.5160  143.9440 C   0  0  2  0  0  3  0  0  0  0  0  0
  187.8300  178.5800  144.8380 O   0  0  0  0  0  0  0  0  0  0  0  0
  187.6760  176.2350  144.6110 N   0  0  0  0  0  2  0  0  0  0  0  0
  187.1120  177.5470  144.7420 C   0  0  0  0  0  0  0  0  0  0  0  0
  185.5770  177.7490  145.0220 C   0  0  1  0  0  3  0  0  0  0  0  0
  185.3130  177.6900  146.4010 O   0  0  0  0  0  0  0  0  0  0  0  0
  185.1820  178.9930  146.8810 C   0  0  0  0  0  1  0  0  0  0  0  0
  185.0690  179.0790  144.3960 C   0  0  0  0  0  2  0  0  0  0  0  0
  183.4010  178.6560  141.4450 C   0  0  0  0  0  1  0  0  0  0  0  0
  185.3270  179.1500  142.9710 N   0  0  0  0  0  2  0  0  0  0  0  0
  184.9590  177.0360  142.1530 O   0  0  0  0  0  0  0  0  0  0  0  0
  184.6290  178.2410  142.1410 C   0  0  0  0  0  0  0  0  0  0  0  0
  193.4990  174.3690  140.0040 C   0  0  0  0  0  2  0  0  0  0  0  0
  194.8570  174.6130  139.8890 O   0  0  0  0  0  0  0  0  0  0  0  0
  194.9430  175.5000  138.7700 C   0  0  0  0  0  2  0  0  0  0  0  0
  194.5180  175.5150  137.2130 C   0  0  0  0  0  2  0  0  0  0  0  0
  194.7650  171.8200  136.2710 N   0  0  1  0  0  0  0  0  0  0  0  0
  197.9410  169.7030  137.7870 C   0  0  0  0  0  3  0  0  0  0  0  0
  197.7700  171.1240  137.8140 N   0  0  0  0  0  0  0  0  0  0  0  0
  192.2220  171.2650  136.0280 C   0  0  0  0  0  2  0  0  0  0  0  0
  194.4900  174.2740  136.2070 C   0  0  2  0  0  3  0  0  0  0  0  0
  196.9160  168.9040  137.5170 C   0  0  0  0  0  3  0  0  0  0  0  0
  196.5770  171.6670  137.7010 C   0  0  0  0  0  0  0  0  0  0  0  0
  193.0750  173.7440  135.6530 C   0  0  2  0  0  3  0  0  0  0  0  0
  195.2980  170.9470  137.4450 C   0  0  2  0  0  3  0  0  0  0  0  0
  193.2680  172.1370  135.8660 C   0  0  0  0  0  0  0  0  0  0  0  0
  196.4060  173.0200  137.4040 N   0  0  0  0  0  2  0  0  0  0  0  0
  195.5360  169.4460  137.0680 C   0  0  0  0  0  2  0  0  0  0  0  0
  192.8140  171.3100  134.5580 C   0  0  0  0  0  2  0  0  0  0  0  0
  195.0630  173.0790  136.9660 C   0  0  2  0  0  3  0  0  0  0  0  0
  191.9770  174.6970  134.9450 C   0  0  2  0  0  3  0  0  0  0  0  0
  192.5430  176.0480  134.5140 C   0  0  0  0  0  2  0  0  0  0  0  0
  191.5080  177.0960  134.8580 C   0  0  0  0  0  1  0  0  0  0  0  0
  190.5130  174.4490  135.3590 N   0  0  0  0  0  0  0  0  0  0  0  0
  189.8950  173.2650  134.7420 C   0  0  0  0  0  1  0  0  0  0  0  0
  190.2720  174.3470  136.7820 C   0  0  0  0  0  2  0  0  0  0  0  0
  188.9270  174.6770  137.2320 O   0  0  0  0  0  1  0  0  0  0  0  0
  2 25  1  0  0  0  0
  4 22  1  0  0  0  0
  4 12  1  0  0  0  0
  5 43  1  6  0  0  0
  5 26  1  0  0  0  0
  5  2  1  0  0  0  0
  7 21  2  0  0  0  0
  7  6  1  0  0  0  0
  8 27  1  0  0  0  0
  8 15  1  0  0  0  0
 11  9  2  0  0  0  0
 11  3  1  0  0  0  0
 13 14  1  0  0  0  0
 13 29  1  6  0  0  0
 14 19  1  1  0  0  0
 14 20  1  0  0  0  0
 15 30  1  0  0  0  0
 16  9  1  0  0  0  0
 17 28  1  0  0  0  0
 17 15  2  0  0  0  0
 18 31  1  0  0  0  0
 18 33  1  1  0  0  0
 20  1  1  0  0  0  0
 20 10  1  1  0  0  0
 22 21  1  6  0  0  0
 22 18  1  0  0  0  0
 23  1  1  1  0  0  0
 23 11  1  0  0  0  0
 24 23  1  0  0  0  0
 24 16  1  1  0  0  0
 25 13  1  0  0  0  0
 27  5  1  0  0  0  0
 28  7  1  0  0  0  0
 30  6  2  0  0  0  0
 30 26  1  0  0  0  0
 31 12  1  1  0  0  0
 31 24  1  0  0  0  0
 33 34  1  0  0  0  0
 34 32  2  0  0  0  0
 34 35  1  0  0  0  0
 35 38  1  1  0  0  0
 35 36  1  0  0  0  0
 36 37  1  0  0  0  0
 39 42  1  0  0  0  0
 40 38  1  0  0  0  0
 42 41  2  0  0  0  0
 42 40  1  0  0  0  0
 44 43  1  0  0  0  0
 45 44  1  0  0  0  0
 46 45  1  0  0  0  0
 47 56  1  1  0  0  0
 47 60  1  0  0  0  0
 47 55  1  0  0  0  0
 48 49  1  0  0  0  0
 51 60  1  0  0  0  0
 51 46  1  1  0  0  0
 52 48  2  0  0  0  0
 53 49  2  0  0  0  0
 54 61  1  6  0  0  0
 54 56  1  0  0  0  0
 54 51  1  0  0  0  0
 55 58  1  6  0  0  0
 55 53  1  0  0  0  0
 56 50  1  0  0  0  0
 57 53  1  0  0  0  0
 58 52  1  0  0  0  0
 59 56  1  0  0  0  0
 59 50  1  0  0  0  0
 60 57  1  6  0  0  0
 61 62  1  1  0  0  0
 61 64  1  0  0  0  0
 62 63  1  0  0  0  0
 64 66  1  0  0  0  0
 65 64  1  0  0  0  0
 66 67  1  0  0  0  0
M  END
>  <MODEL>
9

>  <REMARK>
 VINA RESULT:      -5.3      2.986      6.197
  Name = 
  14 active torsions:
  status: ('A' for Active; 'I' for Inactive)
    1  A    between atoms: C_3  and  C_30
    2  A    between atoms: C_9  and  C_38
    3  A    between atoms: N_13  and  C_49
    4  A    between atoms: O_17  and  C_36
    5  A    between atoms: C_20  and  C_57
    6  A    between atoms: N_23  and  C_37
    7  A    between atoms: C_25  and  C_30
    8  A    between atoms: O_27  and  C_38
    9  A    between atoms: O_27  and  C_39
   10  A    between atoms: C_28  and  N_41
   11  A    between atoms: C_30  and  N_41
   12  A    between atoms: C_36  and  C_49
   13  A    between atoms: C_36  and  C_67
   14  A    between atoms: C_39  and  C_57
                            x       y       z     vdW  Elec       q    Type
                         _______ _______ _______ _____ _____    ______ ____

>  <TORSDO>
F 14

$$$$
