=
 OpenBabel11072408343D

 26 28  0  0  1  0  0  0  0  0999 V2000
  192.3890  176.2420  146.9060 C   0  0  0  0  0  3  0  0  0  0  0  0
  190.1200  176.8220  146.4340 N   0  0  0  0  0  0  0  0  0  0  0  0
  191.7240  176.8620  144.6680 C   0  0  0  0  0  3  0  0  0  0  0  0
  192.7170  176.4560  145.5660 C   0  0  0  0  0  0  0  0  0  0  0  0
  190.4090  177.0450  145.1200 C   0  0  0  0  0  0  0  0  0  0  0  0
  191.0710  176.4310  147.3250 C   0  0  0  0  0  3  0  0  0  0  0  0
  188.5830  177.9200  141.9240 C   0  0  0  0  0  3  0  0  0  0  0  0
  188.0770  177.8470  144.6690 C   0  0  0  0  0  3  0  0  0  0  0  0
  187.0690  178.2530  143.7890 C   0  0  0  0  0  0  0  0  0  0  0  0
  186.3640  178.6740  141.5350 F   0  0  0  0  0  0  0  0  0  0  0  0
  187.3260  178.2870  142.4100 C   0  0  0  0  0  0  0  0  0  0  0  0
  189.3430  177.4760  144.1910 C   0  0  0  0  0  0  0  0  0  0  0  0
  189.5860  177.5160  142.8100 C   0  0  0  0  0  3  0  0  0  0  0  0
  185.2340  180.1610  144.1470 O   0  0  0  0  0  0  0  0  0  0  0  0
  184.4290  177.8840  143.7480 O   0  0  0  0  0  0  0  0  0  0  0  0
  185.4930  178.7050  144.4220 S   0  0  0  0  0  0  0  0  0  0  0  0
  184.9790  177.0190  146.4750 C   0  0  0  0  0  1  0  0  0  0  0  0
  185.4600  178.4260  146.1800 C   0  0  0  0  0  2  0  0  0  0  0  0
  194.1350  176.2720  145.1180 C   0  0  1  0  0  3  0  0  0  0  0  0
  194.9820  177.1690  145.7730 O   0  0  0  0  0  1  0  0  0  0  0  0
  193.7660  173.7750  144.9920 C   0  0  0  0  0  3  0  0  0  0  0  0
  194.5970  174.8610  145.3100 C   0  0  0  0  0  0  0  0  0  0  0  0
  194.2270  172.4650  145.1570 C   0  0  0  0  0  3  0  0  0  0  0  0
  195.8940  174.6230  145.7810 C   0  0  0  0  0  3  0  0  0  0  0  0
  196.3540  173.3130  145.9470 C   0  0  0  0  0  3  0  0  0  0  0  0
  195.5210  172.2350  145.6350 C   0  0  0  0  0  3  0  0  0  0  0  0
  1  6  1  0  0  0  0
  2  6  2  0  0  0  0
  3  5  2  0  0  0  0
  3  4  1  0  0  0  0
  4  1  2  0  0  0  0
  5  2  1  0  0  0  0
  7 11  2  0  0  0  0
  7 13  1  0  0  0  0
  9 16  1  0  0  0  0
  9  8  2  0  0  0  0
 10 11  1  0  0  0  0
 11  9  1  0  0  0  0
 12  8  1  0  0  0  0
 12  5  1  0  0  0  0
 13 12  2  0  0  0  0
 14 16  2  0  0  0  0
 15 16  2  0  0  0  0
 16 18  1  0  0  0  0
 18 17  1  0  0  0  0
 19 22  1  0  0  0  0
 19  4  1  0  0  0  0
 19 20  1  1  0  0  0
 21 23  2  0  0  0  0
 21 22  1  0  0  0  0
 22 24  2  0  0  0  0
 23 26  1  0  0  0  0
 24 25  1  0  0  0  0
 26 25  2  0  0  0  0
M  END
>  <MODEL>
1

>  <REMARK>
 VINA RESULT:      -7.6      0.000      0.000
  Name = 
  5 active torsions:
  status: ('A' for Active; 'I' for Inactive)
    1  A    between atoms: C_5  and  C_8
    2  A    between atoms: C_8  and  C_16
    3  A    between atoms: C_12  and  S_25
    4  A    between atoms: C_18  and  C_20
    5  A    between atoms: C_24  and  S_25
                            x       y       z     vdW  Elec       q    Type
                         _______ _______ _______ _____ _____    ______ ____

>  <TORSDO>
F 5

$$$$
=
 OpenBabel11072408343D

 26 28  0  0  1  0  0  0  0  0999 V2000
  187.7360  176.3930  141.9220 C   0  0  0  0  0  3  0  0  0  0  0  0
  189.8310  175.4430  142.5650 N   0  0  0  0  0  0  0  0  0  0  0  0
  189.0460  177.4000  143.6830 C   0  0  0  0  0  3  0  0  0  0  0  0
  187.8960  177.3900  142.8860 C   0  0  0  0  0  0  0  0  0  0  0  0
  190.0210  176.4060  143.5120 C   0  0  0  0  0  0  0  0  0  0  0  0
  188.7230  175.4170  141.7760 C   0  0  0  0  0  3  0  0  0  0  0  0
  192.3060  176.5300  146.5250 C   0  0  0  0  0  3  0  0  0  0  0  0
  192.5110  176.2440  143.7550 C   0  0  0  0  0  3  0  0  0  0  0  0
  193.6680  176.2340  144.5400 C   0  0  0  0  0  0  0  0  0  0  0  0
  194.6680  176.3670  146.7170 F   0  0  0  0  0  0  0  0  0  0  0  0
  193.5620  176.3770  145.9320 C   0  0  0  0  0  0  0  0  0  0  0  0
  191.2450  176.3970  144.3410 C   0  0  0  0  0  0  0  0  0  0  0  0
  191.1540  176.5400  145.7330 C   0  0  0  0  0  3  0  0  0  0  0  0
  196.1180  177.2070  144.1080 O   0  0  0  0  0  0  0  0  0  0  0  0
  195.8850  174.7770  144.2810 O   0  0  0  0  0  0  0  0  0  0  0  0
  195.2370  176.0350  143.7740 S   0  0  0  0  0  0  0  0  0  0  0  0
  196.0690  176.7940  141.3130 C   0  0  0  0  0  1  0  0  0  0  0  0
  195.0250  175.9440  142.0090 C   0  0  0  0  0  2  0  0  0  0  0  0
  186.8470  178.4480  143.0310 C   0  0  1  0  0  3  0  0  0  0  0  0
  186.0700  178.5390  141.8730 O   0  0  0  0  0  1  0  0  0  0  0  0
  186.1720  177.0890  145.0510 C   0  0  0  0  0  3  0  0  0  0  0  0
  185.9890  178.2160  144.2360 C   0  0  0  0  0  0  0  0  0  0  0  0
  185.3730  176.9030  146.1840 C   0  0  0  0  0  3  0  0  0  0  0  0
  185.0110  179.1600  144.5710 C   0  0  0  0  0  3  0  0  0  0  0  0
  184.2130  178.9740  145.7040 C   0  0  0  0  0  3  0  0  0  0  0  0
  184.3940  177.8460  146.5100 C   0  0  0  0  0  3  0  0  0  0  0  0
  1  4  1  0  0  0  0
  2  5  2  0  0  0  0
  4 19  1  0  0  0  0
  4  3  2  0  0  0  0
  5  3  1  0  0  0  0
  5 12  1  0  0  0  0
  6  1  2  0  0  0  0
  6  2  1  0  0  0  0
  8 12  2  0  0  0  0
  8  9  1  0  0  0  0
  9 11  2  0  0  0  0
 11  7  1  0  0  0  0
 11 10  1  0  0  0  0
 12 13  1  0  0  0  0
 13  7  2  0  0  0  0
 16 14  2  0  0  0  0
 16 15  2  0  0  0  0
 16  9  1  0  0  0  0
 17 18  1  0  0  0  0
 18 16  1  0  0  0  0
 19 20  1  6  0  0  0
 19 22  1  0  0  0  0
 21 23  1  0  0  0  0
 22 24  1  0  0  0  0
 22 21  2  0  0  0  0
 23 26  2  0  0  0  0
 24 25  2  0  0  0  0
 25 26  1  0  0  0  0
M  END
>  <MODEL>
2

>  <REMARK>
 VINA RESULT:      -7.3      3.533      8.659
  Name = 
  5 active torsions:
  status: ('A' for Active; 'I' for Inactive)
    1  A    between atoms: C_5  and  C_8
    2  A    between atoms: C_8  and  C_16
    3  A    between atoms: C_12  and  S_25
    4  A    between atoms: C_18  and  C_20
    5  A    between atoms: C_24  and  S_25
                            x       y       z     vdW  Elec       q    Type
                         _______ _______ _______ _____ _____    ______ ____

>  <TORSDO>
F 5

$$$$
=
 OpenBabel11072408343D

 26 28  0  0  1  0  0  0  0  0999 V2000
  189.0300  177.6040  144.5340 C   0  0  0  0  0  3  0  0  0  0  0  0
  191.3610  177.7140  144.0240 N   0  0  0  0  0  0  0  0  0  0  0  0
  190.5710  176.0170  145.5040 C   0  0  0  0  0  3  0  0  0  0  0  0
  189.2660  176.5000  145.3550 C   0  0  0  0  0  0  0  0  0  0  0  0
  191.6270  176.6410  144.8230 C   0  0  0  0  0  0  0  0  0  0  0  0
  190.1010  178.2020  143.8690 C   0  0  0  0  0  3  0  0  0  0  0  0
  194.7390  175.0870  146.3100 C   0  0  0  0  0  3  0  0  0  0  0  0
  193.9310  176.2620  143.9110 C   0  0  0  0  0  3  0  0  0  0  0  0
  195.2420  175.7960  144.0460 C   0  0  0  0  0  0  0  0  0  0  0  0
  196.9100  174.7410  145.4090 F   0  0  0  0  0  0  0  0  0  0  0  0
  195.6450  175.2050  145.2530 C   0  0  0  0  0  0  0  0  0  0  0  0
  193.0130  176.1490  144.9670 C   0  0  0  0  0  0  0  0  0  0  0  0
  193.4300  175.5570  146.1680 C   0  0  0  0  0  3  0  0  0  0  0  0
  197.4820  176.8790  143.0760 O   0  0  0  0  0  0  0  0  0  0  0  0
  196.9370  174.5990  142.3730 O   0  0  0  0  0  0  0  0  0  0  0  0
  196.3620  175.9480  142.7010 S   0  0  0  0  0  0  0  0  0  0  0  0
  194.9690  175.4760  140.4290 C   0  0  0  0  0  1  0  0  0  0  0  0
  195.5020  176.6060  141.2870 C   0  0  0  0  0  2  0  0  0  0  0  0
  188.1210  175.8680  146.0850 C   0  0  1  0  0  3  0  0  0  0  0  0
  188.5560  175.2700  147.2700 O   0  0  0  0  0  1  0  0  0  0  0  0
  185.8120  176.7970  145.6480 C   0  0  0  0  0  3  0  0  0  0  0  0
  187.0240  176.8520  146.3530 C   0  0  0  0  0  0  0  0  0  0  0  0
  184.7930  177.7130  145.9300 C   0  0  0  0  0  3  0  0  0  0  0  0
  187.2020  177.8210  147.3470 C   0  0  0  0  0  3  0  0  0  0  0  0
  186.1830  178.7360  147.6290 C   0  0  0  0  0  3  0  0  0  0  0  0
  184.9790  178.6820  146.9200 C   0  0  0  0  0  3  0  0  0  0  0  0
  1  4  1  0  0  0  0
  2  5  2  0  0  0  0
  4  3  2  0  0  0  0
  4 19  1  0  0  0  0
  5 12  1  0  0  0  0
  5  3  1  0  0  0  0
  6  2  1  0  0  0  0
  6  1  2  0  0  0  0
  8  9  2  0  0  0  0
  8 12  1  0  0  0  0
  9 11  1  0  0  0  0
 11 10  1  0  0  0  0
 11  7  2  0  0  0  0
 12 13  2  0  0  0  0
 13  7  1  0  0  0  0
 15 16  2  0  0  0  0
 16 14  2  0  0  0  0
 16  9  1  0  0  0  0
 17 18  1  0  0  0  0
 18 16  1  0  0  0  0
 19 22  1  0  0  0  0
 19 20  1  1  0  0  0
 21 23  2  0  0  0  0
 21 22  1  0  0  0  0
 22 24  2  0  0  0  0
 23 26  1  0  0  0  0
 24 25  1  0  0  0  0
 26 25  2  0  0  0  0
M  END
>  <MODEL>
3

>  <REMARK>
 VINA RESULT:      -7.3      4.085      8.662
  Name = 
  5 active torsions:
  status: ('A' for Active; 'I' for Inactive)
    1  A    between atoms: C_5  and  C_8
    2  A    between atoms: C_8  and  C_16
    3  A    between atoms: C_12  and  S_25
    4  A    between atoms: C_18  and  C_20
    5  A    between atoms: C_24  and  S_25
                            x       y       z     vdW  Elec       q    Type
                         _______ _______ _______ _____ _____    ______ ____

>  <TORSDO>
F 5

$$$$
=
 OpenBabel11072408343D

 26 28  0  0  1  0  0  0  0  0999 V2000
  185.3610  178.2890  141.4750 C   0  0  0  0  0  3  0  0  0  0  0  0
  187.4690  177.3290  140.8890 N   0  0  0  0  0  0  0  0  0  0  0  0
  187.0980  178.0470  143.1350 C   0  0  0  0  0  3  0  0  0  0  0  0
  185.8040  178.4500  142.7890 C   0  0  0  0  0  0  0  0  0  0  0  0
  187.9340  177.4790  142.1620 C   0  0  0  0  0  0  0  0  0  0  0  0
  186.2160  177.7190  140.5300 C   0  0  0  0  0  3  0  0  0  0  0  0
  191.5570  177.5870  143.2480 C   0  0  0  0  0  3  0  0  0  0  0  0
  189.6770  175.6950  142.4230 C   0  0  0  0  0  3  0  0  0  0  0  0
  190.9740  175.2860  142.7480 C   0  0  0  0  0  0  0  0  0  0  0  0
  193.1800  175.8680  143.4880 F   0  0  0  0  0  0  0  0  0  0  0  0
  191.9160  176.2390  143.1640 C   0  0  0  0  0  0  0  0  0  0  0  0
  189.3060  177.0460  142.5040 C   0  0  0  0  0  0  0  0  0  0  0  0
  190.2590  177.9880  142.9210 C   0  0  0  0  0  3  0  0  0  0  0  0
  192.5170  173.4050  141.6480 O   0  0  0  0  0  0  0  0  0  0  0  0
  191.8620  173.0990  143.9860 O   0  0  0  0  0  0  0  0  0  0  0  0
  191.4020  173.5850  142.6400 S   0  0  0  0  0  0  0  0  0  0  0  0
  189.2680  172.0570  143.3010 C   0  0  0  0  0  1  0  0  0  0  0  0
  189.9840  172.6520  142.1040 C   0  0  0  0  0  2  0  0  0  0  0  0
  184.8950  179.0790  143.7990 C   0  0  1  0  0  3  0  0  0  0  0  0
  183.5560  178.8340  143.4830 O   0  0  0  0  0  1  0  0  0  0  0  0
  185.1700  177.2600  145.5310 C   0  0  0  0  0  3  0  0  0  0  0  0
  185.2100  178.6210  145.1890 C   0  0  0  0  0  0  0  0  0  0  0  0
  185.4890  176.8520  146.8300 C   0  0  0  0  0  3  0  0  0  0  0  0
  185.5840  179.5640  146.1530 C   0  0  0  0  0  3  0  0  0  0  0  0
  185.9030  179.1560  147.4520 C   0  0  0  0  0  3  0  0  0  0  0  0
  185.8550  177.8000  147.7900 C   0  0  0  0  0  3  0  0  0  0  0  0
  1  4  1  0  0  0  0
  2  5  2  0  0  0  0
  4  3  2  0  0  0  0
  4 19  1  0  0  0  0
  5 12  1  0  0  0  0
  5  3  1  0  0  0  0
  6  2  1  0  0  0  0
  6  1  2  0  0  0  0
  8 12  2  0  0  0  0
  8  9  1  0  0  0  0
  9 11  2  0  0  0  0
 11  7  1  0  0  0  0
 11 10  1  0  0  0  0
 12 13  1  0  0  0  0
 13  7  2  0  0  0  0
 14 16  2  0  0  0  0
 16  9  1  0  0  0  0
 16 15  2  0  0  0  0
 18 16  1  0  0  0  0
 18 17  1  0  0  0  0
 19 20  1  6  0  0  0
 19 22  1  0  0  0  0
 21 23  1  0  0  0  0
 22 21  2  0  0  0  0
 22 24  1  0  0  0  0
 23 26  2  0  0  0  0
 24 25  2  0  0  0  0
 25 26  1  0  0  0  0
M  END
>  <MODEL>
4

>  <REMARK>
 VINA RESULT:      -7.1      3.962      8.145
  Name = 
  5 active torsions:
  status: ('A' for Active; 'I' for Inactive)
    1  A    between atoms: C_5  and  C_8
    2  A    between atoms: C_8  and  C_16
    3  A    between atoms: C_12  and  S_25
    4  A    between atoms: C_18  and  C_20
    5  A    between atoms: C_24  and  S_25
                            x       y       z     vdW  Elec       q    Type
                         _______ _______ _______ _____ _____    ______ ____

>  <TORSDO>
F 5

$$$$
=
 OpenBabel11072408343D

 26 28  0  0  1  0  0  0  0  0999 V2000
  193.2780  176.1930  146.5210 C   0  0  0  0  0  3  0  0  0  0  0  0
  190.9240  176.5580  146.7000 N   0  0  0  0  0  0  0  0  0  0  0  0
  191.8480  175.9220  144.5940 C   0  0  0  0  0  3  0  0  0  0  0  0
  193.1230  175.8830  145.1690 C   0  0  0  0  0  0  0  0  0  0  0  0
  190.7390  176.2660  145.3810 C   0  0  0  0  0  0  0  0  0  0  0  0
  192.1550  176.5300  147.2780 C   0  0  0  0  0  3  0  0  0  0  0  0
  187.8630  175.8080  142.9650 C   0  0  0  0  0  3  0  0  0  0  0  0
  188.3170  176.9040  145.4930 C   0  0  0  0  0  3  0  0  0  0  0  0
  187.0340  176.9490  144.9390 C   0  0  0  0  0  0  0  0  0  0  0  0
  185.5730  176.4240  143.1100 F   0  0  0  0  0  0  0  0  0  0  0  0
  186.8090  176.3960  143.6690 C   0  0  0  0  0  0  0  0  0  0  0  0
  189.3830  176.3150  144.7940 C   0  0  0  0  0  0  0  0  0  0  0  0
  189.1430  175.7680  143.5250 C   0  0  0  0  0  3  0  0  0  0  0  0
  184.8570  176.6180  146.4480 O   0  0  0  0  0  0  0  0  0  0  0  0
  186.2910  178.5390  146.9450 O   0  0  0  0  0  0  0  0  0  0  0  0
  185.7220  177.6890  145.8430 S   0  0  0  0  0  0  0  0  0  0  0  0
  185.5460  179.8700  144.2510 C   0  0  0  0  0  1  0  0  0  0  0  0
  184.7380  178.6880  144.7460 C   0  0  0  0  0  2  0  0  0  0  0  0
  194.3300  175.5400  144.3500 C   0  0  1  0  0  3  0  0  0  0  0  0
  195.1850  176.6390  144.2420 O   0  0  0  0  0  1  0  0  0  0  0  0
  196.3330  174.4770  145.4630 C   0  0  0  0  0  3  0  0  0  0  0  0
  195.0530  174.3510  144.9020 C   0  0  0  0  0  0  0  0  0  0  0  0
  196.9820  173.3560  145.9920 C   0  0  0  0  0  3  0  0  0  0  0  0
  194.4260  173.1000  144.8860 C   0  0  0  0  0  3  0  0  0  0  0  0
  195.0750  171.9800  145.4150 C   0  0  0  0  0  3  0  0  0  0  0  0
  196.3530  172.1080  145.9680 C   0  0  0  0  0  3  0  0  0  0  0  0
  1  6  1  0  0  0  0
  2  6  2  0  0  0  0
  3  4  1  0  0  0  0
  3  5  2  0  0  0  0
  4  1  2  0  0  0  0
  5  2  1  0  0  0  0
  7 13  2  0  0  0  0
  7 11  1  0  0  0  0
  9  8  1  0  0  0  0
  9 16  1  0  0  0  0
 10 11  1  0  0  0  0
 11  9  2  0  0  0  0
 12  5  1  0  0  0  0
 12  8  2  0  0  0  0
 13 12  1  0  0  0  0
 16 14  2  0  0  0  0
 16 15  2  0  0  0  0
 17 18  1  0  0  0  0
 18 16  1  0  0  0  0
 19 20  1  1  0  0  0
 19 22  1  0  0  0  0
 19  4  1  0  0  0  0
 21 23  1  0  0  0  0
 22 21  2  0  0  0  0
 24 22  1  0  0  0  0
 24 25  2  0  0  0  0
 25 26  1  0  0  0  0
 26 23  2  0  0  0  0
M  END
>  <MODEL>
5

>  <REMARK>
 VINA RESULT:      -7.1      1.682      2.121
  Name = 
  5 active torsions:
  status: ('A' for Active; 'I' for Inactive)
    1  A    between atoms: C_5  and  C_8
    2  A    between atoms: C_8  and  C_16
    3  A    between atoms: C_12  and  S_25
    4  A    between atoms: C_18  and  C_20
    5  A    between atoms: C_24  and  S_25
                            x       y       z     vdW  Elec       q    Type
                         _______ _______ _______ _____ _____    ______ ____

>  <TORSDO>
F 5

$$$$
=
 OpenBabel11072408343D

 26 28  0  0  1  0  0  0  0  0999 V2000
  191.7030  174.5850  145.4240 C   0  0  0  0  0  3  0  0  0  0  0  0
  189.3180  174.5160  145.5440 N   0  0  0  0  0  0  0  0  0  0  0  0
  190.4340  176.6130  145.7580 C   0  0  0  0  0  3  0  0  0  0  0  0
  191.6670  175.9690  145.6030 C   0  0  0  0  0  0  0  0  0  0  0  0
  189.2490  175.8650  145.7260 C   0  0  0  0  0  0  0  0  0  0  0  0
  190.5050  173.8690  145.3950 C   0  0  0  0  0  3  0  0  0  0  0  0
  185.9980  177.0390  147.2660 C   0  0  0  0  0  3  0  0  0  0  0  0
  187.3660  177.2650  144.8430 C   0  0  0  0  0  3  0  0  0  0  0  0
  186.1250  177.8900  144.9980 C   0  0  0  0  0  0  0  0  0  0  0  0
  184.2360  178.3740  146.3960 F   0  0  0  0  0  0  0  0  0  0  0  0
  185.4400  177.7750  146.2180 C   0  0  0  0  0  0  0  0  0  0  0  0
  187.9360  176.5240  145.8900 C   0  0  0  0  0  0  0  0  0  0  0  0
  187.2390  176.4170  147.1030 C   0  0  0  0  0  3  0  0  0  0  0  0
  184.0780  178.2880  143.3300 O   0  0  0  0  0  0  0  0  0  0  0  0
  185.3250  180.2590  144.0730 O   0  0  0  0  0  0  0  0  0  0  0  0
  185.4440  178.8160  143.6690 S   0  0  0  0  0  0  0  0  0  0  0  0
  185.9250  177.6550  141.2720 C   0  0  0  0  0  1  0  0  0  0  0  0
  186.5000  178.6650  142.2430 C   0  0  0  0  0  2  0  0  0  0  0  0
  192.9520  176.7370  145.6530 C   0  0  1  0  0  3  0  0  0  0  0  0
  193.5750  176.5820  146.8940 O   0  0  0  0  0  1  0  0  0  0  0  0
  193.4490  176.3860  143.2010 C   0  0  0  0  0  3  0  0  0  0  0  0
  193.8730  176.3490  144.5390 C   0  0  0  0  0  0  0  0  0  0  0  0
  194.3340  176.0410  142.1740 C   0  0  0  0  0  3  0  0  0  0  0  0
  195.1890  175.9770  144.8370 C   0  0  0  0  0  3  0  0  0  0  0  0
  196.0730  175.6320  143.8090 C   0  0  0  0  0  3  0  0  0  0  0  0
  195.6450  175.6630  142.4790 C   0  0  0  0  0  3  0  0  0  0  0  0
  1  4  1  0  0  0  0
  2  5  2  0  0  0  0
  4 19  1  0  0  0  0
  4  3  2  0  0  0  0
  5  3  1  0  0  0  0
  5 12  1  0  0  0  0
  6  1  2  0  0  0  0
  6  2  1  0  0  0  0
  8  9  2  0  0  0  0
  8 12  1  0  0  0  0
  9 11  1  0  0  0  0
 11 10  1  0  0  0  0
 11  7  2  0  0  0  0
 12 13  2  0  0  0  0
 13  7  1  0  0  0  0
 14 16  2  0  0  0  0
 16 15  2  0  0  0  0
 16  9  1  0  0  0  0
 17 18  1  0  0  0  0
 18 16  1  0  0  0  0
 19 20  1  1  0  0  0
 21 22  1  0  0  0  0
 22 24  2  0  0  0  0
 22 19  1  0  0  0  0
 23 26  1  0  0  0  0
 23 21  2  0  0  0  0
 25 24  1  0  0  0  0
 26 25  2  0  0  0  0
M  END
>  <MODEL>
6

>  <REMARK>
 VINA RESULT:      -7.1      2.119      3.283
  Name = 
  5 active torsions:
  status: ('A' for Active; 'I' for Inactive)
    1  A    between atoms: C_5  and  C_8
    2  A    between atoms: C_8  and  C_16
    3  A    between atoms: C_12  and  S_25
    4  A    between atoms: C_18  and  C_20
    5  A    between atoms: C_24  and  S_25
                            x       y       z     vdW  Elec       q    Type
                         _______ _______ _______ _____ _____    ______ ____

>  <TORSDO>
F 5

$$$$
=
 OpenBabel11072408343D

 26 28  0  0  1  0  0  0  0  0999 V2000
  192.2480  175.3370  147.1390 C   0  0  0  0  0  3  0  0  0  0  0  0
  189.9350  175.6650  147.6380 N   0  0  0  0  0  0  0  0  0  0  0  0
  190.7340  176.1510  145.4430 C   0  0  0  0  0  3  0  0  0  0  0  0
  192.0220  175.7660  145.8300 C   0  0  0  0  0  0  0  0  0  0  0  0
  189.6820  176.0950  146.3690 C   0  0  0  0  0  0  0  0  0  0  0  0
  191.1800  175.2910  148.0370 C   0  0  0  0  0  3  0  0  0  0  0  0
  185.9690  176.7970  146.5550 C   0  0  0  0  0  3  0  0  0  0  0  0
  188.0390  176.9710  144.6900 C   0  0  0  0  0  3  0  0  0  0  0  0
  186.7450  177.3540  144.3250 C   0  0  0  0  0  0  0  0  0  0  0  0
  184.4420  177.6350  144.9390 F   0  0  0  0  0  0  0  0  0  0  0  0
  185.7070  177.2670  145.2650 C   0  0  0  0  0  0  0  0  0  0  0  0
  188.3130  176.4980  145.9830 C   0  0  0  0  0  0  0  0  0  0  0  0
  187.2650  176.4150  146.9120 C   0  0  0  0  0  3  0  0  0  0  0  0
  185.2680  177.2140  142.1040 O   0  0  0  0  0  0  0  0  0  0  0  0
  186.1200  179.4150  142.7540 O   0  0  0  0  0  0  0  0  0  0  0  0
  186.4380  177.9470  142.7000 S   0  0  0  0  0  0  0  0  0  0  0  0
  187.8150  176.2960  141.0550 C   0  0  0  0  0  1  0  0  0  0  0  0
  187.8790  177.6710  141.6900 C   0  0  0  0  0  2  0  0  0  0  0  0
  193.1700  175.8340  144.8710 C   0  0  1  0  0  3  0  0  0  0  0  0
  193.7620  177.1000  144.8930 O   0  0  0  0  0  1  0  0  0  0  0  0
  193.8630  173.4070  144.9830 C   0  0  0  0  0  3  0  0  0  0  0  0
  194.1820  174.7650  145.1410 C   0  0  0  0  0  0  0  0  0  0  0  0
  194.8310  172.4260  145.2200 C   0  0  0  0  0  3  0  0  0  0  0  0
  195.4780  175.1300  145.5260 C   0  0  0  0  0  3  0  0  0  0  0  0
  196.4450  174.1480  145.7620 C   0  0  0  0  0  3  0  0  0  0  0  0
  196.1210  172.7960  145.6100 C   0  0  0  0  0  3  0  0  0  0  0  0
  1  6  1  0  0  0  0
  2  6  2  0  0  0  0
  3  4  1  0  0  0  0
  3  5  2  0  0  0  0
  4  1  2  0  0  0  0
  5  2  1  0  0  0  0
  7 13  1  0  0  0  0
  8 12  1  0  0  0  0
  9  8  2  0  0  0  0
  9 11  1  0  0  0  0
 10 11  1  0  0  0  0
 11  7  2  0  0  0  0
 12  5  1  0  0  0  0
 12 13  2  0  0  0  0
 14 16  2  0  0  0  0
 16 15  2  0  0  0  0
 16  9  1  0  0  0  0
 17 18  1  0  0  0  0
 18 16  1  0  0  0  0
 19 20  1  1  0  0  0
 19 22  1  0  0  0  0
 19  4  1  0  0  0  0
 21 22  2  0  0  0  0
 21 23  1  0  0  0  0
 22 24  1  0  0  0  0
 23 26  2  0  0  0  0
 24 25  2  0  0  0  0
 26 25  1  0  0  0  0
M  END
>  <MODEL>
7

>  <REMARK>
 VINA RESULT:      -7.1      1.557      2.732
  Name = 
  5 active torsions:
  status: ('A' for Active; 'I' for Inactive)
    1  A    between atoms: C_5  and  C_8
    2  A    between atoms: C_8  and  C_16
    3  A    between atoms: C_12  and  S_25
    4  A    between atoms: C_18  and  C_20
    5  A    between atoms: C_24  and  S_25
                            x       y       z     vdW  Elec       q    Type
                         _______ _______ _______ _____ _____    ______ ____

>  <TORSDO>
F 5

$$$$
=
 OpenBabel11072408343D

 26 28  0  0  1  0  0  0  0  0999 V2000
  190.3740  173.6830  142.7040 C   0  0  0  0  0  3  0  0  0  0  0  0
  188.6430  175.1430  141.9440 N   0  0  0  0  0  0  0  0  0  0  0  0
  189.5000  175.4040  144.1550 C   0  0  0  0  0  3  0  0  0  0  0  0
  190.3830  174.3410  143.9350 C   0  0  0  0  0  0  0  0  0  0  0  0
  188.6220  175.8030  143.1370 C   0  0  0  0  0  0  0  0  0  0  0  0
  189.4890  174.1040  141.7100 C   0  0  0  0  0  3  0  0  0  0  0  0
  186.6630  178.9900  142.5700 C   0  0  0  0  0  3  0  0  0  0  0  0
  186.8980  176.9970  144.5110 C   0  0  0  0  0  3  0  0  0  0  0  0
  186.0060  178.0560  144.7090 C   0  0  0  0  0  0  0  0  0  0  0  0
  185.0290  180.0910  143.8970 F   0  0  0  0  0  0  0  0  0  0  0  0
  185.8890  179.0550  143.7310 C   0  0  0  0  0  0  0  0  0  0  0  0
  187.6800  176.9230  143.3480 C   0  0  0  0  0  0  0  0  0  0  0  0
  187.5530  177.9290  142.3790 C   0  0  0  0  0  3  0  0  0  0  0  0
  183.6470  178.5800  145.8460 O   0  0  0  0  0  0  0  0  0  0  0  0
  184.9640  176.7410  146.7810 O   0  0  0  0  0  0  0  0  0  0  0  0
  185.0390  178.1140  146.1750 S   0  0  0  0  0  0  0  0  0  0  0  0
  186.9050  178.5700  148.0810 C   0  0  0  0  0  1  0  0  0  0  0  0
  185.7810  179.2510  147.3270 C   0  0  0  0  0  2  0  0  0  0  0  0
  191.3180  173.8780  145.0090 C   0  0  1  0  0  3  0  0  0  0  0  0
  191.9030  172.6570  144.6650 O   0  0  0  0  0  1  0  0  0  0  0  0
  193.2830  175.3180  144.3360 C   0  0  0  0  0  3  0  0  0  0  0  0
  192.3640  174.9060  145.3140 C   0  0  0  0  0  0  0  0  0  0  0  0
  194.2370  176.2960  144.6370 C   0  0  0  0  0  3  0  0  0  0  0  0
  192.4000  175.4880  146.5860 C   0  0  0  0  0  3  0  0  0  0  0  0
  193.3540  176.4660  146.8850 C   0  0  0  0  0  3  0  0  0  0  0  0
  194.2720  176.8690  145.9110 C   0  0  0  0  0  3  0  0  0  0  0  0
  1  4  1  0  0  0  0
  2  5  2  0  0  0  0
  4  3  2  0  0  0  0
  4 19  1  0  0  0  0
  5 12  1  0  0  0  0
  5  3  1  0  0  0  0
  6  2  1  0  0  0  0
  6  1  2  0  0  0  0
  7 11  1  0  0  0  0
  8  9  1  0  0  0  0
  9 16  1  0  0  0  0
 11 10  1  0  0  0  0
 11  9  2  0  0  0  0
 12  8  2  0  0  0  0
 13  7  2  0  0  0  0
 13 12  1  0  0  0  0
 14 16  2  0  0  0  0
 16 15  2  0  0  0  0
 16 18  1  0  0  0  0
 18 17  1  0  0  0  0
 19 20  1  6  0  0  0
 19 22  1  0  0  0  0
 21 23  2  0  0  0  0
 21 22  1  0  0  0  0
 22 24  2  0  0  0  0
 23 26  1  0  0  0  0
 24 25  1  0  0  0  0
 26 25  2  0  0  0  0
M  END
>  <MODEL>
8

>  <REMARK>
 VINA RESULT:      -7.0      2.571      3.454
  Name = 
  5 active torsions:
  status: ('A' for Active; 'I' for Inactive)
    1  A    between atoms: C_5  and  C_8
    2  A    between atoms: C_8  and  C_16
    3  A    between atoms: C_12  and  S_25
    4  A    between atoms: C_18  and  C_20
    5  A    between atoms: C_24  and  S_25
                            x       y       z     vdW  Elec       q    Type
                         _______ _______ _______ _____ _____    ______ ____

>  <TORSDO>
F 5

$$$$
=
 OpenBabel11072408343D

 26 28  0  0  1  0  0  0  0  0999 V2000
  185.5090  178.2130  141.2250 C   0  0  0  0  0  3  0  0  0  0  0  0
  187.3780  176.8050  140.7450 N   0  0  0  0  0  0  0  0  0  0  0  0
  186.8870  177.3550  143.0140 C   0  0  0  0  0  3  0  0  0  0  0  0
  185.7920  178.1150  142.5890 C   0  0  0  0  0  0  0  0  0  0  0  0
  187.6850  176.6940  142.0690 C   0  0  0  0  0  0  0  0  0  0  0  0
  186.3210  177.5420  140.3090 C   0  0  0  0  0  3  0  0  0  0  0  0
  190.4580  174.1210  142.0480 C   0  0  0  0  0  3  0  0  0  0  0  0
  189.4600  176.1050  143.7390 C   0  0  0  0  0  3  0  0  0  0  0  0
  190.5610  175.3430  144.1410 C   0  0  0  0  0  0  0  0  0  0  0  0
  192.1300  173.5950  143.6520 F   0  0  0  0  0  0  0  0  0  0  0  0
  191.0610  174.3470  143.2880 C   0  0  0  0  0  0  0  0  0  0  0  0
  188.8470  175.8860  142.4950 C   0  0  0  0  0  0  0  0  0  0  0  0
  189.3580  174.8870  141.6530 C   0  0  0  0  0  3  0  0  0  0  0  0
  192.0320  174.4160  146.1680 O   0  0  0  0  0  0  0  0  0  0  0  0
  192.2920  176.7760  145.5740 O   0  0  0  0  0  0  0  0  0  0  0  0
  191.3070  175.6480  145.7020 S   0  0  0  0  0  0  0  0  0  0  0  0
  189.2140  174.8460  147.2190 C   0  0  0  0  0  1  0  0  0  0  0  0
  190.0460  176.0690  146.8870 C   0  0  0  0  0  2  0  0  0  0  0  0
  184.9330  178.8500  143.5710 C   0  0  1  0  0  3  0  0  0  0  0  0
  183.5780  178.6580  143.2870 O   0  0  0  0  0  1  0  0  0  0  0  0
  185.1980  177.1150  145.3890 C   0  0  0  0  0  3  0  0  0  0  0  0
  185.2450  178.4570  144.9820 C   0  0  0  0  0  0  0  0  0  0  0  0
  185.5150  176.7690  146.7060 C   0  0  0  0  0  3  0  0  0  0  0  0
  185.6230  179.4440  145.8990 C   0  0  0  0  0  3  0  0  0  0  0  0
  185.9400  179.0970  147.2160 C   0  0  0  0  0  3  0  0  0  0  0  0
  185.8860  177.7600  147.6200 C   0  0  0  0  0  3  0  0  0  0  0  0
  1  4  1  0  0  0  0
  2  5  2  0  0  0  0
  4  3  2  0  0  0  0
  4 19  1  0  0  0  0
  5 12  1  0  0  0  0
  5  3  1  0  0  0  0
  6  2  1  0  0  0  0
  6  1  2  0  0  0  0
  7 11  1  0  0  0  0
  8  9  1  0  0  0  0
  9 16  1  0  0  0  0
 11 10  1  0  0  0  0
 11  9  2  0  0  0  0
 12  8  2  0  0  0  0
 13  7  2  0  0  0  0
 13 12  1  0  0  0  0
 15 16  2  0  0  0  0
 16 14  2  0  0  0  0
 16 18  1  0  0  0  0
 18 17  1  0  0  0  0
 19 20  1  6  0  0  0
 19 22  1  0  0  0  0
 21 23  1  0  0  0  0
 22 21  2  0  0  0  0
 22 24  1  0  0  0  0
 23 26  2  0  0  0  0
 24 25  2  0  0  0  0
 25 26  1  0  0  0  0
M  END
>  <MODEL>
9

>  <REMARK>
 VINA RESULT:      -7.0      3.701      7.869
  Name = 
  5 active torsions:
  status: ('A' for Active; 'I' for Inactive)
    1  A    between atoms: C_5  and  C_8
    2  A    between atoms: C_8  and  C_16
    3  A    between atoms: C_12  and  S_25
    4  A    between atoms: C_18  and  C_20
    5  A    between atoms: C_24  and  S_25
                            x       y       z     vdW  Elec       q    Type
                         _______ _______ _______ _____ _____    ______ ____

>  <TORSDO>
F 5

$$$$
