=
 OpenBabel11062420153D

 25 27  0  0  1  0  0  0  0  0999 V2000
  186.8040  178.2730  141.8550 C   0  0  0  0  0  2  0  0  0  0  0  0
  187.3990  176.4670  143.3790 C   0  0  1  0  0  3  0  0  0  0  0  0
  188.2860  177.9810  141.6660 C   0  0  0  0  0  2  0  0  0  0  0  0
  186.2330  177.0870  142.6180 C   0  0  1  0  0  3  0  0  0  0  0  0
  188.5550  176.6750  142.4030 C   0  0  1  0  0  3  0  0  0  0  0  0
  191.6960  175.0250  143.8620 C   0  0  0  0  0  2  0  0  0  0  0  0
  192.1020  177.4630  143.7420 C   0  0  0  0  0  2  0  0  0  0  0  0
  192.1920  176.2360  144.6440 C   0  0  0  0  0  2  0  0  0  0  0  0
  190.7200  177.6080  143.1740 C   0  0  0  0  0  3  0  0  0  0  0  0
  190.3740  175.2640  143.3730 O   0  0  0  0  0  0  0  0  0  0  0  0
  189.9400  176.5360  142.9730 C   0  0  0  0  0  0  0  0  0  0  0  0
  187.6370  177.1700  144.7270 C   0  0  0  0  0  2  0  0  0  0  0  0
  187.6060  176.1780  145.8810 C   0  0  0  0  0  2  0  0  0  0  0  0
  190.5370  177.5410  147.7350 C   0  0  0  0  0  3  0  0  0  0  0  0
  189.5310  175.0760  147.0380 C   0  0  0  0  0  3  0  0  0  0  0  0
  191.1970  176.4110  148.0980 N   0  0  0  0  0  0  0  0  0  0  0  0
  189.3790  177.4560  147.0280 N   0  0  0  0  0  0  0  0  0  0  0  0
  188.8630  176.2480  146.6800 C   0  0  0  0  0  0  0  0  0  0  0  0
  190.7160  175.1850  147.7640 C   0  0  0  0  0  3  0  0  0  0  0  0
  185.0380  177.4660  143.4860 C   0  0  0  0  0  2  0  0  0  0  0  0
  184.8490  178.9690  143.4980 C   0  0  0  0  0  2  0  0  0  0  0  0
  184.8090  179.4620  144.9320 C   0  0  0  0  0  2  0  0  0  0  0  0
  184.2690  178.3780  145.8520 C   0  0  0  0  0  2  0  0  0  0  0  0
  184.7780  178.5430  147.2480 C   0  0  0  0  0  3  0  0  0  0  0  0
  185.9610  179.1080  147.4800 C   0  0  0  0  0  2  0  0  0  0  0  0
  1  4  1  0  0  0  0
  2 12  1  1  0  0  0
  3  1  1  0  0  0  0
  3  5  1  0  0  0  0
  4  2  1  0  0  0  0
  4 20  1  1  0  0  0
  5 11  1  1  0  0  0
  5  2  1  0  0  0  0
  6  8  1  0  0  0  0
  7  8  1  0  0  0  0
  9  7  1  0  0  0  0
 10  6  1  0  0  0  0
 11  9  2  0  0  0  0
 11 10  1  0  0  0  0
 12 13  1  0  0  0  0
 13 18  1  0  0  0  0
 14 16  1  0  0  0  0
 15 19  1  0  0  0  0
 17 14  2  0  0  0  0
 18 17  1  0  0  0  0
 18 15  2  0  0  0  0
 19 16  2  0  0  0  0
 20 21  1  0  0  0  0
 21 22  1  0  0  0  0
 22 23  1  0  0  0  0
 23 24  1  0  0  0  0
 24 25  2  0  0  0  0
M  END
>  <MODEL>
1

>  <REMARK>
 VINA RESULT:      -6.2      0.000      0.000
  Name = 
  9 active torsions:
  status: ('A' for Active; 'I' for Inactive)
    1  A    between atoms: C_1  and  C_14
    2  A    between atoms: C_7  and  C_14
    3  A    between atoms: C_7  and  C_19
    4  A    between atoms: C_8  and  C_10
    5  A    between atoms: C_8  and  C_15
    6  A    between atoms: C_10  and  C_13
    7  A    between atoms: C_17  and  C_20
    8  A    between atoms: C_19  and  C_20
    9  A    between atoms: C_21  and  C_25
                            x       y       z     vdW  Elec       q    Type
                         _______ _______ _______ _____ _____    ______ ____

>  <TORSDO>
F 9

$$$$
=
 OpenBabel11062420153D

 25 27  0  0  1  0  0  0  0  0999 V2000
  184.9210  177.8840  145.9640 C   0  0  0  0  0  2  0  0  0  0  0  0
  187.2000  178.4870  145.3480 C   0  0  1  0  0  3  0  0  0  0  0  0
  185.8620  177.1390  146.9000 C   0  0  0  0  0  2  0  0  0  0  0  0
  185.7550  178.9690  145.2990 C   0  0  1  0  0  3  0  0  0  0  0  0
  187.2390  177.7540  146.6870 C   0  0  1  0  0  3  0  0  0  0  0  0
  190.8450  176.5510  147.2130 C   0  0  0  0  0  2  0  0  0  0  0  0
  189.3750  174.5610  147.1710 C   0  0  0  0  0  2  0  0  0  0  0  0
  190.6620  175.1610  146.6140 C   0  0  0  0  0  2  0  0  0  0  0  0
  188.2160  175.4900  146.9580 C   0  0  0  0  0  3  0  0  0  0  0  0
  189.6920  177.3540  146.9490 O   0  0  0  0  0  0  0  0  0  0  0  0
  188.3980  176.8180  146.8980 C   0  0  0  0  0  0  0  0  0  0  0  0
  187.5310  177.5610  144.1640 C   0  0  0  0  0  2  0  0  0  0  0  0
  188.9040  177.8730  143.5850 C   0  0  0  0  0  2  0  0  0  0  0  0
  191.6840  175.5540  142.7020 C   0  0  0  0  0  3  0  0  0  0  0  0
  189.0080  175.3870  143.3260 C   0  0  0  0  0  3  0  0  0  0  0  0
  191.0660  174.3440  142.7270 N   0  0  0  0  0  0  0  0  0  0  0  0
  190.9810  176.6820  142.9860 N   0  0  0  0  0  0  0  0  0  0  0  0
  189.6610  176.6200  143.3020 C   0  0  0  0  0  0  0  0  0  0  0  0
  189.7460  174.2410  143.0320 C   0  0  0  0  0  3  0  0  0  0  0  0
  185.2520  179.3270  143.9050 C   0  0  0  0  0  2  0  0  0  0  0  0
  183.8370  178.8200  143.7070 C   0  0  0  0  0  2  0  0  0  0  0  0
  183.7130  178.1950  142.3310 C   0  0  0  0  0  2  0  0  0  0  0  0
  185.0390  177.5860  141.9020 C   0  0  0  0  0  2  0  0  0  0  0  0
  185.4220  178.0270  140.5250 C   0  0  0  0  0  3  0  0  0  0  0  0
  186.5400  177.5830  139.9540 C   0  0  0  0  0  2  0  0  0  0  0  0
  1  3  1  0  0  0  0
  2 12  1  6  0  0  0
  2  5  1  0  0  0  0
  4 20  1  6  0  0  0
  4  2  1  0  0  0  0
  4  1  1  0  0  0  0
  5 11  1  6  0  0  0
  5  3  1  0  0  0  0
  8  7  1  0  0  0  0
  8  6  1  0  0  0  0
  9  7  1  0  0  0  0
 10  6  1  0  0  0  0
 11 10  1  0  0  0  0
 11  9  2  0  0  0  0
 13 12  1  0  0  0  0
 14 16  2  0  0  0  0
 14 17  1  0  0  0  0
 16 19  1  0  0  0  0
 17 18  2  0  0  0  0
 18 15  1  0  0  0  0
 18 13  1  0  0  0  0
 19 15  2  0  0  0  0
 21 20  1  0  0  0  0
 22 21  1  0  0  0  0
 23 22  1  0  0  0  0
 24 23  1  0  0  0  0
 25 24  2  0  0  0  0
M  END
>  <MODEL>
2

>  <REMARK>
 VINA RESULT:      -6.2      2.109      4.405
  Name = 
  9 active torsions:
  status: ('A' for Active; 'I' for Inactive)
    1  A    between atoms: C_1  and  C_14
    2  A    between atoms: C_7  and  C_14
    3  A    between atoms: C_7  and  C_19
    4  A    between atoms: C_8  and  C_10
    5  A    between atoms: C_8  and  C_15
    6  A    between atoms: C_10  and  C_13
    7  A    between atoms: C_17  and  C_20
    8  A    between atoms: C_19  and  C_20
    9  A    between atoms: C_21  and  C_25
                            x       y       z     vdW  Elec       q    Type
                         _______ _______ _______ _____ _____    ______ ____

>  <TORSDO>
F 9

$$$$
=
 OpenBabel11062420153D

 25 27  0  0  1  0  0  0  0  0999 V2000
  186.1410  177.7220  141.9290 C   0  0  0  0  0  2  0  0  0  0  0  0
  187.1720  176.8160  143.9420 C   0  0  1  0  0  3  0  0  0  0  0  0
  186.9200  176.4790  141.5270 C   0  0  0  0  0  2  0  0  0  0  0  0
  186.0110  177.6690  143.4450 C   0  0  1  0  0  3  0  0  0  0  0  0
  187.3000  175.7820  142.8270 C   0  0  1  0  0  3  0  0  0  0  0  0
  190.1720  173.5070  143.9690 C   0  0  0  0  0  2  0  0  0  0  0  0
  190.6600  174.2500  141.6600 C   0  0  0  0  0  2  0  0  0  0  0  0
  191.2440  174.0980  143.0610 C   0  0  0  0  0  2  0  0  0  0  0  0
  189.3760  175.0270  141.6980 C   0  0  0  0  0  3  0  0  0  0  0  0
  188.9980  174.3240  143.9370 O   0  0  0  0  0  0  0  0  0  0  0  0
  188.5890  175.0070  142.7840 C   0  0  0  0  0  0  0  0  0  0  0  0
  188.4540  177.6480  144.1200 C   0  0  0  0  0  2  0  0  0  0  0  0
  189.0460  177.4630  145.5100 C   0  0  0  0  0  2  0  0  0  0  0  0
  192.3330  175.9290  146.3650 C   0  0  0  0  0  3  0  0  0  0  0  0
  191.2750  177.5090  144.3740 C   0  0  0  0  0  3  0  0  0  0  0  0
  193.1200  176.3500  145.3410 N   0  0  0  0  0  0  0  0  0  0  0  0
  191.0230  176.2860  146.4060 N   0  0  0  0  0  0  0  0  0  0  0  0
  190.4800  177.0610  145.4310 C   0  0  0  0  0  0  0  0  0  0  0  0
  192.6170  177.1310  144.3500 C   0  0  0  0  0  3  0  0  0  0  0  0
  185.9240  179.0540  144.0770 C   0  0  0  0  0  2  0  0  0  0  0  0
  184.5570  179.2680  144.6950 C   0  0  0  0  0  2  0  0  0  0  0  0
  184.5050  178.5930  146.0520 C   0  0  0  0  0  2  0  0  0  0  0  0
  185.5600  179.1790  146.9780 C   0  0  0  0  0  2  0  0  0  0  0  0
  186.2580  178.1100  147.7570 C   0  0  0  0  0  3  0  0  0  0  0  0
  186.0590  176.8230  147.4770 C   0  0  0  0  0  2  0  0  0  0  0  0
  1  4  1  0  0  0  0
  2 12  1  6  0  0  0
  3  1  1  0  0  0  0
  3  5  1  0  0  0  0
  4  2  1  0  0  0  0
  4 20  1  1  0  0  0
  5 11  1  6  0  0  0
  5  2  1  0  0  0  0
  7  9  1  0  0  0  0
  7  8  1  0  0  0  0
  8  6  1  0  0  0  0
  9 11  2  0  0  0  0
 10  6  1  0  0  0  0
 11 10  1  0  0  0  0
 12 13  1  0  0  0  0
 14 17  1  0  0  0  0
 15 18  1  0  0  0  0
 16 14  2  0  0  0  0
 18 13  1  0  0  0  0
 18 17  2  0  0  0  0
 19 15  2  0  0  0  0
 19 16  1  0  0  0  0
 20 21  1  0  0  0  0
 21 22  1  0  0  0  0
 22 23  1  0  0  0  0
 23 24  1  0  0  0  0
 25 24  2  0  0  0  0
M  END
>  <MODEL>
3

>  <REMARK>
 VINA RESULT:      -6.1      1.590      2.397
  Name = 
  9 active torsions:
  status: ('A' for Active; 'I' for Inactive)
    1  A    between atoms: C_1  and  C_14
    2  A    between atoms: C_7  and  C_14
    3  A    between atoms: C_7  and  C_19
    4  A    between atoms: C_8  and  C_10
    5  A    between atoms: C_8  and  C_15
    6  A    between atoms: C_10  and  C_13
    7  A    between atoms: C_17  and  C_20
    8  A    between atoms: C_19  and  C_20
    9  A    between atoms: C_21  and  C_25
                            x       y       z     vdW  Elec       q    Type
                         _______ _______ _______ _____ _____    ______ ____

>  <TORSDO>
F 9

$$$$
=
 OpenBabel11062420153D

 25 27  0  0  1  0  0  0  0  0999 V2000
  186.5400  177.4890  141.9050 C   0  0  0  0  0  2  0  0  0  0  0  0
  187.4660  176.6780  144.0080 C   0  0  1  0  0  3  0  0  0  0  0  0
  187.4430  176.3070  141.5840 C   0  0  0  0  0  2  0  0  0  0  0  0
  186.2890  177.4360  143.4050 C   0  0  1  0  0  3  0  0  0  0  0  0
  187.7660  175.6500  142.9200 C   0  0  1  0  0  3  0  0  0  0  0  0
  191.3750  174.7110  142.0180 C   0  0  0  0  0  2  0  0  0  0  0  0
  190.7240  173.4050  144.0160 C   0  0  0  0  0  2  0  0  0  0  0  0
  191.3590  173.3160  142.6310 C   0  0  0  0  0  2  0  0  0  0  0  0
  189.3810  174.0720  143.9460 C   0  0  0  0  0  3  0  0  0  0  0  0
  190.0520  175.2510  141.9930 O   0  0  0  0  0  0  0  0  0  0  0  0
  189.1090  174.9770  142.9940 C   0  0  0  0  0  0  0  0  0  0  0  0
  188.6610  177.6090  144.2800 C   0  0  0  0  0  2  0  0  0  0  0  0
  189.1240  177.5060  145.7270 C   0  0  0  0  0  2  0  0  0  0  0  0
  192.6330  176.5880  144.8750 C   0  0  0  0  0  3  0  0  0  0  0  0
  190.8170  176.0670  146.8760 C   0  0  0  0  0  3  0  0  0  0  0  0
  192.9760  175.7750  145.9080 N   0  0  0  0  0  0  0  0  0  0  0  0
  191.3950  177.1450  144.8300 N   0  0  0  0  0  0  0  0  0  0  0  0
  190.4860  176.9050  145.8100 C   0  0  0  0  0  0  0  0  0  0  0  0
  192.0930  175.5060  146.9050 C   0  0  0  0  0  3  0  0  0  0  0  0
  186.0430  178.8140  144.0090 C   0  0  0  0  0  2  0  0  0  0  0  0
  184.5830  178.9750  144.3830 C   0  0  0  0  0  2  0  0  0  0  0  0
  184.3990  178.6420  145.8510 C   0  0  0  0  0  2  0  0  0  0  0  0
  185.5880  179.1350  146.6620 C   0  0  0  0  0  2  0  0  0  0  0  0
  185.9910  178.1390  147.7020 C   0  0  0  0  0  3  0  0  0  0  0  0
  186.0190  176.8370  147.4240 C   0  0  0  0  0  2  0  0  0  0  0  0
  1  4  1  0  0  0  0
  2 12  1  6  0  0  0
  3  1  1  0  0  0  0
  3  5  1  0  0  0  0
  4  2  1  0  0  0  0
  4 20  1  1  0  0  0
  5 11  1  6  0  0  0
  5  2  1  0  0  0  0
  6  8  1  0  0  0  0
  8  7  1  0  0  0  0
  9  7  1  0  0  0  0
 10  6  1  0  0  0  0
 10 11  1  0  0  0  0
 11  9  2  0  0  0  0
 12 13  1  0  0  0  0
 13 18  1  0  0  0  0
 14 16  1  0  0  0  0
 15 19  1  0  0  0  0
 16 19  2  0  0  0  0
 17 14  2  0  0  0  0
 17 18  1  0  0  0  0
 18 15  2  0  0  0  0
 20 21  1  0  0  0  0
 21 22  1  0  0  0  0
 22 23  1  0  0  0  0
 23 24  1  0  0  0  0
 25 24  2  0  0  0  0
M  END
>  <MODEL>
4

>  <REMARK>
 VINA RESULT:      -6.0      1.632      2.226
  Name = 
  9 active torsions:
  status: ('A' for Active; 'I' for Inactive)
    1  A    between atoms: C_1  and  C_14
    2  A    between atoms: C_7  and  C_14
    3  A    between atoms: C_7  and  C_19
    4  A    between atoms: C_8  and  C_10
    5  A    between atoms: C_8  and  C_15
    6  A    between atoms: C_10  and  C_13
    7  A    between atoms: C_17  and  C_20
    8  A    between atoms: C_19  and  C_20
    9  A    between atoms: C_21  and  C_25
                            x       y       z     vdW  Elec       q    Type
                         _______ _______ _______ _____ _____    ______ ____

>  <TORSDO>
F 9

$$$$
=
 OpenBabel11062420153D

 25 27  0  0  1  0  0  0  0  0999 V2000
  188.7240  175.1700  147.2640 C   0  0  0  0  0  2  0  0  0  0  0  0
  189.9980  176.9010  146.1150 C   0  0  1  0  0  3  0  0  0  0  0  0
  190.2000  174.8930  147.5090 C   0  0  0  0  0  2  0  0  0  0  0  0
  188.6410  176.5960  146.7400 C   0  0  1  0  0  3  0  0  0  0  0  0
  190.9450  176.1360  147.0370 C   0  0  1  0  0  3  0  0  0  0  0  0
  194.4980  176.8540  145.7800 C   0  0  0  0  0  2  0  0  0  0  0  0
  194.1450  174.4060  145.7100 C   0  0  0  0  0  2  0  0  0  0  0  0
  194.6390  175.6080  144.9120 C   0  0  0  0  0  2  0  0  0  0  0  0
  192.7600  174.6470  146.2360 C   0  0  0  0  0  3  0  0  0  0  0  0
  193.1450  176.9930  146.2210 O   0  0  0  0  0  0  0  0  0  0  0  0
  192.3310  175.8880  146.5080 C   0  0  0  0  0  0  0  0  0  0  0  0
  190.0750  176.4110  144.6590 C   0  0  0  0  0  2  0  0  0  0  0  0
  189.9020  177.5630  143.6780 C   0  0  0  0  0  2  0  0  0  0  0  0
  188.0890  175.5440  141.1250 C   0  0  0  0  0  3  0  0  0  0  0  0
  188.1940  178.1660  141.9520 C   0  0  0  0  0  3  0  0  0  0  0  0
  187.3180  176.4800  140.5130 N   0  0  0  0  0  0  0  0  0  0  0  0
  188.9110  175.9010  142.1460 N   0  0  0  0  0  0  0  0  0  0  0  0
  188.9730  177.1890  142.5730 C   0  0  0  0  0  0  0  0  0  0  0  0
  187.3570  177.7800  140.9070 C   0  0  0  0  0  3  0  0  0  0  0  0
  187.4510  176.8140  145.8130 C   0  0  0  0  0  2  0  0  0  0  0  0
  186.1700  176.9290  146.6140 C   0  0  0  0  0  2  0  0  0  0  0  0
  185.7540  178.3850  146.6960 C   0  0  0  0  0  2  0  0  0  0  0  0
  184.3570  178.5720  146.1220 C   0  0  0  0  0  2  0  0  0  0  0  0
  184.4070  178.9660  144.6800 C   0  0  0  0  0  3  0  0  0  0  0  0
  185.3590  179.7820  144.2300 C   0  0  0  0  0  2  0  0  0  0  0  0
  1  3  1  0  0  0  0
  2 12  1  6  0  0  0
  2  4  1  0  0  0  0
  2  5  1  0  0  0  0
  4 20  1  6  0  0  0
  4  1  1  0  0  0  0
  5 11  1  6  0  0  0
  5  3  1  0  0  0  0
  6 10  1  0  0  0  0
  7  9  1  0  0  0  0
  8  7  1  0  0  0  0
  8  6  1  0  0  0  0
  9 11  2  0  0  0  0
 10 11  1  0  0  0  0
 13 12  1  0  0  0  0
 14 17  1  0  0  0  0
 15 18  1  0  0  0  0
 16 19  1  0  0  0  0
 16 14  2  0  0  0  0
 17 18  2  0  0  0  0
 18 13  1  0  0  0  0
 19 15  2  0  0  0  0
 20 21  1  0  0  0  0
 21 22  1  0  0  0  0
 23 22  1  0  0  0  0
 24 23  1  0  0  0  0
 25 24  2  0  0  0  0
M  END
>  <MODEL>
5

>  <REMARK>
 VINA RESULT:      -6.0      2.397      4.880
  Name = 
  9 active torsions:
  status: ('A' for Active; 'I' for Inactive)
    1  A    between atoms: C_1  and  C_14
    2  A    between atoms: C_7  and  C_14
    3  A    between atoms: C_7  and  C_19
    4  A    between atoms: C_8  and  C_10
    5  A    between atoms: C_8  and  C_15
    6  A    between atoms: C_10  and  C_13
    7  A    between atoms: C_17  and  C_20
    8  A    between atoms: C_19  and  C_20
    9  A    between atoms: C_21  and  C_25
                            x       y       z     vdW  Elec       q    Type
                         _______ _______ _______ _____ _____    ______ ____

>  <TORSDO>
F 9

$$$$
=
 OpenBabel11062420153D

 25 27  0  0  1  0  0  0  0  0999 V2000
  191.3050  176.4230  143.7590 C   0  0  0  0  0  2  0  0  0  0  0  0
  189.4440  177.2760  145.0800 C   0  0  1  0  0  3  0  0  0  0  0  0
  190.3070  177.0490  142.7960 C   0  0  0  0  0  2  0  0  0  0  0  0
  190.9240  176.9190  145.1460 C   0  0  1  0  0  3  0  0  0  0  0  0
  189.3180  177.8210  143.6590 C   0  0  1  0  0  3  0  0  0  0  0  0
  185.6550  178.9050  143.2980 C   0  0  0  0  0  2  0  0  0  0  0  0
  186.1590  177.3030  141.4810 C   0  0  0  0  0  2  0  0  0  0  0  0
  185.1630  177.6510  142.5840 C   0  0  0  0  0  2  0  0  0  0  0  0
  187.5520  177.2040  142.0310 C   0  0  0  0  0  3  0  0  0  0  0  0
  186.9830  178.7030  143.7860 O   0  0  0  0  0  0  0  0  0  0  0  0
  187.9220  177.9160  143.1050 C   0  0  0  0  0  0  0  0  0  0  0  0
  188.5510  176.0460  145.3170 C   0  0  0  0  0  2  0  0  0  0  0  0
  187.9690  176.0480  146.7240 C   0  0  0  0  0  2  0  0  0  0  0  0
  185.9400  179.0460  147.6080 C   0  0  0  0  0  3  0  0  0  0  0  0
  185.5830  176.6600  146.2830 C   0  0  0  0  0  3  0  0  0  0  0  0
  184.7280  178.7380  147.0790 N   0  0  0  0  0  0  0  0  0  0  0  0
  186.9780  178.1770  147.4820 N   0  0  0  0  0  0  0  0  0  0  0  0
  186.8240  176.9970  146.8270 C   0  0  0  0  0  0  0  0  0  0  0  0
  184.5320  177.5650  146.4220 C   0  0  0  0  0  3  0  0  0  0  0  0
  191.2900  175.9280  146.2460 C   0  0  0  0  0  2  0  0  0  0  0  0
  192.4900  176.4240  147.0270 C   0  0  0  0  0  2  0  0  0  0  0  0
  193.7440  175.7460  146.5110 C   0  0  0  0  0  2  0  0  0  0  0  0
  194.6580  176.7590  145.8390 C   0  0  0  0  0  2  0  0  0  0  0  0
  194.8460  176.4480  144.3880 C   0  0  0  0  0  3  0  0  0  0  0  0
  195.0630  175.1990  143.9820 C   0  0  0  0  0  2  0  0  0  0  0  0
  1  4  1  0  0  0  0
  2  4  1  0  0  0  0
  2 12  1  6  0  0  0
  3  5  1  0  0  0  0
  3  1  1  0  0  0  0
  4 20  1  1  0  0  0
  5 11  1  6  0  0  0
  5  2  1  0  0  0  0
  6 10  1  0  0  0  0
  7  9  1  0  0  0  0
  7  8  1  0  0  0  0
  8  6  1  0  0  0  0
  9 11  2  0  0  0  0
 11 10  1  0  0  0  0
 12 13  1  0  0  0  0
 13 18  1  0  0  0  0
 15 19  2  0  0  0  0
 15 18  1  0  0  0  0
 16 14  2  0  0  0  0
 17 14  1  0  0  0  0
 18 17  2  0  0  0  0
 19 16  1  0  0  0  0
 20 21  1  0  0  0  0
 22 21  1  0  0  0  0
 23 22  1  0  0  0  0
 24 23  1  0  0  0  0
 25 24  2  0  0  0  0
M  END
>  <MODEL>
6

>  <REMARK>
 VINA RESULT:      -5.8      2.179      6.229
  Name = 
  9 active torsions:
  status: ('A' for Active; 'I' for Inactive)
    1  A    between atoms: C_1  and  C_14
    2  A    between atoms: C_7  and  C_14
    3  A    between atoms: C_7  and  C_19
    4  A    between atoms: C_8  and  C_10
    5  A    between atoms: C_8  and  C_15
    6  A    between atoms: C_10  and  C_13
    7  A    between atoms: C_17  and  C_20
    8  A    between atoms: C_19  and  C_20
    9  A    between atoms: C_21  and  C_25
                            x       y       z     vdW  Elec       q    Type
                         _______ _______ _______ _____ _____    ______ ____

>  <TORSDO>
F 9

$$$$
=
 OpenBabel11062420153D

 25 27  0  0  1  0  0  0  0  0999 V2000
  190.2920  175.3010  147.6150 C   0  0  0  0  0  2  0  0  0  0  0  0
  191.0240  176.4350  145.5870 C   0  0  1  0  0  3  0  0  0  0  0  0
  191.8120  175.3600  147.6450 C   0  0  0  0  0  2  0  0  0  0  0  0
  189.8500  176.2910  146.5470 C   0  0  1  0  0  3  0  0  0  0  0  0
  192.2170  176.3180  146.5320 C   0  0  1  0  0  3  0  0  0  0  0  0
  195.3390  176.7860  144.3510 C   0  0  0  0  0  2  0  0  0  0  0  0
  195.5310  174.6010  145.4980 C   0  0  0  0  0  2  0  0  0  0  0  0
  195.6440  175.3060  144.1490 C   0  0  0  0  0  2  0  0  0  0  0  0
  194.2030  174.8840  146.1390 C   0  0  0  0  0  3  0  0  0  0  0  0
  194.0550  176.9430  144.9590 O   0  0  0  0  0  0  0  0  0  0  0  0
  193.5470  176.0280  145.8920 C   0  0  0  0  0  0  0  0  0  0  0  0
  191.0180  175.3340  144.5120 C   0  0  0  0  0  2  0  0  0  0  0  0
  191.1800  175.9210  143.1170 C   0  0  0  0  0  2  0  0  0  0  0  0
  188.4930  178.2620  142.0260 C   0  0  0  0  0  3  0  0  0  0  0  0
  188.8520  175.5450  142.2790 C   0  0  0  0  0  3  0  0  0  0  0  0
  187.4850  177.4100  141.7030 N   0  0  0  0  0  0  0  0  0  0  0  0
  189.6800  177.7730  142.4730 N   0  0  0  0  0  0  0  0  0  0  0  0
  189.8790  176.4350  142.6000 C   0  0  0  0  0  0  0  0  0  0  0  0
  187.6430  176.0660  141.8220 C   0  0  0  0  0  3  0  0  0  0  0  0
  188.5330  175.8970  145.8870 C   0  0  0  0  0  2  0  0  0  0  0  0
  187.6700  177.1210  145.6550 C   0  0  0  0  0  2  0  0  0  0  0  0
  186.2970  176.8910  146.2570 C   0  0  0  0  0  2  0  0  0  0  0  0
  185.2810  177.8410  145.6410 C   0  0  0  0  0  2  0  0  0  0  0  0
  185.9500  179.0220  145.0120 C   0  0  0  0  0  3  0  0  0  0  0  0
  185.4150  179.6220  143.9500 C   0  0  0  0  0  2  0  0  0  0  0  0
  1  3  1  0  0  0  0
  2 12  1  6  0  0  0
  2  5  1  0  0  0  0
  2  4  1  0  0  0  0
  4 20  1  6  0  0  0
  4  1  1  0  0  0  0
  5 11  1  6  0  0  0
  5  3  1  0  0  0  0
  6 10  1  0  0  0  0
  7  9  1  0  0  0  0
  8  6  1  0  0  0  0
  8  7  1  0  0  0  0
 10 11  1  0  0  0  0
 11  9  2  0  0  0  0
 13 12  1  0  0  0  0
 14 17  1  0  0  0  0
 15 18  1  0  0  0  0
 16 19  1  0  0  0  0
 16 14  2  0  0  0  0
 17 18  2  0  0  0  0
 18 13  1  0  0  0  0
 19 15  2  0  0  0  0
 21 20  1  0  0  0  0
 21 22  1  0  0  0  0
 23 22  1  0  0  0  0
 24 23  1  0  0  0  0
 25 24  2  0  0  0  0
M  END
>  <MODEL>
7

>  <REMARK>
 VINA RESULT:      -5.7      2.394      4.950
  Name = 
  9 active torsions:
  status: ('A' for Active; 'I' for Inactive)
    1  A    between atoms: C_1  and  C_14
    2  A    between atoms: C_7  and  C_14
    3  A    between atoms: C_7  and  C_19
    4  A    between atoms: C_8  and  C_10
    5  A    between atoms: C_8  and  C_15
    6  A    between atoms: C_10  and  C_13
    7  A    between atoms: C_17  and  C_20
    8  A    between atoms: C_19  and  C_20
    9  A    between atoms: C_21  and  C_25
                            x       y       z     vdW  Elec       q    Type
                         _______ _______ _______ _____ _____    ______ ____

>  <TORSDO>
F 9

$$$$
=
 OpenBabel11062420153D

 25 27  0  0  1  0  0  0  0  0999 V2000
  190.7750  176.2800  146.3020 C   0  0  0  0  0  2  0  0  0  0  0  0
  188.8600  176.3160  144.7960 C   0  0  1  0  0  3  0  0  0  0  0  0
  189.5300  176.4960  147.1490 C   0  0  0  0  0  2  0  0  0  0  0  0
  190.2870  175.8010  144.9430 C   0  0  1  0  0  3  0  0  0  0  0  0
  188.3450  176.2220  146.2310 C   0  0  1  0  0  3  0  0  0  0  0  0
  184.6450  177.2370  146.2580 C   0  0  0  0  0  2  0  0  0  0  0  0
  185.9010  178.8940  147.6000 C   0  0  0  0  0  2  0  0  0  0  0  0
  184.8670  178.7280  146.4900 C   0  0  0  0  0  2  0  0  0  0  0  0
  187.1470  178.1180  147.2900 C   0  0  0  0  0  3  0  0  0  0  0  0
  185.8890  176.5960  145.9660 O   0  0  0  0  0  0  0  0  0  0  0  0
  187.1000  177.0050  146.5430 C   0  0  0  0  0  0  0  0  0  0  0  0
  188.8280  177.7560  144.2570 C   0  0  0  0  0  2  0  0  0  0  0  0
  188.7490  177.7760  142.7360 C   0  0  0  0  0  2  0  0  0  0  0  0
  185.7240  177.8360  140.5610 C   0  0  0  0  0  3  0  0  0  0  0  0
  186.3950  178.5210  143.1410 C   0  0  0  0  0  3  0  0  0  0  0  0
  184.7860  178.3650  141.3890 N   0  0  0  0  0  0  0  0  0  0  0  0
  186.9940  177.6440  141.0060 N   0  0  0  0  0  0  0  0  0  0  0  0
  187.3430  177.9700  142.2770 C   0  0  0  0  0  0  0  0  0  0  0  0
  185.0980  178.7100  142.6650 C   0  0  0  0  0  3  0  0  0  0  0  0
  191.2240  176.1960  143.8070 C   0  0  0  0  0  2  0  0  0  0  0  0
  192.3740  177.0290  144.3370 C   0  0  0  0  0  2  0  0  0  0  0  0
  193.6800  176.2920  144.1070 C   0  0  0  0  0  2  0  0  0  0  0  0
  194.4390  176.1370  145.4160 C   0  0  0  0  0  2  0  0  0  0  0  0
  194.6330  174.6960  145.7680 C   0  0  0  0  0  3  0  0  0  0  0  0
  193.6270  173.8300  145.6690 C   0  0  0  0  0  2  0  0  0  0  0  0
  1  3  1  0  0  0  0
  2 12  1  1  0  0  0
  2  4  1  0  0  0  0
  2  5  1  0  0  0  0
  4 20  1  6  0  0  0
  4  1  1  0  0  0  0
  5 11  1  6  0  0  0
  5  3  1  0  0  0  0
  6  8  1  0  0  0  0
  8  7  1  0  0  0  0
  9  7  1  0  0  0  0
 10  6  1  0  0  0  0
 10 11  1  0  0  0  0
 11  9  2  0  0  0  0
 13 12  1  0  0  0  0
 14 17  2  0  0  0  0
 14 16  1  0  0  0  0
 16 19  2  0  0  0  0
 17 18  1  0  0  0  0
 18 13  1  0  0  0  0
 18 15  2  0  0  0  0
 19 15  1  0  0  0  0
 20 21  1  0  0  0  0
 22 21  1  0  0  0  0
 22 23  1  0  0  0  0
 23 24  1  0  0  0  0
 25 24  2  0  0  0  0
M  END
>  <MODEL>
8

>  <REMARK>
 VINA RESULT:      -5.6      2.676      7.019
  Name = 
  9 active torsions:
  status: ('A' for Active; 'I' for Inactive)
    1  A    between atoms: C_1  and  C_14
    2  A    between atoms: C_7  and  C_14
    3  A    between atoms: C_7  and  C_19
    4  A    between atoms: C_8  and  C_10
    5  A    between atoms: C_8  and  C_15
    6  A    between atoms: C_10  and  C_13
    7  A    between atoms: C_17  and  C_20
    8  A    between atoms: C_19  and  C_20
    9  A    between atoms: C_21  and  C_25
                            x       y       z     vdW  Elec       q    Type
                         _______ _______ _______ _____ _____    ______ ____

>  <TORSDO>
F 9

$$$$
=
 OpenBabel11062420153D

 25 27  0  0  1  0  0  0  0  0999 V2000
  190.9970  176.5920  145.9600 C   0  0  0  0  0  2  0  0  0  0  0  0
  188.9700  176.4220  144.6170 C   0  0  1  0  0  3  0  0  0  0  0  0
  189.8090  176.7280  146.9010 C   0  0  0  0  0  2  0  0  0  0  0  0
  190.4440  176.0330  144.6570 C   0  0  1  0  0  3  0  0  0  0  0  0
  188.5830  176.3270  146.0910 C   0  0  1  0  0  3  0  0  0  0  0  0
  184.8290  177.0880  146.3130 C   0  0  0  0  0  2  0  0  0  0  0  0
  186.0300  178.7730  147.6690 C   0  0  0  0  0  2  0  0  0  0  0  0
  184.9620  178.5800  146.5970 C   0  0  0  0  0  2  0  0  0  0  0  0
  187.3100  178.0950  147.2770 C   0  0  0  0  0  3  0  0  0  0  0  0
  186.0980  176.5440  145.9430 O   0  0  0  0  0  0  0  0  0  0  0  0
  187.3030  177.0120  146.4860 C   0  0  0  0  0  0  0  0  0  0  0  0
  188.7710  177.8370  144.0490 C   0  0  0  0  0  2  0  0  0  0  0  0
  188.5900  177.8060  142.5370 C   0  0  0  0  0  2  0  0  0  0  0  0
  185.4560  177.9680  140.5290 C   0  0  0  0  0  3  0  0  0  0  0  0
  186.2480  178.4660  143.1170 C   0  0  0  0  0  3  0  0  0  0  0  0
  184.5530  178.4100  141.4420 N   0  0  0  0  0  0  0  0  0  0  0  0
  186.7500  177.7700  140.8930 N   0  0  0  0  0  0  0  0  0  0  0  0
  187.1600  178.0050  142.1660 C   0  0  0  0  0  0  0  0  0  0  0  0
  184.9250  178.6620  142.7240 C   0  0  0  0  0  3  0  0  0  0  0  0
  191.2500  176.4710  143.4390 C   0  0  0  0  0  2  0  0  0  0  0  0
  191.6320  175.2700  142.5980 C   0  0  0  0  0  2  0  0  0  0  0  0
  191.1250  174.0050  143.2640 C   0  0  0  0  0  2  0  0  0  0  0  0
  190.3230  173.1700  142.2770 C   0  0  0  0  0  2  0  0  0  0  0  0
  188.8570  173.2440  142.5650 C   0  0  0  0  0  3  0  0  0  0  0  0
  188.0850  174.1360  141.9470 C   0  0  0  0  0  2  0  0  0  0  0  0
  1  3  1  0  0  0  0
  2 12  1  1  0  0  0
  2  4  1  0  0  0  0
  2  5  1  0  0  0  0
  4 20  1  6  0  0  0
  4  1  1  0  0  0  0
  5 11  1  6  0  0  0
  5  3  1  0  0  0  0
  6  8  1  0  0  0  0
  8  7  1  0  0  0  0
  9  7  1  0  0  0  0
 10  6  1  0  0  0  0
 10 11  1  0  0  0  0
 11  9  2  0  0  0  0
 13 12  1  0  0  0  0
 14 17  2  0  0  0  0
 14 16  1  0  0  0  0
 16 19  2  0  0  0  0
 17 18  1  0  0  0  0
 18 13  1  0  0  0  0
 18 15  2  0  0  0  0
 19 15  1  0  0  0  0
 21 22  1  0  0  0  0
 21 20  1  0  0  0  0
 23 24  1  0  0  0  0
 23 22  1  0  0  0  0
 25 24  2  0  0  0  0
M  END
>  <MODEL>
9

>  <REMARK>
 VINA RESULT:      -5.6      2.721      6.632
  Name = 
  9 active torsions:
  status: ('A' for Active; 'I' for Inactive)
    1  A    between atoms: C_1  and  C_14
    2  A    between atoms: C_7  and  C_14
    3  A    between atoms: C_7  and  C_19
    4  A    between atoms: C_8  and  C_10
    5  A    between atoms: C_8  and  C_15
    6  A    between atoms: C_10  and  C_13
    7  A    between atoms: C_17  and  C_20
    8  A    between atoms: C_19  and  C_20
    9  A    between atoms: C_21  and  C_25
                            x       y       z     vdW  Elec       q    Type
                         _______ _______ _______ _____ _____    ______ ____

>  <TORSDO>
F 9

$$$$
