=
 OpenBabel11072409043D

 47 54  0  0  1  0  0  0  0  0999 V2000
  191.7870  174.9450  144.8560 F   0  0  0  0  0  0  0  0  0  0  0  0
  192.3590  175.5340  145.9780 C   0  0  0  0  0  0  0  0  0  0  0  0
  192.7880  174.5210  146.8210 F   0  0  0  0  0  0  0  0  0  0  0  0
  194.2660  176.7740  146.6990 O   0  0  0  0  0  1  0  0  0  0  0  0
  193.1660  177.4990  144.8670 F   0  0  0  0  0  0  0  0  0  0  0  0
  193.5830  176.3670  145.5490 C   0  0  2  0  0  0  0  0  0  0  0  0
  197.3800  174.1370  140.9880 C   0  0  0  0  0  2  0  0  0  0  0  0
  197.2480  173.5340  142.3940 C   0  0  0  0  0  2  0  0  0  0  0  0
  196.7800  174.5460  143.4550 C   0  0  2  0  0  3  0  0  0  0  0  0
  195.4660  174.8520  145.4610 O   0  0  0  0  0  0  0  0  0  0  0  0
  196.0580  173.8700  144.6380 C   0  0  2  0  0  3  0  0  0  0  0  0
  195.2550  176.4050  143.7910 O   0  0  0  0  0  0  0  0  0  0  0  0
  195.8210  175.5640  142.8180 C   0  0  1  0  0  3  0  0  0  0  0  0
  196.5350  176.3990  141.7500 C   0  0  0  0  0  2  0  0  0  0  0  0
  194.5460  175.5610  144.6650 C   0  0  2  0  0  3  0  0  0  0  0  0
  197.6650  175.6370  141.0430 C   0  0  0  0  0  2  0  0  0  0  0  0
  197.0340  173.0330  145.4720 C   0  0  1  0  0  3  0  0  0  0  0  0
  197.3620  173.7010  146.6560 O   0  0  0  0  0  1  0  0  0  0  0  0
  196.4240  171.6820  145.8200 C   0  0  0  0  0  2  0  0  0  0  0  0
  194.1300  169.5730  145.1570 N   0  0  0  0  0  0  0  0  0  0  0  0
  194.0780  171.0370  145.3590 C   0  0  1  0  0  3  0  0  0  0  0  0
  193.2760  169.0900  144.0740 C   0  0  0  0  0  1  0  0  0  0  0  0
  195.4580  169.7450  144.5850 C   0  0  0  0  0  2  0  0  0  0  0  0
  195.4390  171.2530  144.7440 C   0  0  2  0  0  3  0  0  0  0  0  0
  193.5660  172.3820  143.4420 O   0  0  0  0  0  1  0  0  0  0  0  0
  192.9990  171.7910  144.5720 C   0  0  0  0  0  2  0  0  0  0  0  0
  190.9270  175.7230  147.8660 O   0  0  0  0  0  0  0  0  0  0  0  0
  191.3400  176.3850  146.7530 C   0  0  2  0  0  3  0  0  0  0  0  0
  190.0430  175.7530  146.7990 N   0  0  0  0  0  0  0  0  0  0  0  0
  189.0780  176.7970  147.0890 C   0  0  0  0  0  2  0  0  0  0  0  0
  187.8540  176.6160  146.2010 C   0  0  2  0  0  3  0  0  0  0  0  0
  187.5900  177.9050  145.4350 C   0  0  2  0  0  3  0  0  0  0  0  0
  186.9460  178.3100  147.6930 O   0  0  0  0  0  1  0  0  0  0  0  0
  186.6750  177.5080  146.5810 C   0  0  2  0  0  3  0  0  0  0  0  0
  185.6660  178.2580  143.7370 C   0  0  0  0  0  2  0  0  0  0  0  0
  186.9980  177.5920  144.0480 C   0  0  0  0  0  0  0  0  0  0  0  0
  185.7050  176.8090  144.1920 C   0  0  0  0  0  2  0  0  0  0  0  0
  188.9590  174.7900  143.2550 C   0  0  0  0  0  3  0  0  0  0  0  0
  187.5140  176.7290  140.4910 N   0  0  0  0  0  2  0  0  0  0  0  0
  189.3050  177.6900  143.0160 C   0  0  0  0  0  1  0  0  0  0  0  0
  187.8840  177.1560  142.8430 C   0  0  2  0  0  0  0  0  0  0  0  0
  189.4940  173.7610  142.5850 C   0  0  0  0  0  3  0  0  0  0  0  0
  187.3060  177.7310  141.5280 C   0  0  0  0  0  2  0  0  0  0  0  0
  187.9200  175.5340  141.1180 C   0  0  0  0  0  0  0  0  0  0  0  0
  188.4900  174.5150  140.4810 C   0  0  0  0  0  3  0  0  0  0  0  0
  187.8930  175.6300  142.5920 C   0  0  1  0  0  3  0  0  0  0  0  0
  189.1650  173.5400  141.2330 O   0  0  0  0  0  0  0  0  0  0  0  0
  1  2  1  0  0  0  0
  2  3  1  0  0  0  0
  6  5  1  6  0  0  0
  6  2  1  0  0  0  0
  6  4  1  0  0  0  0
  7 16  1  0  0  0  0
  7  8  1  0  0  0  0
  9  8  1  6  0  0  0
  9 11  1  0  0  0  0
 11 10  1  0  0  0  0
 11 17  1  1  0  0  0
 12 15  1  0  0  0  0
 13 14  1  6  0  0  0
 13  9  1  0  0  0  0
 13 12  1  0  0  0  0
 15 10  1  0  0  0  0
 15  6  1  1  0  0  0
 16 14  1  0  0  0  0
 17 19  1  0  0  0  0
 17 18  1  1  0  0  0
 20 21  1  0  0  0  0
 21 26  1  6  0  0  0
 22 20  1  0  0  0  0
 23 24  1  0  0  0  0
 23 20  1  0  0  0  0
 24 21  1  0  0  0  0
 24 19  1  1  0  0  0
 25 26  1  0  0  0  0
 28  2  1  6  0  0  0
 28 29  1  0  0  0  0
 28 27  1  0  0  0  0
 29 30  1  0  0  0  0
 29 27  1  0  0  0  0
 31 34  1  0  0  0  0
 31 30  1  1  0  0  0
 32 36  1  6  0  0  0
 32 31  1  0  0  0  0
 32 34  1  0  0  0  0
 34 33  1  1  0  0  0
 35 36  1  0  0  0  0
 35 37  1  0  0  0  0
 36 37  1  0  0  0  0
 39 44  1  0  0  0  0
 39 43  1  0  0  0  0
 41 40  1  1  0  0  0
 41 36  1  0  0  0  0
 42 38  2  0  0  0  0
 43 41  1  0  0  0  0
 44 46  1  0  0  0  0
 45 44  2  0  0  0  0
 45 47  1  0  0  0  0
 46 41  1  0  0  0  0
 46 38  1  1  0  0  0
 47 42  1  0  0  0  0
M  END
>  <MODEL>
1

>  <REMARK>
 VINA RESULT:      -8.1      0.000      0.000
  Name = 
  11 active torsions:
  status: ('A' for Active; 'I' for Inactive)
    1  A    between atoms: C_1  and  C_7
    2  A    between atoms: C_1  and  C_47
    3  A    between atoms: C_7  and  C_24
    4  A    between atoms: C_11  and  C_41
    5  A    between atoms: C_14  and  C_40
    6  A    between atoms: C_15  and  C_23
    7  A    between atoms: C_15  and  C_28
    8  A    between atoms: C_20  and  C_21
    9  A    between atoms: C_20  and  C_22
   10  A    between atoms: N_26  and  C_40
   11  A    between atoms: C_28  and  C_38
                            x       y       z     vdW  Elec       q    Type
                         _______ _______ _______ _____ _____    ______ ____

>  <TORSDO>
F 11

$$$$
=
 OpenBabel11072409043D

 47 54  0  0  1  0  0  0  0  0999 V2000
  190.8430  174.8660  145.1010 F   0  0  0  0  0  0  0  0  0  0  0  0
  191.2210  175.2570  146.3810 C   0  0  0  0  0  0  0  0  0  0  0  0
  191.9060  174.2030  146.9650 F   0  0  0  0  0  0  0  0  0  0  0  0
  192.5550  176.8320  147.5780 O   0  0  0  0  0  1  0  0  0  0  0  0
  191.5100  177.5400  145.7070 F   0  0  0  0  0  0  0  0  0  0  0  0
  192.1710  176.4670  146.2840 C   0  0  2  0  0  0  0  0  0  0  0  0
  197.8510  174.6010  144.1730 C   0  0  0  0  0  2  0  0  0  0  0  0
  196.7040  175.1020  143.2830 C   0  0  0  0  0  2  0  0  0  0  0  0
  195.3110  174.9090  143.9100 C   0  0  2  0  0  3  0  0  0  0  0  0
  193.0920  175.8430  144.1370 O   0  0  0  0  0  0  0  0  0  0  0  0
  194.2790  175.9230  143.3770 C   0  0  2  0  0  3  0  0  0  0  0  0
  194.1230  175.0490  146.0220 O   0  0  0  0  0  0  0  0  0  0  0  0
  195.4000  175.0640  145.4360 C   0  0  1  0  0  3  0  0  0  0  0  0
  196.2740  173.9650  146.0500 C   0  0  0  0  0  2  0  0  0  0  0  0
  193.4330  176.1440  145.4700 C   0  0  2  0  0  3  0  0  0  0  0  0
  197.3900  173.4850  145.1100 C   0  0  0  0  0  2  0  0  0  0  0  0
  193.9540  175.6550  141.9030 C   0  0  1  0  0  3  0  0  0  0  0  0
  194.8560  176.3300  141.0750 O   0  0  0  0  0  1  0  0  0  0  0  0
  194.0250  174.1650  141.5990 C   0  0  0  0  0  2  0  0  0  0  0  0
  192.4740  171.3840  141.4940 N   0  0  0  0  0  0  0  0  0  0  0  0
  193.0140  172.1550  142.6330 C   0  0  1  0  0  3  0  0  0  0  0  0
  191.1730  170.7710  141.7510 C   0  0  0  0  0  1  0  0  0  0  0  0
  192.2040  172.6490  140.8240 C   0  0  0  0  0  2  0  0  0  0  0  0
  192.7200  173.4830  141.9810 C   0  0  2  0  0  3  0  0  0  0  0  0
  193.1560  172.0810  145.0250 O   0  0  0  0  0  1  0  0  0  0  0  0
  192.2560  172.0210  143.9600 C   0  0  0  0  0  2  0  0  0  0  0  0
  189.2020  174.4710  147.3570 O   0  0  0  0  0  0  0  0  0  0  0  0
  190.0000  175.5660  147.2630 C   0  0  2  0  0  3  0  0  0  0  0  0
  188.7680  175.4830  146.5160 N   0  0  0  0  0  0  0  0  0  0  0  0
  187.7780  176.2420  147.2560 C   0  0  0  0  0  2  0  0  0  0  0  0
  186.6260  176.6100  146.3300 C   0  0  2  0  0  3  0  0  0  0  0  0
  186.6740  178.1010  146.0320 C   0  0  2  0  0  3  0  0  0  0  0  0
  185.9150  177.8800  148.2800 O   0  0  0  0  0  1  0  0  0  0  0  0
  185.6020  177.5520  146.9580 C   0  0  2  0  0  3  0  0  0  0  0  0
  185.4740  179.7220  144.4060 C   0  0  0  0  0  2  0  0  0  0  0  0
  186.1620  178.3790  144.6060 C   0  0  0  0  0  0  0  0  0  0  0  0
  184.6450  178.4630  144.5980 C   0  0  0  0  0  2  0  0  0  0  0  0
  189.3790  178.0430  143.2430 C   0  0  0  0  0  3  0  0  0  0  0  0
  186.9110  175.4230  142.5160 N   0  0  0  0  0  2  0  0  0  0  0  0
  186.7250  178.6390  142.1550 C   0  0  0  0  0  1  0  0  0  0  0  0
  186.7740  177.6890  143.3510 C   0  0  2  0  0  0  0  0  0  0  0  0
  190.4780  177.5090  142.6940 C   0  0  0  0  0  3  0  0  0  0  0  0
  185.9630  176.4210  142.9970 C   0  0  0  0  0  2  0  0  0  0  0  0
  188.2110  175.8910  142.7950 C   0  0  0  0  0  0  0  0  0  0  0  0
  189.3130  175.4040  142.2320 C   0  0  0  0  0  3  0  0  0  0  0  0
  188.2060  177.1490  143.5690 C   0  0  1  0  0  3  0  0  0  0  0  0
  190.4970  176.1560  142.3040 O   0  0  0  0  0  0  0  0  0  0  0  0
  1  2  1  0  0  0  0
  2  3  1  0  0  0  0
  6  5  1  6  0  0  0
  6  2  1  0  0  0  0
  6  4  1  0  0  0  0
  7 16  1  0  0  0  0
  8  7  1  0  0  0  0
  9  8  1  6  0  0  0
  9 13  1  0  0  0  0
 10 15  1  0  0  0  0
 11 17  1  6  0  0  0
 11  9  1  0  0  0  0
 11 10  1  0  0  0  0
 13 12  1  0  0  0  0
 13 14  1  1  0  0  0
 15 12  1  0  0  0  0
 15  6  1  1  0  0  0
 16 14  1  0  0  0  0
 17 18  1  6  0  0  0
 19 17  1  0  0  0  0
 20 22  1  0  0  0  0
 20 21  1  0  0  0  0
 21 26  1  1  0  0  0
 23 20  1  0  0  0  0
 23 24  1  0  0  0  0
 24 19  1  6  0  0  0
 24 21  1  0  0  0  0
 26 25  1  0  0  0  0
 28  2  1  6  0  0  0
 28 27  1  0  0  0  0
 29 30  1  0  0  0  0
 29 28  1  0  0  0  0
 29 27  1  0  0  0  0
 31 34  1  0  0  0  0
 31 30  1  1  0  0  0
 32 36  1  6  0  0  0
 32 31  1  0  0  0  0
 32 34  1  0  0  0  0
 34 33  1  1  0  0  0
 35 37  1  0  0  0  0
 35 36  1  0  0  0  0
 37 36  1  0  0  0  0
 39 44  1  0  0  0  0
 39 43  1  0  0  0  0
 41 40  1  6  0  0  0
 41 46  1  0  0  0  0
 41 36  1  0  0  0  0
 42 38  2  0  0  0  0
 43 41  1  0  0  0  0
 44 46  1  0  0  0  0
 45 47  1  0  0  0  0
 45 44  2  0  0  0  0
 46 38  1  6  0  0  0
 47 42  1  0  0  0  0
M  END
>  <MODEL>
2

>  <REMARK>
 VINA RESULT:      -8.0      1.909      2.939
  Name = 
  11 active torsions:
  status: ('A' for Active; 'I' for Inactive)
    1  A    between atoms: C_1  and  C_7
    2  A    between atoms: C_1  and  C_47
    3  A    between atoms: C_7  and  C_24
    4  A    between atoms: C_11  and  C_41
    5  A    between atoms: C_14  and  C_40
    6  A    between atoms: C_15  and  C_23
    7  A    between atoms: C_15  and  C_28
    8  A    between atoms: C_20  and  C_21
    9  A    between atoms: C_20  and  C_22
   10  A    between atoms: N_26  and  C_40
   11  A    between atoms: C_28  and  C_38
                            x       y       z     vdW  Elec       q    Type
                         _______ _______ _______ _____ _____    ______ ____

>  <TORSDO>
F 11

$$$$
=
 OpenBabel11072409043D

 47 54  0  0  1  0  0  0  0  0999 V2000
  193.6030  177.2400  145.0320 F   0  0  0  0  0  0  0  0  0  0  0  0
  193.6810  176.4670  146.1850 C   0  0  0  0  0  0  0  0  0  0  0  0
  194.0230  177.3010  147.2380 F   0  0  0  0  0  0  0  0  0  0  0  0
  191.5860  176.7250  147.2970 O   0  0  0  0  0  1  0  0  0  0  0  0
  192.4590  174.6480  147.1580 F   0  0  0  0  0  0  0  0  0  0  0  0
  192.3020  175.8460  146.4780 C   0  0  2  0  0  0  0  0  0  0  0  0
  189.1280  173.4640  141.5340 C   0  0  0  0  0  2  0  0  0  0  0  0
  189.1940  174.9540  141.9000 C   0  0  0  0  0  2  0  0  0  0  0  0
  189.4750  175.2070  143.3920 C   0  0  2  0  0  3  0  0  0  0  0  0
  190.5790  176.6530  144.9850 O   0  0  0  0  0  0  0  0  0  0  0  0
  190.1520  176.5700  143.6420 C   0  0  2  0  0  3  0  0  0  0  0  0
  190.7890  174.3890  145.2620 O   0  0  0  0  0  0  0  0  0  0  0  0
  190.3880  174.1030  143.9460 C   0  0  1  0  0  3  0  0  0  0  0  0
  189.6930  172.7370  143.8930 C   0  0  0  0  0  2  0  0  0  0  0  0
  191.4960  175.6040  145.1930 C   0  0  2  0  0  3  0  0  0  0  0  0
  188.7020  172.6090  142.7270 C   0  0  0  0  0  2  0  0  0  0  0  0
  189.1890  177.7260  143.3450 C   0  0  1  0  0  3  0  0  0  0  0  0
  189.3240  178.1440  142.0180 O   0  0  0  0  0  1  0  0  0  0  0  0
  187.7480  177.3000  143.5850 C   0  0  0  0  0  2  0  0  0  0  0  0
  185.1590  177.5630  145.4240 N   0  0  0  0  0  0  0  0  0  0  0  0
  186.4110  176.8010  145.6090 C   0  0  1  0  0  3  0  0  0  0  0  0
  184.6610  178.1980  146.6420 C   0  0  0  0  0  1  0  0  0  0  0  0
  185.9340  178.5770  144.7220 C   0  0  0  0  0  2  0  0  0  0  0  0
  187.2480  177.8460  144.9140 C   0  0  2  0  0  3  0  0  0  0  0  0
  188.0170  175.8020  147.0830 O   0  0  0  0  0  1  0  0  0  0  0  0
  186.8770  176.6060  147.0580 C   0  0  0  0  0  2  0  0  0  0  0  0
  195.7210  175.7760  145.1770 O   0  0  0  0  0  0  0  0  0  0  0  0
  194.7730  175.3900  146.0710 C   0  0  2  0  0  3  0  0  0  0  0  0
  194.8190  174.8150  144.7480 N   0  0  0  0  0  0  0  0  0  0  0  0
  195.4900  173.5340  144.8710 C   0  0  0  0  0  2  0  0  0  0  0  0
  195.1040  172.6460  143.6950 C   0  0  2  0  0  3  0  0  0  0  0  0
  193.6000  172.7230  143.4760 C   0  0  2  0  0  3  0  0  0  0  0  0
  193.9360  171.4230  145.4440 O   0  0  0  0  0  1  0  0  0  0  0  0
  194.2110  171.4670  144.0740 C   0  0  2  0  0  3  0  0  0  0  0  0
  192.3040  171.4630  141.6210 C   0  0  0  0  0  2  0  0  0  0  0  0
  193.2690  172.5830  141.9780 C   0  0  0  0  0  0  0  0  0  0  0  0
  193.8000  171.2650  141.4420 C   0  0  0  0  0  2  0  0  0  0  0  0
  195.8650  174.6500  140.8310 C   0  0  0  0  0  3  0  0  0  0  0  0
  192.9830  174.1050  138.6210 N   0  0  0  0  0  2  0  0  0  0  0  0
  193.1040  175.0920  141.7060 C   0  0  0  0  0  1  0  0  0  0  0  0
  193.3870  173.7760  140.9830 C   0  0  2  0  0  0  0  0  0  0  0  0
  196.6740  175.3430  140.0190 C   0  0  0  0  0  3  0  0  0  0  0  0
  192.3550  173.6170  139.8430 C   0  0  0  0  0  2  0  0  0  0  0  0
  194.3540  174.2920  138.8840 C   0  0  0  0  0  0  0  0  0  0  0  0
  195.1690  175.0100  138.1150 C   0  0  0  0  0  3  0  0  0  0  0  0
  194.7390  173.8360  140.2360 C   0  0  1  0  0  3  0  0  0  0  0  0
  196.4050  175.4210  138.6390 O   0  0  0  0  0  0  0  0  0  0  0  0
  1  2  1  0  0  0  0
  2  6  1  0  0  0  0
  2  3  1  0  0  0  0
  6  5  1  1  0  0  0
  6  4  1  0  0  0  0
  7  8  1  0  0  0  0
  7 16  1  0  0  0  0
  9  8  1  6  0  0  0
  9 11  1  0  0  0  0
  9 13  1  0  0  0  0
 10 15  1  0  0  0  0
 11 17  1  1  0  0  0
 11 10  1  0  0  0  0
 13 14  1  1  0  0  0
 13 12  1  0  0  0  0
 15 12  1  0  0  0  0
 15  6  1  1  0  0  0
 16 14  1  0  0  0  0
 17 18  1  6  0  0  0
 17 19  1  0  0  0  0
 20 21  1  0  0  0  0
 20 22  1  0  0  0  0
 21 26  1  1  0  0  0
 23 24  1  0  0  0  0
 23 20  1  0  0  0  0
 24 19  1  6  0  0  0
 24 21  1  0  0  0  0
 26 25  1  0  0  0  0
 27 28  1  0  0  0  0
 28  2  1  6  0  0  0
 29 30  1  0  0  0  0
 29 27  1  0  0  0  0
 29 28  1  0  0  0  0
 31 34  1  0  0  0  0
 31 30  1  1  0  0  0
 32 36  1  6  0  0  0
 32 31  1  0  0  0  0
 32 34  1  0  0  0  0
 34 33  1  1  0  0  0
 35 36  1  0  0  0  0
 37 35  1  0  0  0  0
 37 36  1  0  0  0  0
 39 44  1  0  0  0  0
 39 43  1  0  0  0  0
 41 40  1  1  0  0  0
 41 36  1  0  0  0  0
 42 38  2  0  0  0  0
 43 41  1  0  0  0  0
 44 46  1  0  0  0  0
 45 47  1  0  0  0  0
 45 44  2  0  0  0  0
 46 38  1  1  0  0  0
 46 41  1  0  0  0  0
 47 42  1  0  0  0  0
M  END
>  <MODEL>
3

>  <REMARK>
 VINA RESULT:      -7.9      2.641      7.802
  Name = 
  11 active torsions:
  status: ('A' for Active; 'I' for Inactive)
    1  A    between atoms: C_1  and  C_7
    2  A    between atoms: C_1  and  C_47
    3  A    between atoms: C_7  and  C_24
    4  A    between atoms: C_11  and  C_41
    5  A    between atoms: C_14  and  C_40
    6  A    between atoms: C_15  and  C_23
    7  A    between atoms: C_15  and  C_28
    8  A    between atoms: C_20  and  C_21
    9  A    between atoms: C_20  and  C_22
   10  A    between atoms: N_26  and  C_40
   11  A    between atoms: C_28  and  C_38
                            x       y       z     vdW  Elec       q    Type
                         _______ _______ _______ _____ _____    ______ ____

>  <TORSDO>
F 11

$$$$
=
 OpenBabel11072409043D

 47 54  0  0  1  0  0  0  0  0999 V2000
  189.4830  172.1980  144.0320 F   0  0  0  0  0  0  0  0  0  0  0  0
  189.2670  172.6150  142.7240 C   0  0  0  0  0  0  0  0  0  0  0  0
  187.9210  172.4470  142.4380 F   0  0  0  0  0  0  0  0  0  0  0  0
  188.4190  174.8410  142.5760 O   0  0  0  0  0  1  0  0  0  0  0  0
  190.2890  174.3440  141.4140 F   0  0  0  0  0  0  0  0  0  0  0  0
  189.6120  174.1120  142.6020 C   0  0  2  0  0  0  0  0  0  0  0  0
  194.1740  176.1800  146.4890 C   0  0  0  0  0  2  0  0  0  0  0  0
  192.6830  176.0940  146.8500 C   0  0  0  0  0  2  0  0  0  0  0  0
  191.7510  176.1590  145.6280 C   0  0  2  0  0  3  0  0  0  0  0  0
  189.6780  175.3640  144.6700 O   0  0  0  0  0  0  0  0  0  0  0  0
  190.3980  175.4630  145.8800 C   0  0  2  0  0  3  0  0  0  0  0  0
  191.5380  175.3930  143.3340 O   0  0  0  0  0  0  0  0  0  0  0  0
  192.4240  175.4890  144.4210 C   0  0  1  0  0  3  0  0  0  0  0  0
  193.6890  176.2490  144.0040 C   0  0  0  0  0  2  0  0  0  0  0  0
  190.4640  174.6030  143.7820 C   0  0  2  0  0  3  0  0  0  0  0  0
  194.3930  176.9390  145.1810 C   0  0  0  0  0  2  0  0  0  0  0  0
  189.5620  176.2400  146.9040 C   0  0  1  0  0  3  0  0  0  0  0  0
  189.7590  177.6150  146.7500 O   0  0  0  0  0  1  0  0  0  0  0  0
  188.0810  175.9310  146.7350 C   0  0  0  0  0  2  0  0  0  0  0  0
  185.2130  177.0040  145.8570 N   0  0  0  0  0  0  0  0  0  0  0  0
  186.0050  177.2350  147.0830 C   0  0  1  0  0  3  0  0  0  0  0  0
  184.5210  178.1920  145.3620 C   0  0  0  0  0  1  0  0  0  0  0  0
  186.4650  176.9230  145.1170 C   0  0  0  0  0  2  0  0  0  0  0  0
  187.3190  177.1870  146.3430 C   0  0  2  0  0  3  0  0  0  0  0  0
  187.0090  178.9930  148.3670 O   0  0  0  0  0  1  0  0  0  0  0  0
  185.8140  178.5950  147.7660 C   0  0  0  0  0  2  0  0  0  0  0  0
  190.4070  170.5770  142.2800 O   0  0  0  0  0  0  0  0  0  0  0  0
  190.0660  171.7670  141.7200 C   0  0  2  0  0  3  0  0  0  0  0  0
  191.4120  171.5250  142.1790 N   0  0  0  0  0  0  0  0  0  0  0  0
  192.1970  171.1750  141.0100 C   0  0  0  0  0  2  0  0  0  0  0  0
  193.6470  171.5860  141.2320 C   0  0  2  0  0  3  0  0  0  0  0  0
  193.6900  172.8610  142.0620 C   0  0  2  0  0  3  0  0  0  0  0  0
  192.9550  173.4890  139.8840 O   0  0  0  0  0  1  0  0  0  0  0  0
  194.0220  172.9150  140.5800 C   0  0  2  0  0  3  0  0  0  0  0  0
  195.9470  173.9720  142.6780 C   0  0  0  0  0  2  0  0  0  0  0  0
  194.9370  172.8710  142.9650 C   0  0  0  0  0  0  0  0  0  0  0  0
  196.1810  172.5670  142.1490 C   0  0  0  0  0  2  0  0  0  0  0  0
  194.4820  169.6590  144.3070 C   0  0  0  0  0  3  0  0  0  0  0  0
  196.5430  172.0440  146.1910 N   0  0  0  0  0  2  0  0  0  0  0  0
  193.5410  172.3430  145.0070 C   0  0  0  0  0  1  0  0  0  0  0  0
  194.9370  172.2490  144.3940 C   0  0  2  0  0  0  0  0  0  0  0  0
  194.6590  168.5480  145.0340 C   0  0  0  0  0  3  0  0  0  0  0  0
  195.9200  173.0200  145.3050 C   0  0  0  0  0  2  0  0  0  0  0  0
  196.2140  170.7580  145.7170 C   0  0  0  0  0  0  0  0  0  0  0  0
  196.3420  169.6460  146.4360 C   0  0  0  0  0  3  0  0  0  0  0  0
  195.4660  170.7970  144.4440 C   0  0  1  0  0  3  0  0  0  0  0  0
  195.6710  168.4870  146.0120 O   0  0  0  0  0  0  0  0  0  0  0  0
  2  1  1  0  0  0  0
  3  2  1  0  0  0  0
  4  6  1  0  0  0  0
  6  5  1  6  0  0  0
  6  2  1  0  0  0  0
  7  8  1  0  0  0  0
  9 11  1  0  0  0  0
  9  8  1  1  0  0  0
 10 11  1  0  0  0  0
 11 17  1  1  0  0  0
 12 15  1  0  0  0  0
 12 13  1  0  0  0  0
 13 14  1  6  0  0  0
 13  9  1  0  0  0  0
 14 16  1  0  0  0  0
 15  6  1  6  0  0  0
 15 10  1  0  0  0  0
 16  7  1  0  0  0  0
 17 18  1  6  0  0  0
 19 17  1  0  0  0  0
 20 21  1  0  0  0  0
 21 26  1  6  0  0  0
 22 20  1  0  0  0  0
 23 20  1  0  0  0  0
 23 24  1  0  0  0  0
 24 19  1  1  0  0  0
 24 21  1  0  0  0  0
 26 25  1  0  0  0  0
 28 29  1  0  0  0  0
 28 27  1  0  0  0  0
 28  2  1  1  0  0  0
 29 27  1  0  0  0  0
 30 29  1  0  0  0  0
 31 30  1  6  0  0  0
 31 32  1  0  0  0  0
 32 36  1  1  0  0  0
 34 33  1  6  0  0  0
 34 31  1  0  0  0  0
 34 32  1  0  0  0  0
 35 36  1  0  0  0  0
 36 41  1  0  0  0  0
 37 35  1  0  0  0  0
 37 36  1  0  0  0  0
 38 42  2  0  0  0  0
 41 46  1  0  0  0  0
 41 40  1  1  0  0  0
 41 43  1  0  0  0  0
 42 47  1  0  0  0  0
 43 39  1  0  0  0  0
 44 39  1  0  0  0  0
 44 45  2  0  0  0  0
 46 38  1  1  0  0  0
 46 44  1  0  0  0  0
 47 45  1  0  0  0  0
M  END
>  <MODEL>
4

>  <REMARK>
 VINA RESULT:      -7.8      2.751      8.549
  Name = 
  11 active torsions:
  status: ('A' for Active; 'I' for Inactive)
    1  A    between atoms: C_1  and  C_7
    2  A    between atoms: C_1  and  C_47
    3  A    between atoms: C_7  and  C_24
    4  A    between atoms: C_11  and  C_41
    5  A    between atoms: C_14  and  C_40
    6  A    between atoms: C_15  and  C_23
    7  A    between atoms: C_15  and  C_28
    8  A    between atoms: C_20  and  C_21
    9  A    between atoms: C_20  and  C_22
   10  A    between atoms: N_26  and  C_40
   11  A    between atoms: C_28  and  C_38
                            x       y       z     vdW  Elec       q    Type
                         _______ _______ _______ _____ _____    ______ ____

>  <TORSDO>
F 11

$$$$
=
 OpenBabel11072409043D

 47 54  0  0  1  0  0  0  0  0999 V2000
  189.0800  172.1480  142.4500 F   0  0  0  0  0  0  0  0  0  0  0  0
  189.9390  172.2540  141.3620 C   0  0  0  0  0  0  0  0  0  0  0  0
  189.2850  171.7500  140.2490 F   0  0  0  0  0  0  0  0  0  0  0  0
  189.3120  174.2570  140.2280 O   0  0  0  0  0  1  0  0  0  0  0  0
  191.5140  173.8560  140.5220 F   0  0  0  0  0  0  0  0  0  0  0  0
  190.2640  173.7400  141.1110 C   0  0  2  0  0  0  0  0  0  0  0  0
  191.3170  176.3950  146.7720 C   0  0  0  0  0  2  0  0  0  0  0  0
  190.2650  176.8720  145.7590 C   0  0  0  0  0  2  0  0  0  0  0  0
  190.6010  176.5000  144.3040 C   0  0  2  0  0  3  0  0  0  0  0  0
  189.6880  175.8390  142.1650 O   0  0  0  0  0  0  0  0  0  0  0  0
  189.3440  176.3900  143.4170 C   0  0  2  0  0  3  0  0  0  0  0  0
  191.5210  174.7110  142.9460 O   0  0  0  0  0  0  0  0  0  0  0  0
  191.3400  175.1530  144.2670 C   0  0  1  0  0  3  0  0  0  0  0  0
  192.6930  175.2480  144.9820 C   0  0  0  0  0  2  0  0  0  0  0  0
  190.2300  174.5620  142.4080 C   0  0  2  0  0  3  0  0  0  0  0  0
  192.6980  176.2660  146.1310 C   0  0  0  0  0  2  0  0  0  0  0  0
  188.6990  177.7650  143.2060 C   0  0  1  0  0  3  0  0  0  0  0  0
  189.0810  178.2970  141.9700 O   0  0  0  0  0  1  0  0  0  0  0  0
  187.1810  177.6600  143.2500 C   0  0  0  0  0  2  0  0  0  0  0  0
  184.5080  178.2840  144.8680 N   0  0  0  0  0  0  0  0  0  0  0  0
  185.5440  177.2480  145.0620 C   0  0  1  0  0  3  0  0  0  0  0  0
  184.0150  178.8750  146.1090 C   0  0  0  0  0  1  0  0  0  0  0  0
  185.5540  179.1730  144.3790 C   0  0  0  0  0  2  0  0  0  0  0  0
  186.6550  178.1520  144.5900 C   0  0  2  0  0  3  0  0  0  0  0  0
  187.0750  177.1540  146.9040 O   0  0  0  0  0  1  0  0  0  0  0  0
  185.7860  176.7960  146.5070 C   0  0  0  0  0  2  0  0  0  0  0  0
  190.9480  170.3290  142.3270 O   0  0  0  0  0  0  0  0  0  0  0  0
  191.2170  171.4230  141.5670 C   0  0  2  0  0  3  0  0  0  0  0  0
  191.6050  171.3750  142.9560 N   0  0  0  0  0  0  0  0  0  0  0  0
  193.0120  171.0220  142.9860 C   0  0  0  0  0  2  0  0  0  0  0  0
  193.7190  171.8480  144.0530 C   0  0  2  0  0  3  0  0  0  0  0  0
  195.1770  171.4210  144.1390 C   0  0  2  0  0  3  0  0  0  0  0  0
  193.8960  169.6730  145.1300 O   0  0  0  0  0  1  0  0  0  0  0  0
  194.2110  171.0300  145.2450 C   0  0  2  0  0  3  0  0  0  0  0  0
  196.8370  172.4970  145.8110 C   0  0  0  0  0  2  0  0  0  0  0  0
  196.0660  172.6240  144.5060 C   0  0  0  0  0  0  0  0  0  0  0  0
  195.5470  173.2990  145.7630 C   0  0  0  0  0  2  0  0  0  0  0  0
  194.7730  174.2570  141.6790 C   0  0  0  0  0  3  0  0  0  0  0  0
  197.5800  175.8280  143.4520 N   0  0  0  0  0  2  0  0  0  0  0  0
  197.2560  172.8220  142.2830 C   0  0  0  0  0  1  0  0  0  0  0  0
  196.6250  173.6060  143.4330 C   0  0  2  0  0  0  0  0  0  0  0  0
  194.4790  175.2100  140.7860 C   0  0  0  0  0  3  0  0  0  0  0  0
  197.7120  174.5090  144.0590 C   0  0  0  0  0  2  0  0  0  0  0  0
  196.3700  175.8530  142.7300 C   0  0  0  0  0  0  0  0  0  0  0  0
  196.0720  176.7650  141.8080 C   0  0  0  0  0  3  0  0  0  0  0  0
  195.5800  174.6170  142.9050 C   0  0  1  0  0  3  0  0  0  0  0  0
  195.0210  176.5030  140.9150 O   0  0  0  0  0  0  0  0  0  0  0  0
  2  1  1  0  0  0  0
  3  2  1  0  0  0  0
  5  6  1  0  0  0  0
  6  4  1  6  0  0  0
  6  2  1  0  0  0  0
  8  7  1  0  0  0  0
  9  8  1  1  0  0  0
 10 15  1  0  0  0  0
 10 11  1  0  0  0  0
 11 17  1  6  0  0  0
 11  9  1  0  0  0  0
 12 13  1  0  0  0  0
 13  9  1  0  0  0  0
 13 14  1  6  0  0  0
 14 16  1  0  0  0  0
 15  6  1  6  0  0  0
 15 12  1  0  0  0  0
 16  7  1  0  0  0  0
 17 18  1  6  0  0  0
 17 19  1  0  0  0  0
 20 21  1  0  0  0  0
 20 22  1  0  0  0  0
 21 26  1  1  0  0  0
 23 24  1  0  0  0  0
 23 20  1  0  0  0  0
 24 19  1  6  0  0  0
 24 21  1  0  0  0  0
 26 25  1  0  0  0  0
 27 29  1  0  0  0  0
 28  2  1  1  0  0  0
 28 27  1  0  0  0  0
 28 29  1  0  0  0  0
 29 30  1  0  0  0  0
 31 30  1  6  0  0  0
 31 32  1  0  0  0  0
 31 34  1  0  0  0  0
 32 36  1  1  0  0  0
 32 34  1  0  0  0  0
 34 33  1  6  0  0  0
 36 37  1  0  0  0  0
 36 35  1  0  0  0  0
 37 35  1  0  0  0  0
 39 43  1  0  0  0  0
 41 40  1  6  0  0  0
 41 43  1  0  0  0  0
 41 36  1  0  0  0  0
 42 47  1  0  0  0  0
 42 38  2  0  0  0  0
 44 46  1  0  0  0  0
 44 39  1  0  0  0  0
 45 44  2  0  0  0  0
 46 38  1  6  0  0  0
 46 41  1  0  0  0  0
 47 45  1  0  0  0  0
M  END
>  <MODEL>
5

>  <REMARK>
 VINA RESULT:      -7.7      2.757      8.845
  Name = 
  11 active torsions:
  status: ('A' for Active; 'I' for Inactive)
    1  A    between atoms: C_1  and  C_7
    2  A    between atoms: C_1  and  C_47
    3  A    between atoms: C_7  and  C_24
    4  A    between atoms: C_11  and  C_41
    5  A    between atoms: C_14  and  C_40
    6  A    between atoms: C_15  and  C_23
    7  A    between atoms: C_15  and  C_28
    8  A    between atoms: C_20  and  C_21
    9  A    between atoms: C_20  and  C_22
   10  A    between atoms: N_26  and  C_40
   11  A    between atoms: C_28  and  C_38
                            x       y       z     vdW  Elec       q    Type
                         _______ _______ _______ _____ _____    ______ ____

>  <TORSDO>
F 11

$$$$
=
 OpenBabel11072409043D

 47 54  0  0  1  0  0  0  0  0999 V2000
  189.5540  171.6250  142.7410 F   0  0  0  0  0  0  0  0  0  0  0  0
  190.4580  172.0120  141.7580 C   0  0  0  0  0  0  0  0  0  0  0  0
  190.0080  171.5180  140.5440 F   0  0  0  0  0  0  0  0  0  0  0  0
  189.5520  173.9700  140.7380 O   0  0  0  0  0  1  0  0  0  0  0  0
  191.7500  173.9680  141.2530 F   0  0  0  0  0  0  0  0  0  0  0  0
  190.4980  173.5500  141.6790 C   0  0  2  0  0  0  0  0  0  0  0  0
  190.4430  175.7440  147.6270 C   0  0  0  0  0  2  0  0  0  0  0  0
  189.4060  176.0980  146.5500 C   0  0  0  0  0  2  0  0  0  0  0  0
  189.9420  175.9620  145.1140 C   0  0  2  0  0  3  0  0  0  0  0  0
  189.3870  175.3580  142.8390 O   0  0  0  0  0  0  0  0  0  0  0  0
  188.8220  175.6880  144.0900 C   0  0  2  0  0  3  0  0  0  0  0  0
  191.3460  174.5600  143.7160 O   0  0  0  0  0  0  0  0  0  0  0  0
  190.9570  174.8110  145.0420 C   0  0  1  0  0  3  0  0  0  0  0  0
  192.1880  175.1090  145.9060 C   0  0  0  0  0  2  0  0  0  0  0  0
  190.1710  174.2040  143.0300 C   0  0  2  0  0  3  0  0  0  0  0  0
  191.8700  175.9770  147.1320 C   0  0  0  0  0  2  0  0  0  0  0  0
  187.9130  176.9110  143.9280 C   0  0  1  0  0  3  0  0  0  0  0  0
  188.3100  177.6690  142.8220 O   0  0  0  0  0  1  0  0  0  0  0  0
  186.4640  176.4850  143.7400 C   0  0  0  0  0  2  0  0  0  0  0  0
  186.2870  177.9370  146.5710 N   0  0  0  0  0  0  0  0  0  0  0  0
  186.3160  178.4820  145.1970 C   0  0  1  0  0  3  0  0  0  0  0  0
  185.3590  178.6250  147.4660 C   0  0  0  0  0  1  0  0  0  0  0  0
  185.5700  176.7820  146.0480 C   0  0  0  0  0  2  0  0  0  0  0  0
  185.5490  177.3150  144.6280 C   0  0  2  0  0  3  0  0  0  0  0  0
  184.4540  179.5670  144.1480 O   0  0  0  0  0  1  0  0  0  0  0  0
  185.5550  179.7950  144.9740 C   0  0  0  0  0  2  0  0  0  0  0  0
  191.7550  170.2550  142.6990 O   0  0  0  0  0  0  0  0  0  0  0  0
  191.8560  171.4220  142.0100 C   0  0  2  0  0  3  0  0  0  0  0  0
  192.1650  171.3670  143.4190 N   0  0  0  0  0  0  0  0  0  0  0  0
  193.6090  171.2800  143.5280 C   0  0  0  0  0  2  0  0  0  0  0  0
  194.1240  172.4410  144.3690 C   0  0  2  0  0  3  0  0  0  0  0  0
  195.6450  172.4600  144.3270 C   0  0  2  0  0  3  0  0  0  0  0  0
  195.0250  170.6210  145.7090 O   0  0  0  0  0  1  0  0  0  0  0  0
  194.9320  172.0110  145.5910 C   0  0  2  0  0  3  0  0  0  0  0  0
  197.2760  174.1540  145.4150 C   0  0  0  0  0  2  0  0  0  0  0  0
  196.1650  173.9080  144.4050 C   0  0  0  0  0  0  0  0  0  0  0  0
  195.8400  174.5120  145.7600 C   0  0  0  0  0  2  0  0  0  0  0  0
  196.9600  173.8380  140.9860 C   0  0  0  0  0  3  0  0  0  0  0  0
  194.2300  176.0360  142.0820 N   0  0  0  0  0  2  0  0  0  0  0  0
  197.2830  175.7940  143.1440 C   0  0  0  0  0  1  0  0  0  0  0  0
  196.0440  174.9020  143.2110 C   0  0  2  0  0  0  0  0  0  0  0  0
  196.8690  173.9710  139.6560 C   0  0  0  0  0  3  0  0  0  0  0  0
  194.8040  175.8080  143.4020 C   0  0  0  0  0  2  0  0  0  0  0  0
  194.8550  175.1530  141.1790 C   0  0  0  0  0  0  0  0  0  0  0  0
  194.8130  175.2880  139.8560 C   0  0  0  0  0  3  0  0  0  0  0  0
  195.7810  174.2180  141.8500 C   0  0  1  0  0  3  0  0  0  0  0  0
  195.7390  174.5790  139.0750 O   0  0  0  0  0  0  0  0  0  0  0  0
  2  1  1  0  0  0  0
  3  2  1  0  0  0  0
  5  6  1  0  0  0  0
  6  4  1  6  0  0  0
  6  2  1  0  0  0  0
  8  7  1  0  0  0  0
  9  8  1  1  0  0  0
 10 15  1  0  0  0  0
 10 11  1  0  0  0  0
 11 17  1  6  0  0  0
 11  9  1  0  0  0  0
 12 13  1  0  0  0  0
 13  9  1  0  0  0  0
 13 14  1  1  0  0  0
 14 16  1  0  0  0  0
 15  6  1  6  0  0  0
 15 12  1  0  0  0  0
 16  7  1  0  0  0  0
 17 18  1  6  0  0  0
 19 17  1  0  0  0  0
 20 22  1  0  0  0  0
 21 26  1  1  0  0  0
 21 20  1  0  0  0  0
 23 20  1  0  0  0  0
 24 19  1  6  0  0  0
 24 21  1  0  0  0  0
 24 23  1  0  0  0  0
 25 26  1  0  0  0  0
 27 29  1  0  0  0  0
 28  2  1  1  0  0  0
 28 27  1  0  0  0  0
 28 29  1  0  0  0  0
 29 30  1  0  0  0  0
 31 30  1  6  0  0  0
 31 34  1  0  0  0  0
 32 31  1  0  0  0  0
 32 36  1  1  0  0  0
 32 34  1  0  0  0  0
 34 33  1  6  0  0  0
 35 37  1  0  0  0  0
 36 35  1  0  0  0  0
 36 37  1  0  0  0  0
 39 43  1  0  0  0  0
 41 40  1  6  0  0  0
 41 43  1  0  0  0  0
 41 36  1  0  0  0  0
 42 38  2  0  0  0  0
 44 46  1  0  0  0  0
 44 39  1  0  0  0  0
 45 44  2  0  0  0  0
 46 38  1  6  0  0  0
 46 41  1  0  0  0  0
 47 42  1  0  0  0  0
 47 45  1  0  0  0  0
M  END
>  <MODEL>
6

>  <REMARK>
 VINA RESULT:      -7.4      2.717      8.724
  Name = 
  11 active torsions:
  status: ('A' for Active; 'I' for Inactive)
    1  A    between atoms: C_1  and  C_7
    2  A    between atoms: C_1  and  C_47
    3  A    between atoms: C_7  and  C_24
    4  A    between atoms: C_11  and  C_41
    5  A    between atoms: C_14  and  C_40
    6  A    between atoms: C_15  and  C_23
    7  A    between atoms: C_15  and  C_28
    8  A    between atoms: C_20  and  C_21
    9  A    between atoms: C_20  and  C_22
   10  A    between atoms: N_26  and  C_40
   11  A    between atoms: C_28  and  C_38
                            x       y       z     vdW  Elec       q    Type
                         _______ _______ _______ _____ _____    ______ ____

>  <TORSDO>
F 11

$$$$
=
 OpenBabel11072409043D

 47 54  0  0  1  0  0  0  0  0999 V2000
  191.7590  177.1930  145.0480 F   0  0  0  0  0  0  0  0  0  0  0  0
  191.6750  176.4710  146.2340 C   0  0  0  0  0  0  0  0  0  0  0  0
  191.1070  177.2930  147.1950 F   0  0  0  0  0  0  0  0  0  0  0  0
  189.7500  175.2850  146.9950 O   0  0  0  0  0  1  0  0  0  0  0  0
  191.4810  174.0820  146.1880 F   0  0  0  0  0  0  0  0  0  0  0  0
  190.7560  175.2520  146.0250 C   0  0  2  0  0  0  0  0  0  0  0  0
  188.5350  173.9280  140.2360 C   0  0  0  0  0  2  0  0  0  0  0  0
  188.1970  175.1930  141.0390 C   0  0  0  0  0  2  0  0  0  0  0  0
  188.3340  175.0090  142.5600 C   0  0  2  0  0  3  0  0  0  0  0  0
  188.9530  176.0770  144.6390 O   0  0  0  0  0  0  0  0  0  0  0  0
  188.6240  176.3360  143.2920 C   0  0  2  0  0  3  0  0  0  0  0  0
  189.7280  173.9590  144.2470 O   0  0  0  0  0  0  0  0  0  0  0  0
  189.4760  174.0270  142.8670 C   0  0  1  0  0  3  0  0  0  0  0  0
  189.1610  172.6310  142.3180 C   0  0  0  0  0  2  0  0  0  0  0  0
  190.0990  175.2590  144.6360 C   0  0  2  0  0  3  0  0  0  0  0  0
  188.2910  172.6600  141.0530 C   0  0  0  0  0  2  0  0  0  0  0  0
  187.4090  177.2700  143.2380 C   0  0  1  0  0  3  0  0  0  0  0  0
  187.2310  177.7640  141.9420 O   0  0  0  0  0  1  0  0  0  0  0  0
  186.1460  176.5360  143.6640 C   0  0  0  0  0  2  0  0  0  0  0  0
  186.4260  177.8460  146.5550 N   0  0  0  0  0  0  0  0  0  0  0  0
  186.2720  178.4590  145.2190 C   0  0  1  0  0  3  0  0  0  0  0  0
  185.6600  178.5090  147.6070 C   0  0  0  0  0  1  0  0  0  0  0  0
  185.6070  176.7350  146.0900 C   0  0  0  0  0  2  0  0  0  0  0  0
  185.3950  177.3400  144.7150 C   0  0  2  0  0  3  0  0  0  0  0  0
  185.5660  180.3150  143.8760 O   0  0  0  0  0  1  0  0  0  0  0  0
  185.5260  179.7990  145.1710 C   0  0  0  0  0  2  0  0  0  0  0  0
  193.9750  177.0230  146.4700 O   0  0  0  0  0  0  0  0  0  0  0  0
  193.0640  176.0520  146.7410 C   0  0  2  0  0  3  0  0  0  0  0  0
  194.0050  175.9000  145.6570 N   0  0  0  0  0  0  0  0  0  0  0  0
  195.0800  175.0600  146.1500 C   0  0  0  0  0  2  0  0  0  0  0  0
  195.6680  174.2610  144.9940 C   0  0  2  0  0  3  0  0  0  0  0  0
  195.5850  172.7750  145.3140 C   0  0  2  0  0  3  0  0  0  0  0  0
  197.3130  173.6730  146.6880 O   0  0  0  0  0  1  0  0  0  0  0  0
  196.9290  173.4810  145.3570 C   0  0  2  0  0  3  0  0  0  0  0  0
  196.3220  170.7960  143.8150 C   0  0  0  0  0  2  0  0  0  0  0  0
  195.3670  171.9610  144.0250 C   0  0  0  0  0  0  0  0  0  0  0  0
  196.5600  172.1140  143.0980 C   0  0  0  0  0  2  0  0  0  0  0  0
  193.2530  174.2850  142.4580 C   0  0  0  0  0  3  0  0  0  0  0  0
  193.1170  170.7910  141.3350 N   0  0  0  0  0  2  0  0  0  0  0  0
  192.8560  172.0500  144.3110 C   0  0  0  0  0  1  0  0  0  0  0  0
  193.9900  171.9030  143.2980 C   0  0  2  0  0  0  0  0  0  0  0  0
  192.4460  174.8670  141.5620 C   0  0  0  0  0  3  0  0  0  0  0  0
  193.8280  170.5410  142.5830 C   0  0  0  0  0  2  0  0  0  0  0  0
  193.0750  172.1850  141.1330 C   0  0  0  0  0  0  0  0  0  0  0  0
  192.2530  172.7890  140.2790 C   0  0  0  0  0  3  0  0  0  0  0  0
  193.8450  172.9290  142.1510 C   0  0  1  0  0  3  0  0  0  0  0  0
  192.0440  174.1720  140.4050 O   0  0  0  0  0  0  0  0  0  0  0  0
  1  2  1  0  0  0  0
  2  3  1  0  0  0  0
  6  5  1  1  0  0  0
  6  2  1  0  0  0  0
  6  4  1  0  0  0  0
  7  8  1  0  0  0  0
  7 16  1  0  0  0  0
  9  8  1  6  0  0  0
  9 13  1  0  0  0  0
  9 11  1  0  0  0  0
 11 17  1  1  0  0  0
 11 10  1  0  0  0  0
 12 15  1  0  0  0  0
 13 14  1  1  0  0  0
 13 12  1  0  0  0  0
 15 10  1  0  0  0  0
 15  6  1  1  0  0  0
 16 14  1  0  0  0  0
 17 18  1  6  0  0  0
 17 19  1  0  0  0  0
 20 22  1  0  0  0  0
 21 26  1  1  0  0  0
 21 20  1  0  0  0  0
 23 20  1  0  0  0  0
 24 19  1  6  0  0  0
 24 21  1  0  0  0  0
 24 23  1  0  0  0  0
 25 26  1  0  0  0  0
 27 28  1  0  0  0  0
 28  2  1  6  0  0  0
 29 30  1  0  0  0  0
 29 27  1  0  0  0  0
 29 28  1  0  0  0  0
 31 32  1  0  0  0  0
 31 34  1  0  0  0  0
 31 30  1  1  0  0  0
 32 36  1  6  0  0  0
 32 34  1  0  0  0  0
 34 33  1  1  0  0  0
 35 36  1  0  0  0  0
 37 35  1  0  0  0  0
 37 36  1  0  0  0  0
 39 43  1  0  0  0  0
 41 36  1  0  0  0  0
 41 40  1  1  0  0  0
 42 38  2  0  0  0  0
 43 41  1  0  0  0  0
 44 39  1  0  0  0  0
 44 46  1  0  0  0  0
 45 47  1  0  0  0  0
 45 44  2  0  0  0  0
 46 38  1  1  0  0  0
 46 41  1  0  0  0  0
 47 42  1  0  0  0  0
M  END
>  <MODEL>
7

>  <REMARK>
 VINA RESULT:      -7.4      2.280      8.396
  Name = 
  11 active torsions:
  status: ('A' for Active; 'I' for Inactive)
    1  A    between atoms: C_1  and  C_7
    2  A    between atoms: C_1  and  C_47
    3  A    between atoms: C_7  and  C_24
    4  A    between atoms: C_11  and  C_41
    5  A    between atoms: C_14  and  C_40
    6  A    between atoms: C_15  and  C_23
    7  A    between atoms: C_15  and  C_28
    8  A    between atoms: C_20  and  C_21
    9  A    between atoms: C_20  and  C_22
   10  A    between atoms: N_26  and  C_40
   11  A    between atoms: C_28  and  C_38
                            x       y       z     vdW  Elec       q    Type
                         _______ _______ _______ _____ _____    ______ ____

>  <TORSDO>
F 11

$$$$
=
 OpenBabel11072409043D

 47 54  0  0  1  0  0  0  0  0999 V2000
  191.3130  175.0850  145.0250 F   0  0  0  0  0  0  0  0  0  0  0  0
  191.6100  176.1290  145.8930 C   0  0  0  0  0  0  0  0  0  0  0  0
  191.4980  177.3170  145.1880 F   0  0  0  0  0  0  0  0  0  0  0  0
  190.9450  177.1510  147.9440 O   0  0  0  0  0  1  0  0  0  0  0  0
  190.6180  174.9290  147.7170 F   0  0  0  0  0  0  0  0  0  0  0  0
  190.5870  176.1420  147.0450 C   0  0  2  0  0  0  0  0  0  0  0  0
  184.5360  177.8690  146.2690 C   0  0  0  0  0  2  0  0  0  0  0  0
  185.4420  177.3170  145.1580 C   0  0  0  0  0  2  0  0  0  0  0  0
  186.9410  177.5490  145.4160 C   0  0  2  0  0  3  0  0  0  0  0  0
  189.1640  176.6350  145.1530 O   0  0  0  0  0  0  0  0  0  0  0  0
  187.8300  176.5060  144.7090 C   0  0  2  0  0  3  0  0  0  0  0  0
  188.6070  177.5390  147.1820 O   0  0  0  0  0  0  0  0  0  0  0  0
  187.2270  177.4870  146.9250 C   0  0  1  0  0  3  0  0  0  0  0  0
  186.5090  178.6190  147.6680 C   0  0  0  0  0  2  0  0  0  0  0  0
  189.1610  176.4140  146.5440 C   0  0  2  0  0  3  0  0  0  0  0  0
  185.1920  179.0400  147.0000 C   0  0  0  0  0  2  0  0  0  0  0  0
  187.7840  176.6860  143.1870 C   0  0  1  0  0  3  0  0  0  0  0  0
  189.0190  177.1410  142.7130 O   0  0  0  0  0  1  0  0  0  0  0  0
  187.4440  175.3720  142.4990 C   0  0  0  0  0  2  0  0  0  0  0  0
  188.8130  172.5360  142.0160 N   0  0  0  0  0  0  0  0  0  0  0  0
  188.3380  173.5630  141.0650 C   0  0  1  0  0  3  0  0  0  0  0  0
  190.0760  171.9080  141.6340 C   0  0  0  0  0  1  0  0  0  0  0  0
  189.1550  173.6130  142.9360 C   0  0  0  0  0  2  0  0  0  0  0  0
  188.7080  174.7020  141.9810 C   0  0  2  0  0  3  0  0  0  0  0  0
  188.2530  174.1390  138.7400 O   0  0  0  0  0  1  0  0  0  0  0  0
  189.1020  173.6610  139.7380 C   0  0  0  0  0  2  0  0  0  0  0  0
  193.7890  177.0790  145.9570 O   0  0  0  0  0  0  0  0  0  0  0  0
  193.0520  176.0340  146.4190 C   0  0  2  0  0  3  0  0  0  0  0  0
  194.0000  175.8520  145.3460 N   0  0  0  0  0  0  0  0  0  0  0  0
  195.2020  175.2960  145.9390 C   0  0  0  0  0  2  0  0  0  0  0  0
  195.8930  174.3910  144.9270 C   0  0  2  0  0  3  0  0  0  0  0  0
  195.6320  172.9370  145.2890 C   0  0  2  0  0  3  0  0  0  0  0  0
  197.1910  173.7660  146.8880 O   0  0  0  0  0  1  0  0  0  0  0  0
  197.0090  173.5350  145.5220 C   0  0  2  0  0  3  0  0  0  0  0  0
  196.4390  170.8390  144.0020 C   0  0  0  0  0  2  0  0  0  0  0  0
  195.5510  172.0740  144.0160 C   0  0  0  0  0  0  0  0  0  0  0  0
  196.8790  172.1000  143.2770 C   0  0  0  0  0  2  0  0  0  0  0  0
  194.0220  174.3780  141.8520 C   0  0  0  0  0  3  0  0  0  0  0  0
  193.5770  170.7980  141.1620 N   0  0  0  0  0  2  0  0  0  0  0  0
  193.0610  172.4920  143.8780 C   0  0  0  0  0  1  0  0  0  0  0  0
  194.2990  172.0720  143.0880 C   0  0  2  0  0  0  0  0  0  0  0  0
  193.4390  174.9140  140.7720 C   0  0  0  0  0  3  0  0  0  0  0  0
  194.0590  170.6490  142.5300 C   0  0  0  0  0  2  0  0  0  0  0  0
  193.7540  172.1450  140.7850 C   0  0  0  0  0  0  0  0  0  0  0  0
  193.1540  172.7110  139.7410 C   0  0  0  0  0  3  0  0  0  0  0  0
  194.4620  172.9330  141.8150 C   0  0  1  0  0  3  0  0  0  0  0  0
  193.1190  174.1120  139.6600 O   0  0  0  0  0  0  0  0  0  0  0  0
  1  2  1  0  0  0  0
  2  6  1  0  0  0  0
  3  2  1  0  0  0  0
  6  5  1  1  0  0  0
  6  4  1  0  0  0  0
  7 16  1  0  0  0  0
  8  7  1  0  0  0  0
  9  8  1  1  0  0  0
  9 13  1  0  0  0  0
 10 15  1  0  0  0  0
 11 17  1  6  0  0  0
 11 10  1  0  0  0  0
 11  9  1  0  0  0  0
 13 12  1  0  0  0  0
 13 14  1  1  0  0  0
 15  6  1  1  0  0  0
 15 12  1  0  0  0  0
 16 14  1  0  0  0  0
 17 18  1  6  0  0  0
 19 17  1  0  0  0  0
 20 23  1  0  0  0  0
 21 26  1  6  0  0  0
 21 24  1  0  0  0  0
 21 20  1  0  0  0  0
 22 20  1  0  0  0  0
 24 19  1  1  0  0  0
 24 23  1  0  0  0  0
 25 26  1  0  0  0  0
 27 28  1  0  0  0  0
 28  2  1  6  0  0  0
 29 30  1  0  0  0  0
 29 27  1  0  0  0  0
 29 28  1  0  0  0  0
 31 32  1  0  0  0  0
 31 34  1  0  0  0  0
 31 30  1  1  0  0  0
 32 36  1  6  0  0  0
 32 34  1  0  0  0  0
 34 33  1  1  0  0  0
 35 36  1  0  0  0  0
 37 35  1  0  0  0  0
 37 36  1  0  0  0  0
 39 43  1  0  0  0  0
 41 40  1  1  0  0  0
 41 36  1  0  0  0  0
 42 38  2  0  0  0  0
 43 41  1  0  0  0  0
 44 39  1  0  0  0  0
 44 46  1  0  0  0  0
 45 44  2  0  0  0  0
 46 38  1  1  0  0  0
 46 41  1  0  0  0  0
 47 45  1  0  0  0  0
 47 42  1  0  0  0  0
M  END
>  <MODEL>
8

>  <REMARK>
 VINA RESULT:      -7.4      2.236      8.265
  Name = 
  11 active torsions:
  status: ('A' for Active; 'I' for Inactive)
    1  A    between atoms: C_1  and  C_7
    2  A    between atoms: C_1  and  C_47
    3  A    between atoms: C_7  and  C_24
    4  A    between atoms: C_11  and  C_41
    5  A    between atoms: C_14  and  C_40
    6  A    between atoms: C_15  and  C_23
    7  A    between atoms: C_15  and  C_28
    8  A    between atoms: C_20  and  C_21
    9  A    between atoms: C_20  and  C_22
   10  A    between atoms: N_26  and  C_40
   11  A    between atoms: C_28  and  C_38
                            x       y       z     vdW  Elec       q    Type
                         _______ _______ _______ _____ _____    ______ ____

>  <TORSDO>
F 11

$$$$
=
 OpenBabel11072409043D

 47 54  0  0  1  0  0  0  0  0999 V2000
  191.3400  175.0730  145.0780 F   0  0  0  0  0  0  0  0  0  0  0  0
  191.7420  176.0340  145.9980 C   0  0  0  0  0  0  0  0  0  0  0  0
  191.7690  177.2600  145.3510 F   0  0  0  0  0  0  0  0  0  0  0  0
  191.0820  177.1430  148.0060 O   0  0  0  0  0  1  0  0  0  0  0  0
  190.7240  174.9180  147.8600 F   0  0  0  0  0  0  0  0  0  0  0  0
  190.7130  176.1050  147.1440 C   0  0  2  0  0  0  0  0  0  0  0  0
  184.6830  177.8630  146.2840 C   0  0  0  0  0  2  0  0  0  0  0  0
  185.5930  177.2820  145.1910 C   0  0  0  0  0  2  0  0  0  0  0  0
  187.0920  177.5080  145.4570 C   0  0  2  0  0  3  0  0  0  0  0  0
  189.3100  176.5720  145.2300 O   0  0  0  0  0  0  0  0  0  0  0  0
  187.9790  176.4460  144.7770 C   0  0  2  0  0  3  0  0  0  0  0  0
  188.7430  177.5190  147.2370 O   0  0  0  0  0  0  0  0  0  0  0  0
  187.3650  177.4730  146.9690 C   0  0  1  0  0  3  0  0  0  0  0  0
  186.6500  178.6250  147.6840 C   0  0  0  0  0  2  0  0  0  0  0  0
  189.2940  176.3780  146.6250 C   0  0  2  0  0  3  0  0  0  0  0  0
  185.3410  179.0420  146.9980 C   0  0  0  0  0  2  0  0  0  0  0  0
  187.9470  176.5970  143.2520 C   0  0  1  0  0  3  0  0  0  0  0  0
  187.8860  177.9480  142.8980 O   0  0  0  0  0  1  0  0  0  0  0  0
  189.1860  175.9760  142.6230 C   0  0  0  0  0  2  0  0  0  0  0  0
  189.7960  173.6720  140.5090 N   0  0  0  0  0  0  0  0  0  0  0  0
  190.2450  173.8560  141.9050 C   0  0  1  0  0  3  0  0  0  0  0  0
  189.4580  172.2920  140.1680 C   0  0  0  0  0  1  0  0  0  0  0  0
  188.5440  174.3210  140.8740 C   0  0  0  0  0  2  0  0  0  0  0  0
  188.9480  174.5040  142.3240 C   0  0  2  0  0  3  0  0  0  0  0  0
  189.5400  172.4530  143.7170 O   0  0  0  0  0  1  0  0  0  0  0  0
  190.4970  172.5740  142.7090 C   0  0  0  0  0  2  0  0  0  0  0  0
  193.9390  176.8580  146.3800 O   0  0  0  0  0  0  0  0  0  0  0  0
  193.1590  175.7550  146.5270 C   0  0  2  0  0  3  0  0  0  0  0  0
  194.1440  175.8280  145.4750 N   0  0  0  0  0  0  0  0  0  0  0  0
  195.3070  175.0940  145.9390 C   0  0  0  0  0  2  0  0  0  0  0  0
  196.3110  174.9660  144.8010 C   0  0  2  0  0  3  0  0  0  0  0  0
  196.0770  173.6550  144.0650 C   0  0  2  0  0  3  0  0  0  0  0  0
  197.0820  173.0940  146.1510 O   0  0  0  0  0  1  0  0  0  0  0  0
  197.2900  173.8060  144.9660 C   0  0  2  0  0  3  0  0  0  0  0  0
  197.1710  172.6600  141.9390 C   0  0  0  0  0  2  0  0  0  0  0  0
  196.4070  173.8140  142.5690 C   0  0  0  0  0  0  0  0  0  0  0  0
  197.9090  173.9170  142.3690 C   0  0  0  0  0  2  0  0  0  0  0  0
  196.7230  174.9770  139.2720 C   0  0  0  0  0  3  0  0  0  0  0  0
  193.3450  174.6500  140.6730 N   0  0  0  0  0  2  0  0  0  0  0  0
  195.9540  176.1890  141.8260 C   0  0  0  0  0  1  0  0  0  0  0  0
  195.5680  174.7250  141.6230 C   0  0  2  0  0  0  0  0  0  0  0  0
  196.4370  175.2930  138.0020 C   0  0  0  0  0  3  0  0  0  0  0  0
  194.0620  174.5710  141.9400 C   0  0  0  0  0  2  0  0  0  0  0  0
  194.2930  174.5770  139.6330 C   0  0  0  0  0  0  0  0  0  0  0  0
  194.0440  174.9250  138.3740 C   0  0  0  0  0  3  0  0  0  0  0  0
  195.6620  174.3300  140.1310 C   0  0  1  0  0  3  0  0  0  0  0  0
  195.1270  175.1480  137.5080 O   0  0  0  0  0  0  0  0  0  0  0  0
  1  2  1  0  0  0  0
  2  6  1  0  0  0  0
  3  2  1  0  0  0  0
  6  5  1  1  0  0  0
  6  4  1  0  0  0  0
  7 16  1  0  0  0  0
  8  7  1  0  0  0  0
  9  8  1  1  0  0  0
  9 13  1  0  0  0  0
 10 15  1  0  0  0  0
 11 17  1  6  0  0  0
 11 10  1  0  0  0  0
 11  9  1  0  0  0  0
 13 12  1  0  0  0  0
 13 14  1  1  0  0  0
 15  6  1  1  0  0  0
 15 12  1  0  0  0  0
 16 14  1  0  0  0  0
 17 18  1  1  0  0  0
 19 17  1  0  0  0  0
 20 23  1  0  0  0  0
 20 21  1  0  0  0  0
 21 24  1  0  0  0  0
 21 26  1  1  0  0  0
 22 20  1  0  0  0  0
 23 24  1  0  0  0  0
 24 19  1  6  0  0  0
 26 25  1  0  0  0  0
 27 28  1  0  0  0  0
 28  2  1  6  0  0  0
 29 30  1  0  0  0  0
 29 27  1  0  0  0  0
 29 28  1  0  0  0  0
 31 34  1  0  0  0  0
 31 30  1  1  0  0  0
 32 36  1  6  0  0  0
 32 31  1  0  0  0  0
 32 34  1  0  0  0  0
 34 33  1  1  0  0  0
 35 37  1  0  0  0  0
 35 36  1  0  0  0  0
 37 36  1  0  0  0  0
 39 43  1  0  0  0  0
 41 40  1  1  0  0  0
 41 43  1  0  0  0  0
 41 36  1  0  0  0  0
 42 38  2  0  0  0  0
 44 46  1  0  0  0  0
 44 39  1  0  0  0  0
 45 44  2  0  0  0  0
 46 38  1  6  0  0  0
 46 41  1  0  0  0  0
 47 42  1  0  0  0  0
 47 45  1  0  0  0  0
M  END
>  <MODEL>
9

>  <REMARK>
 VINA RESULT:      -7.3      2.369      8.317
  Name = 
  11 active torsions:
  status: ('A' for Active; 'I' for Inactive)
    1  A    between atoms: C_1  and  C_7
    2  A    between atoms: C_1  and  C_47
    3  A    between atoms: C_7  and  C_24
    4  A    between atoms: C_11  and  C_41
    5  A    between atoms: C_14  and  C_40
    6  A    between atoms: C_15  and  C_23
    7  A    between atoms: C_15  and  C_28
    8  A    between atoms: C_20  and  C_21
    9  A    between atoms: C_20  and  C_22
   10  A    between atoms: N_26  and  C_40
   11  A    between atoms: C_28  and  C_38
                            x       y       z     vdW  Elec       q    Type
                         _______ _______ _______ _____ _____    ______ ____

>  <TORSDO>
F 11

$$$$
