=
 OpenBabel11062418533D

 37 42  0  0  1  0  0  0  0  0999 V2000
  192.7650  174.0400  141.7340 O   0  0  0  0  0  0  0  0  0  0  0  0
  194.9120  174.0120  144.4390 C   0  0  0  0  0  3  0  0  0  0  0  0
  194.4560  176.2970  143.7830 C   0  0  0  0  0  3  0  0  0  0  0  0
  187.0370  176.8390  144.0360 N   0  0  0  0  0  0  0  0  0  0  0  0
  190.4250  173.5080  140.2120 O   0  0  0  0  0  0  0  0  0  0  0  0
  193.7100  175.4790  145.9430 C   0  0  0  0  0  0  0  0  0  0  0  0
  193.2680  173.0710  139.7960 C   0  0  0  0  0  2  0  0  0  0  0  0
  188.1310  176.7470  143.0590 C   0  0  1  0  0  3  0  0  0  0  0  0
  195.5900  174.8230  142.2420 O   0  0  0  0  0  0  0  0  0  0  0  0
  193.8050  176.5140  145.0010 C   0  0  0  0  0  3  0  0  0  0  0  0
  189.6350  177.0080  147.0560 C   0  0  2  0  0  3  0  0  0  0  0  0
  189.5240  173.6450  141.2740 C   0  0  1  0  0  3  0  0  0  0  0  0
  193.7900  174.1280  140.7570 C   0  0  2  0  0  3  0  0  0  0  0  0
  187.3220  176.8590  145.4460 C   0  0  0  0  0  0  0  0  0  0  0  0
  191.8640  172.8980  140.8680 P   0  0  1  0  0  0  0  0  0  0  0  0
  194.2790  174.2330  145.6630 C   0  0  0  0  0  3  0  0  0  0  0  0
  195.1740  173.7970  141.3360 C   0  0  2  0  0  3  0  0  0  0  0  0
  194.9920  175.0390  143.4880 C   0  0  0  0  0  0  0  0  0  0  0  0
  188.0420  175.4830  142.2830 C   0  0  2  0  0  3  0  0  0  0  0  0
  191.7570  171.5590  141.5670 O   0  0  0  0  0  0  0  0  0  0  0  0
  186.3780  176.8310  146.2810 O   0  0  0  0  0  0  0  0  0  0  0  0
  192.0140  176.6510  147.3000 N   0  0  0  0  0  2  0  0  0  0  0  0
  193.0050  175.6680  147.1690 N   0  0  0  0  0  2  0  0  0  0  0  0
  189.3560  175.1390  141.5920 C   0  0  0  0  0  2  0  0  0  0  0  0
  190.7810  176.0620  146.8040 C   0  0  2  0  0  3  0  0  0  0  0  0
  188.6630  176.9080  145.9270 N   0  0  0  0  0  0  0  0  0  0  0  0
  190.1480  176.9670  145.7730 C   0  0  1  0  0  3  0  0  0  0  0  0
  187.6080  176.7110  141.7520 O   0  0  0  0  0  0  0  0  0  0  0  0
  187.9530  172.7770  139.6840 O   0  0  0  0  0  0  0  0  0  0  0  0
  188.2390  172.9720  140.8940 C   0  0  0  0  0  0  0  0  0  0  0  0
  187.3710  172.5360  141.8870 O   0  0  0  0  0  1  0  0  0  0  0  0
  185.6440  176.9210  143.5910 C   0  0  0  0  0  2  0  0  0  0  0  0
  184.6790  179.3760  144.0010 C   0  0  0  0  0  3  0  0  0  0  0  0
  185.1140  178.2690  143.8150 C   0  0  0  0  0  0  0  0  0  0  0  0
  195.2890  172.4030  141.9520 C   0  0  0  0  0  2  0  0  0  0  0  0
  196.6850  171.8460  141.7430 C   0  0  0  0  0  2  0  0  0  0  0  0
  197.4300  171.9880  142.9120 O   0  0  0  0  0  1  0  0  0  0  0  0
  2 16  1  0  0  0  0
  3 10  2  0  0  0  0
  4 14  1  0  0  0  0
  5 15  1  0  0  0  0
  5 12  1  0  0  0  0
  6 23  1  0  0  0  0
  7 15  1  0  0  0  0
  8 28  1  6  0  0  0
  8  4  1  0  0  0  0
  9 18  1  0  0  0  0
 10  6  1  0  0  0  0
 11 26  1  6  0  0  0
 12 30  1  6  0  0  0
 12 24  1  0  0  0  0
 13  7  1  6  0  0  0
 13 17  1  0  0  0  0
 13  1  1  0  0  0  0
 14 26  1  0  0  0  0
 14 21  2  0  0  0  0
 15 20  2  1  0  0  0
 15  1  1  0  0  0  0
 16  6  2  0  0  0  0
 17 35  1  1  0  0  0
 17  9  1  0  0  0  0
 18  3  1  0  0  0  0
 18  2  2  0  0  0  0
 19 24  1  6  0  0  0
 19  8  1  0  0  0  0
 23 22  1  0  0  0  0
 25 11  1  0  0  0  0
 25 22  1  1  0  0  0
 27 26  1  6  0  0  0
 27 25  1  0  0  0  0
 27 11  1  0  0  0  0
 28 19  1  0  0  0  0
 29 30  2  0  0  0  0
 30 31  1  0  0  0  0
 32 34  1  0  0  0  0
 32  4  1  0  0  0  0
 34 33  3  0  0  0  0
 36 35  1  0  0  0  0
 36 37  1  0  0  0  0
M  END
>  <MODEL>
1

>  <REMARK>
 VINA RESULT:      -6.9      0.000      0.000
  Name = 
  5 active torsions:
  status: ('A' for Active; 'I' for Inactive)
    1  A    between atoms: N_4  and  C_14
    2  A    between atoms: C_11  and  C_16
    3  A    between atoms: C_14  and  C_19
    4  A    between atoms: C_22  and  C_32
    5  A    between atoms: C_23  and  C_32
                            x       y       z     vdW  Elec       q    Type
                         _______ _______ _______ _____ _____    ______ ____

>  <TORSDO>
F 5

$$$$
=
 OpenBabel11062418533D

 37 42  0  0  1  0  0  0  0  0999 V2000
  190.1670  175.5900  145.3760 O   0  0  0  0  0  0  0  0  0  0  0  0
  193.5030  176.0270  146.1540 C   0  0  0  0  0  3  0  0  0  0  0  0
  193.0650  173.6860  145.7250 C   0  0  0  0  0  3  0  0  0  0  0  0
  190.0950  173.5870  138.9010 N   0  0  0  0  0  0  0  0  0  0  0  0
  187.7080  175.9400  143.9960 O   0  0  0  0  0  0  0  0  0  0  0  0
  194.5230  174.9410  144.2470 C   0  0  0  0  0  0  0  0  0  0  0  0
  188.5280  176.1410  146.7770 C   0  0  0  0  0  2  0  0  0  0  0  0
  189.6990  173.4330  140.3090 C   0  0  1  0  0  3  0  0  0  0  0  0
  191.9810  174.7740  147.5890 O   0  0  0  0  0  0  0  0  0  0  0  0
  193.8880  173.7410  144.5960 C   0  0  0  0  0  3  0  0  0  0  0  0
  193.9390  173.8680  139.9240 C   0  0  2  0  0  3  0  0  0  0  0  0
  188.2690  176.0570  142.7210 C   0  0  1  0  0  3  0  0  0  0  0  0
  189.7690  175.2640  146.6980 C   0  0  2  0  0  3  0  0  0  0  0  0
  191.4710  173.8240  138.5550 C   0  0  0  0  0  0  0  0  0  0  0  0
  188.8320  176.5900  145.0870 P   0  0  1  0  0  0  0  0  0  0  0  0
  194.3400  176.0790  145.0380 C   0  0  0  0  0  3  0  0  0  0  0  0
  190.8420  175.6270  147.7350 C   0  0  2  0  0  3  0  0  0  0  0  0
  192.8520  174.8340  146.4950 C   0  0  0  0  0  0  0  0  0  0  0  0
  188.7840  174.5270  140.7240 C   0  0  2  0  0  3  0  0  0  0  0  0
  189.2010  178.0420  144.8690 O   0  0  0  0  0  0  0  0  0  0  0  0
  191.7890  174.0610  137.3590 O   0  0  0  0  0  0  0  0  0  0  0  0
  195.1510  174.1410  141.9970 N   0  0  0  0  0  2  0  0  0  0  0  0
  195.3250  175.0280  143.0690 N   0  0  0  0  0  2  0  0  0  0  0  0
  188.7010  174.6630  142.2390 C   0  0  0  0  0  2  0  0  0  0  0  0
  194.0790  174.6870  141.1810 C   0  0  2  0  0  3  0  0  0  0  0  0
  192.4960  173.7990  139.5460 N   0  0  0  0  0  0  0  0  0  0  0  0
  193.0240  173.6340  140.9340 C   0  0  1  0  0  3  0  0  0  0  0  0
  188.3070  173.2430  140.4000 O   0  0  0  0  0  0  0  0  0  0  0  0
  186.0350  176.4810  141.9600 O   0  0  0  0  0  1  0  0  0  0  0  0
  187.2650  176.7100  141.8190 C   0  0  0  0  0  0  0  0  0  0  0  0
  187.6930  177.5960  140.8380 O   0  0  0  0  0  0  0  0  0  0  0  0
  189.0990  173.4930  137.8310 C   0  0  0  0  0  2  0  0  0  0  0  0
  189.4930  171.2900  136.3770 C   0  0  0  0  0  3  0  0  0  0  0  0
  189.3160  172.2830  137.0340 C   0  0  0  0  0  0  0  0  0  0  0  0
  191.2280  177.1060  147.7590 C   0  0  0  0  0  2  0  0  0  0  0  0
  191.5660  177.5410  149.1720 C   0  0  0  0  0  2  0  0  0  0  0  0
  190.8160  178.6660  149.5130 O   0  0  0  0  0  1  0  0  0  0  0  0
  1 13  1  0  0  0  0
  2 18  1  0  0  0  0
  3 18  2  0  0  0  0
  4  8  1  0  0  0  0
  5 15  1  0  0  0  0
  6 10  2  0  0  0  0
  6 16  1  0  0  0  0
  8 28  1  6  0  0  0
  8 19  1  0  0  0  0
  9 17  1  0  0  0  0
 10  3  1  0  0  0  0
 11 26  1  6  0  0  0
 11 27  1  0  0  0  0
 11 25  1  0  0  0  0
 12 30  1  6  0  0  0
 12  5  1  0  0  0  0
 13  7  1  1  0  0  0
 13 17  1  0  0  0  0
 14  4  1  0  0  0  0
 14 26  1  0  0  0  0
 15 20  2  6  0  0  0
 15  1  1  0  0  0  0
 15  7  1  0  0  0  0
 16  2  2  0  0  0  0
 17 35  1  6  0  0  0
 18  9  1  0  0  0  0
 19 24  1  1  0  0  0
 21 14  2  0  0  0  0
 22 23  1  0  0  0  0
 23  6  1  0  0  0  0
 24 12  1  0  0  0  0
 25 22  1  1  0  0  0
 27 26  1  6  0  0  0
 27 25  1  0  0  0  0
 28 19  1  0  0  0  0
 30 29  1  0  0  0  0
 31 30  2  0  0  0  0
 32  4  1  0  0  0  0
 33 34  3  0  0  0  0
 34 32  1  0  0  0  0
 35 36  1  0  0  0  0
 36 37  1  0  0  0  0
M  END
>  <MODEL>
2

>  <REMARK>
 VINA RESULT:      -6.9      3.424      6.798
  Name = 
  5 active torsions:
  status: ('A' for Active; 'I' for Inactive)
    1  A    between atoms: N_4  and  C_14
    2  A    between atoms: C_11  and  C_16
    3  A    between atoms: C_14  and  C_19
    4  A    between atoms: C_22  and  C_32
    5  A    between atoms: C_23  and  C_32
                            x       y       z     vdW  Elec       q    Type
                         _______ _______ _______ _____ _____    ______ ____

>  <TORSDO>
F 5

$$$$
=
 OpenBabel11062418533D

 37 42  0  0  1  0  0  0  0  0999 V2000
  189.6110  173.7960  142.3930 O   0  0  0  0  0  0  0  0  0  0  0  0
  189.9160  177.1940  142.9280 C   0  0  0  0  0  3  0  0  0  0  0  0
  189.6830  176.0510  145.0490 C   0  0  0  0  0  3  0  0  0  0  0  0
  195.2060  171.0620  145.0700 N   0  0  0  0  0  0  0  0  0  0  0  0
  190.2870  171.1960  141.4670 O   0  0  0  0  0  0  0  0  0  0  0  0
  191.7480  177.2050  144.5100 C   0  0  0  0  0  0  0  0  0  0  0  0
  187.9620  172.9170  141.1850 C   0  0  0  0  0  2  0  0  0  0  0  0
  193.7450  171.1310  144.9140 C   0  0  1  0  0  3  0  0  0  0  0  0
  187.8740  175.9680  143.4500 O   0  0  0  0  0  0  0  0  0  0  0  0
  190.9810  176.4360  145.3960 C   0  0  0  0  0  3  0  0  0  0  0  0
  195.3900  174.9610  145.8810 C   0  0  2  0  0  3  0  0  0  0  0  0
  191.6620  171.3110  141.6930 C   0  0  1  0  0  3  0  0  0  0  0  0
  188.1920  173.7900  142.4090 C   0  0  2  0  0  3  0  0  0  0  0  0
  195.9670  172.2560  145.3210 C   0  0  0  0  0  0  0  0  0  0  0  0
  189.7250  172.7450  141.0700 P   0  0  1  0  0  0  0  0  0  0  0  0
  191.2050  177.5950  143.2810 C   0  0  0  0  0  3  0  0  0  0  0  0
  187.6040  175.2020  142.2720 C   0  0  2  0  0  3  0  0  0  0  0  0
  189.1540  176.4090  143.8050 C   0  0  0  0  0  0  0  0  0  0  0  0
  193.3400  170.7200  143.5460 C   0  0  2  0  0  3  0  0  0  0  0  0
  190.3490  173.3810  139.8460 O   0  0  0  0  0  0  0  0  0  0  0  0
  197.2260  172.2070  145.3480 O   0  0  0  0  0  0  0  0  0  0  0  0
  193.8520  176.8210  145.7420 N   0  0  0  0  0  2  0  0  0  0  0  0
  193.0930  177.5640  144.8270 N   0  0  0  0  0  2  0  0  0  0  0  0
  191.9290  171.1840  143.2010 C   0  0  0  0  0  2  0  0  0  0  0  0
  194.4330  175.7170  144.9960 C   0  0  2  0  0  3  0  0  0  0  0  0
  195.3230  173.5080  145.5420 N   0  0  0  0  0  0  0  0  0  0  0  0
  194.1380  174.4070  145.6870 C   0  0  1  0  0  3  0  0  0  0  0  0
  193.2280  169.8490  144.6450 O   0  0  0  0  0  0  0  0  0  0  0  0
  193.3200  170.5830  140.1210 O   0  0  0  0  0  0  0  0  0  0  0  0
  192.3650  170.2680  140.8770 C   0  0  0  0  0  0  0  0  0  0  0  0
  191.9770  168.9380  140.9790 O   0  0  0  0  0  1  0  0  0  0  0  0
  195.9050  169.7780  144.9810 C   0  0  0  0  0  2  0  0  0  0  0  0
  196.2980  168.7610  147.4180 C   0  0  0  0  0  3  0  0  0  0  0  0
  196.1210  169.2180  146.3180 C   0  0  0  0  0  0  0  0  0  0  0  0
  188.0120  175.9410  140.9980 C   0  0  0  0  0  2  0  0  0  0  0  0
  187.0020  177.0230  140.6670 C   0  0  0  0  0  2  0  0  0  0  0  0
  186.7180  177.0030  139.3030 O   0  0  0  0  0  1  0  0  0  0  0  0
  1 13  1  0  0  0  0
  2 16  2  0  0  0  0
  2 18  1  0  0  0  0
  3 10  1  0  0  0  0
  4 14  1  0  0  0  0
  5 12  1  0  0  0  0
  6 23  1  0  0  0  0
  6 10  2  0  0  0  0
  8 28  1  1  0  0  0
  8  4  1  0  0  0  0
  9 18  1  0  0  0  0
 11 26  1  6  0  0  0
 12 30  1  6  0  0  0
 12 24  1  0  0  0  0
 13  7  1  6  0  0  0
 14 21  2  0  0  0  0
 14 26  1  0  0  0  0
 15 20  2  6  0  0  0
 15  7  1  0  0  0  0
 15  5  1  0  0  0  0
 15  1  1  0  0  0  0
 16  6  1  0  0  0  0
 17 35  1  6  0  0  0
 17 13  1  0  0  0  0
 17  9  1  0  0  0  0
 18  3  2  0  0  0  0
 19 24  1  1  0  0  0
 19 28  1  0  0  0  0
 19  8  1  0  0  0  0
 23 22  1  0  0  0  0
 25 27  1  0  0  0  0
 25 22  1  1  0  0  0
 25 11  1  0  0  0  0
 27 26  1  6  0  0  0
 27 11  1  0  0  0  0
 29 30  2  0  0  0  0
 30 31  1  0  0  0  0
 32  4  1  0  0  0  0
 32 34  1  0  0  0  0
 34 33  3  0  0  0  0
 36 35  1  0  0  0  0
 37 36  1  0  0  0  0
M  END
>  <MODEL>
3

>  <REMARK>
 VINA RESULT:      -6.8      2.768      7.616
  Name = 
  5 active torsions:
  status: ('A' for Active; 'I' for Inactive)
    1  A    between atoms: N_4  and  C_14
    2  A    between atoms: C_11  and  C_16
    3  A    between atoms: C_14  and  C_19
    4  A    between atoms: C_22  and  C_32
    5  A    between atoms: C_23  and  C_32
                            x       y       z     vdW  Elec       q    Type
                         _______ _______ _______ _____ _____    ______ ____

>  <TORSDO>
F 5

$$$$
=
 OpenBabel11062418533D

 37 42  0  0  1  0  0  0  0  0999 V2000
  193.1760  173.9660  141.1060 O   0  0  0  0  0  0  0  0  0  0  0  0
  195.8400  173.8360  143.3000 C   0  0  0  0  0  3  0  0  0  0  0  0
  195.2580  176.1440  142.8580 C   0  0  0  0  0  3  0  0  0  0  0  0
  188.0550  176.6080  144.6750 N   0  0  0  0  0  0  0  0  0  0  0  0
  190.5690  173.4810  140.0820 O   0  0  0  0  0  0  0  0  0  0  0  0
  194.9780  175.2250  145.0860 C   0  0  0  0  0  0  0  0  0  0  0  0
  193.2630  173.0890  139.0630 C   0  0  0  0  0  2  0  0  0  0  0  0
  188.9220  176.5690  143.4880 C   0  0  1  0  0  3  0  0  0  0  0  0
  196.0450  174.7510  141.0490 O   0  0  0  0  0  0  0  0  0  0  0  0
  194.8750  176.3010  144.1930 C   0  0  0  0  0  3  0  0  0  0  0  0
  191.2260  176.6660  147.0920 C   0  0  2  0  0  3  0  0  0  0  0  0
  189.9100  173.5630  141.3130 C   0  0  1  0  0  3  0  0  0  0  0  0
  193.9750  174.1060  139.9420 C   0  0  2  0  0  3  0  0  0  0  0  0
  188.6280  176.5680  145.9940 C   0  0  0  0  0  0  0  0  0  0  0  0
  192.1140  172.8550  140.3960 P   0  0  1  0  0  0  0  0  0  0  0  0
  195.4760  173.9970  144.6380 C   0  0  0  0  0  3  0  0  0  0  0  0
  195.4490  173.7620  140.2040 C   0  0  2  0  0  3  0  0  0  0  0  0
  195.7200  174.9060  142.4010 C   0  0  0  0  0  0  0  0  0  0  0  0
  188.6720  175.3400  142.6920 C   0  0  2  0  0  3  0  0  0  0  0  0
  192.1540  171.4860  141.0390 O   0  0  0  0  0  0  0  0  0  0  0  0
  187.8790  176.4950  147.0050 O   0  0  0  0  0  0  0  0  0  0  0  0
  193.6030  176.3200  146.8180 N   0  0  0  0  0  2  0  0  0  0  0  0
  194.5440  175.3530  146.4400 N   0  0  0  0  0  2  0  0  0  0  0  0
  189.8130  175.0400  141.7270 C   0  0  0  0  0  2  0  0  0  0  0  0
  192.2930  175.7430  146.5640 C   0  0  2  0  0  3  0  0  0  0  0  0
  190.0400  176.6080  146.1870 N   0  0  0  0  0  0  0  0  0  0  0  0
  191.4600  176.6870  145.7290 C   0  0  1  0  0  3  0  0  0  0  0  0
  188.1370  176.5870  142.3190 O   0  0  0  0  0  0  0  0  0  0  0  0
  187.9880  172.8550  140.0660 O   0  0  0  0  0  0  0  0  0  0  0  0
  188.5740  172.8960  141.1790 C   0  0  0  0  0  0  0  0  0  0  0  0
  187.9900  172.2940  142.2870 O   0  0  0  0  0  1  0  0  0  0  0  0
  186.6000  176.6980  144.5350 C   0  0  0  0  0  2  0  0  0  0  0  0
  185.8060  179.2420  144.6760 C   0  0  0  0  0  3  0  0  0  0  0  0
  186.1630  178.0940  144.6110 C   0  0  0  0  0  0  0  0  0  0  0  0
  195.6890  172.3430  140.7180 C   0  0  0  0  0  2  0  0  0  0  0  0
  196.6500  171.6050  139.8050 C   0  0  0  0  0  2  0  0  0  0  0  0
  197.0110  172.4250  138.7370 O   0  0  0  0  0  1  0  0  0  0  0  0
  2 16  1  0  0  0  0
  3 10  2  0  0  0  0
  4 14  1  0  0  0  0
  5 15  1  0  0  0  0
  5 12  1  0  0  0  0
  6 23  1  0  0  0  0
  7 15  1  0  0  0  0
  8 28  1  6  0  0  0
  8  4  1  0  0  0  0
  9 18  1  0  0  0  0
 10  6  1  0  0  0  0
 11 26  1  6  0  0  0
 12 30  1  6  0  0  0
 12 24  1  0  0  0  0
 13  7  1  6  0  0  0
 13 17  1  0  0  0  0
 13  1  1  0  0  0  0
 14 26  1  0  0  0  0
 14 21  2  0  0  0  0
 15 20  2  1  0  0  0
 15  1  1  0  0  0  0
 16  6  2  0  0  0  0
 17 35  1  1  0  0  0
 17  9  1  0  0  0  0
 18  3  1  0  0  0  0
 18  2  2  0  0  0  0
 19 24  1  6  0  0  0
 19  8  1  0  0  0  0
 23 22  1  0  0  0  0
 25 22  1  1  0  0  0
 25 11  1  0  0  0  0
 27 26  1  6  0  0  0
 27 25  1  0  0  0  0
 27 11  1  0  0  0  0
 28 19  1  0  0  0  0
 29 30  2  0  0  0  0
 30 31  1  0  0  0  0
 32 34  1  0  0  0  0
 32  4  1  0  0  0  0
 34 33  3  0  0  0  0
 36 35  1  0  0  0  0
 37 36  1  0  0  0  0
M  END
>  <MODEL>
4

>  <REMARK>
 VINA RESULT:      -6.7      1.299      1.387
  Name = 
  5 active torsions:
  status: ('A' for Active; 'I' for Inactive)
    1  A    between atoms: N_4  and  C_14
    2  A    between atoms: C_11  and  C_16
    3  A    between atoms: C_14  and  C_19
    4  A    between atoms: C_22  and  C_32
    5  A    between atoms: C_23  and  C_32
                            x       y       z     vdW  Elec       q    Type
                         _______ _______ _______ _____ _____    ______ ____

>  <TORSDO>
F 5

$$$$
=
 OpenBabel11062418533D

 37 42  0  0  1  0  0  0  0  0999 V2000
  193.2000  171.7850  144.0290 O   0  0  0  0  0  0  0  0  0  0  0  0
  193.2510  170.3230  140.9000 C   0  0  0  0  0  3  0  0  0  0  0  0
  191.1680  169.7960  142.0140 C   0  0  0  0  0  3  0  0  0  0  0  0
  188.2740  176.4310  143.7450 N   0  0  0  0  0  0  0  0  0  0  0  0
  193.3190  173.8400  145.9870 O   0  0  0  0  0  0  0  0  0  0  0  0
  191.1630  171.1650  140.0110 C   0  0  0  0  0  0  0  0  0  0  0  0
  194.7150  171.3230  145.5910 C   0  0  0  0  0  2  0  0  0  0  0  0
  188.9390  175.2860  144.3840 C   0  0  1  0  0  3  0  0  0  0  0  0
  193.2480  169.0100  142.9550 O   0  0  0  0  0  0  0  0  0  0  0  0
  190.4700  170.5340  141.0540 C   0  0  0  0  0  3  0  0  0  0  0  0
  188.2090  174.5430  140.2340 C   0  0  2  0  0  3  0  0  0  0  0  0
  192.6540  174.8080  145.2260 C   0  0  1  0  0  3  0  0  0  0  0  0
  193.6780  170.6380  144.7140 C   0  0  2  0  0  3  0  0  0  0  0  0
  188.0060  176.4190  142.3310 C   0  0  0  0  0  0  0  0  0  0  0  0
  194.1750  172.8640  144.8970 P   0  0  1  0  0  0  0  0  0  0  0  0
  192.5540  171.0450  139.9300 C   0  0  0  0  0  3  0  0  0  0  0  0
  194.2780  169.5970  143.7570 C   0  0  2  0  0  3  0  0  0  0  0  0
  192.5620  169.7060  141.9540 C   0  0  0  0  0  0  0  0  0  0  0  0
  190.2580  175.6830  144.9400 C   0  0  2  0  0  3  0  0  0  0  0  0
  195.2020  173.5720  144.0400 O   0  0  0  0  0  0  0  0  0  0  0  0
  187.5330  177.4440  141.7710 O   0  0  0  0  0  0  0  0  0  0  0  0
  189.2270  172.5400  139.3390 N   0  0  0  0  0  2  0  0  0  0  0  0
  190.4720  171.9650  139.0520 N   0  0  0  0  0  2  0  0  0  0  0  0
  191.1530  174.4800  145.2090 C   0  0  0  0  0  2  0  0  0  0  0  0
  189.4990  173.7910  140.0290 C   0  0  2  0  0  3  0  0  0  0  0  0
  188.2670  175.2630  141.5410 N   0  0  0  0  0  0  0  0  0  0  0  0
  188.7170  173.8550  141.3200 C   0  0  1  0  0  3  0  0  0  0  0  0
  189.1210  175.5400  145.7570 O   0  0  0  0  0  0  0  0  0  0  0  0
  192.8040  176.3750  147.0340 O   0  0  0  0  0  1  0  0  0  0  0  0
  192.9590  176.1570  145.8050 C   0  0  0  0  0  0  0  0  0  0  0  0
  193.4440  177.1660  144.9810 O   0  0  0  0  0  0  0  0  0  0  0  0
  187.8670  177.5950  144.5360 C   0  0  0  0  0  2  0  0  0  0  0  0
  185.4910  177.1660  145.6740 C   0  0  0  0  0  3  0  0  0  0  0  0
  186.5630  177.3580  145.1620 C   0  0  0  0  0  0  0  0  0  0  0  0
  195.4460  170.1070  142.9140 C   0  0  0  0  0  2  0  0  0  0  0  0
  196.6500  169.1990  143.0740 C   0  0  0  0  0  2  0  0  0  0  0  0
  196.5450  168.4790  144.2630 O   0  0  0  0  0  1  0  0  0  0  0  0
  1 13  1  0  0  0  0
  1 15  1  0  0  0  0
  2 18  1  0  0  0  0
  4  8  1  0  0  0  0
  4 32  1  0  0  0  0
  6 10  2  0  0  0  0
  8 19  1  0  0  0  0
  8 28  1  1  0  0  0
  9 17  1  0  0  0  0
 10  3  1  0  0  0  0
 11 27  1  0  0  0  0
 11 26  1  1  0  0  0
 12 30  1  1  0  0  0
 12  5  1  0  0  0  0
 13  7  1  1  0  0  0
 14  4  1  0  0  0  0
 15 20  2  6  0  0  0
 15  7  1  0  0  0  0
 15  5  1  0  0  0  0
 16  6  1  0  0  0  0
 16  2  2  0  0  0  0
 17 35  1  6  0  0  0
 17 13  1  0  0  0  0
 18  3  2  0  0  0  0
 18  9  1  0  0  0  0
 19 24  1  1  0  0  0
 19 28  1  0  0  0  0
 21 14  2  0  0  0  0
 23 22  1  0  0  0  0
 23  6  1  0  0  0  0
 24 12  1  0  0  0  0
 25 22  1  6  0  0  0
 25 11  1  0  0  0  0
 25 27  1  0  0  0  0
 26 14  1  0  0  0  0
 27 26  1  1  0  0  0
 30 29  1  0  0  0  0
 31 30  2  0  0  0  0
 32 34  1  0  0  0  0
 34 33  3  0  0  0  0
 35 36  1  0  0  0  0
 36 37  1  0  0  0  0
M  END
>  <MODEL>
5

>  <REMARK>
 VINA RESULT:      -6.5      3.278      5.767
  Name = 
  5 active torsions:
  status: ('A' for Active; 'I' for Inactive)
    1  A    between atoms: N_4  and  C_14
    2  A    between atoms: C_11  and  C_16
    3  A    between atoms: C_14  and  C_19
    4  A    between atoms: C_22  and  C_32
    5  A    between atoms: C_23  and  C_32
                            x       y       z     vdW  Elec       q    Type
                         _______ _______ _______ _____ _____    ______ ____

>  <TORSDO>
F 5

$$$$
=
 OpenBabel11062418533D

 37 42  0  0  1  0  0  0  0  0999 V2000
  191.8200  175.1750  143.8410 O   0  0  0  0  0  0  0  0  0  0  0  0
  189.4930  172.6360  143.5740 C   0  0  0  0  0  3  0  0  0  0  0  0
  189.4090  174.0320  141.5980 C   0  0  0  0  0  3  0  0  0  0  0  0
  196.3750  173.9340  138.9770 N   0  0  0  0  0  0  0  0  0  0  0  0
  194.3580  176.4090  144.1740 O   0  0  0  0  0  0  0  0  0  0  0  0
  190.1200  171.7190  141.4240 C   0  0  0  0  0  0  0  0  0  0  0  0
  191.7790  176.6680  145.4900 C   0  0  0  0  0  2  0  0  0  0  0  0
  195.4450  174.8280  139.6830 C   0  0  1  0  0  3  0  0  0  0  0  0
  188.8520  174.9830  143.7460 O   0  0  0  0  0  0  0  0  0  0  0  0
  189.8580  172.9580  140.8230 C   0  0  0  0  0  3  0  0  0  0  0  0
  193.5330  171.1700  138.5540 C   0  0  2  0  0  3  0  0  0  0  0  0
  195.0820  175.4530  143.4540 C   0  0  1  0  0  3  0  0  0  0  0  0
  190.9090  176.1290  144.3640 C   0  0  2  0  0  3  0  0  0  0  0  0
  195.9550  172.6180  138.5770 C   0  0  0  0  0  0  0  0  0  0  0  0
  193.0660  175.5920  144.9080 P   0  0  1  0  0  0  0  0  0  0  0  0
  189.9220  171.5580  142.7990 C   0  0  0  0  0  3  0  0  0  0  0  0
  189.6070  175.4810  144.8560 C   0  0  2  0  0  3  0  0  0  0  0  0
  189.2470  173.8820  142.9790 C   0  0  0  0  0  0  0  0  0  0  0  0
  195.9330  175.1230  141.0540 C   0  0  2  0  0  3  0  0  0  0  0  0
  193.4430  174.4780  145.8600 O   0  0  0  0  0  0  0  0  0  0  0  0
  196.7860  171.8180  138.0680 O   0  0  0  0  0  0  0  0  0  0  0  0
  191.3140  170.8340  139.4530 N   0  0  0  0  0  2  0  0  0  0  0  0
  190.6270  170.6260  140.6570 N   0  0  0  0  0  2  0  0  0  0  0  0
  194.8280  175.6640  141.9530 C   0  0  0  0  0  2  0  0  0  0  0  0
  192.7000  171.0910  139.8070 C   0  0  2  0  0  3  0  0  0  0  0  0
  194.6050  172.1910  138.7450 N   0  0  0  0  0  0  0  0  0  0  0  0
  193.1780  172.3660  139.1520 C   0  0  1  0  0  3  0  0  0  0  0  0
  196.0880  176.0410  139.9980 O   0  0  0  0  0  0  0  0  0  0  0  0
  197.1180  174.6230  144.4110 O   0  0  0  0  0  1  0  0  0  0  0  0
  196.5280  175.5720  143.8320 C   0  0  0  0  0  0  0  0  0  0  0  0
  197.2290  176.7290  143.5160 O   0  0  0  0  0  0  0  0  0  0  0  0
  197.7380  174.3720  138.6640 C   0  0  0  0  0  2  0  0  0  0  0  0
  197.8070  175.5570  136.2740 C   0  0  0  0  0  3  0  0  0  0  0  0
  197.7770  175.0220  137.3520 C   0  0  0  0  0  0  0  0  0  0  0  0
  189.7930  174.4260  145.9460 C   0  0  0  0  0  2  0  0  0  0  0  0
  189.1540  174.8860  147.2420 C   0  0  0  0  0  2  0  0  0  0  0  0
  188.0510  175.6920  146.9660 O   0  0  0  0  0  1  0  0  0  0  0  0
  1 13  1  0  0  0  0
  1 15  1  0  0  0  0
  3 18  2  0  0  0  0
  4  8  1  0  0  0  0
  5 15  1  0  0  0  0
  6 16  1  0  0  0  0
  8 28  1  6  0  0  0
  8 19  1  0  0  0  0
  9 17  1  0  0  0  0
 10  6  2  0  0  0  0
 10  3  1  0  0  0  0
 11 26  1  1  0  0  0
 11 27  1  0  0  0  0
 11 25  1  0  0  0  0
 12 30  1  6  0  0  0
 12  5  1  0  0  0  0
 13 17  1  0  0  0  0
 13  7  1  1  0  0  0
 14 26  1  0  0  0  0
 14  4  1  0  0  0  0
 15  7  1  0  0  0  0
 15 20  2  1  0  0  0
 16  2  2  0  0  0  0
 17 35  1  1  0  0  0
 18  2  1  0  0  0  0
 18  9  1  0  0  0  0
 19 24  1  1  0  0  0
 21 14  2  0  0  0  0
 22 23  1  0  0  0  0
 23  6  1  0  0  0  0
 24 12  1  0  0  0  0
 25 22  1  6  0  0  0
 27 26  1  1  0  0  0
 27 25  1  0  0  0  0
 28 19  1  0  0  0  0
 30 29  1  0  0  0  0
 31 30  2  0  0  0  0
 32  4  1  0  0  0  0
 33 34  3  0  0  0  0
 34 32  1  0  0  0  0
 35 36  1  0  0  0  0
 37 36  1  0  0  0  0
M  END
>  <MODEL>
6

>  <REMARK>
 VINA RESULT:      -6.5      3.996      9.005
  Name = 
  5 active torsions:
  status: ('A' for Active; 'I' for Inactive)
    1  A    between atoms: N_4  and  C_14
    2  A    between atoms: C_11  and  C_16
    3  A    between atoms: C_14  and  C_19
    4  A    between atoms: C_22  and  C_32
    5  A    between atoms: C_23  and  C_32
                            x       y       z     vdW  Elec       q    Type
                         _______ _______ _______ _____ _____    ______ ____

>  <TORSDO>
F 5

$$$$
=
 OpenBabel11062418533D

 37 42  0  0  1  0  0  0  0  0999 V2000
  190.1140  176.1390  142.8890 O   0  0  0  0  0  0  0  0  0  0  0  0
  187.9950  173.5560  142.0130 C   0  0  0  0  0  3  0  0  0  0  0  0
  189.4620  174.0740  140.1580 C   0  0  0  0  0  3  0  0  0  0  0  0
  196.3140  173.4010  142.9850 N   0  0  0  0  0  0  0  0  0  0  0  0
  192.0750  177.5590  144.3770 O   0  0  0  0  0  0  0  0  0  0  0  0
  189.6150  171.9200  141.2660 C   0  0  0  0  0  0  0  0  0  0  0  0
  189.3700  178.1460  143.4920 C   0  0  0  0  0  2  0  0  0  0  0  0
  195.3630  174.4390  142.5600 C   0  0  1  0  0  3  0  0  0  0  0  0
  187.9020  175.7430  140.9390 O   0  0  0  0  0  0  0  0  0  0  0  0
  190.0550  172.8130  140.2790 C   0  0  0  0  0  3  0  0  0  0  0  0
  193.8580  170.5190  141.7380 C   0  0  2  0  0  3  0  0  0  0  0  0
  192.8670  176.4460  144.6770 C   0  0  1  0  0  3  0  0  0  0  0  0
  189.3050  177.1630  142.3340 C   0  0  2  0  0  3  0  0  0  0  0  0
  195.9700  172.0090  142.8690 C   0  0  0  0  0  0  0  0  0  0  0  0
  190.4720  177.0110  144.2950 P   0  0  1  0  0  0  0  0  0  0  0  0
  188.5740  172.2910  142.1230 C   0  0  0  0  0  3  0  0  0  0  0  0
  187.8810  176.6760  142.0250 C   0  0  2  0  0  3  0  0  0  0  0  0
  188.4450  174.4580  141.0380 C   0  0  0  0  0  0  0  0  0  0  0  0
  194.9360  175.2690  143.7150 C   0  0  2  0  0  3  0  0  0  0  0  0
  189.9260  176.3750  145.5550 O   0  0  0  0  0  0  0  0  0  0  0  0
  196.7430  171.1280  143.3320 O   0  0  0  0  0  0  0  0  0  0  0  0
  191.5570  170.4190  141.0020 N   0  0  0  0  0  2  0  0  0  0  0  0
  190.2450  170.6500  141.4370 N   0  0  0  0  0  2  0  0  0  0  0  0
  193.6570  176.0460  143.4220 C   0  0  0  0  0  2  0  0  0  0  0  0
  192.4320  170.8780  142.0680 C   0  0  2  0  0  3  0  0  0  0  0  0
  194.7610  171.5980  142.2370 N   0  0  0  0  0  0  0  0  0  0  0  0
  193.4700  171.8280  141.5190 C   0  0  1  0  0  3  0  0  0  0  0  0
  195.9060  175.7160  142.7980 O   0  0  0  0  0  0  0  0  0  0  0  0
  193.7240  176.0860  146.8880 O   0  0  0  0  0  1  0  0  0  0  0  0
  193.7430  176.7900  145.8450 C   0  0  0  0  0  0  0  0  0  0  0  0
  194.6020  177.8790  145.7630 O   0  0  0  0  0  0  0  0  0  0  0  0
  197.6270  173.7670  143.5230 C   0  0  0  0  0  2  0  0  0  0  0  0
  197.5660  173.7910  146.1910 C   0  0  0  0  0  3  0  0  0  0  0  0
  197.5930  173.7810  144.9880 C   0  0  0  0  0  0  0  0  0  0  0  0
  187.1170  176.1360  143.2330 C   0  0  0  0  0  2  0  0  0  0  0  0
  185.8080  176.8820  143.4070 C   0  0  0  0  0  2  0  0  0  0  0  0
  185.5500  177.6550  142.2760 O   0  0  0  0  0  1  0  0  0  0  0  0
  1 15  1  0  0  0  0
  2 16  1  0  0  0  0
  3 10  2  0  0  0  0
  3 18  1  0  0  0  0
  4 32  1  0  0  0  0
  5 12  1  0  0  0  0
  6 23  1  0  0  0  0
  6 16  2  0  0  0  0
  7 15  1  0  0  0  0
  8 28  1  6  0  0  0
  8  4  1  0  0  0  0
  8 19  1  0  0  0  0
  9 18  1  0  0  0  0
  9 17  1  0  0  0  0
 10  6  1  0  0  0  0
 11 25  1  0  0  0  0
 11 26  1  1  0  0  0
 12 30  1  1  0  0  0
 13  1  1  0  0  0  0
 13  7  1  1  0  0  0
 14  4  1  0  0  0  0
 14 21  2  0  0  0  0
 15  5  1  0  0  0  0
 15 20  2  1  0  0  0
 17 13  1  0  0  0  0
 17 35  1  1  0  0  0
 18  2  2  0  0  0  0
 19 24  1  6  0  0  0
 22 23  1  0  0  0  0
 24 12  1  0  0  0  0
 25 22  1  6  0  0  0
 26 14  1  0  0  0  0
 27 11  1  0  0  0  0
 27 25  1  0  0  0  0
 27 26  1  1  0  0  0
 28 19  1  0  0  0  0
 30 29  1  0  0  0  0
 31 30  2  0  0  0  0
 32 34  1  0  0  0  0
 34 33  3  0  0  0  0
 35 36  1  0  0  0  0
 37 36  1  0  0  0  0
M  END
>  <MODEL>
7

>  <REMARK>
 VINA RESULT:      -6.4      3.298      8.744
  Name = 
  5 active torsions:
  status: ('A' for Active; 'I' for Inactive)
    1  A    between atoms: N_4  and  C_14
    2  A    between atoms: C_11  and  C_16
    3  A    between atoms: C_14  and  C_19
    4  A    between atoms: C_22  and  C_32
    5  A    between atoms: C_23  and  C_32
                            x       y       z     vdW  Elec       q    Type
                         _______ _______ _______ _____ _____    ______ ____

>  <TORSDO>
F 5

$$$$
=
 OpenBabel11062418533D

 37 42  0  0  1  0  0  0  0  0999 V2000
  192.5390  172.7370  144.2770 O   0  0  0  0  0  0  0  0  0  0  0  0
  192.3840  172.2080  140.8670 C   0  0  0  0  0  3  0  0  0  0  0  0
  190.4090  171.2930  141.9270 C   0  0  0  0  0  3  0  0  0  0  0  0
  187.4830  177.0390  145.6440 N   0  0  0  0  0  0  0  0  0  0  0  0
  192.7560  174.1700  146.7210 O   0  0  0  0  0  0  0  0  0  0  0  0
  190.2110  173.1640  140.3950 C   0  0  0  0  0  0  0  0  0  0  0  0
  194.1840  171.9320  145.5400 C   0  0  0  0  0  2  0  0  0  0  0  0
  188.2260  175.7940  145.8890 C   0  0  1  0  0  3  0  0  0  0  0  0
  192.5780  170.3770  142.4660 O   0  0  0  0  0  0  0  0  0  0  0  0
  189.6190  172.2360  141.2620 C   0  0  0  0  0  3  0  0  0  0  0  0
  187.1940  176.2010  141.7570 C   0  0  2  0  0  3  0  0  0  0  0  0
  192.0080  175.2780  146.3100 C   0  0  1  0  0  3  0  0  0  0  0  0
  193.1000  171.4690  144.5780 C   0  0  2  0  0  3  0  0  0  0  0  0
  187.1050  177.4080  144.3060 C   0  0  0  0  0  0  0  0  0  0  0  0
  193.5490  173.5780  145.3450 P   0  0  1  0  0  0  0  0  0  0  0  0
  191.5940  173.1370  140.1890 C   0  0  0  0  0  3  0  0  0  0  0  0
  193.6510  170.7660  143.3290 C   0  0  2  0  0  3  0  0  0  0  0  0
  191.7960  171.2900  141.7500 C   0  0  0  0  0  0  0  0  0  0  0  0
  189.5730  176.0840  146.4440 C   0  0  2  0  0  3  0  0  0  0  0  0
  194.4870  174.5450  144.6540 O   0  0  0  0  0  0  0  0  0  0  0  0
  186.5630  178.5250  144.0890 O   0  0  0  0  0  0  0  0  0  0  0  0
  188.1910  174.5780  140.2690 N   0  0  0  0  0  2  0  0  0  0  0  0
  189.4260  174.1660  139.7480 N   0  0  0  0  0  2  0  0  0  0  0  0
  190.5190  174.8970  146.3030 C   0  0  0  0  0  2  0  0  0  0  0  0
  188.4830  175.5980  141.2620 C   0  0  2  0  0  3  0  0  0  0  0  0
  187.3340  176.5310  143.2070 N   0  0  0  0  0  0  0  0  0  0  0  0
  187.8030  175.2630  142.5690 C   0  0  1  0  0  3  0  0  0  0  0  0
  188.5090  175.6640  147.2630 O   0  0  0  0  0  0  0  0  0  0  0  0
  193.3150  177.1660  147.0020 O   0  0  0  0  0  0  0  0  0  0  0  0
  192.3210  176.4260  147.2220 C   0  0  0  0  0  0  0  0  0  0  0  0
  191.4910  176.6910  148.3050 O   0  0  0  0  0  1  0  0  0  0  0  0
  187.1080  177.9160  146.7560 C   0  0  0  0  0  2  0  0  0  0  0  0
  184.4520  178.1270  146.9200 C   0  0  0  0  0  3  0  0  0  0  0  0
  185.6500  178.0330  146.8470 C   0  0  0  0  0  0  0  0  0  0  0  0
  194.7350  171.5450  142.5860 C   0  0  0  0  0  2  0  0  0  0  0  0
  195.9650  170.6820  142.3870 C   0  0  0  0  0  2  0  0  0  0  0  0
  195.9980  169.6750  143.3510 O   0  0  0  0  0  1  0  0  0  0  0  0
  1 13  1  0  0  0  0
  1 15  1  0  0  0  0
  2 18  1  0  0  0  0
  4  8  1  0  0  0  0
  4 32  1  0  0  0  0
  6 10  2  0  0  0  0
  8 19  1  0  0  0  0
  8 28  1  1  0  0  0
  9 17  1  0  0  0  0
 10  3  1  0  0  0  0
 11 27  1  0  0  0  0
 11 26  1  1  0  0  0
 12  5  1  0  0  0  0
 12 30  1  1  0  0  0
 13  7  1  1  0  0  0
 14  4  1  0  0  0  0
 15 20  2  6  0  0  0
 15  7  1  0  0  0  0
 15  5  1  0  0  0  0
 16  6  1  0  0  0  0
 16  2  2  0  0  0  0
 17 35  1  6  0  0  0
 17 13  1  0  0  0  0
 18  3  2  0  0  0  0
 18  9  1  0  0  0  0
 19 24  1  6  0  0  0
 19 28  1  0  0  0  0
 21 14  2  0  0  0  0
 23 22  1  0  0  0  0
 23  6  1  0  0  0  0
 24 12  1  0  0  0  0
 25 22  1  6  0  0  0
 25 11  1  0  0  0  0
 25 27  1  0  0  0  0
 26 14  1  0  0  0  0
 27 26  1  1  0  0  0
 29 30  2  0  0  0  0
 30 31  1  0  0  0  0
 32 34  1  0  0  0  0
 34 33  3  0  0  0  0
 36 35  1  0  0  0  0
 36 37  1  0  0  0  0
M  END
>  <MODEL>
8

>  <REMARK>
 VINA RESULT:      -6.4      2.898      5.445
  Name = 
  5 active torsions:
  status: ('A' for Active; 'I' for Inactive)
    1  A    between atoms: N_4  and  C_14
    2  A    between atoms: C_11  and  C_16
    3  A    between atoms: C_14  and  C_19
    4  A    between atoms: C_22  and  C_32
    5  A    between atoms: C_23  and  C_32
                            x       y       z     vdW  Elec       q    Type
                         _______ _______ _______ _____ _____    ______ ____

>  <TORSDO>
F 5

$$$$
=
 OpenBabel11062418533D

 37 42  0  0  1  0  0  0  0  0999 V2000
  192.9050  174.1250  140.0190 O   0  0  0  0  0  0  0  0  0  0  0  0
  196.2920  174.1780  140.6890 C   0  0  0  0  0  3  0  0  0  0  0  0
  195.3850  176.4140  140.8860 C   0  0  0  0  0  3  0  0  0  0  0  0
  189.9050  175.7440  145.8780 N   0  0  0  0  0  0  0  0  0  0  0  0
  190.1740  173.3760  140.2640 O   0  0  0  0  0  0  0  0  0  0  0  0
  196.2760  175.2850  142.8410 C   0  0  0  0  0  0  0  0  0  0  0  0
  192.0800  173.4380  138.0710 C   0  0  0  0  0  2  0  0  0  0  0  0
  190.1020  175.9210  144.4310 C   0  0  1  0  0  3  0  0  0  0  0  0
  195.3270  175.2940  138.7470 O   0  0  0  0  0  0  0  0  0  0  0  0
  195.6730  176.4070  142.2550 C   0  0  0  0  0  3  0  0  0  0  0  0
  193.8280  176.0330  146.5330 C   0  0  2  0  0  3  0  0  0  0  0  0
  190.1760  173.2660  141.6590 C   0  0  1  0  0  3  0  0  0  0  0  0
  193.0390  174.4670  138.6490 C   0  0  2  0  0  3  0  0  0  0  0  0
  191.0380  175.6740  146.7620 C   0  0  0  0  0  0  0  0  0  0  0  0
  191.7260  172.9420  139.7380 P   0  0  1  0  0  0  0  0  0  0  0  0
  196.5970  174.1770  142.0510 C   0  0  0  0  0  3  0  0  0  0  0  0
  194.4820  174.3060  138.1490 C   0  0  2  0  0  3  0  0  0  0  0  0
  195.6730  175.2910  140.1030 C   0  0  0  0  0  0  0  0  0  0  0  0
  189.6040  174.7390  143.6820 C   0  0  2  0  0  3  0  0  0  0  0  0
  192.1790  171.5420  140.0960 O   0  0  0  0  0  0  0  0  0  0  0  0
  190.8690  175.4170  147.9840 O   0  0  0  0  0  0  0  0  0  0  0  0
  195.8070  176.0370  145.1450 N   0  0  0  0  0  2  0  0  0  0  0  0
  196.5300  175.2410  144.2450 N   0  0  0  0  0  2  0  0  0  0  0  0
  190.1680  174.6770  142.2680 C   0  0  0  0  0  2  0  0  0  0  0  0
  194.5860  175.3100  145.4500 C   0  0  2  0  0  3  0  0  0  0  0  0
  192.3630  175.8890  146.2820 N   0  0  0  0  0  0  0  0  0  0  0  0
  193.3820  176.1980  145.2340 C   0  0  1  0  0  3  0  0  0  0  0  0
  188.8570  175.9280  143.7730 O   0  0  0  0  0  0  0  0  0  0  0  0
  189.1170  171.5410  142.9450 O   0  0  0  0  0  1  0  0  0  0  0  0
  188.9960  172.4370  142.0690 C   0  0  0  0  0  0  0  0  0  0  0  0
  187.7530  172.6790  141.4970 O   0  0  0  0  0  0  0  0  0  0  0  0
  188.5570  175.6470  146.4410 C   0  0  0  0  0  2  0  0  0  0  0  0
  187.6040  178.0760  147.0010 C   0  0  0  0  0  3  0  0  0  0  0  0
  188.0320  176.9800  146.7490 C   0  0  0  0  0  0  0  0  0  0  0  0
  195.0530  172.8960  138.2940 C   0  0  0  0  0  2  0  0  0  0  0  0
  196.0020  172.5890  137.1510 C   0  0  0  0  0  2  0  0  0  0  0  0
  197.3120  172.8630  137.5390 O   0  0  0  0  0  1  0  0  0  0  0  0
  2 16  1  0  0  0  0
  3 10  2  0  0  0  0
  4 32  1  0  0  0  0
  4 14  1  0  0  0  0
  5 12  1  0  0  0  0
  6 23  1  0  0  0  0
  7 15  1  0  0  0  0
  8 28  1  6  0  0  0
  8  4  1  0  0  0  0
  9 18  1  0  0  0  0
 10  6  1  0  0  0  0
 11 26  1  1  0  0  0
 12 30  1  1  0  0  0
 12 24  1  0  0  0  0
 13  7  1  6  0  0  0
 13  1  1  0  0  0  0
 14 21  2  0  0  0  0
 15  1  1  0  0  0  0
 15 20  2  1  0  0  0
 15  5  1  0  0  0  0
 16  6  2  0  0  0  0
 17 35  1  1  0  0  0
 17 13  1  0  0  0  0
 17  9  1  0  0  0  0
 18  2  2  0  0  0  0
 18  3  1  0  0  0  0
 19 24  1  6  0  0  0
 19 28  1  0  0  0  0
 19  8  1  0  0  0  0
 23 22  1  0  0  0  0
 25 22  1  6  0  0  0
 25 11  1  0  0  0  0
 26 14  1  0  0  0  0
 27 25  1  0  0  0  0
 27 26  1  1  0  0  0
 27 11  1  0  0  0  0
 30 29  1  0  0  0  0
 31 30  2  0  0  0  0
 32 34  1  0  0  0  0
 34 33  3  0  0  0  0
 36 37  1  0  0  0  0
 36 35  1  0  0  0  0
M  END
>  <MODEL>
9

>  <REMARK>
 VINA RESULT:      -6.3      2.332      3.438
  Name = 
  5 active torsions:
  status: ('A' for Active; 'I' for Inactive)
    1  A    between atoms: N_4  and  C_14
    2  A    between atoms: C_11  and  C_16
    3  A    between atoms: C_14  and  C_19
    4  A    between atoms: C_22  and  C_32
    5  A    between atoms: C_23  and  C_32
                            x       y       z     vdW  Elec       q    Type
                         _______ _______ _______ _____ _____    ______ ____

>  <TORSDO>
F 5

$$$$
