=
 OpenBabel11062419073D

 32 34  0  0  1  0  0  0  0  0999 V2000
  188.2690  176.7000  144.3910 C   0  0  1  0  0  3  0  0  0  0  0  0
  188.7630  175.2470  146.3890 C   0  0  0  0  0  3  0  0  0  0  0  0
  190.6770  175.6720  147.7510 N   0  0  0  0  0  0  0  0  0  0  0  0
  190.2540  177.0770  145.8660 C   0  0  0  0  0  3  0  0  0  0  0  0
  191.0330  176.7300  146.9710 C   0  0  0  0  0  3  0  0  0  0  0  0
  189.5680  174.9300  147.4840 C   0  0  0  0  0  3  0  0  0  0  0  0
  189.1130  176.3260  145.5690 C   0  0  0  0  0  0  0  0  0  0  0  0
  187.8400  178.0360  144.5080 O   0  0  0  0  0  0  0  0  0  0  0  0
  186.4350  178.0650  144.6800 C   0  0  1  0  0  3  0  0  0  0  0  0
  185.1920  176.8930  146.4800 C   0  0  0  0  0  2  0  0  0  0  0  0
  184.4920  178.2100  146.2160 C   0  0  0  0  0  2  0  0  0  0  0  0
  186.0030  178.1280  146.1450 C   0  0  0  0  0  3  0  0  0  0  0  0
  185.7390  179.1230  143.8250 C   0  0  0  0  0  2  0  0  0  0  0  0
  184.0210  178.1090  142.5310 O   0  0  0  0  0  0  0  0  0  0  0  0
  185.2140  178.5140  142.5730 C   0  0  0  0  0  0  0  0  0  0  0  0
  186.0390  178.4330  141.4490 O   0  0  0  0  0  0  0  0  0  0  0  0
  185.6290  177.7940  140.2460 C   0  0  0  0  0  2  0  0  0  0  0  0
  186.7420  177.2830  139.5790 O   0  0  0  0  0  1  0  0  0  0  0  0
  189.0240  176.5350  143.1540 N   0  0  0  0  0  2  0  0  0  0  0  0
  188.4820  175.3790  142.4580 C   0  0  2  0  0  3  0  0  0  0  0  0
  187.0890  175.4250  142.4890 O   0  0  0  0  0  1  0  0  0  0  0  0
  188.9660  174.1020  143.1180 C   0  0  0  0  0  2  0  0  0  0  0  0
  190.6340  172.0980  142.3420 O   0  0  0  0  0  1  0  0  0  0  0  0
  190.5540  173.6080  142.3930 P   0  0  1  0  0  0  0  0  0  0  0  0
  190.6740  174.2280  140.8210 O   0  0  0  0  0  0  0  0  0  0  0  0
  194.3720  174.5790  145.5410 C   0  0  0  0  0  2  0  0  0  0  0  0
  191.8920  174.2480  143.4000 C   0  0  0  0  0  0  0  0  0  0  0  0
  194.5820  175.3740  144.2480 C   0  0  0  0  0  2  0  0  0  0  0  0
  192.5520  173.2970  144.3700 C   0  0  0  0  0  2  0  0  0  0  0  0
  192.3090  175.5100  143.1730 C   0  0  0  0  0  3  0  0  0  0  0  0
  193.3770  176.2520  143.9340 C   0  0  0  0  0  2  0  0  0  0  0  0
  192.9720  173.9720  145.6670 C   0  0  0  0  0  2  0  0  0  0  0  0
  1 19  1  6  0  0  0
  1  8  1  0  0  0  0
  1  7  1  0  0  0  0
  2  6  1  0  0  0  0
  4  5  2  0  0  0  0
  5  3  1  0  0  0  0
  6  3  2  0  0  0  0
  7  4  1  0  0  0  0
  7  2  2  0  0  0  0
  8  9  1  0  0  0  0
  9 13  1  6  0  0  0
  9 12  1  0  0  0  0
 11 10  1  0  0  0  0
 12 11  1  0  0  0  0
 12 10  1  0  0  0  0
 14 15  2  0  0  0  0
 15 13  1  0  0  0  0
 16 15  1  0  0  0  0
 17 16  1  0  0  0  0
 18 17  1  0  0  0  0
 20 21  1  1  0  0  0
 20 22  1  0  0  0  0
 20 19  1  0  0  0  0
 23 24  1  0  0  0  0
 24 25  2  6  0  0  0
 24 22  1  0  0  0  0
 24 27  1  0  0  0  0
 26 32  1  0  0  0  0
 27 29  1  0  0  0  0
 28 26  1  0  0  0  0
 29 32  1  0  0  0  0
 30 27  2  0  0  0  0
 30 31  1  0  0  0  0
 31 28  1  0  0  0  0
M  END
>  <MODEL>
1

>  <REMARK>
 VINA RESULT:      -6.3      0.000      0.000
  Name = 
  13 active torsions:
  status: ('A' for Active; 'I' for Inactive)
    1  A    between atoms: C_1  and  C_7
    2  A    between atoms: C_1  and  O_11
    3  A    between atoms: C_1  and  C_18
    4  A    between atoms: C_5  and  C_12
    5  A    between atoms: C_5  and  N_23
    6  A    between atoms: C_7  and  C_28
    7  A    between atoms: C_9  and  O_22
    8  A    between atoms: C_10  and  O_11
    9  A    between atoms: C_10  and  C_21
   10  A    between atoms: C_10  and  N_23
   11  A    between atoms: C_12  and  P_29
   12  A    between atoms: C_17  and  P_29
   13  A    between atoms: O_22  and  C_28
                            x       y       z     vdW  Elec       q    Type
                         _______ _______ _______ _____ _____    ______ ____

>  <TORSDO>
F 13

$$$$
=
 OpenBabel11062419073D

 32 34  0  0  1  0  0  0  0  0999 V2000
  188.4350  177.1740  144.3730 C   0  0  1  0  0  3  0  0  0  0  0  0
  190.3690  177.0090  145.9800 C   0  0  0  0  0  3  0  0  0  0  0  0
  190.4110  175.3050  147.6520 N   0  0  0  0  0  0  0  0  0  0  0  0
  188.5540  175.4210  146.1530 C   0  0  0  0  0  3  0  0  0  0  0  0
  189.2130  174.8170  147.2260 C   0  0  0  0  0  3  0  0  0  0  0  0
  190.9960  176.3790  147.0560 C   0  0  0  0  0  3  0  0  0  0  0  0
  189.1330  176.5290  145.5300 C   0  0  0  0  0  0  0  0  0  0  0  0
  187.8620  178.3960  144.7740 O   0  0  0  0  0  0  0  0  0  0  0  0
  186.4610  178.2360  144.9100 C   0  0  1  0  0  3  0  0  0  0  0  0
  185.5100  177.2080  146.9590 C   0  0  0  0  0  2  0  0  0  0  0  0
  184.4780  178.1640  146.3980 C   0  0  0  0  0  2  0  0  0  0  0  0
  185.9510  178.5110  146.3230 C   0  0  0  0  0  3  0  0  0  0  0  0
  185.6570  178.9850  143.8470 C   0  0  0  0  0  2  0  0  0  0  0  0
  185.1460  176.7900  143.0900 O   0  0  0  0  0  0  0  0  0  0  0  0
  184.9180  178.0250  142.9830 C   0  0  0  0  0  0  0  0  0  0  0  0
  183.9550  178.5030  142.0920 O   0  0  0  0  0  0  0  0  0  0  0  0
  184.0710  178.3400  140.6840 C   0  0  0  0  0  2  0  0  0  0  0  0
  182.8440  177.9450  140.1500 O   0  0  0  0  0  1  0  0  0  0  0  0
  189.3740  177.4090  143.2820 N   0  0  0  0  0  2  0  0  0  0  0  0
  188.7770  176.8820  142.0660 C   0  0  2  0  0  3  0  0  0  0  0  0
  188.0280  177.8800  141.4420 O   0  0  0  0  0  1  0  0  0  0  0  0
  187.8820  175.7030  142.3960 C   0  0  0  0  0  2  0  0  0  0  0  0
  187.6800  173.0210  141.9890 O   0  0  0  0  0  1  0  0  0  0  0  0
  188.6240  174.1780  141.7520 P   0  0  1  0  0  0  0  0  0  0  0  0
  188.8990  174.3440  140.0880 O   0  0  0  0  0  0  0  0  0  0  0  0
  193.3550  173.7650  143.4490 C   0  0  0  0  0  2  0  0  0  0  0  0
  190.1760  173.8710  142.5950 C   0  0  0  0  0  0  0  0  0  0  0  0
  192.4160  173.9670  144.6430 C   0  0  0  0  0  2  0  0  0  0  0  0
  191.4400  174.3710  141.9350 C   0  0  0  0  0  2  0  0  0  0  0  0
  190.1330  173.3020  143.8160 C   0  0  0  0  0  3  0  0  0  0  0  0
  191.3150  172.9150  144.6670 C   0  0  0  0  0  2  0  0  0  0  0  0
  192.6240  173.4390  142.1430 C   0  0  0  0  0  2  0  0  0  0  0  0
  1 19  1  6  0  0  0
  1  8  1  0  0  0  0
  1  7  1  0  0  0  0
  2  6  1  0  0  0  0
  4  5  2  0  0  0  0
  5  3  1  0  0  0  0
  6  3  2  0  0  0  0
  7  2  2  0  0  0  0
  7  4  1  0  0  0  0
  8  9  1  0  0  0  0
  9 13  1  6  0  0  0
  9 12  1  0  0  0  0
 11 10  1  0  0  0  0
 12 11  1  0  0  0  0
 12 10  1  0  0  0  0
 15 14  2  0  0  0  0
 15 13  1  0  0  0  0
 16 15  1  0  0  0  0
 17 16  1  0  0  0  0
 18 17  1  0  0  0  0
 20 21  1  1  0  0  0
 20 22  1  0  0  0  0
 20 19  1  0  0  0  0
 24 25  2  6  0  0  0
 24 23  1  0  0  0  0
 24 22  1  0  0  0  0
 24 27  1  0  0  0  0
 26 28  1  0  0  0  0
 27 30  2  0  0  0  0
 28 31  1  0  0  0  0
 29 32  1  0  0  0  0
 29 27  1  0  0  0  0
 30 31  1  0  0  0  0
 32 26  1  0  0  0  0
M  END
>  <MODEL>
2

>  <REMARK>
 VINA RESULT:      -6.2      1.437      2.159
  Name = 
  13 active torsions:
  status: ('A' for Active; 'I' for Inactive)
    1  A    between atoms: C_1  and  C_7
    2  A    between atoms: C_1  and  O_11
    3  A    between atoms: C_1  and  C_18
    4  A    between atoms: C_5  and  C_12
    5  A    between atoms: C_5  and  N_23
    6  A    between atoms: C_7  and  C_28
    7  A    between atoms: C_9  and  O_22
    8  A    between atoms: C_10  and  O_11
    9  A    between atoms: C_10  and  C_21
   10  A    between atoms: C_10  and  N_23
   11  A    between atoms: C_12  and  P_29
   12  A    between atoms: C_17  and  P_29
   13  A    between atoms: O_22  and  C_28
                            x       y       z     vdW  Elec       q    Type
                         _______ _______ _______ _____ _____    ______ ____

>  <TORSDO>
F 13

$$$$
=
 OpenBabel11062419073D

 32 34  0  0  1  0  0  0  0  0999 V2000
  187.8920  176.0340  142.7290 C   0  0  1  0  0  3  0  0  0  0  0  0
  185.6360  177.1470  142.8730 C   0  0  0  0  0  3  0  0  0  0  0  0
  184.6850  178.2070  140.9560 N   0  0  0  0  0  0  0  0  0  0  0  0
  186.8280  177.1670  140.7690 C   0  0  0  0  0  3  0  0  0  0  0  0
  185.7690  177.8780  140.2000 C   0  0  0  0  0  3  0  0  0  0  0  0
  184.5990  177.8590  142.2680 C   0  0  0  0  0  3  0  0  0  0  0  0
  186.7640  176.8050  142.1170 C   0  0  0  0  0  0  0  0  0  0  0  0
  187.8610  176.1630  144.1310 O   0  0  0  0  0  0  0  0  0  0  0  0
  189.0790  176.7310  144.5780 C   0  0  1  0  0  3  0  0  0  0  0  0
  190.8770  177.4270  143.0150 C   0  0  0  0  0  2  0  0  0  0  0  0
  190.9190  178.3540  144.2120 C   0  0  0  0  0  2  0  0  0  0  0  0
  189.5880  177.8600  143.6830 C   0  0  0  0  0  3  0  0  0  0  0  0
  189.0610  177.1260  146.0550 C   0  0  0  0  0  2  0  0  0  0  0  0
  188.6180  175.0700  147.1640 O   0  0  0  0  0  0  0  0  0  0  0  0
  188.1850  176.2040  146.8270 C   0  0  0  0  0  0  0  0  0  0  0  0
  186.9050  176.6240  147.2000 O   0  0  0  0  0  0  0  0  0  0  0  0
  186.5610  177.9980  147.3290 C   0  0  0  0  0  2  0  0  0  0  0  0
  185.7580  178.3880  146.2560 O   0  0  0  0  0  1  0  0  0  0  0  0
  187.7990  174.6250  142.3660 N   0  0  0  0  0  2  0  0  0  0  0  0
  189.1220  174.1890  141.9520 C   0  0  2  0  0  3  0  0  0  0  0  0
  189.0100  173.3120  140.8730 O   0  0  0  0  0  1  0  0  0  0  0  0
  189.8230  173.4940  143.1030 C   0  0  0  0  0  2  0  0  0  0  0  0
  192.1830  172.1980  142.7110 O   0  0  0  0  0  1  0  0  0  0  0  0
  191.6190  173.5920  142.8700 P   0  0  1  0  0  0  0  0  0  0  0  0
  191.9580  174.4940  141.4770 O   0  0  0  0  0  0  0  0  0  0  0  0
  194.3450  176.0640  146.3180 C   0  0  0  0  0  2  0  0  0  0  0  0
  192.3620  174.3830  144.2980 C   0  0  0  0  0  0  0  0  0  0  0  0
  192.8580  176.2920  146.6070 C   0  0  0  0  0  2  0  0  0  0  0  0
  193.6880  175.0780  144.0990 C   0  0  0  0  0  2  0  0  0  0  0  0
  191.6580  174.4060  145.4480 C   0  0  0  0  0  3  0  0  0  0  0  0
  192.1160  174.9710  146.7670 C   0  0  0  0  0  2  0  0  0  0  0  0
  194.6090  174.9490  145.3030 C   0  0  0  0  0  2  0  0  0  0  0  0
  1 19  1  1  0  0  0
  1  8  1  0  0  0  0
  3  6  2  0  0  0  0
  4  7  1  0  0  0  0
  5  4  2  0  0  0  0
  5  3  1  0  0  0  0
  6  2  1  0  0  0  0
  7  1  1  0  0  0  0
  7  2  2  0  0  0  0
  8  9  1  0  0  0  0
  9 13  1  1  0  0  0
 10 12  1  0  0  0  0
 10 11  1  0  0  0  0
 12 11  1  0  0  0  0
 12  9  1  0  0  0  0
 13 15  1  0  0  0  0
 15 14  2  0  0  0  0
 15 16  1  0  0  0  0
 16 17  1  0  0  0  0
 18 17  1  0  0  0  0
 20 21  1  6  0  0  0
 20 19  1  0  0  0  0
 20 22  1  0  0  0  0
 23 24  1  0  0  0  0
 24 25  2  6  0  0  0
 24 22  1  0  0  0  0
 24 27  1  0  0  0  0
 26 28  1  0  0  0  0
 27 30  2  0  0  0  0
 28 31  1  0  0  0  0
 29 27  1  0  0  0  0
 29 32  1  0  0  0  0
 30 31  1  0  0  0  0
 32 26  1  0  0  0  0
M  END
>  <MODEL>
3

>  <REMARK>
 VINA RESULT:      -6.1      2.222      4.790
  Name = 
  13 active torsions:
  status: ('A' for Active; 'I' for Inactive)
    1  A    between atoms: C_1  and  C_7
    2  A    between atoms: C_1  and  O_11
    3  A    between atoms: C_1  and  C_18
    4  A    between atoms: C_5  and  C_12
    5  A    between atoms: C_5  and  N_23
    6  A    between atoms: C_7  and  C_28
    7  A    between atoms: C_9  and  O_22
    8  A    between atoms: C_10  and  O_11
    9  A    between atoms: C_10  and  C_21
   10  A    between atoms: C_10  and  N_23
   11  A    between atoms: C_12  and  P_29
   12  A    between atoms: C_17  and  P_29
   13  A    between atoms: O_22  and  C_28
                            x       y       z     vdW  Elec       q    Type
                         _______ _______ _______ _____ _____    ______ ____

>  <TORSDO>
F 13

$$$$
=
 OpenBabel11062419073D

 32 34  0  0  1  0  0  0  0  0999 V2000
  191.3110  175.3670  144.0530 C   0  0  1  0  0  3  0  0  0  0  0  0
  189.9940  173.2490  144.4120 C   0  0  0  0  0  3  0  0  0  0  0  0
  189.7790  171.6440  142.6570 N   0  0  0  0  0  0  0  0  0  0  0  0
  191.0370  173.6380  142.2650 C   0  0  0  0  0  3  0  0  0  0  0  0
  190.5300  172.4150  141.8210 C   0  0  0  0  0  3  0  0  0  0  0  0
  189.5040  172.0330  143.9300 C   0  0  0  0  0  3  0  0  0  0  0  0
  190.7620  174.0610  143.5680 C   0  0  0  0  0  0  0  0  0  0  0  0
  192.4630  175.1470  144.8330 O   0  0  0  0  0  0  0  0  0  0  0  0
  192.3970  175.9440  146.0010 C   0  0  1  0  0  3  0  0  0  0  0  0
  190.4450  175.4330  147.4450 C   0  0  0  0  0  2  0  0  0  0  0  0
  191.4670  176.1630  148.2900 C   0  0  0  0  0  2  0  0  0  0  0  0
  191.9230  175.1770  147.2350 C   0  0  0  0  0  3  0  0  0  0  0  0
  193.6760  176.7380  146.2690 C   0  0  0  0  0  2  0  0  0  0  0  0
  195.3420  175.0520  146.0870 O   0  0  0  0  0  0  0  0  0  0  0  0
  194.8360  176.0950  145.5940 C   0  0  0  0  0  0  0  0  0  0  0  0
  195.3250  176.6360  144.4030 O   0  0  0  0  0  0  0  0  0  0  0  0
  195.9110  175.8330  143.3850 C   0  0  0  0  0  2  0  0  0  0  0  0
  194.9180  175.1130  142.7200 O   0  0  0  0  0  1  0  0  0  0  0  0
  191.6420  176.2270  142.9230 N   0  0  0  0  0  2  0  0  0  0  0  0
  190.8450  177.4370  143.0420 C   0  0  2  0  0  3  0  0  0  0  0  0
  191.6610  178.4980  143.4330 O   0  0  0  0  0  1  0  0  0  0  0  0
  189.7440  177.2350  144.0650 C   0  0  0  0  0  2  0  0  0  0  0  0
  188.1500  178.2870  142.1290 O   0  0  0  0  0  0  0  0  0  0  0  0
  188.1310  177.2560  143.2360 P   0  0  1  0  0  0  0  0  0  0  0  0
  187.8170  175.7290  142.5740 O   0  0  0  0  0  1  0  0  0  0  0  0
  184.1190  178.7780  145.8840 C   0  0  0  0  0  2  0  0  0  0  0  0
  186.8570  177.6740  144.4260 C   0  0  0  0  0  0  0  0  0  0  0  0
  184.5930  177.4300  146.4360 C   0  0  0  0  0  2  0  0  0  0  0  0
  185.6510  178.4310  143.9200 C   0  0  0  0  0  2  0  0  0  0  0  0
  186.9860  177.2080  145.6840 C   0  0  0  0  0  3  0  0  0  0  0  0
  186.0610  177.4830  146.8420 C   0  0  0  0  0  2  0  0  0  0  0  0
  185.1190  179.4370  144.9300 C   0  0  0  0  0  2  0  0  0  0  0  0
  1 19  1  6  0  0  0
  1  8  1  0  0  0  0
  3  6  2  0  0  0  0
  4  7  1  0  0  0  0
  5  4  2  0  0  0  0
  5  3  1  0  0  0  0
  6  2  1  0  0  0  0
  7  1  1  0  0  0  0
  7  2  2  0  0  0  0
  8  9  1  0  0  0  0
  9 13  1  1  0  0  0
  9 12  1  0  0  0  0
 10 11  1  0  0  0  0
 12 10  1  0  0  0  0
 12 11  1  0  0  0  0
 15 14  2  0  0  0  0
 15 13  1  0  0  0  0
 16 15  1  0  0  0  0
 17 16  1  0  0  0  0
 18 17  1  0  0  0  0
 19 20  1  0  0  0  0
 20 21  1  1  0  0  0
 20 22  1  0  0  0  0
 24 23  2  6  0  0  0
 24 22  1  0  0  0  0
 24 27  1  0  0  0  0
 25 24  1  0  0  0  0
 26 28  1  0  0  0  0
 27 30  2  0  0  0  0
 28 31  1  0  0  0  0
 29 27  1  0  0  0  0
 29 32  1  0  0  0  0
 30 31  1  0  0  0  0
 32 26  1  0  0  0  0
M  END
>  <MODEL>
4

>  <REMARK>
 VINA RESULT:      -6.0      2.832      7.241
  Name = 
  13 active torsions:
  status: ('A' for Active; 'I' for Inactive)
    1  A    between atoms: C_1  and  C_7
    2  A    between atoms: C_1  and  O_11
    3  A    between atoms: C_1  and  C_18
    4  A    between atoms: C_5  and  C_12
    5  A    between atoms: C_5  and  N_23
    6  A    between atoms: C_7  and  C_28
    7  A    between atoms: C_9  and  O_22
    8  A    between atoms: C_10  and  O_11
    9  A    between atoms: C_10  and  C_21
   10  A    between atoms: C_10  and  N_23
   11  A    between atoms: C_12  and  P_29
   12  A    between atoms: C_17  and  P_29
   13  A    between atoms: O_22  and  C_28
                            x       y       z     vdW  Elec       q    Type
                         _______ _______ _______ _____ _____    ______ ____

>  <TORSDO>
F 13

$$$$
=
 OpenBabel11062419073D

 32 34  0  0  1  0  0  0  0  0999 V2000
  191.7310  174.8810  144.2050 C   0  0  1  0  0  3  0  0  0  0  0  0
  192.8290  172.6860  144.7740 C   0  0  0  0  0  3  0  0  0  0  0  0
  194.5710  171.8100  143.3950 N   0  0  0  0  0  0  0  0  0  0  0  0
  193.5600  173.8960  142.8120 C   0  0  0  0  0  3  0  0  0  0  0  0
  194.4870  172.8820  142.5590 C   0  0  0  0  0  3  0  0  0  0  0  0
  193.7680  171.6930  144.4870 C   0  0  0  0  0  3  0  0  0  0  0  0
  192.7200  173.7930  143.9240 C   0  0  0  0  0  0  0  0  0  0  0  0
  192.4030  176.0910  144.4630 O   0  0  0  0  0  0  0  0  0  0  0  0
  192.4170  176.3320  145.8590 C   0  0  1  0  0  3  0  0  0  0  0  0
  190.3880  176.7650  147.2200 C   0  0  0  0  0  2  0  0  0  0  0  0
  191.3650  175.9900  148.0790 C   0  0  0  0  0  2  0  0  0  0  0  0
  191.2490  175.6840  146.6000 C   0  0  0  0  0  3  0  0  0  0  0  0
  193.7620  176.0260  146.5160 C   0  0  0  0  0  2  0  0  0  0  0  0
  195.0990  177.7240  145.5260 O   0  0  0  0  0  0  0  0  0  0  0  0
  194.8800  176.4900  145.6510 C   0  0  0  0  0  0  0  0  0  0  0  0
  195.6960  175.5490  145.0180 O   0  0  0  0  0  0  0  0  0  0  0  0
  196.1120  174.3480  145.6570 C   0  0  0  0  0  2  0  0  0  0  0  0
  197.4810  174.1590  145.4640 O   0  0  0  0  0  1  0  0  0  0  0  0
  190.8320  175.0530  143.0700 N   0  0  0  0  0  2  0  0  0  0  0  0
  189.4700  174.9200  143.5620 C   0  0  2  0  0  3  0  0  0  0  0  0
  189.1090  173.5730  143.5800 O   0  0  0  0  0  1  0  0  0  0  0  0
  188.5180  175.6920  142.6700 C   0  0  0  0  0  2  0  0  0  0  0  0
  189.7940  177.8280  143.7700 O   0  0  0  0  0  1  0  0  0  0  0  0
  188.4500  177.4230  143.2080 P   0  0  1  0  0  0  0  0  0  0  0  0
  188.0760  178.4110  141.8840 O   0  0  0  0  0  0  0  0  0  0  0  0
  184.5080  178.4650  146.1760 C   0  0  0  0  0  2  0  0  0  0  0  0
  187.1900  177.6030  144.4720 C   0  0  0  0  0  0  0  0  0  0  0  0
  184.8960  176.9950  146.3670 C   0  0  0  0  0  2  0  0  0  0  0  0
  186.0370  178.5340  144.1800 C   0  0  0  0  0  2  0  0  0  0  0  0
  187.2790  176.8270  145.5710 C   0  0  0  0  0  3  0  0  0  0  0  0
  186.3600  176.8550  146.7650 C   0  0  0  0  0  2  0  0  0  0  0  0
  185.5550  179.2820  145.4150 C   0  0  0  0  0  2  0  0  0  0  0  0
  1 19  1  6  0  0  0
  1  8  1  0  0  0  0
  3  6  2  0  0  0  0
  4  7  1  0  0  0  0
  5  4  2  0  0  0  0
  5  3  1  0  0  0  0
  6  2  1  0  0  0  0
  7  1  1  0  0  0  0
  7  2  2  0  0  0  0
  8  9  1  0  0  0  0
  9 13  1  1  0  0  0
  9 12  1  0  0  0  0
 10 11  1  0  0  0  0
 12 10  1  0  0  0  0
 12 11  1  0  0  0  0
 14 15  2  0  0  0  0
 15 13  1  0  0  0  0
 16 15  1  0  0  0  0
 16 17  1  0  0  0  0
 18 17  1  0  0  0  0
 19 20  1  0  0  0  0
 20 21  1  6  0  0  0
 22 24  1  0  0  0  0
 22 20  1  0  0  0  0
 24 25  2  6  0  0  0
 24 23  1  0  0  0  0
 24 27  1  0  0  0  0
 26 28  1  0  0  0  0
 27 30  2  0  0  0  0
 28 31  1  0  0  0  0
 29 27  1  0  0  0  0
 29 32  1  0  0  0  0
 30 31  1  0  0  0  0
 32 26  1  0  0  0  0
M  END
>  <MODEL>
5

>  <REMARK>
 VINA RESULT:      -5.9      3.113      7.384
  Name = 
  13 active torsions:
  status: ('A' for Active; 'I' for Inactive)
    1  A    between atoms: C_1  and  C_7
    2  A    between atoms: C_1  and  O_11
    3  A    between atoms: C_1  and  C_18
    4  A    between atoms: C_5  and  C_12
    5  A    between atoms: C_5  and  N_23
    6  A    between atoms: C_7  and  C_28
    7  A    between atoms: C_9  and  O_22
    8  A    between atoms: C_10  and  O_11
    9  A    between atoms: C_10  and  C_21
   10  A    between atoms: C_10  and  N_23
   11  A    between atoms: C_12  and  P_29
   12  A    between atoms: C_17  and  P_29
   13  A    between atoms: O_22  and  C_28
                            x       y       z     vdW  Elec       q    Type
                         _______ _______ _______ _____ _____    ______ ____

>  <TORSDO>
F 13

$$$$
=
 OpenBabel11062419073D

 32 34  0  0  1  0  0  0  0  0999 V2000
  190.7910  174.3640  144.4250 C   0  0  1  0  0  3  0  0  0  0  0  0
  189.8390  176.6780  144.7160 C   0  0  0  0  0  3  0  0  0  0  0  0
  188.3230  177.1470  146.5000 N   0  0  0  0  0  0  0  0  0  0  0  0
  189.1970  174.9360  146.2650 C   0  0  0  0  0  3  0  0  0  0  0  0
  188.3930  175.8590  146.9370 C   0  0  0  0  0  3  0  0  0  0  0  0
  189.0230  177.5710  145.4140 C   0  0  0  0  0  3  0  0  0  0  0  0
  189.9200  175.3470  145.1430 C   0  0  0  0  0  0  0  0  0  0  0  0
  191.8190  173.9160  145.2770 O   0  0  0  0  0  0  0  0  0  0  0  0
  192.9310  174.7860  145.1700 C   0  0  1  0  0  3  0  0  0  0  0  0
  192.7730  176.5570  146.9020 C   0  0  0  0  0  2  0  0  0  0  0  0
  194.1770  176.5860  146.3360 C   0  0  0  0  0  2  0  0  0  0  0  0
  193.4630  175.2630  146.5200 C   0  0  0  0  0  3  0  0  0  0  0  0
  194.0410  174.2480  144.2670 C   0  0  0  0  0  2  0  0  0  0  0  0
  193.4960  176.0460  142.8110 O   0  0  0  0  0  0  0  0  0  0  0  0
  194.3780  175.2410  143.2120 C   0  0  0  0  0  0  0  0  0  0  0  0
  195.6800  175.2930  142.7080 O   0  0  0  0  0  0  0  0  0  0  0  0
  196.7790  175.7640  143.4790 C   0  0  0  0  0  2  0  0  0  0  0  0
  196.9150  177.1430  143.3150 O   0  0  0  0  0  1  0  0  0  0  0  0
  190.0020  173.2250  143.9710 N   0  0  0  0  0  2  0  0  0  0  0  0
  190.2540  173.0530  142.5500 C   0  0  2  0  0  3  0  0  0  0  0  0
  191.5760  172.6530  142.3550 O   0  0  0  0  0  1  0  0  0  0  0  0
  190.0010  174.3550  141.8160 C   0  0  0  0  0  2  0  0  0  0  0  0
  188.3120  174.5050  139.6880 O   0  0  0  0  0  0  0  0  0  0  0  0
  188.2970  174.3820  141.1960 P   0  0  1  0  0  0  0  0  0  0  0  0
  187.5150  172.9440  141.6320 O   0  0  0  0  0  1  0  0  0  0  0  0
  186.1110  178.7490  142.4550 C   0  0  0  0  0  2  0  0  0  0  0  0
  187.4280  175.7820  141.9050 C   0  0  0  0  0  0  0  0  0  0  0  0
  185.2050  177.5960  142.9000 C   0  0  0  0  0  2  0  0  0  0  0  0
  187.4620  177.0840  141.1400 C   0  0  0  0  0  2  0  0  0  0  0  0
  186.7080  175.5790  143.0260 C   0  0  0  0  0  3  0  0  0  0  0  0
  185.9500  176.6230  143.8050 C   0  0  0  0  0  2  0  0  0  0  0  0
  187.5180  178.3020  142.0490 C   0  0  0  0  0  2  0  0  0  0  0  0
  1 19  1  1  0  0  0
  1  7  1  0  0  0  0
  1  8  1  0  0  0  0
  2  7  2  0  0  0  0
  2  6  1  0  0  0  0
  3  5  1  0  0  0  0
  4  5  2  0  0  0  0
  6  3  2  0  0  0  0
  7  4  1  0  0  0  0
  9 13  1  1  0  0  0
  9  8  1  0  0  0  0
  9 12  1  0  0  0  0
 11 12  1  0  0  0  0
 11 10  1  0  0  0  0
 12 10  1  0  0  0  0
 14 15  2  0  0  0  0
 15 13  1  0  0  0  0
 16 15  1  0  0  0  0
 16 17  1  0  0  0  0
 18 17  1  0  0  0  0
 20 21  1  1  0  0  0
 20 19  1  0  0  0  0
 22 20  1  0  0  0  0
 24 23  2  6  0  0  0
 24 25  1  0  0  0  0
 24 22  1  0  0  0  0
 24 27  1  0  0  0  0
 26 28  1  0  0  0  0
 27 30  2  0  0  0  0
 28 31  1  0  0  0  0
 29 27  1  0  0  0  0
 29 32  1  0  0  0  0
 30 31  1  0  0  0  0
 32 26  1  0  0  0  0
M  END
>  <MODEL>
6

>  <REMARK>
 VINA RESULT:      -5.8      2.603      6.857
  Name = 
  13 active torsions:
  status: ('A' for Active; 'I' for Inactive)
    1  A    between atoms: C_1  and  C_7
    2  A    between atoms: C_1  and  O_11
    3  A    between atoms: C_1  and  C_18
    4  A    between atoms: C_5  and  C_12
    5  A    between atoms: C_5  and  N_23
    6  A    between atoms: C_7  and  C_28
    7  A    between atoms: C_9  and  O_22
    8  A    between atoms: C_10  and  O_11
    9  A    between atoms: C_10  and  C_21
   10  A    between atoms: C_10  and  N_23
   11  A    between atoms: C_12  and  P_29
   12  A    between atoms: C_17  and  P_29
   13  A    between atoms: O_22  and  C_28
                            x       y       z     vdW  Elec       q    Type
                         _______ _______ _______ _____ _____    ______ ____

>  <TORSDO>
F 13

$$$$
=
 OpenBabel11062419073D

 32 34  0  0  1  0  0  0  0  0999 V2000
  188.1070  176.6230  144.7000 C   0  0  1  0  0  3  0  0  0  0  0  0
  189.2400  175.0880  146.3460 C   0  0  0  0  0  3  0  0  0  0  0  0
  190.6980  175.9700  148.0180 N   0  0  0  0  0  0  0  0  0  0  0  0
  189.6490  177.4670  146.4800 C   0  0  0  0  0  3  0  0  0  0  0  0
  190.4950  177.2390  147.5670 C   0  0  0  0  0  3  0  0  0  0  0  0
  190.0930  174.9010  147.4350 C   0  0  0  0  0  3  0  0  0  0  0  0
  189.0220  176.3830  145.8600 C   0  0  0  0  0  0  0  0  0  0  0  0
  187.7960  177.9930  144.6050 O   0  0  0  0  0  0  0  0  0  0  0  0
  186.3940  178.1650  144.7010 C   0  0  1  0  0  3  0  0  0  0  0  0
  185.2360  177.5300  146.8020 C   0  0  0  0  0  2  0  0  0  0  0  0
  184.4200  178.6160  146.1330 C   0  0  0  0  0  2  0  0  0  0  0  0
  185.9320  178.6590  146.0710 C   0  0  0  0  0  3  0  0  0  0  0  0
  185.8020  178.9900  143.5580 C   0  0  0  0  0  2  0  0  0  0  0  0
  183.8290  178.2440  142.4600 O   0  0  0  0  0  0  0  0  0  0  0  0
  185.0740  178.1080  142.6050 C   0  0  0  0  0  0  0  0  0  0  0  0
  185.7860  177.1670  141.8570 O   0  0  0  0  0  0  0  0  0  0  0  0
  186.6610  177.5380  140.8000 C   0  0  0  0  0  2  0  0  0  0  0  0
  187.4430  176.4440  140.4270 O   0  0  0  0  0  1  0  0  0  0  0  0
  188.7320  176.1760  143.4610 N   0  0  0  0  0  2  0  0  0  0  0  0
  189.9820  176.9030  143.3120 C   0  0  2  0  0  3  0  0  0  0  0  0
  189.8250  177.9160  142.3670 O   0  0  0  0  0  1  0  0  0  0  0  0
  191.0820  175.9570  142.8670 C   0  0  0  0  0  2  0  0  0  0  0  0
  192.4700  177.5100  144.6180 O   0  0  0  0  0  0  0  0  0  0  0  0
  192.5270  176.1560  143.9460 P   0  0  1  0  0  0  0  0  0  0  0  0
  192.5190  174.9440  145.1290 O   0  0  0  0  0  1  0  0  0  0  0  0
  197.1530  175.8090  141.9700 C   0  0  0  0  0  2  0  0  0  0  0  0
  194.0230  176.0340  142.9640 C   0  0  0  0  0  0  0  0  0  0  0  0
  196.1920  174.9570  141.1330 C   0  0  0  0  0  2  0  0  0  0  0  0
  195.3410  176.0220  143.7010 C   0  0  0  0  0  2  0  0  0  0  0  0
  193.8950  175.8590  141.6340 C   0  0  0  0  0  3  0  0  0  0  0  0
  195.0150  175.7820  140.6290 C   0  0  0  0  0  2  0  0  0  0  0  0
  196.4450  176.7500  142.9490 C   0  0  0  0  0  2  0  0  0  0  0  0
  1 19  1  6  0  0  0
  1  7  1  0  0  0  0
  2  6  1  0  0  0  0
  4  5  2  0  0  0  0
  5  3  1  0  0  0  0
  6  3  2  0  0  0  0
  7  2  2  0  0  0  0
  7  4  1  0  0  0  0
  8  1  1  0  0  0  0
  8  9  1  0  0  0  0
  9 13  1  6  0  0  0
  9 12  1  0  0  0  0
 11 10  1  0  0  0  0
 12 11  1  0  0  0  0
 12 10  1  0  0  0  0
 14 15  2  0  0  0  0
 15 13  1  0  0  0  0
 16 15  1  0  0  0  0
 17 16  1  0  0  0  0
 18 17  1  0  0  0  0
 20 21  1  6  0  0  0
 20 19  1  0  0  0  0
 22 20  1  0  0  0  0
 22 24  1  0  0  0  0
 24 23  2  1  0  0  0
 24 25  1  0  0  0  0
 26 32  1  0  0  0  0
 27 29  1  0  0  0  0
 27 24  1  0  0  0  0
 28 26  1  0  0  0  0
 30 27  2  0  0  0  0
 31 28  1  0  0  0  0
 31 30  1  0  0  0  0
 32 29  1  0  0  0  0
M  END
>  <MODEL>
7

>  <REMARK>
 VINA RESULT:      -5.8      2.020      2.584
  Name = 
  13 active torsions:
  status: ('A' for Active; 'I' for Inactive)
    1  A    between atoms: C_1  and  C_7
    2  A    between atoms: C_1  and  O_11
    3  A    between atoms: C_1  and  C_18
    4  A    between atoms: C_5  and  C_12
    5  A    between atoms: C_5  and  N_23
    6  A    between atoms: C_7  and  C_28
    7  A    between atoms: C_9  and  O_22
    8  A    between atoms: C_10  and  O_11
    9  A    between atoms: C_10  and  C_21
   10  A    between atoms: C_10  and  N_23
   11  A    between atoms: C_12  and  P_29
   12  A    between atoms: C_17  and  P_29
   13  A    between atoms: O_22  and  C_28
                            x       y       z     vdW  Elec       q    Type
                         _______ _______ _______ _____ _____    ______ ____

>  <TORSDO>
F 13

$$$$
=
 OpenBabel11062419073D

 32 34  0  0  1  0  0  0  0  0999 V2000
  188.4530  176.2720  144.4160 C   0  0  1  0  0  3  0  0  0  0  0  0
  190.3850  177.0040  145.8580 C   0  0  0  0  0  3  0  0  0  0  0  0
  190.9300  175.8050  147.8500 N   0  0  0  0  0  0  0  0  0  0  0  0
  189.0870  175.0720  146.5170 C   0  0  0  0  0  3  0  0  0  0  0  0
  189.9080  174.9300  147.6380 C   0  0  0  0  0  3  0  0  0  0  0  0
  191.1820  176.8290  146.9910 C   0  0  0  0  0  3  0  0  0  0  0  0
  189.3240  176.1210  145.6240 C   0  0  0  0  0  0  0  0  0  0  0  0
  187.7690  177.5020  144.4640 O   0  0  0  0  0  0  0  0  0  0  0  0
  186.5210  177.3200  145.1080 C   0  0  1  0  0  3  0  0  0  0  0  0
  186.1310  177.2100  147.5560 C   0  0  0  0  0  2  0  0  0  0  0  0
  184.9710  177.9600  146.9360 C   0  0  0  0  0  2  0  0  0  0  0  0
  186.3700  178.1430  146.3870 C   0  0  0  0  0  3  0  0  0  0  0  0
  185.3230  177.4820  144.1710 C   0  0  0  0  0  2  0  0  0  0  0  0
  185.5810  179.7150  143.3980 O   0  0  0  0  0  0  0  0  0  0  0  0
  185.6220  178.4870  143.1160 C   0  0  0  0  0  0  0  0  0  0  0  0
  185.9810  178.0560  141.8370 O   0  0  0  0  0  0  0  0  0  0  0  0
  185.1780  178.3140  140.6920 C   0  0  0  0  0  2  0  0  0  0  0  0
  183.8280  178.2060  141.0280 O   0  0  0  0  0  1  0  0  0  0  0  0
  189.2560  176.2060  143.2010 N   0  0  0  0  0  2  0  0  0  0  0  0
  188.7770  175.0810  142.4160 C   0  0  2  0  0  3  0  0  0  0  0  0
  187.3820  175.0860  142.3940 O   0  0  0  0  0  1  0  0  0  0  0  0
  189.2730  173.7800  143.0170 C   0  0  0  0  0  2  0  0  0  0  0  0
  190.9580  171.8840  142.0310 O   0  0  0  0  0  1  0  0  0  0  0  0
  190.8960  173.3680  142.3180 P   0  0  1  0  0  0  0  0  0  0  0  0
  191.1220  174.2260  140.8750 O   0  0  0  0  0  0  0  0  0  0  0  0
  194.3720  175.4370  145.3280 C   0  0  0  0  0  2  0  0  0  0  0  0
  192.1780  173.8090  143.4920 C   0  0  0  0  0  0  0  0  0  0  0  0
  193.6520  174.3240  146.0960 C   0  0  0  0  0  2  0  0  0  0  0  0
  192.6010  175.2570  143.5520 C   0  0  0  0  0  2  0  0  0  0  0  0
  192.6270  172.8520  144.3290 C   0  0  0  0  0  3  0  0  0  0  0  0
  193.7260  172.9980  145.3490 C   0  0  0  0  0  2  0  0  0  0  0  0
  194.0880  175.4280  143.8240 C   0  0  0  0  0  2  0  0  0  0  0  0
  1 19  1  6  0  0  0
  1  8  1  0  0  0  0
  1  7  1  0  0  0  0
  2  6  1  0  0  0  0
  4  5  2  0  0  0  0
  5  3  1  0  0  0  0
  6  3  2  0  0  0  0
  7  2  2  0  0  0  0
  7  4  1  0  0  0  0
  8  9  1  0  0  0  0
  9 13  1  6  0  0  0
  9 12  1  0  0  0  0
 11 10  1  0  0  0  0
 12 11  1  0  0  0  0
 12 10  1  0  0  0  0
 15 14  2  0  0  0  0
 15 13  1  0  0  0  0
 16 15  1  0  0  0  0
 17 18  1  0  0  0  0
 17 16  1  0  0  0  0
 20 21  1  1  0  0  0
 20 22  1  0  0  0  0
 20 19  1  0  0  0  0
 23 24  1  0  0  0  0
 24 25  2  6  0  0  0
 24 22  1  0  0  0  0
 24 27  1  0  0  0  0
 26 28  1  0  0  0  0
 27 29  1  0  0  0  0
 27 30  2  0  0  0  0
 29 32  1  0  0  0  0
 30 31  1  0  0  0  0
 31 28  1  0  0  0  0
 32 26  1  0  0  0  0
M  END
>  <MODEL>
8

>  <REMARK>
 VINA RESULT:      -5.8      0.828      1.675
  Name = 
  13 active torsions:
  status: ('A' for Active; 'I' for Inactive)
    1  A    between atoms: C_1  and  C_7
    2  A    between atoms: C_1  and  O_11
    3  A    between atoms: C_1  and  C_18
    4  A    between atoms: C_5  and  C_12
    5  A    between atoms: C_5  and  N_23
    6  A    between atoms: C_7  and  C_28
    7  A    between atoms: C_9  and  O_22
    8  A    between atoms: C_10  and  O_11
    9  A    between atoms: C_10  and  C_21
   10  A    between atoms: C_10  and  N_23
   11  A    between atoms: C_12  and  P_29
   12  A    between atoms: C_17  and  P_29
   13  A    between atoms: O_22  and  C_28
                            x       y       z     vdW  Elec       q    Type
                         _______ _______ _______ _____ _____    ______ ____

>  <TORSDO>
F 13

$$$$
=
 OpenBabel11062419073D

 32 34  0  0  1  0  0  0  0  0999 V2000
  188.4550  176.7070  144.4250 C   0  0  1  0  0  3  0  0  0  0  0  0
  190.6070  176.8350  145.7290 C   0  0  0  0  0  3  0  0  0  0  0  0
  190.9330  175.4730  147.6630 N   0  0  0  0  0  0  0  0  0  0  0  0
  188.8740  175.3160  146.4610 C   0  0  0  0  0  3  0  0  0  0  0  0
  189.6970  174.9200  147.5170 C   0  0  0  0  0  3  0  0  0  0  0  0
  191.4000  176.4130  146.7980 C   0  0  0  0  0  3  0  0  0  0  0  0
  189.3300  176.2860  145.5640 C   0  0  0  0  0  0  0  0  0  0  0  0
  187.9880  178.0190  144.6330 O   0  0  0  0  0  0  0  0  0  0  0  0
  186.5800  177.9980  144.7860 C   0  0  1  0  0  3  0  0  0  0  0  0
  185.1960  176.8100  146.4690 C   0  0  0  0  0  2  0  0  0  0  0  0
  184.6280  178.2040  146.3030 C   0  0  0  0  0  2  0  0  0  0  0  0
  186.1260  177.9850  146.2450 C   0  0  0  0  0  3  0  0  0  0  0  0
  185.8630  179.0690  143.9650 C   0  0  0  0  0  2  0  0  0  0  0  0
  184.1090  178.1270  142.6640 O   0  0  0  0  0  0  0  0  0  0  0  0
  185.3170  178.4820  142.7110 C   0  0  0  0  0  0  0  0  0  0  0  0
  186.1430  178.3670  141.5900 O   0  0  0  0  0  0  0  0  0  0  0  0
  185.6600  177.9120  140.3310 C   0  0  0  0  0  2  0  0  0  0  0  0
  186.6810  177.2560  139.6420 O   0  0  0  0  0  1  0  0  0  0  0  0
  189.1940  176.6450  143.1690 N   0  0  0  0  0  2  0  0  0  0  0  0
  188.7060  175.4940  142.4270 C   0  0  2  0  0  3  0  0  0  0  0  0
  187.3210  175.4030  142.5630 O   0  0  0  0  0  1  0  0  0  0  0  0
  189.3550  174.2270  142.9500 C   0  0  0  0  0  2  0  0  0  0  0  0
  189.5680  171.5720  142.3950 O   0  0  0  0  0  1  0  0  0  0  0  0
  188.8620  172.8210  141.9150 P   0  0  1  0  0  0  0  0  0  0  0  0
  187.1870  172.5950  142.0300 O   0  0  0  0  0  0  0  0  0  0  0  0
  190.9120  173.3830  137.3420 C   0  0  0  0  0  2  0  0  0  0  0  0
  189.3130  173.1500  140.2110 C   0  0  0  0  0  0  0  0  0  0  0  0
  189.4330  173.0130  137.1800 C   0  0  0  0  0  2  0  0  0  0  0  0
  190.7160  172.7940  139.7790 C   0  0  0  0  0  2  0  0  0  0  0  0
  188.3550  173.6020  139.3780 C   0  0  0  0  0  3  0  0  0  0  0  0
  188.5330  173.9850  137.9310 C   0  0  0  0  0  2  0  0  0  0  0  0
  191.2920  173.7780  138.7720 C   0  0  0  0  0  2  0  0  0  0  0  0
  1 19  1  6  0  0  0
  1  8  1  0  0  0  0
  1  7  1  0  0  0  0
  2  6  1  0  0  0  0
  4  5  2  0  0  0  0
  5  3  1  0  0  0  0
  6  3  2  0  0  0  0
  7  2  2  0  0  0  0
  7  4  1  0  0  0  0
  8  9  1  0  0  0  0
  9 13  1  1  0  0  0
  9 12  1  0  0  0  0
 11 10  1  0  0  0  0
 12 11  1  0  0  0  0
 12 10  1  0  0  0  0
 14 15  2  0  0  0  0
 15 13  1  0  0  0  0
 16 15  1  0  0  0  0
 17 16  1  0  0  0  0
 18 17  1  0  0  0  0
 20 21  1  1  0  0  0
 20 22  1  0  0  0  0
 20 19  1  0  0  0  0
 24 25  2  1  0  0  0
 24 23  1  0  0  0  0
 24 22  1  0  0  0  0
 26 32  1  0  0  0  0
 27 24  1  0  0  0  0
 28 26  1  0  0  0  0
 28 31  1  0  0  0  0
 29 27  1  0  0  0  0
 30 27  2  0  0  0  0
 31 30  1  0  0  0  0
 32 29  1  0  0  0  0
M  END
>  <MODEL>
9

>  <REMARK>
 VINA RESULT:      -5.8      2.289      3.533
  Name = 
  13 active torsions:
  status: ('A' for Active; 'I' for Inactive)
    1  A    between atoms: C_1  and  C_7
    2  A    between atoms: C_1  and  O_11
    3  A    between atoms: C_1  and  C_18
    4  A    between atoms: C_5  and  C_12
    5  A    between atoms: C_5  and  N_23
    6  A    between atoms: C_7  and  C_28
    7  A    between atoms: C_9  and  O_22
    8  A    between atoms: C_10  and  O_11
    9  A    between atoms: C_10  and  C_21
   10  A    between atoms: C_10  and  N_23
   11  A    between atoms: C_12  and  P_29
   12  A    between atoms: C_17  and  P_29
   13  A    between atoms: O_22  and  C_28
                            x       y       z     vdW  Elec       q    Type
                         _______ _______ _______ _____ _____    ______ ____

>  <TORSDO>
F 13

$$$$
