=
 OpenBabel11062421113D

 33 37  0  0  1  0  0  0  0  0999 V2000
  187.6790  175.9350  142.0900 C   0  0  0  0  0  0  0  0  0  0  0  0
  188.0030  176.2310  143.3450 C   0  0  0  0  0  2  0  0  0  0  0  0
  185.1860  177.8830  145.0860 C   0  0  0  0  0  0  0  0  0  0  0  0
  185.1310  178.4230  142.7350 C   0  0  0  0  0  3  0  0  0  0  0  0
  186.3910  177.2600  145.0120 C   0  0  0  0  0  0  0  0  0  0  0  0
  184.3940  177.8870  146.3510 C   0  0  0  0  0  1  0  0  0  0  0  0
  186.3690  177.6650  142.5900 C   0  0  1  0  0  3  0  0  0  0  0  0
  187.2390  177.4400  143.7730 C   0  0  2  0  0  3  0  0  0  0  0  0
  184.6120  178.5270  143.9250 N   0  0  0  0  0  0  0  0  0  0  0  0
  186.6130  176.8120  141.6120 C   0  0  0  0  0  3  0  0  0  0  0  0
  189.7830  171.5890  139.0890 N   0  0  0  0  0  1  0  0  0  0  0  0
  189.3750  172.6560  141.2670 C   0  0  0  0  0  0  0  0  0  0  0  0
  189.2640  172.6650  139.8680 C   0  0  0  0  0  0  0  0  0  0  0  0
  188.2340  174.7970  141.3340 C   0  0  0  0  0  0  0  0  0  0  0  0
  188.1420  174.7590  139.9380 C   0  0  0  0  0  3  0  0  0  0  0  0
  188.8590  173.7310  141.9930 C   0  0  0  0  0  3  0  0  0  0  0  0
  188.6530  173.7070  139.2430 N   0  0  0  0  0  0  0  0  0  0  0  0
  190.1790  171.8710  143.4650 C   0  0  0  0  0  1  0  0  0  0  0  0
  190.0500  171.5380  141.9910 C   0  0  0  0  0  2  0  0  0  0  0  0
  186.9980  176.5720  146.1950 C   0  0  0  0  0  2  0  0  0  0  0  0
  188.0840  177.4490  146.8080 C   0  0  0  0  0  2  0  0  0  0  0  0
  191.0830  175.4790  144.6390 C   0  0  2  0  0  3  0  0  0  0  0  0
  191.5760  176.7990  145.2060 C   0  0  1  0  0  3  0  0  0  0  0  0
  191.8630  175.0440  146.8670 C   0  0  0  0  0  2  0  0  0  0  0  0
  188.9050  174.5490  147.6330 C   0  0  0  0  0  1  0  0  0  0  0  0
  189.3900  175.2950  146.4000 C   0  0  2  0  0  3  0  0  0  0  0  0
  190.7260  174.7120  145.8970 C   0  0  1  0  0  3  0  0  0  0  0  0
  189.4680  176.8210  146.6680 C   0  0  1  0  0  3  0  0  0  0  0  0
  190.3280  177.5890  145.6350 C   0  0  0  0  0  2  0  0  0  0  0  0
  192.3810  176.4170  146.4490 C   0  0  1  0  0  3  0  0  0  0  0  0
  193.8570  176.3270  146.1120 C   0  0  0  0  0  1  0  0  0  0  0  0
  192.1060  174.8280  143.9430 O   0  0  0  0  0  0  0  0  0  0  0  0
  192.1080  175.4210  142.6790 C   0  0  0  0  0  1  0  0  0  0  0  0
  1  2  1  0  0  0  0
  3  6  1  0  0  0  0
  4  9  2  0  0  0  0
  5  3  2  0  0  0  0
  5 20  1  0  0  0  0
  7 10  1  1  0  0  0
  7  4  1  0  0  0  0
  7  8  1  0  0  0  0
  8  2  1  6  0  0  0
  8  5  1  0  0  0  0
  9  3  1  0  0  0  0
 10  1  2  0  0  0  0
 11 13  1  0  0  0  0
 12 19  1  0  0  0  0
 12 16  1  0  0  0  0
 13 12  2  0  0  0  0
 14 16  2  0  0  0  0
 14  1  1  0  0  0  0
 15 14  1  0  0  0  0
 17 13  1  0  0  0  0
 17 15  2  0  0  0  0
 19 18  1  0  0  0  0
 20 21  1  0  0  0  0
 22 32  1  1  0  0  0
 22 23  1  0  0  0  0
 22 27  1  0  0  0  0
 23 29  1  1  0  0  0
 23 30  1  0  0  0  0
 26 28  1  0  0  0  0
 26 25  1  1  0  0  0
 27 26  1  0  0  0  0
 27 24  1  1  0  0  0
 28 21  1  6  0  0  0
 29 28  1  0  0  0  0
 30 31  1  6  0  0  0
 30 24  1  0  0  0  0
 33 32  1  0  0  0  0
M  END
>  <MODEL>
1

>  <REMARK>
 VINA RESULT:      -8.5      0.000      0.000
  Name = 
  6 active torsions:
  status: ('A' for Active; 'I' for Inactive)
    1  A    between atoms: C_1  and  C_7
    2  A    between atoms: C_3  and  O_10
    3  A    between atoms: C_5  and  C_20
    4  A    between atoms: C_17  and  C_32
    5  A    between atoms: C_19  and  C_25
    6  A    between atoms: C_19  and  C_32
                            x       y       z     vdW  Elec       q    Type
                         _______ _______ _______ _____ _____    ______ ____

>  <TORSDO>
F 6

$$$$
=
 OpenBabel11062421113D

 33 37  0  0  1  0  0  0  0  0999 V2000
  187.8490  175.8470  141.8740 C   0  0  0  0  0  0  0  0  0  0  0  0
  188.1440  176.1350  143.1390 C   0  0  0  0  0  2  0  0  0  0  0  0
  185.3540  177.9350  144.7730 C   0  0  0  0  0  0  0  0  0  0  0  0
  185.4060  178.4620  142.4190 C   0  0  0  0  0  3  0  0  0  0  0  0
  186.5280  177.2530  144.7430 C   0  0  0  0  0  0  0  0  0  0  0  0
  184.5200  177.9870  146.0100 C   0  0  0  0  0  1  0  0  0  0  0  0
  186.6090  177.6430  142.3210 C   0  0  1  0  0  3  0  0  0  0  0  0
  187.4260  177.3830  143.5340 C   0  0  2  0  0  3  0  0  0  0  0  0
  184.8530  178.5990  143.5900 N   0  0  0  0  0  0  0  0  0  0  0  0
  186.8450  176.7730  141.3560 C   0  0  0  0  0  3  0  0  0  0  0  0
  189.9010  171.3030  139.1440 N   0  0  0  0  0  1  0  0  0  0  0  0
  188.7470  173.4740  139.0700 C   0  0  0  0  0  0  0  0  0  0  0  0
  189.3770  172.4540  139.8010 C   0  0  0  0  0  0  0  0  0  0  0  0
  188.3720  174.6780  141.1430 C   0  0  0  0  0  0  0  0  0  0  0  0
  189.0130  173.6400  141.8280 C   0  0  0  0  0  3  0  0  0  0  0  0
  188.2420  174.5820  139.7520 C   0  0  0  0  0  3  0  0  0  0  0  0
  189.4950  172.5640  141.1520 N   0  0  0  0  0  0  0  0  0  0  0  0
  189.7400  174.0790  136.8930 C   0  0  0  0  0  1  0  0  0  0  0  0
  188.5840  173.3870  137.5880 C   0  0  0  0  0  2  0  0  0  0  0  0
  187.0590  176.5430  145.9500 C   0  0  0  0  0  2  0  0  0  0  0  0
  188.0930  177.4140  146.6540 C   0  0  0  0  0  2  0  0  0  0  0  0
  191.1970  175.3970  144.6870 C   0  0  2  0  0  3  0  0  0  0  0  0
  191.6510  176.7470  145.2150 C   0  0  1  0  0  3  0  0  0  0  0  0
  191.8970  175.0690  146.9590 C   0  0  0  0  0  2  0  0  0  0  0  0
  188.9190  174.5640  147.6340 C   0  0  0  0  0  1  0  0  0  0  0  0
  189.4400  175.2640  146.3890 C   0  0  2  0  0  3  0  0  0  0  0  0
  190.8020  174.6790  145.9620 C   0  0  1  0  0  3  0  0  0  0  0  0
  189.4890  176.8010  146.5940 C   0  0  1  0  0  3  0  0  0  0  0  0
  190.3780  177.5360  145.5620 C   0  0  0  0  0  2  0  0  0  0  0  0
  192.4140  176.4290  146.5020 C   0  0  1  0  0  3  0  0  0  0  0  0
  193.9020  176.3470  146.2250 C   0  0  0  0  0  1  0  0  0  0  0  0
  192.2550  174.7320  144.0580 O   0  0  0  0  0  0  0  0  0  0  0  0
  192.3690  175.3470  142.8110 C   0  0  0  0  0  1  0  0  0  0  0  0
  1  2  1  0  0  0  0
  3  6  1  0  0  0  0
  4  9  2  0  0  0  0
  5  3  2  0  0  0  0
  5 20  1  0  0  0  0
  7 10  1  1  0  0  0
  7  4  1  0  0  0  0
  7  8  1  0  0  0  0
  8  2  1  6  0  0  0
  8  5  1  0  0  0  0
  9  3  1  0  0  0  0
 10  1  2  0  0  0  0
 11 13  1  0  0  0  0
 12 16  2  0  0  0  0
 12 13  1  0  0  0  0
 13 17  2  0  0  0  0
 14 15  2  0  0  0  0
 14  1  1  0  0  0  0
 16 14  1  0  0  0  0
 17 15  1  0  0  0  0
 18 19  1  0  0  0  0
 19 12  1  0  0  0  0
 20 21  1  0  0  0  0
 22 32  1  1  0  0  0
 22 23  1  0  0  0  0
 22 27  1  0  0  0  0
 23 29  1  1  0  0  0
 23 30  1  0  0  0  0
 26 28  1  0  0  0  0
 26 25  1  1  0  0  0
 27 26  1  0  0  0  0
 27 24  1  1  0  0  0
 28 21  1  6  0  0  0
 29 28  1  0  0  0  0
 30 31  1  6  0  0  0
 30 24  1  0  0  0  0
 33 32  1  0  0  0  0
M  END
>  <MODEL>
2

>  <REMARK>
 VINA RESULT:      -8.1      0.888      1.725
  Name = 
  6 active torsions:
  status: ('A' for Active; 'I' for Inactive)
    1  A    between atoms: C_1  and  C_7
    2  A    between atoms: C_3  and  O_10
    3  A    between atoms: C_5  and  C_20
    4  A    between atoms: C_17  and  C_32
    5  A    between atoms: C_19  and  C_25
    6  A    between atoms: C_19  and  C_32
                            x       y       z     vdW  Elec       q    Type
                         _______ _______ _______ _____ _____    ______ ____

>  <TORSDO>
F 6

$$$$
=
 OpenBabel11062421113D

 33 37  0  0  1  0  0  0  0  0999 V2000
  187.5340  175.3630  141.9660 C   0  0  0  0  0  0  0  0  0  0  0  0
  187.5640  174.1790  142.5700 C   0  0  0  0  0  2  0  0  0  0  0  0
  190.3790  172.1270  141.3190 C   0  0  0  0  0  0  0  0  0  0  0  0
  189.5840  173.5870  139.5700 C   0  0  0  0  0  3  0  0  0  0  0  0
  189.3670  172.4390  142.1700 C   0  0  0  0  0  0  0  0  0  0  0  0
  191.5070  171.2490  141.7480 C   0  0  0  0  0  1  0  0  0  0  0  0
  188.5470  174.0350  140.4940 C   0  0  1  0  0  3  0  0  0  0  0  0
  188.1570  173.1730  141.6390 C   0  0  2  0  0  3  0  0  0  0  0  0
  190.4150  172.6720  139.9790 N   0  0  0  0  0  0  0  0  0  0  0  0
  188.1910  175.2950  140.6640 C   0  0  0  0  0  3  0  0  0  0  0  0
  185.5660  180.1760  144.2630 N   0  0  0  0  0  1  0  0  0  0  0  0
  186.1270  177.7940  144.4990 C   0  0  0  0  0  0  0  0  0  0  0  0
  186.0550  178.9560  143.7140 C   0  0  0  0  0  0  0  0  0  0  0  0
  187.0180  176.5990  142.5850 C   0  0  0  0  0  0  0  0  0  0  0  0
  186.9330  177.7830  141.8430 C   0  0  0  0  0  3  0  0  0  0  0  0
  186.6070  176.6170  143.9240 C   0  0  0  0  0  3  0  0  0  0  0  0
  186.4590  178.9210  142.4160 N   0  0  0  0  0  0  0  0  0  0  0  0
  186.5840  176.8890  146.7500 C   0  0  0  0  0  1  0  0  0  0  0  0
  185.6810  177.7850  145.9240 C   0  0  0  0  0  2  0  0  0  0  0  0
  189.3160  171.9020  143.5670 C   0  0  0  0  0  2  0  0  0  0  0  0
  190.4860  172.4470  144.3770 C   0  0  0  0  0  2  0  0  0  0  0  0
  192.2950  176.1500  145.1470 C   0  0  2  0  0  3  0  0  0  0  0  0
  191.8540  176.0320  143.6990 C   0  0  1  0  0  3  0  0  0  0  0  0
  190.0020  176.8500  145.0480 C   0  0  0  0  0  2  0  0  0  0  0  0
  189.3160  174.2770  146.6240 C   0  0  0  0  0  1  0  0  0  0  0  0
  190.6010  174.5270  145.8500 C   0  0  2  0  0  3  0  0  0  0  0  0
  190.9790  176.0220  145.8870 C   0  0  1  0  0  3  0  0  0  0  0  0
  190.4960  173.9740  144.4050 C   0  0  1  0  0  3  0  0  0  0  0  0
  191.5680  174.5430  143.4440 C   0  0  0  0  0  2  0  0  0  0  0  0
  190.5440  176.8170  143.6220 C   0  0  1  0  0  3  0  0  0  0  0  0
  190.8040  178.2300  143.1380 C   0  0  0  0  0  1  0  0  0  0  0  0
  192.8720  177.4020  145.3870 O   0  0  0  0  0  0  0  0  0  0  0  0
  194.1800  177.1200  145.7830 C   0  0  0  0  0  1  0  0  0  0  0  0
  1  2  1  0  0  0  0
  1 14  1  0  0  0  0
  3  6  1  0  0  0  0
  3  5  2  0  0  0  0
  4  9  2  0  0  0  0
  5 20  1  0  0  0  0
  7  4  1  1  0  0  0
  7 10  1  0  0  0  0
  7  8  1  0  0  0  0
  8  5  1  0  0  0  0
  8  2  1  1  0  0  0
  9  3  1  0  0  0  0
 10  1  2  0  0  0  0
 12 19  1  0  0  0  0
 13 11  1  0  0  0  0
 13 12  2  0  0  0  0
 14 16  2  0  0  0  0
 15 17  2  0  0  0  0
 15 14  1  0  0  0  0
 16 12  1  0  0  0  0
 17 13  1  0  0  0  0
 19 18  1  0  0  0  0
 20 21  1  0  0  0  0
 22 32  1  6  0  0  0
 22 27  1  0  0  0  0
 23 29  1  1  0  0  0
 23 22  1  0  0  0  0
 26 27  1  0  0  0  0
 26 25  1  6  0  0  0
 27 24  1  6  0  0  0
 28 21  1  1  0  0  0
 28 26  1  0  0  0  0
 29 28  1  0  0  0  0
 30 31  1  1  0  0  0
 30 23  1  0  0  0  0
 30 24  1  0  0  0  0
 32 33  1  0  0  0  0
M  END
>  <MODEL>
3

>  <REMARK>
 VINA RESULT:      -8.0      1.371      5.606
  Name = 
  6 active torsions:
  status: ('A' for Active; 'I' for Inactive)
    1  A    between atoms: C_1  and  C_7
    2  A    between atoms: C_3  and  O_10
    3  A    between atoms: C_5  and  C_20
    4  A    between atoms: C_17  and  C_32
    5  A    between atoms: C_19  and  C_25
    6  A    between atoms: C_19  and  C_32
                            x       y       z     vdW  Elec       q    Type
                         _______ _______ _______ _____ _____    ______ ____

>  <TORSDO>
F 6

$$$$
=
 OpenBabel11062421113D

 33 37  0  0  1  0  0  0  0  0999 V2000
  188.6410  176.7530  146.6000 C   0  0  0  0  0  0  0  0  0  0  0  0
  187.7160  176.1300  145.8750 C   0  0  0  0  0  2  0  0  0  0  0  0
  184.9570  178.4320  144.9900 C   0  0  0  0  0  0  0  0  0  0  0  0
  185.9030  179.0620  147.1190 C   0  0  0  0  0  3  0  0  0  0  0  0
  185.6760  177.2840  144.9030 C   0  0  0  0  0  0  0  0  0  0  0  0
  184.0900  178.8900  143.8650 C   0  0  0  0  0  1  0  0  0  0  0  0
  186.7760  177.8980  147.0100 C   0  0  1  0  0  3  0  0  0  0  0  0
  186.3890  176.7650  146.1310 C   0  0  2  0  0  3  0  0  0  0  0  0
  185.0420  179.2730  146.1650 N   0  0  0  0  0  0  0  0  0  0  0  0
  188.0660  177.9020  147.2930 C   0  0  0  0  0  3  0  0  0  0  0  0
  194.1480  175.3450  146.6790 N   0  0  0  0  0  1  0  0  0  0  0  0
  192.3010  176.6080  145.6580 C   0  0  0  0  0  0  0  0  0  0  0  0
  192.7730  175.7160  146.6350 C   0  0  0  0  0  0  0  0  0  0  0  0
  190.0740  176.4020  146.5990 C   0  0  0  0  0  0  0  0  0  0  0  0
  190.5910  175.5220  147.5560 C   0  0  0  0  0  3  0  0  0  0  0  0
  190.9460  176.9420  145.6450 C   0  0  0  0  0  3  0  0  0  0  0  0
  191.9120  175.2010  147.5540 N   0  0  0  0  0  0  0  0  0  0  0  0
  193.0950  176.4000  143.3300 C   0  0  0  0  0  1  0  0  0  0  0  0
  193.2100  177.1850  144.6230 C   0  0  0  0  0  2  0  0  0  0  0  0
  185.6180  176.4060  143.6910 C   0  0  0  0  0  2  0  0  0  0  0  0
  186.5040  176.9780  142.5910 C   0  0  0  0  0  2  0  0  0  0  0  0
  189.1980  173.8450  143.3060 C   0  0  2  0  0  3  0  0  0  0  0  0
  188.2230  173.5040  142.1920 C   0  0  1  0  0  3  0  0  0  0  0  0
  190.1280  174.7010  141.2650 C   0  0  0  0  0  2  0  0  0  0  0  0
  189.5730  177.5310  142.3890 C   0  0  0  0  0  1  0  0  0  0  0  0
  188.9310  176.2420  142.8750 C   0  0  2  0  0  3  0  0  0  0  0  0
  189.9090  175.0570  142.7390 C   0  0  1  0  0  3  0  0  0  0  0  0
  187.5810  175.9870  142.1550 C   0  0  1  0  0  3  0  0  0  0  0  0
  187.0790  174.5280  142.2780 C   0  0  0  0  0  2  0  0  0  0  0  0
  189.0080  173.7320  140.9000 C   0  0  1  0  0  3  0  0  0  0  0  0
  189.6000  172.4260  140.4060 C   0  0  0  0  0  1  0  0  0  0  0  0
  190.1020  172.7980  143.5090 O   0  0  0  0  0  0  0  0  0  0  0  0
  190.9480  173.2510  144.5220 C   0  0  0  0  0  1  0  0  0  0  0  0
  1 10  2  0  0  0  0
  2  1  1  0  0  0  0
  3  9  1  0  0  0  0
  5  3  2  0  0  0  0
  5  8  1  0  0  0  0
  6  3  1  0  0  0  0
  7  4  1  6  0  0  0
  7 10  1  0  0  0  0
  8  2  1  6  0  0  0
  8  7  1  0  0  0  0
  9  4  2  0  0  0  0
 12 13  1  0  0  0  0
 13 11  1  0  0  0  0
 13 17  2  0  0  0  0
 14  1  1  0  0  0  0
 14 15  2  0  0  0  0
 16 12  2  0  0  0  0
 16 14  1  0  0  0  0
 17 15  1  0  0  0  0
 18 19  1  0  0  0  0
 19 12  1  0  0  0  0
 20  5  1  0  0  0  0
 21 20  1  0  0  0  0
 22 32  1  6  0  0  0
 23 29  1  6  0  0  0
 23 22  1  0  0  0  0
 26 25  1  6  0  0  0
 27 24  1  6  0  0  0
 27 26  1  0  0  0  0
 27 22  1  0  0  0  0
 28 29  1  0  0  0  0
 28 21  1  1  0  0  0
 28 26  1  0  0  0  0
 30 31  1  1  0  0  0
 30 24  1  0  0  0  0
 30 23  1  0  0  0  0
 32 33  1  0  0  0  0
M  END
>  <MODEL>
4

>  <REMARK>
 VINA RESULT:      -7.7      2.643      5.407
  Name = 
  6 active torsions:
  status: ('A' for Active; 'I' for Inactive)
    1  A    between atoms: C_1  and  C_7
    2  A    between atoms: C_3  and  O_10
    3  A    between atoms: C_5  and  C_20
    4  A    between atoms: C_17  and  C_32
    5  A    between atoms: C_19  and  C_25
    6  A    between atoms: C_19  and  C_32
                            x       y       z     vdW  Elec       q    Type
                         _______ _______ _______ _____ _____    ______ ____

>  <TORSDO>
F 6

$$$$
=
 OpenBabel11062421113D

 33 37  0  0  1  0  0  0  0  0999 V2000
  187.5760  175.2830  141.9030 C   0  0  0  0  0  0  0  0  0  0  0  0
  187.6780  174.0960  142.4940 C   0  0  0  0  0  2  0  0  0  0  0  0
  190.5060  172.1590  141.1000 C   0  0  0  0  0  0  0  0  0  0  0  0
  189.5800  173.6010  139.4010 C   0  0  0  0  0  3  0  0  0  0  0  0
  189.5230  172.4280  141.9980 C   0  0  0  0  0  0  0  0  0  0  0  0
  191.6840  171.3210  141.4700 C   0  0  0  0  0  1  0  0  0  0  0  0
  188.5700  174.0040  140.3750 C   0  0  1  0  0  3  0  0  0  0  0  0
  188.2640  173.1200  141.5290 C   0  0  2  0  0  3  0  0  0  0  0  0
  190.4610  172.7140  139.7650 N   0  0  0  0  0  0  0  0  0  0  0  0
  188.1770  175.2490  140.5720 C   0  0  0  0  0  3  0  0  0  0  0  0
  185.5470  180.0060  144.3300 N   0  0  0  0  0  1  0  0  0  0  0  0
  186.1180  177.6200  144.4950 C   0  0  0  0  0  0  0  0  0  0  0  0
  186.0510  178.8070  143.7490 C   0  0  0  0  0  0  0  0  0  0  0  0
  187.0450  176.4950  142.5550 C   0  0  0  0  0  0  0  0  0  0  0  0
  186.9650  177.7020  141.8530 C   0  0  0  0  0  3  0  0  0  0  0  0
  186.6130  176.4650  143.8870 C   0  0  0  0  0  3  0  0  0  0  0  0
  186.4750  178.8180  142.4560 N   0  0  0  0  0  0  0  0  0  0  0  0
  186.6290  176.7660  146.7540 C   0  0  0  0  0  1  0  0  0  0  0  0
  185.6500  177.5600  145.9120 C   0  0  0  0  0  2  0  0  0  0  0  0
  189.5550  171.8790  143.3910 C   0  0  0  0  0  2  0  0  0  0  0  0
  190.9580  172.0150  143.9720 C   0  0  0  0  0  2  0  0  0  0  0  0
  190.1220  176.0740  144.6070 C   0  0  2  0  0  3  0  0  0  0  0  0
  189.8710  175.2470  145.8570 C   0  0  1  0  0  3  0  0  0  0  0  0
  192.2090  175.9170  145.7810 C   0  0  0  0  0  2  0  0  0  0  0  0
  193.1990  174.1310  143.4560 C   0  0  0  0  0  1  0  0  0  0  0  0
  191.7460  174.4340  143.7850 C   0  0  2  0  0  3  0  0  0  0  0  0
  191.6030  175.8520  144.3770 C   0  0  1  0  0  3  0  0  0  0  0  0
  191.1440  173.3410  144.7060 C   0  0  1  0  0  3  0  0  0  0  0  0
  189.8380  173.7750  145.4130 C   0  0  0  0  0  2  0  0  0  0  0  0
  191.1010  175.4810  146.7350 C   0  0  1  0  0  3  0  0  0  0  0  0
  190.8280  176.5810  147.7420 C   0  0  0  0  0  1  0  0  0  0  0  0
  189.8610  177.4260  144.8490 O   0  0  0  0  0  0  0  0  0  0  0  0
  190.2270  178.0750  143.6690 C   0  0  0  0  0  1  0  0  0  0  0  0
  1  2  1  0  0  0  0
  1 14  1  0  0  0  0
  3  6  1  0  0  0  0
  3  5  2  0  0  0  0
  4  9  2  0  0  0  0
  5 20  1  0  0  0  0
  7  4  1  1  0  0  0
  7 10  1  0  0  0  0
  7  8  1  0  0  0  0
  8  5  1  0  0  0  0
  8  2  1  1  0  0  0
  9  3  1  0  0  0  0
 10  1  2  0  0  0  0
 12 19  1  0  0  0  0
 13 11  1  0  0  0  0
 13 12  2  0  0  0  0
 14 16  2  0  0  0  0
 15 17  2  0  0  0  0
 15 14  1  0  0  0  0
 16 12  1  0  0  0  0
 17 13  1  0  0  0  0
 19 18  1  0  0  0  0
 20 21  1  0  0  0  0
 22 32  1  1  0  0  0
 22 23  1  0  0  0  0
 23 29  1  6  0  0  0
 23 30  1  0  0  0  0
 24 30  1  0  0  0  0
 26 25  1  1  0  0  0
 26 27  1  0  0  0  0
 26 28  1  0  0  0  0
 27 22  1  0  0  0  0
 27 24  1  1  0  0  0
 28 21  1  6  0  0  0
 28 29  1  0  0  0  0
 30 31  1  1  0  0  0
 33 32  1  0  0  0  0
M  END
>  <MODEL>
5

>  <REMARK>
 VINA RESULT:      -7.6      1.406      5.710
  Name = 
  6 active torsions:
  status: ('A' for Active; 'I' for Inactive)
    1  A    between atoms: C_1  and  C_7
    2  A    between atoms: C_3  and  O_10
    3  A    between atoms: C_5  and  C_20
    4  A    between atoms: C_17  and  C_32
    5  A    between atoms: C_19  and  C_25
    6  A    between atoms: C_19  and  C_32
                            x       y       z     vdW  Elec       q    Type
                         _______ _______ _______ _____ _____    ______ ____

>  <TORSDO>
F 6

$$$$
=
 OpenBabel11062421113D

 33 37  0  0  1  0  0  0  0  0999 V2000
  190.7580  176.7420  145.5540 C   0  0  0  0  0  0  0  0  0  0  0  0
  191.3420  176.4570  144.3940 C   0  0  0  0  0  2  0  0  0  0  0  0
  194.6530  174.8930  144.9270 C   0  0  0  0  0  0  0  0  0  0  0  0
  194.1670  176.4230  146.7280 C   0  0  0  0  0  3  0  0  0  0  0  0
  193.5700  175.2620  144.1940 C   0  0  0  0  0  0  0  0  0  0  0  0
  195.5300  173.7640  144.4960 C   0  0  0  0  0  1  0  0  0  0  0  0
  192.9340  176.7660  146.0270 C   0  0  1  0  0  3  0  0  0  0  0  0
  192.8240  176.5220  144.5660 C   0  0  2  0  0  3  0  0  0  0  0  0
  194.9660  175.5570  146.1730 N   0  0  0  0  0  0  0  0  0  0  0  0
  191.7560  176.9000  146.6090 C   0  0  0  0  0  3  0  0  0  0  0  0
  185.1460  176.7860  146.4590 N   0  0  0  0  0  1  0  0  0  0  0  0
  187.0700  177.4230  145.0660 C   0  0  0  0  0  0  0  0  0  0  0  0
  186.5480  176.7900  146.2060 C   0  0  0  0  0  0  0  0  0  0  0  0
  189.2990  176.7680  145.7670 C   0  0  0  0  0  0  0  0  0  0  0  0
  188.7330  176.1470  146.8860 C   0  0  0  0  0  3  0  0  0  0  0  0
  188.4500  177.4100  144.8570 C   0  0  0  0  0  3  0  0  0  0  0  0
  187.3870  176.1710  147.0790 N   0  0  0  0  0  0  0  0  0  0  0  0
  185.9400  179.5540  144.5390 C   0  0  0  0  0  1  0  0  0  0  0  0
  186.1860  178.1260  144.0890 C   0  0  0  0  0  2  0  0  0  0  0  0
  193.2160  174.5780  142.9100 C   0  0  0  0  0  2  0  0  0  0  0  0
  192.5180  173.2540  143.2000 C   0  0  0  0  0  2  0  0  0  0  0  0
  189.1710  174.8740  141.2630 C   0  0  2  0  0  3  0  0  0  0  0  0
  189.9350  173.9200  140.3600 C   0  0  1  0  0  3  0  0  0  0  0  0
  188.3380  172.6660  141.7010 C   0  0  0  0  0  2  0  0  0  0  0  0
  189.6910  172.8810  144.4760 C   0  0  0  0  0  1  0  0  0  0  0  0
  190.0140  173.7380  143.2630 C   0  0  2  0  0  3  0  0  0  0  0  0
  188.7550  173.9630  142.4010 C   0  0  1  0  0  3  0  0  0  0  0  0
  191.1920  173.1350  142.4540 C   0  0  1  0  0  3  0  0  0  0  0  0
  191.3070  173.6960  141.0160 C   0  0  0  0  0  2  0  0  0  0  0  0
  189.1370  172.6160  140.4030 C   0  0  1  0  0  3  0  0  0  0  0  0
  188.1910  172.5390  139.2200 C   0  0  0  0  0  1  0  0  0  0  0  0
  188.0460  175.3810  140.6060 O   0  0  0  0  0  0  0  0  0  0  0  0
  187.7540  176.5730  141.2710 C   0  0  0  0  0  1  0  0  0  0  0  0
  1 14  1  0  0  0  0
  1 10  2  0  0  0  0
  2  1  1  0  0  0  0
  3  9  1  0  0  0  0
  5  8  1  0  0  0  0
  5  3  2  0  0  0  0
  6  3  1  0  0  0  0
  7 10  1  1  0  0  0
  7  4  1  0  0  0  0
  8  2  1  1  0  0  0
  8  7  1  0  0  0  0
  9  4  2  0  0  0  0
 12 13  1  0  0  0  0
 13 11  1  0  0  0  0
 13 17  2  0  0  0  0
 14 15  2  0  0  0  0
 15 17  1  0  0  0  0
 16 12  2  0  0  0  0
 16 14  1  0  0  0  0
 19 18  1  0  0  0  0
 19 12  1  0  0  0  0
 20 21  1  0  0  0  0
 20  5  1  0  0  0  0
 22 32  1  6  0  0  0
 22 27  1  0  0  0  0
 23 30  1  0  0  0  0
 23 29  1  1  0  0  0
 23 22  1  0  0  0  0
 26 25  1  1  0  0  0
 27 24  1  6  0  0  0
 27 26  1  0  0  0  0
 28 21  1  1  0  0  0
 28 26  1  0  0  0  0
 29 28  1  0  0  0  0
 30 31  1  6  0  0  0
 30 24  1  0  0  0  0
 32 33  1  0  0  0  0
M  END
>  <MODEL>
6

>  <REMARK>
 VINA RESULT:      -7.4      2.764      7.244
  Name = 
  6 active torsions:
  status: ('A' for Active; 'I' for Inactive)
    1  A    between atoms: C_1  and  C_7
    2  A    between atoms: C_3  and  O_10
    3  A    between atoms: C_5  and  C_20
    4  A    between atoms: C_17  and  C_32
    5  A    between atoms: C_19  and  C_25
    6  A    between atoms: C_19  and  C_32
                            x       y       z     vdW  Elec       q    Type
                         _______ _______ _______ _____ _____    ______ ____

>  <TORSDO>
F 6

$$$$
=
 OpenBabel11062421113D

 33 37  0  0  1  0  0  0  0  0999 V2000
  189.1650  177.1900  146.2270 C   0  0  0  0  0  0  0  0  0  0  0  0
  190.1280  177.5600  145.3880 C   0  0  0  0  0  2  0  0  0  0  0  0
  192.7920  174.9960  145.2200 C   0  0  0  0  0  0  0  0  0  0  0  0
  191.7860  174.9940  147.4130 C   0  0  0  0  0  3  0  0  0  0  0  0
  192.1280  176.1090  144.8120 C   0  0  0  0  0  0  0  0  0  0  0  0
  193.6550  174.2220  144.2790 C   0  0  0  0  0  1  0  0  0  0  0  0
  190.9690  176.1210  146.9760 C   0  0  1  0  0  3  0  0  0  0  0  0
  191.4210  176.9630  145.8390 C   0  0  2  0  0  3  0  0  0  0  0  0
  192.6510  174.5020  146.5720 N   0  0  0  0  0  0  0  0  0  0  0  0
  189.6760  176.2440  147.2150 C   0  0  0  0  0  3  0  0  0  0  0  0
  183.6910  178.6660  145.8040 N   0  0  0  0  0  1  0  0  0  0  0  0
  185.9570  178.6440  144.8480 C   0  0  0  0  0  0  0  0  0  0  0  0
  185.0690  178.3080  145.8820 C   0  0  0  0  0  0  0  0  0  0  0  0
  187.7500  177.5850  146.0940 C   0  0  0  0  0  0  0  0  0  0  0  0
  186.8260  177.2670  147.0960 C   0  0  0  0  0  3  0  0  0  0  0  0
  187.3000  178.2810  144.9650 C   0  0  0  0  0  3  0  0  0  0  0  0
  185.5220  177.6310  146.9710 N   0  0  0  0  0  0  0  0  0  0  0  0
  185.9130  178.6660  142.3800 C   0  0  0  0  0  1  0  0  0  0  0  0
  185.5040  179.4000  143.6420 C   0  0  0  0  0  2  0  0  0  0  0  0
  192.2450  176.6300  143.4130 C   0  0  0  0  0  2  0  0  0  0  0  0
  190.8870  176.5790  142.7230 C   0  0  0  0  0  2  0  0  0  0  0  0
  189.5970  173.4390  140.2630 C   0  0  2  0  0  3  0  0  0  0  0  0
  190.8440  173.0630  141.0450 C   0  0  1  0  0  3  0  0  0  0  0  0
  188.8700  172.5930  142.3880 C   0  0  0  0  0  2  0  0  0  0  0  0
  187.9800  175.4820  143.0520 C   0  0  0  0  0  1  0  0  0  0  0  0
  188.9640  175.0850  141.9630 C   0  0  2  0  0  3  0  0  0  0  0  0
  188.6000  173.7070  141.3730 C   0  0  1  0  0  3  0  0  0  0  0  0
  190.4240  175.1440  142.4840 C   0  0  1  0  0  3  0  0  0  0  0  0
  191.4300  174.3730  141.5970 C   0  0  0  0  0  2  0  0  0  0  0  0
  190.3360  172.2090  142.2070 C   0  0  1  0  0  3  0  0  0  0  0  0
  190.4420  170.7360  141.8640 C   0  0  0  0  0  1  0  0  0  0  0  0
  189.1700  172.3690  139.4690 O   0  0  0  0  0  0  0  0  0  0  0  0
  188.1910  172.9130  138.6370 C   0  0  0  0  0  1  0  0  0  0  0  0
  1 10  2  0  0  0  0
  2  1  1  0  0  0  0
  3  9  1  0  0  0  0
  5  3  2  0  0  0  0
  5  8  1  0  0  0  0
  6  3  1  0  0  0  0
  7 10  1  6  0  0  0
  7  4  1  0  0  0  0
  8  2  1  6  0  0  0
  8  7  1  0  0  0  0
  9  4  2  0  0  0  0
 11 13  1  0  0  0  0
 12 16  2  0  0  0  0
 12 13  1  0  0  0  0
 13 17  2  0  0  0  0
 14  1  1  0  0  0  0
 14 15  2  0  0  0  0
 16 14  1  0  0  0  0
 17 15  1  0  0  0  0
 18 19  1  0  0  0  0
 19 12  1  0  0  0  0
 20  5  1  0  0  0  0
 21 20  1  0  0  0  0
 22 32  1  6  0  0  0
 22 23  1  0  0  0  0
 22 27  1  0  0  0  0
 23 29  1  1  0  0  0
 23 30  1  0  0  0  0
 26 28  1  0  0  0  0
 26 25  1  1  0  0  0
 27 26  1  0  0  0  0
 27 24  1  1  0  0  0
 28 21  1  6  0  0  0
 29 28  1  0  0  0  0
 30 31  1  6  0  0  0
 30 24  1  0  0  0  0
 33 32  1  0  0  0  0
M  END
>  <MODEL>
7

>  <REMARK>
 VINA RESULT:      -7.4      2.619      6.935
  Name = 
  6 active torsions:
  status: ('A' for Active; 'I' for Inactive)
    1  A    between atoms: C_1  and  C_7
    2  A    between atoms: C_3  and  O_10
    3  A    between atoms: C_5  and  C_20
    4  A    between atoms: C_17  and  C_32
    5  A    between atoms: C_19  and  C_25
    6  A    between atoms: C_19  and  C_32
                            x       y       z     vdW  Elec       q    Type
                         _______ _______ _______ _____ _____    ______ ____

>  <TORSDO>
F 6

$$$$
=
 OpenBabel11062421113D

 33 37  0  0  1  0  0  0  0  0999 V2000
  187.2270  177.3860  144.7460 C   0  0  0  0  0  0  0  0  0  0  0  0
  188.4870  177.7500  144.5270 C   0  0  0  0  0  2  0  0  0  0  0  0
  190.8460  175.3220  146.0210 C   0  0  0  0  0  0  0  0  0  0  0  0
  188.8180  175.4070  147.3260 C   0  0  0  0  0  3  0  0  0  0  0  0
  190.4950  176.3700  145.2330 C   0  0  0  0  0  0  0  0  0  0  0  0
  192.0860  174.5340  145.7560 C   0  0  0  0  0  1  0  0  0  0  0  0
  188.3540  176.4610  146.4290 C   0  0  1  0  0  3  0  0  0  0  0  0
  189.3390  177.2510  145.6470 C   0  0  2  0  0  3  0  0  0  0  0  0
  190.0030  174.9090  147.1230 N   0  0  0  0  0  0  0  0  0  0  0  0
  187.1340  176.5320  145.9280 C   0  0  0  0  0  3  0  0  0  0  0  0
  182.8310  178.6020  141.3520 N   0  0  0  0  0  1  0  0  0  0  0  0
  185.1890  177.9530  141.6100 C   0  0  0  0  0  0  0  0  0  0  0  0
  183.9510  178.2910  142.1780 C   0  0  0  0  0  0  0  0  0  0  0  0
  186.1020  177.6980  143.8440 C   0  0  0  0  0  0  0  0  0  0  0  0
  184.8470  178.0350  144.3640 C   0  0  0  0  0  3  0  0  0  0  0  0
  186.2630  177.6610  142.4540 C   0  0  0  0  0  3  0  0  0  0  0  0
  183.8120  178.3220  143.5310 N   0  0  0  0  0  0  0  0  0  0  0  0
  186.6900  177.2210  139.7920 C   0  0  0  0  0  1  0  0  0  0  0  0
  185.3890  177.9220  140.1310 C   0  0  0  0  0  2  0  0  0  0  0  0
  191.3420  176.8060  144.0770 C   0  0  0  0  0  2  0  0  0  0  0  0
  190.6560  176.4470  142.7640 C   0  0  0  0  0  2  0  0  0  0  0  0
  190.8020  173.0070  140.3720 C   0  0  2  0  0  3  0  0  0  0  0  0
  191.8210  172.9520  141.4970 C   0  0  1  0  0  3  0  0  0  0  0  0
  189.6850  172.0990  142.2930 C   0  0  0  0  0  2  0  0  0  0  0  0
  188.0670  174.7360  142.3980 C   0  0  0  0  0  1  0  0  0  0  0  0
  189.3830  174.5300  141.6630 C   0  0  2  0  0  3  0  0  0  0  0  0
  189.4950  173.0850  141.1370 C   0  0  1  0  0  3  0  0  0  0  0  0
  190.5860  174.9370  142.5520 C   0  0  1  0  0  3  0  0  0  0  0  0
  191.9420  174.3800  142.0540 C   0  0  0  0  0  2  0  0  0  0  0  0
  191.1870  172.0500  142.5570 C   0  0  1  0  0  3  0  0  0  0  0  0
  191.6880  170.6270  142.4050 C   0  0  0  0  0  1  0  0  0  0  0  0
  190.8510  171.8400  139.6040 O   0  0  0  0  0  0  0  0  0  0  0  0
  190.0820  172.1250  138.4750 C   0  0  0  0  0  1  0  0  0  0  0  0
  1 10  2  0  0  0  0
  2  1  1  0  0  0  0
  3  9  1  0  0  0  0
  5  8  1  0  0  0  0
  5  3  2  0  0  0  0
  6  3  1  0  0  0  0
  7 10  1  6  0  0  0
  7  4  1  0  0  0  0
  8  2  1  6  0  0  0
  8  7  1  0  0  0  0
  9  4  2  0  0  0  0
 11 13  1  0  0  0  0
 12 13  2  0  0  0  0
 12 16  1  0  0  0  0
 13 17  1  0  0  0  0
 14 15  1  0  0  0  0
 14  1  1  0  0  0  0
 16 14  2  0  0  0  0
 17 15  2  0  0  0  0
 18 19  1  0  0  0  0
 19 12  1  0  0  0  0
 20  5  1  0  0  0  0
 21 20  1  0  0  0  0
 22 32  1  1  0  0  0
 22 27  1  0  0  0  0
 22 23  1  0  0  0  0
 23 29  1  1  0  0  0
 23 30  1  0  0  0  0
 24 30  1  0  0  0  0
 26 25  1  1  0  0  0
 26 28  1  0  0  0  0
 27 26  1  0  0  0  0
 27 24  1  1  0  0  0
 28 21  1  6  0  0  0
 29 28  1  0  0  0  0
 30 31  1  6  0  0  0
 33 32  1  0  0  0  0
M  END
>  <MODEL>
8

>  <REMARK>
 VINA RESULT:      -7.3      2.557      5.962
  Name = 
  6 active torsions:
  status: ('A' for Active; 'I' for Inactive)
    1  A    between atoms: C_1  and  C_7
    2  A    between atoms: C_3  and  O_10
    3  A    between atoms: C_5  and  C_20
    4  A    between atoms: C_17  and  C_32
    5  A    between atoms: C_19  and  C_25
    6  A    between atoms: C_19  and  C_32
                            x       y       z     vdW  Elec       q    Type
                         _______ _______ _______ _____ _____    ______ ____

>  <TORSDO>
F 6

$$$$
=
 OpenBabel11062421113D

 33 37  0  0  1  0  0  0  0  0999 V2000
  193.6570  175.4690  144.9880 C   0  0  0  0  0  0  0  0  0  0  0  0
  192.7090  174.5390  145.0450 C   0  0  0  0  0  2  0  0  0  0  0  0
  189.7620  175.7670  146.9180 C   0  0  0  0  0  0  0  0  0  0  0  0
  191.7700  176.7930  147.7780 C   0  0  0  0  0  3  0  0  0  0  0  0
  190.4340  174.9100  146.1070 C   0  0  0  0  0  0  0  0  0  0  0  0
  188.2720  175.8520  146.8890 C   0  0  0  0  0  1  0  0  0  0  0  0
  192.5240  175.9700  146.8380 C   0  0  1  0  0  3  0  0  0  0  0  0
  191.9210  174.7230  146.3010 C   0  0  2  0  0  3  0  0  0  0  0  0
  190.4750  176.6570  147.8080 N   0  0  0  0  0  0  0  0  0  0  0  0
  193.5260  176.4090  146.0980 C   0  0  0  0  0  3  0  0  0  0  0  0
  197.4500  176.0400  140.7920 N   0  0  0  0  0  1  0  0  0  0  0  0
  195.3140  175.1310  141.6050 C   0  0  0  0  0  0  0  0  0  0  0  0
  196.4810  175.8800  141.8250 C   0  0  0  0  0  0  0  0  0  0  0  0
  194.6270  175.6010  143.8840 C   0  0  0  0  0  0  0  0  0  0  0  0
  195.8010  176.3430  144.0550 C   0  0  0  0  0  3  0  0  0  0  0  0
  194.3930  174.9930  142.6440 C   0  0  0  0  0  3  0  0  0  0  0  0
  196.6920  176.4650  143.0350 N   0  0  0  0  0  0  0  0  0  0  0  0
  193.5730  174.5310  139.9610 C   0  0  0  0  0  1  0  0  0  0  0  0
  195.0500  174.4610  140.2970 C   0  0  0  0  0  2  0  0  0  0  0  0
  189.7190  173.9910  145.1640 C   0  0  0  0  0  2  0  0  0  0  0  0
  189.8040  174.5350  143.7430 C   0  0  0  0  0  2  0  0  0  0  0  0
  187.5940  177.0900  141.2600 C   0  0  2  0  0  3  0  0  0  0  0  0
  186.6920  176.2710  142.1680 C   0  0  1  0  0  3  0  0  0  0  0  0
  187.3960  178.2900  143.3300 C   0  0  0  0  0  2  0  0  0  0  0  0
  190.3740  177.6060  143.8240 C   0  0  0  0  0  1  0  0  0  0  0  0
  189.4510  176.8970  142.8460 C   0  0  2  0  0  3  0  0  0  0  0  0
  188.4140  177.8780  142.2620 C   0  0  1  0  0  3  0  0  0  0  0  0
  188.7940  175.6540  143.5010 C   0  0  1  0  0  3  0  0  0  0  0  0
  187.5540  175.1320  142.7360 C   0  0  0  0  0  2  0  0  0  0  0  0
  186.3050  177.2230  143.3000 C   0  0  1  0  0  3  0  0  0  0  0  0
  184.9640  177.8690  143.0110 C   0  0  0  0  0  1  0  0  0  0  0  0
  186.8370  177.9530  140.4610 O   0  0  0  0  0  0  0  0  0  0  0  0
  186.4170  177.1650  139.3880 C   0  0  0  0  0  1  0  0  0  0  0  0
  1  2  1  0  0  0  0
  1 10  2  0  0  0  0
  3  9  1  0  0  0  0
  4  9  2  0  0  0  0
  5  8  1  0  0  0  0
  5  3  2  0  0  0  0
  6  3  1  0  0  0  0
  7 10  1  6  0  0  0
  7  4  1  0  0  0  0
  8  2  1  6  0  0  0
  8  7  1  0  0  0  0
 11 13  1  0  0  0  0
 12 13  2  0  0  0  0
 12 16  1  0  0  0  0
 13 17  1  0  0  0  0
 14 15  1  0  0  0  0
 14  1  1  0  0  0  0
 16 14  2  0  0  0  0
 17 15  2  0  0  0  0
 18 19  1  0  0  0  0
 19 12  1  0  0  0  0
 20  5  1  0  0  0  0
 21 20  1  0  0  0  0
 22 32  1  6  0  0  0
 22 23  1  0  0  0  0
 22 27  1  0  0  0  0
 23 29  1  1  0  0  0
 23 30  1  0  0  0  0
 26 28  1  0  0  0  0
 26 25  1  1  0  0  0
 27 26  1  0  0  0  0
 27 24  1  1  0  0  0
 28 21  1  6  0  0  0
 29 28  1  0  0  0  0
 30 31  1  6  0  0  0
 30 24  1  0  0  0  0
 33 32  1  0  0  0  0
M  END
>  <MODEL>
9

>  <REMARK>
 VINA RESULT:      -7.3      3.417      6.537
  Name = 
  6 active torsions:
  status: ('A' for Active; 'I' for Inactive)
    1  A    between atoms: C_1  and  C_7
    2  A    between atoms: C_3  and  O_10
    3  A    between atoms: C_5  and  C_20
    4  A    between atoms: C_17  and  C_32
    5  A    between atoms: C_19  and  C_25
    6  A    between atoms: C_19  and  C_32
                            x       y       z     vdW  Elec       q    Type
                         _______ _______ _______ _____ _____    ______ ____

>  <TORSDO>
F 6

$$$$
