=
 OpenBabel11062419023D

 51 56  0  0  1  0  0  0  0  0999 V2000
  191.9410  175.2390  145.1440 C   0  0  2  0  0  3  0  0  0  0  0  0
  190.7540  174.7080  144.3200 C   0  0  2  0  0  3  0  0  0  0  0  0
  189.2950  176.4690  145.3960 C   0  0  1  0  0  3  0  0  0  0  0  0
  189.4270  174.9890  145.0290 C   0  0  0  0  0  2  0  0  0  0  0  0
  191.7200  176.7140  145.4930 C   0  0  0  0  0  2  0  0  0  0  0  0
  190.4430  176.9620  146.1770 N   0  0  0  0  0  0  0  0  0  0  0  0
  193.4510  176.1330  143.3160 C   0  0  0  0  0  2  0  0  0  0  0  0
  195.8690  176.1760  143.6650 N   0  0  0  0  0  0  0  0  0  0  0  0
  194.4900  175.1430  145.4040 C   0  0  0  0  0  2  0  0  0  0  0  0
  193.2980  175.1060  144.4370 C   0  0  0  0  0  3  0  0  0  0  0  0
  195.7990  175.0710  144.6200 C   0  0  0  0  0  2  0  0  0  0  0  0
  197.0540  176.0660  143.0220 O   0  0  0  0  0  1  0  0  0  0  0  0
  194.8230  175.9810  142.6640 C   0  0  0  0  0  2  0  0  0  0  0  0
  189.8850  172.3270  144.6470 C   0  0  0  0  0  1  0  0  0  0  0  0
  190.9070  173.2270  143.9600 C   0  0  1  0  0  3  0  0  0  0  0  0
  190.8930  173.0350  142.4500 C   0  0  0  0  0  2  0  0  0  0  0  0
  190.4340  174.3030  141.7330 C   0  0  0  0  0  2  0  0  0  0  0  0
  189.1060  174.0930  141.0180 C   0  0  2  0  0  3  0  0  0  0  0  0
  187.9440  174.4930  141.9110 C   0  0  0  0  0  1  0  0  0  0  0  0
  188.9710  172.6360  140.6110 C   0  0  0  0  0  2  0  0  0  0  0  0
  188.9800  173.7100  137.1160 C   0  0  0  0  0  2  0  0  0  0  0  0
  188.4840  173.6890  138.4790 N   0  0  0  0  0  2  0  0  0  0  0  0
  190.4930  172.3360  138.6520 C   0  0  2  0  0  3  0  0  0  0  0  0
  189.0420  172.4960  139.0990 C   0  0  1  0  0  3  0  0  0  0  0  0
  190.7460  173.3230  137.1510 S   0  0  0  0  0  0  0  0  0  0  0  0
  189.7320  169.9780  138.0030 C   0  0  0  0  0  1  0  0  0  0  0  0
  190.9000  170.8760  138.3920 C   0  0  2  0  0  3  0  0  0  0  0  0
  193.9230  170.3070  141.2430 C   0  0  0  0  0  0  0  0  0  0  0  0
  193.7950  169.3440  140.0980 C   0  0  0  0  0  2  0  0  0  0  0  0
  190.8170  169.4750  141.6920 C   0  0  0  0  0  2  0  0  0  0  0  0
  192.0910  169.1930  142.4850 C   0  0  0  0  0  2  0  0  0  0  0  0
  191.7380  170.2480  139.5070 C   0  0  2  0  0  3  0  0  0  0  0  0
  193.0130  169.8540  139.0360 O   0  0  0  0  0  0  0  0  0  0  0  0
  194.7910  171.2170  141.1940 O   0  0  0  0  0  0  0  0  0  0  0  0
  193.0510  170.2370  142.3340 O   0  0  0  0  0  0  0  0  0  0  0  0
  190.9720  169.1320  140.2170 C   0  0  0  0  0  2  0  0  0  0  0  0
  190.4460  176.3410  147.4990 C   0  0  0  0  0  2  0  0  0  0  0  0
  191.5920  176.9010  148.3250 C   0  0  0  0  0  2  0  0  0  0  0  0
  190.2480  178.8020  148.8390 O   0  0  0  0  0  0  0  0  0  0  0  0
  191.1040  177.9700  149.2450 C   0  0  0  0  0  0  0  0  0  0  0  0
  191.6280  178.0770  150.5660 N   0  0  0  0  0  1  0  0  0  0  0  0
  189.1140  177.2730  144.1910 N   0  0  0  0  0  2  0  0  0  0  0  0
  184.3640  179.1670  144.1310 C   0  0  0  0  0  2  0  0  0  0  0  0
  186.7800  178.1780  144.7860 C   0  0  1  0  0  3  0  0  0  0  0  0
  187.8650  177.8580  143.8080 C   0  0  0  0  0  0  0  0  0  0  0  0
  187.5410  178.1680  142.5560 C   0  0  0  0  0  3  0  0  0  0  0  0
  185.4360  180.0790  144.2060 O   0  0  0  0  0  0  0  0  0  0  0  0
  186.2390  178.7320  142.4720 N   0  0  0  0  0  2  0  0  0  0  0  0
  185.7550  178.7610  143.8350 C   0  0  2  0  0  0  0  0  0  0  0  0
  186.2430  176.9000  145.4150 C   0  0  0  0  0  2  0  0  0  0  0  0
  185.8350  177.1550  146.7240 O   0  0  0  0  0  1  0  0  0  0  0  0
  1 10  1  6  0  0  0
  1  5  1  0  0  0  0
  2 15  1  1  0  0  0
  2  4  1  0  0  0  0
  2  1  1  0  0  0  0
  3 42  1  6  0  0  0
  3  6  1  0  0  0  0
  4  3  1  0  0  0  0
  5  6  1  0  0  0  0
  6 37  1  0  0  0  0
  7 10  1  0  0  0  0
  8 11  1  0  0  0  0
 10  9  1  0  0  0  0
 11  9  1  0  0  0  0
 12  8  1  0  0  0  0
 13  7  1  0  0  0  0
 13  8  1  0  0  0  0
 15 14  1  1  0  0  0
 16 15  1  0  0  0  0
 17 16  1  0  0  0  0
 18 17  1  0  0  0  0
 18 19  1  1  0  0  0
 20 18  1  0  0  0  0
 21 25  1  0  0  0  0
 21 22  1  0  0  0  0
 22 24  1  0  0  0  0
 23 27  1  6  0  0  0
 23 24  1  0  0  0  0
 24 20  1  1  0  0  0
 25 23  1  0  0  0  0
 27 26  1  1  0  0  0
 28 35  1  0  0  0  0
 29 28  1  0  0  0  0
 30 31  1  0  0  0  0
 32 27  1  6  0  0  0
 32 36  1  0  0  0  0
 33 32  1  0  0  0  0
 33 29  1  0  0  0  0
 34 28  2  0  0  0  0
 35 31  1  0  0  0  0
 36 30  1  0  0  0  0
 37 38  1  0  0  0  0
 38 40  1  0  0  0  0
 39 40  2  0  0  0  0
 40 41  1  0  0  0  0
 43 47  1  0  0  0  0
 44 50  1  6  0  0  0
 45 42  1  0  0  0  0
 45 44  1  0  0  0  0
 46 45  2  0  0  0  0
 48 46  1  0  0  0  0
 48 49  1  0  0  0  0
 49 43  1  1  0  0  0
 49 47  1  0  0  0  0
 49 44  1  0  0  0  0
 50 51  1  0  0  0  0
M  END
>  <MODEL>
1

>  <REMARK>
 VINA RESULT:      -7.1      0.000      0.000
  Name = 
  15 active torsions:
  status: ('A' for Active; 'I' for Inactive)
    1  A    between atoms: C_3  and  C_18
    2  A    between atoms: C_4  and  C_31
    3  A    between atoms: C_4  and  C_42
    4  A    between atoms: C_5  and  C_31
    5  A    between atoms: C_5  and  C_47
    6  A    between atoms: C_6  and  C_9
    7  A    between atoms: C_6  and  C_46
    8  A    between atoms: C_9  and  N_50
    9  A    between atoms: C_10  and  C_25
   10  A    between atoms: C_13  and  N_28
   11  A    between atoms: C_14  and  C_47
   12  A    between atoms: C_16  and  C_21
   13  A    between atoms: C_16  and  C_35
   14  A    between atoms: C_24  and  N_28
   15  A    between atoms: C_38  and  C_42
                            x       y       z     vdW  Elec       q    Type
                         _______ _______ _______ _____ _____    ______ ____

>  <TORSDO>
F 15

$$$$
=
 OpenBabel11062419023D

 51 56  0  0  1  0  0  0  0  0999 V2000
  190.5930  173.1790  140.7110 C   0  0  2  0  0  3  0  0  0  0  0  0
  190.1630  174.3290  141.6400 C   0  0  2  0  0  3  0  0  0  0  0  0
  192.1330  173.7850  143.1270 C   0  0  1  0  0  3  0  0  0  0  0  0
  190.6310  174.0770  143.0740 C   0  0  0  0  0  2  0  0  0  0  0  0
  192.0990  172.9320  140.8420 C   0  0  0  0  0  2  0  0  0  0  0  0
  192.5270  172.6880  142.2280 N   0  0  0  0  0  0  0  0  0  0  0  0
  191.5310  173.7080  138.4170 C   0  0  0  0  0  2  0  0  0  0  0  0
  190.5000  172.7160  136.4370 N   0  0  0  0  0  0  0  0  0  0  0  0
  189.4360  172.2940  138.6010 C   0  0  0  0  0  2  0  0  0  0  0  0
  190.2690  173.4210  139.2290 C   0  0  0  0  0  3  0  0  0  0  0  0
  189.2130  172.5780  137.1160 C   0  0  0  0  0  2  0  0  0  0  0  0
  190.2340  172.9430  135.1300 O   0  0  0  0  0  1  0  0  0  0  0  0
  191.1620  173.9120  136.9500 C   0  0  0  0  0  2  0  0  0  0  0  0
  187.8020  173.4170  141.9860 C   0  0  0  0  0  1  0  0  0  0  0  0
  188.6580  174.6080  141.5690 C   0  0  1  0  0  3  0  0  0  0  0  0
  188.3040  175.8560  142.3640 C   0  0  0  0  0  2  0  0  0  0  0  0
  186.8030  175.9350  142.6350 C   0  0  0  0  0  2  0  0  0  0  0  0
  186.3360  177.3760  142.7880 C   0  0  2  0  0  3  0  0  0  0  0  0
  186.4410  178.1200  141.4680 C   0  0  0  0  0  1  0  0  0  0  0  0
  187.1750  178.0740  143.8450 C   0  0  0  0  0  2  0  0  0  0  0  0
  184.1040  178.7920  145.6940 C   0  0  0  0  0  2  0  0  0  0  0  0
  184.9860  178.8550  144.5450 N   0  0  0  0  0  2  0  0  0  0  0  0
  186.1780  177.3320  146.0120 C   0  0  2  0  0  3  0  0  0  0  0  0
  186.3100  178.4880  145.0250 C   0  0  1  0  0  3  0  0  0  0  0  0
  184.4620  177.2680  146.5990 S   0  0  0  0  0  0  0  0  0  0  0  0
  187.2060  178.8280  147.8190 C   0  0  0  0  0  1  0  0  0  0  0  0
  187.1360  177.4320  147.2110 C   0  0  2  0  0  3  0  0  0  0  0  0
  191.2410  176.6620  147.5970 C   0  0  0  0  0  0  0  0  0  0  0  0
  190.7300  177.3510  146.3640 C   0  0  0  0  0  2  0  0  0  0  0  0
  189.0470  174.4390  146.7110 C   0  0  0  0  0  2  0  0  0  0  0  0
  190.5740  174.4400  146.7260 C   0  0  0  0  0  2  0  0  0  0  0  0
  188.5330  176.8690  146.9490 C   0  0  2  0  0  3  0  0  0  0  0  0
  189.4290  177.8800  146.5300 O   0  0  0  0  0  0  0  0  0  0  0  0
  191.7620  177.3450  148.5180 O   0  0  0  0  0  0  0  0  0  0  0  0
  191.0920  175.2820  147.7560 O   0  0  0  0  0  0  0  0  0  0  0  0
  188.4800  175.6650  146.0080 C   0  0  0  0  0  2  0  0  0  0  0  0
  191.9760  171.4260  142.7140 C   0  0  0  0  0  2  0  0  0  0  0  0
  192.4270  171.1880  144.1460 C   0  0  0  0  0  2  0  0  0  0  0  0
  192.8120  168.8360  144.2090 O   0  0  0  0  0  0  0  0  0  0  0  0
  193.3160  169.9920  144.2240 C   0  0  0  0  0  0  0  0  0  0  0  0
  194.7260  170.1510  144.3560 N   0  0  0  0  0  1  0  0  0  0  0  0
  192.8910  174.9950  142.8220 N   0  0  0  0  0  2  0  0  0  0  0  0
  197.8820  176.1060  142.9020 C   0  0  0  0  0  2  0  0  0  0  0  0
  195.2760  175.8060  142.3000 C   0  0  1  0  0  3  0  0  0  0  0  0
  194.2560  175.1940  143.2050 C   0  0  0  0  0  0  0  0  0  0  0  0
  194.7530  174.8530  144.3910 C   0  0  0  0  0  3  0  0  0  0  0  0
  196.9860  177.0620  143.4200 O   0  0  0  0  0  0  0  0  0  0  0  0
  196.1360  175.1660  144.4920 N   0  0  0  0  0  2  0  0  0  0  0  0
  196.4780  175.7670  143.2210 C   0  0  2  0  0  0  0  0  0  0  0  0
  195.5130  174.9120  141.0920 C   0  0  0  0  0  2  0  0  0  0  0  0
  194.7240  175.3430  140.0250 O   0  0  0  0  0  1  0  0  0  0  0  0
  1 10  1  6  0  0  0
  1  5  1  0  0  0  0
  1  2  1  0  0  0  0
  2 15  1  1  0  0  0
  2  4  1  0  0  0  0
  3 42  1  6  0  0  0
  4  3  1  0  0  0  0
  5  6  1  0  0  0  0
  6 37  1  0  0  0  0
  6  3  1  0  0  0  0
  7 10  1  0  0  0  0
  8 13  1  0  0  0  0
  8 11  1  0  0  0  0
  9 10  1  0  0  0  0
 11  9  1  0  0  0  0
 12  8  1  0  0  0  0
 13  7  1  0  0  0  0
 15 14  1  1  0  0  0
 15 16  1  0  0  0  0
 16 17  1  0  0  0  0
 17 18  1  0  0  0  0
 18 19  1  6  0  0  0
 18 20  1  0  0  0  0
 21 25  1  0  0  0  0
 22 24  1  0  0  0  0
 22 21  1  0  0  0  0
 23 25  1  0  0  0  0
 23 27  1  1  0  0  0
 24 20  1  6  0  0  0
 24 23  1  0  0  0  0
 27 26  1  6  0  0  0
 28 35  1  0  0  0  0
 28 34  2  0  0  0  0
 29 33  1  0  0  0  0
 29 28  1  0  0  0  0
 30 31  1  0  0  0  0
 31 35  1  0  0  0  0
 32 27  1  6  0  0  0
 33 32  1  0  0  0  0
 36 30  1  0  0  0  0
 36 32  1  0  0  0  0
 37 38  1  0  0  0  0
 38 40  1  0  0  0  0
 39 40  2  0  0  0  0
 40 41  1  0  0  0  0
 42 45  1  0  0  0  0
 43 47  1  0  0  0  0
 44 50  1  6  0  0  0
 44 45  1  0  0  0  0
 44 49  1  0  0  0  0
 45 46  2  0  0  0  0
 46 48  1  0  0  0  0
 49 43  1  6  0  0  0
 49 47  1  0  0  0  0
 49 48  1  0  0  0  0
 51 50  1  0  0  0  0
M  END
>  <MODEL>
2

>  <REMARK>
 VINA RESULT:      -6.6      3.065      8.719
  Name = 
  15 active torsions:
  status: ('A' for Active; 'I' for Inactive)
    1  A    between atoms: C_3  and  C_18
    2  A    between atoms: C_4  and  C_31
    3  A    between atoms: C_4  and  C_42
    4  A    between atoms: C_5  and  C_31
    5  A    between atoms: C_5  and  C_47
    6  A    between atoms: C_6  and  C_9
    7  A    between atoms: C_6  and  C_46
    8  A    between atoms: C_9  and  N_50
    9  A    between atoms: C_10  and  C_25
   10  A    between atoms: C_13  and  N_28
   11  A    between atoms: C_14  and  C_47
   12  A    between atoms: C_16  and  C_21
   13  A    between atoms: C_16  and  C_35
   14  A    between atoms: C_24  and  N_28
   15  A    between atoms: C_38  and  C_42
                            x       y       z     vdW  Elec       q    Type
                         _______ _______ _______ _____ _____    ______ ____

>  <TORSDO>
F 15

$$$$
=
 OpenBabel11062419023D

 51 56  0  0  1  0  0  0  0  0999 V2000
  194.4840  173.8260  145.0180 C   0  0  2  0  0  3  0  0  0  0  0  0
  194.5160  173.7650  143.4800 C   0  0  2  0  0  3  0  0  0  0  0  0
  194.6640  171.2460  143.6420 C   0  0  1  0  0  3  0  0  0  0  0  0
  195.2440  172.5080  142.9980 C   0  0  0  0  0  2  0  0  0  0  0  0
  193.9180  172.5200  145.5840 C   0  0  0  0  0  2  0  0  0  0  0  0
  194.6340  171.3250  145.1120 N   0  0  0  0  0  0  0  0  0  0  0  0
  192.3830  174.5050  146.2610 C   0  0  0  0  0  2  0  0  0  0  0  0
  192.4500  176.4140  147.7850 N   0  0  0  0  0  0  0  0  0  0  0  0
  194.4720  175.9220  146.4940 C   0  0  0  0  0  2  0  0  0  0  0  0
  193.6600  174.9940  145.5780 C   0  0  0  0  0  3  0  0  0  0  0  0
  193.5670  177.0170  147.0580 C   0  0  0  0  0  2  0  0  0  0  0  0
  191.7050  177.4310  148.2740 O   0  0  0  0  0  1  0  0  0  0  0  0
  191.6150  175.6980  146.8250 C   0  0  0  0  0  2  0  0  0  0  0  0
  196.3870  174.7970  142.0790 C   0  0  0  0  0  1  0  0  0  0  0  0
  195.0970  175.0370  142.8550 C   0  0  1  0  0  3  0  0  0  0  0  0
  194.0530  175.7420  142.0010 C   0  0  0  0  0  2  0  0  0  0  0  0
  192.6790  175.0950  142.1560 C   0  0  0  0  0  2  0  0  0  0  0  0
  191.6080  176.1270  142.4840 C   0  0  2  0  0  3  0  0  0  0  0  0
  192.1380  177.1620  143.4610 C   0  0  0  0  0  1  0  0  0  0  0  0
  190.3940  175.4300  143.0750 C   0  0  0  0  0  2  0  0  0  0  0  0
  187.2460  176.4400  141.5130 C   0  0  0  0  0  2  0  0  0  0  0  0
  188.6300  176.0090  141.5100 N   0  0  0  0  0  2  0  0  0  0  0  0
  188.0690  175.8840  143.8690 C   0  0  2  0  0  3  0  0  0  0  0  0
  189.1400  176.2610  142.8490 C   0  0  1  0  0  3  0  0  0  0  0  0
  186.4640  175.8230  143.0230 S   0  0  0  0  0  0  0  0  0  0  0  0
  188.1100  176.1500  146.4160 C   0  0  0  0  0  1  0  0  0  0  0  0
  187.9910  176.8460  145.0660 C   0  0  2  0  0  3  0  0  0  0  0  0
  184.6520  178.9750  143.6840 C   0  0  0  0  0  0  0  0  0  0  0  0
  185.8830  179.7230  144.1090 C   0  0  0  0  0  2  0  0  0  0  0  0
  184.9190  177.7510  146.6800 C   0  0  0  0  0  2  0  0  0  0  0  0
  183.9140  178.7030  146.0340 C   0  0  0  0  0  2  0  0  0  0  0  0
  186.7930  177.7960  145.0330 C   0  0  2  0  0  3  0  0  0  0  0  0
  187.0300  178.8990  144.1800 O   0  0  0  0  0  0  0  0  0  0  0  0
  184.4410  178.7730  142.4600 O   0  0  0  0  0  0  0  0  0  0  0  0
  183.7710  178.4540  144.6360 O   0  0  0  0  0  0  0  0  0  0  0  0
  186.3570  178.1910  146.4450 C   0  0  0  0  0  2  0  0  0  0  0  0
  195.9970  171.3100  145.6370 C   0  0  0  0  0  2  0  0  0  0  0  0
  196.6320  169.9550  145.3750 C   0  0  0  0  0  2  0  0  0  0  0  0
  195.2450  168.1730  146.1390 O   0  0  0  0  0  0  0  0  0  0  0  0
  196.1940  168.9620  146.3980 C   0  0  0  0  0  0  0  0  0  0  0  0
  196.8170  168.9270  147.6800 N   0  0  0  0  0  1  0  0  0  0  0  0
  193.3270  170.9830  143.1170 N   0  0  0  0  0  2  0  0  0  0  0  0
  191.3220  171.4340  138.4340 C   0  0  0  0  0  2  0  0  0  0  0  0
  192.0130  171.6940  141.0230 C   0  0  1  0  0  3  0  0  0  0  0  0
  193.0340  170.8540  141.7220 C   0  0  2  0  0  3  0  0  0  0  0  0
  193.6280  169.9810  140.9130 C   0  0  0  0  0  3  0  0  0  0  0  0
  192.4990  172.1540  138.7190 O   0  0  0  0  0  0  0  0  0  0  0  0
  193.1380  170.0770  139.5820 N   0  0  0  0  0  0  0  0  0  0  0  0
  192.1510  171.1340  139.6220 C   0  0  2  0  0  0  0  0  0  0  0  0
  190.6240  171.3980  141.5700 C   0  0  0  0  0  2  0  0  0  0  0  0
  189.7260  172.3700  141.1250 O   0  0  0  0  0  1  0  0  0  0  0  0
  1 10  1  6  0  0  0
  1  5  1  0  0  0  0
  2 15  1  6  0  0  0
  2  1  1  0  0  0  0
  3 42  1  6  0  0  0
  3  6  1  0  0  0  0
  4  2  1  0  0  0  0
  4  3  1  0  0  0  0
  6  5  1  0  0  0  0
  6 37  1  0  0  0  0
  7 13  1  0  0  0  0
  8 12  1  0  0  0  0
  9 11  1  0  0  0  0
 10  7  1  0  0  0  0
 10  9  1  0  0  0  0
 11  8  1  0  0  0  0
 13  8  1  0  0  0  0
 15 14  1  6  0  0  0
 16 17  1  0  0  0  0
 16 15  1  0  0  0  0
 17 18  1  0  0  0  0
 18 20  1  0  0  0  0
 18 19  1  1  0  0  0
 21 25  1  0  0  0  0
 22 21  1  0  0  0  0
 22 24  1  0  0  0  0
 23 27  1  1  0  0  0
 24 20  1  1  0  0  0
 24 23  1  0  0  0  0
 25 23  1  0  0  0  0
 27 26  1  1  0  0  0
 28 29  1  0  0  0  0
 28 35  1  0  0  0  0
 29 33  1  0  0  0  0
 31 30  1  0  0  0  0
 32 27  1  1  0  0  0
 32 36  1  0  0  0  0
 33 32  1  0  0  0  0
 34 28  2  0  0  0  0
 35 31  1  0  0  0  0
 36 30  1  0  0  0  0
 38 37  1  0  0  0  0
 38 40  1  0  0  0  0
 39 40  2  0  0  0  0
 40 41  1  0  0  0  0
 43 47  1  0  0  0  0
 44 50  1  1  0  0  0
 44 45  1  0  0  0  0
 45 42  1  1  0  0  0
 46 45  1  0  0  0  0
 47 49  1  0  0  0  0
 48 49  1  0  0  0  0
 48 46  2  0  0  0  0
 49 43  1  6  0  0  0
 49 44  1  0  0  0  0
 51 50  1  0  0  0  0
M  END
>  <MODEL>
3

>  <REMARK>
 VINA RESULT:      -6.5      3.071      8.596
  Name = 
  15 active torsions:
  status: ('A' for Active; 'I' for Inactive)
    1  A    between atoms: C_3  and  C_18
    2  A    between atoms: C_4  and  C_31
    3  A    between atoms: C_4  and  C_42
    4  A    between atoms: C_5  and  C_31
    5  A    between atoms: C_5  and  C_47
    6  A    between atoms: C_6  and  C_9
    7  A    between atoms: C_6  and  C_46
    8  A    between atoms: C_9  and  N_50
    9  A    between atoms: C_10  and  C_25
   10  A    between atoms: C_13  and  N_28
   11  A    between atoms: C_14  and  C_47
   12  A    between atoms: C_16  and  C_21
   13  A    between atoms: C_16  and  C_35
   14  A    between atoms: C_24  and  N_28
   15  A    between atoms: C_38  and  C_42
                            x       y       z     vdW  Elec       q    Type
                         _______ _______ _______ _____ _____    ______ ____

>  <TORSDO>
F 15

$$$$
=
 OpenBabel11062419023D

 51 56  0  0  1  0  0  0  0  0999 V2000
  191.0410  171.6250  140.3850 C   0  0  2  0  0  3  0  0  0  0  0  0
  190.9960  172.9730  141.1280 C   0  0  2  0  0  3  0  0  0  0  0  0
  192.7670  172.0960  142.7040 C   0  0  1  0  0  3  0  0  0  0  0  0
  191.4150  172.8050  142.5900 C   0  0  0  0  0  2  0  0  0  0  0  0
  192.4130  170.9690  140.5700 C   0  0  0  0  0  2  0  0  0  0  0  0
  192.7950  170.8140  141.9810 N   0  0  0  0  0  0  0  0  0  0  0  0
  192.0280  172.0250  138.0850 C   0  0  0  0  0  2  0  0  0  0  0  0
  191.1160  170.8290  136.1590 N   0  0  0  0  0  0  0  0  0  0  0  0
  190.0020  170.5200  138.3180 C   0  0  0  0  0  2  0  0  0  0  0  0
  190.7550  171.7350  138.8800 C   0  0  0  0  0  3  0  0  0  0  0  0
  189.8150  170.6760  136.8090 C   0  0  0  0  0  2  0  0  0  0  0  0
  190.8820  170.9410  134.8320 O   0  0  0  0  0  1  0  0  0  0  0  0
  191.6990  172.0950  136.5960 C   0  0  0  0  0  2  0  0  0  0  0  0
  188.4540  172.7270  141.2030 C   0  0  0  0  0  1  0  0  0  0  0  0
  189.6370  173.6670  140.9990 C   0  0  1  0  0  3  0  0  0  0  0  0
  189.5570  174.8720  141.9250 C   0  0  0  0  0  2  0  0  0  0  0  0
  188.2220  174.9190  142.6630 C   0  0  0  0  0  2  0  0  0  0  0  0
  187.5020  176.2420  142.4360 C   0  0  2  0  0  3  0  0  0  0  0  0
  187.4090  176.5570  140.9530 C   0  0  0  0  0  1  0  0  0  0  0  0
  188.2420  177.3550  143.1580 C   0  0  0  0  0  2  0  0  0  0  0  0
  185.3140  179.4390  143.8290 C   0  0  0  0  0  2  0  0  0  0  0  0
  186.4840  179.0270  143.0780 N   0  0  0  0  0  2  0  0  0  0  0  0
  186.3360  177.2940  144.7720 C   0  0  2  0  0  3  0  0  0  0  0  0
  187.2740  178.1970  143.9750 C   0  0  1  0  0  3  0  0  0  0  0  0
  184.6640  177.9940  144.7020 S   0  0  0  0  0  0  0  0  0  0  0  0
  186.6390  178.3730  147.0760 C   0  0  0  0  0  1  0  0  0  0  0  0
  186.7610  177.1050  146.2380 C   0  0  2  0  0  3  0  0  0  0  0  0
  189.8880  174.3190  146.0060 C   0  0  0  0  0  0  0  0  0  0  0  0
  189.3190  174.6830  147.3480 C   0  0  0  0  0  2  0  0  0  0  0  0
  190.2970  177.5350  145.8180 C   0  0  0  0  0  2  0  0  0  0  0  0
  191.2770  176.3710  145.9530 C   0  0  0  0  0  2  0  0  0  0  0  0
  188.1320  176.4500  146.4170 C   0  0  2  0  0  3  0  0  0  0  0  0
  188.0570  175.3140  147.2560 O   0  0  0  0  0  0  0  0  0  0  0  0
  189.5240  173.2510  145.4480 O   0  0  0  0  0  0  0  0  0  0  0  0
  190.7720  175.1800  145.3500 O   0  0  0  0  0  0  0  0  0  0  0  0
  189.1840  177.4700  146.8540 C   0  0  0  0  0  2  0  0  0  0  0  0
  191.9150  169.8530  142.6420 C   0  0  0  0  0  2  0  0  0  0  0  0
  192.6530  168.5410  142.8500 C   0  0  0  0  0  2  0  0  0  0  0  0
  193.5090  169.1450  144.9910 O   0  0  0  0  0  0  0  0  0  0  0  0
  193.7610  168.7110  143.8340 C   0  0  0  0  0  0  0  0  0  0  0  0
  195.1050  168.4210  143.4610 N   0  0  0  0  0  1  0  0  0  0  0  0
  193.8360  172.9720  142.2330 N   0  0  0  0  0  2  0  0  0  0  0  0
  195.0960  177.0470  145.0540 C   0  0  0  0  0  2  0  0  0  0  0  0
  193.8600  175.1630  143.5820 C   0  0  1  0  0  3  0  0  0  0  0  0
  194.5110  173.9190  143.0670 C   0  0  0  0  0  0  0  0  0  0  0  0
  195.7750  173.7950  143.4610 C   0  0  0  0  0  3  0  0  0  0  0  0
  194.6470  175.8930  145.7270 O   0  0  0  0  0  0  0  0  0  0  0  0
  196.1820  174.8840  144.2800 N   0  0  0  0  0  2  0  0  0  0  0  0
  195.0150  175.7330  144.3800 C   0  0  2  0  0  0  0  0  0  0  0  0
  193.5130  176.0920  142.4280 C   0  0  0  0  0  2  0  0  0  0  0  0
  192.3800  176.8400  142.7500 O   0  0  0  0  0  1  0  0  0  0  0  0
  1 10  1  6  0  0  0
  1  5  1  0  0  0  0
  1  2  1  0  0  0  0
  2 15  1  1  0  0  0
  2  4  1  0  0  0  0
  3 42  1  6  0  0  0
  4  3  1  0  0  0  0
  5  6  1  0  0  0  0
  6 37  1  0  0  0  0
  6  3  1  0  0  0  0
  7 10  1  0  0  0  0
  8 13  1  0  0  0  0
  8 11  1  0  0  0  0
  9 10  1  0  0  0  0
 11  9  1  0  0  0  0
 12  8  1  0  0  0  0
 13  7  1  0  0  0  0
 15 14  1  1  0  0  0
 15 16  1  0  0  0  0
 16 17  1  0  0  0  0
 18 19  1  6  0  0  0
 18 17  1  0  0  0  0
 18 20  1  0  0  0  0
 21 25  1  0  0  0  0
 22 21  1  0  0  0  0
 22 24  1  0  0  0  0
 23 27  1  1  0  0  0
 24 20  1  6  0  0  0
 24 23  1  0  0  0  0
 25 23  1  0  0  0  0
 27 26  1  6  0  0  0
 28 29  1  0  0  0  0
 30 31  1  0  0  0  0
 30 36  1  0  0  0  0
 32 27  1  1  0  0  0
 32 36  1  0  0  0  0
 32 33  1  0  0  0  0
 33 29  1  0  0  0  0
 34 28  2  0  0  0  0
 35 31  1  0  0  0  0
 35 28  1  0  0  0  0
 37 38  1  0  0  0  0
 38 40  1  0  0  0  0
 40 39  2  0  0  0  0
 41 40  1  0  0  0  0
 42 45  1  0  0  0  0
 43 47  1  0  0  0  0
 44 50  1  6  0  0  0
 44 49  1  0  0  0  0
 45 46  2  0  0  0  0
 45 44  1  0  0  0  0
 46 48  1  0  0  0  0
 48 49  1  0  0  0  0
 49 43  1  6  0  0  0
 49 47  1  0  0  0  0
 50 51  1  0  0  0  0
M  END
>  <MODEL>
4

>  <REMARK>
 VINA RESULT:      -6.5      3.032      8.507
  Name = 
  15 active torsions:
  status: ('A' for Active; 'I' for Inactive)
    1  A    between atoms: C_3  and  C_18
    2  A    between atoms: C_4  and  C_31
    3  A    between atoms: C_4  and  C_42
    4  A    between atoms: C_5  and  C_31
    5  A    between atoms: C_5  and  C_47
    6  A    between atoms: C_6  and  C_9
    7  A    between atoms: C_6  and  C_46
    8  A    between atoms: C_9  and  N_50
    9  A    between atoms: C_10  and  C_25
   10  A    between atoms: C_13  and  N_28
   11  A    between atoms: C_14  and  C_47
   12  A    between atoms: C_16  and  C_21
   13  A    between atoms: C_16  and  C_35
   14  A    between atoms: C_24  and  N_28
   15  A    between atoms: C_38  and  C_42
                            x       y       z     vdW  Elec       q    Type
                         _______ _______ _______ _____ _____    ______ ____

>  <TORSDO>
F 15

$$$$
=
 OpenBabel11062419023D

 51 56  0  0  1  0  0  0  0  0999 V2000
  190.6770  172.6880  140.4360 C   0  0  2  0  0  3  0  0  0  0  0  0
  190.0440  173.4300  141.6280 C   0  0  2  0  0  3  0  0  0  0  0  0
  191.6150  172.1810  143.1640 C   0  0  1  0  0  3  0  0  0  0  0  0
  190.1660  172.6070  142.9110 C   0  0  0  0  0  2  0  0  0  0  0  0
  192.1120  172.2730  140.7780 C   0  0  0  0  0  2  0  0  0  0  0  0
  192.2060  171.4800  142.0120 N   0  0  0  0  0  0  0  0  0  0  0  0
  192.1220  173.6150  138.5720 C   0  0  0  0  0  2  0  0  0  0  0  0
  191.2220  173.7470  136.3040 N   0  0  0  0  0  0  0  0  0  0  0  0
  189.7130  172.9980  138.0810 C   0  0  0  0  0  2  0  0  0  0  0  0
  190.7050  173.5070  139.1370 C   0  0  0  0  0  3  0  0  0  0  0  0
  189.8490  173.8220  136.8010 C   0  0  0  0  0  2  0  0  0  0  0  0
  191.2690  174.4740  135.1650 O   0  0  0  0  0  1  0  0  0  0  0  0
  192.0940  174.4110  137.2690 C   0  0  0  0  0  2  0  0  0  0  0  0
  187.5820  173.1450  142.2460 C   0  0  0  0  0  1  0  0  0  0  0  0
  188.5970  173.8510  141.3530 C   0  0  1  0  0  3  0  0  0  0  0  0
  188.4520  175.3630  141.4300 C   0  0  0  0  0  2  0  0  0  0  0  0
  189.5480  175.9840  142.2930 C   0  0  0  0  0  2  0  0  0  0  0  0
  189.1150  177.3250  142.8710 C   0  0  2  0  0  3  0  0  0  0  0  0
  188.8310  178.3230  141.7610 C   0  0  0  0  0  1  0  0  0  0  0  0
  190.2040  177.8610  143.7840 C   0  0  0  0  0  2  0  0  0  0  0  0
  192.4100  176.1610  146.1540 C   0  0  0  0  0  2  0  0  0  0  0  0
  192.1010  176.8560  144.9190 N   0  0  0  0  0  2  0  0  0  0  0  0
  189.9960  177.0030  146.1210 C   0  0  2  0  0  3  0  0  0  0  0  0
  190.6560  176.7870  144.7620 C   0  0  1  0  0  3  0  0  0  0  0  0
  191.2300  176.6970  147.4160 S   0  0  0  0  0  0  0  0  0  0  0  0
  188.7220  174.8800  145.4640 C   0  0  0  0  0  1  0  0  0  0  0  0
  188.7630  176.1150  146.3570 C   0  0  2  0  0  3  0  0  0  0  0  0
  185.8170  179.0000  147.1260 C   0  0  0  0  0  0  0  0  0  0  0  0
  185.5890  177.5780  147.5520 C   0  0  0  0  0  2  0  0  0  0  0  0
  186.2660  177.5820  144.2400 C   0  0  0  0  0  2  0  0  0  0  0  0
  185.1650  178.4850  144.7910 C   0  0  0  0  0  2  0  0  0  0  0  0
  187.4310  176.8670  146.3270 C   0  0  2  0  0  3  0  0  0  0  0  0
  186.7800  176.8170  147.5830 O   0  0  0  0  0  0  0  0  0  0  0  0
  186.2010  179.8480  147.9740 O   0  0  0  0  0  0  0  0  0  0  0  0
  185.6610  179.3770  145.7890 O   0  0  0  0  0  0  0  0  0  0  0  0
  186.5560  176.4050  145.1610 C   0  0  0  0  0  2  0  0  0  0  0  0
  191.5570  170.1840  141.8340 C   0  0  0  0  0  2  0  0  0  0  0  0
  192.2390  169.1450  142.7080 C   0  0  0  0  0  2  0  0  0  0  0  0
  194.5030  169.4470  143.3910 O   0  0  0  0  0  0  0  0  0  0  0  0
  193.7100  169.1330  142.4620 C   0  0  0  0  0  0  0  0  0  0  0  0
  194.2210  168.8060  141.1720 N   0  0  0  0  0  1  0  0  0  0  0  0
  192.4240  173.3400  143.5280 N   0  0  0  0  0  2  0  0  0  0  0  0
  197.3540  173.8010  144.8060 C   0  0  0  0  0  2  0  0  0  0  0  0
  194.9010  174.0100  143.7180 C   0  0  1  0  0  3  0  0  0  0  0  0
  193.6970  173.2480  144.1750 C   0  0  0  0  0  0  0  0  0  0  0  0
  193.9410  172.4790  145.2320 C   0  0  0  0  0  3  0  0  0  0  0  0
  196.4220  174.6240  145.4690 O   0  0  0  0  0  0  0  0  0  0  0  0
  195.2930  172.5860  145.6610 N   0  0  0  0  0  2  0  0  0  0  0  0
  195.9010  173.5330  144.7520 C   0  0  2  0  0  0  0  0  0  0  0  0
  195.3220  173.5470  142.3310 C   0  0  0  0  0  2  0  0  0  0  0  0
  195.9810  174.5840  141.6690 O   0  0  0  0  0  1  0  0  0  0  0  0
  1 10  1  6  0  0  0
  1  5  1  0  0  0  0
  1  2  1  0  0  0  0
  2 15  1  6  0  0  0
  2  4  1  0  0  0  0
  3 42  1  6  0  0  0
  4  3  1  0  0  0  0
  5  6  1  0  0  0  0
  6  3  1  0  0  0  0
  7 10  1  0  0  0  0
  8 11  1  0  0  0  0
  8 13  1  0  0  0  0
  9 10  1  0  0  0  0
 11  9  1  0  0  0  0
 12  8  1  0  0  0  0
 13  7  1  0  0  0  0
 15 16  1  0  0  0  0
 15 14  1  1  0  0  0
 16 17  1  0  0  0  0
 17 18  1  0  0  0  0
 18 19  1  6  0  0  0
 18 20  1  0  0  0  0
 21 25  1  0  0  0  0
 22 21  1  0  0  0  0
 23 27  1  1  0  0  0
 23 25  1  0  0  0  0
 24 20  1  6  0  0  0
 24 22  1  0  0  0  0
 24 23  1  0  0  0  0
 27 26  1  6  0  0  0
 28 29  1  0  0  0  0
 28 34  2  0  0  0  0
 29 33  1  0  0  0  0
 30 31  1  0  0  0  0
 30 36  1  0  0  0  0
 31 35  1  0  0  0  0
 32 27  1  1  0  0  0
 32 33  1  0  0  0  0
 35 28  1  0  0  0  0
 36 32  1  0  0  0  0
 37  6  1  0  0  0  0
 37 38  1  0  0  0  0
 40 38  1  0  0  0  0
 40 39  2  0  0  0  0
 41 40  1  0  0  0  0
 42 45  1  0  0  0  0
 43 47  1  0  0  0  0
 44 50  1  6  0  0  0
 44 45  1  0  0  0  0
 44 49  1  0  0  0  0
 45 46  2  0  0  0  0
 46 48  1  0  0  0  0
 49 43  1  6  0  0  0
 49 47  1  0  0  0  0
 49 48  1  0  0  0  0
 51 50  1  0  0  0  0
M  END
>  <MODEL>
5

>  <REMARK>
 VINA RESULT:      -6.4      2.925      9.236
  Name = 
  15 active torsions:
  status: ('A' for Active; 'I' for Inactive)
    1  A    between atoms: C_3  and  C_18
    2  A    between atoms: C_4  and  C_31
    3  A    between atoms: C_4  and  C_42
    4  A    between atoms: C_5  and  C_31
    5  A    between atoms: C_5  and  C_47
    6  A    between atoms: C_6  and  C_9
    7  A    between atoms: C_6  and  C_46
    8  A    between atoms: C_9  and  N_50
    9  A    between atoms: C_10  and  C_25
   10  A    between atoms: C_13  and  N_28
   11  A    between atoms: C_14  and  C_47
   12  A    between atoms: C_16  and  C_21
   13  A    between atoms: C_16  and  C_35
   14  A    between atoms: C_24  and  N_28
   15  A    between atoms: C_38  and  C_42
                            x       y       z     vdW  Elec       q    Type
                         _______ _______ _______ _____ _____    ______ ____

>  <TORSDO>
F 15

$$$$
=
 OpenBabel11062419023D

 51 56  0  0  1  0  0  0  0  0999 V2000
  194.2110  174.0530  143.5190 C   0  0  2  0  0  3  0  0  0  0  0  0
  192.8310  174.6960  143.7470 C   0  0  2  0  0  3  0  0  0  0  0  0
  192.3980  174.5090  141.2640 C   0  0  1  0  0  3  0  0  0  0  0  0
  192.3530  175.4250  142.4900 C   0  0  0  0  0  2  0  0  0  0  0  0
  194.1810  173.1770  142.2630 C   0  0  0  0  0  2  0  0  0  0  0  0
  193.7220  173.8960  141.0650 N   0  0  0  0  0  0  0  0  0  0  0  0
  194.1500  171.7730  144.6230 C   0  0  0  0  0  2  0  0  0  0  0  0
  196.1460  170.9270  145.7490 N   0  0  0  0  0  0  0  0  0  0  0  0
  196.2290  173.2040  144.8530 C   0  0  0  0  0  2  0  0  0  0  0  0
  194.7010  173.1970  144.6960 C   0  0  0  0  0  3  0  0  0  0  0  0
  196.6380  172.2810  146.0000 C   0  0  0  0  0  2  0  0  0  0  0  0
  196.5580  170.1600  146.7850 O   0  0  0  0  0  1  0  0  0  0  0  0
  194.6870  170.9550  145.7950 C   0  0  0  0  0  2  0  0  0  0  0  0
  193.9480  176.6160  145.0100 C   0  0  0  0  0  1  0  0  0  0  0  0
  192.8060  175.6060  144.9800 C   0  0  1  0  0  3  0  0  0  0  0  0
  191.4530  176.2890  145.1170 C   0  0  0  0  0  2  0  0  0  0  0  0
  190.7770  175.9220  146.4360 C   0  0  0  0  0  2  0  0  0  0  0  0
  189.4480  175.2150  146.2080 C   0  0  2  0  0  3  0  0  0  0  0  0
  189.6680  173.8210  145.6460 C   0  0  0  0  0  1  0  0  0  0  0  0
  188.5950  176.0310  145.2520 C   0  0  0  0  0  2  0  0  0  0  0  0
  186.3060  176.8320  147.9890 C   0  0  0  0  0  2  0  0  0  0  0  0
  187.3190  176.0410  147.3170 N   0  0  0  0  0  2  0  0  0  0  0  0
  187.1130  177.9560  145.8390 C   0  0  2  0  0  3  0  0  0  0  0  0
  187.2910  176.4420  145.9190 C   0  0  1  0  0  3  0  0  0  0  0  0
  186.4600  178.5440  147.4260 S   0  0  0  0  0  0  0  0  0  0  0  0
  184.7620  177.8900  144.8240 C   0  0  0  0  0  1  0  0  0  0  0  0
  186.1890  178.4080  144.6950 C   0  0  2  0  0  3  0  0  0  0  0  0
  188.2940  176.6450  141.5250 C   0  0  0  0  0  0  0  0  0  0  0  0
  188.6570  178.0320  141.9730 C   0  0  0  0  0  2  0  0  0  0  0  0
  185.3590  178.0010  141.2300 C   0  0  0  0  0  2  0  0  0  0  0  0
  186.3720  177.4910  140.2080 C   0  0  0  0  0  2  0  0  0  0  0  0
  186.7500  178.1530  143.2950 C   0  0  2  0  0  3  0  0  0  0  0  0
  188.1520  178.3440  143.2560 O   0  0  0  0  0  0  0  0  0  0  0  0
  188.9890  175.6680  141.9080 O   0  0  0  0  0  0  0  0  0  0  0  0
  187.1630  176.4250  140.7330 O   0  0  0  0  0  0  0  0  0  0  0  0
  185.9900  178.9530  142.2370 C   0  0  0  0  0  2  0  0  0  0  0  0
  194.6910  174.9220  140.6880 C   0  0  0  0  0  2  0  0  0  0  0  0
  195.4620  174.4720  139.4580 C   0  0  0  0  0  2  0  0  0  0  0  0
  197.5700  173.4400  139.8740 O   0  0  0  0  0  0  0  0  0  0  0  0
  196.9310  174.5160  139.7130 C   0  0  0  0  0  0  0  0  0  0  0  0
  197.6070  175.7660  139.8130 N   0  0  0  0  0  1  0  0  0  0  0  0
  191.3690  173.4790  141.3680 N   0  0  0  0  0  2  0  0  0  0  0  0
  189.8020  171.4290  136.9520 C   0  0  0  0  0  2  0  0  0  0  0  0
  190.5630  173.0490  138.9620 C   0  0  1  0  0  3  0  0  0  0  0  0
  191.0330  172.5830  140.3030 C   0  0  2  0  0  3  0  0  0  0  0  0
  191.0970  171.2580  140.3970 C   0  0  0  0  0  3  0  0  0  0  0  0
  191.1850  171.6280  137.1320 O   0  0  0  0  0  0  0  0  0  0  0  0
  190.7030  170.6230  139.1870 N   0  0  0  0  0  0  0  0  0  0  0  0
  190.3830  171.7060  138.2830 C   0  0  2  0  0  0  0  0  0  0  0  0
  189.2210  173.7550  139.0900 C   0  0  0  0  0  2  0  0  0  0  0  0
  188.3270  172.9430  139.7870 O   0  0  0  0  0  1  0  0  0  0  0  0
  1  2  1  0  0  0  0
  1 10  1  1  0  0  0
  2 15  1  1  0  0  0
  3 42  1  1  0  0  0
  3  4  1  0  0  0  0
  4  2  1  0  0  0  0
  5  1  1  0  0  0  0
  6  3  1  0  0  0  0
  6  5  1  0  0  0  0
  7 10  1  0  0  0  0
  7 13  1  0  0  0  0
  8 13  1  0  0  0  0
  8 11  1  0  0  0  0
  8 12  1  0  0  0  0
  9 11  1  0  0  0  0
 10  9  1  0  0  0  0
 15 14  1  6  0  0  0
 15 16  1  0  0  0  0
 16 17  1  0  0  0  0
 18 19  1  6  0  0  0
 18 17  1  0  0  0  0
 20 18  1  0  0  0  0
 22 21  1  0  0  0  0
 23 27  1  6  0  0  0
 23 24  1  0  0  0  0
 23 25  1  0  0  0  0
 24 20  1  1  0  0  0
 24 22  1  0  0  0  0
 25 21  1  0  0  0  0
 27 26  1  6  0  0  0
 28 34  2  0  0  0  0
 28 29  1  0  0  0  0
 29 33  1  0  0  0  0
 30 36  1  0  0  0  0
 31 35  1  0  0  0  0
 31 30  1  0  0  0  0
 32 27  1  1  0  0  0
 33 32  1  0  0  0  0
 35 28  1  0  0  0  0
 36 32  1  0  0  0  0
 37  6  1  0  0  0  0
 38 40  1  0  0  0  0
 38 37  1  0  0  0  0
 40 41  1  0  0  0  0
 40 39  2  0  0  0  0
 43 47  1  0  0  0  0
 44 50  1  1  0  0  0
 44 45  1  0  0  0  0
 45 46  1  0  0  0  0
 45 42  1  1  0  0  0
 47 49  1  0  0  0  0
 48 46  2  0  0  0  0
 49 43  1  6  0  0  0
 49 44  1  0  0  0  0
 49 48  1  0  0  0  0
 50 51  1  0  0  0  0
M  END
>  <MODEL>
6

>  <REMARK>
 VINA RESULT:      -6.4      3.374      8.363
  Name = 
  15 active torsions:
  status: ('A' for Active; 'I' for Inactive)
    1  A    between atoms: C_3  and  C_18
    2  A    between atoms: C_4  and  C_31
    3  A    between atoms: C_4  and  C_42
    4  A    between atoms: C_5  and  C_31
    5  A    between atoms: C_5  and  C_47
    6  A    between atoms: C_6  and  C_9
    7  A    between atoms: C_6  and  C_46
    8  A    between atoms: C_9  and  N_50
    9  A    between atoms: C_10  and  C_25
   10  A    between atoms: C_13  and  N_28
   11  A    between atoms: C_14  and  C_47
   12  A    between atoms: C_16  and  C_21
   13  A    between atoms: C_16  and  C_35
   14  A    between atoms: C_24  and  N_28
   15  A    between atoms: C_38  and  C_42
                            x       y       z     vdW  Elec       q    Type
                         _______ _______ _______ _____ _____    ______ ____

>  <TORSDO>
F 15

$$$$
=
 OpenBabel11062419023D

 51 56  0  0  1  0  0  0  0  0999 V2000
  191.9840  175.0950  145.0200 C   0  0  2  0  0  3  0  0  0  0  0  0
  190.7920  174.4130  144.3220 C   0  0  2  0  0  3  0  0  0  0  0  0
  189.2550  176.0580  145.4710 C   0  0  1  0  0  3  0  0  0  0  0  0
  189.5100  174.5850  145.1380 C   0  0  0  0  0  2  0  0  0  0  0  0
  191.6400  176.5520  145.3420 C   0  0  0  0  0  2  0  0  0  0  0  0
  190.4070  176.6960  146.1300 N   0  0  0  0  0  0  0  0  0  0  0  0
  193.2740  176.1440  143.1080 C   0  0  0  0  0  2  0  0  0  0  0  0
  195.7060  176.3310  143.2570 N   0  0  0  0  0  0  0  0  0  0  0  0
  194.5470  175.1560  145.0650 C   0  0  0  0  0  2  0  0  0  0  0  0
  193.2810  175.0730  144.1980 C   0  0  0  0  0  3  0  0  0  0  0  0
  195.7860  175.1940  144.1720 C   0  0  0  0  0  2  0  0  0  0  0  0
  196.8370  176.3200  142.5150 O   0  0  0  0  0  1  0  0  0  0  0  0
  194.5930  176.1020  142.3400 C   0  0  0  0  0  2  0  0  0  0  0  0
  190.0730  171.9810  144.6370 C   0  0  0  0  0  1  0  0  0  0  0  0
  191.0690  172.9420  143.9960 C   0  0  1  0  0  3  0  0  0  0  0  0
  191.1580  172.7320  142.4920 C   0  0  0  0  0  2  0  0  0  0  0  0
  190.6650  173.9590  141.7290 C   0  0  0  0  0  2  0  0  0  0  0  0
  189.4730  173.6270  140.8410 C   0  0  2  0  0  3  0  0  0  0  0  0
  188.1780  173.6950  141.6310 C   0  0  0  0  0  1  0  0  0  0  0  0
  189.6490  172.2390  140.2510 C   0  0  0  0  0  2  0  0  0  0  0  0
  188.9970  173.4570  136.8650 C   0  0  0  0  0  2  0  0  0  0  0  0
  188.6200  173.0190  138.1950 N   0  0  0  0  0  2  0  0  0  0  0  0
  191.0420  173.0680  138.3500 C   0  0  2  0  0  3  0  0  0  0  0  0
  189.7720  172.3150  138.7370 C   0  0  1  0  0  3  0  0  0  0  0  0
  190.6620  174.1610  136.9530 S   0  0  0  0  0  0  0  0  0  0  0  0
  191.7880  170.7420  137.5770 C   0  0  0  0  0  1  0  0  0  0  0  0
  192.2180  172.1460  137.9840 C   0  0  2  0  0  3  0  0  0  0  0  0
  195.4870  170.8120  140.2490 C   0  0  0  0  0  0  0  0  0  0  0  0
  194.1650  171.0430  140.9220 C   0  0  0  0  0  2  0  0  0  0  0  0
  195.0420  173.8960  139.3350 C   0  0  0  0  0  2  0  0  0  0  0  0
  196.0230  173.2310  140.3000 C   0  0  0  0  0  2  0  0  0  0  0  0
  193.3340  172.1040  139.0300 C   0  0  2  0  0  3  0  0  0  0  0  0
  193.0880  171.1120  140.0100 O   0  0  0  0  0  0  0  0  0  0  0  0
  195.8280  169.6410  139.9360 O   0  0  0  0  0  0  0  0  0  0  0  0
  196.3150  171.8880  139.9160 O   0  0  0  0  0  0  0  0  0  0  0  0
  193.6010  173.4920  139.6140 C   0  0  0  0  0  2  0  0  0  0  0  0
  190.5890  176.1320  147.4640 C   0  0  0  0  0  2  0  0  0  0  0  0
  191.6810  176.8930  148.1980 C   0  0  0  0  0  2  0  0  0  0  0  0
  191.5660  178.0670  150.2690 O   0  0  0  0  0  0  0  0  0  0  0  0
  191.0890  177.9120  149.1120 C   0  0  0  0  0  0  0  0  0  0  0  0
  189.9640  178.6830  148.6990 N   0  0  0  0  0  1  0  0  0  0  0  0
  188.8870  176.7890  144.2620 N   0  0  0  0  0  2  0  0  0  0  0  0
  184.4980  178.6790  142.4390 C   0  0  0  0  0  2  0  0  0  0  0  0
  186.7910  177.3380  142.8740 C   0  0  1  0  0  3  0  0  0  0  0  0
  187.6410  177.4740  144.0970 C   0  0  0  0  0  0  0  0  0  0  0  0
  187.1180  178.2970  145.0020 C   0  0  0  0  0  3  0  0  0  0  0  0
  184.4320  177.5380  143.2630 O   0  0  0  0  0  0  0  0  0  0  0  0
  185.8750  178.8340  144.5700 N   0  0  0  0  0  2  0  0  0  0  0  0
  185.6460  178.2480  143.2670 C   0  0  2  0  0  0  0  0  0  0  0  0
  187.5170  177.9040  141.6630 C   0  0  0  0  0  2  0  0  0  0  0  0
  187.4450  176.9980  140.6040 O   0  0  0  0  0  1  0  0  0  0  0  0
  1 10  1  6  0  0  0
  1  5  1  0  0  0  0
  2 15  1  1  0  0  0
  2  1  1  0  0  0  0
  2  4  1  0  0  0  0
  3 42  1  6  0  0  0
  3  6  1  0  0  0  0
  4  3  1  0  0  0  0
  5  6  1  0  0  0  0
  6 37  1  0  0  0  0
  7 10  1  0  0  0  0
  8 11  1  0  0  0  0
 10  9  1  0  0  0  0
 11  9  1  0  0  0  0
 12  8  1  0  0  0  0
 13  7  1  0  0  0  0
 13  8  1  0  0  0  0
 15 14  1  6  0  0  0
 16 15  1  0  0  0  0
 17 16  1  0  0  0  0
 18 19  1  1  0  0  0
 18 17  1  0  0  0  0
 20 18  1  0  0  0  0
 21 25  1  0  0  0  0
 21 22  1  0  0  0  0
 22 24  1  0  0  0  0
 23 27  1  6  0  0  0
 23 24  1  0  0  0  0
 24 20  1  1  0  0  0
 25 23  1  0  0  0  0
 27 26  1  1  0  0  0
 28 29  1  0  0  0  0
 30 36  1  0  0  0  0
 30 31  1  0  0  0  0
 32 27  1  6  0  0  0
 32 36  1  0  0  0  0
 32 33  1  0  0  0  0
 33 29  1  0  0  0  0
 34 28  2  0  0  0  0
 35 28  1  0  0  0  0
 35 31  1  0  0  0  0
 37 38  1  0  0  0  0
 38 40  1  0  0  0  0
 40 39  2  0  0  0  0
 41 40  1  0  0  0  0
 43 47  1  0  0  0  0
 44 50  1  6  0  0  0
 44 49  1  0  0  0  0
 44 45  1  0  0  0  0
 45 42  1  0  0  0  0
 45 46  2  0  0  0  0
 47 49  1  0  0  0  0
 48 46  1  0  0  0  0
 49 43  1  6  0  0  0
 49 48  1  0  0  0  0
 51 50  1  0  0  0  0
M  END
>  <MODEL>
7

>  <REMARK>
 VINA RESULT:      -6.3      1.616      2.248
  Name = 
  15 active torsions:
  status: ('A' for Active; 'I' for Inactive)
    1  A    between atoms: C_3  and  C_18
    2  A    between atoms: C_4  and  C_31
    3  A    between atoms: C_4  and  C_42
    4  A    between atoms: C_5  and  C_31
    5  A    between atoms: C_5  and  C_47
    6  A    between atoms: C_6  and  C_9
    7  A    between atoms: C_6  and  C_46
    8  A    between atoms: C_9  and  N_50
    9  A    between atoms: C_10  and  C_25
   10  A    between atoms: C_13  and  N_28
   11  A    between atoms: C_14  and  C_47
   12  A    between atoms: C_16  and  C_21
   13  A    between atoms: C_16  and  C_35
   14  A    between atoms: C_24  and  N_28
   15  A    between atoms: C_38  and  C_42
                            x       y       z     vdW  Elec       q    Type
                         _______ _______ _______ _____ _____    ______ ____

>  <TORSDO>
F 15

$$$$
=
 OpenBabel11062419023D

 51 56  0  0  1  0  0  0  0  0999 V2000
  191.0900  175.4870  144.8080 C   0  0  2  0  0  3  0  0  0  0  0  0
  189.9840  174.7300  144.0500 C   0  0  2  0  0  3  0  0  0  0  0  0
  188.3420  176.5020  144.7930 C   0  0  1  0  0  3  0  0  0  0  0  0
  188.6120  175.0000  144.6710 C   0  0  0  0  0  2  0  0  0  0  0  0
  190.7320  176.9730  144.9110 C   0  0  0  0  0  2  0  0  0  0  0  0
  189.4130  177.2110  145.5140 N   0  0  0  0  0  0  0  0  0  0  0  0
  192.5800  176.1910  142.8830 C   0  0  0  0  0  2  0  0  0  0  0  0
  194.9680  176.5310  143.2710 N   0  0  0  0  0  0  0  0  0  0  0  0
  193.6240  175.6910  145.1370 C   0  0  0  0  0  2  0  0  0  0  0  0
  192.4790  175.3660  144.1660 C   0  0  0  0  0  3  0  0  0  0  0  0
  194.9640  175.6110  144.4070 C   0  0  0  0  0  2  0  0  0  0  0  0
  196.1820  176.4280  142.6840 O   0  0  0  0  0  1  0  0  0  0  0  0
  193.9840  176.0620  142.2990 C   0  0  0  0  0  2  0  0  0  0  0  0
  189.6950  172.4110  145.0830 C   0  0  0  0  0  1  0  0  0  0  0  0
  190.2750  173.2300  143.9350 C   0  0  1  0  0  3  0  0  0  0  0  0
  189.8230  172.6960  142.5840 C   0  0  0  0  0  2  0  0  0  0  0  0
  189.8680  173.7830  141.5130 C   0  0  0  0  0  2  0  0  0  0  0  0
  189.7450  173.1960  140.1130 C   0  0  2  0  0  3  0  0  0  0  0  0
  188.2860  173.0610  139.7110 C   0  0  0  0  0  1  0  0  0  0  0  0
  190.4240  171.8370  140.0690 C   0  0  0  0  0  2  0  0  0  0  0  0
  192.8800  173.2270  137.7440 C   0  0  0  0  0  2  0  0  0  0  0  0
  191.5450  172.8590  138.1730 N   0  0  0  0  0  2  0  0  0  0  0  0
  192.8620  172.3760  140.1550 C   0  0  2  0  0  3  0  0  0  0  0  0
  191.7120  171.9110  139.2650 C   0  0  1  0  0  3  0  0  0  0  0  0
  193.8790  173.5500  139.2170 S   0  0  0  0  0  0  0  0  0  0  0  0
  193.5000  169.9020  139.9620 C   0  0  0  0  0  1  0  0  0  0  0  0
  193.7410  171.2260  140.6770 C   0  0  2  0  0  3  0  0  0  0  0  0
  193.6520  169.4230  144.4630 C   0  0  0  0  0  0  0  0  0  0  0  0
  192.5020  170.2840  144.0260 C   0  0  0  0  0  2  0  0  0  0  0  0
  195.3330  172.1120  143.7660 C   0  0  0  0  0  2  0  0  0  0  0  0
  195.0020  171.4080  145.0800 C   0  0  0  0  0  2  0  0  0  0  0  0
  193.7100  171.0510  142.1970 C   0  0  2  0  0  3  0  0  0  0  0  0
  192.4790  170.5040  142.6300 O   0  0  0  0  0  0  0  0  0  0  0  0
  193.5540  168.1700  144.3840 O   0  0  0  0  0  0  0  0  0  0  0  0
  194.8470  170.0000  144.9020 O   0  0  0  0  0  0  0  0  0  0  0  0
  194.0940  172.3460  142.9130 C   0  0  0  0  0  2  0  0  0  0  0  0
  189.4160  176.8090  146.9180 C   0  0  0  0  0  2  0  0  0  0  0  0
  190.0420  177.9050  147.7640 C   0  0  0  0  0  2  0  0  0  0  0  0
  191.7330  176.2910  148.2330 O   0  0  0  0  0  0  0  0  0  0  0  0
  191.1650  177.3620  148.5810 C   0  0  0  0  0  0  0  0  0  0  0  0
  191.5740  178.0270  149.7740 N   0  0  0  0  0  1  0  0  0  0  0  0
  188.1410  177.0860  143.4710 N   0  0  0  0  0  2  0  0  0  0  0  0
  183.9380  178.6420  141.0080 C   0  0  0  0  0  2  0  0  0  0  0  0
  186.1340  177.3550  141.8840 C   0  0  1  0  0  3  0  0  0  0  0  0
  186.9430  177.7610  143.0750 C   0  0  0  0  0  0  0  0  0  0  0  0
  186.4330  178.8100  143.7140 C   0  0  0  0  0  3  0  0  0  0  0  0
  183.7770  177.7530  142.0890 O   0  0  0  0  0  0  0  0  0  0  0  0
  185.2390  179.2740  143.0970 N   0  0  0  0  0  2  0  0  0  0  0  0
  185.0270  178.3860  141.9750 C   0  0  2  0  0  0  0  0  0  0  0  0
  186.9360  177.5610  140.6070 C   0  0  0  0  0  2  0  0  0  0  0  0
  187.5040  176.3510  140.2080 O   0  0  0  0  0  1  0  0  0  0  0  0
  1 10  1  6  0  0  0
  1  5  1  0  0  0  0
  2 15  1  1  0  0  0
  2  4  1  0  0  0  0
  2  1  1  0  0  0  0
  3 42  1  6  0  0  0
  3  6  1  0  0  0  0
  4  3  1  0  0  0  0
  5  6  1  0  0  0  0
  6 37  1  0  0  0  0
  7 10  1  0  0  0  0
  8 11  1  0  0  0  0
 10  9  1  0  0  0  0
 11  9  1  0  0  0  0
 12  8  1  0  0  0  0
 13  7  1  0  0  0  0
 13  8  1  0  0  0  0
 15 14  1  1  0  0  0
 16 15  1  0  0  0  0
 17 16  1  0  0  0  0
 18 19  1  1  0  0  0
 18 17  1  0  0  0  0
 20 18  1  0  0  0  0
 21 22  1  0  0  0  0
 21 25  1  0  0  0  0
 22 24  1  0  0  0  0
 23 27  1  6  0  0  0
 24 20  1  1  0  0  0
 24 23  1  0  0  0  0
 25 23  1  0  0  0  0
 27 26  1  6  0  0  0
 28 35  1  0  0  0  0
 29 28  1  0  0  0  0
 30 31  1  0  0  0  0
 32 27  1  6  0  0  0
 32 33  1  0  0  0  0
 32 36  1  0  0  0  0
 33 29  1  0  0  0  0
 34 28  2  0  0  0  0
 35 31  1  0  0  0  0
 36 30  1  0  0  0  0
 37 38  1  0  0  0  0
 38 40  1  0  0  0  0
 39 40  2  0  0  0  0
 40 41  1  0  0  0  0
 43 47  1  0  0  0  0
 44 50  1  6  0  0  0
 44 49  1  0  0  0  0
 44 45  1  0  0  0  0
 45 42  1  0  0  0  0
 45 46  2  0  0  0  0
 48 46  1  0  0  0  0
 49 43  1  6  0  0  0
 49 47  1  0  0  0  0
 49 48  1  0  0  0  0
 51 50  1  0  0  0  0
M  END
>  <MODEL>
8

>  <REMARK>
 VINA RESULT:      -6.3      2.035      2.833
  Name = 
  15 active torsions:
  status: ('A' for Active; 'I' for Inactive)
    1  A    between atoms: C_3  and  C_18
    2  A    between atoms: C_4  and  C_31
    3  A    between atoms: C_4  and  C_42
    4  A    between atoms: C_5  and  C_31
    5  A    between atoms: C_5  and  C_47
    6  A    between atoms: C_6  and  C_9
    7  A    between atoms: C_6  and  C_46
    8  A    between atoms: C_9  and  N_50
    9  A    between atoms: C_10  and  C_25
   10  A    between atoms: C_13  and  N_28
   11  A    between atoms: C_14  and  C_47
   12  A    between atoms: C_16  and  C_21
   13  A    between atoms: C_16  and  C_35
   14  A    between atoms: C_24  and  N_28
   15  A    between atoms: C_38  and  C_42
                            x       y       z     vdW  Elec       q    Type
                         _______ _______ _______ _____ _____    ______ ____

>  <TORSDO>
F 15

$$$$
=
 OpenBabel11062419023D

 51 56  0  0  1  0  0  0  0  0999 V2000
  194.8830  172.2880  144.0920 C   0  0  2  0  0  3  0  0  0  0  0  0
  193.4980  172.9570  144.0090 C   0  0  2  0  0  3  0  0  0  0  0  0
  193.6010  172.7200  141.4940 C   0  0  1  0  0  3  0  0  0  0  0  0
  193.3130  173.6650  142.6650 C   0  0  0  0  0  2  0  0  0  0  0  0
  195.1030  171.3840  142.8750 C   0  0  0  0  0  2  0  0  0  0  0  0
  194.9250  172.0840  141.5940 N   0  0  0  0  0  0  0  0  0  0  0  0
  194.2020  170.2090  145.3710 C   0  0  0  0  0  2  0  0  0  0  0  0
  195.8740  169.0010  146.6820 N   0  0  0  0  0  0  0  0  0  0  0  0
  196.5660  171.0910  145.6120 C   0  0  0  0  0  2  0  0  0  0  0  0
  195.0940  171.4510  145.3620 C   0  0  0  0  0  3  0  0  0  0  0  0
  196.6820  170.2070  146.8530 C   0  0  0  0  0  2  0  0  0  0  0  0
  196.0370  168.2570  147.8000 O   0  0  0  0  0  1  0  0  0  0  0  0
  194.4680  169.3960  146.6360 C   0  0  0  0  0  2  0  0  0  0  0  0
  194.3590  174.8860  145.4460 C   0  0  0  0  0  1  0  0  0  0  0  0
  193.2290  173.8940  145.1900 C   0  0  1  0  0  3  0  0  0  0  0  0
  191.8920  174.6010  145.0230 C   0  0  0  0  0  2  0  0  0  0  0  0
  192.0540  176.1180  145.0840 C   0  0  0  0  0  2  0  0  0  0  0  0
  191.7980  176.7640  143.7290 C   0  0  2  0  0  3  0  0  0  0  0  0
  191.3520  178.2070  143.8950 C   0  0  0  0  0  1  0  0  0  0  0  0
  190.7370  175.9760  142.9810 C   0  0  0  0  0  2  0  0  0  0  0  0
  187.4240  177.0000  141.8190 C   0  0  0  0  0  2  0  0  0  0  0  0
  188.8350  176.7030  141.6590 N   0  0  0  0  0  2  0  0  0  0  0  0
  188.4410  176.0490  143.9640 C   0  0  2  0  0  3  0  0  0  0  0  0
  189.4110  176.7200  142.9950 C   0  0  1  0  0  3  0  0  0  0  0  0
  186.7940  176.0200  143.2030 S   0  0  0  0  0  0  0  0  0  0  0  0
  188.5940  175.7840  146.5070 C   0  0  0  0  0  1  0  0  0  0  0  0
  188.3690  176.7350  145.3380 C   0  0  2  0  0  3  0  0  0  0  0  0
  184.6550  178.5670  144.6700 C   0  0  0  0  0  0  0  0  0  0  0  0
  185.8840  179.4180  144.8180 C   0  0  0  0  0  2  0  0  0  0  0  0
  185.6400  177.4480  147.5540 C   0  0  0  0  0  2  0  0  0  0  0  0
  184.4490  178.3030  147.1260 C   0  0  0  0  0  2  0  0  0  0  0  0
  187.1180  177.5900  145.5500 C   0  0  2  0  0  3  0  0  0  0  0  0
  187.0820  178.6850  144.6540 O   0  0  0  0  0  0  0  0  0  0  0  0
  184.2090  178.3170  143.5200 O   0  0  0  0  0  0  0  0  0  0  0  0
  184.0380  178.0060  145.7920 O   0  0  0  0  0  0  0  0  0  0  0  0
  186.9580  177.9890  147.0170 C   0  0  0  0  0  2  0  0  0  0  0  0
  195.9720  173.0860  141.4130 C   0  0  0  0  0  2  0  0  0  0  0  0
  195.4850  174.1700  140.4660 C   0  0  0  0  0  2  0  0  0  0  0  0
  197.3020  175.7130  140.5340 O   0  0  0  0  0  0  0  0  0  0  0  0
  196.0930  175.4860  140.8160 C   0  0  0  0  0  0  0  0  0  0  0  0
  195.3270  176.4730  141.5020 N   0  0  0  0  0  1  0  0  0  0  0  0
  192.5530  171.7090  141.3950 N   0  0  0  0  0  2  0  0  0  0  0  0
  188.2310  173.2190  139.1170 C   0  0  0  0  0  2  0  0  0  0  0  0
  190.4580  172.9790  140.6090 C   0  0  1  0  0  3  0  0  0  0  0  0
  191.4130  171.8300  140.5390 C   0  0  2  0  0  3  0  0  0  0  0  0
  191.0830  170.9400  139.6070 C   0  0  0  0  0  3  0  0  0  0  0  0
  189.4520  173.5770  138.5140 O   0  0  0  0  0  0  0  0  0  0  0  0
  189.9030  171.3170  138.9110 N   0  0  0  0  0  0  0  0  0  0  0  0
  189.5060  172.5770  139.5010 C   0  0  2  0  0  0  0  0  0  0  0  0
  189.7330  172.9820  141.9460 C   0  0  0  0  0  2  0  0  0  0  0  0
  189.4220  171.6730  142.3160 O   0  0  0  0  0  1  0  0  0  0  0  0
  1 10  1  1  0  0  0
  2  1  1  0  0  0  0
  2 15  1  1  0  0  0
  3 42  1  1  0  0  0
  3  6  1  0  0  0  0
  3  4  1  0  0  0  0
  4  2  1  0  0  0  0
  5  1  1  0  0  0  0
  6  5  1  0  0  0  0
  7 13  1  0  0  0  0
  8 11  1  0  0  0  0
  8 12  1  0  0  0  0
  9 11  1  0  0  0  0
 10  7  1  0  0  0  0
 10  9  1  0  0  0  0
 13  8  1  0  0  0  0
 15 14  1  6  0  0  0
 16 17  1  0  0  0  0
 16 15  1  0  0  0  0
 18 19  1  1  0  0  0
 18 17  1  0  0  0  0
 20 18  1  0  0  0  0
 21 25  1  0  0  0  0
 22 21  1  0  0  0  0
 22 24  1  0  0  0  0
 23 27  1  1  0  0  0
 24 20  1  6  0  0  0
 24 23  1  0  0  0  0
 25 23  1  0  0  0  0
 27 26  1  1  0  0  0
 28 29  1  0  0  0  0
 28 35  1  0  0  0  0
 31 30  1  0  0  0  0
 32 27  1  1  0  0  0
 32 36  1  0  0  0  0
 33 29  1  0  0  0  0
 33 32  1  0  0  0  0
 34 28  2  0  0  0  0
 35 31  1  0  0  0  0
 36 30  1  0  0  0  0
 37  6  1  0  0  0  0
 38 40  1  0  0  0  0
 38 37  1  0  0  0  0
 39 40  2  0  0  0  0
 40 41  1  0  0  0  0
 44 50  1  1  0  0  0
 45 44  1  0  0  0  0
 45 42  1  1  0  0  0
 46 45  1  0  0  0  0
 47 43  1  0  0  0  0
 47 49  1  0  0  0  0
 48 49  1  0  0  0  0
 48 46  2  0  0  0  0
 49 43  1  1  0  0  0
 49 44  1  0  0  0  0
 50 51  1  0  0  0  0
M  END
>  <MODEL>
9

>  <REMARK>
 VINA RESULT:      -6.3      3.154      8.352
  Name = 
  15 active torsions:
  status: ('A' for Active; 'I' for Inactive)
    1  A    between atoms: C_3  and  C_18
    2  A    between atoms: C_4  and  C_31
    3  A    between atoms: C_4  and  C_42
    4  A    between atoms: C_5  and  C_31
    5  A    between atoms: C_5  and  C_47
    6  A    between atoms: C_6  and  C_9
    7  A    between atoms: C_6  and  C_46
    8  A    between atoms: C_9  and  N_50
    9  A    between atoms: C_10  and  C_25
   10  A    between atoms: C_13  and  N_28
   11  A    between atoms: C_14  and  C_47
   12  A    between atoms: C_16  and  C_21
   13  A    between atoms: C_16  and  C_35
   14  A    between atoms: C_24  and  N_28
   15  A    between atoms: C_38  and  C_42
                            x       y       z     vdW  Elec       q    Type
                         _______ _______ _______ _____ _____    ______ ____

>  <TORSDO>
F 15

$$$$
