=
 OpenBabel11072408333D

 26 28  0  0  0  0  0  0  0  0999 V2000
  185.1470  177.8660  142.3670 C   0  0  0  0  0  0  0  0  0  0  0  0
  188.9790  174.8980  142.3080 N   0  0  0  0  0  2  0  0  0  0  0  0
  187.6150  175.9560  144.2670 C   0  0  0  0  0  2  0  0  0  0  0  0
  185.6560  177.4470  145.1190 C   0  0  0  0  0  0  0  0  0  0  0  0
  187.1250  176.3540  141.9910 N   0  0  0  0  0  0  0  0  0  0  0  0
  186.4450  176.8560  144.1320 C   0  0  0  0  0  0  0  0  0  0  0  0
  184.8800  178.0840  140.9200 C   0  0  0  0  0  1  0  0  0  0  0  0
  184.5850  178.2690  144.7120 C   0  0  0  0  0  0  0  0  0  0  0  0
  187.9290  175.7390  142.8040 C   0  0  0  0  0  0  0  0  0  0  0  0
  183.7060  178.9290  145.7160 C   0  0  0  0  0  1  0  0  0  0  0  0
  186.2010  177.0580  142.8010 C   0  0  0  0  0  0  0  0  0  0  0  0
  185.9240  177.2250  146.4650 O   0  0  0  0  0  1  0  0  0  0  0  0
  184.3360  178.4750  143.3390 C   0  0  0  0  0  3  0  0  0  0  0  0
  189.8620  172.8660  143.3550 C   0  0  0  0  0  0  0  0  0  0  0  0
  192.0930  174.2640  144.3190 C   0  0  0  0  0  0  0  0  0  0  0  0
  188.7640  172.1560  142.8840 O   0  0  0  0  0  1  0  0  0  0  0  0
  191.9470  172.9020  144.5910 C   0  0  0  0  0  3  0  0  0  0  0  0
  189.9910  174.2360  143.0820 C   0  0  0  0  0  0  0  0  0  0  0  0
  191.1160  174.9230  143.5590 C   0  0  0  0  0  3  0  0  0  0  0  0
  190.8360  172.2040  144.1090 C   0  0  0  0  0  3  0  0  0  0  0  0
  193.2130  174.9380  144.8150 O   0  0  0  0  0  0  0  0  0  0  0  0
  193.4590  175.1190  146.2070 C   0  0  0  0  0  2  0  0  0  0  0  0
  192.4760  176.1140  146.8070 C   0  0  0  0  0  2  0  0  0  0  0  0
  191.4640  175.4220  147.7050 C   0  0  0  0  0  2  0  0  0  0  0  0
  190.0890  175.5700  147.1480 C   0  0  0  0  0  3  0  0  0  0  0  0
  189.2380  174.5520  147.2040 C   0  0  0  0  0  2  0  0  0  0  0  0
  1 11  2  0  0  0  0
  1 13  1  0  0  0  0
  2  9  1  0  0  0  0
  2 18  1  0  0  0  0
  4 12  1  0  0  0  0
  5 11  1  0  0  0  0
  5  9  2  0  0  0  0
  6  3  1  0  0  0  0
  6  4  2  0  0  0  0
  7  1  1  0  0  0  0
  8  4  1  0  0  0  0
  8 10  1  0  0  0  0
  9  3  1  0  0  0  0
 11  6  1  0  0  0  0
 13  8  2  0  0  0  0
 14 20  1  0  0  0  0
 15 17  1  0  0  0  0
 15 21  1  0  0  0  0
 16 14  1  0  0  0  0
 18 14  2  0  0  0  0
 18 19  1  0  0  0  0
 19 15  2  0  0  0  0
 20 17  2  0  0  0  0
 21 22  1  0  0  0  0
 22 23  1  0  0  0  0
 23 24  1  0  0  0  0
 25 26  2  0  0  0  0
 25 24  1  0  0  0  0
M  END
>  <MODEL>
1

>  <REMARK>
 VINA RESULT:      -6.7      0.000      0.000
  Name = 
  6 active torsions:
  status: ('A' for Active; 'I' for Inactive)
    1  A    between atoms: C_1  and  C_23
    2  A    between atoms: C_1  and  O_26
    3  A    between atoms: C_2  and  C_6
    4  A    between atoms: N_5  and  C_19
    5  A    between atoms: C_6  and  C_23
    6  A    between atoms: C_7  and  O_26
                            x       y       z     vdW  Elec       q    Type
                         _______ _______ _______ _____ _____    ______ ____

>  <TORSDO>
F 6

$$$$
=
 OpenBabel11072408333D

 26 28  0  0  0  0  0  0  0  0999 V2000
  191.4170  175.8010  146.9980 C   0  0  0  0  0  0  0  0  0  0  0  0
  186.7250  176.8310  146.3480 N   0  0  0  0  0  2  0  0  0  0  0  0
  188.8330  177.2640  144.8690 C   0  0  0  0  0  2  0  0  0  0  0  0
  191.3990  177.0620  144.4650 C   0  0  0  0  0  0  0  0  0  0  0  0
  188.9310  176.2010  146.9760 N   0  0  0  0  0  0  0  0  0  0  0  0
  190.2260  176.8830  145.2010 C   0  0  0  0  0  0  0  0  0  0  0  0
  191.4250  175.1370  148.3300 C   0  0  0  0  0  1  0  0  0  0  0  0
  192.6090  176.5950  145.0180 C   0  0  0  0  0  0  0  0  0  0  0  0
  188.1380  176.7620  146.1150 C   0  0  0  0  0  0  0  0  0  0  0  0
  193.8940  176.7560  144.2820 C   0  0  0  0  0  1  0  0  0  0  0  0
  190.2340  176.2740  146.4260 C   0  0  0  0  0  0  0  0  0  0  0  0
  191.3650  177.6820  143.2210 O   0  0  0  0  0  1  0  0  0  0  0  0
  192.6130  175.9680  146.2810 C   0  0  0  0  0  3  0  0  0  0  0  0
  184.8360  178.3770  146.1340 C   0  0  0  0  0  0  0  0  0  0  0  0
  184.7310  177.9540  143.3640 C   0  0  0  0  0  0  0  0  0  0  0  0
  184.8730  178.6000  147.5050 O   0  0  0  0  0  1  0  0  0  0  0  0
  183.8230  178.8200  143.9770 C   0  0  0  0  0  3  0  0  0  0  0  0
  185.7490  177.4970  145.5340 C   0  0  0  0  0  0  0  0  0  0  0  0
  185.6950  177.3010  144.1460 C   0  0  0  0  0  3  0  0  0  0  0  0
  183.8760  179.0330  145.3570 C   0  0  0  0  0  3  0  0  0  0  0  0
  184.6540  177.7570  141.9820 O   0  0  0  0  0  0  0  0  0  0  0  0
  185.5460  178.3740  141.0580 C   0  0  0  0  0  2  0  0  0  0  0  0
  186.4530  177.3390  140.4070 C   0  0  0  0  0  2  0  0  0  0  0  0
  187.7240  177.1300  141.2130 C   0  0  0  0  0  2  0  0  0  0  0  0
  187.8730  175.6930  141.5830 C   0  0  0  0  0  3  0  0  0  0  0  0
  189.0810  175.1860  141.8010 C   0  0  0  0  0  2  0  0  0  0  0  0
  1  7  1  0  0  0  0
  3  6  1  0  0  0  0
  3  9  1  0  0  0  0
  4  8  2  0  0  0  0
  4  6  1  0  0  0  0
  6 11  2  0  0  0  0
  8 13  1  0  0  0  0
  9  2  1  0  0  0  0
  9  5  2  0  0  0  0
 10  8  1  0  0  0  0
 11  5  1  0  0  0  0
 11  1  1  0  0  0  0
 12  4  1  0  0  0  0
 13  1  2  0  0  0  0
 14 16  1  0  0  0  0
 15 17  2  0  0  0  0
 15 19  1  0  0  0  0
 17 20  1  0  0  0  0
 18 14  1  0  0  0  0
 18  2  1  0  0  0  0
 19 18  2  0  0  0  0
 20 14  2  0  0  0  0
 21 15  1  0  0  0  0
 22 21  1  0  0  0  0
 23 22  1  0  0  0  0
 23 24  1  0  0  0  0
 24 25  1  0  0  0  0
 25 26  2  0  0  0  0
M  END
>  <MODEL>
2

>  <REMARK>
 VINA RESULT:      -6.6      2.564      7.574
  Name = 
  6 active torsions:
  status: ('A' for Active; 'I' for Inactive)
    1  A    between atoms: C_1  and  C_23
    2  A    between atoms: C_1  and  O_26
    3  A    between atoms: C_2  and  C_6
    4  A    between atoms: N_5  and  C_19
    5  A    between atoms: C_6  and  C_23
    6  A    between atoms: C_7  and  O_26
                            x       y       z     vdW  Elec       q    Type
                         _______ _______ _______ _____ _____    ______ ____

>  <TORSDO>
F 6

$$$$
=
 OpenBabel11072408333D

 26 28  0  0  0  0  0  0  0  0999 V2000
  185.5270  177.6760  143.3470 C   0  0  0  0  0  0  0  0  0  0  0  0
  189.7270  175.4190  142.4690 N   0  0  0  0  0  2  0  0  0  0  0  0
  188.5470  176.1180  144.6910 C   0  0  0  0  0  2  0  0  0  0  0  0
  186.5380  177.2010  145.9470 C   0  0  0  0  0  0  0  0  0  0  0  0
  187.6360  176.5490  142.5550 N   0  0  0  0  0  0  0  0  0  0  0  0
  187.2410  176.8100  144.8070 C   0  0  0  0  0  0  0  0  0  0  0  0
  184.9970  177.9230  141.9790 C   0  0  0  0  0  1  0  0  0  0  0  0
  185.2970  177.8480  145.7740 C   0  0  0  0  0  0  0  0  0  0  0  0
  188.6500  176.0390  143.1850 C   0  0  0  0  0  0  0  0  0  0  0  0
  184.4990  178.2910  146.9510 C   0  0  0  0  0  1  0  0  0  0  0  0
  186.7540  177.0390  143.5500 C   0  0  0  0  0  0  0  0  0  0  0  0
  187.0530  176.9560  147.2150 O   0  0  0  0  0  1  0  0  0  0  0  0
  184.7980  178.0830  144.4770 C   0  0  0  0  0  3  0  0  0  0  0  0
  190.9550  173.6070  143.5700 C   0  0  0  0  0  0  0  0  0  0  0  0
  193.3100  175.1300  143.5740 C   0  0  0  0  0  0  0  0  0  0  0  0
  189.7990  172.8360  143.5750 O   0  0  0  0  0  1  0  0  0  0  0  0
  193.3040  173.8450  144.1220 C   0  0  0  0  0  3  0  0  0  0  0  0
  190.9440  174.9000  143.0250 C   0  0  0  0  0  0  0  0  0  0  0  0
  192.1290  175.6480  143.0220 C   0  0  0  0  0  3  0  0  0  0  0  0
  192.1310  173.0850  144.1170 C   0  0  0  0  0  3  0  0  0  0  0  0
  194.4960  175.8710  143.5940 O   0  0  0  0  0  0  0  0  0  0  0  0
  195.1860  176.2040  144.7950 C   0  0  0  0  0  2  0  0  0  0  0  0
  194.3560  177.1490  145.6520 C   0  0  0  0  0  2  0  0  0  0  0  0
  193.8160  176.4500  146.8880 C   0  0  0  0  0  2  0  0  0  0  0  0
  192.3260  176.4200  146.8580 C   0  0  0  0  0  3  0  0  0  0  0  0
  191.6800  175.2900  147.1230 C   0  0  0  0  0  2  0  0  0  0  0  0
  1 11  2  0  0  0  0
  1 13  1  0  0  0  0
  2 18  1  0  0  0  0
  2  9  1  0  0  0  0
  3  6  1  0  0  0  0
  4 12  1  0  0  0  0
  5  9  2  0  0  0  0
  5 11  1  0  0  0  0
  6  4  2  0  0  0  0
  7  1  1  0  0  0  0
  8  4  1  0  0  0  0
  8 10  1  0  0  0  0
  9  3  1  0  0  0  0
 11  6  1  0  0  0  0
 13  8  2  0  0  0  0
 14 16  1  0  0  0  0
 14 20  1  0  0  0  0
 15 21  1  0  0  0  0
 15 17  1  0  0  0  0
 18 14  2  0  0  0  0
 19 18  1  0  0  0  0
 19 15  2  0  0  0  0
 20 17  2  0  0  0  0
 21 22  1  0  0  0  0
 22 23  1  0  0  0  0
 23 24  1  0  0  0  0
 25 24  1  0  0  0  0
 25 26  2  0  0  0  0
M  END
>  <MODEL>
3

>  <REMARK>
 VINA RESULT:      -6.5      1.261      1.616
  Name = 
  6 active torsions:
  status: ('A' for Active; 'I' for Inactive)
    1  A    between atoms: C_1  and  C_23
    2  A    between atoms: C_1  and  O_26
    3  A    between atoms: C_2  and  C_6
    4  A    between atoms: N_5  and  C_19
    5  A    between atoms: C_6  and  C_23
    6  A    between atoms: C_7  and  O_26
                            x       y       z     vdW  Elec       q    Type
                         _______ _______ _______ _____ _____    ______ ____

>  <TORSDO>
F 6

$$$$
=
 OpenBabel11072408333D

 26 28  0  0  0  0  0  0  0  0999 V2000
  192.3660  175.4610  142.9470 C   0  0  0  0  0  0  0  0  0  0  0  0
  188.3720  178.1810  142.5670 N   0  0  0  0  0  2  0  0  0  0  0  0
  188.7450  175.7220  143.3600 C   0  0  0  0  0  2  0  0  0  0  0  0
  190.3310  173.7150  143.8510 C   0  0  0  0  0  0  0  0  0  0  0  0
  190.4990  177.1190  142.6200 N   0  0  0  0  0  0  0  0  0  0  0  0
  190.0450  175.0130  143.4270 C   0  0  0  0  0  0  0  0  0  0  0  0
  193.4350  176.3810  142.4720 C   0  0  0  0  0  1  0  0  0  0  0  0
  191.6740  173.2850  143.8180 C   0  0  0  0  0  0  0  0  0  0  0  0
  189.2180  177.0510  142.8150 C   0  0  0  0  0  0  0  0  0  0  0  0
  192.0450  171.9110  144.2560 C   0  0  0  0  0  1  0  0  0  0  0  0
  191.0280  175.8590  142.9900 C   0  0  0  0  0  0  0  0  0  0  0  0
  189.3160  172.8750  144.2930 O   0  0  0  0  0  1  0  0  0  0  0  0
  192.6840  174.1590  143.3660 C   0  0  0  0  0  3  0  0  0  0  0  0
  186.1770  178.0270  141.4890 C   0  0  0  0  0  0  0  0  0  0  0  0
  184.8810  178.4760  143.9360 C   0  0  0  0  0  0  0  0  0  0  0  0
  186.8000  177.8020  140.2680 O   0  0  0  0  0  1  0  0  0  0  0  0
  184.1360  178.2900  142.7700 C   0  0  0  0  0  3  0  0  0  0  0  0
  186.9400  178.2210  142.6510 C   0  0  0  0  0  0  0  0  0  0  0  0
  186.2820  178.4330  143.8700 C   0  0  0  0  0  3  0  0  0  0  0  0
  184.7800  178.0640  141.5510 C   0  0  0  0  0  3  0  0  0  0  0  0
  184.2110  178.7020  145.1420 O   0  0  0  0  0  0  0  0  0  0  0  0
  184.4080  177.9010  146.3030 C   0  0  0  0  0  2  0  0  0  0  0  0
  185.0960  178.6980  147.4020 C   0  0  0  0  0  2  0  0  0  0  0  0
  186.5150  178.2100  147.6370 C   0  0  0  0  0  2  0  0  0  0  0  0
  186.6540  176.7900  147.2030 C   0  0  0  0  0  3  0  0  0  0  0  0
  187.8480  176.3100  146.8780 C   0  0  0  0  0  2  0  0  0  0  0  0
  1 11  2  0  0  0  0
  1 13  1  0  0  0  0
  2 18  1  0  0  0  0
  2  9  1  0  0  0  0
  3  6  1  0  0  0  0
  4 12  1  0  0  0  0
  5  9  2  0  0  0  0
  5 11  1  0  0  0  0
  6  4  2  0  0  0  0
  7  1  1  0  0  0  0
  8  4  1  0  0  0  0
  8 10  1  0  0  0  0
  9  3  1  0  0  0  0
 11  6  1  0  0  0  0
 13  8  2  0  0  0  0
 14 20  2  0  0  0  0
 14 18  1  0  0  0  0
 15 21  1  0  0  0  0
 16 14  1  0  0  0  0
 17 15  2  0  0  0  0
 18 19  2  0  0  0  0
 19 15  1  0  0  0  0
 20 17  1  0  0  0  0
 21 22  1  0  0  0  0
 22 23  1  0  0  0  0
 23 24  1  0  0  0  0
 25 24  1  0  0  0  0
 26 25  2  0  0  0  0
M  END
>  <MODEL>
4

>  <REMARK>
 VINA RESULT:      -6.4      2.114      6.935
  Name = 
  6 active torsions:
  status: ('A' for Active; 'I' for Inactive)
    1  A    between atoms: C_1  and  C_23
    2  A    between atoms: C_1  and  O_26
    3  A    between atoms: C_2  and  C_6
    4  A    between atoms: N_5  and  C_19
    5  A    between atoms: C_6  and  C_23
    6  A    between atoms: C_7  and  O_26
                            x       y       z     vdW  Elec       q    Type
                         _______ _______ _______ _____ _____    ______ ____

>  <TORSDO>
F 6

$$$$
=
 OpenBabel11072408333D

 26 28  0  0  0  0  0  0  0  0999 V2000
  191.7670  173.6580  144.3190 C   0  0  0  0  0  0  0  0  0  0  0  0
  187.4750  175.1690  142.6500 N   0  0  0  0  0  2  0  0  0  0  0  0
  189.5990  176.4650  143.4410 C   0  0  0  0  0  2  0  0  0  0  0  0
  192.0400  176.4740  144.3520 C   0  0  0  0  0  0  0  0  0  0  0  0
  189.4500  174.1080  143.4410 N   0  0  0  0  0  0  0  0  0  0  0  0
  190.8610  175.8590  143.9290 C   0  0  0  0  0  0  0  0  0  0  0  0
  191.6230  172.1770  144.2990 C   0  0  0  0  0  1  0  0  0  0  0  0
  193.1070  175.6520  144.7690 C   0  0  0  0  0  0  0  0  0  0  0  0
  188.8050  175.2040  143.1820 C   0  0  0  0  0  0  0  0  0  0  0  0
  194.3910  176.2480  145.2310 C   0  0  0  0  0  1  0  0  0  0  0  0
  190.7270  174.4980  143.9120 C   0  0  0  0  0  0  0  0  0  0  0  0
  192.1520  177.8600  144.3570 O   0  0  0  0  0  1  0  0  0  0  0  0
  192.9660  174.2490  144.7510 C   0  0  0  0  0  3  0  0  0  0  0  0
  186.6170  176.8960  141.1370 C   0  0  0  0  0  0  0  0  0  0  0  0
  184.9310  177.8960  143.1430 C   0  0  0  0  0  0  0  0  0  0  0  0
  187.4430  176.4140  140.1300 O   0  0  0  0  0  1  0  0  0  0  0  0
  184.9500  178.4920  141.8810 C   0  0  0  0  0  3  0  0  0  0  0  0
  186.6150  176.2930  142.4040 C   0  0  0  0  0  0  0  0  0  0  0  0
  185.7610  176.7930  143.3960 C   0  0  0  0  0  3  0  0  0  0  0  0
  185.7880  177.9930  140.8800 C   0  0  0  0  0  3  0  0  0  0  0  0
  184.0850  178.4160  144.1270 O   0  0  0  0  0  0  0  0  0  0  0  0
  184.5640  179.0430  145.3140 C   0  0  0  0  0  2  0  0  0  0  0  0
  184.3970  178.1250  146.5170 C   0  0  0  0  0  2  0  0  0  0  0  0
  185.6470  178.1100  147.3820 C   0  0  0  0  0  2  0  0  0  0  0  0
  186.3830  176.8250  147.2080 C   0  0  0  0  0  3  0  0  0  0  0  0
  187.5300  176.8040  146.5390 C   0  0  0  0  0  2  0  0  0  0  0  0
  1 13  1  0  0  0  0
  2  9  1  0  0  0  0
  3  6  1  0  0  0  0
  4 12  1  0  0  0  0
  4  8  1  0  0  0  0
  5 11  1  0  0  0  0
  6  4  2  0  0  0  0
  7  1  1  0  0  0  0
  8 10  1  0  0  0  0
  9  5  2  0  0  0  0
  9  3  1  0  0  0  0
 11  6  1  0  0  0  0
 11  1  2  0  0  0  0
 13  8  2  0  0  0  0
 14 18  1  0  0  0  0
 15 19  1  0  0  0  0
 15 21  1  0  0  0  0
 16 14  1  0  0  0  0
 17 15  2  0  0  0  0
 18  2  1  0  0  0  0
 18 19  2  0  0  0  0
 20 14  2  0  0  0  0
 20 17  1  0  0  0  0
 21 22  1  0  0  0  0
 22 23  1  0  0  0  0
 23 24  1  0  0  0  0
 25 24  1  0  0  0  0
 26 25  2  0  0  0  0
M  END
>  <MODEL>
5

>  <REMARK>
 VINA RESULT:      -6.3      2.038      6.973
  Name = 
  6 active torsions:
  status: ('A' for Active; 'I' for Inactive)
    1  A    between atoms: C_1  and  C_23
    2  A    between atoms: C_1  and  O_26
    3  A    between atoms: C_2  and  C_6
    4  A    between atoms: N_5  and  C_19
    5  A    between atoms: C_6  and  C_23
    6  A    between atoms: C_7  and  O_26
                            x       y       z     vdW  Elec       q    Type
                         _______ _______ _______ _____ _____    ______ ____

>  <TORSDO>
F 6

$$$$
=
 OpenBabel11072408333D

 26 28  0  0  0  0  0  0  0  0999 V2000
  195.6190  173.0640  145.6130 C   0  0  0  0  0  0  0  0  0  0  0  0
  192.1550  176.4490  145.8180 N   0  0  0  0  0  2  0  0  0  0  0  0
  192.1260  173.9610  145.0250 C   0  0  0  0  0  2  0  0  0  0  0  0
  193.3460  171.6920  144.6370 C   0  0  0  0  0  0  0  0  0  0  0  0
  194.0680  175.0360  145.8320 N   0  0  0  0  0  0  0  0  0  0  0  0
  193.2800  173.0310  145.0250 C   0  0  0  0  0  0  0  0  0  0  0  0
  196.8140  173.7880  146.1290 C   0  0  0  0  0  1  0  0  0  0  0  0
  194.5860  171.0280  144.7420 C   0  0  0  0  0  0  0  0  0  0  0  0
  192.8090  175.1990  145.5630 C   0  0  0  0  0  0  0  0  0  0  0  0
  194.7210  169.6000  144.3440 C   0  0  0  0  0  1  0  0  0  0  0  0
  194.3790  173.6960  145.4970 C   0  0  0  0  0  0  0  0  0  0  0  0
  192.2150  171.0370  144.1610 O   0  0  0  0  0  1  0  0  0  0  0  0
  195.7160  171.7170  145.2290 C   0  0  0  0  0  3  0  0  0  0  0  0
  190.5380  177.4650  144.2820 C   0  0  0  0  0  0  0  0  0  0  0  0
  188.4180  176.8230  146.0010 C   0  0  0  0  0  0  0  0  0  0  0  0
  191.5750  177.7900  143.4170 O   0  0  0  0  0  1  0  0  0  0  0  0
  188.1710  177.4960  144.8030 C   0  0  0  0  0  3  0  0  0  0  0  0
  190.8020  176.7970  145.4870 C   0  0  0  0  0  0  0  0  0  0  0  0
  189.7340  176.4710  146.3340 C   0  0  0  0  0  3  0  0  0  0  0  0
  189.2270  177.8140  143.9440 C   0  0  0  0  0  3  0  0  0  0  0  0
  187.3430  176.5190  146.8430 O   0  0  0  0  0  0  0  0  0  0  0  0
  186.3540  177.4730  147.2170 C   0  0  0  0  0  2  0  0  0  0  0  0
  185.0320  177.1860  146.5190 C   0  0  0  0  0  2  0  0  0  0  0  0
  184.3400  178.4690  146.0910 C   0  0  0  0  0  2  0  0  0  0  0  0
  184.5790  178.7280  144.6420 C   0  0  0  0  0  3  0  0  0  0  0  0
  185.2860  179.7880  144.2660 C   0  0  0  0  0  2  0  0  0  0  0  0
  1  7  1  0  0  0  0
  3  9  1  0  0  0  0
  4  8  2  0  0  0  0
  4  6  1  0  0  0  0
  6  3  1  0  0  0  0
  6 11  2  0  0  0  0
  8 13  1  0  0  0  0
  9  2  1  0  0  0  0
  9  5  2  0  0  0  0
 10  8  1  0  0  0  0
 11  1  1  0  0  0  0
 11  5  1  0  0  0  0
 12  4  1  0  0  0  0
 13  1  2  0  0  0  0
 14 18  1  0  0  0  0
 15 19  1  0  0  0  0
 15 21  1  0  0  0  0
 16 14  1  0  0  0  0
 17 15  2  0  0  0  0
 18  2  1  0  0  0  0
 18 19  2  0  0  0  0
 20 14  2  0  0  0  0
 20 17  1  0  0  0  0
 21 22  1  0  0  0  0
 23 22  1  0  0  0  0
 24 23  1  0  0  0  0
 25 24  1  0  0  0  0
 26 25  2  0  0  0  0
M  END
>  <MODEL>
6

>  <REMARK>
 VINA RESULT:      -6.3      2.839      8.407
  Name = 
  6 active torsions:
  status: ('A' for Active; 'I' for Inactive)
    1  A    between atoms: C_1  and  C_23
    2  A    between atoms: C_1  and  O_26
    3  A    between atoms: C_2  and  C_6
    4  A    between atoms: N_5  and  C_19
    5  A    between atoms: C_6  and  C_23
    6  A    between atoms: C_7  and  O_26
                            x       y       z     vdW  Elec       q    Type
                         _______ _______ _______ _____ _____    ______ ____

>  <TORSDO>
F 6

$$$$
=
 OpenBabel11072408333D

 26 28  0  0  0  0  0  0  0  0999 V2000
  184.7720  178.1910  144.9030 C   0  0  0  0  0  0  0  0  0  0  0  0
  188.8550  176.3050  146.7120 N   0  0  0  0  0  2  0  0  0  0  0  0
  188.0120  176.6280  144.2620 C   0  0  0  0  0  2  0  0  0  0  0  0
  186.2070  177.4580  142.5770 C   0  0  0  0  0  0  0  0  0  0  0  0
  186.7540  177.2700  146.1550 N   0  0  0  0  0  0  0  0  0  0  0  0
  186.7220  177.2340  143.8540 C   0  0  0  0  0  0  0  0  0  0  0  0
  184.0200  178.5780  146.1280 C   0  0  0  0  0  1  0  0  0  0  0  0
  184.9380  178.0640  142.4680 C   0  0  0  0  0  0  0  0  0  0  0  0
  187.8640  176.7220  145.7640 C   0  0  0  0  0  0  0  0  0  0  0  0
  184.3330  178.3290  141.1340 C   0  0  0  0  0  1  0  0  0  0  0  0
  186.0300  177.5880  144.9800 C   0  0  0  0  0  0  0  0  0  0  0  0
  186.9300  177.0910  141.4480 O   0  0  0  0  0  1  0  0  0  0  0  0
  184.2270  178.4270  143.6310 C   0  0  0  0  0  3  0  0  0  0  0  0
  191.2550  175.9860  147.0930 C   0  0  0  0  0  0  0  0  0  0  0  0
  191.3250  173.8770  145.2470 C   0  0  0  0  0  0  0  0  0  0  0  0
  191.2390  177.0280  148.0130 O   0  0  0  0  0  1  0  0  0  0  0  0
  192.4910  174.2710  145.9080 C   0  0  0  0  0  3  0  0  0  0  0  0
  190.0770  175.6080  146.4300 C   0  0  0  0  0  0  0  0  0  0  0  0
  190.1220  174.5450  145.5170 C   0  0  0  0  0  3  0  0  0  0  0  0
  192.4560  175.3200  146.8300 C   0  0  0  0  0  3  0  0  0  0  0  0
  191.3890  172.8250  144.3270 O   0  0  0  0  0  0  0  0  0  0  0  0
  190.2760  171.9880  144.0250 C   0  0  0  0  0  2  0  0  0  0  0  0
  189.9170  172.0750  142.5490 C   0  0  0  0  0  2  0  0  0  0  0  0
  188.4540  172.4370  142.3540 C   0  0  0  0  0  2  0  0  0  0  0  0
  188.3290  173.8310  141.8410 C   0  0  0  0  0  3  0  0  0  0  0  0
  189.4180  174.5240  141.5290 C   0  0  0  0  0  2  0  0  0  0  0  0
  1 11  1  0  0  0  0
  1  7  1  0  0  0  0
  3  9  1  0  0  0  0
  4  6  1  0  0  0  0
  6  3  1  0  0  0  0
  6 11  2  0  0  0  0
  8  4  2  0  0  0  0
  8 13  1  0  0  0  0
  9  5  2  0  0  0  0
  9  2  1  0  0  0  0
 10  8  1  0  0  0  0
 11  5  1  0  0  0  0
 12  4  1  0  0  0  0
 13  1  2  0  0  0  0
 14 16  1  0  0  0  0
 15 19  2  0  0  0  0
 15 17  1  0  0  0  0
 17 20  2  0  0  0  0
 18  2  1  0  0  0  0
 18 14  2  0  0  0  0
 19 18  1  0  0  0  0
 20 14  1  0  0  0  0
 21 15  1  0  0  0  0
 22 21  1  0  0  0  0
 23 22  1  0  0  0  0
 24 23  1  0  0  0  0
 25 24  1  0  0  0  0
 26 25  2  0  0  0  0
M  END
>  <MODEL>
7

>  <REMARK>
 VINA RESULT:      -6.3      2.136      4.216
  Name = 
  6 active torsions:
  status: ('A' for Active; 'I' for Inactive)
    1  A    between atoms: C_1  and  C_23
    2  A    between atoms: C_1  and  O_26
    3  A    between atoms: C_2  and  C_6
    4  A    between atoms: N_5  and  C_19
    5  A    between atoms: C_6  and  C_23
    6  A    between atoms: C_7  and  O_26
                            x       y       z     vdW  Elec       q    Type
                         _______ _______ _______ _____ _____    ______ ____

>  <TORSDO>
F 6

$$$$
=
 OpenBabel11072408333D

 26 28  0  0  0  0  0  0  0  0999 V2000
  194.0640  171.7150  145.0290 C   0  0  0  0  0  0  0  0  0  0  0  0
  189.9530  174.1750  144.2910 N   0  0  0  0  0  2  0  0  0  0  0  0
  192.3290  174.9310  145.0660 C   0  0  0  0  0  2  0  0  0  0  0  0
  194.8090  174.3760  145.6370 C   0  0  0  0  0  0  0  0  0  0  0  0
  191.7850  172.6850  144.5740 N   0  0  0  0  0  0  0  0  0  0  0  0
  193.5090  174.0530  145.2450 C   0  0  0  0  0  0  0  0  0  0  0  0
  193.6700  170.3160  144.7080 C   0  0  0  0  0  1  0  0  0  0  0  0
  195.7560  173.3350  145.7260 C   0  0  0  0  0  0  0  0  0  0  0  0
  191.3130  173.8930  144.6430 C   0  0  0  0  0  0  0  0  0  0  0  0
  197.1590  173.6150  146.1390 C   0  0  0  0  0  1  0  0  0  0  0  0
  193.1480  172.7670  144.9510 C   0  0  0  0  0  0  0  0  0  0  0  0
  195.1530  175.6920  145.9290 O   0  0  0  0  0  1  0  0  0  0  0  0
  195.3800  172.0100  145.4220 C   0  0  0  0  0  3  0  0  0  0  0  0
  189.1480  176.2540  143.2740 C   0  0  0  0  0  0  0  0  0  0  0  0
  188.0730  177.1010  145.7220 C   0  0  0  0  0  0  0  0  0  0  0  0
  189.6720  175.8500  142.0520 O   0  0  0  0  0  1  0  0  0  0  0  0
  187.9610  177.9090  144.5880 C   0  0  0  0  0  3  0  0  0  0  0  0
  189.2760  175.4350  144.4060 C   0  0  0  0  0  0  0  0  0  0  0  0
  188.7250  175.8640  145.6220 C   0  0  0  0  0  3  0  0  0  0  0  0
  188.4940  177.4870  143.3670 C   0  0  0  0  0  3  0  0  0  0  0  0
  187.5320  177.5490  146.9310 O   0  0  0  0  0  0  0  0  0  0  0  0
  186.3230  177.0340  147.4800 C   0  0  0  0  0  2  0  0  0  0  0  0
  185.1690  177.2000  146.5010 C   0  0  0  0  0  2  0  0  0  0  0  0
  184.7340  178.6520  146.3970 C   0  0  0  0  0  2  0  0  0  0  0  0
  184.2820  178.9610  145.0100 C   0  0  0  0  0  3  0  0  0  0  0  0
  184.9880  179.7920  144.2520 C   0  0  0  0  0  2  0  0  0  0  0  0
  1 13  1  0  0  0  0
  2 18  1  0  0  0  0
  2  9  1  0  0  0  0
  3  6  1  0  0  0  0
  4  8  1  0  0  0  0
  4 12  1  0  0  0  0
  5  9  2  0  0  0  0
  5 11  1  0  0  0  0
  6  4  2  0  0  0  0
  7  1  1  0  0  0  0
  8 10  1  0  0  0  0
  9  3  1  0  0  0  0
 11  1  2  0  0  0  0
 11  6  1  0  0  0  0
 13  8  2  0  0  0  0
 14 20  2  0  0  0  0
 14 18  1  0  0  0  0
 15 21  1  0  0  0  0
 16 14  1  0  0  0  0
 17 15  2  0  0  0  0
 18 19  2  0  0  0  0
 19 15  1  0  0  0  0
 20 17  1  0  0  0  0
 21 22  1  0  0  0  0
 23 22  1  0  0  0  0
 24 23  1  0  0  0  0
 25 24  1  0  0  0  0
 26 25  2  0  0  0  0
M  END
>  <MODEL>
8

>  <REMARK>
 VINA RESULT:      -6.3      2.331      7.999
  Name = 
  6 active torsions:
  status: ('A' for Active; 'I' for Inactive)
    1  A    between atoms: C_1  and  C_23
    2  A    between atoms: C_1  and  O_26
    3  A    between atoms: C_2  and  C_6
    4  A    between atoms: N_5  and  C_19
    5  A    between atoms: C_6  and  C_23
    6  A    between atoms: C_7  and  O_26
                            x       y       z     vdW  Elec       q    Type
                         _______ _______ _______ _____ _____    ______ ____

>  <TORSDO>
F 6

$$$$
=
 OpenBabel11072408333D

 26 28  0  0  0  0  0  0  0  0999 V2000
  184.8330  178.5730  144.0520 C   0  0  0  0  0  0  0  0  0  0  0  0
  188.7860  177.1350  146.4610 N   0  0  0  0  0  2  0  0  0  0  0  0
  188.1940  177.1460  143.9180 C   0  0  0  0  0  2  0  0  0  0  0  0
  186.5400  177.6830  141.9780 C   0  0  0  0  0  0  0  0  0  0  0  0
  186.7120  177.9090  145.5910 N   0  0  0  0  0  0  0  0  0  0  0  0
  186.9270  177.6280  143.3180 C   0  0  0  0  0  0  0  0  0  0  0  0
  183.9360  179.0410  145.1440 C   0  0  0  0  0  1  0  0  0  0  0  0
  185.2620  178.1980  141.6750 C   0  0  0  0  0  0  0  0  0  0  0  0
  187.8820  177.3900  145.3770 C   0  0  0  0  0  0  0  0  0  0  0  0
  184.7900  178.2830  140.2660 C   0  0  0  0  0  1  0  0  0  0  0  0
  186.1030  178.0570  144.3220 C   0  0  0  0  0  0  0  0  0  0  0  0
  187.3960  177.2420  140.9760 O   0  0  0  0  0  1  0  0  0  0  0  0
  184.4150  178.6400  142.7130 C   0  0  0  0  0  3  0  0  0  0  0  0
  190.2170  175.2010  146.9240 C   0  0  0  0  0  0  0  0  0  0  0  0
  192.4060  176.4570  145.7010 C   0  0  0  0  0  0  0  0  0  0  0  0
  189.1440  174.5610  147.5320 O   0  0  0  0  0  1  0  0  0  0  0  0
  192.5460  175.1810  146.2520 C   0  0  0  0  0  3  0  0  0  0  0  0
  190.0640  176.4860  146.3830 C   0  0  0  0  0  0  0  0  0  0  0  0
  191.1610  177.1000  145.7640 C   0  0  0  0  0  3  0  0  0  0  0  0
  191.4550  174.5530  146.8590 C   0  0  0  0  0  3  0  0  0  0  0  0
  193.5140  177.0630  145.1010 O   0  0  0  0  0  0  0  0  0  0  0  0
  194.8580  176.7110  145.4160 C   0  0  0  0  0  2  0  0  0  0  0  0
  195.5630  176.1200  144.2030 C   0  0  0  0  0  2  0  0  0  0  0  0
  195.7350  174.6170  144.3390 C   0  0  0  0  0  2  0  0  0  0  0  0
  195.9760  174.2490  145.7630 C   0  0  0  0  0  3  0  0  0  0  0  0
  197.1650  173.7900  146.1370 C   0  0  0  0  0  2  0  0  0  0  0  0
  1 11  1  0  0  0  0
  1  7  1  0  0  0  0
  3  9  1  0  0  0  0
  4  6  1  0  0  0  0
  6  3  1  0  0  0  0
  6 11  2  0  0  0  0
  8  4  2  0  0  0  0
  8 13  1  0  0  0  0
  9  5  2  0  0  0  0
  9  2  1  0  0  0  0
 10  8  1  0  0  0  0
 11  5  1  0  0  0  0
 12  4  1  0  0  0  0
 13  1  2  0  0  0  0
 14 16  1  0  0  0  0
 15 19  2  0  0  0  0
 15 17  1  0  0  0  0
 17 20  2  0  0  0  0
 18  2  1  0  0  0  0
 18 14  2  0  0  0  0
 19 18  1  0  0  0  0
 20 14  1  0  0  0  0
 21 22  1  0  0  0  0
 21 15  1  0  0  0  0
 23 24  1  0  0  0  0
 23 22  1  0  0  0  0
 24 25  1  0  0  0  0
 25 26  2  0  0  0  0
M  END
>  <MODEL>
9

>  <REMARK>
 VINA RESULT:      -6.2      2.559      4.022
  Name = 
  6 active torsions:
  status: ('A' for Active; 'I' for Inactive)
    1  A    between atoms: C_1  and  C_23
    2  A    between atoms: C_1  and  O_26
    3  A    between atoms: C_2  and  C_6
    4  A    between atoms: N_5  and  C_19
    5  A    between atoms: C_6  and  C_23
    6  A    between atoms: C_7  and  O_26
                            x       y       z     vdW  Elec       q    Type
                         _______ _______ _______ _____ _____    ______ ____

>  <TORSDO>
F 6

$$$$
