=
 OpenBabel11062421203D

 51 55  0  0  1  0  0  0  0  0999 V2000
  188.6390  176.9070  143.0770 C   0  0  1  0  0  3  0  0  0  0  0  0
  193.3890  176.9640  146.0470 C   0  0  0  0  0  2  0  0  0  0  0  0
  191.4530  170.9800  140.0490 C   0  0  0  0  0  2  0  0  0  0  0  0
  191.7840  171.6500  137.9020 C   0  0  0  0  0  2  0  0  0  0  0  0
  189.3040  175.6740  142.4730 C   0  0  0  0  0  2  0  0  0  0  0  0
  189.4080  177.5250  144.2560 C   0  0  2  0  0  3  0  0  0  0  0  0
  195.2420  173.3420  141.4390 O   0  0  0  0  0  0  0  0  0  0  0  0
  195.2150  174.5030  142.2270 C   0  0  0  0  0  2  0  0  0  0  0  0
  194.2270  173.5140  140.5520 N   0  0  2  0  0  0  0  0  0  0  0  0
  191.8100  174.4910  141.3030 O   0  0  0  0  0  1  0  0  0  0  0  0
  196.5000  172.6040  145.0450 C   0  0  0  0  0  0  0  0  0  0  0  0
  196.4480  171.7390  145.9580 O   0  0  0  0  0  0  0  0  0  0  0  0
  191.4910  170.5370  138.7100 O   0  0  0  0  0  0  0  0  0  0  0  0
  195.9520  174.3080  143.5420 C   0  0  2  0  0  3  0  0  0  0  0  0
  192.2880  172.8480  144.4850 C   0  0  0  0  0  1  0  0  0  0  0  0
  192.1580  174.8250  145.7970 O   0  0  0  0  0  0  0  0  0  0  0  0
  187.4980  173.1470  142.1330 O   0  0  0  0  0  0  0  0  0  0  0  0
  194.7230  176.3740  145.6040 C   0  0  0  0  0  2  0  0  0  0  0  0
  194.3550  173.8400  145.4960 C   0  0  2  0  0  3  0  0  0  0  0  0
  197.4160  173.9060  143.3600 C   0  0  0  0  0  2  0  0  0  0  0  0
  195.3110  173.2480  144.4420 C   0  0  2  0  0  3  0  0  0  0  0  0
  188.9780  173.2260  142.4250 P   0  0  2  0  0  0  0  0  0  0  0  0
  192.0360  172.3740  140.1390 C   0  0  1  0  0  0  0  0  0  0  0  0
  191.2830  173.1990  141.2040 C   0  0  2  0  0  3  0  0  0  0  0  0
  190.9070  177.8060  144.0040 C   0  0  0  0  0  2  0  0  0  0  0  0
  191.7980  176.5630  144.0440 C   0  0  0  0  0  2  0  0  0  0  0  0
  192.1710  176.2080  145.4880 C   0  0  2  0  0  3  0  0  0  0  0  0
  193.5370  172.2310  140.4580 C   0  0  0  0  0  2  0  0  0  0  0  0
  192.9790  174.1370  144.8860 C   0  0  1  0  0  3  0  0  0  0  0  0
  189.2920  174.6040  143.3690 O   0  0  0  0  0  0  0  0  0  0  0  0
  189.8580  173.2810  140.9050 N   0  0  0  0  0  2  0  0  0  0  0  0
  197.7190  173.0150  144.4690 N   0  0  0  0  0  2  0  0  0  0  0  0
  194.9580  175.0260  146.2790 C   0  0  0  0  0  2  0  0  0  0  0  0
  191.8150  172.8980  138.7500 C   0  0  0  0  0  2  0  0  0  0  0  0
  189.4330  171.8460  143.2880 O   0  0  0  0  0  1  0  0  0  0  0  0
  195.7490  174.9970  139.2960 C   0  0  0  0  0  2  0  0  0  0  0  0
  194.3200  175.1960  138.8190 C   0  0  2  0  0  3  0  0  0  0  0  0
  194.7980  173.8100  139.2370 C   0  0  2  0  0  3  0  0  0  0  0  0
  194.2460  175.3060  137.3250 C   0  0  0  0  0  3  0  0  0  0  0  0
  193.1750  175.7170  136.7410 N   0  0  0  0  0  0  0  0  0  0  0  0
  193.1020  175.7890  135.3060 C   0  0  0  0  0  2  0  0  0  0  0  0
  191.2040  177.1740  134.6180 C   0  0  0  0  0  2  0  0  0  0  0  0
  193.3040  178.3450  135.0220 C   0  0  0  0  0  1  0  0  0  0  0  0
  192.5050  177.0970  134.8970 C   0  0  0  0  0  0  0  0  0  0  0  0
  189.1070  176.8110  145.5720 C   0  0  0  0  0  2  0  0  0  0  0  0
  187.6170  176.5910  145.7330 C   0  0  0  0  0  2  0  0  0  0  0  0
  187.0290  177.6750  146.6100 C   0  0  0  0  0  1  0  0  0  0  0  0
  188.4080  177.9480  141.9990 C   0  0  0  0  0  2  0  0  0  0  0  0
  186.9230  178.1590  141.7540 C   0  0  2  0  0  3  0  0  0  0  0  0
  186.3080  178.8620  142.9450 C   0  0  0  0  0  1  0  0  0  0  0  0
  186.2930  176.9260  141.5670 O   0  0  0  0  0  1  0  0  0  0  0  0
  1 48  1  6  0  0  0
  1  6  1  0  0  0  0
  3 23  1  0  0  0  0
  4 13  1  0  0  0  0
  4 34  1  0  0  0  0
  5  1  1  0  0  0  0
  5 30  1  0  0  0  0
  6 45  1  1  0  0  0
  7  8  1  0  0  0  0
  9 28  1  6  0  0  0
  9  7  1  0  0  0  0
 11 12  2  0  0  0  0
 13  3  1  0  0  0  0
 14  8  1  6  0  0  0
 14 21  1  0  0  0  0
 18  2  1  0  0  0  0
 18 33  1  0  0  0  0
 19 33  1  6  0  0  0
 20 14  1  0  0  0  0
 20 32  1  0  0  0  0
 21 11  1  1  0  0  0
 21 19  1  0  0  0  0
 22 17  2  6  0  0  0
 22 35  1  0  0  0  0
 22 30  1  0  0  0  0
 23 34  1  6  0  0  0
 23 28  1  0  0  0  0
 23 24  1  0  0  0  0
 24 10  1  6  0  0  0
 25 26  1  0  0  0  0
 25  6  1  0  0  0  0
 27 26  1  6  0  0  0
 27 16  1  0  0  0  0
 27  2  1  0  0  0  0
 29 15  1  1  0  0  0
 29 19  1  0  0  0  0
 29 16  1  0  0  0  0
 31 24  1  0  0  0  0
 31 22  1  0  0  0  0
 32 11  1  0  0  0  0
 37 39  1  6  0  0  0
 37 38  1  0  0  0  0
 37 36  1  0  0  0  0
 38 36  1  1  0  0  0
 38  9  1  0  0  0  0
 40 39  2  0  0  0  0
 41 40  1  0  0  0  0
 42 44  2  0  0  0  0
 44 43  1  0  0  0  0
 44 41  1  0  0  0  0
 45 46  1  0  0  0  0
 46 47  1  0  0  0  0
 49 48  1  0  0  0  0
 49 50  1  1  0  0  0
 51 49  1  0  0  0  0
M  END
>  <MODEL>
1

>  <REMARK>
 VINA RESULT:      -8.6      0.000      0.000
  Name = 
  8 active torsions:
  status: ('A' for Active; 'I' for Inactive)
    1  A    between atoms: C_1  and  C_11
    2  A    between atoms: C_4  and  C_9
    3  A    between atoms: C_4  and  C_12
    4  A    between atoms: C_5  and  C_36
    5  A    between atoms: C_5  and  N_45
    6  A    between atoms: C_11  and  C_28
    7  A    between atoms: N_17  and  C_29
    8  A    between atoms: C_25  and  C_26
                            x       y       z     vdW  Elec       q    Type
                         _______ _______ _______ _____ _____    ______ ____

>  <TORSDO>
F 8

$$$$
=
 OpenBabel11062421203D

 51 55  0  0  1  0  0  0  0  0999 V2000
  188.3330  176.6250  143.4730 C   0  0  1  0  0  3  0  0  0  0  0  0
  193.2140  176.7440  146.2190 C   0  0  0  0  0  2  0  0  0  0  0  0
  191.3760  171.2200  139.7670 C   0  0  0  0  0  2  0  0  0  0  0  0
  191.5510  172.1090  137.6810 C   0  0  0  0  0  2  0  0  0  0  0  0
  189.0470  175.5040  142.7240 C   0  0  0  0  0  2  0  0  0  0  0  0
  189.1190  177.1850  144.6700 C   0  0  2  0  0  3  0  0  0  0  0  0
  195.0650  173.7060  141.2060 O   0  0  0  0  0  0  0  0  0  0  0  0
  195.0020  174.7850  142.1030 C   0  0  0  0  0  2  0  0  0  0  0  0
  193.9980  173.8870  140.3860 N   0  0  2  0  0  0  0  0  0  0  0  0
  191.5620  174.6160  141.3350 O   0  0  0  0  0  1  0  0  0  0  0  0
  196.5530  172.7290  144.6650 C   0  0  0  0  0  0  0  0  0  0  0  0
  196.6060  171.7800  145.4920 O   0  0  0  0  0  0  0  0  0  0  0  0
  191.3750  170.9070  138.3910 O   0  0  0  0  0  0  0  0  0  0  0  0
  195.8170  174.5210  143.3590 C   0  0  2  0  0  3  0  0  0  0  0  0
  192.3120  172.7230  144.3200 C   0  0  0  0  0  1  0  0  0  0  0  0
  192.1170  174.5560  145.8200 O   0  0  0  0  0  0  0  0  0  0  0  0
  187.3980  172.8970  142.2240 O   0  0  0  0  0  0  0  0  0  0  0  0
  194.5600  176.2950  145.6630 C   0  0  0  0  0  2  0  0  0  0  0  0
  194.3570  173.7620  145.3280 C   0  0  2  0  0  3  0  0  0  0  0  0
  197.2930  174.2430  143.0730 C   0  0  0  0  0  2  0  0  0  0  0  0
  195.2950  173.3390  144.1800 C   0  0  2  0  0  3  0  0  0  0  0  0
  188.8820  173.0550  142.4550 P   0  0  2  0  0  0  0  0  0  0  0  0
  191.8690  172.6380  139.9640 C   0  0  1  0  0  0  0  0  0  0  0  0
  191.1190  173.3050  141.1360 C   0  0  2  0  0  3  0  0  0  0  0  0
  190.5800  177.5930  144.3800 C   0  0  0  0  0  2  0  0  0  0  0  0
  191.5530  176.4190  144.2600 C   0  0  0  0  0  2  0  0  0  0  0  0
  192.0230  175.9590  145.6450 C   0  0  2  0  0  3  0  0  0  0  0  0
  193.3910  172.5730  140.2010 C   0  0  0  0  0  2  0  0  0  0  0  0
  192.9340  174.0150  144.8110 C   0  0  1  0  0  3  0  0  0  0  0  0
  189.1520  174.3570  143.5130 O   0  0  0  0  0  0  0  0  0  0  0  0
  189.6780  173.3130  140.9110 N   0  0  0  0  0  2  0  0  0  0  0  0
  197.7110  173.2760  144.0770 N   0  0  0  0  0  2  0  0  0  0  0  0
  194.9180  174.9100  146.1940 C   0  0  0  0  0  2  0  0  0  0  0  0
  191.5420  173.2720  138.6430 C   0  0  0  0  0  2  0  0  0  0  0  0
  189.4720  171.6360  143.1610 O   0  0  0  0  0  1  0  0  0  0  0  0
  195.1810  173.2280  138.3230 C   0  0  0  0  0  2  0  0  0  0  0  0
  196.0010  174.2560  139.0850 C   0  0  2  0  0  3  0  0  0  0  0  0
  194.4790  174.3450  139.0810 C   0  0  2  0  0  3  0  0  0  0  0  0
  196.5960  175.2810  138.1650 C   0  0  0  0  0  3  0  0  0  0  0  0
  196.8750  174.9930  136.9410 N   0  0  0  0  0  0  0  0  0  0  0  0
  197.4730  175.9730  136.0750 C   0  0  0  0  0  2  0  0  0  0  0  0
  195.6350  175.5480  134.5140 C   0  0  0  0  0  2  0  0  0  0  0  0
  196.2590  177.8830  134.8370 C   0  0  0  0  0  1  0  0  0  0  0  0
  196.4730  176.4280  135.0620 C   0  0  0  0  0  0  0  0  0  0  0  0
  188.9330  176.3320  145.9230 C   0  0  0  0  0  2  0  0  0  0  0  0
  187.4840  176.3360  146.3650 C   0  0  0  0  0  2  0  0  0  0  0  0
  187.1070  177.7090  146.8770 C   0  0  0  0  0  1  0  0  0  0  0  0
  187.9780  177.7430  142.5110 C   0  0  0  0  0  2  0  0  0  0  0  0
  186.4750  177.9610  142.4600 C   0  0  2  0  0  3  0  0  0  0  0  0
  186.0830  179.0270  143.4600 C   0  0  0  0  0  1  0  0  0  0  0  0
  185.8120  176.7700  142.7670 O   0  0  0  0  0  1  0  0  0  0  0  0
  1 48  1  6  0  0  0
  1  6  1  0  0  0  0
  3 23  1  0  0  0  0
  4 13  1  0  0  0  0
  4 34  1  0  0  0  0
  5  1  1  0  0  0  0
  5 30  1  0  0  0  0
  6 45  1  1  0  0  0
  7  8  1  0  0  0  0
  9 28  1  6  0  0  0
  9  7  1  0  0  0  0
 11 12  2  0  0  0  0
 13  3  1  0  0  0  0
 14  8  1  6  0  0  0
 14 21  1  0  0  0  0
 18 33  1  0  0  0  0
 18  2  1  0  0  0  0
 19 33  1  6  0  0  0
 20 14  1  0  0  0  0
 20 32  1  0  0  0  0
 21 11  1  1  0  0  0
 21 19  1  0  0  0  0
 22 17  2  6  0  0  0
 22 35  1  0  0  0  0
 22 30  1  0  0  0  0
 23 34  1  6  0  0  0
 23 28  1  0  0  0  0
 23 24  1  0  0  0  0
 24 10  1  6  0  0  0
 25  6  1  0  0  0  0
 26 25  1  0  0  0  0
 27 26  1  6  0  0  0
 27 16  1  0  0  0  0
 27  2  1  0  0  0  0
 29 15  1  1  0  0  0
 29 19  1  0  0  0  0
 29 16  1  0  0  0  0
 31 24  1  0  0  0  0
 31 22  1  0  0  0  0
 32 11  1  0  0  0  0
 36 37  1  0  0  0  0
 37 39  1  6  0  0  0
 38 36  1  6  0  0  0
 38 37  1  0  0  0  0
 38  9  1  0  0  0  0
 40 39  2  0  0  0  0
 41 40  1  0  0  0  0
 42 44  2  0  0  0  0
 43 44  1  0  0  0  0
 44 41  1  0  0  0  0
 45 46  1  0  0  0  0
 46 47  1  0  0  0  0
 49 48  1  0  0  0  0
 49 51  1  0  0  0  0
 49 50  1  1  0  0  0
M  END
>  <MODEL>
2

>  <REMARK>
 VINA RESULT:      -7.8      1.254      1.438
  Name = 
  8 active torsions:
  status: ('A' for Active; 'I' for Inactive)
    1  A    between atoms: C_1  and  C_11
    2  A    between atoms: C_4  and  C_9
    3  A    between atoms: C_4  and  C_12
    4  A    between atoms: C_5  and  C_36
    5  A    between atoms: C_5  and  N_45
    6  A    between atoms: C_11  and  C_28
    7  A    between atoms: N_17  and  C_29
    8  A    between atoms: C_25  and  C_26
                            x       y       z     vdW  Elec       q    Type
                         _______ _______ _______ _____ _____    ______ ____

>  <TORSDO>
F 8

$$$$
=
 OpenBabel11062421203D

 51 55  0  0  1  0  0  0  0  0999 V2000
  189.8610  175.4440  144.5670 C   0  0  1  0  0  3  0  0  0  0  0  0
  188.9020  172.7490  139.7510 C   0  0  0  0  0  2  0  0  0  0  0  0
  196.6910  173.3060  143.5660 C   0  0  0  0  0  2  0  0  0  0  0  0
  197.0010  171.8670  145.2990 C   0  0  0  0  0  2  0  0  0  0  0  0
  191.2770  174.9430  144.2970 C   0  0  0  0  0  2  0  0  0  0  0  0
  188.8630  175.1570  143.4330 C   0  0  2  0  0  3  0  0  0  0  0  0
  194.2340  170.0780  141.2400 O   0  0  0  0  0  0  0  0  0  0  0  0
  192.8510  170.1410  141.0070 C   0  0  0  0  0  2  0  0  0  0  0  0
  194.3770  170.4880  142.5270 N   0  0  2  0  0  0  0  0  0  0  0  0
  193.0110  172.6110  143.5210 O   0  0  0  0  0  1  0  0  0  0  0  0
  193.4870  170.8500  137.5020 C   0  0  0  0  0  0  0  0  0  0  0  0
  193.8870  171.5450  136.5310 O   0  0  0  0  0  0  0  0  0  0  0  0
  197.6530  172.7870  144.4580 O   0  0  0  0  0  0  0  0  0  0  0  0
  192.5310  170.1650  139.5210 C   0  0  2  0  0  3  0  0  0  0  0  0
  193.2070  174.1000  140.2340 C   0  0  0  0  0  1  0  0  0  0  0  0
  190.8590  174.2650  139.9060 O   0  0  0  0  0  0  0  0  0  0  0  0
  193.5830  177.0120  144.7000 O   0  0  0  0  0  1  0  0  0  0  0  0
  189.7130  171.5780  139.2080 C   0  0  0  0  0  2  0  0  0  0  0  0
  192.0300  172.5350  138.6710 C   0  0  2  0  0  3  0  0  0  0  0  0
  193.0730  168.9510  138.7660 C   0  0  0  0  0  2  0  0  0  0  0  0
  193.0730  171.4070  138.8080 C   0  0  2  0  0  3  0  0  0  0  0  0
  193.4920  175.8680  143.7190 P   0  0  2  0  0  0  0  0  0  0  0  0
  195.4300  172.4700  143.6370 C   0  0  1  0  0  0  0  0  0  0  0  0
  194.1860  173.3660  143.4600 C   0  0  2  0  0  3  0  0  0  0  0  0
  188.8170  173.6960  142.9350 C   0  0  0  0  0  2  0  0  0  0  0  0
  189.9890  173.2990  142.0350 C   0  0  0  0  0  2  0  0  0  0  0  0
  189.7350  173.7350  140.5870 C   0  0  2  0  0  3  0  0  0  0  0  0
  195.5310  171.3820  142.5510 C   0  0  0  0  0  2  0  0  0  0  0  0
  191.9190  173.3430  139.9710 C   0  0  1  0  0  3  0  0  0  0  0  0
  191.8720  175.6530  143.2530 O   0  0  0  0  0  0  0  0  0  0  0  0
  194.1370  174.4170  144.4700 N   0  0  0  0  0  2  0  0  0  0  0  0
  193.4400  169.4420  137.4470 N   0  0  0  0  0  2  0  0  0  0  0  0
  190.6700  172.0550  138.1200 C   0  0  0  0  0  2  0  0  0  0  0  0
  195.5180  171.8840  145.0160 C   0  0  0  0  0  2  0  0  0  0  0  0
  194.4150  176.2510  142.3550 O   0  0  0  0  0  0  0  0  0  0  0  0
  193.7440  168.1700  143.0900 C   0  0  0  0  0  2  0  0  0  0  0  0
  193.5140  169.0750  144.2880 C   0  0  2  0  0  3  0  0  0  0  0  0
  194.6960  169.3260  143.3590 C   0  0  2  0  0  3  0  0  0  0  0  0
  193.9690  168.4300  145.5640 C   0  0  0  0  0  3  0  0  0  0  0  0
  194.5420  169.1170  146.4890 N   0  0  0  0  0  0  0  0  0  0  0  0
  195.0030  168.4850  147.6960 C   0  0  0  0  0  2  0  0  0  0  0  0
  197.1490  168.2060  148.8420 C   0  0  0  0  0  2  0  0  0  0  0  0
  197.2440  168.4350  146.4160 C   0  0  0  0  0  1  0  0  0  0  0  0
  196.4970  168.4420  147.7040 C   0  0  0  0  0  0  0  0  0  0  0  0
  188.9410  176.2060  142.3260 C   0  0  0  0  0  2  0  0  0  0  0  0
  187.5550  176.6820  141.9390 C   0  0  0  0  0  2  0  0  0  0  0  0
  186.9590  177.4970  143.0660 C   0  0  0  0  0  1  0  0  0  0  0  0
  189.3510  174.8660  145.8730 C   0  0  0  0  0  2  0  0  0  0  0  0
  189.2760  175.9340  146.9500 C   0  0  2  0  0  3  0  0  0  0  0  0
  188.6450  177.1860  146.3800 C   0  0  0  0  0  1  0  0  0  0  0  0
  190.5590  176.2320  147.4140 O   0  0  0  0  0  1  0  0  0  0  0  0
  1 48  1  1  0  0  0
  3 23  1  0  0  0  0
  3 13  1  0  0  0  0
  5  1  1  0  0  0  0
  6 45  1  6  0  0  0
  6  1  1  0  0  0  0
  7  9  1  0  0  0  0
  8  7  1  0  0  0  0
  9 28  1  6  0  0  0
  9 38  1  0  0  0  0
 12 11  2  0  0  0  0
 13  4  1  0  0  0  0
 14 20  1  6  0  0  0
 14  8  1  0  0  0  0
 16 29  1  0  0  0  0
 16 27  1  0  0  0  0
 18  2  1  0  0  0  0
 19 33  1  1  0  0  0
 19 21  1  0  0  0  0
 19 29  1  0  0  0  0
 21 11  1  6  0  0  0
 21 14  1  0  0  0  0
 22 35  2  6  0  0  0
 22 31  1  0  0  0  0
 22 17  1  0  0  0  0
 23 28  1  6  0  0  0
 23 34  1  0  0  0  0
 24 10  1  1  0  0  0
 24 23  1  0  0  0  0
 24 31  1  0  0  0  0
 25  6  1  0  0  0  0
 26 25  1  0  0  0  0
 27  2  1  6  0  0  0
 27 26  1  0  0  0  0
 29 15  1  6  0  0  0
 30 22  1  0  0  0  0
 30  5  1  0  0  0  0
 32 11  1  0  0  0  0
 32 20  1  0  0  0  0
 33 18  1  0  0  0  0
 34  4  1  0  0  0  0
 36 37  1  0  0  0  0
 37 39  1  1  0  0  0
 38 36  1  6  0  0  0
 38 37  1  0  0  0  0
 39 40  2  0  0  0  0
 40 41  1  0  0  0  0
 41 44  1  0  0  0  0
 43 44  1  0  0  0  0
 44 42  2  0  0  0  0
 46 45  1  0  0  0  0
 46 47  1  0  0  0  0
 48 49  1  0  0  0  0
 49 50  1  6  0  0  0
 49 51  1  0  0  0  0
M  END
>  <MODEL>
3

>  <REMARK>
 VINA RESULT:      -6.5      3.144      7.736
  Name = 
  8 active torsions:
  status: ('A' for Active; 'I' for Inactive)
    1  A    between atoms: C_1  and  C_11
    2  A    between atoms: C_4  and  C_9
    3  A    between atoms: C_4  and  C_12
    4  A    between atoms: C_5  and  C_36
    5  A    between atoms: C_5  and  N_45
    6  A    between atoms: C_11  and  C_28
    7  A    between atoms: N_17  and  C_29
    8  A    between atoms: C_25  and  C_26
                            x       y       z     vdW  Elec       q    Type
                         _______ _______ _______ _____ _____    ______ ____

>  <TORSDO>
F 8

$$$$
