=
 OpenBabel11062422583D

 29 31  0  0  1  0  0  0  0  0999 V2000
  187.6890  176.0980  146.4080 C   0  0  2  0  0  3  0  0  0  0  0  0
  188.8420  175.3510  147.0570 C   0  0  0  0  0  2  0  0  0  0  0  0
  188.2360  177.2940  145.6310 C   0  0  1  0  0  3  0  0  0  0  0  0
  190.0470  177.2130  145.5750 S   0  0  0  0  0  0  0  0  0  0  0  0
  186.5580  176.6700  147.6600 Cl  0  0  0  0  0  0  0  0  0  0  0  0
  190.0260  176.2900  147.1280 C   0  0  2  0  0  3  0  0  0  0  0  0
  186.0960  178.2960  142.6850 N   0  0  0  0  0  0  0  0  0  0  0  0
  186.1220  177.7330  140.3290 N   0  0  0  0  0  0  0  0  0  0  0  0
  187.6650  177.3760  144.2450 C   0  0  0  0  0  0  0  0  0  0  0  0
  188.2680  176.6790  143.1910 C   0  0  0  0  0  3  0  0  0  0  0  0
  186.5520  178.2000  143.9660 C   0  0  0  0  0  0  0  0  0  0  0  0
  186.6600  177.6130  141.6520 C   0  0  0  0  0  0  0  0  0  0  0  0
  185.1270  178.4540  140.1190 O   0  0  0  0  0  0  0  0  0  0  0  0
  187.7680  176.7930  141.8950 C   0  0  0  0  0  3  0  0  0  0  0  0
  186.6640  177.0120  139.2880 O   0  0  0  0  0  0  0  0  0  0  0  0
  184.5150  178.4980  145.3440 C   0  0  0  0  0  2  0  0  0  0  0  0
  184.6750  179.7480  144.5060 C   0  0  0  0  0  2  0  0  0  0  0  0
  185.9080  179.0310  145.0410 C   0  0  0  0  0  3  0  0  0  0  0  0
  191.3150  175.5020  147.2800 C   0  0  0  0  0  2  0  0  0  0  0  0
  192.5270  176.3740  146.9770 C   0  0  0  0  0  2  0  0  0  0  0  0
  193.3910  174.3600  146.0430 O   0  0  0  0  0  0  0  0  0  0  0  0
  193.5390  175.6040  146.1910 C   0  0  0  0  0  0  0  0  0  0  0  0
  194.6430  176.2810  145.5770 N   0  0  0  0  0  0  0  0  0  0  0  0
  194.9280  177.5610  145.9230 O   0  0  0  0  0  1  0  0  0  0  0  0
  195.5220  175.5660  144.6560 C   0  0  0  0  0  2  0  0  0  0  0  0
  195.1630  175.8790  143.2020 C   0  0  0  0  0  2  0  0  0  0  0  0
  196.1750  176.8850  141.2800 O   0  0  0  0  0  0  0  0  0  0  0  0
  196.2530  176.6430  142.5120 C   0  0  0  0  0  0  0  0  0  0  0  0
  197.3520  177.0870  143.2420 O   0  0  0  0  0  1  0  0  0  0  0  0
  1  2  1  0  0  0  0
  1  5  1  1  0  0  0
  2  6  1  0  0  0  0
  3  9  1  6  0  0  0
  3  1  1  0  0  0  0
  4  3  1  0  0  0  0
  4  6  1  0  0  0  0
  6 19  1  6  0  0  0
  7 11  1  0  0  0  0
  8 12  1  0  0  0  0
 10  9  1  0  0  0  0
 11  9  2  0  0  0  0
 11 18  1  0  0  0  0
 12 14  1  0  0  0  0
 12  7  2  0  0  0  0
 13  8  2  0  0  0  0
 14 10  2  0  0  0  0
 15  8  2  0  0  0  0
 17 18  1  0  0  0  0
 17 16  1  0  0  0  0
 18 16  1  0  0  0  0
 20 19  1  0  0  0  0
 21 22  2  0  0  0  0
 22 20  1  0  0  0  0
 23 24  1  0  0  0  0
 23 22  1  0  0  0  0
 25 23  1  0  0  0  0
 26 25  1  0  0  0  0
 27 28  2  0  0  0  0
 28 26  1  0  0  0  0
 28 29  1  0  0  0  0
M  END
>  <MODEL>
1

>  <REMARK>
 VINA RESULT:      -7.6      0.000      0.000
  Name = 
  8 active torsions:
  status: ('A' for Active; 'I' for Inactive)
    1  A    between atoms: C_1  and  C_20
    2  A    between atoms: C_1  and  C_25
    3  A    between atoms: C_6  and  C_12
    4  A    between atoms: C_8  and  C_19
    5  A    between atoms: C_13  and  C_19
    6  A    between atoms: C_13  and  C_29
    7  A    between atoms: C_14  and  C_15
    8  A    between atoms: C_20  and  N_21
                            x       y       z     vdW  Elec       q    Type
                         _______ _______ _______ _____ _____    ______ ____

>  <TORSDO>
F 8

$$$$
=
 OpenBabel11062422583D

 29 31  0  0  1  0  0  0  0  0999 V2000
  188.9200  175.7130  145.3250 C   0  0  2  0  0  3  0  0  0  0  0  0
  190.3970  175.4320  145.1070 C   0  0  0  0  0  2  0  0  0  0  0  0
  188.6460  177.1950  145.0720 C   0  0  1  0  0  3  0  0  0  0  0  0
  190.1230  177.9810  144.3710 S   0  0  0  0  0  0  0  0  0  0  0  0
  188.4670  175.3040  147.0000 Cl  0  0  0  0  0  0  0  0  0  0  0  0
  191.1420  176.7440  145.2040 C   0  0  2  0  0  3  0  0  0  0  0  0
  185.1210  177.8470  143.8840 N   0  0  0  0  0  0  0  0  0  0  0  0
  184.1180  178.1340  141.6980 N   0  0  0  0  0  0  0  0  0  0  0  0
  187.4570  177.4050  144.1800 C   0  0  0  0  0  0  0  0  0  0  0  0
  187.6210  177.4690  142.7900 C   0  0  0  0  0  3  0  0  0  0  0  0
  186.1680  177.6010  144.7220 C   0  0  0  0  0  0  0  0  0  0  0  0
  185.2600  177.8970  142.5310 C   0  0  0  0  0  0  0  0  0  0  0  0
  182.9900  178.2850  142.2060 O   0  0  0  0  0  0  0  0  0  0  0  0
  186.5250  177.7120  141.9640 C   0  0  0  0  0  3  0  0  0  0  0  0
  184.2460  178.1450  140.3260 O   0  0  0  0  0  0  0  0  0  0  0  0
  184.5090  178.0340  146.5090 C   0  0  0  0  0  2  0  0  0  0  0  0
  185.6340  179.0290  146.6930 C   0  0  0  0  0  2  0  0  0  0  0  0
  185.9410  177.6180  146.2090 C   0  0  0  0  0  3  0  0  0  0  0  0
  192.4920  176.6360  144.5150 C   0  0  0  0  0  2  0  0  0  0  0  0
  193.6290  176.8350  145.5080 C   0  0  0  0  0  2  0  0  0  0  0  0
  195.6870  176.8660  144.3080 O   0  0  0  0  0  0  0  0  0  0  0  0
  194.8800  176.1900  145.0030 C   0  0  0  0  0  0  0  0  0  0  0  0
  195.1780  174.8300  145.3420 N   0  0  0  0  0  0  0  0  0  0  0  0
  194.2170  174.0420  145.8860 O   0  0  0  0  0  1  0  0  0  0  0  0
  196.4810  174.2590  145.0120 C   0  0  0  0  0  2  0  0  0  0  0  0
  196.9640  173.3210  146.1210 C   0  0  0  0  0  2  0  0  0  0  0  0
  197.9090  171.6200  144.7260 O   0  0  0  0  0  0  0  0  0  0  0  0
  197.0910  171.9080  145.6380 C   0  0  0  0  0  0  0  0  0  0  0  0
  196.2990  170.9120  146.2040 O   0  0  0  0  0  1  0  0  0  0  0  0
  1  5  1  1  0  0  0
  2  6  1  0  0  0  0
  2  1  1  0  0  0  0
  3  9  1  6  0  0  0
  3  1  1  0  0  0  0
  4  3  1  0  0  0  0
  4  6  1  0  0  0  0
  6 19  1  6  0  0  0
  7 11  1  0  0  0  0
  8 13  2  0  0  0  0
  8 12  1  0  0  0  0
  9 11  2  0  0  0  0
 10  9  1  0  0  0  0
 11 18  1  0  0  0  0
 12  7  2  0  0  0  0
 14 12  1  0  0  0  0
 14 10  2  0  0  0  0
 15  8  2  0  0  0  0
 16 17  1  0  0  0  0
 18 16  1  0  0  0  0
 18 17  1  0  0  0  0
 19 20  1  0  0  0  0
 21 22  2  0  0  0  0
 22 23  1  0  0  0  0
 22 20  1  0  0  0  0
 23 24  1  0  0  0  0
 25 23  1  0  0  0  0
 25 26  1  0  0  0  0
 27 28  2  0  0  0  0
 28 26  1  0  0  0  0
 28 29  1  0  0  0  0
M  END
>  <MODEL>
2

>  <REMARK>
 VINA RESULT:      -7.3      2.240      2.989
  Name = 
  8 active torsions:
  status: ('A' for Active; 'I' for Inactive)
    1  A    between atoms: C_1  and  C_20
    2  A    between atoms: C_1  and  C_25
    3  A    between atoms: C_6  and  C_12
    4  A    between atoms: C_8  and  C_19
    5  A    between atoms: C_13  and  C_19
    6  A    between atoms: C_13  and  C_29
    7  A    between atoms: C_14  and  C_15
    8  A    between atoms: C_20  and  N_21
                            x       y       z     vdW  Elec       q    Type
                         _______ _______ _______ _____ _____    ______ ____

>  <TORSDO>
F 8

$$$$
=
 OpenBabel11062422583D

 29 31  0  0  1  0  0  0  0  0999 V2000
  188.6800  175.7960  145.4990 C   0  0  2  0  0  3  0  0  0  0  0  0
  190.1400  175.4250  145.3070 C   0  0  0  0  0  2  0  0  0  0  0  0
  188.4800  177.2650  145.1300 C   0  0  1  0  0  3  0  0  0  0  0  0
  189.9930  177.9200  144.3740 S   0  0  0  0  0  0  0  0  0  0  0  0
  188.2090  175.5410  147.1990 Cl  0  0  0  0  0  0  0  0  0  0  0  0
  190.9500  176.7020  145.3040 C   0  0  2  0  0  3  0  0  0  0  0  0
  184.9650  177.8810  143.8930 N   0  0  0  0  0  0  0  0  0  0  0  0
  183.9910  178.1640  141.6930 N   0  0  0  0  0  0  0  0  0  0  0  0
  187.3020  177.4650  144.2220 C   0  0  0  0  0  0  0  0  0  0  0  0
  187.4850  177.5350  142.8350 C   0  0  0  0  0  3  0  0  0  0  0  0
  186.0020  177.6440  144.7450 C   0  0  0  0  0  0  0  0  0  0  0  0
  185.1230  177.9370  142.5420 C   0  0  0  0  0  0  0  0  0  0  0  0
  182.8540  178.3000  142.1850 O   0  0  0  0  0  0  0  0  0  0  0  0
  186.3990  177.7680  141.9930 C   0  0  0  0  0  3  0  0  0  0  0  0
  184.1400  178.1800  140.3230 O   0  0  0  0  0  0  0  0  0  0  0  0
  184.3780  178.2350  146.5190 C   0  0  0  0  0  2  0  0  0  0  0  0
  185.6130  179.0800  146.7440 C   0  0  0  0  0  2  0  0  0  0  0  0
  185.7540  177.6540  146.2280 C   0  0  0  0  0  3  0  0  0  0  0  0
  192.2920  176.4740  144.6290 C   0  0  0  0  0  2  0  0  0  0  0  0
  192.1640  176.5700  143.1140 C   0  0  0  0  0  2  0  0  0  0  0  0
  193.4010  174.6580  142.4150 O   0  0  0  0  0  0  0  0  0  0  0  0
  192.2710  175.2130  142.4950 C   0  0  0  0  0  0  0  0  0  0  0  0
  191.0950  174.5320  142.0400 N   0  0  0  0  0  0  0  0  0  0  0  0
  189.9270  175.2110  141.9140 O   0  0  0  0  0  1  0  0  0  0  0  0
  191.1720  173.1380  141.6130 C   0  0  0  0  0  2  0  0  0  0  0  0
  191.0950  172.1930  142.8140 C   0  0  0  0  0  2  0  0  0  0  0  0
  188.7120  172.1200  142.5940 O   0  0  0  0  0  0  0  0  0  0  0  0
  189.7040  172.1100  143.3680 C   0  0  0  0  0  0  0  0  0  0  0  0
  189.5140  172.0190  144.7440 O   0  0  0  0  0  1  0  0  0  0  0  0
  1  5  1  1  0  0  0
  2  1  1  0  0  0  0
  3  9  1  6  0  0  0
  3  1  1  0  0  0  0
  4  3  1  0  0  0  0
  4  6  1  0  0  0  0
  6 19  1  6  0  0  0
  6  2  1  0  0  0  0
  7 11  1  0  0  0  0
  8 13  2  0  0  0  0
  8 12  1  0  0  0  0
  9 11  2  0  0  0  0
 10  9  1  0  0  0  0
 11 18  1  0  0  0  0
 12  7  2  0  0  0  0
 14 12  1  0  0  0  0
 14 10  2  0  0  0  0
 15  8  2  0  0  0  0
 16 17  1  0  0  0  0
 18 16  1  0  0  0  0
 18 17  1  0  0  0  0
 20 19  1  0  0  0  0
 21 22  2  0  0  0  0
 22 20  1  0  0  0  0
 23 22  1  0  0  0  0
 24 23  1  0  0  0  0
 25 23  1  0  0  0  0
 25 26  1  0  0  0  0
 26 28  1  0  0  0  0
 27 28  2  0  0  0  0
 28 29  1  0  0  0  0
M  END
>  <MODEL>
3

>  <REMARK>
 VINA RESULT:      -7.3      3.056      4.114
  Name = 
  8 active torsions:
  status: ('A' for Active; 'I' for Inactive)
    1  A    between atoms: C_1  and  C_20
    2  A    between atoms: C_1  and  C_25
    3  A    between atoms: C_6  and  C_12
    4  A    between atoms: C_8  and  C_19
    5  A    between atoms: C_13  and  C_19
    6  A    between atoms: C_13  and  C_29
    7  A    between atoms: C_14  and  C_15
    8  A    between atoms: C_20  and  N_21
                            x       y       z     vdW  Elec       q    Type
                         _______ _______ _______ _____ _____    ______ ____

>  <TORSDO>
F 8

$$$$
=
 OpenBabel11062422583D

 29 31  0  0  1  0  0  0  0  0999 V2000
  188.7160  175.6820  145.6210 C   0  0  2  0  0  3  0  0  0  0  0  0
  190.1880  175.3380  145.4670 C   0  0  0  0  0  2  0  0  0  0  0  0
  188.5060  177.1590  145.2930 C   0  0  1  0  0  3  0  0  0  0  0  0
  190.0340  177.8600  144.6100 S   0  0  0  0  0  0  0  0  0  0  0  0
  188.1920  175.3650  147.2940 Cl  0  0  0  0  0  0  0  0  0  0  0  0
  190.9780  176.6270  145.5330 C   0  0  2  0  0  3  0  0  0  0  0  0
  185.0350  177.8160  143.9560 N   0  0  0  0  0  0  0  0  0  0  0  0
  184.1270  178.1060  141.7280 N   0  0  0  0  0  0  0  0  0  0  0  0
  187.3570  177.3710  144.3510 C   0  0  0  0  0  0  0  0  0  0  0  0
  187.5790  177.4370  142.9690 C   0  0  0  0  0  3  0  0  0  0  0  0
  186.0450  177.5690  144.8370 C   0  0  0  0  0  0  0  0  0  0  0  0
  185.2320  177.8670  142.6100 C   0  0  0  0  0  0  0  0  0  0  0  0
  182.9790  178.2580  142.1890 O   0  0  0  0  0  0  0  0  0  0  0  0
  186.5210  177.6810  142.0970 C   0  0  0  0  0  3  0  0  0  0  0  0
  184.3140  178.1170  140.3630 O   0  0  0  0  0  0  0  0  0  0  0  0
  184.3960  178.2190  146.5660 C   0  0  0  0  0  2  0  0  0  0  0  0
  185.6560  179.0140  146.8290 C   0  0  0  0  0  2  0  0  0  0  0  0
  185.7560  177.5850  146.3130 C   0  0  0  0  0  3  0  0  0  0  0  0
  192.3450  176.4390  144.8970 C   0  0  0  0  0  2  0  0  0  0  0  0
  192.9800  175.1300  145.3450 C   0  0  0  0  0  2  0  0  0  0  0  0
  195.2000  175.7360  145.9610 O   0  0  0  0  0  0  0  0  0  0  0  0
  194.4580  175.1630  145.1180 C   0  0  0  0  0  0  0  0  0  0  0  0
  195.0270  174.5120  143.9750 N   0  0  0  0  0  0  0  0  0  0  0  0
  194.2240  174.1020  142.9610 O   0  0  0  0  0  1  0  0  0  0  0  0
  196.4750  174.3810  143.8500 C   0  0  0  0  0  2  0  0  0  0  0  0
  196.9640  174.9520  142.5180 C   0  0  0  0  0  2  0  0  0  0  0  0
  197.1670  177.1890  143.3460 O   0  0  0  0  0  1  0  0  0  0  0  0
  196.7450  176.4330  142.4340 C   0  0  0  0  0  0  0  0  0  0  0  0
  196.0740  176.9690  141.3380 O   0  0  0  0  0  0  0  0  0  0  0  0
  1  5  1  1  0  0  0
  2  6  1  0  0  0  0
  2  1  1  0  0  0  0
  3  9  1  6  0  0  0
  3  1  1  0  0  0  0
  4  3  1  0  0  0  0
  4  6  1  0  0  0  0
  6 19  1  6  0  0  0
  7 11  1  0  0  0  0
  8 13  2  0  0  0  0
  8 12  1  0  0  0  0
  9 11  2  0  0  0  0
 10  9  1  0  0  0  0
 11 18  1  0  0  0  0
 12  7  2  0  0  0  0
 14 12  1  0  0  0  0
 14 10  2  0  0  0  0
 15  8  2  0  0  0  0
 16 17  1  0  0  0  0
 18 16  1  0  0  0  0
 18 17  1  0  0  0  0
 19 20  1  0  0  0  0
 22 20  1  0  0  0  0
 22 21  2  0  0  0  0
 23 22  1  0  0  0  0
 24 23  1  0  0  0  0
 25 23  1  0  0  0  0
 26 25  1  0  0  0  0
 28 26  1  0  0  0  0
 28 27  1  0  0  0  0
 29 28  2  0  0  0  0
M  END
>  <MODEL>
4

>  <REMARK>
 VINA RESULT:      -7.2      1.656      2.092
  Name = 
  8 active torsions:
  status: ('A' for Active; 'I' for Inactive)
    1  A    between atoms: C_1  and  C_20
    2  A    between atoms: C_1  and  C_25
    3  A    between atoms: C_6  and  C_12
    4  A    between atoms: C_8  and  C_19
    5  A    between atoms: C_13  and  C_19
    6  A    between atoms: C_13  and  C_29
    7  A    between atoms: C_14  and  C_15
    8  A    between atoms: C_20  and  N_21
                            x       y       z     vdW  Elec       q    Type
                         _______ _______ _______ _____ _____    ______ ____

>  <TORSDO>
F 8

$$$$
=
 OpenBabel11062422583D

 29 31  0  0  1  0  0  0  0  0999 V2000
  187.9160  176.1740  146.1450 C   0  0  2  0  0  3  0  0  0  0  0  0
  189.1790  175.5390  146.7030 C   0  0  0  0  0  2  0  0  0  0  0  0
  188.2840  177.4500  145.3910 C   0  0  1  0  0  3  0  0  0  0  0  0
  190.0870  177.5760  145.2390 S   0  0  0  0  0  0  0  0  0  0  0  0
  186.8000  176.5710  147.4760 Cl  0  0  0  0  0  0  0  0  0  0  0  0
  190.2540  176.6030  146.7520 C   0  0  2  0  0  3  0  0  0  0  0  0
  185.9300  178.3690  142.5840 N   0  0  0  0  0  0  0  0  0  0  0  0
  185.8510  177.8320  140.2230 N   0  0  0  0  0  0  0  0  0  0  0  0
  187.6310  177.5170  144.0410 C   0  0  0  0  0  0  0  0  0  0  0  0
  188.2080  176.8630  142.9450 C   0  0  0  0  0  3  0  0  0  0  0  0
  186.4630  178.2840  143.8360 C   0  0  0  0  0  0  0  0  0  0  0  0
  186.4700  177.7270  141.5120 C   0  0  0  0  0  0  0  0  0  0  0  0
  184.8100  178.5020  140.0790 O   0  0  0  0  0  0  0  0  0  0  0  0
  187.6300  176.9640  141.6810 C   0  0  0  0  0  3  0  0  0  0  0  0
  186.3700  177.1510  139.1430 O   0  0  0  0  0  0  0  0  0  0  0  0
  184.6000  178.3490  145.4670 C   0  0  0  0  0  2  0  0  0  0  0  0
  184.4500  179.5570  144.5680 C   0  0  0  0  0  2  0  0  0  0  0  0
  185.8390  179.0700  144.9570 C   0  0  0  0  0  3  0  0  0  0  0  0
  191.6290  175.9590  146.8050 C   0  0  0  0  0  2  0  0  0  0  0  0
  192.2920  175.9760  145.4330 C   0  0  0  0  0  2  0  0  0  0  0  0
  192.3110  173.5940  145.3630 O   0  0  0  0  0  0  0  0  0  0  0  0
  192.0850  174.6670  144.7400 C   0  0  0  0  0  0  0  0  0  0  0  0
  191.5910  174.6340  143.3950 N   0  0  0  0  0  0  0  0  0  0  0  0
  191.5680  175.7710  142.6550 O   0  0  0  0  0  1  0  0  0  0  0  0
  191.2090  173.3640  142.7840 C   0  0  0  0  0  2  0  0  0  0  0  0
  189.7370  173.0470  143.0560 C   0  0  0  0  0  2  0  0  0  0  0  0
  187.6510  173.0520  141.8790 O   0  0  0  0  0  1  0  0  0  0  0  0
  188.8750  173.3440  141.8650 C   0  0  0  0  0  0  0  0  0  0  0  0
  189.4350  173.9480  140.7430 O   0  0  0  0  0  0  0  0  0  0  0  0
  1  2  1  0  0  0  0
  1  5  1  1  0  0  0
  2  6  1  0  0  0  0
  3  9  1  6  0  0  0
  3  1  1  0  0  0  0
  4  3  1  0  0  0  0
  4  6  1  0  0  0  0
  6 19  1  6  0  0  0
  7 11  1  0  0  0  0
  8 12  1  0  0  0  0
 10  9  1  0  0  0  0
 11  9  2  0  0  0  0
 11 18  1  0  0  0  0
 12 14  1  0  0  0  0
 12  7  2  0  0  0  0
 13  8  2  0  0  0  0
 14 10  2  0  0  0  0
 15  8  2  0  0  0  0
 17 18  1  0  0  0  0
 17 16  1  0  0  0  0
 18 16  1  0  0  0  0
 20 19  1  0  0  0  0
 22 21  2  0  0  0  0
 22 20  1  0  0  0  0
 23 22  1  0  0  0  0
 24 23  1  0  0  0  0
 25 26  1  0  0  0  0
 25 23  1  0  0  0  0
 28 27  1  0  0  0  0
 28 26  1  0  0  0  0
 29 28  2  0  0  0  0
M  END
>  <MODEL>
5

>  <REMARK>
 VINA RESULT:      -7.2      2.325      3.479
  Name = 
  8 active torsions:
  status: ('A' for Active; 'I' for Inactive)
    1  A    between atoms: C_1  and  C_20
    2  A    between atoms: C_1  and  C_25
    3  A    between atoms: C_6  and  C_12
    4  A    between atoms: C_8  and  C_19
    5  A    between atoms: C_13  and  C_19
    6  A    between atoms: C_13  and  C_29
    7  A    between atoms: C_14  and  C_15
    8  A    between atoms: C_20  and  N_21
                            x       y       z     vdW  Elec       q    Type
                         _______ _______ _______ _____ _____    ______ ____

>  <TORSDO>
F 8

$$$$
=
 OpenBabel11062422583D

 29 31  0  0  1  0  0  0  0  0999 V2000
  190.9590  177.3850  144.6740 C   0  0  2  0  0  3  0  0  0  0  0  0
  192.1240  176.6600  145.3250 C   0  0  0  0  0  2  0  0  0  0  0  0
  189.7930  176.4130  144.5010 C   0  0  1  0  0  3  0  0  0  0  0  0
  190.1580  174.8590  145.3610 S   0  0  0  0  0  0  0  0  0  0  0  0
  191.4510  178.0120  143.0800 Cl  0  0  0  0  0  0  0  0  0  0  0  0
  191.9210  175.1750  145.1260 C   0  0  2  0  0  3  0  0  0  0  0  0
  186.4170  178.1070  144.5500 N   0  0  0  0  0  0  0  0  0  0  0  0
  184.7790  178.5230  146.2850 N   0  0  0  0  0  0  0  0  0  0  0  0
  188.4960  176.9960  144.9830 C   0  0  0  0  0  0  0  0  0  0  0  0
  188.1140  176.8550  146.3230 C   0  0  0  0  0  3  0  0  0  0  0  0
  187.6130  177.6410  144.0890 C   0  0  0  0  0  0  0  0  0  0  0  0
  186.0380  177.9910  145.8520 C   0  0  0  0  0  0  0  0  0  0  0  0
  184.0300  179.1030  145.4750 O   0  0  0  0  0  0  0  0  0  0  0  0
  186.8880  177.3530  146.7610 C   0  0  0  0  0  3  0  0  0  0  0  0
  184.4080  178.4450  147.6100 O   0  0  0  0  0  0  0  0  0  0  0  0
  186.6850  178.1570  141.8520 C   0  0  0  0  0  2  0  0  0  0  0  0
  187.1610  176.7210  141.8180 C   0  0  0  0  0  2  0  0  0  0  0  0
  187.9330  177.7570  142.6240 C   0  0  0  0  0  3  0  0  0  0  0  0
  192.7280  174.3900  146.1460 C   0  0  0  0  0  2  0  0  0  0  0  0
  193.7840  173.5320  145.4630 C   0  0  0  0  0  2  0  0  0  0  0  0
  195.3400  175.1890  146.1770 O   0  0  0  0  0  0  0  0  0  0  0  0
  195.0680  174.2880  145.3370 C   0  0  0  0  0  0  0  0  0  0  0  0
  195.9990  173.9610  144.2980 N   0  0  0  0  0  0  0  0  0  0  0  0
  195.6120  173.1640  143.2700 O   0  0  0  0  0  1  0  0  0  0  0  0
  197.3280  174.5640  144.2870 C   0  0  0  0  0  2  0  0  0  0  0  0
  197.6080  175.2480  142.9460 C   0  0  0  0  0  2  0  0  0  0  0  0
  196.6090  177.2590  143.7770 O   0  0  0  0  0  1  0  0  0  0  0  0
  196.8100  176.5080  142.7880 C   0  0  0  0  0  0  0  0  0  0  0  0
  196.2950  176.8460  141.5400 O   0  0  0  0  0  0  0  0  0  0  0  0
  1  5  1  6  0  0  0
  1  2  1  0  0  0  0
  3  1  1  0  0  0  0
  3  9  1  1  0  0  0
  3  4  1  0  0  0  0
  6  2  1  0  0  0  0
  6  4  1  0  0  0  0
  6 19  1  1  0  0  0
  7 12  1  0  0  0  0
  8 15  2  0  0  0  0
  9 10  2  0  0  0  0
 10 14  1  0  0  0  0
 11  7  2  0  0  0  0
 11  9  1  0  0  0  0
 12  8  1  0  0  0  0
 12 14  2  0  0  0  0
 13  8  2  0  0  0  0
 16 18  1  0  0  0  0
 17 16  1  0  0  0  0
 17 18  1  0  0  0  0
 18 11  1  0  0  0  0
 20 19  1  0  0  0  0
 22 20  1  0  0  0  0
 22 21  2  0  0  0  0
 23 22  1  0  0  0  0
 24 23  1  0  0  0  0
 25 23  1  0  0  0  0
 26 25  1  0  0  0  0
 28 26  1  0  0  0  0
 28 27  1  0  0  0  0
 29 28  2  0  0  0  0
M  END
>  <MODEL>
6

>  <REMARK>
 VINA RESULT:      -7.1      2.822      3.872
  Name = 
  8 active torsions:
  status: ('A' for Active; 'I' for Inactive)
    1  A    between atoms: C_1  and  C_20
    2  A    between atoms: C_1  and  C_25
    3  A    between atoms: C_6  and  C_12
    4  A    between atoms: C_8  and  C_19
    5  A    between atoms: C_13  and  C_19
    6  A    between atoms: C_13  and  C_29
    7  A    between atoms: C_14  and  C_15
    8  A    between atoms: C_20  and  N_21
                            x       y       z     vdW  Elec       q    Type
                         _______ _______ _______ _____ _____    ______ ____

>  <TORSDO>
F 8

$$$$
=
 OpenBabel11062422583D

 29 31  0  0  1  0  0  0  0  0999 V2000
  187.9080  176.1000  146.3310 C   0  0  2  0  0  3  0  0  0  0  0  0
  189.1520  175.4640  146.9290 C   0  0  0  0  0  2  0  0  0  0  0  0
  188.2970  177.3920  145.6150 C   0  0  1  0  0  3  0  0  0  0  0  0
  190.1040  177.5320  145.5380 S   0  0  0  0  0  0  0  0  0  0  0  0
  186.7360  176.4670  147.6230 Cl  0  0  0  0  0  0  0  0  0  0  0  0
  190.2160  176.5330  147.0400 C   0  0  2  0  0  3  0  0  0  0  0  0
  186.0390  178.3270  142.7350 N   0  0  0  0  0  0  0  0  0  0  0  0
  186.0700  177.8470  140.3600 N   0  0  0  0  0  0  0  0  0  0  0  0
  187.6990  177.4770  144.2400 C   0  0  0  0  0  0  0  0  0  0  0  0
  188.3350  176.8640  143.1540 C   0  0  0  0  0  3  0  0  0  0  0  0
  186.5220  178.2230  144.0050 C   0  0  0  0  0  0  0  0  0  0  0  0
  186.6370  177.7240  141.6710 C   0  0  0  0  0  0  0  0  0  0  0  0
  185.0200  178.4980  140.1890 O   0  0  0  0  0  0  0  0  0  0  0  0
  187.8070  176.9830  141.8700 C   0  0  0  0  0  3  0  0  0  0  0  0
  186.6480  177.2050  139.2870 O   0  0  0  0  0  0  0  0  0  0  0  0
  184.6040  178.1960  145.5710 C   0  0  0  0  0  2  0  0  0  0  0  0
  184.4440  179.4160  144.6900 C   0  0  0  0  0  2  0  0  0  0  0  0
  185.8350  178.9670  145.1180 C   0  0  0  0  0  3  0  0  0  0  0  0
  191.5930  175.8990  147.1370 C   0  0  0  0  0  2  0  0  0  0  0  0
  192.0900  175.4610  145.7650 C   0  0  0  0  0  2  0  0  0  0  0  0
  194.2910  175.9180  146.5550 O   0  0  0  0  0  0  0  0  0  0  0  0
  193.5090  175.8890  145.5660 C   0  0  0  0  0  0  0  0  0  0  0  0
  193.9860  176.2190  144.2550 N   0  0  0  0  0  0  0  0  0  0  0  0
  193.1020  176.4100  143.2430 O   0  0  0  0  0  1  0  0  0  0  0  0
  195.4090  176.4520  144.0280 C   0  0  0  0  0  2  0  0  0  0  0  0
  196.0680  175.2270  143.3890 C   0  0  0  0  0  2  0  0  0  0  0  0
  197.9410  174.4670  144.6720 O   0  0  0  0  0  0  0  0  0  0  0  0
  196.7160  174.3450  144.4140 C   0  0  0  0  0  0  0  0  0  0  0  0
  195.9540  173.3910  145.0830 O   0  0  0  0  0  1  0  0  0  0  0  0
  1  2  1  0  0  0  0
  1  5  1  1  0  0  0
  2  6  1  0  0  0  0
  3  9  1  6  0  0  0
  3  1  1  0  0  0  0
  4  3  1  0  0  0  0
  4  6  1  0  0  0  0
  6 19  1  6  0  0  0
  7 11  1  0  0  0  0
  8 12  1  0  0  0  0
 10  9  1  0  0  0  0
 11  9  2  0  0  0  0
 11 18  1  0  0  0  0
 12 14  1  0  0  0  0
 12  7  2  0  0  0  0
 13  8  2  0  0  0  0
 14 10  2  0  0  0  0
 15  8  2  0  0  0  0
 17 18  1  0  0  0  0
 17 16  1  0  0  0  0
 18 16  1  0  0  0  0
 20 19  1  0  0  0  0
 22 20  1  0  0  0  0
 22 21  2  0  0  0  0
 23 22  1  0  0  0  0
 24 23  1  0  0  0  0
 25 23  1  0  0  0  0
 26 25  1  0  0  0  0
 26 28  1  0  0  0  0
 28 27  2  0  0  0  0
 28 29  1  0  0  0  0
M  END
>  <MODEL>
7

>  <REMARK>
 VINA RESULT:      -7.1      1.240      1.585
  Name = 
  8 active torsions:
  status: ('A' for Active; 'I' for Inactive)
    1  A    between atoms: C_1  and  C_20
    2  A    between atoms: C_1  and  C_25
    3  A    between atoms: C_6  and  C_12
    4  A    between atoms: C_8  and  C_19
    5  A    between atoms: C_13  and  C_19
    6  A    between atoms: C_13  and  C_29
    7  A    between atoms: C_14  and  C_15
    8  A    between atoms: C_20  and  N_21
                            x       y       z     vdW  Elec       q    Type
                         _______ _______ _______ _____ _____    ______ ____

>  <TORSDO>
F 8

$$$$
=
 OpenBabel11062422583D

 29 31  0  0  1  0  0  0  0  0999 V2000
  189.3730  174.9530  145.9860 C   0  0  2  0  0  3  0  0  0  0  0  0
  190.8040  174.4940  145.7630 C   0  0  0  0  0  2  0  0  0  0  0  0
  189.2920  176.4660  145.7870 C   0  0  1  0  0  3  0  0  0  0  0  0
  190.8620  177.0820  145.1210 S   0  0  0  0  0  0  0  0  0  0  0  0
  188.8580  174.5440  147.6420 Cl  0  0  0  0  0  0  0  0  0  0  0  0
  191.7090  175.6960  145.9120 C   0  0  2  0  0  3  0  0  0  0  0  0
  185.8620  177.5150  144.6060 N   0  0  0  0  0  0  0  0  0  0  0  0
  184.9420  178.0960  142.4420 N   0  0  0  0  0  0  0  0  0  0  0  0
  188.1470  176.8580  144.8990 C   0  0  0  0  0  0  0  0  0  0  0  0
  188.3510  177.0450  143.5260 C   0  0  0  0  0  3  0  0  0  0  0  0
  186.8630  177.1040  145.4340 C   0  0  0  0  0  0  0  0  0  0  0  0
  186.0400  177.6860  143.2680 C   0  0  0  0  0  0  0  0  0  0  0  0
  183.8160  178.2870  142.9420 O   0  0  0  0  0  0  0  0  0  0  0  0
  187.3010  177.4560  142.7080 C   0  0  0  0  0  3  0  0  0  0  0  0
  185.1070  178.2310  141.0800 O   0  0  0  0  0  0  0  0  0  0  0  0
  185.2690  177.6480  147.2500 C   0  0  0  0  0  2  0  0  0  0  0  0
  186.5620  178.3710  147.5590 C   0  0  0  0  0  2  0  0  0  0  0  0
  186.6000  176.9930  146.9110 C   0  0  0  0  0  3  0  0  0  0  0  0
  193.0400  175.4420  145.2240 C   0  0  0  0  0  2  0  0  0  0  0  0
  194.2040  175.7570  146.1550 C   0  0  0  0  0  2  0  0  0  0  0  0
  195.9400  174.1250  146.1090 O   0  0  0  0  0  0  0  0  0  0  0  0
  195.4750  175.1860  145.6100 C   0  0  0  0  0  0  0  0  0  0  0  0
  196.1320  175.8160  144.5040 N   0  0  0  0  0  0  0  0  0  0  0  0
  195.7660  177.0660  144.1220 O   0  0  0  0  0  1  0  0  0  0  0  0
  197.2610  175.1610  143.8510 C   0  0  0  0  0  2  0  0  0  0  0  0
  197.7470  175.9760  142.6500 C   0  0  0  0  0  2  0  0  0  0  0  0
  197.1680  176.0360  140.3280 O   0  0  0  0  0  0  0  0  0  0  0  0
  197.3700  175.3310  141.3500 C   0  0  0  0  0  0  0  0  0  0  0  0
  197.2470  173.9460  141.2780 O   0  0  0  0  0  1  0  0  0  0  0  0
  1  5  1  1  0  0  0
  2  6  1  0  0  0  0
  2  1  1  0  0  0  0
  3  9  1  6  0  0  0
  3  1  1  0  0  0  0
  4  3  1  0  0  0  0
  4  6  1  0  0  0  0
  6 19  1  6  0  0  0
  7 11  1  0  0  0  0
  8 13  2  0  0  0  0
  8 12  1  0  0  0  0
  9 11  2  0  0  0  0
 10  9  1  0  0  0  0
 11 18  1  0  0  0  0
 12  7  2  0  0  0  0
 14 12  1  0  0  0  0
 14 10  2  0  0  0  0
 15  8  2  0  0  0  0
 16 17  1  0  0  0  0
 18 16  1  0  0  0  0
 18 17  1  0  0  0  0
 19 20  1  0  0  0  0
 22 21  2  0  0  0  0
 22 20  1  0  0  0  0
 23 22  1  0  0  0  0
 24 23  1  0  0  0  0
 25 23  1  0  0  0  0
 26 25  1  0  0  0  0
 27 28  2  0  0  0  0
 28 26  1  0  0  0  0
 29 28  1  0  0  0  0
M  END
>  <MODEL>
8

>  <REMARK>
 VINA RESULT:      -6.8      1.813      2.296
  Name = 
  8 active torsions:
  status: ('A' for Active; 'I' for Inactive)
    1  A    between atoms: C_1  and  C_20
    2  A    between atoms: C_1  and  C_25
    3  A    between atoms: C_6  and  C_12
    4  A    between atoms: C_8  and  C_19
    5  A    between atoms: C_13  and  C_19
    6  A    between atoms: C_13  and  C_29
    7  A    between atoms: C_14  and  C_15
    8  A    between atoms: C_20  and  N_21
                            x       y       z     vdW  Elec       q    Type
                         _______ _______ _______ _____ _____    ______ ____

>  <TORSDO>
F 8

$$$$
=
 OpenBabel11062422583D

 29 31  0  0  1  0  0  0  0  0999 V2000
  190.9940  177.4980  144.7130 C   0  0  2  0  0  3  0  0  0  0  0  0
  192.1610  176.7580  145.3450 C   0  0  0  0  0  2  0  0  0  0  0  0
  189.8420  176.5210  144.4840 C   0  0  1  0  0  3  0  0  0  0  0  0
  190.2150  174.9340  145.2770 S   0  0  0  0  0  0  0  0  0  0  0  0
  191.4960  178.2000  143.1540 Cl  0  0  0  0  0  0  0  0  0  0  0  0
  191.9770  175.2800  145.0770 C   0  0  2  0  0  3  0  0  0  0  0  0
  186.4170  178.1120  144.5590 N   0  0  0  0  0  0  0  0  0  0  0  0
  184.7840  178.4880  146.3090 N   0  0  0  0  0  0  0  0  0  0  0  0
  188.5320  177.0670  144.9760 C   0  0  0  0  0  0  0  0  0  0  0  0
  188.1680  176.9210  146.3200 C   0  0  0  0  0  3  0  0  0  0  0  0
  187.6210  177.6800  144.0880 C   0  0  0  0  0  0  0  0  0  0  0  0
  186.0540  177.9920  145.8650 C   0  0  0  0  0  0  0  0  0  0  0  0
  184.0100  179.0410  145.5030 O   0  0  0  0  0  0  0  0  0  0  0  0
  186.9330  177.3840  146.7690 C   0  0  0  0  0  3  0  0  0  0  0  0
  184.4300  178.4060  147.6380 O   0  0  0  0  0  0  0  0  0  0  0  0
  186.6430  178.0880  141.8490 C   0  0  0  0  0  2  0  0  0  0  0  0
  187.2290  176.6930  141.8340 C   0  0  0  0  0  2  0  0  0  0  0  0
  187.9230  177.7980  142.6190 C   0  0  0  0  0  3  0  0  0  0  0  0
  192.7810  174.4600  146.0710 C   0  0  0  0  0  2  0  0  0  0  0  0
  193.7070  173.4870  145.3520 C   0  0  0  0  0  2  0  0  0  0  0  0
  192.1800  171.8040  144.6380 O   0  0  0  0  0  0  0  0  0  0  0  0
  192.9570  172.7370  144.2980 C   0  0  0  0  0  0  0  0  0  0  0  0
  193.0870  173.1070  142.9200 N   0  0  0  0  0  0  0  0  0  0  0  0
  194.0830  173.9450  142.5350 O   0  0  0  0  0  1  0  0  0  0  0  0
  192.2170  172.5060  141.9130 C   0  0  0  0  0  2  0  0  0  0  0  0
  190.9880  173.3820  141.6600 C   0  0  0  0  0  2  0  0  0  0  0  0
  189.6910  171.5410  142.4750 O   0  0  0  0  0  1  0  0  0  0  0  0
  189.7130  172.6060  141.8060 C   0  0  0  0  0  0  0  0  0  0  0  0
  188.5490  173.0720  141.1990 O   0  0  0  0  0  0  0  0  0  0  0  0
  1  5  1  6  0  0  0
  1  2  1  0  0  0  0
  3  1  1  0  0  0  0
  3  9  1  1  0  0  0
  3  4  1  0  0  0  0
  6  4  1  0  0  0  0
  6  2  1  0  0  0  0
  6 19  1  1  0  0  0
  7 12  1  0  0  0  0
  8 15  2  0  0  0  0
  9 10  2  0  0  0  0
 10 14  1  0  0  0  0
 11  7  2  0  0  0  0
 11  9  1  0  0  0  0
 12  8  1  0  0  0  0
 12 14  2  0  0  0  0
 13  8  2  0  0  0  0
 16 18  1  0  0  0  0
 17 16  1  0  0  0  0
 17 18  1  0  0  0  0
 18 11  1  0  0  0  0
 20 19  1  0  0  0  0
 22 21  2  0  0  0  0
 22 20  1  0  0  0  0
 23 22  1  0  0  0  0
 24 23  1  0  0  0  0
 25 23  1  0  0  0  0
 26 28  1  0  0  0  0
 26 25  1  0  0  0  0
 28 27  1  0  0  0  0
 29 28  2  0  0  0  0
M  END
>  <MODEL>
9

>  <REMARK>
 VINA RESULT:      -6.5      3.557      4.986
  Name = 
  8 active torsions:
  status: ('A' for Active; 'I' for Inactive)
    1  A    between atoms: C_1  and  C_20
    2  A    between atoms: C_1  and  C_25
    3  A    between atoms: C_6  and  C_12
    4  A    between atoms: C_8  and  C_19
    5  A    between atoms: C_13  and  C_19
    6  A    between atoms: C_13  and  C_29
    7  A    between atoms: C_14  and  C_15
    8  A    between atoms: C_20  and  N_21
                            x       y       z     vdW  Elec       q    Type
                         _______ _______ _______ _____ _____    ______ ____

>  <TORSDO>
F 8

$$$$
