=
 OpenBabel11062421333D

 55 62  0  0  1  0  0  0  0  0999 V2000
  190.0570  174.5180  145.7750 C   0  0  1  0  0  3  0  0  0  0  0  0
  192.2450  173.4790  143.7650 C   0  0  0  0  0  0  0  0  0  0  0  0
  191.5500  174.7690  144.0350 C   0  0  2  0  0  3  0  0  0  0  0  0
  192.1020  175.7710  144.8720 O   0  0  0  0  0  0  0  0  0  0  0  0
  191.5150  172.3420  143.9110 C   0  0  0  0  0  3  0  0  0  0  0  0
  191.5410  174.6510  145.5140 C   0  0  1  0  0  3  0  0  0  0  0  0
  189.6940  173.0030  145.6800 C   0  0  0  0  0  2  0  0  0  0  0  0
  190.0370  172.3220  144.3250 C   0  0  0  0  0  2  0  0  0  0  0  0
  195.0820  176.2660  142.0900 C   0  0  0  0  0  2  0  0  0  0  0  0
  194.7580  173.7990  144.1440 C   0  0  0  0  0  0  0  0  0  0  0  0
  193.6420  173.4250  143.1980 C   0  0  2  0  0  3  0  0  0  0  0  0
  194.8990  173.2810  145.3440 C   0  0  0  0  0  3  0  0  0  0  0  0
  195.9570  174.6320  143.7710 C   0  0  2  0  0  3  0  0  0  0  0  0
  196.8270  174.5410  145.0200 C   0  0  0  0  0  2  0  0  0  0  0  0
  195.5520  176.0750  143.5290 C   0  0  0  0  0  2  0  0  0  0  0  0
  193.6850  175.7050  141.8580 C   0  0  0  0  0  2  0  0  0  0  0  0
  193.6890  174.1760  141.8710 C   0  0  1  0  0  3  0  0  0  0  0  0
  196.0810  173.7140  145.9060 O   0  0  0  0  0  0  0  0  0  0  0  0
  191.4360  173.3430  140.1740 C   0  0  0  0  0  3  0  0  0  0  0  0
  193.9130  173.3850  140.6090 C   0  0  0  0  0  0  0  0  0  0  0  0
  195.2910  172.9670  140.2450 C   0  0  0  0  0  0  0  0  0  0  0  0
  196.8580  171.4390  139.0920 C   0  0  0  0  0  1  0  0  0  0  0  0
  192.1380  171.4570  138.0580 C   0  0  0  0  0  3  0  0  0  0  0  0
  193.1210  171.8780  138.8600 C   0  0  1  0  0  3  0  0  0  0  0  0
  195.4940  171.9490  139.3830 C   0  0  0  0  0  0  0  0  0  0  0  0
  190.4700  172.9510  139.0840 C   0  0  0  0  0  3  0  0  0  0  0  0
  190.7880  172.0580  138.1400 C   0  0  0  0  0  3  0  0  0  0  0  0
  194.4060  171.3470  138.7330 O   0  0  0  0  0  0  0  0  0  0  0  0
  196.3860  173.6490  140.7890 O   0  0  0  0  0  1  0  0  0  0  0  0
  192.8630  172.9150  139.8800 C   0  0  0  0  0  0  0  0  0  0  0  0
  189.6230  175.1430  147.1320 C   0  0  0  0  0  0  0  0  0  0  0  0
  190.7090  175.2090  147.9740 F   0  0  0  0  0  0  0  0  0  0  0  0
  188.7070  174.3020  147.7650 F   0  0  0  0  0  0  0  0  0  0  0  0
  189.9750  177.5130  147.5300 F   0  0  0  0  0  0  0  0  0  0  0  0
  189.0530  176.5920  147.0610 C   0  0  1  0  0  3  0  0  0  0  0  0
  188.5730  177.0460  145.6750 C   0  0  0  0  0  2  0  0  0  0  0  0
  187.1130  176.6570  145.4060 C   0  0  0  0  0  2  0  0  0  0  0  0
  186.6500  178.0050  141.2340 C   0  0  2  0  0  3  0  0  0  0  0  0
  186.4560  177.5830  144.3690 C   0  0  2  0  0  3  0  0  0  0  0  0
  186.9010  176.6860  141.9880 C   0  0  2  0  0  3  0  0  0  0  0  0
  184.5500  179.1340  143.9640 O   0  0  0  0  0  0  0  0  0  0  0  0
  184.8140  177.5460  142.4370 C   0  0  1  0  0  3  0  0  0  0  0  0
  185.4010  178.5740  144.9370 C   0  0  1  0  0  3  0  0  0  0  0  0
  185.9300  176.7980  143.1470 C   0  0  2  0  0  3  0  0  0  0  0  0
  183.9190  178.1350  143.3650 O   0  0  0  0  0  0  0  0  0  0  0  0
  185.3970  178.5220  141.6050 O   0  0  0  0  0  0  0  0  0  0  0  0
  186.6620  177.7820  139.7210 C   0  0  0  0  0  2  0  0  0  0  0  0
  186.9700  176.4500  139.4540 O   0  0  0  0  0  1  0  0  0  0  0  0
  188.3690  176.4530  142.3790 C   0  0  0  0  0  2  0  0  0  0  0  0
  188.9040  175.1900  141.7170 C   0  0  0  0  0  2  0  0  0  0  0  0
  187.9440  174.0370  142.0130 C   0  0  0  0  0  1  0  0  0  0  0  0
  184.7190  178.3060  146.2920 C   0  0  0  0  0  2  0  0  0  0  0  0
  185.9450  177.7020  148.3870 O   0  0  0  0  0  1  0  0  0  0  0  0
  186.0590  179.8390  147.5530 O   0  0  0  0  0  0  0  0  0  0  0  0
  185.5830  178.6700  147.4500 C   0  0  0  0  0  0  0  0  0  0  0  0
  1 31  1  1  0  0  0
  2  5  2  0  0  0  0
  3  2  1  6  0  0  0
  3  4  1  0  0  0  0
  3  6  1  0  0  0  0
  5  8  1  0  0  0  0
  6  4  1  1  0  0  0
  6  1  1  0  0  0  0
  7  1  1  0  0  0  0
  8  7  1  0  0  0  0
  9 15  1  0  0  0  0
 10 12  2  0  0  0  0
 11  2  1  1  0  0  0
 11 10  1  0  0  0  0
 12 18  1  0  0  0  0
 13 15  1  1  0  0  0
 13 10  1  0  0  0  0
 13 14  1  0  0  0  0
 14 18  1  0  0  0  0
 16 17  1  0  0  0  0
 16  9  1  0  0  0  0
 17 20  1  1  0  0  0
 17 11  1  0  0  0  0
 21 20  1  0  0  0  0
 21 29  1  0  0  0  0
 22 25  1  0  0  0  0
 23 27  2  0  0  0  0
 24 23  1  6  0  0  0
 24 30  1  0  0  0  0
 25 21  2  0  0  0  0
 26 19  2  0  0  0  0
 27 26  1  0  0  0  0
 28 24  1  0  0  0  0
 28 25  1  0  0  0  0
 30 19  1  0  0  0  0
 30 20  2  0  0  0  0
 31 33  1  0  0  0  0
 31 32  1  0  0  0  0
 35 31  1  0  0  0  0
 35 34  1  6  0  0  0
 36 35  1  0  0  0  0
 37 36  1  0  0  0  0
 38 47  1  6  0  0  0
 38 46  1  0  0  0  0
 38 40  1  0  0  0  0
 39 43  1  0  0  0  0
 39 37  1  1  0  0  0
 40 49  1  1  0  0  0
 40 44  1  0  0  0  0
 41 43  1  0  0  0  0
 42 46  1  1  0  0  0
 42 44  1  0  0  0  0
 42 45  1  0  0  0  0
 43 52  1  1  0  0  0
 44 39  1  0  0  0  0
 45 41  1  0  0  0  0
 48 47  1  0  0  0  0
 50 51  1  0  0  0  0
 50 49  1  0  0  0  0
 52 55  1  0  0  0  0
 55 54  2  0  0  0  0
 55 53  1  0  0  0  0
M  END
>  <MODEL>
1

>  <REMARK>
 VINA RESULT:      -8.8      0.000      0.000
  Name = 
  12 active torsions:
  status: ('A' for Active; 'I' for Inactive)
    1  A    between atoms: C_1  and  C_3
    2  A    between atoms: C_1  and  C_25
    3  A    between atoms: C_4  and  C_27
    4  A    between atoms: C_5  and  C_45
    5  A    between atoms: C_6  and  C_28
    6  A    between atoms: C_6  and  C_48
    7  A    between atoms: C_13  and  C_19
    8  A    between atoms: C_13  and  C_31
    9  A    between atoms: C_17  and  C_22
   10  A    between atoms: C_25  and  C_48
   11  A    between atoms: C_34  and  C_39
   12  A    between atoms: C_39  and  C_47
                            x       y       z     vdW  Elec       q    Type
                         _______ _______ _______ _____ _____    ______ ____

>  <TORSDO>
F 12

$$$$
=
 OpenBabel11062421333D

 55 62  0  0  1  0  0  0  0  0999 V2000
  191.0650  175.2300  144.1450 C   0  0  1  0  0  3  0  0  0  0  0  0
  193.2220  172.9640  144.4900 C   0  0  0  0  0  0  0  0  0  0  0  0
  191.8300  173.0610  143.9670 C   0  0  2  0  0  3  0  0  0  0  0  0
  191.5450  173.2490  142.5910 O   0  0  0  0  0  0  0  0  0  0  0  0
  193.5330  173.7370  145.5640 C   0  0  0  0  0  3  0  0  0  0  0  0
  191.9890  174.3790  143.3040 C   0  0  1  0  0  3  0  0  0  0  0  0
  191.8880  175.7700  145.3550 C   0  0  0  0  0  2  0  0  0  0  0  0
  192.5390  174.6820  146.2540 C   0  0  0  0  0  2  0  0  0  0  0  0
  196.9200  171.1820  145.8170 C   0  0  0  0  0  2  0  0  0  0  0  0
  194.0440  170.5380  144.5050 C   0  0  0  0  0  0  0  0  0  0  0  0
  194.2030  171.9420  143.9710 C   0  0  2  0  0  3  0  0  0  0  0  0
  192.9030  169.8860  144.5100 C   0  0  0  0  0  3  0  0  0  0  0  0
  195.1850  169.6330  144.8950 C   0  0  2  0  0  3  0  0  0  0  0  0
  194.4790  168.3120  145.1790 C   0  0  0  0  0  2  0  0  0  0  0  0
  195.8610  170.1390  146.1570 C   0  0  0  0  0  2  0  0  0  0  0  0
  196.3110  172.5310  145.4560 C   0  0  0  0  0  2  0  0  0  0  0  0
  195.6230  172.4840  144.0920 C   0  0  1  0  0  3  0  0  0  0  0  0
  193.1050  168.5880  144.9290 O   0  0  0  0  0  0  0  0  0  0  0  0
  195.6950  175.2150  143.0030 C   0  0  0  0  0  3  0  0  0  0  0  0
  196.3770  172.8000  142.8260 C   0  0  0  0  0  0  0  0  0  0  0  0
  197.0480  171.7040  142.0830 C   0  0  0  0  0  0  0  0  0  0  0  0
  197.9390  170.7360  139.9880 C   0  0  0  0  0  1  0  0  0  0  0  0
  196.8470  175.4300  140.3270 C   0  0  0  0  0  3  0  0  0  0  0  0
  196.7910  174.2130  140.8800 C   0  0  1  0  0  3  0  0  0  0  0  0
  197.3730  171.8560  140.7810 C   0  0  0  0  0  0  0  0  0  0  0  0
  196.0010  176.5430  142.3560 C   0  0  0  0  0  3  0  0  0  0  0  0
  196.4940  176.6320  141.1150 C   0  0  0  0  0  3  0  0  0  0  0  0
  197.1850  173.0920  140.1470 O   0  0  0  0  0  0  0  0  0  0  0  0
  197.3590  170.5100  142.7440 O   0  0  0  0  0  1  0  0  0  0  0  0
  196.3250  174.0430  142.2710 C   0  0  0  0  0  0  0  0  0  0  0  0
  190.3910  176.3740  143.3340 C   0  0  0  0  0  0  0  0  0  0  0  0
  191.2960  176.8970  142.4410 F   0  0  0  0  0  0  0  0  0  0  0  0
  190.0560  177.4220  144.1910 F   0  0  0  0  0  0  0  0  0  0  0  0
  188.6420  174.7450  142.9030 F   0  0  0  0  0  0  0  0  0  0  0  0
  189.1480  175.9630  142.4860 C   0  0  1  0  0  3  0  0  0  0  0  0
  188.0020  176.9840  142.4570 C   0  0  0  0  0  2  0  0  0  0  0  0
  186.6480  176.3530  142.8090 C   0  0  0  0  0  2  0  0  0  0  0  0
  185.9960  178.1660  146.7740 C   0  0  2  0  0  3  0  0  0  0  0  0
  185.8230  177.2510  143.7440 C   0  0  2  0  0  3  0  0  0  0  0  0
  187.1850  177.7830  145.8740 C   0  0  2  0  0  3  0  0  0  0  0  0
  184.0730  179.0210  143.8220 O   0  0  0  0  0  0  0  0  0  0  0  0
  185.9260  179.4760  144.9560 C   0  0  1  0  0  3  0  0  0  0  0  0
  184.5860  177.9320  143.0920 C   0  0  1  0  0  3  0  0  0  0  0  0
  186.7120  178.2550  144.5120 C   0  0  2  0  0  3  0  0  0  0  0  0
  185.0430  179.9160  143.9370 O   0  0  0  0  0  0  0  0  0  0  0  0
  185.2210  179.1450  146.1290 O   0  0  0  0  0  0  0  0  0  0  0  0
  186.4800  178.7230  148.1130 C   0  0  0  0  0  2  0  0  0  0  0  0
  186.1870  180.0830  148.1790 O   0  0  0  0  0  1  0  0  0  0  0  0
  187.5860  176.3020  145.9550 C   0  0  0  0  0  2  0  0  0  0  0  0
  188.7710  176.1200  146.8940 C   0  0  0  0  0  2  0  0  0  0  0  0
  188.8760  174.6420  147.2720 C   0  0  0  0  0  1  0  0  0  0  0  0
  184.4960  178.0990  141.5630 C   0  0  0  0  0  2  0  0  0  0  0  0
  182.0520  178.5560  141.8390 O   0  0  0  0  0  1  0  0  0  0  0  0
  182.8440  177.6140  139.8990 O   0  0  0  0  0  0  0  0  0  0  0  0
  183.0940  178.0480  141.0630 C   0  0  0  0  0  0  0  0  0  0  0  0
  1 31  1  6  0  0  0
  1  7  1  0  0  0  0
  2  5  2  0  0  0  0
  3  4  1  6  0  0  0
  3  2  1  0  0  0  0
  5  8  1  0  0  0  0
  6  4  1  6  0  0  0
  6  3  1  0  0  0  0
  6  1  1  0  0  0  0
  7  8  1  0  0  0  0
  9 15  1  0  0  0  0
 10 12  2  0  0  0  0
 10 13  1  0  0  0  0
 11 17  1  0  0  0  0
 11  2  1  1  0  0  0
 11 10  1  0  0  0  0
 12 18  1  0  0  0  0
 13 14  1  1  0  0  0
 13 15  1  0  0  0  0
 16  9  1  0  0  0  0
 17 20  1  6  0  0  0
 17 16  1  0  0  0  0
 18 14  1  0  0  0  0
 21 29  1  0  0  0  0
 21 20  1  0  0  0  0
 22 25  1  0  0  0  0
 23 27  2  0  0  0  0
 24 23  1  1  0  0  0
 24 30  1  0  0  0  0
 25 21  2  0  0  0  0
 26 19  2  0  0  0  0
 27 26  1  0  0  0  0
 28 25  1  0  0  0  0
 28 24  1  0  0  0  0
 30 20  2  0  0  0  0
 30 19  1  0  0  0  0
 31 33  1  0  0  0  0
 32 31  1  0  0  0  0
 35 34  1  1  0  0  0
 35 31  1  0  0  0  0
 36 35  1  0  0  0  0
 36 37  1  0  0  0  0
 38 47  1  1  0  0  0
 39 37  1  6  0  0  0
 39 44  1  0  0  0  0
 40 49  1  6  0  0  0
 40 38  1  0  0  0  0
 41 45  1  0  0  0  0
 42 45  1  6  0  0  0
 42 46  1  0  0  0  0
 43 52  1  6  0  0  0
 43 39  1  0  0  0  0
 43 41  1  0  0  0  0
 44 42  1  0  0  0  0
 44 40  1  0  0  0  0
 46 38  1  0  0  0  0
 47 48  1  0  0  0  0
 49 50  1  0  0  0  0
 50 51  1  0  0  0  0
 54 55  2  0  0  0  0
 55 52  1  0  0  0  0
 55 53  1  0  0  0  0
M  END
>  <MODEL>
2

>  <REMARK>
 VINA RESULT:      -8.8      2.578      4.837
  Name = 
  12 active torsions:
  status: ('A' for Active; 'I' for Inactive)
    1  A    between atoms: C_1  and  C_3
    2  A    between atoms: C_1  and  C_25
    3  A    between atoms: C_4  and  C_27
    4  A    between atoms: C_5  and  C_45
    5  A    between atoms: C_6  and  C_28
    6  A    between atoms: C_6  and  C_48
    7  A    between atoms: C_13  and  C_19
    8  A    between atoms: C_13  and  C_31
    9  A    between atoms: C_17  and  C_22
   10  A    between atoms: C_25  and  C_48
   11  A    between atoms: C_34  and  C_39
   12  A    between atoms: C_39  and  C_47
                            x       y       z     vdW  Elec       q    Type
                         _______ _______ _______ _____ _____    ______ ____

>  <TORSDO>
F 12

$$$$
=
 OpenBabel11062421333D

 55 62  0  0  1  0  0  0  0  0999 V2000
  189.9870  172.9040  142.0150 C   0  0  1  0  0  3  0  0  0  0  0  0
  193.0280  172.0950  142.0780 C   0  0  0  0  0  0  0  0  0  0  0  0
  192.2030  173.1480  141.4230 C   0  0  2  0  0  3  0  0  0  0  0  0
  192.0380  174.4420  141.9790 O   0  0  0  0  0  0  0  0  0  0  0  0
  192.4640  170.8650  142.2150 C   0  0  0  0  0  3  0  0  0  0  0  0
  191.3020  173.4000  142.5750 C   0  0  1  0  0  3  0  0  0  0  0  0
  189.8930  171.3760  142.3110 C   0  0  0  0  0  2  0  0  0  0  0  0
  191.0500  170.5150  141.7310 C   0  0  0  0  0  2  0  0  0  0  0  0
  195.7920  170.7130  145.0900 C   0  0  0  0  0  2  0  0  0  0  0  0
  195.4490  171.2720  141.9300 C   0  0  0  0  0  0  0  0  0  0  0  0
  194.4780  172.3150  142.4300 C   0  0  2  0  0  3  0  0  0  0  0  0
  195.4990  170.8620  140.6830 C   0  0  0  0  0  3  0  0  0  0  0  0
  196.6090  170.7290  142.7250 C   0  0  2  0  0  3  0  0  0  0  0  0
  197.3410  169.8700  141.7000 C   0  0  0  0  0  2  0  0  0  0  0  0
  196.1150  169.8600  143.8680 C   0  0  0  0  0  2  0  0  0  0  0  0
  194.4800  171.4720  144.9360 C   0  0  0  0  0  2  0  0  0  0  0  0
  194.6090  172.6080  143.9210 C   0  0  1  0  0  3  0  0  0  0  0  0
  196.5730  170.0140  140.5100 O   0  0  0  0  0  0  0  0  0  0  0  0
  192.9720  174.2090  145.7660 C   0  0  0  0  0  3  0  0  0  0  0  0
  195.0350  173.9890  144.3440 C   0  0  0  0  0  0  0  0  0  0  0  0
  196.2740  174.5770  143.7750 C   0  0  0  0  0  0  0  0  0  0  0  0
  197.6490  176.5310  143.1360 C   0  0  0  0  0  1  0  0  0  0  0  0
  193.8190  176.9900  146.0460 C   0  0  0  0  0  3  0  0  0  0  0  0
  194.5280  176.2080  145.2240 C   0  0  1  0  0  3  0  0  0  0  0  0
  196.4740  175.9120  143.8000 C   0  0  0  0  0  0  0  0  0  0  0  0
  192.3900  175.1340  146.8060 C   0  0  0  0  0  3  0  0  0  0  0  0
  192.7570  176.4160  146.9030 C   0  0  0  0  0  3  0  0  0  0  0  0
  195.5680  176.7490  144.4660 O   0  0  0  0  0  0  0  0  0  0  0  0
  197.2470  173.7360  143.2240 O   0  0  0  0  0  1  0  0  0  0  0  0
  194.2270  174.7670  145.1180 C   0  0  0  0  0  0  0  0  0  0  0  0
  188.7620  173.6880  142.5680 C   0  0  0  0  0  0  0  0  0  0  0  0
  188.9260  173.9010  143.9170 F   0  0  0  0  0  0  0  0  0  0  0  0
  187.6120  172.9070  142.4470 F   0  0  0  0  0  0  0  0  0  0  0  0
  188.9440  175.1350  140.6260 F   0  0  0  0  0  0  0  0  0  0  0  0
  188.5170  175.0950  141.9430 C   0  0  1  0  0  3  0  0  0  0  0  0
  187.0700  175.6020  142.0020 C   0  0  0  0  0  2  0  0  0  0  0  0
  186.9890  177.1140  142.2450 C   0  0  0  0  0  2  0  0  0  0  0  0
  185.6560  177.6070  146.4190 C   0  0  2  0  0  3  0  0  0  0  0  0
  185.8920  177.4740  143.2600 C   0  0  2  0  0  3  0  0  0  0  0  0
  186.9400  177.8190  145.5960 C   0  0  2  0  0  3  0  0  0  0  0  0
  183.6840  178.5900  143.5400 O   0  0  0  0  0  0  0  0  0  0  0  0
  185.2620  179.2560  144.9510 C   0  0  1  0  0  3  0  0  0  0  0  0
  184.5340  177.9140  142.6450 C   0  0  1  0  0  3  0  0  0  0  0  0
  186.4010  178.4630  144.3330 C   0  0  2  0  0  3  0  0  0  0  0  0
  184.3290  179.6670  143.9660 O   0  0  0  0  0  0  0  0  0  0  0  0
  184.6460  178.4530  145.9300 O   0  0  0  0  0  0  0  0  0  0  0  0
  185.8930  177.9230  147.8960 C   0  0  0  0  0  2  0  0  0  0  0  0
  187.0100  178.7470  148.0170 O   0  0  0  0  0  1  0  0  0  0  0  0
  187.7700  176.5440  145.3830 C   0  0  0  0  0  2  0  0  0  0  0  0
  189.2220  176.7790  145.7790 C   0  0  0  0  0  2  0  0  0  0  0  0
  189.9760  177.3380  144.5710 C   0  0  0  0  0  1  0  0  0  0  0  0
  184.4580  178.4280  141.1940 C   0  0  0  0  0  2  0  0  0  0  0  0
  181.9960  178.7510  140.8920 O   0  0  0  0  0  1  0  0  0  0  0  0
  183.1370  177.2470  139.5830 O   0  0  0  0  0  0  0  0  0  0  0  0
  183.1680  178.0860  140.5320 C   0  0  0  0  0  0  0  0  0  0  0  0
  1  7  1  0  0  0  0
  1 31  1  1  0  0  0
  1  6  1  0  0  0  0
  2  5  2  0  0  0  0
  3  4  1  1  0  0  0
  3  2  1  0  0  0  0
  3  6  1  0  0  0  0
  6  4  1  6  0  0  0
  8  5  1  0  0  0  0
  8  7  1  0  0  0  0
 10 11  1  0  0  0  0
 10 13  1  0  0  0  0
 11  2  1  1  0  0  0
 11 17  1  0  0  0  0
 12 10  2  0  0  0  0
 13 14  1  6  0  0  0
 13 15  1  0  0  0  0
 15  9  1  0  0  0  0
 16  9  1  0  0  0  0
 17 20  1  6  0  0  0
 17 16  1  0  0  0  0
 18 12  1  0  0  0  0
 18 14  1  0  0  0  0
 19 26  2  0  0  0  0
 20 30  2  0  0  0  0
 21 25  2  0  0  0  0
 21 20  1  0  0  0  0
 22 25  1  0  0  0  0
 23 27  2  0  0  0  0
 24 23  1  1  0  0  0
 25 28  1  0  0  0  0
 26 27  1  0  0  0  0
 28 24  1  0  0  0  0
 29 21  1  0  0  0  0
 30 24  1  0  0  0  0
 30 19  1  0  0  0  0
 31 32  1  0  0  0  0
 33 31  1  0  0  0  0
 35 34  1  6  0  0  0
 35 36  1  0  0  0  0
 35 31  1  0  0  0  0
 36 37  1  0  0  0  0
 38 47  1  1  0  0  0
 39 37  1  6  0  0  0
 39 44  1  0  0  0  0
 40 49  1  6  0  0  0
 40 38  1  0  0  0  0
 41 45  1  0  0  0  0
 42 45  1  6  0  0  0
 42 46  1  0  0  0  0
 43 52  1  6  0  0  0
 43 39  1  0  0  0  0
 43 41  1  0  0  0  0
 44 42  1  0  0  0  0
 44 40  1  0  0  0  0
 46 38  1  0  0  0  0
 47 48  1  0  0  0  0
 49 50  1  0  0  0  0
 51 50  1  0  0  0  0
 54 55  2  0  0  0  0
 55 53  1  0  0  0  0
 55 52  1  0  0  0  0
M  END
>  <MODEL>
3

>  <REMARK>
 VINA RESULT:      -8.6      2.389      5.411
  Name = 
  12 active torsions:
  status: ('A' for Active; 'I' for Inactive)
    1  A    between atoms: C_1  and  C_3
    2  A    between atoms: C_1  and  C_25
    3  A    between atoms: C_4  and  C_27
    4  A    between atoms: C_5  and  C_45
    5  A    between atoms: C_6  and  C_28
    6  A    between atoms: C_6  and  C_48
    7  A    between atoms: C_13  and  C_19
    8  A    between atoms: C_13  and  C_31
    9  A    between atoms: C_17  and  C_22
   10  A    between atoms: C_25  and  C_48
   11  A    between atoms: C_34  and  C_39
   12  A    between atoms: C_39  and  C_47
                            x       y       z     vdW  Elec       q    Type
                         _______ _______ _______ _____ _____    ______ ____

>  <TORSDO>
F 12

$$$$
=
 OpenBabel11062421333D

 55 62  0  0  1  0  0  0  0  0999 V2000
  191.1940  175.9160  144.2790 C   0  0  1  0  0  3  0  0  0  0  0  0
  193.4630  173.7400  144.4450 C   0  0  0  0  0  0  0  0  0  0  0  0
  192.0140  173.7670  144.0990 C   0  0  2  0  0  3  0  0  0  0  0  0
  191.5520  173.8800  142.7640 O   0  0  0  0  0  0  0  0  0  0  0  0
  193.8770  174.5740  145.4360 C   0  0  0  0  0  3  0  0  0  0  0  0
  192.0380  175.0570  143.3650 C   0  0  1  0  0  3  0  0  0  0  0  0
  192.1420  176.5400  145.3500 C   0  0  0  0  0  2  0  0  0  0  0  0
  192.9420  175.5170  146.2050 C   0  0  0  0  0  2  0  0  0  0  0  0
  197.7130  173.4030  143.7800 C   0  0  0  0  0  2  0  0  0  0  0  0
  195.1070  171.8150  144.8310 C   0  0  0  0  0  0  0  0  0  0  0  0
  194.4100  172.7280  143.8500 C   0  0  2  0  0  3  0  0  0  0  0  0
  194.4810  171.1330  145.7630 C   0  0  0  0  0  3  0  0  0  0  0  0
  196.5540  171.4030  144.7400 C   0  0  2  0  0  3  0  0  0  0  0  0
  196.6730  170.3600  145.8460 C   0  0  0  0  0  2  0  0  0  0  0  0
  197.4660  172.5800  145.0400 C   0  0  0  0  0  2  0  0  0  0  0  0
  196.5140  174.2670  143.4080 C   0  0  0  0  0  2  0  0  0  0  0  0
  195.3590  173.4190  142.8770 C   0  0  1  0  0  3  0  0  0  0  0  0
  195.3650  170.2920  146.4040 O   0  0  0  0  0  0  0  0  0  0  0  0
  196.1140  170.7820  141.8140 C   0  0  0  0  0  3  0  0  0  0  0  0
  195.2330  173.1030  141.4090 C   0  0  0  0  0  0  0  0  0  0  0  0
  194.7750  174.1600  140.4720 C   0  0  0  0  0  0  0  0  0  0  0  0
  194.6810  175.1580  138.2110 C   0  0  0  0  0  1  0  0  0  0  0  0
  196.1830  170.6170  138.8990 C   0  0  0  0  0  3  0  0  0  0  0  0
  195.8410  171.7900  139.4430 C   0  0  1  0  0  3  0  0  0  0  0  0
  195.0280  174.0610  139.1500 C   0  0  0  0  0  0  0  0  0  0  0  0
  196.2820  169.4750  141.0800 C   0  0  0  0  0  3  0  0  0  0  0  0
  196.3510  169.4140  139.7450 C   0  0  0  0  0  3  0  0  0  0  0  0
  195.6260  172.9040  138.6300 O   0  0  0  0  0  0  0  0  0  0  0  0
  194.0610  175.2580  140.9660 O   0  0  0  0  0  1  0  0  0  0  0  0
  195.6770  171.9180  140.9050 C   0  0  0  0  0  0  0  0  0  0  0  0
  190.3810  176.9980  143.5120 C   0  0  0  0  0  0  0  0  0  0  0  0
  191.2080  177.6540  142.6320 F   0  0  0  0  0  0  0  0  0  0  0  0
  189.9330  177.9700  144.4060 F   0  0  0  0  0  0  0  0  0  0  0  0
  188.7850  175.2170  143.0870 F   0  0  0  0  0  0  0  0  0  0  0  0
  189.1870  176.4700  142.6580 C   0  0  1  0  0  3  0  0  0  0  0  0
  187.9560  177.3860  142.6070 C   0  0  0  0  0  2  0  0  0  0  0  0
  186.6450  176.6140  142.8040 C   0  0  0  0  0  2  0  0  0  0  0  0
  185.6380  177.8840  146.9040 C   0  0  2  0  0  3  0  0  0  0  0  0
  185.7010  177.3300  143.7840 C   0  0  2  0  0  3  0  0  0  0  0  0
  186.9000  177.7020  146.0410 C   0  0  2  0  0  3  0  0  0  0  0  0
  183.8110  178.9420  143.9570 O   0  0  0  0  0  0  0  0  0  0  0  0
  185.5580  179.3950  145.2490 C   0  0  1  0  0  3  0  0  0  0  0  0
  184.4490  177.9900  143.1400 C   0  0  1  0  0  3  0  0  0  0  0  0
  186.4630  178.2970  144.7170 C   0  0  2  0  0  3  0  0  0  0  0  0
  184.6980  179.8870  144.2350 O   0  0  0  0  0  0  0  0  0  0  0  0
  184.8210  178.8740  146.3300 O   0  0  0  0  0  0  0  0  0  0  0  0
  186.0030  178.3100  148.3260 C   0  0  0  0  0  2  0  0  0  0  0  0
  187.1520  179.0970  148.2900 O   0  0  0  0  0  1  0  0  0  0  0  0
  187.4150  176.2550  145.9760 C   0  0  0  0  0  2  0  0  0  0  0  0
  188.6080  176.0710  146.9040 C   0  0  0  0  0  2  0  0  0  0  0  0
  189.1150  174.6340  146.7730 C   0  0  0  0  0  1  0  0  0  0  0  0
  184.4270  178.3330  141.6370 C   0  0  0  0  0  2  0  0  0  0  0  0
  183.0140  177.5220  139.7390 O   0  0  0  0  0  0  0  0  0  0  0  0
  182.0320  178.3080  141.6610 O   0  0  0  0  0  1  0  0  0  0  0  0
  183.0970  178.0850  141.0130 C   0  0  0  0  0  0  0  0  0  0  0  0
  1 31  1  6  0  0  0
  1  7  1  0  0  0  0
  2  5  2  0  0  0  0
  3  4  1  6  0  0  0
  3  2  1  0  0  0  0
  5  8  1  0  0  0  0
  6  4  1  6  0  0  0
  6  3  1  0  0  0  0
  6  1  1  0  0  0  0
  7  8  1  0  0  0  0
  9 15  1  0  0  0  0
 10 12  2  0  0  0  0
 11  2  1  1  0  0  0
 11 10  1  0  0  0  0
 12 18  1  0  0  0  0
 13 10  1  0  0  0  0
 13 15  1  1  0  0  0
 13 14  1  0  0  0  0
 14 18  1  0  0  0  0
 16  9  1  0  0  0  0
 17 20  1  1  0  0  0
 17 16  1  0  0  0  0
 17 11  1  0  0  0  0
 21 29  1  0  0  0  0
 21 20  1  0  0  0  0
 22 25  1  0  0  0  0
 23 27  2  0  0  0  0
 24 23  1  6  0  0  0
 24 30  1  0  0  0  0
 25 21  2  0  0  0  0
 26 19  2  0  0  0  0
 27 26  1  0  0  0  0
 28 25  1  0  0  0  0
 28 24  1  0  0  0  0
 30 20  2  0  0  0  0
 30 19  1  0  0  0  0
 31 33  1  0  0  0  0
 32 31  1  0  0  0  0
 35 34  1  1  0  0  0
 35 31  1  0  0  0  0
 36 35  1  0  0  0  0
 36 37  1  0  0  0  0
 38 47  1  1  0  0  0
 39 37  1  6  0  0  0
 39 44  1  0  0  0  0
 40 49  1  6  0  0  0
 40 38  1  0  0  0  0
 41 45  1  0  0  0  0
 42 45  1  6  0  0  0
 42 46  1  0  0  0  0
 43 52  1  6  0  0  0
 43 39  1  0  0  0  0
 43 41  1  0  0  0  0
 44 42  1  0  0  0  0
 44 40  1  0  0  0  0
 46 38  1  0  0  0  0
 48 47  1  0  0  0  0
 49 50  1  0  0  0  0
 51 50  1  0  0  0  0
 53 55  2  0  0  0  0
 55 52  1  0  0  0  0
 55 54  1  0  0  0  0
M  END
>  <MODEL>
4

>  <REMARK>
 VINA RESULT:      -8.2      2.286      4.376
  Name = 
  12 active torsions:
  status: ('A' for Active; 'I' for Inactive)
    1  A    between atoms: C_1  and  C_3
    2  A    between atoms: C_1  and  C_25
    3  A    between atoms: C_4  and  C_27
    4  A    between atoms: C_5  and  C_45
    5  A    between atoms: C_6  and  C_28
    6  A    between atoms: C_6  and  C_48
    7  A    between atoms: C_13  and  C_19
    8  A    between atoms: C_13  and  C_31
    9  A    between atoms: C_17  and  C_22
   10  A    between atoms: C_25  and  C_48
   11  A    between atoms: C_34  and  C_39
   12  A    between atoms: C_39  and  C_47
                            x       y       z     vdW  Elec       q    Type
                         _______ _______ _______ _____ _____    ______ ____

>  <TORSDO>
F 12

$$$$
=
 OpenBabel11062421333D

 55 62  0  0  1  0  0  0  0  0999 V2000
  189.5560  172.8280  141.6350 C   0  0  1  0  0  3  0  0  0  0  0  0
  192.5190  171.8330  141.2590 C   0  0  0  0  0  0  0  0  0  0  0  0
  191.5340  172.6210  140.4660 C   0  0  2  0  0  3  0  0  0  0  0  0
  191.5010  174.0380  140.4840 O   0  0  0  0  0  0  0  0  0  0  0  0
  192.0300  170.8090  142.0080 C   0  0  0  0  0  3  0  0  0  0  0  0
  190.9640  173.3800  141.6070 C   0  0  1  0  0  3  0  0  0  0  0  0
  189.5670  171.5480  142.5270 C   0  0  0  0  0  2  0  0  0  0  0  0
  190.5440  170.4290  142.0700 C   0  0  0  0  0  2  0  0  0  0  0  0
  196.1160  169.9080  142.6630 C   0  0  0  0  0  2  0  0  0  0  0  0
  194.6990  171.2070  140.0710 C   0  0  0  0  0  0  0  0  0  0  0  0
  194.0070  172.0410  141.1230 C   0  0  2  0  0  3  0  0  0  0  0  0
  194.2910  171.1200  138.8250 C   0  0  0  0  0  3  0  0  0  0  0  0
  196.0450  170.5500  140.2450 C   0  0  2  0  0  3  0  0  0  0  0  0
  196.3350  170.0120  138.8490 C   0  0  0  0  0  2  0  0  0  0  0  0
  195.9550  169.4010  141.2340 C   0  0  0  0  0  2  0  0  0  0  0  0
  194.8630  170.6080  143.1740 C   0  0  0  0  0  2  0  0  0  0  0  0
  194.6660  171.9640  142.4960 C   0  0  1  0  0  3  0  0  0  0  0  0
  195.2020  170.4010  138.0810 O   0  0  0  0  0  0  0  0  0  0  0  0
  193.4230  173.3320  144.7830 C   0  0  0  0  0  3  0  0  0  0  0  0
  195.2650  173.2200  143.0730 C   0  0  0  0  0  0  0  0  0  0  0  0
  196.4710  173.8110  142.4400 C   0  0  0  0  0  0  0  0  0  0  0  0
  197.9260  175.7470  141.9410 C   0  0  0  0  0  1  0  0  0  0  0  0
  194.5460  175.9600  145.3870 C   0  0  0  0  0  3  0  0  0  0  0  0
  195.0730  175.2840  144.3600 C   0  0  1  0  0  3  0  0  0  0  0  0
  196.7920  175.1050  142.6520 C   0  0  0  0  0  0  0  0  0  0  0  0
  193.0610  174.1020  146.0290 C   0  0  0  0  0  3  0  0  0  0  0  0
  193.5520  175.3210  146.2790 C   0  0  0  0  0  3  0  0  0  0  0  0
  196.0550  175.8750  143.5630 O   0  0  0  0  0  0  0  0  0  0  0  0
  197.2880  173.0130  141.6320 O   0  0  0  0  0  1  0  0  0  0  0  0
  194.6330  173.9060  144.0660 C   0  0  0  0  0  0  0  0  0  0  0  0
  188.5080  173.8720  142.1160 C   0  0  0  0  0  0  0  0  0  0  0  0
  188.7030  174.1350  143.4520 F   0  0  0  0  0  0  0  0  0  0  0  0
  187.2270  173.3280  142.0230 F   0  0  0  0  0  0  0  0  0  0  0  0
  188.5750  175.1040  140.0250 F   0  0  0  0  0  0  0  0  0  0  0  0
  188.5500  175.2560  141.4010 C   0  0  1  0  0  3  0  0  0  0  0  0
  187.4150  176.2230  141.7640 C   0  0  0  0  0  2  0  0  0  0  0  0
  187.8450  177.2650  142.8060 C   0  0  0  0  0  2  0  0  0  0  0  0
  189.3270  175.9080  146.7290 C   0  0  2  0  0  3  0  0  0  0  0  0
  187.5720  176.7870  144.2410 C   0  0  2  0  0  3  0  0  0  0  0  0
  189.7470  176.9000  145.6300 C   0  0  2  0  0  3  0  0  0  0  0  0
  185.8480  176.6510  146.0330 O   0  0  0  0  0  0  0  0  0  0  0  0
  187.7860  177.5350  146.6540 C   0  0  1  0  0  3  0  0  0  0  0  0
  186.0720  176.7150  144.6440 C   0  0  1  0  0  3  0  0  0  0  0  0
  188.4240  177.5540  145.2760 C   0  0  2  0  0  3  0  0  0  0  0  0
  186.3850  177.7350  146.5730 O   0  0  0  0  0  0  0  0  0  0  0  0
  188.0890  176.3020  147.2640 O   0  0  0  0  0  0  0  0  0  0  0  0
  190.3600  175.8690  147.8560 C   0  0  0  0  0  2  0  0  0  0  0  0
  191.0520  177.0770  147.8880 O   0  0  0  0  0  1  0  0  0  0  0  0
  190.4990  176.2580  144.4540 C   0  0  0  0  0  2  0  0  0  0  0  0
  191.4410  177.2660  143.8080 C   0  0  0  0  0  2  0  0  0  0  0  0
  192.2070  176.5700  142.6820 C   0  0  0  0  0  1  0  0  0  0  0  0
  185.0100  177.5220  143.8710 C   0  0  0  0  0  2  0  0  0  0  0  0
  183.6910  179.0460  145.3530 O   0  0  0  0  0  1  0  0  0  0  0  0
  185.5530  179.8230  144.2540 O   0  0  0  0  0  0  0  0  0  0  0  0
  184.7580  178.8610  144.4730 C   0  0  0  0  0  0  0  0  0  0  0  0
  1 31  1  1  0  0  0
  1  7  1  0  0  0  0
  2  5  2  0  0  0  0
  3  4  1  6  0  0  0
  3  2  1  0  0  0  0
  3  6  1  0  0  0  0
  5  8  1  0  0  0  0
  6  4  1  6  0  0  0
  6  1  1  0  0  0  0
  8  7  1  0  0  0  0
  9 16  1  0  0  0  0
 10 13  1  0  0  0  0
 10 11  1  0  0  0  0
 11  2  1  1  0  0  0
 11 17  1  0  0  0  0
 12 10  2  0  0  0  0
 13 14  1  6  0  0  0
 13 15  1  0  0  0  0
 15  9  1  0  0  0  0
 17 20  1  6  0  0  0
 17 16  1  0  0  0  0
 18 12  1  0  0  0  0
 18 14  1  0  0  0  0
 19 26  2  0  0  0  0
 20 30  2  0  0  0  0
 21 25  2  0  0  0  0
 21 20  1  0  0  0  0
 22 25  1  0  0  0  0
 23 27  2  0  0  0  0
 24 23  1  1  0  0  0
 25 28  1  0  0  0  0
 26 27  1  0  0  0  0
 28 24  1  0  0  0  0
 29 21  1  0  0  0  0
 30 24  1  0  0  0  0
 30 19  1  0  0  0  0
 31 32  1  0  0  0  0
 33 31  1  0  0  0  0
 35 34  1  6  0  0  0
 35 36  1  0  0  0  0
 35 31  1  0  0  0  0
 36 37  1  0  0  0  0
 38 46  1  0  0  0  0
 38 47  1  1  0  0  0
 39 37  1  6  0  0  0
 39 43  1  0  0  0  0
 39 44  1  0  0  0  0
 40 49  1  6  0  0  0
 40 38  1  0  0  0  0
 41 45  1  0  0  0  0
 42 45  1  6  0  0  0
 42 46  1  0  0  0  0
 43 52  1  1  0  0  0
 43 41  1  0  0  0  0
 44 40  1  0  0  0  0
 44 42  1  0  0  0  0
 47 48  1  0  0  0  0
 50 49  1  0  0  0  0
 51 50  1  0  0  0  0
 52 55  1  0  0  0  0
 54 55  2  0  0  0  0
 55 53  1  0  0  0  0
M  END
>  <MODEL>
5

>  <REMARK>
 VINA RESULT:      -7.8      2.403      5.330
  Name = 
  12 active torsions:
  status: ('A' for Active; 'I' for Inactive)
    1  A    between atoms: C_1  and  C_3
    2  A    between atoms: C_1  and  C_25
    3  A    between atoms: C_4  and  C_27
    4  A    between atoms: C_5  and  C_45
    5  A    between atoms: C_6  and  C_28
    6  A    between atoms: C_6  and  C_48
    7  A    between atoms: C_13  and  C_19
    8  A    between atoms: C_13  and  C_31
    9  A    between atoms: C_17  and  C_22
   10  A    between atoms: C_25  and  C_48
   11  A    between atoms: C_34  and  C_39
   12  A    between atoms: C_39  and  C_47
                            x       y       z     vdW  Elec       q    Type
                         _______ _______ _______ _____ _____    ______ ____

>  <TORSDO>
F 12

$$$$
=
 OpenBabel11062421333D

 55 62  0  0  1  0  0  0  0  0999 V2000
  192.0330  175.4410  146.5630 C   0  0  1  0  0  3  0  0  0  0  0  0
  194.0290  174.3740  144.3740 C   0  0  0  0  0  0  0  0  0  0  0  0
  193.1850  173.7810  145.4490 C   0  0  2  0  0  3  0  0  0  0  0  0
  191.8840  173.2730  145.2030 O   0  0  0  0  0  0  0  0  0  0  0  0
  194.6020  175.5800  144.6340 C   0  0  0  0  0  3  0  0  0  0  0  0
  192.0150  174.6740  145.2590 C   0  0  1  0  0  3  0  0  0  0  0  0
  192.9700  176.6740  146.3730 C   0  0  0  0  0  2  0  0  0  0  0  0
  194.4300  176.3410  145.9560 C   0  0  0  0  0  2  0  0  0  0  0  0
  195.1440  175.3290  140.3170 C   0  0  0  0  0  2  0  0  0  0  0  0
  195.8500  173.4390  142.8360 C   0  0  0  0  0  0  0  0  0  0  0  0
  194.3770  173.6160  143.1180 C   0  0  2  0  0  3  0  0  0  0  0  0
  196.7090  172.9770  143.7160 C   0  0  0  0  0  3  0  0  0  0  0  0
  196.4830  173.5590  141.4730 C   0  0  2  0  0  3  0  0  0  0  0  0
  197.9170  173.1130  141.7320 C   0  0  0  0  0  2  0  0  0  0  0  0
  196.4680  175.0020  141.0010 C   0  0  0  0  0  2  0  0  0  0  0  0
  194.0080  175.5140  141.3150 C   0  0  0  0  0  2  0  0  0  0  0  0
  193.5920  174.1830  141.9390 C   0  0  1  0  0  3  0  0  0  0  0  0
  197.9410  172.8020  143.1210 O   0  0  0  0  0  0  0  0  0  0  0  0
  194.2850  171.7420  140.4520 C   0  0  0  0  0  3  0  0  0  0  0  0
  192.5270  173.3230  141.3100 C   0  0  0  0  0  0  0  0  0  0  0  0
  191.1060  173.7470  141.3910 C   0  0  0  0  0  0  0  0  0  0  0  0
  188.7930  173.7460  140.5150 C   0  0  0  0  0  1  0  0  0  0  0  0
  192.0670  170.5420  138.9800 C   0  0  0  0  0  3  0  0  0  0  0  0
  191.8130  171.6520  139.6810 C   0  0  1  0  0  3  0  0  0  0  0  0
  190.1930  173.2530  140.5270 C   0  0  0  0  0  0  0  0  0  0  0  0
  194.3860  170.3880  139.7940 C   0  0  0  0  0  3  0  0  0  0  0  0
  193.3770  169.8630  139.0900 C   0  0  0  0  0  3  0  0  0  0  0  0
  190.5530  172.2490  139.6170 O   0  0  0  0  0  0  0  0  0  0  0  0
  190.7100  174.6510  142.3820 O   0  0  0  0  0  1  0  0  0  0  0  0
  192.8560  172.2500  140.5380 C   0  0  0  0  0  0  0  0  0  0  0  0
  190.6120  175.8510  147.0430 C   0  0  0  0  0  0  0  0  0  0  0  0
  190.6720  177.0800  147.6560 F   0  0  0  0  0  0  0  0  0  0  0  0
  190.1740  174.9610  148.0240 F   0  0  0  0  0  0  0  0  0  0  0  0
  188.6980  174.8810  145.9060 F   0  0  0  0  0  0  0  0  0  0  0  0
  189.5310  175.9860  145.9280 C   0  0  1  0  0  3  0  0  0  0  0  0
  188.6620  177.2500  145.9990 C   0  0  0  0  0  2  0  0  0  0  0  0
  187.1630  176.9340  145.9240 C   0  0  0  0  0  2  0  0  0  0  0  0
  186.0860  178.1570  141.8270 C   0  0  2  0  0  3  0  0  0  0  0  0
  186.4240  177.8840  144.9670 C   0  0  2  0  0  3  0  0  0  0  0  0
  186.3360  176.8500  142.6020 C   0  0  2  0  0  3  0  0  0  0  0  0
  184.6430  179.6170  144.8150 O   0  0  0  0  0  0  0  0  0  0  0  0
  184.4630  177.9500  143.3610 C   0  0  1  0  0  3  0  0  0  0  0  0
  185.5960  179.0070  145.6520 C   0  0  1  0  0  3  0  0  0  0  0  0
  185.6080  177.1140  143.9060 C   0  0  2  0  0  3  0  0  0  0  0  0
  183.8160  178.6700  144.3970 O   0  0  0  0  0  0  0  0  0  0  0  0
  184.9800  178.8220  142.3830 O   0  0  0  0  0  0  0  0  0  0  0  0
  185.8000  177.8730  140.3520 C   0  0  0  0  0  2  0  0  0  0  0  0
  184.4390  178.0370  140.1070 O   0  0  0  0  0  1  0  0  0  0  0  0
  187.8200  176.4730  142.7400 C   0  0  0  0  0  2  0  0  0  0  0  0
  188.6970  177.4820  142.0120 C   0  0  0  0  0  2  0  0  0  0  0  0
  189.9750  177.6970  142.8230 C   0  0  0  0  0  1  0  0  0  0  0  0
  185.1480  178.8690  147.1210 C   0  0  0  0  0  2  0  0  0  0  0  0
  186.9960  178.5800  148.7820 O   0  0  0  0  0  1  0  0  0  0  0  0
  186.2760  180.6830  148.2030 O   0  0  0  0  0  0  0  0  0  0  0  0
  186.1430  179.4300  148.0780 C   0  0  0  0  0  0  0  0  0  0  0  0
  1 31  1  6  0  0  0
  2  5  2  0  0  0  0
  3  2  1  6  0  0  0
  4  3  1  0  0  0  0
  5  8  1  0  0  0  0
  6  4  1  1  0  0  0
  6  3  1  0  0  0  0
  6  1  1  0  0  0  0
  7  1  1  0  0  0  0
  8  7  1  0  0  0  0
  9 15  1  0  0  0  0
  9 16  1  0  0  0  0
 10 11  1  0  0  0  0
 10 12  2  0  0  0  0
 11  2  1  1  0  0  0
 13 15  1  1  0  0  0
 13 14  1  0  0  0  0
 13 10  1  0  0  0  0
 14 18  1  0  0  0  0
 16 17  1  0  0  0  0
 17 20  1  6  0  0  0
 17 11  1  0  0  0  0
 18 12  1  0  0  0  0
 19 30  1  0  0  0  0
 20 21  1  0  0  0  0
 21 29  1  0  0  0  0
 22 25  1  0  0  0  0
 23 27  2  0  0  0  0
 24 23  1  1  0  0  0
 24 30  1  0  0  0  0
 25 21  2  0  0  0  0
 26 19  2  0  0  0  0
 27 26  1  0  0  0  0
 28 24  1  0  0  0  0
 28 25  1  0  0  0  0
 30 20  2  0  0  0  0
 31 32  1  0  0  0  0
 31 33  1  0  0  0  0
 35 34  1  1  0  0  0
 35 36  1  0  0  0  0
 35 31  1  0  0  0  0
 37 36  1  0  0  0  0
 38 47  1  6  0  0  0
 38 46  1  0  0  0  0
 38 40  1  0  0  0  0
 39 43  1  0  0  0  0
 39 37  1  1  0  0  0
 40 49  1  1  0  0  0
 40 44  1  0  0  0  0
 41 43  1  0  0  0  0
 42 46  1  6  0  0  0
 42 44  1  0  0  0  0
 42 45  1  0  0  0  0
 43 52  1  1  0  0  0
 44 39  1  0  0  0  0
 45 41  1  0  0  0  0
 48 47  1  0  0  0  0
 50 49  1  0  0  0  0
 50 51  1  0  0  0  0
 52 55  1  0  0  0  0
 55 54  2  0  0  0  0
 55 53  1  0  0  0  0
M  END
>  <MODEL>
6

>  <REMARK>
 VINA RESULT:      -7.8      1.697      2.886
  Name = 
  12 active torsions:
  status: ('A' for Active; 'I' for Inactive)
    1  A    between atoms: C_1  and  C_3
    2  A    between atoms: C_1  and  C_25
    3  A    between atoms: C_4  and  C_27
    4  A    between atoms: C_5  and  C_45
    5  A    between atoms: C_6  and  C_28
    6  A    between atoms: C_6  and  C_48
    7  A    between atoms: C_13  and  C_19
    8  A    between atoms: C_13  and  C_31
    9  A    between atoms: C_17  and  C_22
   10  A    between atoms: C_25  and  C_48
   11  A    between atoms: C_34  and  C_39
   12  A    between atoms: C_39  and  C_47
                            x       y       z     vdW  Elec       q    Type
                         _______ _______ _______ _____ _____    ______ ____

>  <TORSDO>
F 12

$$$$
=
 OpenBabel11062421333D

 55 62  0  0  1  0  0  0  0  0999 V2000
  192.0270  175.5940  145.4880 C   0  0  1  0  0  3  0  0  0  0  0  0
  193.8110  173.7280  143.6870 C   0  0  0  0  0  0  0  0  0  0  0  0
  193.9220  174.3590  145.0310 C   0  0  2  0  0  3  0  0  0  0  0  0
  193.5660  173.6800  146.2240 O   0  0  0  0  0  0  0  0  0  0  0  0
  193.1850  174.4460  142.7170 C   0  0  0  0  0  3  0  0  0  0  0  0
  192.5060  174.1600  145.4300 C   0  0  1  0  0  3  0  0  0  0  0  0
  191.5400  175.9880  144.0590 C   0  0  0  0  0  2  0  0  0  0  0  0
  192.6040  175.8510  142.9340 C   0  0  0  0  0  2  0  0  0  0  0  0
  196.9100  171.2650  145.4030 C   0  0  0  0  0  2  0  0  0  0  0  0
  193.9760  171.2000  144.0620 C   0  0  0  0  0  0  0  0  0  0  0  0
  194.4980  172.4270  143.3530 C   0  0  2  0  0  3  0  0  0  0  0  0
  192.7050  170.8680  144.1030 C   0  0  0  0  0  3  0  0  0  0  0  0
  194.8400  170.0980  144.6190 C   0  0  2  0  0  3  0  0  0  0  0  0
  193.8140  169.0540  145.0450 C   0  0  0  0  0  2  0  0  0  0  0  0
  195.6140  170.5850  145.8310 C   0  0  0  0  0  2  0  0  0  0  0  0
  196.6740  172.6600  144.8380 C   0  0  0  0  0  2  0  0  0  0  0  0
  196.0100  172.5990  143.4630 C   0  0  1  0  0  3  0  0  0  0  0  0
  192.5610  169.6340  144.7000 O   0  0  0  0  0  0  0  0  0  0  0  0
  196.6900  175.0310  141.9550 C   0  0  0  0  0  3  0  0  0  0  0  0
  196.8300  172.5320  142.2010 C   0  0  0  0  0  0  0  0  0  0  0  0
  197.2540  171.2090  141.6770 C   0  0  0  0  0  0  0  0  0  0  0  0
  197.9380  169.7370  139.8100 C   0  0  0  0  0  1  0  0  0  0  0  0
  197.8950  174.5460  139.3400 C   0  0  0  0  0  3  0  0  0  0  0  0
  197.5680  173.4790  140.0760 C   0  0  1  0  0  3  0  0  0  0  0  0
  197.6210  171.0690  140.3850 C   0  0  0  0  0  0  0  0  0  0  0  0
  197.2880  176.1360  141.1200 C   0  0  0  0  0  3  0  0  0  0  0  0
  197.8040  175.9100  139.9070 C   0  0  0  0  0  3  0  0  0  0  0  0
  197.7160  172.1930  139.5520 O   0  0  0  0  0  0  0  0  0  0  0  0
  197.2880  170.1040  142.5350 O   0  0  0  0  0  1  0  0  0  0  0  0
  197.0580  173.6460  141.4520 C   0  0  0  0  0  0  0  0  0  0  0  0
  190.9300  175.8210  146.5670 C   0  0  0  0  0  0  0  0  0  0  0  0
  190.9610  177.1310  146.9820 F   0  0  0  0  0  0  0  0  0  0  0  0
  191.2200  175.0600  147.6990 F   0  0  0  0  0  0  0  0  0  0  0  0
  188.8230  174.6840  146.9750 F   0  0  0  0  0  0  0  0  0  0  0  0
  189.4630  175.5560  146.1100 C   0  0  1  0  0  3  0  0  0  0  0  0
  188.5870  176.8050  145.9410 C   0  0  0  0  0  2  0  0  0  0  0  0
  187.1580  176.4620  145.5000 C   0  0  0  0  0  2  0  0  0  0  0  0
  186.7820  177.8010  141.3160 C   0  0  2  0  0  3  0  0  0  0  0  0
  186.6230  177.4640  144.4640 C   0  0  2  0  0  3  0  0  0  0  0  0
  186.8460  176.4710  142.0890 C   0  0  2  0  0  3  0  0  0  0  0  0
  184.9730  179.2900  144.0820 O   0  0  0  0  0  0  0  0  0  0  0  0
  184.9350  177.6570  142.5800 C   0  0  1  0  0  3  0  0  0  0  0  0
  185.7550  178.6180  145.0410 C   0  0  1  0  0  3  0  0  0  0  0  0
  185.9410  176.7530  143.2740 C   0  0  2  0  0  3  0  0  0  0  0  0
  184.1740  178.3930  143.5220 O   0  0  0  0  0  0  0  0  0  0  0  0
  185.6380  178.5150  141.7130 O   0  0  0  0  0  0  0  0  0  0  0  0
  186.7100  177.5550  139.8080 C   0  0  0  0  0  2  0  0  0  0  0  0
  185.3960  177.2640  139.4510 O   0  0  0  0  0  1  0  0  0  0  0  0
  188.2700  176.0150  142.4430 C   0  0  0  0  0  2  0  0  0  0  0  0
  188.4040  174.5070  142.2800 C   0  0  0  0  0  2  0  0  0  0  0  0
  189.4920  174.2190  141.2460 C   0  0  0  0  0  1  0  0  0  0  0  0
  185.0830  178.4820  146.4210 C   0  0  0  0  0  2  0  0  0  0  0  0
  186.0750  180.3670  147.7320 O   0  0  0  0  0  0  0  0  0  0  0  0
  186.4840  178.1890  148.3400 O   0  0  0  0  0  1  0  0  0  0  0  0
  185.9380  178.9930  147.5280 C   0  0  0  0  0  0  0  0  0  0  0  0
  1 31  1  1  0  0  0
  3  2  1  6  0  0  0
  3  6  1  0  0  0  0
  3  4  1  0  0  0  0
  5  8  1  0  0  0  0
  5  2  2  0  0  0  0
  6  1  1  0  0  0  0
  6  4  1  1  0  0  0
  7  1  1  0  0  0  0
  8  7  1  0  0  0  0
  9 15  1  0  0  0  0
 10 12  2  0  0  0  0
 10 13  1  0  0  0  0
 11 17  1  0  0  0  0
 11  2  1  1  0  0  0
 11 10  1  0  0  0  0
 12 18  1  0  0  0  0
 13 14  1  1  0  0  0
 13 15  1  0  0  0  0
 16  9  1  0  0  0  0
 17 20  1  6  0  0  0
 17 16  1  0  0  0  0
 18 14  1  0  0  0  0
 21 20  1  0  0  0  0
 21 29  1  0  0  0  0
 22 25  1  0  0  0  0
 23 27  2  0  0  0  0
 24 23  1  1  0  0  0
 24 30  1  0  0  0  0
 25 21  2  0  0  0  0
 26 19  2  0  0  0  0
 27 26  1  0  0  0  0
 28 24  1  0  0  0  0
 28 25  1  0  0  0  0
 30 19  1  0  0  0  0
 30 20  2  0  0  0  0
 31 32  1  0  0  0  0
 31 33  1  0  0  0  0
 35 31  1  0  0  0  0
 35 34  1  1  0  0  0
 36 35  1  0  0  0  0
 37 36  1  0  0  0  0
 38 47  1  6  0  0  0
 38 46  1  0  0  0  0
 38 40  1  0  0  0  0
 39 43  1  0  0  0  0
 39 37  1  1  0  0  0
 40 49  1  1  0  0  0
 40 44  1  0  0  0  0
 41 43  1  0  0  0  0
 42 46  1  6  0  0  0
 42 44  1  0  0  0  0
 42 45  1  0  0  0  0
 43 52  1  1  0  0  0
 44 39  1  0  0  0  0
 45 41  1  0  0  0  0
 48 47  1  0  0  0  0
 50 49  1  0  0  0  0
 51 50  1  0  0  0  0
 52 55  1  0  0  0  0
 55 53  2  0  0  0  0
 55 54  1  0  0  0  0
M  END
>  <MODEL>
7

>  <REMARK>
 VINA RESULT:      -7.6      1.942      3.440
  Name = 
  12 active torsions:
  status: ('A' for Active; 'I' for Inactive)
    1  A    between atoms: C_1  and  C_3
    2  A    between atoms: C_1  and  C_25
    3  A    between atoms: C_4  and  C_27
    4  A    between atoms: C_5  and  C_45
    5  A    between atoms: C_6  and  C_28
    6  A    between atoms: C_6  and  C_48
    7  A    between atoms: C_13  and  C_19
    8  A    between atoms: C_13  and  C_31
    9  A    between atoms: C_17  and  C_22
   10  A    between atoms: C_25  and  C_48
   11  A    between atoms: C_34  and  C_39
   12  A    between atoms: C_39  and  C_47
                            x       y       z     vdW  Elec       q    Type
                         _______ _______ _______ _____ _____    ______ ____

>  <TORSDO>
F 12

$$$$
=
 OpenBabel11062421333D

 55 62  0  0  1  0  0  0  0  0999 V2000
  189.4660  172.3260  141.8500 C   0  0  1  0  0  3  0  0  0  0  0  0
  192.3870  172.0110  142.9800 C   0  0  0  0  0  0  0  0  0  0  0  0
  191.6630  171.6290  141.7360 C   0  0  2  0  0  3  0  0  0  0  0  0
  191.6830  172.4310  140.5660 O   0  0  0  0  0  0  0  0  0  0  0  0
  191.6870  171.9540  144.1440 C   0  0  0  0  0  3  0  0  0  0  0  0
  190.8580  172.8710  141.6190 C   0  0  1  0  0  3  0  0  0  0  0  0
  189.2040  172.3320  143.3880 C   0  0  0  0  0  2  0  0  0  0  0  0
  190.2180  171.5170  144.2380 C   0  0  0  0  0  2  0  0  0  0  0  0
  195.8110  170.8020  145.3100 C   0  0  0  0  0  2  0  0  0  0  0  0
  194.7430  171.2700  142.3020 C   0  0  0  0  0  0  0  0  0  0  0  0
  193.8690  172.2910  142.9910 C   0  0  2  0  0  3  0  0  0  0  0  0
  194.5270  170.8310  141.0820 C   0  0  0  0  0  3  0  0  0  0  0  0
  196.0730  170.7870  142.8210 C   0  0  2  0  0  3  0  0  0  0  0  0
  196.5880  169.9290  141.6720 C   0  0  0  0  0  2  0  0  0  0  0  0
  195.8840  169.9310  144.0610 C   0  0  0  0  0  2  0  0  0  0  0  0
  194.4700  171.5110  145.4450 C   0  0  0  0  0  2  0  0  0  0  0  0
  194.3210  172.6250  144.4090 C   0  0  1  0  0  3  0  0  0  0  0  0
  195.5660  170.0170  140.6850 O   0  0  0  0  0  0  0  0  0  0  0  0
  192.8220  174.3600  146.2500 C   0  0  0  0  0  3  0  0  0  0  0  0
  194.7770  174.0300  144.7020 C   0  0  0  0  0  0  0  0  0  0  0  0
  195.9720  174.5700  144.0050 C   0  0  0  0  0  0  0  0  0  0  0  0
  197.2970  176.4680  143.1330 C   0  0  0  0  0  1  0  0  0  0  0  0
  193.6870  177.1490  146.2720 C   0  0  0  0  0  3  0  0  0  0  0  0
  194.3350  176.3080  145.4580 C   0  0  1  0  0  3  0  0  0  0  0  0
  196.1740  175.9020  143.9220 C   0  0  0  0  0  0  0  0  0  0  0  0
  192.3160  175.3580  147.2620 C   0  0  0  0  0  3  0  0  0  0  0  0
  192.6900  176.6430  147.2410 C   0  0  0  0  0  3  0  0  0  0  0  0
  195.3180  176.7890  144.5910 O   0  0  0  0  0  0  0  0  0  0  0  0
  196.9030  173.6880  143.4460 O   0  0  0  0  0  1  0  0  0  0  0  0
  194.0270  174.8640  145.4750 C   0  0  0  0  0  0  0  0  0  0  0  0
  188.3740  173.1050  141.0630 C   0  0  0  0  0  0  0  0  0  0  0  0
  187.2210  173.1570  141.8100 F   0  0  0  0  0  0  0  0  0  0  0  0
  188.0410  172.4040  139.9040 F   0  0  0  0  0  0  0  0  0  0  0  0
  188.4680  174.8470  139.3730 F   0  0  0  0  0  0  0  0  0  0  0  0
  188.7170  174.5840  140.7100 C   0  0  1  0  0  3  0  0  0  0  0  0
  188.0040  175.6480  141.5570 C   0  0  0  0  0  2  0  0  0  0  0  0
  187.9820  175.2900  143.0480 C   0  0  0  0  0  2  0  0  0  0  0  0
  186.2570  178.4960  145.5360 C   0  0  2  0  0  3  0  0  0  0  0  0
  188.1640  176.5310  143.9380 C   0  0  2  0  0  3  0  0  0  0  0  0
  185.9750  177.0150  145.2220 C   0  0  2  0  0  3  0  0  0  0  0  0
  189.8130  177.8460  145.2610 O   0  0  0  0  0  0  0  0  0  0  0  0
  187.9620  177.2880  146.3500 C   0  0  1  0  0  3  0  0  0  0  0  0
  189.6360  176.9730  144.1700 C   0  0  1  0  0  3  0  0  0  0  0  0
  187.3680  176.4160  145.2570 C   0  0  2  0  0  3  0  0  0  0  0  0
  189.3780  177.2210  146.3450 O   0  0  0  0  0  0  0  0  0  0  0  0
  187.5150  178.6080  146.1530 O   0  0  0  0  0  0  0  0  0  0  0  0
  185.1950  179.0690  146.4740 C   0  0  0  0  0  2  0  0  0  0  0  0
  184.6510  178.0390  147.2380 O   0  0  0  0  0  1  0  0  0  0  0  0
  185.1920  176.7850  143.9200 C   0  0  0  0  0  2  0  0  0  0  0  0
  184.8740  178.1130  143.2460 C   0  0  0  0  0  2  0  0  0  0  0  0
  185.1500  177.9820  141.7470 C   0  0  0  0  0  1  0  0  0  0  0  0
  190.7970  175.9820  143.9610 C   0  0  0  0  0  2  0  0  0  0  0  0
  192.6370  175.6020  142.3090 O   0  0  0  0  0  0  0  0  0  0  0  0
  191.9090  177.7330  142.7640 O   0  0  0  0  0  1  0  0  0  0  0  0
  191.8210  176.4930  143.0070 C   0  0  0  0  0  0  0  0  0  0  0  0
  1 31  1  6  0  0  0
  1  7  1  0  0  0  0
  2  5  2  0  0  0  0
  3  4  1  6  0  0  0
  3  2  1  0  0  0  0
  5  8  1  0  0  0  0
  6  4  1  6  0  0  0
  6  3  1  0  0  0  0
  6  1  1  0  0  0  0
  7  8  1  0  0  0  0
  9 16  1  0  0  0  0
 10 13  1  0  0  0  0
 10 11  1  0  0  0  0
 11  2  1  1  0  0  0
 11 17  1  0  0  0  0
 12 10  2  0  0  0  0
 13 14  1  6  0  0  0
 13 15  1  0  0  0  0
 15  9  1  0  0  0  0
 17 20  1  6  0  0  0
 17 16  1  0  0  0  0
 18 12  1  0  0  0  0
 18 14  1  0  0  0  0
 19 26  2  0  0  0  0
 20 30  2  0  0  0  0
 21 20  1  0  0  0  0
 22 25  1  0  0  0  0
 23 27  2  0  0  0  0
 24 30  1  0  0  0  0
 24 23  1  1  0  0  0
 25 21  2  0  0  0  0
 25 28  1  0  0  0  0
 27 26  1  0  0  0  0
 28 24  1  0  0  0  0
 29 21  1  0  0  0  0
 30 19  1  0  0  0  0
 31 32  1  0  0  0  0
 33 31  1  0  0  0  0
 35 34  1  6  0  0  0
 35 31  1  0  0  0  0
 35 36  1  0  0  0  0
 36 37  1  0  0  0  0
 38 46  1  0  0  0  0
 38 47  1  1  0  0  0
 39 37  1  1  0  0  0
 39 43  1  0  0  0  0
 39 44  1  0  0  0  0
 40 49  1  6  0  0  0
 40 44  1  0  0  0  0
 40 38  1  0  0  0  0
 41 45  1  0  0  0  0
 42 46  1  6  0  0  0
 43 52  1  1  0  0  0
 43 41  1  0  0  0  0
 44 42  1  0  0  0  0
 45 42  1  0  0  0  0
 47 48  1  0  0  0  0
 50 49  1  0  0  0  0
 51 50  1  0  0  0  0
 53 55  2  0  0  0  0
 54 55  1  0  0  0  0
 55 52  1  0  0  0  0
M  END
>  <MODEL>
8

>  <REMARK>
 VINA RESULT:      -7.5      2.787      5.853
  Name = 
  12 active torsions:
  status: ('A' for Active; 'I' for Inactive)
    1  A    between atoms: C_1  and  C_3
    2  A    between atoms: C_1  and  C_25
    3  A    between atoms: C_4  and  C_27
    4  A    between atoms: C_5  and  C_45
    5  A    between atoms: C_6  and  C_28
    6  A    between atoms: C_6  and  C_48
    7  A    between atoms: C_13  and  C_19
    8  A    between atoms: C_13  and  C_31
    9  A    between atoms: C_17  and  C_22
   10  A    between atoms: C_25  and  C_48
   11  A    between atoms: C_34  and  C_39
   12  A    between atoms: C_39  and  C_47
                            x       y       z     vdW  Elec       q    Type
                         _______ _______ _______ _____ _____    ______ ____

>  <TORSDO>
F 12

$$$$
=
 OpenBabel11062421333D

 55 62  0  0  1  0  0  0  0  0999 V2000
  190.1350  174.5280  145.6180 C   0  0  1  0  0  3  0  0  0  0  0  0
  192.3040  173.6870  143.4980 C   0  0  0  0  0  0  0  0  0  0  0  0
  191.7590  174.9640  144.0390 C   0  0  2  0  0  3  0  0  0  0  0  0
  192.3750  175.6640  145.1060 O   0  0  0  0  0  0  0  0  0  0  0  0
  191.4290  172.6570  143.3470 C   0  0  0  0  0  3  0  0  0  0  0  0
  191.6380  174.5140  145.4480 C   0  0  1  0  0  3  0  0  0  0  0  0
  189.5930  173.1400  145.1570 C   0  0  0  0  0  2  0  0  0  0  0  0
  189.9360  172.7460  143.6930 C   0  0  0  0  0  2  0  0  0  0  0  0
  195.5940  176.3600  142.6930 C   0  0  0  0  0  2  0  0  0  0  0  0
  194.8040  173.5310  144.0300 C   0  0  0  0  0  0  0  0  0  0  0  0
  193.7170  173.5730  142.9830 C   0  0  2  0  0  3  0  0  0  0  0  0
  194.7910  172.7150  145.0600 C   0  0  0  0  0  3  0  0  0  0  0  0
  196.1260  174.2470  143.9240 C   0  0  2  0  0  3  0  0  0  0  0  0
  196.8870  173.7210  145.1350 C   0  0  0  0  0  2  0  0  0  0  0  0
  195.9330  175.7480  144.0480 C   0  0  0  0  0  2  0  0  0  0  0  0
  194.1540  176.0840  142.2770 C   0  0  0  0  0  2  0  0  0  0  0  0
  193.9550  174.6170  141.8970 C   0  0  1  0  0  3  0  0  0  0  0  0
  195.9780  172.8170  145.7540 O   0  0  0  0  0  0  0  0  0  0  0  0
  196.6360  173.9550  140.8840 C   0  0  0  0  0  3  0  0  0  0  0  0
  194.1600  174.1430  140.4810 C   0  0  0  0  0  0  0  0  0  0  0  0
  192.9960  174.0640  139.5630 C   0  0  0  0  0  0  0  0  0  0  0  0
  192.0280  174.0800  137.2870 C   0  0  0  0  0  1  0  0  0  0  0  0
  196.7710  173.5010  138.0020 C   0  0  0  0  0  3  0  0  0  0  0  0
  195.5770  173.8010  138.5240 C   0  0  1  0  0  3  0  0  0  0  0  0
  193.1780  174.0430  138.2250 C   0  0  0  0  0  0  0  0  0  0  0  0
  197.8690  173.4140  140.2050 C   0  0  0  0  0  3  0  0  0  0  0  0
  197.9350  173.2450  138.8800 C   0  0  0  0  0  3  0  0  0  0  0  0
  194.4720  173.9800  137.6900 O   0  0  0  0  0  0  0  0  0  0  0  0
  191.7020  173.9940  140.0920 O   0  0  0  0  0  1  0  0  0  0  0  0
  195.4110  173.9340  139.9850 C   0  0  0  0  0  0  0  0  0  0  0  0
  189.6940  174.8800  147.0680 C   0  0  0  0  0  0  0  0  0  0  0  0
  190.8030  174.9570  147.8780 F   0  0  0  0  0  0  0  0  0  0  0  0
  188.9190  173.8440  147.5880 F   0  0  0  0  0  0  0  0  0  0  0  0
  189.8470  177.2890  147.3380 F   0  0  0  0  0  0  0  0  0  0  0  0
  188.9500  176.2390  147.2410 C   0  0  1  0  0  3  0  0  0  0  0  0
  187.9250  176.5750  146.1480 C   0  0  0  0  0  2  0  0  0  0  0  0
  188.0440  178.0240  145.6590 C   0  0  0  0  0  2  0  0  0  0  0  0
  185.8990  178.4880  141.8360 C   0  0  2  0  0  3  0  0  0  0  0  0
  186.7990  178.4680  144.8750 C   0  0  2  0  0  3  0  0  0  0  0  0
  186.8730  177.4890  142.4850 C   0  0  2  0  0  3  0  0  0  0  0  0
  184.3960  179.0890  145.0790 O   0  0  0  0  0  0  0  0  0  0  0  0
  184.8410  177.5290  143.5650 C   0  0  1  0  0  3  0  0  0  0  0  0
  185.6400  179.0440  145.7370 C   0  0  1  0  0  3  0  0  0  0  0  0
  186.3170  177.3780  143.8920 C   0  0  2  0  0  3  0  0  0  0  0  0
  184.0890  177.8500  144.7230 O   0  0  0  0  0  0  0  0  0  0  0  0
  184.7080  178.5280  142.5810 O   0  0  0  0  0  0  0  0  0  0  0  0
  185.5690  178.0780  140.4000 C   0  0  0  0  0  2  0  0  0  0  0  0
  186.6910  177.4900  139.8200 O   0  0  0  0  0  1  0  0  0  0  0  0
  188.3510  177.8990  142.3920 C   0  0  0  0  0  2  0  0  0  0  0  0
  189.2480  176.6680  142.3970 C   0  0  0  0  0  2  0  0  0  0  0  0
  188.4590  175.4840  141.8350 C   0  0  0  0  0  1  0  0  0  0  0  0
  185.5470  178.7260  147.2420 C   0  0  0  0  0  2  0  0  0  0  0  0
  187.3930  179.0610  148.8970 O   0  0  0  0  0  1  0  0  0  0  0  0
  186.3210  180.8700  147.9720 O   0  0  0  0  0  0  0  0  0  0  0  0
  186.4130  179.6110  148.0700 C   0  0  0  0  0  0  0  0  0  0  0  0
  1 31  1  1  0  0  0
  3  2  1  6  0  0  0
  3  4  1  0  0  0  0
  3  6  1  0  0  0  0
  5  2  2  0  0  0  0
  5  8  1  0  0  0  0
  6  4  1  1  0  0  0
  6  1  1  0  0  0  0
  7  1  1  0  0  0  0
  8  7  1  0  0  0  0
  9 15  1  0  0  0  0
 10 12  2  0  0  0  0
 11  2  1  1  0  0  0
 11 10  1  0  0  0  0
 12 18  1  0  0  0  0
 13 10  1  0  0  0  0
 13 15  1  1  0  0  0
 13 14  1  0  0  0  0
 14 18  1  0  0  0  0
 16  9  1  0  0  0  0
 17 20  1  1  0  0  0
 17 16  1  0  0  0  0
 17 11  1  0  0  0  0
 21 29  1  0  0  0  0
 21 20  1  0  0  0  0
 22 25  1  0  0  0  0
 23 27  2  0  0  0  0
 24 23  1  1  0  0  0
 24 30  1  0  0  0  0
 25 21  2  0  0  0  0
 26 19  2  0  0  0  0
 27 26  1  0  0  0  0
 28 25  1  0  0  0  0
 28 24  1  0  0  0  0
 30 20  2  0  0  0  0
 30 19  1  0  0  0  0
 31 35  1  0  0  0  0
 31 33  1  0  0  0  0
 31 32  1  0  0  0  0
 35 34  1  6  0  0  0
 36 35  1  0  0  0  0
 37 36  1  0  0  0  0
 38 47  1  6  0  0  0
 38 40  1  0  0  0  0
 38 46  1  0  0  0  0
 39 37  1  1  0  0  0
 39 43  1  0  0  0  0
 40 49  1  1  0  0  0
 40 44  1  0  0  0  0
 41 43  1  0  0  0  0
 42 46  1  6  0  0  0
 42 44  1  0  0  0  0
 42 45  1  0  0  0  0
 43 52  1  1  0  0  0
 44 39  1  0  0  0  0
 45 41  1  0  0  0  0
 48 47  1  0  0  0  0
 49 50  1  0  0  0  0
 51 50  1  0  0  0  0
 52 55  1  0  0  0  0
 54 55  2  0  0  0  0
 55 53  1  0  0  0  0
M  END
>  <MODEL>
9

>  <REMARK>
 VINA RESULT:      -7.5      1.311      2.351
  Name = 
  12 active torsions:
  status: ('A' for Active; 'I' for Inactive)
    1  A    between atoms: C_1  and  C_3
    2  A    between atoms: C_1  and  C_25
    3  A    between atoms: C_4  and  C_27
    4  A    between atoms: C_5  and  C_45
    5  A    between atoms: C_6  and  C_28
    6  A    between atoms: C_6  and  C_48
    7  A    between atoms: C_13  and  C_19
    8  A    between atoms: C_13  and  C_31
    9  A    between atoms: C_17  and  C_22
   10  A    between atoms: C_25  and  C_48
   11  A    between atoms: C_34  and  C_39
   12  A    between atoms: C_39  and  C_47
                            x       y       z     vdW  Elec       q    Type
                         _______ _______ _______ _____ _____    ______ ____

>  <TORSDO>
F 12

$$$$
