=
 OpenBabel11062420023D

 42 47  0  0  1  0  0  0  0  0999 V2000
  192.4850  171.0430  144.3520 C   0  0  0  0  0  1  0  0  0  0  0  0
  190.2210  173.6760  138.2730 C   0  0  0  0  0  2  0  0  0  0  0  0
  193.8210  171.2660  139.8890 C   0  0  2  0  0  3  0  0  0  0  0  0
  193.0920  171.5920  138.7040 O   0  0  0  0  0  0  0  0  0  0  0  0
  193.4670  169.9230  140.3340 N   0  0  0  0  0  1  0  0  0  0  0  0
  193.5330  172.3000  140.9930 C   0  0  1  0  0  3  0  0  0  0  0  0
  190.2540  173.5800  139.8040 C   0  0  2  0  0  3  0  0  0  0  0  0
  191.8560  172.2330  138.7920 C   0  0  0  0  0  0  0  0  0  0  0  0
  192.0260  172.3870  141.2550 C   0  0  0  0  0  0  0  0  0  0  0  0
  192.4610  172.4260  143.7170 C   0  0  0  0  0  0  0  0  0  0  0  0
  190.1700  172.2850  142.7370 O   0  0  0  0  0  1  0  0  0  0  0  0
  191.5440  172.3910  142.5150 C   0  0  0  0  0  0  0  0  0  0  0  0
  191.0870  172.3220  140.0620 C   0  0  1  0  0  3  0  0  0  0  0  0
  193.8990  172.8100  143.3240 C   0  0  1  0  0  3  0  0  0  0  0  0
  191.9240  173.4000  144.7570 C   0  0  0  0  0  1  0  0  0  0  0  0
  194.3320  171.9960  142.1870 N   0  0  0  0  0  2  0  0  0  0  0  0
  191.3840  172.9360  137.8230 N   0  0  0  0  0  0  0  0  0  0  0  0
  188.8300  173.4260  140.3420 C   0  0  1  0  0  3  0  0  0  0  0  0
  188.4310  174.4770  141.3900 C   0  0  2  0  0  3  0  0  0  0  0  0
  187.9750  174.6240  139.9540 C   0  0  0  0  0  2  0  0  0  0  0  0
  190.1900  177.4650  142.5640 O   0  0  0  0  0  0  0  0  0  0  0  0
  189.2640  176.6180  142.4530 C   0  0  0  0  0  0  0  0  0  0  0  0
  189.4860  175.4460  141.6590 N   0  0  0  0  0  2  0  0  0  0  0  0
  187.9410  176.8490  143.1260 C   0  0  1  0  0  3  0  0  0  0  0  0
  188.5910  175.6240  146.4610 C   0  0  0  0  0  0  0  0  0  0  0  0
  189.3540  174.7580  147.4060 C   0  0  0  0  0  1  0  0  0  0  0  0
  187.1750  177.1400  145.6740 C   0  0  2  0  0  3  0  0  0  0  0  0
  187.6950  176.4700  146.8570 N   0  0  0  0  0  0  0  0  0  0  0  0
  185.6960  176.8290  145.5320 C   0  0  0  0  0  1  0  0  0  0  0  0
  187.9650  176.4730  144.5860 C   0  0  0  0  0  0  0  0  0  0  0  0
  188.7950  175.5990  145.0560 N   0  0  0  0  0  0  0  0  0  0  0  0
  186.6540  178.1370  141.8510 C   0  0  0  0  0  1  0  0  0  0  0  0
  187.5320  178.1770  142.9450 O   0  0  0  0  0  0  0  0  0  0  0  0
  194.0190  174.2420  143.0050 N   0  0  0  0  0  2  0  0  0  0  0  0
  194.8540  176.3160  144.0260 C   0  0  0  0  0  1  0  0  0  0  0  0
  196.3460  174.8560  142.6620 C   0  0  0  0  0  2  0  0  0  0  0  0
  196.8230  173.9430  145.3140 C   0  0  0  0  0  0  0  0  0  0  0  0
  195.1760  174.8660  143.6650 C   0  0  2  0  0  0  0  0  0  0  0  0
  197.1100  173.1940  146.4950 N   0  0  0  0  0  1  0  0  0  0  0  0
  197.9030  174.4430  144.5090 N   0  0  0  0  0  2  0  0  0  0  0  0
  197.6530  175.2830  143.3390 C   0  0  0  0  0  2  0  0  0  0  0  0
  195.5520  174.1020  144.9210 C   0  0  0  0  0  3  0  0  0  0  0  0
  3  5  1  1  0  0  0
  3  6  1  0  0  0  0
  4  8  1  0  0  0  0
  4  3  1  0  0  0  0
  6  9  1  1  0  0  0
  6 16  1  0  0  0  0
  7  2  1  6  0  0  0
  7 13  1  0  0  0  0
  7 18  1  0  0  0  0
  9 12  2  0  0  0  0
 10  1  1  0  0  0  0
 10 15  1  0  0  0  0
 12 11  1  0  0  0  0
 12 10  1  0  0  0  0
 13  8  1  6  0  0  0
 13  9  1  0  0  0  0
 14 34  1  6  0  0  0
 14 10  1  0  0  0  0
 16 14  1  0  0  0  0
 17  2  1  0  0  0  0
 17  8  2  0  0  0  0
 18 20  1  6  0  0  0
 18 19  1  0  0  0  0
 19 23  1  6  0  0  0
 20 19  1  0  0  0  0
 22 21  2  0  0  0  0
 23 22  1  0  0  0  0
 24 22  1  1  0  0  0
 24 30  1  0  0  0  0
 25 28  2  0  0  0  0
 25 26  1  0  0  0  0
 27 29  1  6  0  0  0
 27 28  1  0  0  0  0
 30 31  2  0  0  0  0
 30 27  1  0  0  0  0
 31 25  1  0  0  0  0
 32 33  1  0  0  0  0
 33 24  1  0  0  0  0
 34 38  1  0  0  0  0
 36 41  1  0  0  0  0
 36 38  1  0  0  0  0
 37 39  1  0  0  0  0
 38 35  1  1  0  0  0
 38 42  1  0  0  0  0
 40 37  1  0  0  0  0
 41 40  1  0  0  0  0
 42 37  2  0  0  0  0
M  END
>  <MODEL>
1

>  <REMARK>
 VINA RESULT:      -6.8      0.000      0.000
  Name = 
  7 active torsions:
  status: ('A' for Active; 'I' for Inactive)
    1  A    between atoms: C_6  and  C_14
    2  A    between atoms: O_13  and  C_42
    3  A    between atoms: C_17  and  N_32
    4  A    between atoms: C_21  and  N_39
    5  A    between atoms: C_27  and  C_42
    6  A    between atoms: C_30  and  N_39
    7  A    between atoms: C_31  and  C_42
                            x       y       z     vdW  Elec       q    Type
                         _______ _______ _______ _____ _____    ______ ____

>  <TORSDO>
F 7

$$$$
=
 OpenBabel11062420023D

 42 47  0  0  1  0  0  0  0  0999 V2000
  192.4580  170.9950  144.1670 C   0  0  0  0  0  1  0  0  0  0  0  0
  188.4530  174.4750  139.6000 C   0  0  0  0  0  2  0  0  0  0  0  0
  192.0860  171.6160  139.5590 C   0  0  2  0  0  3  0  0  0  0  0  0
  191.0180  172.1320  138.7630 O   0  0  0  0  0  0  0  0  0  0  0  0
  191.7650  170.2640  140.0010 N   0  0  0  0  0  1  0  0  0  0  0  0
  192.3450  172.5370  140.7660 C   0  0  1  0  0  3  0  0  0  0  0  0
  189.0320  174.2040  140.9940 C   0  0  2  0  0  3  0  0  0  0  0  0
  189.9840  172.8550  139.3560 C   0  0  0  0  0  0  0  0  0  0  0  0
  191.0600  172.7150  141.5800 C   0  0  0  0  0  0  0  0  0  0  0  0
  192.3660  172.4390  143.6940 C   0  0  0  0  0  0  0  0  0  0  0  0
  189.8750  172.5940  143.6370 O   0  0  0  0  0  1  0  0  0  0  0  0
  191.0750  172.6140  142.9250 C   0  0  0  0  0  0  0  0  0  0  0  0
  189.7480  172.8620  140.8250 C   0  0  1  0  0  3  0  0  0  0  0  0
  193.5940  172.7480  142.8200 C   0  0  1  0  0  3  0  0  0  0  0  0
  192.3640  173.3270  144.9300 C   0  0  0  0  0  1  0  0  0  0  0  0
  193.4830  172.0360  141.5460 N   0  0  0  0  0  2  0  0  0  0  0  0
  189.2750  173.7010  138.6920 N   0  0  0  0  0  0  0  0  0  0  0  0
  187.8950  174.1040  142.0140 C   0  0  1  0  0  3  0  0  0  0  0  0
  188.0520  175.0310  143.2300 C   0  0  2  0  0  3  0  0  0  0  0  0
  187.1270  175.4150  142.0950 C   0  0  0  0  0  2  0  0  0  0  0  0
  190.6480  177.4610  144.1020 O   0  0  0  0  0  0  0  0  0  0  0  0
  189.6560  176.6980  144.2570 C   0  0  0  0  0  0  0  0  0  0  0  0
  189.2520  175.8560  143.1700 N   0  0  0  0  0  2  0  0  0  0  0  0
  188.8990  176.6940  145.5530 C   0  0  1  0  0  3  0  0  0  0  0  0
  185.9000  178.5160  144.7000 C   0  0  0  0  0  0  0  0  0  0  0  0
  185.1980  179.5870  143.9350 C   0  0  0  0  0  1  0  0  0  0  0  0
  186.2670  176.7810  146.0340 C   0  0  2  0  0  3  0  0  0  0  0  0
  185.2740  177.6820  145.4670 N   0  0  0  0  0  0  0  0  0  0  0  0
  186.2900  176.9470  147.5440 C   0  0  0  0  0  1  0  0  0  0  0  0
  187.5310  177.3130  145.4230 C   0  0  0  0  0  0  0  0  0  0  0  0
  187.3040  178.3170  144.6390 N   0  0  0  0  0  0  0  0  0  0  0  0
  189.8450  175.3250  147.0280 C   0  0  0  0  0  1  0  0  0  0  0  0
  188.8260  175.3920  146.0660 O   0  0  0  0  0  0  0  0  0  0  0  0
  193.7560  174.1930  142.5890 N   0  0  0  0  0  2  0  0  0  0  0  0
  195.8810  173.6570  143.7020 C   0  0  0  0  0  1  0  0  0  0  0  0
  195.0920  176.0130  143.4910 C   0  0  0  0  0  2  0  0  0  0  0  0
  196.7760  175.7050  141.2180 C   0  0  0  0  0  0  0  0  0  0  0  0
  195.1420  174.6390  142.7930 C   0  0  2  0  0  0  0  0  0  0  0  0
  197.4090  175.7650  139.9400 N   0  0  0  0  0  1  0  0  0  0  0  0
  197.0460  176.7240  142.1940 N   0  0  0  0  0  2  0  0  0  0  0  0
  196.4830  176.6540  143.5420 C   0  0  0  0  0  2  0  0  0  0  0  0
  195.8710  174.7480  141.4660 C   0  0  0  0  0  3  0  0  0  0  0  0
  3  5  1  1  0  0  0
  3  6  1  0  0  0  0
  4  8  1  0  0  0  0
  4  3  1  0  0  0  0
  6 16  1  1  0  0  0
  6  9  1  0  0  0  0
  7  2  1  6  0  0  0
  7 18  1  0  0  0  0
  9 12  2  0  0  0  0
 10  1  1  0  0  0  0
 10 15  1  0  0  0  0
 12 11  1  0  0  0  0
 12 10  1  0  0  0  0
 13  8  1  6  0  0  0
 13  7  1  0  0  0  0
 13  9  1  0  0  0  0
 14 34  1  6  0  0  0
 14 10  1  0  0  0  0
 16 14  1  0  0  0  0
 17  8  2  0  0  0  0
 17  2  1  0  0  0  0
 18 20  1  6  0  0  0
 18 19  1  0  0  0  0
 19 23  1  6  0  0  0
 20 19  1  0  0  0  0
 21 22  2  0  0  0  0
 23 22  1  0  0  0  0
 24 22  1  6  0  0  0
 24 33  1  0  0  0  0
 25 28  2  0  0  0  0
 26 25  1  0  0  0  0
 27 29  1  1  0  0  0
 28 27  1  0  0  0  0
 30 24  1  0  0  0  0
 30 27  1  0  0  0  0
 31 25  1  0  0  0  0
 31 30  2  0  0  0  0
 33 32  1  0  0  0  0
 34 38  1  0  0  0  0
 36 41  1  0  0  0  0
 37 42  2  0  0  0  0
 37 40  1  0  0  0  0
 38 36  1  0  0  0  0
 38 35  1  1  0  0  0
 39 37  1  0  0  0  0
 40 41  1  0  0  0  0
 42 38  1  0  0  0  0
M  END
>  <MODEL>
2

>  <REMARK>
 VINA RESULT:      -6.7      1.818      2.839
  Name = 
  7 active torsions:
  status: ('A' for Active; 'I' for Inactive)
    1  A    between atoms: C_6  and  C_14
    2  A    between atoms: O_13  and  C_42
    3  A    between atoms: C_17  and  N_32
    4  A    between atoms: C_21  and  N_39
    5  A    between atoms: C_27  and  C_42
    6  A    between atoms: C_30  and  N_39
    7  A    between atoms: C_31  and  C_42
                            x       y       z     vdW  Elec       q    Type
                         _______ _______ _______ _____ _____    ______ ____

>  <TORSDO>
F 7

$$$$
=
 OpenBabel11062420023D

 42 47  0  0  1  0  0  0  0  0999 V2000
  189.6670  172.3520  145.1140 C   0  0  0  0  0  1  0  0  0  0  0  0
  195.4650  176.2750  145.0860 C   0  0  0  0  0  2  0  0  0  0  0  0
  191.2910  176.2600  147.0750 C   0  0  2  0  0  3  0  0  0  0  0  0
  192.6200  176.7730  147.1900 O   0  0  0  0  0  0  0  0  0  0  0  0
  191.1010  175.1630  148.0150 N   0  0  0  0  0  1  0  0  0  0  0  0
  191.0230  175.7950  145.6310 C   0  0  1  0  0  3  0  0  0  0  0  0
  194.5170  175.2160  144.5070 C   0  0  2  0  0  3  0  0  0  0  0  0
  193.6440  176.2610  146.3920 C   0  0  0  0  0  0  0  0  0  0  0  0
  192.0720  174.7630  145.2050 C   0  0  0  0  0  0  0  0  0  0  0  0
  190.2750  173.3720  144.1630 C   0  0  0  0  0  0  0  0  0  0  0  0
  192.6450  172.6160  144.3610 O   0  0  0  0  0  1  0  0  0  0  0  0
  191.7070  173.6260  144.5770 C   0  0  0  0  0  0  0  0  0  0  0  0
  193.5120  174.9850  145.6380 C   0  0  1  0  0  3  0  0  0  0  0  0
  189.4300  174.6580  144.2180 C   0  0  1  0  0  3  0  0  0  0  0  0
  190.2320  172.7760  142.7630 C   0  0  0  0  0  1  0  0  0  0  0  0
  189.6370  175.3270  145.5030 N   0  0  0  0  0  2  0  0  0  0  0  0
  194.7000  176.9440  146.1190 N   0  0  0  0  0  0  0  0  0  0  0  0
  195.3000  173.9410  144.1880 C   0  0  1  0  0  3  0  0  0  0  0  0
  195.5710  173.7220  142.6910 C   0  0  2  0  0  3  0  0  0  0  0  0
  196.6570  174.2780  143.5870 C   0  0  0  0  0  2  0  0  0  0  0  0
  194.3670  175.5830  139.7770 O   0  0  0  0  0  0  0  0  0  0  0  0
  194.7200  174.5930  140.4710 C   0  0  0  0  0  0  0  0  0  0  0  0
  195.0480  174.7930  141.8520 N   0  0  0  0  0  2  0  0  0  0  0  0
  194.8170  173.2290  139.8510 C   0  0  1  0  0  3  0  0  0  0  0  0
  191.4250  172.1110  139.3160 C   0  0  0  0  0  0  0  0  0  0  0  0
  190.0260  172.3610  138.8640 C   0  0  0  0  0  1  0  0  0  0  0  0
  193.2410  171.0750  140.0580 C   0  0  2  0  0  3  0  0  0  0  0  0
  191.8340  170.9470  139.7080 N   0  0  0  0  0  0  0  0  0  0  0  0
  193.4200  170.7710  141.5350 C   0  0  0  0  0  1  0  0  0  0  0  0
  193.4830  172.5310  139.7830 C   0  0  0  0  0  0  0  0  0  0  0  0
  192.4210  173.1220  139.3410 N   0  0  0  0  0  0  0  0  0  0  0  0
  196.7960  173.2880  138.8380 C   0  0  0  0  0  1  0  0  0  0  0  0
  195.4150  173.3140  138.5860 O   0  0  0  0  0  0  0  0  0  0  0  0
  189.7450  175.5710  143.1070 N   0  0  0  0  0  2  0  0  0  0  0  0
  188.1180  175.4080  141.2720 C   0  0  0  0  0  1  0  0  0  0  0  0
  188.8910  177.6230  142.1200 C   0  0  0  0  0  2  0  0  0  0  0  0
  186.5090  177.1720  143.6100 C   0  0  0  0  0  0  0  0  0  0  0  0
  188.5390  176.1770  142.5240 C   0  0  2  0  0  0  0  0  0  0  0  0
  185.4740  177.1180  144.5910 N   0  0  0  0  0  1  0  0  0  0  0  0
  186.6430  178.3380  142.7810 N   0  0  0  0  0  2  0  0  0  0  0  0
  187.6360  178.4000  141.7090 C   0  0  0  0  0  2  0  0  0  0  0  0
  187.3990  176.1740  143.5280 C   0  0  0  0  0  3  0  0  0  0  0  0
  2 17  1  0  0  0  0
  3  4  1  0  0  0  0
  3  5  1  1  0  0  0
  6  9  1  1  0  0  0
  6  3  1  0  0  0  0
  7  2  1  1  0  0  0
  7 13  1  0  0  0  0
  8  4  1  0  0  0  0
 10 14  1  0  0  0  0
 10 12  1  0  0  0  0
 10  1  1  0  0  0  0
 11 12  1  0  0  0  0
 12  9  2  0  0  0  0
 13  9  1  6  0  0  0
 13  8  1  0  0  0  0
 14 34  1  6  0  0  0
 14 16  1  0  0  0  0
 15 10  1  0  0  0  0
 16  6  1  0  0  0  0
 17  8  2  0  0  0  0
 18 20  1  1  0  0  0
 18  7  1  0  0  0  0
 19 23  1  6  0  0  0
 19 20  1  0  0  0  0
 19 18  1  0  0  0  0
 21 22  2  0  0  0  0
 22 23  1  0  0  0  0
 24 33  1  6  0  0  0
 24 22  1  0  0  0  0
 25 31  1  0  0  0  0
 25 28  2  0  0  0  0
 26 25  1  0  0  0  0
 27 29  1  1  0  0  0
 28 27  1  0  0  0  0
 30 24  1  0  0  0  0
 30 27  1  0  0  0  0
 31 30  2  0  0  0  0
 33 32  1  0  0  0  0
 36 38  1  0  0  0  0
 37 39  1  0  0  0  0
 38 35  1  6  0  0  0
 38 34  1  0  0  0  0
 38 42  1  0  0  0  0
 40 37  1  0  0  0  0
 41 36  1  0  0  0  0
 41 40  1  0  0  0  0
 42 37  2  0  0  0  0
M  END
>  <MODEL>
3

>  <REMARK>
 VINA RESULT:      -6.6      2.325      8.117
  Name = 
  7 active torsions:
  status: ('A' for Active; 'I' for Inactive)
    1  A    between atoms: C_6  and  C_14
    2  A    between atoms: O_13  and  C_42
    3  A    between atoms: C_17  and  N_32
    4  A    between atoms: C_21  and  N_39
    5  A    between atoms: C_27  and  C_42
    6  A    between atoms: C_30  and  N_39
    7  A    between atoms: C_31  and  C_42
                            x       y       z     vdW  Elec       q    Type
                         _______ _______ _______ _____ _____    ______ ____

>  <TORSDO>
F 7

$$$$
=
 OpenBabel11062420023D

 42 47  0  0  1  0  0  0  0  0999 V2000
  196.1570  176.3420  142.6040 C   0  0  0  0  0  1  0  0  0  0  0  0
  189.7360  175.3960  145.2280 C   0  0  0  0  0  2  0  0  0  0  0  0
  194.0160  176.2630  146.7470 C   0  0  2  0  0  3  0  0  0  0  0  0
  192.6330  176.3470  147.0920 O   0  0  0  0  0  0  0  0  0  0  0  0
  194.5120  177.5790  146.3630 N   0  0  0  0  0  1  0  0  0  0  0  0
  194.2190  175.2490  145.6050 C   0  0  1  0  0  3  0  0  0  0  0  0
  190.8070  175.2800  144.1350 C   0  0  2  0  0  3  0  0  0  0  0  0
  191.6510  176.1430  146.1230 C   0  0  0  0  0  0  0  0  0  0  0  0
  193.3520  175.6290  144.4010 C   0  0  0  0  0  0  0  0  0  0  0  0
  195.2680  175.1360  142.8720 C   0  0  0  0  0  0  0  0  0  0  0  0
  193.1230  176.1470  142.0920 O   0  0  0  0  0  1  0  0  0  0  0  0
  193.8640  175.6240  143.1530 C   0  0  0  0  0  0  0  0  0  0  0  0
  191.9490  176.1500  144.6650 C   0  0  1  0  0  3  0  0  0  0  0  0
  195.8480  174.3550  144.0640 C   0  0  1  0  0  3  0  0  0  0  0  0
  195.2810  174.2700  141.6210 C   0  0  0  0  0  1  0  0  0  0  0  0
  195.6490  175.1190  145.2970 N   0  0  0  0  0  2  0  0  0  0  0  0
  190.4600  175.7630  146.4290 N   0  0  0  0  0  0  0  0  0  0  0  0
  190.2570  175.8240  142.8140 C   0  0  1  0  0  3  0  0  0  0  0  0
  189.8680  174.7400  141.7960 C   0  0  2  0  0  3  0  0  0  0  0  0
  188.8030  175.4200  142.6290 C   0  0  0  0  0  2  0  0  0  0  0  0
  190.1030  171.0900  141.9480 O   0  0  0  0  0  0  0  0  0  0  0  0
  190.0150  172.2390  141.4380 C   0  0  0  0  0  0  0  0  0  0  0  0
  190.0740  173.3860  142.2940 N   0  0  0  0  0  2  0  0  0  0  0  0
  189.8270  172.3970  139.9560 C   0  0  1  0  0  3  0  0  0  0  0  0
  191.0940  169.6510  137.9810 C   0  0  0  0  0  0  0  0  0  0  0  0
  190.9170  168.3170  137.3390 C   0  0  0  0  0  1  0  0  0  0  0  0
  191.9800  171.5950  138.5820 C   0  0  2  0  0  3  0  0  0  0  0  0
  192.1640  170.3630  137.8280 N   0  0  0  0  0  0  0  0  0  0  0  0
  193.0260  171.6720  139.6800 C   0  0  0  0  0  1  0  0  0  0  0  0
  190.6130  171.3830  139.1650 C   0  0  0  0  0  0  0  0  0  0  0  0
  190.1020  170.2520  138.8000 N   0  0  0  0  0  0  0  0  0  0  0  0
  188.2910  173.3580  138.6690 C   0  0  0  0  0  1  0  0  0  0  0  0
  188.4640  172.3550  139.6340 O   0  0  0  0  0  0  0  0  0  0  0  0
  195.2490  173.0160  144.1890 N   0  0  0  0  0  2  0  0  0  0  0  0
  197.6400  172.5220  143.9120 C   0  0  0  0  0  1  0  0  0  0  0  0
  195.8950  170.8850  143.2100 C   0  0  0  0  0  2  0  0  0  0  0  0
  196.5320  170.0360  145.8500 C   0  0  0  0  0  0  0  0  0  0  0  0
  196.2640  171.9540  144.2580 C   0  0  2  0  0  0  0  0  0  0  0  0
  196.5340  169.5180  147.1800 N   0  0  0  0  0  1  0  0  0  0  0  0
  196.6840  169.1400  144.7380 N   0  0  0  0  0  2  0  0  0  0  0  0
  196.7710  169.6380  143.3660 C   0  0  0  0  0  2  0  0  0  0  0  0
  196.3030  171.3410  145.6460 C   0  0  0  0  0  3  0  0  0  0  0  0
  1 10  1  0  0  0  0
  2 17  1  0  0  0  0
  3  5  1  6  0  0  0
  3  4  1  0  0  0  0
  6  9  1  6  0  0  0
  6  3  1  0  0  0  0
  7 13  1  0  0  0  0
  7  2  1  1  0  0  0
  8 17  2  0  0  0  0
  8  4  1  0  0  0  0
 10 12  1  0  0  0  0
 10 14  1  0  0  0  0
 11 12  1  0  0  0  0
 12  9  2  0  0  0  0
 13  9  1  1  0  0  0
 13  8  1  0  0  0  0
 14 34  1  1  0  0  0
 14 16  1  0  0  0  0
 15 10  1  0  0  0  0
 16  6  1  0  0  0  0
 18 20  1  1  0  0  0
 18  7  1  0  0  0  0
 19 23  1  1  0  0  0
 19 20  1  0  0  0  0
 19 18  1  0  0  0  0
 22 21  2  0  0  0  0
 22 23  1  0  0  0  0
 24 33  1  1  0  0  0
 24 22  1  0  0  0  0
 25 31  1  0  0  0  0
 26 25  1  0  0  0  0
 27 30  1  0  0  0  0
 27 29  1  1  0  0  0
 28 25  2  0  0  0  0
 28 27  1  0  0  0  0
 30 24  1  0  0  0  0
 31 30  2  0  0  0  0
 32 33  1  0  0  0  0
 34 38  1  0  0  0  0
 36 41  1  0  0  0  0
 36 38  1  0  0  0  0
 37 39  1  0  0  0  0
 38 35  1  6  0  0  0
 38 42  1  0  0  0  0
 40 37  1  0  0  0  0
 41 40  1  0  0  0  0
 42 37  2  0  0  0  0
M  END
>  <MODEL>
4

>  <REMARK>
 VINA RESULT:      -6.5      2.656      6.610
  Name = 
  7 active torsions:
  status: ('A' for Active; 'I' for Inactive)
    1  A    between atoms: C_6  and  C_14
    2  A    between atoms: O_13  and  C_42
    3  A    between atoms: C_17  and  N_32
    4  A    between atoms: C_21  and  N_39
    5  A    between atoms: C_27  and  C_42
    6  A    between atoms: C_30  and  N_39
    7  A    between atoms: C_31  and  C_42
                            x       y       z     vdW  Elec       q    Type
                         _______ _______ _______ _____ _____    ______ ____

>  <TORSDO>
F 7

$$$$
=
 OpenBabel11062420023D

 42 47  0  0  1  0  0  0  0  0999 V2000
  193.0970  170.8460  144.5130 C   0  0  0  0  0  1  0  0  0  0  0  0
  188.9460  173.3840  139.4790 C   0  0  0  0  0  2  0  0  0  0  0  0
  192.7190  170.7390  139.8650 C   0  0  2  0  0  3  0  0  0  0  0  0
  191.6300  171.0740  139.0020 O   0  0  0  0  0  0  0  0  0  0  0  0
  192.4640  169.4560  140.5080 N   0  0  0  0  0  1  0  0  0  0  0  0
  192.9240  171.8450  140.9160 C   0  0  1  0  0  3  0  0  0  0  0  0
  189.5310  173.3570  140.8970 C   0  0  2  0  0  3  0  0  0  0  0  0
  190.5570  171.8260  139.4810 C   0  0  0  0  0  0  0  0  0  0  0  0
  191.6270  172.0790  141.6970 C   0  0  0  0  0  0  0  0  0  0  0  0
  192.9350  172.1940  143.8260 C   0  0  0  0  0  0  0  0  0  0  0  0
  190.4400  172.2130  143.7520 O   0  0  0  0  0  1  0  0  0  0  0  0
  191.6410  172.1850  143.0420 C   0  0  0  0  0  0  0  0  0  0  0  0
  190.3140  172.0430  140.9330 C   0  0  1  0  0  3  0  0  0  0  0  0
  194.1510  172.4290  142.9120 C   0  0  1  0  0  3  0  0  0  0  0  0
  192.8820  173.2590  144.9120 C   0  0  0  0  0  1  0  0  0  0  0  0
  194.0830  171.5270  141.7610 N   0  0  0  0  0  2  0  0  0  0  0  0
  189.8110  172.5230  138.6970 N   0  0  0  0  0  0  0  0  0  0  0  0
  188.3950  173.3570  141.9230 C   0  0  1  0  0  3  0  0  0  0  0  0
  188.2880  174.6470  142.7520 C   0  0  2  0  0  3  0  0  0  0  0  0
  187.3580  174.4160  141.5800 C   0  0  0  0  0  2  0  0  0  0  0  0
  190.4690  177.5860  142.8590 O   0  0  0  0  0  0  0  0  0  0  0  0
  189.6790  176.6970  143.2750 C   0  0  0  0  0  0  0  0  0  0  0  0
  189.2830  175.6470  142.3830 N   0  0  0  0  0  2  0  0  0  0  0  0
  189.1450  176.7530  144.6770 C   0  0  1  0  0  3  0  0  0  0  0  0
  192.1070  176.3290  146.7000 C   0  0  0  0  0  0  0  0  0  0  0  0
  193.5870  176.3870  146.8720 C   0  0  0  0  0  1  0  0  0  0  0  0
  189.9460  176.0930  147.1440 C   0  0  2  0  0  3  0  0  0  0  0  0
  191.3020  176.0450  147.6730 N   0  0  0  0  0  0  0  0  0  0  0  0
  189.3160  174.7150  147.2560 C   0  0  0  0  0  1  0  0  0  0  0  0
  190.2010  176.4450  145.7080 C   0  0  0  0  0  0  0  0  0  0  0  0
  191.4630  176.5910  145.4620 N   0  0  0  0  0  0  0  0  0  0  0  0
  187.2130  177.8380  144.4970 C   0  0  0  0  0  1  0  0  0  0  0  0
  188.5430  177.9960  144.9160 O   0  0  0  0  0  0  0  0  0  0  0  0
  194.2410  173.8280  142.4630 N   0  0  0  0  0  2  0  0  0  0  0  0
  196.3090  173.5630  143.7630 C   0  0  0  0  0  1  0  0  0  0  0  0
  195.3110  175.8140  143.3700 C   0  0  0  0  0  2  0  0  0  0  0  0
  197.1980  175.5820  141.2530 C   0  0  0  0  0  0  0  0  0  0  0  0
  195.5540  174.4240  142.7510 C   0  0  2  0  0  0  0  0  0  0  0  0
  197.9250  175.6510  140.0270 N   0  0  0  0  0  1  0  0  0  0  0  0
  197.2840  176.6650  142.1940 N   0  0  0  0  0  2  0  0  0  0  0  0
  196.6220  176.5960  143.4950 C   0  0  0  0  0  2  0  0  0  0  0  0
  196.3750  174.5490  141.4800 C   0  0  0  0  0  3  0  0  0  0  0  0
  3  5  1  1  0  0  0
  3  6  1  0  0  0  0
  4  8  1  0  0  0  0
  4  3  1  0  0  0  0
  6  9  1  1  0  0  0
  6 16  1  0  0  0  0
  7  2  1  6  0  0  0
  7 13  1  0  0  0  0
  7 18  1  0  0  0  0
  9 12  2  0  0  0  0
 10  1  1  0  0  0  0
 10 15  1  0  0  0  0
 12 11  1  0  0  0  0
 12 10  1  0  0  0  0
 13  8  1  6  0  0  0
 13  9  1  0  0  0  0
 14 34  1  6  0  0  0
 14 10  1  0  0  0  0
 16 14  1  0  0  0  0
 17  2  1  0  0  0  0
 17  8  2  0  0  0  0
 18 20  1  6  0  0  0
 18 19  1  0  0  0  0
 19 23  1  6  0  0  0
 20 19  1  0  0  0  0
 21 22  2  0  0  0  0
 23 22  1  0  0  0  0
 24 22  1  6  0  0  0
 24 33  1  0  0  0  0
 24 30  1  0  0  0  0
 25 26  1  0  0  0  0
 25 28  2  0  0  0  0
 27 29  1  6  0  0  0
 27 28  1  0  0  0  0
 30 27  1  0  0  0  0
 31 30  2  0  0  0  0
 31 25  1  0  0  0  0
 32 33  1  0  0  0  0
 34 38  1  0  0  0  0
 36 41  1  0  0  0  0
 37 42  2  0  0  0  0
 37 40  1  0  0  0  0
 38 36  1  0  0  0  0
 38 35  1  1  0  0  0
 39 37  1  0  0  0  0
 40 41  1  0  0  0  0
 42 38  1  0  0  0  0
M  END
>  <MODEL>
5

>  <REMARK>
 VINA RESULT:      -6.5      1.720      2.437
  Name = 
  7 active torsions:
  status: ('A' for Active; 'I' for Inactive)
    1  A    between atoms: C_6  and  C_14
    2  A    between atoms: O_13  and  C_42
    3  A    between atoms: C_17  and  N_32
    4  A    between atoms: C_21  and  N_39
    5  A    between atoms: C_27  and  C_42
    6  A    between atoms: C_30  and  N_39
    7  A    between atoms: C_31  and  C_42
                            x       y       z     vdW  Elec       q    Type
                         _______ _______ _______ _____ _____    ______ ____

>  <TORSDO>
F 7

$$$$
=
 OpenBabel11062420023D

 42 47  0  0  1  0  0  0  0  0999 V2000
  189.7760  172.7560  145.0130 C   0  0  0  0  0  1  0  0  0  0  0  0
  195.7430  175.5560  142.6550 C   0  0  0  0  0  2  0  0  0  0  0  0
  192.5360  176.4170  145.8720 C   0  0  2  0  0  3  0  0  0  0  0  0
  193.8870  176.6860  145.4910 O   0  0  0  0  0  0  0  0  0  0  0  0
  192.5120  175.4300  146.9450 N   0  0  0  0  0  1  0  0  0  0  0  0
  191.7290  175.9220  144.6580 C   0  0  1  0  0  3  0  0  0  0  0  0
  194.5070  174.6540  142.5410 C   0  0  2  0  0  3  0  0  0  0  0  0
  194.4910  175.9510  144.4710 C   0  0  0  0  0  0  0  0  0  0  0  0
  192.4040  174.6930  144.0390 C   0  0  0  0  0  0  0  0  0  0  0  0
  190.1720  173.5910  143.8030 C   0  0  0  0  0  0  0  0  0  0  0  0
  192.3270  172.4320  143.3120 O   0  0  0  0  0  1  0  0  0  0  0  0
  191.6810  173.6060  143.7000 C   0  0  0  0  0  0  0  0  0  0  0  0
  193.9210  174.6760  143.9550 C   0  0  1  0  0  3  0  0  0  0  0  0
  189.6000  175.0090  143.9780 C   0  0  1  0  0  3  0  0  0  0  0  0
  189.5690  172.9300  142.5720 C   0  0  0  0  0  1  0  0  0  0  0  0
  190.3280  175.7060  145.0400 N   0  0  0  0  0  2  0  0  0  0  0  0
  195.4830  176.4140  143.7930 N   0  0  0  0  0  0  0  0  0  0  0  0
  194.9350  173.2410  142.1370 C   0  0  1  0  0  3  0  0  0  0  0  0
  194.7780  172.9360  140.6380 C   0  0  2  0  0  3  0  0  0  0  0  0
  196.1370  173.2870  141.2060 C   0  0  0  0  0  2  0  0  0  0  0  0
  193.1950  174.9210  138.0010 O   0  0  0  0  0  0  0  0  0  0  0  0
  193.5180  173.9010  138.6660 C   0  0  0  0  0  0  0  0  0  0  0  0
  194.2710  174.0690  139.8740 N   0  0  0  0  0  2  0  0  0  0  0  0
  193.1370  172.5300  138.1850 C   0  0  1  0  0  3  0  0  0  0  0  0
  189.6320  172.1340  138.9610 C   0  0  0  0  0  0  0  0  0  0  0  0
  188.2400  172.6660  139.0120 C   0  0  0  0  0  1  0  0  0  0  0  0
  191.3590  170.7470  139.0910 C   0  0  2  0  0  3  0  0  0  0  0  0
  189.9230  170.9110  139.2690 N   0  0  0  0  0  0  0  0  0  0  0  0
  191.9940  170.4130  140.4300 C   0  0  0  0  0  1  0  0  0  0  0  0
  191.7600  172.1220  138.6430 C   0  0  0  0  0  0  0  0  0  0  0  0
  190.7450  172.9190  138.5590 N   0  0  0  0  0  0  0  0  0  0  0  0
  194.3130  171.5610  136.5660 C   0  0  0  0  0  1  0  0  0  0  0  0
  193.2570  172.4570  136.7910 O   0  0  0  0  0  0  0  0  0  0  0  0
  189.6540  175.7830  142.7260 N   0  0  0  0  0  2  0  0  0  0  0  0
  187.8160  175.7790  141.0960 C   0  0  0  0  0  1  0  0  0  0  0  0
  188.5910  177.8950  142.1620 C   0  0  0  0  0  2  0  0  0  0  0  0
  186.4410  177.0920  143.8440 C   0  0  0  0  0  0  0  0  0  0  0  0
  188.3580  176.3890  142.3880 C   0  0  2  0  0  0  0  0  0  0  0  0
  185.5440  176.8350  144.9230 N   0  0  0  0  0  1  0  0  0  0  0  0
  186.4160  178.3690  143.1860 N   0  0  0  0  0  2  0  0  0  0  0  0
  187.2610  178.6430  142.0240 C   0  0  0  0  0  2  0  0  0  0  0  0
  187.3570  176.1730  143.5090 C   0  0  0  0  0  3  0  0  0  0  0  0
  2 17  1  0  0  0  0
  3  5  1  1  0  0  0
  4  3  1  0  0  0  0
  6  9  1  1  0  0  0
  6 16  1  0  0  0  0
  6  3  1  0  0  0  0
  7  2  1  1  0  0  0
  7 13  1  0  0  0  0
  8  4  1  0  0  0  0
 10 14  1  0  0  0  0
 10  1  1  0  0  0  0
 11 12  1  0  0  0  0
 12 10  1  0  0  0  0
 12  9  2  0  0  0  0
 13  9  1  6  0  0  0
 13  8  1  0  0  0  0
 14 34  1  6  0  0  0
 14 16  1  0  0  0  0
 15 10  1  0  0  0  0
 17  8  2  0  0  0  0
 18 20  1  6  0  0  0
 18  7  1  0  0  0  0
 19 23  1  6  0  0  0
 19 20  1  0  0  0  0
 19 18  1  0  0  0  0
 21 22  2  0  0  0  0
 22 23  1  0  0  0  0
 24 33  1  6  0  0  0
 24 30  1  0  0  0  0
 24 22  1  0  0  0  0
 25 26  1  0  0  0  0
 25 28  2  0  0  0  0
 27 28  1  0  0  0  0
 27 29  1  1  0  0  0
 30 27  1  0  0  0  0
 31 30  2  0  0  0  0
 31 25  1  0  0  0  0
 32 33  1  0  0  0  0
 36 38  1  0  0  0  0
 37 39  1  0  0  0  0
 38 35  1  6  0  0  0
 38 34  1  0  0  0  0
 38 42  1  0  0  0  0
 40 37  1  0  0  0  0
 41 36  1  0  0  0  0
 41 40  1  0  0  0  0
 42 37  2  0  0  0  0
M  END
>  <MODEL>
6

>  <REMARK>
 VINA RESULT:      -6.5      2.444      7.749
  Name = 
  7 active torsions:
  status: ('A' for Active; 'I' for Inactive)
    1  A    between atoms: C_6  and  C_14
    2  A    between atoms: O_13  and  C_42
    3  A    between atoms: C_17  and  N_32
    4  A    between atoms: C_21  and  N_39
    5  A    between atoms: C_27  and  C_42
    6  A    between atoms: C_30  and  N_39
    7  A    between atoms: C_31  and  C_42
                            x       y       z     vdW  Elec       q    Type
                         _______ _______ _______ _____ _____    ______ ____

>  <TORSDO>
F 7

$$$$
=
 OpenBabel11062420023D

 42 47  0  0  1  0  0  0  0  0999 V2000
  193.3810  174.3560  139.4540 C   0  0  0  0  0  1  0  0  0  0  0  0
  196.3370  174.2870  145.7990 C   0  0  0  0  0  2  0  0  0  0  0  0
  196.6660  172.0080  141.7900 C   0  0  2  0  0  3  0  0  0  0  0  0
  197.3610  172.3160  143.0000 O   0  0  0  0  0  0  0  0  0  0  0  0
  197.1860  172.8250  140.7000 N   0  0  0  0  0  1  0  0  0  0  0  0
  195.1540  172.2380  141.9700 C   0  0  1  0  0  3  0  0  0  0  0  0
  195.2260  174.6410  144.8030 C   0  0  2  0  0  3  0  0  0  0  0  0
  196.8760  173.3020  143.8590 C   0  0  0  0  0  0  0  0  0  0  0  0
  194.8890  173.6740  142.4320 C   0  0  0  0  0  0  0  0  0  0  0  0
  192.9790  173.8340  140.8260 C   0  0  0  0  0  0  0  0  0  0  0  0
  193.8100  175.7740  142.1570 O   0  0  0  0  0  1  0  0  0  0  0  0
  193.9180  174.4150  141.8590 C   0  0  0  0  0  0  0  0  0  0  0  0
  195.8400  174.2880  143.4470 C   0  0  1  0  0  3  0  0  0  0  0  0
  193.0420  172.2960  140.8030 C   0  0  1  0  0  3  0  0  0  0  0  0
  191.5550  174.2970  141.0940 C   0  0  0  0  0  1  0  0  0  0  0  0
  194.4390  171.8610  140.7450 N   0  0  0  0  0  2  0  0  0  0  0  0
  197.1640  173.3140  145.1140 N   0  0  0  0  0  0  0  0  0  0  0  0
  194.9050  176.1350  144.8970 C   0  0  1  0  0  3  0  0  0  0  0  0
  193.4320  176.4490  145.2070 C   0  0  2  0  0  3  0  0  0  0  0  0
  194.4700  176.5050  146.3070 C   0  0  0  0  0  2  0  0  0  0  0  0
  190.6600  174.2300  146.0970 O   0  0  0  0  0  0  0  0  0  0  0  0
  191.2750  175.3080  145.8790 C   0  0  0  0  0  0  0  0  0  0  0  0
  192.6160  175.2530  145.3780 N   0  0  0  0  0  2  0  0  0  0  0  0
  190.6160  176.6270  146.1630 C   0  0  1  0  0  3  0  0  0  0  0  0
  187.5360  177.1140  144.3420 C   0  0  0  0  0  0  0  0  0  0  0  0
  186.0700  176.8960  144.1780 C   0  0  0  0  0  1  0  0  0  0  0  0
  189.6000  177.8610  144.0170 C   0  0  2  0  0  3  0  0  0  0  0  0
  188.2210  177.8760  143.5510 N   0  0  0  0  0  0  0  0  0  0  0  0
  190.4870  177.2640  142.9370 C   0  0  0  0  0  1  0  0  0  0  0  0
  189.5040  176.9360  145.1950 C   0  0  0  0  0  0  0  0  0  0  0  0
  188.2950  176.5150  145.3820 N   0  0  0  0  0  0  0  0  0  0  0  0
  191.3090  176.9680  148.2490 C   0  0  0  0  0  1  0  0  0  0  0  0
  190.1670  176.6670  147.4900 O   0  0  0  0  0  0  0  0  0  0  0  0
  192.3670  171.7000  141.9680 N   0  0  0  0  0  2  0  0  0  0  0  0
  189.9940  171.1500  142.2870 C   0  0  0  0  0  1  0  0  0  0  0  0
  191.7110  169.3600  142.0300 C   0  0  0  0  0  2  0  0  0  0  0  0
  190.7610  169.7110  139.3710 C   0  0  0  0  0  0  0  0  0  0  0  0
  191.2940  170.7740  141.5780 C   0  0  2  0  0  0  0  0  0  0  0  0
  190.5950  169.8040  137.9560 N   0  0  0  0  0  1  0  0  0  0  0  0
  190.6750  168.4290  140.0140 N   0  0  0  0  0  2  0  0  0  0  0  0
  190.7560  168.3010  141.4680 C   0  0  0  0  0  2  0  0  0  0  0  0
  191.0800  170.8050  140.0750 C   0  0  0  0  0  3  0  0  0  0  0  0
  1 10  1  0  0  0  0
  3  5  1  6  0  0  0
  3  6  1  0  0  0  0
  3  4  1  0  0  0  0
  4  8  1  0  0  0  0
  6 16  1  6  0  0  0
  6  9  1  0  0  0  0
  7 18  1  0  0  0  0
  7  2  1  1  0  0  0
  8 17  2  0  0  0  0
 10 15  1  0  0  0  0
 10 12  1  0  0  0  0
 12 11  1  0  0  0  0
 12  9  2  0  0  0  0
 13  9  1  6  0  0  0
 13  8  1  0  0  0  0
 13  7  1  0  0  0  0
 14 10  1  0  0  0  0
 14 34  1  1  0  0  0
 16 14  1  0  0  0  0
 17  2  1  0  0  0  0
 18 19  1  0  0  0  0
 18 20  1  1  0  0  0
 19 23  1  1  0  0  0
 19 20  1  0  0  0  0
 22 21  2  0  0  0  0
 23 22  1  0  0  0  0
 24 22  1  6  0  0  0
 24 33  1  0  0  0  0
 25 31  1  0  0  0  0
 26 25  1  0  0  0  0
 27 29  1  6  0  0  0
 27 30  1  0  0  0  0
 28 27  1  0  0  0  0
 28 25  2  0  0  0  0
 30 31  2  0  0  0  0
 30 24  1  0  0  0  0
 33 32  1  0  0  0  0
 37 40  1  0  0  0  0
 37 42  2  0  0  0  0
 38 34  1  0  0  0  0
 38 36  1  0  0  0  0
 38 35  1  1  0  0  0
 39 37  1  0  0  0  0
 40 41  1  0  0  0  0
 41 36  1  0  0  0  0
 42 38  1  0  0  0  0
M  END
>  <MODEL>
7

>  <REMARK>
 VINA RESULT:      -6.3      2.553      6.182
  Name = 
  7 active torsions:
  status: ('A' for Active; 'I' for Inactive)
    1  A    between atoms: C_6  and  C_14
    2  A    between atoms: O_13  and  C_42
    3  A    between atoms: C_17  and  N_32
    4  A    between atoms: C_21  and  N_39
    5  A    between atoms: C_27  and  C_42
    6  A    between atoms: C_30  and  N_39
    7  A    between atoms: C_31  and  C_42
                            x       y       z     vdW  Elec       q    Type
                         _______ _______ _______ _____ _____    ______ ____

>  <TORSDO>
F 7

$$$$
=
 OpenBabel11062420023D

 42 47  0  0  1  0  0  0  0  0999 V2000
  187.6180  172.2910  142.6000 C   0  0  0  0  0  1  0  0  0  0  0  0
  191.8860  177.5660  144.3230 C   0  0  0  0  0  2  0  0  0  0  0  0
  188.1900  176.8210  141.6460 C   0  0  2  0  0  3  0  0  0  0  0  0
  188.9420  177.8350  142.3150 O   0  0  0  0  0  0  0  0  0  0  0  0
  186.9780  176.5250  142.4000 N   0  0  0  0  0  1  0  0  0  0  0  0
  189.0460  175.5530  141.4680 C   0  0  1  0  0  3  0  0  0  0  0  0
  191.5120  176.0830  144.1970 C   0  0  2  0  0  3  0  0  0  0  0  0
  189.9220  177.4880  143.2450 C   0  0  0  0  0  0  0  0  0  0  0  0
  189.5690  175.0750  142.8270 C   0  0  0  0  0  0  0  0  0  0  0  0
  189.0230  172.7160  142.2010 C   0  0  0  0  0  0  0  0  0  0  0  0
  189.8100  173.3790  144.4750 O   0  0  0  0  0  1  0  0  0  0  0  0
  189.5040  173.7720  143.1710 C   0  0  0  0  0  0  0  0  0  0  0  0
  190.0270  176.1230  143.8280 C   0  0  1  0  0  3  0  0  0  0  0  0
  188.9840  173.2470  140.7570 C   0  0  1  0  0  3  0  0  0  0  0  0
  189.9150  171.4850  142.2820 C   0  0  0  0  0  1  0  0  0  0  0  0
  188.2910  174.5360  140.7260 N   0  0  0  0  0  2  0  0  0  0  0  0
  190.9020  178.2730  143.5270 N   0  0  0  0  0  0  0  0  0  0  0  0
  191.7350  175.3800  145.5380 C   0  0  1  0  0  3  0  0  0  0  0  0
  192.9100  174.3900  145.5470 C   0  0  2  0  0  3  0  0  0  0  0  0
  193.0760  175.7740  146.1370 C   0  0  0  0  0  2  0  0  0  0  0  0
  195.3310  173.4850  142.9530 O   0  0  0  0  0  0  0  0  0  0  0  0
  194.7010  173.4210  144.0430 C   0  0  0  0  0  0  0  0  0  0  0  0
  193.6140  174.3260  144.2720 N   0  0  0  0  0  2  0  0  0  0  0  0
  195.1030  172.4240  145.0920 C   0  0  1  0  0  3  0  0  0  0  0  0
  193.3920  169.4540  143.9550 C   0  0  0  0  0  0  0  0  0  0  0  0
  192.3420  168.7900  143.1310 C   0  0  0  0  0  1  0  0  0  0  0  0
  195.1240  169.7570  145.3080 C   0  0  2  0  0  3  0  0  0  0  0  0
  194.2580  168.7890  144.6510 N   0  0  0  0  0  0  0  0  0  0  0  0
  194.9730  169.6230  146.8130 C   0  0  0  0  0  1  0  0  0  0  0  0
  194.5370  171.0520  144.8300 C   0  0  0  0  0  0  0  0  0  0  0  0
  193.5350  170.8640  144.0330 N   0  0  0  0  0  0  0  0  0  0  0  0
  196.8060  173.4060  146.1310 C   0  0  0  0  0  1  0  0  0  0  0  0
  196.4990  172.3880  145.2150 O   0  0  0  0  0  0  0  0  0  0  0  0
  190.3320  173.3760  140.1800 N   0  0  0  0  0  2  0  0  0  0  0  0
  189.3100  171.7300  138.6680 C   0  0  0  0  0  1  0  0  0  0  0  0
  191.7860  172.0090  138.7910 C   0  0  0  0  0  2  0  0  0  0  0  0
  191.0650  173.7080  136.6250 C   0  0  0  0  0  0  0  0  0  0  0  0
  190.4350  172.7480  138.8540 C   0  0  2  0  0  0  0  0  0  0  0  0
  190.9620  174.7390  135.6440 N   0  0  0  0  0  1  0  0  0  0  0  0
  191.9970  172.6310  136.4300 N   0  0  0  0  0  2  0  0  0  0  0  0
  192.0740  171.5140  137.3690 C   0  0  0  0  0  2  0  0  0  0  0  0
  190.3560  173.7960  137.7590 C   0  0  0  0  0  3  0  0  0  0  0  0
  3  4  1  0  0  0  0
  3  5  1  1  0  0  0
  4  8  1  0  0  0  0
  6 16  1  1  0  0  0
  6  3  1  0  0  0  0
  6  9  1  0  0  0  0
  7  2  1  1  0  0  0
  7 18  1  0  0  0  0
  8 17  2  0  0  0  0
  8 13  1  0  0  0  0
  9 12  2  0  0  0  0
 10 15  1  0  0  0  0
 10  1  1  0  0  0  0
 10 12  1  0  0  0  0
 12 11  1  0  0  0  0
 13  9  1  6  0  0  0
 13  7  1  0  0  0  0
 14 34  1  1  0  0  0
 14 10  1  0  0  0  0
 16 14  1  0  0  0  0
 17  2  1  0  0  0  0
 18 19  1  0  0  0  0
 18 20  1  1  0  0  0
 19 23  1  6  0  0  0
 19 20  1  0  0  0  0
 21 22  2  0  0  0  0
 22 23  1  0  0  0  0
 24 22  1  6  0  0  0
 24 33  1  0  0  0  0
 25 31  1  0  0  0  0
 25 28  2  0  0  0  0
 26 25  1  0  0  0  0
 27 29  1  1  0  0  0
 28 27  1  0  0  0  0
 30 24  1  0  0  0  0
 30 27  1  0  0  0  0
 31 30  2  0  0  0  0
 33 32  1  0  0  0  0
 36 38  1  0  0  0  0
 37 42  2  0  0  0  0
 38 35  1  6  0  0  0
 38 34  1  0  0  0  0
 39 37  1  0  0  0  0
 40 37  1  0  0  0  0
 40 41  1  0  0  0  0
 41 36  1  0  0  0  0
 42 38  1  0  0  0  0
M  END
>  <MODEL>
8

>  <REMARK>
 VINA RESULT:      -6.3      2.562      7.819
  Name = 
  7 active torsions:
  status: ('A' for Active; 'I' for Inactive)
    1  A    between atoms: C_6  and  C_14
    2  A    between atoms: O_13  and  C_42
    3  A    between atoms: C_17  and  N_32
    4  A    between atoms: C_21  and  N_39
    5  A    between atoms: C_27  and  C_42
    6  A    between atoms: C_30  and  N_39
    7  A    between atoms: C_31  and  C_42
                            x       y       z     vdW  Elec       q    Type
                         _______ _______ _______ _____ _____    ______ ____

>  <TORSDO>
F 7

$$$$
=
 OpenBabel11062420023D

 42 47  0  0  1  0  0  0  0  0999 V2000
  194.9180  175.1050  140.8500 C   0  0  0  0  0  1  0  0  0  0  0  0
  191.0110  176.7410  146.4250 C   0  0  0  0  0  2  0  0  0  0  0  0
  195.0190  174.6330  145.4900 C   0  0  2  0  0  3  0  0  0  0  0  0
  194.2760  175.2890  146.5180 O   0  0  0  0  0  0  0  0  0  0  0  0
  196.0390  175.5330  144.9650 N   0  0  0  0  0  1  0  0  0  0  0  0
  194.0750  174.1640  144.3660 C   0  0  1  0  0  3  0  0  0  0  0  0
  191.2380  176.4970  144.9270 C   0  0  2  0  0  3  0  0  0  0  0  0
  193.1150  175.9970  146.2060 C   0  0  0  0  0  0  0  0  0  0  0  0
  193.2710  175.3490  143.8230 C   0  0  0  0  0  0  0  0  0  0  0  0
  193.6590  174.5370  141.4900 C   0  0  0  0  0  0  0  0  0  0  0  0
  192.5590  176.7150  142.0130 O   0  0  0  0  0  1  0  0  0  0  0  0
  193.1330  175.5380  142.4940 C   0  0  0  0  0  0  0  0  0  0  0  0
  192.7600  176.3830  144.8130 C   0  0  1  0  0  3  0  0  0  0  0  0
  194.0110  173.1950  142.1570 C   0  0  1  0  0  3  0  0  0  0  0  0
  192.6390  174.3200  140.3820 C   0  0  0  0  0  1  0  0  0  0  0  0
  194.8350  173.4360  143.3430 N   0  0  0  0  0  2  0  0  0  0  0  0
  192.1910  176.2090  147.0770 N   0  0  0  0  0  0  0  0  0  0  0  0
  190.7060  177.6870  144.1240 C   0  0  1  0  0  3  0  0  0  0  0  0
  189.6350  177.3220  143.0840 C   0  0  2  0  0  3  0  0  0  0  0  0
  189.2310  177.9180  144.4160 C   0  0  0  0  0  2  0  0  0  0  0  0
  187.7760  174.1860  142.7500 O   0  0  0  0  0  0  0  0  0  0  0  0
  188.0320  175.4150  142.6390 C   0  0  0  0  0  0  0  0  0  0  0  0
  189.3060  175.9020  143.0750 N   0  0  0  0  0  2  0  0  0  0  0  0
  187.0030  176.3540  142.0780 C   0  0  1  0  0  3  0  0  0  0  0  0
  185.3090  177.4420  145.0760 C   0  0  0  0  0  0  0  0  0  0  0  0
  184.9580  177.2590  146.5140 C   0  0  0  0  0  1  0  0  0  0  0  0
  185.4790  178.3280  143.0490 C   0  0  2  0  0  3  0  0  0  0  0  0
  184.9560  178.4870  144.3980 N   0  0  0  0  0  0  0  0  0  0  0  0
  184.3220  178.2630  142.0670 C   0  0  0  0  0  1  0  0  0  0  0  0
  186.1630  176.9960  143.1520 C   0  0  0  0  0  0  0  0  0  0  0  0
  186.0680  176.4940  144.3400 N   0  0  0  0  0  0  0  0  0  0  0  0
  187.0850  177.0980  139.9840 C   0  0  0  0  0  1  0  0  0  0  0  0
  187.6180  177.3150  141.2640 O   0  0  0  0  0  0  0  0  0  0  0  0
  192.8090  172.4260  142.5150 N   0  0  0  0  0  2  0  0  0  0  0  0
  194.0270  170.8250  141.1040 C   0  0  0  0  0  1  0  0  0  0  0  0
  191.5800  170.5810  141.5160 C   0  0  0  0  0  2  0  0  0  0  0  0
  192.7270  168.9250  143.5260 C   0  0  0  0  0  0  0  0  0  0  0  0
  192.9220  171.0070  142.1430 C   0  0  2  0  0  0  0  0  0  0  0  0
  193.0350  168.1870  144.7080 N   0  0  0  0  0  1  0  0  0  0  0  0
  191.8090  168.3780  142.5650 N   0  0  0  0  0  2  0  0  0  0  0  0
  191.5310  169.0640  141.3040 C   0  0  0  0  0  2  0  0  0  0  0  0
  193.2270  170.1570  143.3640 C   0  0  0  0  0  3  0  0  0  0  0  0
  1 10  1  0  0  0  0
  2 17  1  0  0  0  0
  3  5  1  6  0  0  0
  3  4  1  0  0  0  0
  6 16  1  6  0  0  0
  6  3  1  0  0  0  0
  7  2  1  1  0  0  0
  8  4  1  0  0  0  0
  8 17  2  0  0  0  0
  9  6  1  0  0  0  0
 10 14  1  0  0  0  0
 10 12  1  0  0  0  0
 11 12  1  0  0  0  0
 12  9  2  0  0  0  0
 13  9  1  6  0  0  0
 13  7  1  0  0  0  0
 13  8  1  0  0  0  0
 14 34  1  1  0  0  0
 14 16  1  0  0  0  0
 15 10  1  0  0  0  0
 18 20  1  1  0  0  0
 18  7  1  0  0  0  0
 19 23  1  1  0  0  0
 19 18  1  0  0  0  0
 19 20  1  0  0  0  0
 22 21  2  0  0  0  0
 22 23  1  0  0  0  0
 24 33  1  1  0  0  0
 24 22  1  0  0  0  0
 24 30  1  0  0  0  0
 25 26  1  0  0  0  0
 27 29  1  6  0  0  0
 27 30  1  0  0  0  0
 27 28  1  0  0  0  0
 28 25  2  0  0  0  0
 30 31  2  0  0  0  0
 31 25  1  0  0  0  0
 32 33  1  0  0  0  0
 36 38  1  0  0  0  0
 37 39  1  0  0  0  0
 38 35  1  6  0  0  0
 38 34  1  0  0  0  0
 38 42  1  0  0  0  0
 40 37  1  0  0  0  0
 41 36  1  0  0  0  0
 41 40  1  0  0  0  0
 42 37  2  0  0  0  0
M  END
>  <MODEL>
9

>  <REMARK>
 VINA RESULT:      -6.2      2.504      5.429
  Name = 
  7 active torsions:
  status: ('A' for Active; 'I' for Inactive)
    1  A    between atoms: C_6  and  C_14
    2  A    between atoms: O_13  and  C_42
    3  A    between atoms: C_17  and  N_32
    4  A    between atoms: C_21  and  N_39
    5  A    between atoms: C_27  and  C_42
    6  A    between atoms: C_30  and  N_39
    7  A    between atoms: C_31  and  C_42
                            x       y       z     vdW  Elec       q    Type
                         _______ _______ _______ _____ _____    ______ ____

>  <TORSDO>
F 7

$$$$
