=
 OpenBabel11062419003D

 51 55  0  0  1  0  0  0  0  0999 V2000
  196.0360  172.1350  143.1040 N   0  0  0  0  0  0  0  0  0  0  0  0
  193.3840  174.8610  142.7440 C   0  0  2  0  0  3  0  0  0  0  0  0
  196.2450  173.1170  145.1730 C   0  0  0  0  0  0  0  0  0  0  0  0
  196.2540  171.1180  142.1160 C   0  0  0  0  0  0  0  0  0  0  0  0
  194.3170  173.7400  142.3400 C   0  0  0  0  0  0  0  0  0  0  0  0
  194.5390  174.7260  144.8490 O   0  0  0  0  0  0  0  0  0  0  0  0
  194.7210  172.7180  143.3870 C   0  0  2  0  0  3  0  0  0  0  0  0
  193.2780  174.9390  144.2660 C   0  0  1  0  0  3  0  0  0  0  0  0
  194.6830  173.5630  141.1010 N   0  0  0  0  0  0  0  0  0  0  0  0
  194.8190  173.3400  144.8060 C   0  0  1  0  0  0  0  0  0  0  0  0
  197.5150  170.5540  141.9610 O   0  0  0  0  0  1  0  0  0  0  0  0
  196.7280  173.4670  146.2410 O   0  0  0  0  0  0  0  0  0  0  0  0
  197.0200  172.4100  144.1350 C   0  0  0  0  0  2  0  0  0  0  0  0
  193.9960  172.6450  145.6950 O   0  0  0  0  0  1  0  0  0  0  0  0
  195.3050  170.7170  141.3890 O   0  0  0  0  0  0  0  0  0  0  0  0
  192.6730  176.2660  144.7170 C   0  0  2  0  0  3  0  0  0  0  0  0
  193.6400  177.1140  145.2670 O   0  0  0  0  0  1  0  0  0  0  0  0
  191.5020  176.0280  145.6750 C   0  0  2  0  0  3  0  0  0  0  0  0
  190.4020  178.0520  144.7170 C   0  0  0  0  0  2  0  0  0  0  0  0
  190.2020  176.6640  145.1730 C   0  0  1  0  0  0  0  0  0  0  0  0
  190.1970  176.9670  143.6400 C   0  0  2  0  0  0  0  0  0  0  0  0
  189.5990  177.9100  142.6030 C   0  0  0  0  0  2  0  0  0  0  0  0
  188.9630  176.5230  146.0530 C   0  0  0  0  0  1  0  0  0  0  0  0
  188.7580  176.7740  143.0550 C   0  0  2  0  0  3  0  0  0  0  0  0
  187.6630  177.3360  143.8380 N   0  0  0  0  0  2  0  0  0  0  0  0
  186.3410  177.7060  142.7740 S   0  0  0  0  0  0  0  0  0  0  0  0
  186.5130  179.0980  142.2310 O   0  0  0  0  0  0  0  0  0  0  0  0
  186.3100  176.7290  141.6290 O   0  0  0  0  0  0  0  0  0  0  0  0
  184.8030  177.6320  143.6920 C   0  0  1  0  0  3  0  0  0  0  0  0
  185.4040  176.5350  145.8620 O   0  0  0  0  0  1  0  0  0  0  0  0
  185.7920  180.0860  145.0180 F   0  0  0  0  0  0  0  0  0  0  0  0
  185.0450  177.7160  145.2100 C   0  0  1  0  0  0  0  0  0  0  0  0
  186.4010  178.8320  146.9530 F   0  0  0  0  0  0  0  0  0  0  0  0
  185.6130  178.9780  145.8250 C   0  0  0  0  0  0  0  0  0  0  0  0
  184.1520  178.6190  146.0520 C   0  0  0  0  0  2  0  0  0  0  0  0
  183.7890  178.6410  143.1550 C   0  0  0  0  0  2  0  0  0  0  0  0
  182.0630  178.3510  141.5860 O   0  0  0  0  0  0  0  0  0  0  0  0
  183.2390  178.1790  141.8490 C   0  0  0  0  0  3  0  0  0  0  0  0
  191.5120  175.2950  148.0580 C   0  0  0  0  0  1  0  0  0  0  0  0
  191.8230  176.4370  147.1090 C   0  0  0  0  0  2  0  0  0  0  0  0
  194.9350  175.5850  139.9390 O   0  0  0  0  0  0  0  0  0  0  0  0
  194.4260  174.4330  139.9940 C   0  0  0  0  0  0  0  0  0  0  0  0
  193.5970  173.9300  138.8600 C   0  0  1  0  0  3  0  0  0  0  0  0
  195.5550  173.0970  137.7780 O   0  0  0  0  0  1  0  0  0  0  0  0
  194.4200  173.8860  137.5850 C   0  0  0  0  0  2  0  0  0  0  0  0
  193.0840  172.6370  139.1480 O   0  0  0  0  0  0  0  0  0  0  0  0
  191.7160  172.3720  139.1730 C   0  0  0  0  0  0  0  0  0  0  0  0
  190.7930  173.3560  138.8300 O   0  0  0  0  0  0  0  0  0  0  0  0
  191.3130  171.2260  139.4970 O   0  0  0  0  0  1  0  0  0  0  0  0
  192.0170  174.6870  142.1310 C   0  0  0  0  0  3  0  0  0  0  0  0
  191.1960  173.6990  142.4900 C   0  0  0  0  0  2  0  0  0  0  0  0
  1  7  1  0  0  0  0
  1 13  1  0  0  0  0
  2 50  1  6  0  0  0
  2  8  1  0  0  0  0
  3 12  2  0  0  0  0
  4  1  1  0  0  0  0
  5  2  1  0  0  0  0
  7  5  1  6  0  0  0
  7 10  1  0  0  0  0
  8 16  1  6  0  0  0
  8  6  1  0  0  0  0
  9  5  2  0  0  0  0
 10  6  1  0  0  0  0
 10  3  1  0  0  0  0
 10 14  1  1  0  0  0
 11  4  1  0  0  0  0
 13  3  1  0  0  0  0
 15  4  2  0  0  0  0
 16 17  1  1  0  0  0
 16 18  1  0  0  0  0
 18 40  1  1  0  0  0
 19 20  1  0  0  0  0
 20 18  1  0  0  0  0
 20 23  1  1  0  0  0
 21 22  1  6  0  0  0
 21 19  1  0  0  0  0
 21 20  1  0  0  0  0
 22 24  1  0  0  0  0
 24 21  1  0  0  0  0
 24 25  1  1  0  0  0
 26 29  1  0  0  0  0
 26 25  1  0  0  0  0
 27 26  2  0  0  0  0
 28 26  2  0  0  0  0
 29 36  1  6  0  0  0
 29 32  1  0  0  0  0
 31 34  1  0  0  0  0
 32 34  1  0  0  0  0
 32 30  1  1  0  0  0
 32 35  1  0  0  0  0
 34 35  1  0  0  0  0
 34 33  1  0  0  0  0
 37 38  2  0  0  0  0
 38 36  1  0  0  0  0
 40 39  1  0  0  0  0
 41 42  2  0  0  0  0
 42  9  1  0  0  0  0
 43 45  1  6  0  0  0
 43 46  1  0  0  0  0
 43 42  1  0  0  0  0
 45 44  1  0  0  0  0
 46 47  1  0  0  0  0
 47 49  1  0  0  0  0
 48 47  2  0  0  0  0
 50 51  2  0  0  0  0
M  END
>  <MODEL>
1

>  <REMARK>
 VINA RESULT:      -6.9      0.000      0.000
  Name = 
  16 active torsions:
  status: ('A' for Active; 'I' for Inactive)
    1  A    between atoms: S_1  and  N_23
    2  A    between atoms: S_1  and  C_49
    3  A    between atoms: C_4  and  O_50
    4  A    between atoms: C_5  and  C_13
    5  A    between atoms: C_11  and  C_24
    6  A    between atoms: C_11  and  C_39
    7  A    between atoms: C_11  and  O_50
    8  A    between atoms: C_14  and  C_33
    9  A    between atoms: C_19  and  C_29
   10  A    between atoms: C_22  and  C_33
   11  A    between atoms: N_23  and  C_43
   12  A    between atoms: C_24  and  N_25
   13  A    between atoms: C_29  and  C_33
   14  A    between atoms: C_30  and  C_49
   15  A    between atoms: C_32  and  C_47
   16  A    between atoms: C_32  and  C_49
                            x       y       z     vdW  Elec       q    Type
                         _______ _______ _______ _____ _____    ______ ____

>  <TORSDO>
F 16

$$$$
=
 OpenBabel11062419003D

 51 55  0  0  1  0  0  0  0  0999 V2000
  196.1040  174.0680  141.2610 N   0  0  0  0  0  0  0  0  0  0  0  0
  194.3450  174.3330  144.6420 C   0  0  2  0  0  3  0  0  0  0  0  0
  195.3200  176.2240  141.0920 C   0  0  0  0  0  0  0  0  0  0  0  0
  196.8950  172.9350  140.8760 C   0  0  0  0  0  0  0  0  0  0  0  0
  195.0630  173.6950  143.4730 C   0  0  0  0  0  0  0  0  0  0  0  0
  194.3140  176.2830  143.2350 O   0  0  0  0  0  0  0  0  0  0  0  0
  196.0030  174.5500  142.6430 C   0  0  2  0  0  3  0  0  0  0  0  0
  194.4570  175.8560  144.5660 C   0  0  1  0  0  3  0  0  0  0  0  0
  194.9900  172.4150  143.2370 N   0  0  0  0  0  0  0  0  0  0  0  0
  195.5270  176.0250  142.5530 C   0  0  1  0  0  0  0  0  0  0  0  0
  197.0090  172.5870  139.5350 O   0  0  0  0  0  0  0  0  0  0  0  0
  194.9430  177.2790  140.6020 O   0  0  0  0  0  0  0  0  0  0  0  0
  195.6350  175.0300  140.2820 C   0  0  0  0  0  2  0  0  0  0  0  0
  196.5340  176.8840  143.0000 O   0  0  0  0  0  1  0  0  0  0  0  0
  197.5020  172.2520  141.7440 O   0  0  0  0  0  1  0  0  0  0  0  0
  193.4450  176.5370  145.4820 C   0  0  2  0  0  3  0  0  0  0  0  0
  193.9810  176.7840  146.7500 O   0  0  0  0  0  1  0  0  0  0  0  0
  192.1480  175.7270  145.5520 C   0  0  2  0  0  3  0  0  0  0  0  0
  191.3340  176.7940  143.4490 C   0  0  0  0  0  2  0  0  0  0  0  0
  190.9880  176.4230  144.8330 C   0  0  1  0  0  0  0  0  0  0  0  0
  190.3870  175.5940  143.6520 C   0  0  2  0  0  0  0  0  0  0  0  0
  189.6730  175.7510  142.3150 C   0  0  0  0  0  2  0  0  0  0  0  0
  190.2810  177.5560  145.5710 C   0  0  0  0  0  1  0  0  0  0  0  0
  188.8460  175.8470  143.5440 C   0  0  2  0  0  3  0  0  0  0  0  0
  188.4110  177.2340  143.6600 N   0  0  0  0  0  2  0  0  0  0  0  0
  186.8880  177.4170  142.8450 S   0  0  0  0  0  0  0  0  0  0  0  0
  186.9210  178.6620  142.0000 O   0  0  0  0  0  0  0  0  0  0  0  0
  186.6280  176.2270  141.9600 O   0  0  0  0  0  0  0  0  0  0  0  0
  185.5800  177.5810  144.0600 C   0  0  1  0  0  3  0  0  0  0  0  0
  187.0270  178.9480  145.5820 O   0  0  0  0  0  1  0  0  0  0  0  0
  184.0880  176.9700  146.5410 F   0  0  0  0  0  0  0  0  0  0  0  0
  186.1450  177.8720  145.4630 C   0  0  1  0  0  0  0  0  0  0  0  0
  185.5140  178.4150  147.7920 F   0  0  0  0  0  0  0  0  0  0  0  0
  185.3100  177.5970  146.6960 C   0  0  0  0  0  0  0  0  0  0  0  0
  186.4990  176.7030  146.3730 C   0  0  0  0  0  2  0  0  0  0  0  0
  184.5090  178.5650  143.5920 C   0  0  0  0  0  2  0  0  0  0  0  0
  182.6760  178.4460  142.1250 O   0  0  0  0  0  0  0  0  0  0  0  0
  183.7750  178.0120  142.4180 C   0  0  0  0  0  3  0  0  0  0  0  0
  190.3550  174.8060  147.0210 C   0  0  0  0  0  1  0  0  0  0  0  0
  191.7800  175.3270  146.9770 C   0  0  0  0  0  2  0  0  0  0  0  0
  194.5430  170.8100  144.8890 O   0  0  0  0  0  0  0  0  0  0  0  0
  194.1400  171.4650  143.8910 C   0  0  0  0  0  0  0  0  0  0  0  0
  192.7340  171.3110  143.4160 C   0  0  1  0  0  3  0  0  0  0  0  0
  192.7580  169.2710  142.1770 O   0  0  0  0  0  1  0  0  0  0  0  0
  192.3480  169.8430  143.3820 C   0  0  0  0  0  2  0  0  0  0  0  0
  191.8380  172.0270  144.2560 O   0  0  0  0  0  0  0  0  0  0  0  0
  190.4650  172.0520  144.0220 C   0  0  0  0  0  0  0  0  0  0  0  0
  189.5600  171.9530  145.0750 O   0  0  0  0  0  1  0  0  0  0  0  0
  190.0390  172.1800  142.8450 O   0  0  0  0  0  0  0  0  0  0  0  0
  194.8830  173.8330  145.9580 C   0  0  0  0  0  3  0  0  0  0  0  0
  196.1610  173.9840  146.3100 C   0  0  0  0  0  2  0  0  0  0  0  0
  1  7  1  0  0  0  0
  2 50  1  1  0  0  0
  3 10  1  0  0  0  0
  4  1  1  0  0  0  0
  4 15  1  0  0  0  0
  5  2  1  0  0  0  0
  6  8  1  0  0  0  0
  7  5  1  1  0  0  0
  8  2  1  0  0  0  0
  8 16  1  1  0  0  0
  9  5  2  0  0  0  0
  9 42  1  0  0  0  0
 10  7  1  0  0  0  0
 10 14  1  1  0  0  0
 10  6  1  0  0  0  0
 11  4  2  0  0  0  0
 12  3  2  0  0  0  0
 13  3  1  0  0  0  0
 13  1  1  0  0  0  0
 16 18  1  0  0  0  0
 16 17  1  1  0  0  0
 18 40  1  1  0  0  0
 19 21  1  0  0  0  0
 19 20  1  0  0  0  0
 20 18  1  0  0  0  0
 20 23  1  1  0  0  0
 21 22  1  6  0  0  0
 21 20  1  0  0  0  0
 22 24  1  0  0  0  0
 24 21  1  0  0  0  0
 24 25  1  1  0  0  0
 26 25  1  0  0  0  0
 26 29  1  0  0  0  0
 27 26  2  0  0  0  0
 28 26  2  0  0  0  0
 29 36  1  6  0  0  0
 29 32  1  0  0  0  0
 31 34  1  0  0  0  0
 32 30  1  1  0  0  0
 32 35  1  0  0  0  0
 32 34  1  0  0  0  0
 34 33  1  0  0  0  0
 35 34  1  0  0  0  0
 37 38  2  0  0  0  0
 38 36  1  0  0  0  0
 40 39  1  0  0  0  0
 42 41  2  0  0  0  0
 43 45  1  1  0  0  0
 43 42  1  0  0  0  0
 43 46  1  0  0  0  0
 44 45  1  0  0  0  0
 47 46  1  0  0  0  0
 47 48  1  0  0  0  0
 49 47  2  0  0  0  0
 50 51  2  0  0  0  0
M  END
>  <MODEL>
2

>  <REMARK>
 VINA RESULT:      -6.7      2.062      3.530
  Name = 
  16 active torsions:
  status: ('A' for Active; 'I' for Inactive)
    1  A    between atoms: S_1  and  N_23
    2  A    between atoms: S_1  and  C_49
    3  A    between atoms: C_4  and  O_50
    4  A    between atoms: C_5  and  C_13
    5  A    between atoms: C_11  and  C_24
    6  A    between atoms: C_11  and  C_39
    7  A    between atoms: C_11  and  O_50
    8  A    between atoms: C_14  and  C_33
    9  A    between atoms: C_19  and  C_29
   10  A    between atoms: C_22  and  C_33
   11  A    between atoms: N_23  and  C_43
   12  A    between atoms: C_24  and  N_25
   13  A    between atoms: C_29  and  C_33
   14  A    between atoms: C_30  and  C_49
   15  A    between atoms: C_32  and  C_47
   16  A    between atoms: C_32  and  C_49
                            x       y       z     vdW  Elec       q    Type
                         _______ _______ _______ _____ _____    ______ ____

>  <TORSDO>
F 16

$$$$
=
 OpenBabel11062419003D

 51 55  0  0  1  0  0  0  0  0999 V2000
  196.7020  175.1390  140.6520 N   0  0  0  0  0  0  0  0  0  0  0  0
  193.7890  173.2070  142.1950 C   0  0  2  0  0  3  0  0  0  0  0  0
  196.5840  176.2210  142.6790 C   0  0  0  0  0  0  0  0  0  0  0  0
  197.2960  174.7900  139.3940 C   0  0  0  0  0  0  0  0  0  0  0  0
  194.7670  173.6790  141.1400 C   0  0  0  0  0  0  0  0  0  0  0  0
  194.8090  174.9150  143.5460 O   0  0  0  0  0  0  0  0  0  0  0  0
  196.1390  174.1540  141.5820 C   0  0  2  0  0  3  0  0  0  0  0  0
  194.2720  173.6180  143.5860 C   0  0  1  0  0  3  0  0  0  0  0  0
  194.5070  173.5760  139.8670 N   0  0  0  0  0  0  0  0  0  0  0  0
  196.1010  174.8440  142.9730 C   0  0  1  0  0  0  0  0  0  0  0  0
  197.8840  175.7700  138.6030 O   0  0  0  0  0  0  0  0  0  0  0  0
  196.7050  177.0890  143.5320 O   0  0  0  0  0  0  0  0  0  0  0  0
  196.9280  176.4380  141.2600 C   0  0  0  0  0  2  0  0  0  0  0  0
  196.9910  174.2150  143.8460 O   0  0  0  0  0  1  0  0  0  0  0  0
  197.3030  173.5920  139.0000 O   0  0  0  0  0  1  0  0  0  0  0  0
  193.1540  173.5090  144.6190 C   0  0  2  0  0  3  0  0  0  0  0  0
  193.3370  172.4080  145.4640 O   0  0  0  0  0  1  0  0  0  0  0  0
  191.7850  173.4880  143.9340 C   0  0  2  0  0  3  0  0  0  0  0  0
  191.8880  175.8920  144.5930 C   0  0  0  0  0  2  0  0  0  0  0  0
  191.0140  174.7960  144.1390 C   0  0  1  0  0  0  0  0  0  0  0  0
  191.4030  175.9240  143.1290 C   0  0  2  0  0  0  0  0  0  0  0  0
  191.4750  177.4390  142.9900 C   0  0  0  0  0  2  0  0  0  0  0  0
  189.7150  174.7300  144.9370 C   0  0  0  0  0  1  0  0  0  0  0  0
  190.1510  176.8000  142.7880 C   0  0  2  0  0  3  0  0  0  0  0  0
  189.3110  177.1890  143.9150 N   0  0  0  0  0  2  0  0  0  0  0  0
  187.6620  177.2910  143.3790 S   0  0  0  0  0  0  0  0  0  0  0  0
  187.5390  178.3810  142.3480 O   0  0  0  0  0  0  0  0  0  0  0  0
  187.2340  175.9830  142.7680 O   0  0  0  0  0  0  0  0  0  0  0  0
  186.6090  177.6970  144.7720 C   0  0  1  0  0  3  0  0  0  0  0  0
  184.6130  177.7610  143.2600 O   0  0  0  0  0  1  0  0  0  0  0  0
  184.8730  179.2320  146.6120 F   0  0  0  0  0  0  0  0  0  0  0  0
  185.2980  178.3650  144.3150 C   0  0  1  0  0  0  0  0  0  0  0  0
  183.0550  179.0780  145.0760 F   0  0  0  0  0  0  0  0  0  0  0  0
  184.4180  179.0840  145.3160 C   0  0  0  0  0  0  0  0  0  0  0  0
  185.2120  179.8850  144.2950 C   0  0  0  0  0  2  0  0  0  0  0  0
  186.4200  176.4930  145.6930 C   0  0  0  0  0  2  0  0  0  0  0  0
  187.6090  177.7780  147.2620 O   0  0  0  0  0  0  0  0  0  0  0  0
  187.2010  176.6740  146.9500 C   0  0  0  0  0  3  0  0  0  0  0  0
  190.0900  171.8380  143.1460 C   0  0  0  0  0  1  0  0  0  0  0  0
  190.9540  172.2680  144.3180 C   0  0  0  0  0  2  0  0  0  0  0  0
  192.2050  173.8240  139.4900 O   0  0  0  0  0  0  0  0  0  0  0  0
  193.2660  173.1820  139.2700 C   0  0  0  0  0  0  0  0  0  0  0  0
  193.2590  172.0320  138.3190 C   0  0  1  0  0  3  0  0  0  0  0  0
  194.6670  170.7690  136.8630 O   0  0  0  0  0  1  0  0  0  0  0  0
  194.6790  171.6430  137.9520 C   0  0  0  0  0  2  0  0  0  0  0  0
  192.5830  170.9170  138.8840 O   0  0  0  0  0  0  0  0  0  0  0  0
  191.3410  170.4900  138.4180 C   0  0  0  0  0  0  0  0  0  0  0  0
  191.0790  169.1360  138.2250 O   0  0  0  0  0  1  0  0  0  0  0  0
  190.4430  171.3380  138.1810 O   0  0  0  0  0  0  0  0  0  0  0  0
  193.5880  171.7140  142.1290 C   0  0  0  0  0  3  0  0  0  0  0  0
  194.5450  170.8500  142.4710 C   0  0  0  0  0  2  0  0  0  0  0  0
  1 13  1  0  0  0  0
  1  7  1  0  0  0  0
  2 50  1  1  0  0  0
  2  8  1  0  0  0  0
  3 10  1  0  0  0  0
  3 12  2  0  0  0  0
  4  1  1  0  0  0  0
  5  2  1  0  0  0  0
  6  8  1  0  0  0  0
  7  5  1  6  0  0  0
  7 10  1  0  0  0  0
  8 16  1  1  0  0  0
  9  5  2  0  0  0  0
 10  6  1  0  0  0  0
 10 14  1  1  0  0  0
 11  4  2  0  0  0  0
 13  3  1  0  0  0  0
 15  4  1  0  0  0  0
 16 17  1  6  0  0  0
 18 20  1  0  0  0  0
 18 40  1  1  0  0  0
 18 16  1  0  0  0  0
 20 19  1  0  0  0  0
 20 23  1  1  0  0  0
 21 22  1  6  0  0  0
 21 20  1  0  0  0  0
 21 19  1  0  0  0  0
 24 22  1  0  0  0  0
 24 21  1  0  0  0  0
 24 25  1  1  0  0  0
 26 25  1  0  0  0  0
 26 29  1  0  0  0  0
 27 26  2  0  0  0  0
 28 26  2  0  0  0  0
 29 36  1  6  0  0  0
 32 30  1  6  0  0  0
 32 29  1  0  0  0  0
 32 34  1  0  0  0  0
 33 34  1  0  0  0  0
 34 31  1  0  0  0  0
 35 32  1  0  0  0  0
 35 34  1  0  0  0  0
 36 38  1  0  0  0  0
 38 37  2  0  0  0  0
 39 40  1  0  0  0  0
 42 41  2  0  0  0  0
 42  9  1  0  0  0  0
 43 45  1  1  0  0  0
 43 46  1  0  0  0  0
 43 42  1  0  0  0  0
 44 45  1  0  0  0  0
 47 46  1  0  0  0  0
 48 47  1  0  0  0  0
 49 47  2  0  0  0  0
 50 51  2  0  0  0  0
M  END
>  <MODEL>
3

>  <REMARK>
 VINA RESULT:      -6.6      2.082      3.402
  Name = 
  16 active torsions:
  status: ('A' for Active; 'I' for Inactive)
    1  A    between atoms: S_1  and  N_23
    2  A    between atoms: S_1  and  C_49
    3  A    between atoms: C_4  and  O_50
    4  A    between atoms: C_5  and  C_13
    5  A    between atoms: C_11  and  C_24
    6  A    between atoms: C_11  and  C_39
    7  A    between atoms: C_11  and  O_50
    8  A    between atoms: C_14  and  C_33
    9  A    between atoms: C_19  and  C_29
   10  A    between atoms: C_22  and  C_33
   11  A    between atoms: N_23  and  C_43
   12  A    between atoms: C_24  and  N_25
   13  A    between atoms: C_29  and  C_33
   14  A    between atoms: C_30  and  C_49
   15  A    between atoms: C_32  and  C_47
   16  A    between atoms: C_32  and  C_49
                            x       y       z     vdW  Elec       q    Type
                         _______ _______ _______ _____ _____    ______ ____

>  <TORSDO>
F 16

$$$$
=
 OpenBabel11062419003D

 51 55  0  0  1  0  0  0  0  0999 V2000
  195.6070  173.3050  145.1500 N   0  0  0  0  0  0  0  0  0  0  0  0
  194.4250  172.5030  141.6060 C   0  0  2  0  0  3  0  0  0  0  0  0
  193.4720  174.1520  145.2810 C   0  0  0  0  0  0  0  0  0  0  0  0
  196.8730  172.8750  145.6700 C   0  0  0  0  0  0  0  0  0  0  0  0
  195.3760  172.6610  142.7740 C   0  0  0  0  0  0  0  0  0  0  0  0
  192.8400  173.5520  143.0790 O   0  0  0  0  0  0  0  0  0  0  0  0
  194.8250  172.5290  144.1820 C   0  0  2  0  0  3  0  0  0  0  0  0
  192.9770  172.5630  142.0910 C   0  0  1  0  0  3  0  0  0  0  0  0
  196.6620  172.7870  142.6000 N   0  0  0  0  0  0  0  0  0  0  0  0
  193.3650  173.0450  144.2910 C   0  0  1  0  0  0  0  0  0  0  0  0
  197.5170  173.6240  146.6480 O   0  0  0  0  0  1  0  0  0  0  0  0
  192.5180  174.8210  145.6490 O   0  0  0  0  0  0  0  0  0  0  0  0
  194.8410  174.3530  145.7980 C   0  0  0  0  0  2  0  0  0  0  0  0
  192.5380  172.0420  144.8030 O   0  0  0  0  0  1  0  0  0  0  0  0
  197.4070  171.8100  145.2580 O   0  0  0  0  0  0  0  0  0  0  0  0
  192.0100  172.7950  140.9330 C   0  0  2  0  0  3  0  0  0  0  0  0
  191.9010  174.1530  140.6150 O   0  0  0  0  0  1  0  0  0  0  0  0
  190.6480  172.1620  141.2320 C   0  0  2  0  0  3  0  0  0  0  0  0
  188.8610  172.5670  142.9260 C   0  0  0  0  0  2  0  0  0  0  0  0
  189.6630  173.1640  141.8420 C   0  0  1  0  0  0  0  0  0  0  0  0
  189.9850  173.5460  143.3230 C   0  0  2  0  0  0  0  0  0  0  0  0
  189.3230  174.0020  144.6170 C   0  0  0  0  0  2  0  0  0  0  0  0
  188.8070  173.9840  140.8810 C   0  0  0  0  0  1  0  0  0  0  0  0
  189.5990  175.0390  143.5920 C   0  0  2  0  0  3  0  0  0  0  0  0
  188.3100  175.4760  143.0670 N   0  0  0  0  0  2  0  0  0  0  0  0
  188.2620  177.2120  143.0650 S   0  0  0  0  0  0  0  0  0  0  0  0
  189.6640  177.7500  143.1480 O   0  0  0  0  0  0  0  0  0  0  0  0
  187.6150  177.7110  141.8000 O   0  0  0  0  0  0  0  0  0  0  0  0
  187.3430  177.7820  144.4950 C   0  0  1  0  0  3  0  0  0  0  0  0
  185.1640  177.2870  143.3610 O   0  0  0  0  0  1  0  0  0  0  0  0
  185.6970  179.5680  146.1870 F   0  0  0  0  0  0  0  0  0  0  0  0
  185.9080  178.1940  144.1180 C   0  0  1  0  0  0  0  0  0  0  0  0
  183.7190  178.8730  145.0510 F   0  0  0  0  0  0  0  0  0  0  0  0
  185.0900  179.0600  145.0540 C   0  0  0  0  0  0  0  0  0  0  0  0
  185.6280  179.6480  143.7570 C   0  0  0  0  0  2  0  0  0  0  0  0
  187.4330  176.7820  145.6460 C   0  0  0  0  0  2  0  0  0  0  0  0
  189.5770  177.2860  146.4670 O   0  0  0  0  0  0  0  0  0  0  0  0
  188.3800  177.2730  146.6880 C   0  0  0  0  0  3  0  0  0  0  0  0
  190.8660  169.6790  141.1570 C   0  0  0  0  0  1  0  0  0  0  0  0
  190.7610  170.8900  142.0670 C   0  0  0  0  0  2  0  0  0  0  0  0
  197.7990  171.9670  140.7190 O   0  0  0  0  0  0  0  0  0  0  0  0
  197.3520  172.9580  141.3570 C   0  0  0  0  0  0  0  0  0  0  0  0
  197.4740  174.3300  140.7850 C   0  0  1  0  0  3  0  0  0  0  0  0
  196.8680  174.0210  138.4970 O   0  0  0  0  0  1  0  0  0  0  0  0
  196.4240  174.5480  139.7100 C   0  0  0  0  0  2  0  0  0  0  0  0
  197.3360  175.3130  141.8020 O   0  0  0  0  0  0  0  0  0  0  0  0
  196.2490  176.1840  141.8470 C   0  0  0  0  0  0  0  0  0  0  0  0
  195.1280  175.8860  142.6160 O   0  0  0  0  0  1  0  0  0  0  0  0
  196.2880  177.2580  141.1930 O   0  0  0  0  0  0  0  0  0  0  0  0
  194.6760  171.2160  140.8620 C   0  0  0  0  0  3  0  0  0  0  0  0
  194.5900  170.0230  141.4530 C   0  0  0  0  0  2  0  0  0  0  0  0
  1  4  1  0  0  0  0
  1 13  1  0  0  0  0
  2 50  1  1  0  0  0
  2  8  1  0  0  0  0
  2  5  1  0  0  0  0
  3 12  2  0  0  0  0
  3 13  1  0  0  0  0
  4 11  1  0  0  0  0
  6 10  1  0  0  0  0
  7  5  1  6  0  0  0
  7 10  1  0  0  0  0
  7  1  1  0  0  0  0
  8 16  1  6  0  0  0
  8  6  1  0  0  0  0
  9  5  2  0  0  0  0
 10 14  1  1  0  0  0
 10  3  1  0  0  0  0
 15  4  2  0  0  0  0
 16 17  1  1  0  0  0
 16 18  1  0  0  0  0
 18 20  1  0  0  0  0
 18 40  1  1  0  0  0
 20 23  1  6  0  0  0
 20 19  1  0  0  0  0
 20 21  1  0  0  0  0
 21 19  1  6  0  0  0
 21 24  1  0  0  0  0
 21 22  1  0  0  0  0
 24 25  1  6  0  0  0
 24 22  1  0  0  0  0
 26 25  1  0  0  0  0
 26 27  2  0  0  0  0
 26 29  1  0  0  0  0
 28 26  2  0  0  0  0
 29 36  1  1  0  0  0
 32 30  1  6  0  0  0
 32 29  1  0  0  0  0
 32 34  1  0  0  0  0
 33 34  1  0  0  0  0
 34 31  1  0  0  0  0
 35 32  1  0  0  0  0
 35 34  1  0  0  0  0
 36 38  1  0  0  0  0
 37 38  2  0  0  0  0
 39 40  1  0  0  0  0
 41 42  2  0  0  0  0
 42  9  1  0  0  0  0
 43 45  1  6  0  0  0
 43 42  1  0  0  0  0
 43 46  1  0  0  0  0
 44 45  1  0  0  0  0
 46 47  1  0  0  0  0
 47 48  1  0  0  0  0
 49 47  2  0  0  0  0
 50 51  2  0  0  0  0
M  END
>  <MODEL>
4

>  <REMARK>
 VINA RESULT:      -6.4      2.196      4.478
  Name = 
  16 active torsions:
  status: ('A' for Active; 'I' for Inactive)
    1  A    between atoms: S_1  and  N_23
    2  A    between atoms: S_1  and  C_49
    3  A    between atoms: C_4  and  O_50
    4  A    between atoms: C_5  and  C_13
    5  A    between atoms: C_11  and  C_24
    6  A    between atoms: C_11  and  C_39
    7  A    between atoms: C_11  and  O_50
    8  A    between atoms: C_14  and  C_33
    9  A    between atoms: C_19  and  C_29
   10  A    between atoms: C_22  and  C_33
   11  A    between atoms: N_23  and  C_43
   12  A    between atoms: C_24  and  N_25
   13  A    between atoms: C_29  and  C_33
   14  A    between atoms: C_30  and  C_49
   15  A    between atoms: C_32  and  C_47
   16  A    between atoms: C_32  and  C_49
                            x       y       z     vdW  Elec       q    Type
                         _______ _______ _______ _____ _____    ______ ____

>  <TORSDO>
F 16

$$$$
=
 OpenBabel11062419003D

 51 55  0  0  1  0  0  0  0  0999 V2000
  195.5840  174.9650  140.2340 N   0  0  0  0  0  0  0  0  0  0  0  0
  192.6620  172.8350  139.0000 C   0  0  2  0  0  3  0  0  0  0  0  0
  193.9570  175.7140  141.6770 C   0  0  0  0  0  0  0  0  0  0  0  0
  196.9250  174.8150  139.7460 C   0  0  0  0  0  0  0  0  0  0  0  0
  194.0400  173.4620  139.0220 C   0  0  0  0  0  0  0  0  0  0  0  0
  192.2420  174.3010  140.8590 O   0  0  0  0  0  0  0  0  0  0  0  0
  194.6400  173.8500  140.3610 C   0  0  2  0  0  3  0  0  0  0  0  0
  191.9760  173.0170  140.3530 C   0  0  1  0  0  3  0  0  0  0  0  0
  194.7660  173.5630  137.9440 N   0  0  0  0  0  0  0  0  0  0  0  0
  193.5590  174.3110  141.3750 C   0  0  1  0  0  0  0  0  0  0  0  0
  197.7890  175.9030  139.7320 O   0  0  0  0  0  1  0  0  0  0  0  0
  193.3470  176.4350  142.4540 O   0  0  0  0  0  0  0  0  0  0  0  0
  195.1750  176.1500  140.9660 C   0  0  0  0  0  2  0  0  0  0  0  0
  193.6360  173.5450  142.5410 O   0  0  0  0  0  1  0  0  0  0  0  0
  197.3360  173.6950  139.3390 O   0  0  0  0  0  0  0  0  0  0  0  0
  190.4760  172.7550  140.2590 C   0  0  2  0  0  3  0  0  0  0  0  0
  189.7660  173.9210  139.9540 O   0  0  0  0  0  1  0  0  0  0  0  0
  189.9630  172.0850  141.5370 C   0  0  2  0  0  3  0  0  0  0  0  0
  189.4010  172.5780  143.9170 C   0  0  0  0  0  2  0  0  0  0  0  0
  189.4010  173.0990  142.5380 C   0  0  1  0  0  0  0  0  0  0  0  0
  190.4600  173.6390  143.5540 C   0  0  2  0  0  0  0  0  0  0  0  0
  190.5970  174.1900  144.9670 C   0  0  0  0  0  2  0  0  0  0  0  0
  188.0840  173.7830  142.1840 C   0  0  0  0  0  1  0  0  0  0  0  0
  190.1560  175.1330  143.9090 C   0  0  2  0  0  3  0  0  0  0  0  0
  188.7600  175.4590  144.1800 N   0  0  0  0  0  2  0  0  0  0  0  0
  188.6140  177.1780  144.3840 S   0  0  0  0  0  0  0  0  0  0  0  0
  189.5590  177.6350  145.4610 O   0  0  0  0  0  0  0  0  0  0  0  0
  188.9540  177.8830  143.0970 O   0  0  0  0  0  0  0  0  0  0  0  0
  186.9380  177.5760  144.8830 C   0  0  1  0  0  3  0  0  0  0  0  0
  186.0340  176.6980  142.7170 O   0  0  0  0  0  1  0  0  0  0  0  0
  184.3610  179.0240  145.0110 F   0  0  0  0  0  0  0  0  0  0  0  0
  186.0050  177.7220  143.6660 C   0  0  1  0  0  0  0  0  0  0  0  0
  183.6410  177.9860  142.9890 F   0  0  0  0  0  0  0  0  0  0  0  0
  184.6680  178.4190  143.8070 C   0  0  0  0  0  0  0  0  0  0  0  0
  185.8010  179.1010  143.0540 C   0  0  0  0  0  2  0  0  0  0  0  0
  186.4350  176.6100  145.9540 C   0  0  0  0  0  2  0  0  0  0  0  0
  186.4750  178.5030  147.3480 O   0  0  0  0  0  0  0  0  0  0  0  0
  186.3770  177.2920  147.2790 C   0  0  0  0  0  3  0  0  0  0  0  0
  190.7510  169.7290  141.7470 C   0  0  0  0  0  1  0  0  0  0  0  0
  190.9980  171.1640  142.1750 C   0  0  0  0  0  2  0  0  0  0  0  0
  194.6900  172.2000  136.0360 O   0  0  0  0  0  0  0  0  0  0  0  0
  194.3600  173.2770  136.6010 C   0  0  0  0  0  0  0  0  0  0  0  0
  193.4730  174.2480  135.8950 C   0  0  1  0  0  3  0  0  0  0  0  0
  195.1490  175.8450  135.3160 O   0  0  0  0  0  1  0  0  0  0  0  0
  194.2330  174.9400  134.7780 C   0  0  0  0  0  2  0  0  0  0  0  0
  192.3290  173.5910  135.3670 O   0  0  0  0  0  0  0  0  0  0  0  0
  191.0560  173.7710  135.9060 C   0  0  0  0  0  0  0  0  0  0  0  0
  190.3010  172.6820  136.3310 O   0  0  0  0  0  1  0  0  0  0  0  0
  190.5920  174.9340  136.0220 O   0  0  0  0  0  0  0  0  0  0  0  0
  192.7270  171.3740  138.6370 C   0  0  0  0  0  3  0  0  0  0  0  0
  193.4640  170.5000  139.3260 C   0  0  0  0  0  2  0  0  0  0  0  0
  1  7  1  0  0  0  0
  1 13  1  0  0  0  0
  2 50  1  1  0  0  0
  2  5  1  0  0  0  0
  2  8  1  0  0  0  0
  3 12  2  0  0  0  0
  4  1  1  0  0  0  0
  6 10  1  0  0  0  0
  7  5  1  6  0  0  0
  7 10  1  0  0  0  0
  8 16  1  6  0  0  0
  8  6  1  0  0  0  0
  9  5  2  0  0  0  0
 10  3  1  0  0  0  0
 10 14  1  1  0  0  0
 11  4  1  0  0  0  0
 13  3  1  0  0  0  0
 15  4  2  0  0  0  0
 16 17  1  1  0  0  0
 16 18  1  0  0  0  0
 18 40  1  1  0  0  0
 18 20  1  0  0  0  0
 20 23  1  6  0  0  0
 20 21  1  0  0  0  0
 20 19  1  0  0  0  0
 21 24  1  0  0  0  0
 21 19  1  1  0  0  0
 21 22  1  0  0  0  0
 24 25  1  1  0  0  0
 24 22  1  0  0  0  0
 25 26  1  0  0  0  0
 26 29  1  0  0  0  0
 26 27  2  0  0  0  0
 28 26  2  0  0  0  0
 29 36  1  1  0  0  0
 32 30  1  6  0  0  0
 32 34  1  0  0  0  0
 32 29  1  0  0  0  0
 33 34  1  0  0  0  0
 34 31  1  0  0  0  0
 35 32  1  0  0  0  0
 35 34  1  0  0  0  0
 36 38  1  0  0  0  0
 38 37  2  0  0  0  0
 39 40  1  0  0  0  0
 41 42  2  0  0  0  0
 42  9  1  0  0  0  0
 43 45  1  6  0  0  0
 43 42  1  0  0  0  0
 45 44  1  0  0  0  0
 46 43  1  0  0  0  0
 46 47  1  0  0  0  0
 47 49  2  0  0  0  0
 47 48  1  0  0  0  0
 50 51  2  0  0  0  0
M  END
>  <MODEL>
5

>  <REMARK>
 VINA RESULT:      -6.3      2.744      4.551
  Name = 
  16 active torsions:
  status: ('A' for Active; 'I' for Inactive)
    1  A    between atoms: S_1  and  N_23
    2  A    between atoms: S_1  and  C_49
    3  A    between atoms: C_4  and  O_50
    4  A    between atoms: C_5  and  C_13
    5  A    between atoms: C_11  and  C_24
    6  A    between atoms: C_11  and  C_39
    7  A    between atoms: C_11  and  O_50
    8  A    between atoms: C_14  and  C_33
    9  A    between atoms: C_19  and  C_29
   10  A    between atoms: C_22  and  C_33
   11  A    between atoms: N_23  and  C_43
   12  A    between atoms: C_24  and  N_25
   13  A    between atoms: C_29  and  C_33
   14  A    between atoms: C_30  and  C_49
   15  A    between atoms: C_32  and  C_47
   16  A    between atoms: C_32  and  C_49
                            x       y       z     vdW  Elec       q    Type
                         _______ _______ _______ _____ _____    ______ ____

>  <TORSDO>
F 16

$$$$
=
 OpenBabel11062419003D

 51 55  0  0  1  0  0  0  0  0999 V2000
  190.9120  172.2820  139.3100 N   0  0  0  0  0  0  0  0  0  0  0  0
  193.5970  174.3170  141.1120 C   0  0  2  0  0  3  0  0  0  0  0  0
  190.5550  171.5320  141.4550 C   0  0  0  0  0  0  0  0  0  0  0  0
  190.6020  172.4500  137.9200 C   0  0  0  0  0  0  0  0  0  0  0  0
  192.8130  173.7220  139.9610 C   0  0  0  0  0  0  0  0  0  0  0  0
  192.2140  172.8870  142.4630 O   0  0  0  0  0  0  0  0  0  0  0  0
  191.3510  173.3790  140.1790 C   0  0  2  0  0  3  0  0  0  0  0  0
  192.8240  174.1520  142.4200 C   0  0  1  0  0  3  0  0  0  0  0  0
  193.3240  173.6110  138.7670 N   0  0  0  0  0  0  0  0  0  0  0  0
  191.0680  172.9180  141.6340 C   0  0  1  0  0  0  0  0  0  0  0  0
  190.1120  171.3800  137.1790 O   0  0  0  0  0  0  0  0  0  0  0  0
  190.2080  170.8160  142.3840 O   0  0  0  0  0  0  0  0  0  0  0  0
  190.4800  171.1060  140.0430 C   0  0  0  0  0  2  0  0  0  0  0  0
  190.0710  173.7130  142.2050 O   0  0  0  0  0  1  0  0  0  0  0  0
  190.7570  173.5690  137.3590 O   0  0  0  0  0  1  0  0  0  0  0  0
  193.7230  174.3800  143.6320 C   0  0  2  0  0  3  0  0  0  0  0  0
  194.8320  173.5270  143.6190 O   0  0  0  0  0  1  0  0  0  0  0  0
  192.9190  174.2610  144.9300 C   0  0  2  0  0  3  0  0  0  0  0  0
  192.1620  176.5480  145.5790 C   0  0  0  0  0  2  0  0  0  0  0  0
  191.7590  175.2590  144.9890 C   0  0  1  0  0  0  0  0  0  0  0  0
  191.9420  176.4980  144.0530 C   0  0  2  0  0  0  0  0  0  0  0  0
  191.5640  177.9670  143.9180 C   0  0  0  0  0  2  0  0  0  0  0  0
  190.4300  174.7620  145.5510 C   0  0  0  0  0  1  0  0  0  0  0  0
  190.5560  176.9630  143.4940 C   0  0  2  0  0  3  0  0  0  0  0  0
  189.4610  177.0240  144.4560 N   0  0  0  0  0  2  0  0  0  0  0  0
  187.9580  177.1360  143.5920 S   0  0  0  0  0  0  0  0  0  0  0  0
  188.0940  178.1440  142.4840 O   0  0  0  0  0  0  0  0  0  0  0  0
  187.6000  175.7980  143.0010 O   0  0  0  0  0  0  0  0  0  0  0  0
  186.6700  177.6820  144.7120 C   0  0  1  0  0  3  0  0  0  0  0  0
  185.0800  177.7090  142.7750 O   0  0  0  0  0  1  0  0  0  0  0  0
  184.5450  179.2290  146.0730 F   0  0  0  0  0  0  0  0  0  0  0  0
  185.4980  178.3330  143.9520 C   0  0  1  0  0  0  0  0  0  0  0  0
  183.1360  179.0390  144.1580 F   0  0  0  0  0  0  0  0  0  0  0  0
  184.4050  179.0590  144.7090 C   0  0  0  0  0  0  0  0  0  0  0  0
  185.4120  179.8520  143.8890 C   0  0  0  0  0  2  0  0  0  0  0  0
  186.2600  176.5670  145.6720 C   0  0  0  0  0  2  0  0  0  0  0  0
  186.9810  177.9220  147.4520 O   0  0  0  0  0  0  0  0  0  0  0  0
  186.8660  176.7920  147.0160 C   0  0  0  0  0  3  0  0  0  0  0  0
  194.9240  175.3280  145.9600 C   0  0  0  0  0  1  0  0  0  0  0  0
  193.7990  174.3320  146.1750 C   0  0  0  0  0  2  0  0  0  0  0  0
  195.6030  173.0590  138.7070 O   0  0  0  0  0  0  0  0  0  0  0  0
  194.6820  173.8560  138.3840 C   0  0  0  0  0  0  0  0  0  0  0  0
  194.9860  175.0410  137.5290 C   0  0  1  0  0  3  0  0  0  0  0  0
  196.9780  174.8140  136.2320 O   0  0  0  0  0  1  0  0  0  0  0  0
  195.5990  174.5960  136.2120 C   0  0  0  0  0  2  0  0  0  0  0  0
  193.8100  175.7990  137.2830 O   0  0  0  0  0  0  0  0  0  0  0  0
  193.4490  176.2100  136.0010 C   0  0  0  0  0  0  0  0  0  0  0  0
  193.9680  177.3810  135.4560 O   0  0  0  0  0  1  0  0  0  0  0  0
  192.6550  175.5070  135.3250 O   0  0  0  0  0  0  0  0  0  0  0  0
  193.9130  175.7710  140.8690 C   0  0  0  0  0  3  0  0  0  0  0  0
  195.1190  176.2880  141.1100 C   0  0  0  0  0  2  0  0  0  0  0  0
  1 13  1  0  0  0  0
  1  7  1  0  0  0  0
  2 50  1  6  0  0  0
  2  8  1  0  0  0  0
  3 10  1  0  0  0  0
  3 12  2  0  0  0  0
  4  1  1  0  0  0  0
  5  2  1  0  0  0  0
  7  5  1  1  0  0  0
  7 10  1  0  0  0  0
  8  6  1  0  0  0  0
  8 16  1  1  0  0  0
  9  5  2  0  0  0  0
 10 14  1  1  0  0  0
 10  6  1  0  0  0  0
 11  4  2  0  0  0  0
 13  3  1  0  0  0  0
 15  4  1  0  0  0  0
 16 17  1  1  0  0  0
 16 18  1  0  0  0  0
 18 20  1  0  0  0  0
 18 40  1  1  0  0  0
 20 23  1  1  0  0  0
 20 19  1  0  0  0  0
 21 22  1  6  0  0  0
 21 20  1  0  0  0  0
 21 19  1  0  0  0  0
 24 22  1  0  0  0  0
 24 21  1  0  0  0  0
 24 25  1  1  0  0  0
 26 25  1  0  0  0  0
 26 29  1  0  0  0  0
 27 26  2  0  0  0  0
 28 26  2  0  0  0  0
 29 36  1  6  0  0  0
 32 30  1  6  0  0  0
 32 34  1  0  0  0  0
 32 29  1  0  0  0  0
 33 34  1  0  0  0  0
 34 31  1  0  0  0  0
 35 32  1  0  0  0  0
 35 34  1  0  0  0  0
 36 38  1  0  0  0  0
 38 37  2  0  0  0  0
 39 40  1  0  0  0  0
 42 41  2  0  0  0  0
 42  9  1  0  0  0  0
 43 45  1  6  0  0  0
 43 42  1  0  0  0  0
 45 44  1  0  0  0  0
 46 43  1  0  0  0  0
 47 46  1  0  0  0  0
 48 47  1  0  0  0  0
 49 47  2  0  0  0  0
 50 51  2  0  0  0  0
M  END
>  <MODEL>
6

>  <REMARK>
 VINA RESULT:      -6.2      2.338      4.297
  Name = 
  16 active torsions:
  status: ('A' for Active; 'I' for Inactive)
    1  A    between atoms: S_1  and  N_23
    2  A    between atoms: S_1  and  C_49
    3  A    between atoms: C_4  and  O_50
    4  A    between atoms: C_5  and  C_13
    5  A    between atoms: C_11  and  C_24
    6  A    between atoms: C_11  and  C_39
    7  A    between atoms: C_11  and  O_50
    8  A    between atoms: C_14  and  C_33
    9  A    between atoms: C_19  and  C_29
   10  A    between atoms: C_22  and  C_33
   11  A    between atoms: N_23  and  C_43
   12  A    between atoms: C_24  and  N_25
   13  A    between atoms: C_29  and  C_33
   14  A    between atoms: C_30  and  C_49
   15  A    between atoms: C_32  and  C_47
   16  A    between atoms: C_32  and  C_49
                            x       y       z     vdW  Elec       q    Type
                         _______ _______ _______ _____ _____    ______ ____

>  <TORSDO>
F 16

$$$$
=
 OpenBabel11062419003D

 51 55  0  0  1  0  0  0  0  0999 V2000
  195.5000  171.0020  144.1390 N   0  0  0  0  0  0  0  0  0  0  0  0
  193.3070  172.5760  141.4350 C   0  0  2  0  0  3  0  0  0  0  0  0
  193.6210  169.6990  144.3940 C   0  0  0  0  0  0  0  0  0  0  0  0
  196.8740  171.3620  144.3420 C   0  0  0  0  0  0  0  0  0  0  0  0
  194.4820  172.4020  142.3730 C   0  0  0  0  0  0  0  0  0  0  0  0
  192.3820  170.7210  142.6550 O   0  0  0  0  0  0  0  0  0  0  0  0
  194.8510  171.0000  142.8230 C   0  0  2  0  0  3  0  0  0  0  0  0
  192.4830  171.2890  141.3740 C   0  0  1  0  0  3  0  0  0  0  0  0
  195.2510  173.4020  142.7040 N   0  0  0  0  0  0  0  0  0  0  0  0
  193.6070  170.0810  142.9550 C   0  0  1  0  0  0  0  0  0  0  0  0
  197.4430  171.2600  145.6060 O   0  0  0  0  0  1  0  0  0  0  0  0
  192.7890  168.9620  144.9040 O   0  0  0  0  0  0  0  0  0  0  0  0
  194.7520  170.2760  145.1490 C   0  0  0  0  0  2  0  0  0  0  0  0
  193.7690  168.9370  142.1700 O   0  0  0  0  0  1  0  0  0  0  0  0
  197.5810  171.7620  143.3780 O   0  0  0  0  0  0  0  0  0  0  0  0
  191.1070  171.5360  140.7630 C   0  0  2  0  0  3  0  0  0  0  0  0
  190.9620  170.8790  139.5360 O   0  0  0  0  0  1  0  0  0  0  0  0
  190.8270  173.0370  140.6500 C   0  0  2  0  0  3  0  0  0  0  0  0
  189.4650  172.4550  142.6580 C   0  0  0  0  0  2  0  0  0  0  0  0
  189.9240  173.5450  141.7780 C   0  0  1  0  0  0  0  0  0  0  0  0
  190.5520  173.4050  143.2030 C   0  0  2  0  0  0  0  0  0  0  0  0
  190.1770  173.2210  144.6680 C   0  0  0  0  0  2  0  0  0  0  0  0
  188.7880  174.4920  141.3990 C   0  0  0  0  0  1  0  0  0  0  0  0
  190.0990  174.5960  144.1130 C   0  0  2  0  0  3  0  0  0  0  0  0
  188.6860  174.9520  144.0510 N   0  0  0  0  0  2  0  0  0  0  0  0
  188.3840  176.2540  145.1610 S   0  0  0  0  0  0  0  0  0  0  0  0
  188.2220  175.6970  146.5490 O   0  0  0  0  0  0  0  0  0  0  0  0
  189.5370  177.2220  145.1490 O   0  0  0  0  0  0  0  0  0  0  0  0
  186.8680  177.0910  144.6970 C   0  0  1  0  0  3  0  0  0  0  0  0
  186.9060  178.2910  146.8950 O   0  0  0  0  0  1  0  0  0  0  0  0
  184.0630  178.0260  144.5900 F   0  0  0  0  0  0  0  0  0  0  0  0
  186.1310  177.6500  145.9280 C   0  0  1  0  0  0  0  0  0  0  0  0
  184.3440  179.2030  146.6450 F   0  0  0  0  0  0  0  0  0  0  0  0
  184.7160  178.1730  145.7990 C   0  0  0  0  0  0  0  0  0  0  0  0
  184.9720  176.8560  146.5180 C   0  0  0  0  0  2  0  0  0  0  0  0
  187.1160  178.1130  143.5890 C   0  0  0  0  0  2  0  0  0  0  0  0
  187.0140  177.9140  141.2490 O   0  0  0  0  0  0  0  0  0  0  0  0
  186.4860  177.6600  142.3160 C   0  0  0  0  0  3  0  0  0  0  0  0
  191.4610  173.7900  138.3590 C   0  0  0  0  0  1  0  0  0  0  0  0
  190.3030  173.4360  139.2740 C   0  0  0  0  0  2  0  0  0  0  0  0
  195.5780  175.3180  141.3920 O   0  0  0  0  0  0  0  0  0  0  0  0
  195.0430  174.7860  142.4010 C   0  0  0  0  0  0  0  0  0  0  0  0
  194.1200  175.5810  143.2620 C   0  0  1  0  0  3  0  0  0  0  0  0
  192.3230  177.1420  143.0830 O   0  0  0  0  0  1  0  0  0  0  0  0
  192.9180  176.0430  142.4590 C   0  0  0  0  0  2  0  0  0  0  0  0
  193.6900  174.8140  144.3790 O   0  0  0  0  0  0  0  0  0  0  0  0
  193.7590  175.3020  145.6830 C   0  0  0  0  0  0  0  0  0  0  0  0
  192.6250  175.7940  146.3210 O   0  0  0  0  0  1  0  0  0  0  0  0
  194.8590  175.2840  146.2930 O   0  0  0  0  0  0  0  0  0  0  0  0
  193.7590  172.9750  140.0540 C   0  0  0  0  0  3  0  0  0  0  0  0
  194.6550  172.2670  139.3650 C   0  0  0  0  0  2  0  0  0  0  0  0
  1  4  1  0  0  0  0
  1 13  1  0  0  0  0
  2 50  1  6  0  0  0
  2  5  1  0  0  0  0
  3 12  2  0  0  0  0
  3 13  1  0  0  0  0
  4 11  1  0  0  0  0
  5  9  2  0  0  0  0
  6 10  1  0  0  0  0
  7  5  1  1  0  0  0
  7 10  1  0  0  0  0
  7  1  1  0  0  0  0
  8 16  1  1  0  0  0
  8  2  1  0  0  0  0
  8  6  1  0  0  0  0
 10 14  1  6  0  0  0
 10  3  1  0  0  0  0
 15  4  2  0  0  0  0
 16 17  1  6  0  0  0
 18 40  1  6  0  0  0
 18 16  1  0  0  0  0
 18 20  1  0  0  0  0
 20 23  1  6  0  0  0
 20 19  1  0  0  0  0
 20 21  1  0  0  0  0
 21 19  1  1  0  0  0
 21 24  1  0  0  0  0
 21 22  1  0  0  0  0
 24 25  1  6  0  0  0
 24 22  1  0  0  0  0
 25 26  1  0  0  0  0
 26 27  2  0  0  0  0
 28 26  2  0  0  0  0
 29 36  1  6  0  0  0
 29 26  1  0  0  0  0
 29 32  1  0  0  0  0
 31 34  1  0  0  0  0
 32 35  1  0  0  0  0
 32 30  1  1  0  0  0
 34 32  1  0  0  0  0
 34 35  1  0  0  0  0
 34 33  1  0  0  0  0
 37 38  2  0  0  0  0
 38 36  1  0  0  0  0
 39 40  1  0  0  0  0
 41 42  2  0  0  0  0
 42  9  1  0  0  0  0
 42 43  1  0  0  0  0
 43 45  1  6  0  0  0
 43 46  1  0  0  0  0
 45 44  1  0  0  0  0
 46 47  1  0  0  0  0
 47 49  2  0  0  0  0
 47 48  1  0  0  0  0
 51 50  2  0  0  0  0
M  END
>  <MODEL>
7

>  <REMARK>
 VINA RESULT:      -6.1      2.274      4.831
  Name = 
  16 active torsions:
  status: ('A' for Active; 'I' for Inactive)
    1  A    between atoms: S_1  and  N_23
    2  A    between atoms: S_1  and  C_49
    3  A    between atoms: C_4  and  O_50
    4  A    between atoms: C_5  and  C_13
    5  A    between atoms: C_11  and  C_24
    6  A    between atoms: C_11  and  C_39
    7  A    between atoms: C_11  and  O_50
    8  A    between atoms: C_14  and  C_33
    9  A    between atoms: C_19  and  C_29
   10  A    between atoms: C_22  and  C_33
   11  A    between atoms: N_23  and  C_43
   12  A    between atoms: C_24  and  N_25
   13  A    between atoms: C_29  and  C_33
   14  A    between atoms: C_30  and  C_49
   15  A    between atoms: C_32  and  C_47
   16  A    between atoms: C_32  and  C_49
                            x       y       z     vdW  Elec       q    Type
                         _______ _______ _______ _____ _____    ______ ____

>  <TORSDO>
F 16

$$$$
=
 OpenBabel11062419003D

 51 55  0  0  1  0  0  0  0  0999 V2000
  190.5680  171.7170  138.6290 N   0  0  0  0  0  0  0  0  0  0  0  0
  193.2920  173.5370  140.5950 C   0  0  2  0  0  3  0  0  0  0  0  0
  190.9420  170.1460  140.2680 C   0  0  0  0  0  0  0  0  0  0  0  0
  189.8630  172.3130  137.5320 C   0  0  0  0  0  0  0  0  0  0  0  0
  192.3240  173.2420  139.4690 C   0  0  0  0  0  0  0  0  0  0  0  0
  192.5810  171.3980  141.4310 O   0  0  0  0  0  0  0  0  0  0  0  0
  191.0530  172.4760  139.7870 C   0  0  2  0  0  3  0  0  0  0  0  0
  192.9480  172.6960  141.8240 C   0  0  1  0  0  3  0  0  0  0  0  0
  192.4950  173.7280  138.2720 N   0  0  0  0  0  0  0  0  0  0  0  0
  191.2600  171.4430  140.9260 C   0  0  1  0  0  0  0  0  0  0  0  0
  189.3610  171.5170  136.5090 O   0  0  0  0  0  0  0  0  0  0  0  0
  190.9840  169.0690  140.8450 O   0  0  0  0  0  0  0  0  0  0  0  0
  190.5470  170.2830  138.8510 C   0  0  0  0  0  2  0  0  0  0  0  0
  190.3480  171.6760  141.9590 O   0  0  0  0  0  1  0  0  0  0  0  0
  189.6780  173.5600  137.4900 O   0  0  0  0  0  1  0  0  0  0  0  0
  194.1000  172.6710  142.8240 C   0  0  2  0  0  3  0  0  0  0  0  0
  195.0810  171.7420  142.4590 O   0  0  0  0  0  1  0  0  0  0  0  0
  193.5780  172.4300  144.2440 C   0  0  2  0  0  3  0  0  0  0  0  0
  193.2060  174.1950  145.9670 C   0  0  0  0  0  2  0  0  0  0  0  0
  192.6860  173.5730  144.7360 C   0  0  1  0  0  0  0  0  0  0  0  0
  193.3570  174.9820  144.6490 C   0  0  2  0  0  0  0  0  0  0  0  0
  193.3540  176.3570  145.3060 C   0  0  0  0  0  2  0  0  0  0  0  0
  191.1850  173.3100  144.8170 C   0  0  0  0  0  1  0  0  0  0  0  0
  192.2840  176.0730  144.3170 C   0  0  2  0  0  3  0  0  0  0  0  0
  191.0300  175.9880  145.0560 N   0  0  0  0  0  2  0  0  0  0  0  0
  189.9190  177.1610  144.4170 S   0  0  0  0  0  0  0  0  0  0  0  0
  189.1350  177.7730  145.5460 O   0  0  0  0  0  0  0  0  0  0  0  0
  190.6720  178.2460  143.6930 O   0  0  0  0  0  0  0  0  0  0  0  0
  188.7780  176.3490  143.2980 C   0  0  1  0  0  3  0  0  0  0  0  0
  188.4510  178.0890  141.5250 O   0  0  0  0  0  1  0  0  0  0  0  0
  185.8490  176.0000  143.0550 F   0  0  0  0  0  0  0  0  0  0  0  0
  187.8770  177.3660  142.5720 C   0  0  1  0  0  0  0  0  0  0  0  0
  185.7720  177.6080  141.2950 F   0  0  0  0  0  0  0  0  0  0  0  0
  186.3930  177.1030  142.4240 C   0  0  0  0  0  0  0  0  0  0  0  0
  186.8770  178.1790  143.3850 C   0  0  0  0  0  2  0  0  0  0  0  0
  189.5060  175.3750  142.3740 C   0  0  0  0  0  2  0  0  0  0  0  0
  187.8480  173.7680  141.9320 O   0  0  0  0  0  0  0  0  0  0  0  0
  188.5320  174.6730  141.4900 C   0  0  0  0  0  3  0  0  0  0  0  0
  194.5040  170.7090  145.7920 C   0  0  0  0  0  1  0  0  0  0  0  0
  194.6930  172.1070  145.2330 C   0  0  0  0  0  2  0  0  0  0  0  0
  193.5940  175.6850  137.5910 O   0  0  0  0  0  0  0  0  0  0  0  0
  193.6370  174.4410  137.7850 C   0  0  0  0  0  0  0  0  0  0  0  0
  194.9140  173.6980  137.5750 C   0  0  1  0  0  3  0  0  0  0  0  0
  195.7130  171.8220  136.3340 O   0  0  0  0  0  1  0  0  0  0  0  0
  194.6290  172.2920  137.0780 C   0  0  0  0  0  2  0  0  0  0  0  0
  195.7460  174.3800  136.6460 O   0  0  0  0  0  0  0  0  0  0  0  0
  196.7690  175.2320  137.0560 C   0  0  0  0  0  0  0  0  0  0  0  0
  197.2100  176.2640  136.2320 O   0  0  0  0  0  0  0  0  0  0  0  0
  197.2910  175.0740  138.1890 O   0  0  0  0  0  1  0  0  0  0  0  0
  193.2960  175.0030  140.9470 C   0  0  0  0  0  3  0  0  0  0  0  0
  194.4240  175.7050  141.0660 C   0  0  0  0  0  2  0  0  0  0  0  0
  1 13  1  0  0  0  0
  1  7  1  0  0  0  0
  2 50  1  1  0  0  0
  2  8  1  0  0  0  0
  3 12  2  0  0  0  0
  3 10  1  0  0  0  0
  4  1  1  0  0  0  0
  5  2  1  0  0  0  0
  6  8  1  0  0  0  0
  7  5  1  6  0  0  0
  7 10  1  0  0  0  0
  8 16  1  1  0  0  0
  9  5  2  0  0  0  0
 10  6  1  0  0  0  0
 10 14  1  1  0  0  0
 11  4  2  0  0  0  0
 13  3  1  0  0  0  0
 15  4  1  0  0  0  0
 16 17  1  6  0  0  0
 16 18  1  0  0  0  0
 18 20  1  0  0  0  0
 18 40  1  1  0  0  0
 20 23  1  6  0  0  0
 20 19  1  0  0  0  0
 21 20  1  0  0  0  0
 21 22  1  6  0  0  0
 21 19  1  0  0  0  0
 24 21  1  0  0  0  0
 24 25  1  1  0  0  0
 24 22  1  0  0  0  0
 26 25  1  0  0  0  0
 26 27  2  0  0  0  0
 28 26  2  0  0  0  0
 29 36  1  6  0  0  0
 29 26  1  0  0  0  0
 32 30  1  6  0  0  0
 32 29  1  0  0  0  0
 32 35  1  0  0  0  0
 33 34  1  0  0  0  0
 34 32  1  0  0  0  0
 34 31  1  0  0  0  0
 34 35  1  0  0  0  0
 38 37  2  0  0  0  0
 38 36  1  0  0  0  0
 40 39  1  0  0  0  0
 41 42  2  0  0  0  0
 42  9  1  0  0  0  0
 43 45  1  6  0  0  0
 43 42  1  0  0  0  0
 44 45  1  0  0  0  0
 46 47  1  0  0  0  0
 46 43  1  0  0  0  0
 47 49  1  0  0  0  0
 48 47  2  0  0  0  0
 50 51  2  0  0  0  0
M  END
>  <MODEL>
8

>  <REMARK>
 VINA RESULT:      -6.1      2.888      5.348
  Name = 
  16 active torsions:
  status: ('A' for Active; 'I' for Inactive)
    1  A    between atoms: S_1  and  N_23
    2  A    between atoms: S_1  and  C_49
    3  A    between atoms: C_4  and  O_50
    4  A    between atoms: C_5  and  C_13
    5  A    between atoms: C_11  and  C_24
    6  A    between atoms: C_11  and  C_39
    7  A    between atoms: C_11  and  O_50
    8  A    between atoms: C_14  and  C_33
    9  A    between atoms: C_19  and  C_29
   10  A    between atoms: C_22  and  C_33
   11  A    between atoms: N_23  and  C_43
   12  A    between atoms: C_24  and  N_25
   13  A    between atoms: C_29  and  C_33
   14  A    between atoms: C_30  and  C_49
   15  A    between atoms: C_32  and  C_47
   16  A    between atoms: C_32  and  C_49
                            x       y       z     vdW  Elec       q    Type
                         _______ _______ _______ _____ _____    ______ ____

>  <TORSDO>
F 16

$$$$
=
 OpenBabel11062419003D

 51 55  0  0  1  0  0  0  0  0999 V2000
  195.1800  175.2350  143.5990 N   0  0  0  0  0  0  0  0  0  0  0  0
  192.9460  172.6540  141.8840 C   0  0  2  0  0  3  0  0  0  0  0  0
  193.2260  175.6290  144.7460 C   0  0  0  0  0  0  0  0  0  0  0  0
  196.5880  175.3450  143.3460 C   0  0  0  0  0  0  0  0  0  0  0  0
  194.1620  173.5170  142.1400 C   0  0  0  0  0  0  0  0  0  0  0  0
  191.9600  173.9570  143.6470 O   0  0  0  0  0  0  0  0  0  0  0  0
  194.4490  173.9640  143.5620 C   0  0  2  0  0  3  0  0  0  0  0  0
  192.0230  172.6640  143.1010 C   0  0  1  0  0  3  0  0  0  0  0  0
  195.0270  173.7830  141.2010 N   0  0  0  0  0  0  0  0  0  0  0  0
  193.1480  174.1890  144.3790 C   0  0  1  0  0  0  0  0  0  0  0  0
  197.2280  176.5720  143.4800 O   0  0  0  0  0  1  0  0  0  0  0  0
  192.3730  176.2030  145.4100 O   0  0  0  0  0  0  0  0  0  0  0  0
  194.4440  176.3020  144.2530 C   0  0  0  0  0  2  0  0  0  0  0  0
  193.1690  173.4120  145.5400 O   0  0  0  0  0  1  0  0  0  0  0  0
  197.2600  174.3320  143.0130 O   0  0  0  0  0  0  0  0  0  0  0  0
  190.6330  172.1380  142.7530 C   0  0  2  0  0  3  0  0  0  0  0  0
  190.6510  170.7630  142.4990 O   0  0  0  0  0  1  0  0  0  0  0  0
  190.0300  172.9320  141.5910 C   0  0  2  0  0  3  0  0  0  0  0  0
  189.3580  174.6130  143.3070 C   0  0  0  0  0  2  0  0  0  0  0  0
  188.9690  173.9320  142.0590 C   0  0  1  0  0  0  0  0  0  0  0  0
  189.4340  175.4240  141.9970 C   0  0  2  0  0  0  0  0  0  0  0  0
  189.2150  176.7790  142.6570 C   0  0  0  0  0  2  0  0  0  0  0  0
  187.5190  173.4570  142.0940 C   0  0  0  0  0  1  0  0  0  0  0  0
  188.2270  176.3520  141.6360 C   0  0  2  0  0  3  0  0  0  0  0  0
  186.9760  176.0840  142.3360 N   0  0  0  0  0  2  0  0  0  0  0  0
  186.2170  177.5950  142.7320 S   0  0  0  0  0  0  0  0  0  0  0  0
  186.7410  178.6700  141.8200 O   0  0  0  0  0  0  0  0  0  0  0  0
  184.7250  177.4860  142.5610 O   0  0  0  0  0  0  0  0  0  0  0  0
  186.6140  178.0330  144.4240 C   0  0  1  0  0  3  0  0  0  0  0  0
  185.1870  180.0870  144.2900 O   0  0  0  0  0  1  0  0  0  0  0  0
  184.4870  177.0530  146.2330 F   0  0  0  0  0  0  0  0  0  0  0  0
  185.5480  178.9630  145.0340 C   0  0  1  0  0  0  0  0  0  0  0  0
  183.2240  179.0450  145.8780 F   0  0  0  0  0  0  0  0  0  0  0  0
  184.4450  178.3950  145.9020 C   0  0  0  0  0  0  0  0  0  0  0  0
  185.5600  179.2140  146.5360 C   0  0  0  0  0  2  0  0  0  0  0  0
  186.9250  176.7920  145.2600 C   0  0  0  0  0  2  0  0  0  0  0  0
  188.3050  177.1730  147.1240 O   0  0  0  0  0  0  0  0  0  0  0  0
  188.2480  176.9380  145.9310 C   0  0  0  0  0  3  0  0  0  0  0  0
  190.1290  172.4520  139.1460 C   0  0  0  0  0  1  0  0  0  0  0  0
  189.5160  172.0340  140.4700 C   0  0  0  0  0  2  0  0  0  0  0  0
  195.1350  172.3100  139.3790 O   0  0  0  0  0  0  0  0  0  0  0  0
  194.9090  173.4730  139.8080 C   0  0  0  0  0  0  0  0  0  0  0  0
  194.4430  174.5360  138.8710 C   0  0  1  0  0  3  0  0  0  0  0  0
  196.3600  175.4140  137.7520 O   0  0  0  0  0  1  0  0  0  0  0  0
  195.2870  174.5320  137.6090 C   0  0  0  0  0  2  0  0  0  0  0  0
  193.0740  174.3470  138.5370 O   0  0  0  0  0  0  0  0  0  0  0  0
  192.6140  174.4310  137.2250 C   0  0  0  0  0  0  0  0  0  0  0  0
  192.4320  175.6670  136.6110 O   0  0  0  0  0  1  0  0  0  0  0  0
  192.3730  173.3760  136.5840 O   0  0  0  0  0  0  0  0  0  0  0  0
  193.3380  171.2400  141.5350 C   0  0  0  0  0  3  0  0  0  0  0  0
  194.1190  170.5010  142.3250 C   0  0  0  0  0  2  0  0  0  0  0  0
  1 13  1  0  0  0  0
  2 50  1  1  0  0  0
  2  5  1  0  0  0  0
  2  8  1  0  0  0  0
  3 12  2  0  0  0  0
  4 11  1  0  0  0  0
  4  1  1  0  0  0  0
  6 10  1  0  0  0  0
  7  5  1  6  0  0  0
  7  1  1  0  0  0  0
  7 10  1  0  0  0  0
  8 16  1  6  0  0  0
  8  6  1  0  0  0  0
  9  5  2  0  0  0  0
 10  3  1  0  0  0  0
 10 14  1  1  0  0  0
 13  3  1  0  0  0  0
 15  4  2  0  0  0  0
 16 17  1  6  0  0  0
 18 40  1  6  0  0  0
 18 20  1  0  0  0  0
 18 16  1  0  0  0  0
 20 23  1  6  0  0  0
 20 19  1  0  0  0  0
 21 20  1  0  0  0  0
 21 22  1  6  0  0  0
 21 19  1  0  0  0  0
 24 21  1  0  0  0  0
 24 25  1  1  0  0  0
 24 22  1  0  0  0  0
 25 26  1  0  0  0  0
 26 29  1  0  0  0  0
 27 26  2  0  0  0  0
 28 26  2  0  0  0  0
 29 32  1  0  0  0  0
 29 36  1  1  0  0  0
 32 30  1  6  0  0  0
 32 34  1  0  0  0  0
 32 35  1  0  0  0  0
 33 34  1  0  0  0  0
 34 31  1  0  0  0  0
 34 35  1  0  0  0  0
 36 38  1  0  0  0  0
 38 37  2  0  0  0  0
 39 40  1  0  0  0  0
 41 42  2  0  0  0  0
 42  9  1  0  0  0  0
 43 45  1  6  0  0  0
 43 42  1  0  0  0  0
 45 44  1  0  0  0  0
 46 43  1  0  0  0  0
 47 46  1  0  0  0  0
 48 47  1  0  0  0  0
 49 47  2  0  0  0  0
 50 51  2  0  0  0  0
M  END
>  <MODEL>
9

>  <REMARK>
 VINA RESULT:      -6.1      2.146      3.969
  Name = 
  16 active torsions:
  status: ('A' for Active; 'I' for Inactive)
    1  A    between atoms: S_1  and  N_23
    2  A    between atoms: S_1  and  C_49
    3  A    between atoms: C_4  and  O_50
    4  A    between atoms: C_5  and  C_13
    5  A    between atoms: C_11  and  C_24
    6  A    between atoms: C_11  and  C_39
    7  A    between atoms: C_11  and  O_50
    8  A    between atoms: C_14  and  C_33
    9  A    between atoms: C_19  and  C_29
   10  A    between atoms: C_22  and  C_33
   11  A    between atoms: N_23  and  C_43
   12  A    between atoms: C_24  and  N_25
   13  A    between atoms: C_29  and  C_33
   14  A    between atoms: C_30  and  C_49
   15  A    between atoms: C_32  and  C_47
   16  A    between atoms: C_32  and  C_49
                            x       y       z     vdW  Elec       q    Type
                         _______ _______ _______ _____ _____    ______ ____

>  <TORSDO>
F 16

$$$$
