=
 OpenBabel11062421093D

 27 31  0  0  1  0  0  0  0  0999 V2000
  185.2950  178.7230  146.0390 N   0  0  0  0  0  0  0  0  0  0  0  0
  187.4400  175.7810  143.0770 N   0  0  0  0  0  0  0  0  0  0  0  0
  184.2810  179.2850  143.9650 N   0  0  0  0  0  0  0  0  0  0  0  0
  185.0830  178.2830  141.9600 N   0  0  0  0  0  2  0  0  0  0  0  0
  186.1270  177.3370  141.8320 C   0  0  0  0  0  0  0  0  0  0  0  0
  187.7790  176.0230  140.7040 C   0  0  0  0  0  3  0  0  0  0  0  0
  189.1810  174.3920  142.0250 C   0  0  0  0  0  1  0  0  0  0  0  0
  188.1040  175.4190  141.9400 C   0  0  0  0  0  0  0  0  0  0  0  0
  184.4020  179.4100  145.3900 C   0  0  0  0  0  3  0  0  0  0  0  0
  186.7680  176.9970  140.6510 C   0  0  0  0  0  3  0  0  0  0  0  0
  185.5620  177.1920  144.1180 C   0  0  2  0  0  3  0  0  0  0  0  0
  186.4800  176.7450  143.0260 C   0  0  0  0  0  0  0  0  0  0  0  0
  184.8240  178.2670  143.3620 C   0  0  0  0  0  0  0  0  0  0  0  0
  186.2390  177.8210  145.3470 C   0  0  2  0  0  3  0  0  0  0  0  0
  190.1200  176.4810  144.9300 C   0  0  1  0  0  3  0  0  0  0  0  0
  185.9640  176.1650  147.0180 O   0  0  0  0  0  0  0  0  0  0  0  0
  188.6550  175.3300  147.1610 C   0  0  0  0  0  2  0  0  0  0  0  0
  189.1840  177.3670  145.7260 C   0  0  0  0  0  2  0  0  0  0  0  0
  192.3230  176.2730  144.4140 C   0  0  0  0  0  0  0  0  0  0  0  0
  186.7890  176.8110  146.3170 C   0  0  0  0  0  0  0  0  0  0  0  0
  191.2340  177.1810  144.3220 N   0  0  0  0  0  2  0  0  0  0  0  0
  192.0250  175.0460  145.2220 C   0  0  2  0  0  3  0  0  0  0  0  0
  188.1950  176.5100  146.3880 N   0  0  0  0  0  0  0  0  0  0  0  0
  190.7660  175.5300  145.9080 C   0  0  2  0  0  3  0  0  0  0  0  0
  189.7550  174.5300  146.4270 C   0  0  0  0  0  2  0  0  0  0  0  0
  193.4350  176.5030  143.8710 O   0  0  0  0  0  0  0  0  0  0  0  0
  193.0930  174.8150  146.2860 C   0  0  0  0  0  1  0  0  0  0  0  0
  3  9  1  0  0  0  0
  4 13  1  0  0  0  0
  5  4  1  0  0  0  0
  5 12  2  0  0  0  0
  6  8  1  0  0  0  0
  8  7  1  0  0  0  0
  8  2  2  0  0  0  0
  9  1  2  0  0  0  0
 10  6  2  0  0  0  0
 10  5  1  0  0  0  0
 11 12  1  6  0  0  0
 11 14  1  0  0  0  0
 12  2  1  0  0  0  0
 13  3  2  0  0  0  0
 13 11  1  0  0  0  0
 14  1  1  0  0  0  0
 14 20  1  1  0  0  0
 15 18  1  1  0  0  0
 15 24  1  0  0  0  0
 18 23  1  0  0  0  0
 19 22  1  0  0  0  0
 20 23  1  0  0  0  0
 20 16  2  0  0  0  0
 21 19  1  0  0  0  0
 21 15  1  0  0  0  0
 22 24  1  0  0  0  0
 22 27  1  1  0  0  0
 23 17  1  0  0  0  0
 24 25  1  6  0  0  0
 25 17  1  0  0  0  0
 26 19  2  0  0  0  0
M  END
>  <MODEL>
1

>  <REMARK>
 VINA RESULT:      -8.1      0.000      0.000
  Name = 
  1 active torsions:
  status: ('A' for Active; 'I' for Inactive)
    1  A    between atoms: C_9  and  C_27
                            x       y       z     vdW  Elec       q    Type
                         _______ _______ _______ _____ _____    ______ ____

>  <TORSDO>
F 1

$$$$
=
 OpenBabel11062421093D

 27 31  0  0  1  0  0  0  0  0999 V2000
  186.3190  178.9800  145.0950 N   0  0  0  0  0  0  0  0  0  0  0  0
  188.4750  175.2600  143.2130 N   0  0  0  0  0  0  0  0  0  0  0  0
  185.2580  178.8160  142.9750 N   0  0  0  0  0  0  0  0  0  0  0  0
  186.0460  177.2230  141.3920 N   0  0  0  0  0  2  0  0  0  0  0  0
  187.1080  176.3020  141.5570 C   0  0  0  0  0  0  0  0  0  0  0  0
  188.7680  174.7150  140.8830 C   0  0  0  0  0  3  0  0  0  0  0  0
  190.2270  173.6280  142.6340 C   0  0  0  0  0  1  0  0  0  0  0  0
  189.1270  174.5550  142.2410 C   0  0  0  0  0  0  0  0  0  0  0  0
  185.4010  179.4030  144.2770 C   0  0  0  0  0  3  0  0  0  0  0  0
  187.7360  175.6020  140.5380 C   0  0  0  0  0  3  0  0  0  0  0  0
  186.5860  176.9070  143.7760 C   0  0  2  0  0  3  0  0  0  0  0  0
  187.4950  176.1400  142.8700 C   0  0  0  0  0  0  0  0  0  0  0  0
  185.8120  177.6640  142.7280 C   0  0  0  0  0  0  0  0  0  0  0  0
  187.2700  177.9150  144.7160 C   0  0  2  0  0  3  0  0  0  0  0  0
  191.1890  176.6200  144.6880 C   0  0  1  0  0  3  0  0  0  0  0  0
  187.0590  176.8790  146.8350 O   0  0  0  0  0  0  0  0  0  0  0  0
  189.7750  176.2100  147.1950 C   0  0  0  0  0  2  0  0  0  0  0  0
  190.2310  177.6900  145.1710 C   0  0  0  0  0  2  0  0  0  0  0  0
  193.3940  176.3190  144.2310 C   0  0  0  0  0  0  0  0  0  0  0  0
  187.8580  177.2870  145.9490 C   0  0  0  0  0  0  0  0  0  0  0  0
  192.2760  177.1180  143.8690 N   0  0  0  0  0  2  0  0  0  0  0  0
  193.1410  175.4100  145.3960 C   0  0  2  0  0  3  0  0  0  0  0  0
  189.2740  177.0640  146.0910 N   0  0  0  0  0  0  0  0  0  0  0  0
  191.8710  176.0540  145.9100 C   0  0  2  0  0  3  0  0  0  0  0  0
  190.8950  175.2470  146.7390 C   0  0  0  0  0  2  0  0  0  0  0  0
  194.4950  176.3920  143.6240 O   0  0  0  0  0  0  0  0  0  0  0  0
  194.2210  175.5640  146.4600 C   0  0  0  0  0  1  0  0  0  0  0  0
  3  9  1  0  0  0  0
  4  5  1  0  0  0  0
  4 13  1  0  0  0  0
  5 12  2  0  0  0  0
  6  8  1  0  0  0  0
  8  7  1  0  0  0  0
  8  2  2  0  0  0  0
  9  1  2  0  0  0  0
 10  6  2  0  0  0  0
 10  5  1  0  0  0  0
 11 13  1  6  0  0  0
 11 14  1  0  0  0  0
 12  2  1  0  0  0  0
 12 11  1  0  0  0  0
 13  3  2  0  0  0  0
 14  1  1  0  0  0  0
 14 20  1  1  0  0  0
 15 18  1  1  0  0  0
 15 24  1  0  0  0  0
 18 23  1  0  0  0  0
 19 22  1  0  0  0  0
 20 23  1  0  0  0  0
 20 16  2  0  0  0  0
 21 19  1  0  0  0  0
 21 15  1  0  0  0  0
 22 24  1  0  0  0  0
 22 27  1  1  0  0  0
 23 17  1  0  0  0  0
 24 25  1  6  0  0  0
 25 17  1  0  0  0  0
 26 19  2  0  0  0  0
M  END
>  <MODEL>
2

>  <REMARK>
 VINA RESULT:      -7.9      1.179      1.328
  Name = 
  1 active torsions:
  status: ('A' for Active; 'I' for Inactive)
    1  A    between atoms: C_9  and  C_27
                            x       y       z     vdW  Elec       q    Type
                         _______ _______ _______ _____ _____    ______ ____

>  <TORSDO>
F 1

$$$$
=
 OpenBabel11062421093D

 27 31  0  0  1  0  0  0  0  0999 V2000
  186.3970  177.6750  140.5400 N   0  0  0  0  0  0  0  0  0  0  0  0
  186.6970  178.6660  145.1180 N   0  0  0  0  0  0  0  0  0  0  0  0
  184.1520  178.2480  141.0680 N   0  0  0  0  0  0  0  0  0  0  0  0
  183.5530  178.6660  143.3340 N   0  0  0  0  0  2  0  0  0  0  0  0
  184.4010  178.6320  144.4650 C   0  0  0  0  0  0  0  0  0  0  0  0
  184.9650  178.5680  146.7910 C   0  0  0  0  0  3  0  0  0  0  0  0
  187.3940  178.5840  147.4790 C   0  0  0  0  0  1  0  0  0  0  0  0
  186.3320  178.6110  146.4330 C   0  0  0  0  0  0  0  0  0  0  0  0
  185.1800  177.8900  140.1330 C   0  0  0  0  0  3  0  0  0  0  0  0
  183.9830  178.5830  145.7870 C   0  0  0  0  0  3  0  0  0  0  0  0
  185.9220  178.8280  142.6740 C   0  0  2  0  0  3  0  0  0  0  0  0
  185.7420  178.6520  144.1480 C   0  0  0  0  0  0  0  0  0  0  0  0
  184.4830  178.6740  142.2530 C   0  0  0  0  0  0  0  0  0  0  0  0
  186.7660  177.7530  141.9680 C   0  0  2  0  0  3  0  0  0  0  0  0
  188.7590  176.2280  145.2450 C   0  0  1  0  0  3  0  0  0  0  0  0
  188.7790  178.8640  141.4000 O   0  0  0  0  0  0  0  0  0  0  0  0
  190.4280  177.6660  143.3500 C   0  0  0  0  0  2  0  0  0  0  0  0
  188.4870  176.0680  143.7640 C   0  0  0  0  0  2  0  0  0  0  0  0
  189.3860  175.0060  147.0550 C   0  0  0  0  0  0  0  0  0  0  0  0
  188.2490  177.9630  142.1050 C   0  0  0  0  0  0  0  0  0  0  0  0
  188.3860  175.0810  146.0490 N   0  0  0  0  0  2  0  0  0  0  0  0
  190.5220  175.9640  146.8570 C   0  0  2  0  0  3  0  0  0  0  0  0
  189.0360  177.2390  143.0700 N   0  0  0  0  0  0  0  0  0  0  0  0
  190.2550  176.3310  145.4120 C   0  0  2  0  0  3  0  0  0  0  0  0
  190.7650  177.6430  144.8580 C   0  0  0  0  0  2  0  0  0  0  0  0
  189.3130  174.1920  148.0130 O   0  0  0  0  0  0  0  0  0  0  0  0
  191.8650  175.2470  146.9290 C   0  0  0  0  0  1  0  0  0  0  0  0
  1 14  1  0  0  0  0
  2  8  1  0  0  0  0
  3 13  2  0  0  0  0
  4  5  1  0  0  0  0
  5 10  2  0  0  0  0
  8  6  2  0  0  0  0
  8  7  1  0  0  0  0
  9  1  2  0  0  0  0
  9  3  1  0  0  0  0
 10  6  1  0  0  0  0
 11 13  1  6  0  0  0
 11 12  1  0  0  0  0
 12  5  1  0  0  0  0
 12  2  2  0  0  0  0
 13  4  1  0  0  0  0
 14 20  1  6  0  0  0
 14 11  1  0  0  0  0
 15 18  1  6  0  0  0
 15 24  1  0  0  0  0
 15 21  1  0  0  0  0
 16 20  2  0  0  0  0
 17 25  1  0  0  0  0
 19 26  2  0  0  0  0
 20 23  1  0  0  0  0
 21 19  1  0  0  0  0
 22 27  1  6  0  0  0
 22 19  1  0  0  0  0
 23 17  1  0  0  0  0
 23 18  1  0  0  0  0
 24 25  1  1  0  0  0
 24 22  1  0  0  0  0
M  END
>  <MODEL>
3

>  <REMARK>
 VINA RESULT:      -7.8      2.051      4.317
  Name = 
  1 active torsions:
  status: ('A' for Active; 'I' for Inactive)
    1  A    between atoms: C_9  and  C_27
                            x       y       z     vdW  Elec       q    Type
                         _______ _______ _______ _____ _____    ______ ____

>  <TORSDO>
F 1

$$$$
=
 OpenBabel11062421093D

 27 31  0  0  1  0  0  0  0  0999 V2000
  187.0530  177.4850  140.6980 N   0  0  0  0  0  0  0  0  0  0  0  0
  186.8400  178.2890  145.3180 N   0  0  0  0  0  0  0  0  0  0  0  0
  184.8240  178.2660  140.9600 N   0  0  0  0  0  0  0  0  0  0  0  0
  183.9740  178.6680  143.1470 N   0  0  0  0  0  2  0  0  0  0  0  0
  184.6580  178.5110  144.3760 C   0  0  0  0  0  0  0  0  0  0  0  0
  184.9010  178.3140  146.7490 C   0  0  0  0  0  3  0  0  0  0  0  0
  187.2080  178.0600  147.7430 C   0  0  0  0  0  1  0  0  0  0  0  0
  186.3010  178.2290  146.5720 C   0  0  0  0  0  0  0  0  0  0  0  0
  185.9270  177.8360  140.1500 C   0  0  0  0  0  3  0  0  0  0  0  0
  184.0660  178.4620  145.6290 C   0  0  0  0  0  3  0  0  0  0  0  0
  186.4140  178.6090  142.8050 C   0  0  2  0  0  3  0  0  0  0  0  0
  186.0250  178.4050  144.2340 C   0  0  0  0  0  0  0  0  0  0  0  0
  185.0360  178.6170  142.1970 C   0  0  0  0  0  0  0  0  0  0  0  0
  187.2360  177.4770  142.1650 C   0  0  2  0  0  3  0  0  0  0  0  0
  189.3520  173.9700  142.6680 C   0  0  1  0  0  3  0  0  0  0  0  0
  189.1620  178.6190  142.9370 O   0  0  0  0  0  0  0  0  0  0  0  0
  190.9030  176.4030  143.0140 C   0  0  0  0  0  2  0  0  0  0  0  0
  189.0840  175.1450  141.7510 C   0  0  0  0  0  2  0  0  0  0  0  0
  190.0750  171.8170  142.5930 C   0  0  0  0  0  0  0  0  0  0  0  0
  188.7010  177.5300  142.5000 C   0  0  0  0  0  0  0  0  0  0  0  0
  189.0660  172.6760  142.0800 N   0  0  0  0  0  2  0  0  0  0  0  0
  191.1390  172.5270  143.3750 C   0  0  2  0  0  3  0  0  0  0  0  0
  189.5430  176.3650  142.4250 N   0  0  0  0  0  0  0  0  0  0  0  0
  190.8380  173.9420  142.9280 C   0  0  2  0  0  3  0  0  0  0  0  0
  191.2500  175.1130  143.7930 C   0  0  0  0  0  2  0  0  0  0  0  0
  190.0670  170.5750  142.3870 O   0  0  0  0  0  0  0  0  0  0  0  0
  192.5300  172.1530  142.8770 C   0  0  0  0  0  1  0  0  0  0  0  0
  1 14  1  0  0  0  0
  2  8  1  0  0  0  0
  3 13  2  0  0  0  0
  4  5  1  0  0  0  0
  5 10  2  0  0  0  0
  8  6  2  0  0  0  0
  8  7  1  0  0  0  0
  9  1  2  0  0  0  0
  9  3  1  0  0  0  0
 10  6  1  0  0  0  0
 11 13  1  6  0  0  0
 11 12  1  0  0  0  0
 12  5  1  0  0  0  0
 12  2  2  0  0  0  0
 13  4  1  0  0  0  0
 14 20  1  6  0  0  0
 14 11  1  0  0  0  0
 15 18  1  6  0  0  0
 15 24  1  0  0  0  0
 17 25  1  0  0  0  0
 18 23  1  0  0  0  0
 19 22  1  0  0  0  0
 20 16  2  0  0  0  0
 21 19  1  0  0  0  0
 21 15  1  0  0  0  0
 22 27  1  6  0  0  0
 23 20  1  0  0  0  0
 23 17  1  0  0  0  0
 24 22  1  0  0  0  0
 24 25  1  1  0  0  0
 26 19  2  0  0  0  0
M  END
>  <MODEL>
4

>  <REMARK>
 VINA RESULT:      -7.2      2.507      4.601
  Name = 
  1 active torsions:
  status: ('A' for Active; 'I' for Inactive)
    1  A    between atoms: C_9  and  C_27
                            x       y       z     vdW  Elec       q    Type
                         _______ _______ _______ _____ _____    ______ ____

>  <TORSDO>
F 1

$$$$
=
 OpenBabel11062421093D

 27 31  0  0  1  0  0  0  0  0999 V2000
  193.5020  177.0800  145.5220 N   0  0  0  0  0  0  0  0  0  0  0  0
  191.6610  173.4860  143.1300 N   0  0  0  0  0  0  0  0  0  0  0  0
  194.9390  175.2910  146.1380 N   0  0  0  0  0  0  0  0  0  0  0  0
  194.4290  173.0790  145.4190 N   0  0  0  0  0  2  0  0  0  0  0  0
  193.3360  172.6680  144.6210 C   0  0  0  0  0  0  0  0  0  0  0  0
  191.8000  171.1300  143.6190 C   0  0  0  0  0  3  0  0  0  0  0  0
  190.0150  171.9990  142.0590 C   0  0  0  0  0  1  0  0  0  0  0  0
  191.1880  172.2160  142.9530 C   0  0  0  0  0  0  0  0  0  0  0  0
  194.5660  176.6760  146.1510 C   0  0  0  0  0  3  0  0  0  0  0  0
  192.8970  171.3620  144.4650 C   0  0  0  0  0  3  0  0  0  0  0  0
  193.4440  174.9870  144.2090 C   0  0  2  0  0  3  0  0  0  0  0  0
  192.7070  173.7090  143.9730 C   0  0  0  0  0  0  0  0  0  0  0  0
  194.4170  174.4950  145.2490 C   0  0  0  0  0  0  0  0  0  0  0  0
  192.6170  176.1390  144.8040 C   0  0  2  0  0  3  0  0  0  0  0  0
  188.6530  176.9770  145.5910 C   0  0  1  0  0  3  0  0  0  0  0  0
  192.2350  176.9360  142.6070 O   0  0  0  0  0  0  0  0  0  0  0  0
  189.6220  177.9160  143.0160 C   0  0  0  0  0  2  0  0  0  0  0  0
  190.0550  177.5450  145.4990 C   0  0  0  0  0  2  0  0  0  0  0  0
  186.6580  177.3870  146.5980 C   0  0  0  0  0  0  0  0  0  0  0  0
  191.7940  176.8820  143.7880 C   0  0  0  0  0  0  0  0  0  0  0  0
  188.0270  177.1390  146.8880 N   0  0  0  0  0  2  0  0  0  0  0  0
  186.3690  177.5710  145.1380 C   0  0  2  0  0  3  0  0  0  0  0  0
  190.5030  177.4320  144.1060 N   0  0  0  0  0  0  0  0  0  0  0  0
  187.7880  177.7840  144.6550 C   0  0  2  0  0  3  0  0  0  0  0  0
  188.1470  177.4960  143.2130 C   0  0  0  0  0  2  0  0  0  0  0  0
  185.7840  177.4570  147.5000 O   0  0  0  0  0  0  0  0  0  0  0  0
  185.5800  178.8510  144.8900 C   0  0  0  0  0  1  0  0  0  0  0  0
  1  9  2  0  0  0  0
  2 12  1  0  0  0  0
  3  9  1  0  0  0  0
  5  4  1  0  0  0  0
  6 10  2  0  0  0  0
  7  8  1  0  0  0  0
  8  2  2  0  0  0  0
  8  6  1  0  0  0  0
 10  5  1  0  0  0  0
 11 12  1  1  0  0  0
 11 14  1  0  0  0  0
 11 13  1  0  0  0  0
 12  5  2  0  0  0  0
 13  4  1  0  0  0  0
 13  3  2  0  0  0  0
 14 20  1  6  0  0  0
 14  1  1  0  0  0  0
 15 18  1  1  0  0  0
 15 21  1  0  0  0  0
 16 20  2  0  0  0  0
 17 25  1  0  0  0  0
 17 23  1  0  0  0  0
 19 21  1  0  0  0  0
 19 26  2  0  0  0  0
 20 23  1  0  0  0  0
 22 27  1  1  0  0  0
 22 19  1  0  0  0  0
 23 18  1  0  0  0  0
 24 25  1  6  0  0  0
 24 22  1  0  0  0  0
 24 15  1  0  0  0  0
M  END
>  <MODEL>
5

>  <REMARK>
 VINA RESULT:      -7.1      2.479      7.161
  Name = 
  1 active torsions:
  status: ('A' for Active; 'I' for Inactive)
    1  A    between atoms: C_9  and  C_27
                            x       y       z     vdW  Elec       q    Type
                         _______ _______ _______ _____ _____    ______ ____

>  <TORSDO>
F 1

$$$$
=
 OpenBabel11062421093D

 27 31  0  0  1  0  0  0  0  0999 V2000
  193.7460  175.9050  141.9200 N   0  0  0  0  0  0  0  0  0  0  0  0
  190.9170  175.0740  145.5720 N   0  0  0  0  0  0  0  0  0  0  0  0
  195.2530  176.0430  143.7530 N   0  0  0  0  0  0  0  0  0  0  0  0
  194.4070  175.9220  145.9750 N   0  0  0  0  0  2  0  0  0  0  0  0
  193.0600  175.7550  146.3720 C   0  0  0  0  0  0  0  0  0  0  0  0
  191.1910  175.7520  147.8680 C   0  0  0  0  0  3  0  0  0  0  0  0
  188.9210  175.0510  147.0150 C   0  0  0  0  0  1  0  0  0  0  0  0
  190.3770  175.2920  146.8080 C   0  0  0  0  0  0  0  0  0  0  0  0
  194.9680  176.0410  142.3460 C   0  0  0  0  0  3  0  0  0  0  0  0
  192.5590  175.9820  147.6450 C   0  0  0  0  0  3  0  0  0  0  0  0
  193.0390  175.0390  144.1240 C   0  0  2  0  0  3  0  0  0  0  0  0
  192.2370  175.3250  145.3530 C   0  0  0  0  0  0  0  0  0  0  0  0
  194.3620  175.5920  144.5880 C   0  0  0  0  0  0  0  0  0  0  0  0
  192.6050  175.7850  142.8510 C   0  0  2  0  0  3  0  0  0  0  0  0
  188.7680  176.9890  143.7790 C   0  0  1  0  0  3  0  0  0  0  0  0
  191.6310  174.0630  141.5500 O   0  0  0  0  0  0  0  0  0  0  0  0
  188.9500  174.9140  141.7520 C   0  0  0  0  0  2  0  0  0  0  0  0
  189.8860  177.0590  142.7590 C   0  0  0  0  0  2  0  0  0  0  0  0
  186.9430  178.1570  144.4620 C   0  0  0  0  0  0  0  0  0  0  0  0
  191.4340  175.1540  142.1500 C   0  0  0  0  0  0  0  0  0  0  0  0
  188.3490  178.2770  144.2950 N   0  0  0  0  0  2  0  0  0  0  0  0
  186.3710  176.8850  143.9120 C   0  0  2  0  0  3  0  0  0  0  0  0
  190.1080  175.7080  142.2310 N   0  0  0  0  0  0  0  0  0  0  0  0
  187.5500  176.4590  143.0640 C   0  0  2  0  0  3  0  0  0  0  0  0
  187.7350  175.0000  142.7040 C   0  0  0  0  0  2  0  0  0  0  0  0
  186.2540  179.0550  145.0130 O   0  0  0  0  0  0  0  0  0  0  0  0
  185.1910  177.1660  142.9880 C   0  0  0  0  0  1  0  0  0  0  0  0
  1  9  2  0  0  0  0
  1 14  1  0  0  0  0
  2  8  1  0  0  0  0
  3 13  2  0  0  0  0
  4  5  1  0  0  0  0
  5 10  2  0  0  0  0
  8  7  1  0  0  0  0
  8  6  2  0  0  0  0
  9  3  1  0  0  0  0
 10  6  1  0  0  0  0
 11 13  1  1  0  0  0
 11 12  1  0  0  0  0
 12  2  2  0  0  0  0
 12  5  1  0  0  0  0
 13  4  1  0  0  0  0
 14 20  1  6  0  0  0
 14 11  1  0  0  0  0
 15 18  1  6  0  0  0
 15 21  1  0  0  0  0
 16 20  2  0  0  0  0
 17 23  1  0  0  0  0
 17 25  1  0  0  0  0
 19 26  2  0  0  0  0
 20 23  1  0  0  0  0
 21 19  1  0  0  0  0
 22 27  1  6  0  0  0
 22 19  1  0  0  0  0
 23 18  1  0  0  0  0
 24 25  1  1  0  0  0
 24 15  1  0  0  0  0
 24 22  1  0  0  0  0
M  END
>  <MODEL>
6

>  <REMARK>
 VINA RESULT:      -7.1      2.320      7.296
  Name = 
  1 active torsions:
  status: ('A' for Active; 'I' for Inactive)
    1  A    between atoms: C_9  and  C_27
                            x       y       z     vdW  Elec       q    Type
                         _______ _______ _______ _____ _____    ______ ____

>  <TORSDO>
F 1

$$$$
=
 OpenBabel11062421093D

 27 31  0  0  1  0  0  0  0  0999 V2000
  189.7780  174.8550  146.1900 N   0  0  0  0  0  0  0  0  0  0  0  0
  193.1230  176.0350  143.1150 N   0  0  0  0  0  0  0  0  0  0  0  0
  191.5130  175.6230  147.6200 N   0  0  0  0  0  0  0  0  0  0  0  0
  193.6300  176.1920  146.6910 N   0  0  0  0  0  2  0  0  0  0  0  0
  194.0090  176.1470  145.3290 C   0  0  0  0  0  0  0  0  0  0  0  0
  195.5050  176.1500  143.4600 C   0  0  0  0  0  3  0  0  0  0  0  0
  194.5680  176.0120  141.1210 C   0  0  0  0  0  1  0  0  0  0  0  0
  194.3870  176.0710  142.5990 C   0  0  0  0  0  0  0  0  0  0  0  0
  190.1800  175.1440  147.3930 C   0  0  0  0  0  3  0  0  0  0  0  0
  195.3100  176.1930  144.8510 C   0  0  0  0  0  3  0  0  0  0  0  0
  191.6530  176.1410  145.2200 C   0  0  2  0  0  3  0  0  0  0  0  0
  192.9400  176.0490  144.4640 C   0  0  0  0  0  0  0  0  0  0  0  0
  192.2110  176.0780  146.6180 C   0  0  0  0  0  0  0  0  0  0  0  0
  190.6740  174.9720  145.0200 C   0  0  2  0  0  3  0  0  0  0  0  0
  187.0840  177.0080  145.0520 C   0  0  1  0  0  3  0  0  0  0  0  0
  190.1280  174.2680  142.8250 O   0  0  0  0  0  0  0  0  0  0  0  0
  187.8240  175.8580  142.4870 C   0  0  0  0  0  2  0  0  0  0  0  0
  188.5370  177.0460  144.6250 C   0  0  0  0  0  2  0  0  0  0  0  0
  185.3630  178.4090  145.5420 C   0  0  0  0  0  0  0  0  0  0  0  0
  189.8610  175.0730  143.7590 C   0  0  0  0  0  0  0  0  0  0  0  0
  186.6920  178.0890  145.9330 N   0  0  0  0  0  2  0  0  0  0  0  0
  184.9040  177.6930  144.3070 C   0  0  2  0  0  3  0  0  0  0  0  0
  188.7510  175.9820  143.6380 N   0  0  0  0  0  0  0  0  0  0  0  0
  186.2530  177.2180  143.8100 C   0  0  2  0  0  3  0  0  0  0  0  0
  186.3420  176.0130  142.8980 C   0  0  0  0  0  2  0  0  0  0  0  0
  184.6560  179.2320  146.1800 O   0  0  0  0  0  0  0  0  0  0  0  0
  184.3330  178.6700  143.2860 C   0  0  0  0  0  1  0  0  0  0  0  0
  1  9  2  0  0  0  0
  2 12  1  0  0  0  0
  5  4  1  0  0  0  0
  6 10  2  0  0  0  0
  7  8  1  0  0  0  0
  8  2  2  0  0  0  0
  8  6  1  0  0  0  0
  9  3  1  0  0  0  0
 10  5  1  0  0  0  0
 11 12  1  6  0  0  0
 11 13  1  0  0  0  0
 12  5  2  0  0  0  0
 13  4  1  0  0  0  0
 13  3  2  0  0  0  0
 14 20  1  6  0  0  0
 14 11  1  0  0  0  0
 14  1  1  0  0  0  0
 15 18  1  6  0  0  0
 15 21  1  0  0  0  0
 16 20  2  0  0  0  0
 17 25  1  0  0  0  0
 17 23  1  0  0  0  0
 19 21  1  0  0  0  0
 19 26  2  0  0  0  0
 22 27  1  6  0  0  0
 22 19  1  0  0  0  0
 23 20  1  0  0  0  0
 23 18  1  0  0  0  0
 24 25  1  1  0  0  0
 24 22  1  0  0  0  0
 24 15  1  0  0  0  0
M  END
>  <MODEL>
7

>  <REMARK>
 VINA RESULT:      -7.1      2.234      6.863
  Name = 
  1 active torsions:
  status: ('A' for Active; 'I' for Inactive)
    1  A    between atoms: C_9  and  C_27
                            x       y       z     vdW  Elec       q    Type
                         _______ _______ _______ _____ _____    ______ ____

>  <TORSDO>
F 1

$$$$
=
 OpenBabel11062421093D

 27 31  0  0  1  0  0  0  0  0999 V2000
  189.4270  174.3170  142.4550 N   0  0  0  0  0  0  0  0  0  0  0  0
  193.0470  175.7740  145.0640 N   0  0  0  0  0  0  0  0  0  0  0  0
  191.2560  174.0320  140.9640 N   0  0  0  0  0  0  0  0  0  0  0  0
  193.4170  174.7970  141.6030 N   0  0  0  0  0  2  0  0  0  0  0  0
  193.7820  175.4180  142.8210 C   0  0  0  0  0  0  0  0  0  0  0  0
  195.1660  176.6580  144.3310 C   0  0  0  0  0  3  0  0  0  0  0  0
  194.3780  177.0510  146.6960 C   0  0  0  0  0  1  0  0  0  0  0  0
  194.1880  176.4750  145.3350 C   0  0  0  0  0  0  0  0  0  0  0  0
  189.8680  173.8960  141.3060 C   0  0  0  0  0  3  0  0  0  0  0  0
  194.9590  176.1140  143.0520 C   0  0  0  0  0  3  0  0  0  0  0  0
  191.7290  174.3840  143.3520 C   0  0  2  0  0  3  0  0  0  0  0  0
  192.8380  175.2740  143.8150 C   0  0  0  0  0  0  0  0  0  0  0  0
  192.1270  174.2690  141.9020 C   0  0  0  0  0  0  0  0  0  0  0  0
  190.3130  174.9790  143.4350 C   0  0  2  0  0  3  0  0  0  0  0  0
  187.4490  177.7270  144.5640 C   0  0  1  0  0  3  0  0  0  0  0  0
  190.3140  174.2230  145.6800 O   0  0  0  0  0  0  0  0  0  0  0  0
  188.1270  175.7550  146.5890 C   0  0  0  0  0  2  0  0  0  0  0  0
  187.7060  176.2970  144.1350 C   0  0  0  0  0  2  0  0  0  0  0  0
  185.7890  179.2780  144.5870 C   0  0  0  0  0  0  0  0  0  0  0  0
  189.7060  174.9030  144.8090 C   0  0  0  0  0  0  0  0  0  0  0  0
  186.5370  178.4530  143.7040 N   0  0  0  0  0  2  0  0  0  0  0  0
  186.0470  179.0060  146.0380 C   0  0  2  0  0  3  0  0  0  0  0  0
  188.5290  175.6520  145.1650 N   0  0  0  0  0  0  0  0  0  0  0  0
  186.7400  177.6680  145.8950 C   0  0  2  0  0  3  0  0  0  0  0  0
  187.6780  177.1810  146.9780 C   0  0  0  0  0  2  0  0  0  0  0  0
  184.9770  180.1450  144.1690 O   0  0  0  0  0  0  0  0  0  0  0  0
  184.7430  178.7930  146.7980 C   0  0  0  0  0  1  0  0  0  0  0  0
  1 14  1  0  0  0  0
  2  8  1  0  0  0  0
  3  9  1  0  0  0  0
  3 13  2  0  0  0  0
  4 13  1  0  0  0  0
  4  5  1  0  0  0  0
  5 10  2  0  0  0  0
  5 12  1  0  0  0  0
  6  8  2  0  0  0  0
  8  7  1  0  0  0  0
  9  1  2  0  0  0  0
 10  6  1  0  0  0  0
 11 13  1  6  0  0  0
 11 14  1  0  0  0  0
 11 12  1  0  0  0  0
 12  2  2  0  0  0  0
 14 20  1  1  0  0  0
 15 18  1  6  0  0  0
 15 24  1  0  0  0  0
 17 25  1  0  0  0  0
 18 23  1  0  0  0  0
 19 22  1  0  0  0  0
 20 23  1  0  0  0  0
 20 16  2  0  0  0  0
 21 15  1  0  0  0  0
 21 19  1  0  0  0  0
 22 27  1  1  0  0  0
 23 17  1  0  0  0  0
 24 22  1  0  0  0  0
 24 25  1  1  0  0  0
 26 19  2  0  0  0  0
M  END
>  <MODEL>
8

>  <REMARK>
 VINA RESULT:      -7.0      2.526      6.712
  Name = 
  1 active torsions:
  status: ('A' for Active; 'I' for Inactive)
    1  A    between atoms: C_9  and  C_27
                            x       y       z     vdW  Elec       q    Type
                         _______ _______ _______ _____ _____    ______ ____

>  <TORSDO>
F 1

$$$$
=
 OpenBabel11062421093D

 27 31  0  0  1  0  0  0  0  0999 V2000
  185.9690  178.4750  142.6560 N   0  0  0  0  0  0  0  0  0  0  0  0
  188.4280  174.4980  143.0640 N   0  0  0  0  0  0  0  0  0  0  0  0
  186.1770  177.7890  140.3900 N   0  0  0  0  0  0  0  0  0  0  0  0
  187.5270  175.9030  139.8570 N   0  0  0  0  0  2  0  0  0  0  0  0
  188.2480  175.0830  140.7570 C   0  0  0  0  0  0  0  0  0  0  0  0
  189.8530  173.4410  141.4340 C   0  0  0  0  0  3  0  0  0  0  0  0
  190.0560  172.8380  143.8770 C   0  0  0  0  0  1  0  0  0  0  0  0
  189.4240  173.6110  142.7700 C   0  0  0  0  0  0  0  0  0  0  0  0
  185.6660  178.6660  141.4050 C   0  0  0  0  0  3  0  0  0  0  0  0
  189.2500  174.1890  140.4090 C   0  0  0  0  0  3  0  0  0  0  0  0
  186.6930  176.1640  142.1620 C   0  0  2  0  0  3  0  0  0  0  0  0
  187.8650  175.2400  142.0720 C   0  0  0  0  0  0  0  0  0  0  0  0
  186.6660  176.6310  140.7300 C   0  0  0  0  0  0  0  0  0  0  0  0
  186.8700  177.3840  143.0820 C   0  0  2  0  0  3  0  0  0  0  0  0
  190.0810  176.3370  145.4530 C   0  0  1  0  0  3  0  0  0  0  0  0
  185.4770  176.8320  144.9160 O   0  0  0  0  0  0  0  0  0  0  0  0
  187.5160  176.4130  146.8190 C   0  0  0  0  0  2  0  0  0  0  0  0
  189.0950  177.4310  145.0990 C   0  0  0  0  0  2  0  0  0  0  0  0
  192.1570  176.0660  146.3360 C   0  0  0  0  0  0  0  0  0  0  0  0
  186.6550  177.0790  144.5390 C   0  0  0  0  0  0  0  0  0  0  0  0
  191.4710  176.7010  145.2660 N   0  0  0  0  0  2  0  0  0  0  0  0
  191.2510  175.4240  147.3430 C   0  0  2  0  0  3  0  0  0  0  0  0
  187.7510  176.9720  145.4650 N   0  0  0  0  0  0  0  0  0  0  0  0
  189.9560  176.0930  146.9370 C   0  0  2  0  0  3  0  0  0  0  0  0
  188.6310  175.4370  147.2600 C   0  0  0  0  0  2  0  0  0  0  0  0
  193.4130  176.0650  146.4200 O   0  0  0  0  0  0  0  0  0  0  0  0
  191.5990  175.8690  148.7590 C   0  0  0  0  0  1  0  0  0  0  0  0
  1 14  1  0  0  0  0
  3 13  2  0  0  0  0
  3  9  1  0  0  0  0
  4 13  1  0  0  0  0
  4  5  1  0  0  0  0
  5 12  1  0  0  0  0
  6  8  2  0  0  0  0
  8  2  1  0  0  0  0
  8  7  1  0  0  0  0
  9  1  2  0  0  0  0
 10  5  2  0  0  0  0
 10  6  1  0  0  0  0
 11 13  1  6  0  0  0
 11 14  1  0  0  0  0
 12 11  1  0  0  0  0
 12  2  2  0  0  0  0
 14 20  1  1  0  0  0
 15 18  1  1  0  0  0
 15 24  1  0  0  0  0
 17 25  1  0  0  0  0
 18 23  1  0  0  0  0
 19 26  2  0  0  0  0
 19 22  1  0  0  0  0
 20 16  2  0  0  0  0
 20 23  1  0  0  0  0
 21 15  1  0  0  0  0
 21 19  1  0  0  0  0
 22 27  1  1  0  0  0
 23 17  1  0  0  0  0
 24 25  1  6  0  0  0
 24 22  1  0  0  0  0
M  END
>  <MODEL>
9

>  <REMARK>
 VINA RESULT:      -6.9      1.618      2.653
  Name = 
  1 active torsions:
  status: ('A' for Active; 'I' for Inactive)
    1  A    between atoms: C_9  and  C_27
                            x       y       z     vdW  Elec       q    Type
                         _______ _______ _______ _____ _____    ______ ____

>  <TORSDO>
F 1

$$$$
