=
 OpenBabel11062422273D

 36 42  0  0  1  0  0  0  0  0999 V2000
  190.4830  174.5510  145.3140 C   0  0  0  0  0  0  0  0  0  0  0  0
  192.9160  174.6790  145.5410 C   0  0  0  0  0  0  0  0  0  0  0  0
  189.2220  175.0810  145.6480 C   0  0  0  0  0  3  0  0  0  0  0  0
  193.0590  173.5640  144.6980 C   0  0  0  0  0  0  0  0  0  0  0  0
  194.0060  175.2990  146.0730 N   0  0  0  0  0  0  0  0  0  0  0  0
  190.8160  169.9810  141.8630 C   0  0  0  0  0  1  0  0  0  0  0  0
  192.6450  176.8650  147.1920 N   0  0  0  0  0  0  0  0  0  0  0  0
  191.5250  176.2860  146.6900 C   0  0  0  0  0  0  0  0  0  0  0  0
  193.8770  176.3800  146.8880 C   0  0  0  0  0  3  0  0  0  0  0  0
  192.0850  171.7320  143.2600 C   0  0  0  0  0  2  0  0  0  0  0  0
  190.6230  173.4290  144.4690 C   0  0  0  0  0  0  0  0  0  0  0  0
  189.1130  176.1940  146.4890 C   0  0  0  0  0  0  0  0  0  0  0  0
  190.2650  176.7940  147.0100 C   0  0  0  0  0  3  0  0  0  0  0  0
  191.6350  175.1660  145.8450 C   0  0  0  0  0  0  0  0  0  0  0  0
  190.7880  171.1650  142.7600 C   0  0  0  0  0  0  0  0  0  0  0  0
  189.5410  172.8250  143.9540 C   0  0  0  0  0  3  0  0  0  0  0  0
  189.6480  171.6850  143.0940 N   0  0  0  0  0  0  0  0  0  0  0  0
  191.9150  172.9350  144.1600 C   0  0  0  0  0  0  0  0  0  0  0  0
  194.4350  173.0700  144.3450 C   0  0  0  0  0  2  0  0  0  0  0  0
  196.3100  174.4600  143.6150 N   0  0  0  0  0  0  0  0  0  0  0  0
  196.8180  176.7910  143.1380 C   0  0  0  0  0  1  0  0  0  0  0  0
  196.5550  175.4210  142.5450 C   0  0  2  0  0  3  0  0  0  0  0  0
  195.3040  175.4420  141.7970 N   0  0  0  0  0  0  0  0  0  0  0  0
  195.1100  174.0310  143.4270 C   0  0  0  0  0  0  0  0  0  0  0  0
  194.4750  174.6350  142.3160 N   0  0  0  0  0  0  0  0  0  0  0  0
  187.7630  176.7290  146.8520 C   0  0  0  0  0  2  0  0  0  0  0  0
  185.3360  176.9090  146.1350 C   0  0  0  0  0  2  0  0  0  0  0  0
  184.6480  177.8990  144.0570 O   0  0  0  0  0  0  0  0  0  0  0  0
  184.7360  178.1310  145.4520 C   0  0  2  0  0  3  0  0  0  0  0  0
  187.0720  177.9160  144.7210 C   0  0  2  0  0  3  0  0  0  0  0  0
  186.7830  176.7670  145.6750 C   0  0  1  0  0  3  0  0  0  0  0  0
  185.6950  180.0050  144.2830 O   0  0  0  0  0  1  0  0  0  0  0  0
  185.7530  178.6320  144.5170 C   0  0  1  0  0  0  0  0  0  0  0  0
  187.2810  176.1250  142.8300 C   0  0  0  0  0  1  0  0  0  0  0  0
  188.4950  178.1320  142.8620 O   0  0  0  0  0  0  0  0  0  0  0  0
  187.6720  177.4370  143.4310 C   0  0  0  0  0  0  0  0  0  0  0  0
  1  3  2  0  0  0  0
  1 14  1  0  0  0  0
  2 14  2  0  0  0  0
  2  5  1  0  0  0  0
  3 12  1  0  0  0  0
  4  2  1  0  0  0  0
  5  9  2  0  0  0  0
  6 15  1  0  0  0  0
  8 13  1  0  0  0  0
  8  7  2  0  0  0  0
  9  7  1  0  0  0  0
 10 18  1  0  0  0  0
 11  1  1  0  0  0  0
 12 26  1  0  0  0  0
 12 13  2  0  0  0  0
 14  8  1  0  0  0  0
 15 17  2  0  0  0  0
 15 10  1  0  0  0  0
 16 11  2  0  0  0  0
 17 16  1  0  0  0  0
 18 11  1  0  0  0  0
 18  4  2  0  0  0  0
 19  4  1  0  0  0  0
 22 21  1  1  0  0  0
 22 20  1  0  0  0  0
 23 25  2  0  0  0  0
 23 22  1  0  0  0  0
 24 20  2  0  0  0  0
 24 19  1  0  0  0  0
 25 24  1  0  0  0  0
 28 33  1  0  0  0  0
 28 29  1  0  0  0  0
 29 27  1  1  0  0  0
 30 36  1  6  0  0  0
 30 31  1  0  0  0  0
 31 27  1  0  0  0  0
 31 26  1  1  0  0  0
 33 32  1  6  0  0  0
 33 30  1  0  0  0  0
 33 29  1  0  0  0  0
 34 36  1  0  0  0  0
 35 36  2  0  0  0  0
M  END
>  <MODEL>
1

>  <REMARK>
 VINA RESULT:      -8.5      0.000      0.000
  Name = 
  5 active torsions:
  status: ('A' for Active; 'I' for Inactive)
    1  A    between atoms: C_5  and  C_21
    2  A    between atoms: C_15  and  C_32
    3  A    between atoms: C_16  and  C_31
    4  A    between atoms: C_21  and  C_22
    5  A    between atoms: C_26  and  C_31
                            x       y       z     vdW  Elec       q    Type
                         _______ _______ _______ _____ _____    ______ ____

>  <TORSDO>
F 5

$$$$
=
 OpenBabel11062422273D

 36 42  0  0  1  0  0  0  0  0999 V2000
  190.5900  174.4150  145.0830 C   0  0  0  0  0  0  0  0  0  0  0  0
  193.0340  174.5140  145.1740 C   0  0  0  0  0  0  0  0  0  0  0  0
  189.3570  174.9450  145.5060 C   0  0  0  0  0  3  0  0  0  0  0  0
  193.1160  173.4260  144.2880 C   0  0  0  0  0  0  0  0  0  0  0  0
  194.1590  175.1070  145.6620 N   0  0  0  0  0  0  0  0  0  0  0  0
  190.6770  169.9590  141.4730 C   0  0  0  0  0  1  0  0  0  0  0  0
  192.8800  176.6470  146.9080 N   0  0  0  0  0  0  0  0  0  0  0  0
  191.7270  176.0940  146.4530 C   0  0  0  0  0  0  0  0  0  0  0  0
  194.0880  176.1610  146.5180 C   0  0  0  0  0  3  0  0  0  0  0  0
  192.0420  171.6510  142.8500 C   0  0  0  0  0  2  0  0  0  0  0  0
  190.6690  173.3200  144.1960 C   0  0  0  0  0  0  0  0  0  0  0  0
  189.3080  176.0300  146.3890 C   0  0  0  0  0  0  0  0  0  0  0  0
  190.4940  176.6030  146.8610 C   0  0  0  0  0  3  0  0  0  0  0  0
  191.7770  175.0030  145.5670 C   0  0  0  0  0  0  0  0  0  0  0  0
  190.7120  171.1130  142.4080 C   0  0  0  0  0  0  0  0  0  0  0  0
  189.5530  172.7430  143.7250 C   0  0  0  0  0  3  0  0  0  0  0  0
  189.5990  171.6310  142.8240 N   0  0  0  0  0  0  0  0  0  0  0  0
  191.9360  172.8260  143.7970 C   0  0  0  0  0  0  0  0  0  0  0  0
  194.4640  172.9320  143.8410 C   0  0  0  0  0  2  0  0  0  0  0  0
  196.2850  172.0380  145.2080 N   0  0  0  0  0  0  0  0  0  0  0  0
  197.4350  169.9350  145.6230 C   0  0  0  0  0  1  0  0  0  0  0  0
  196.4470  170.9490  146.1650 C   0  0  2  0  0  3  0  0  0  0  0  0
  195.1210  170.3480  146.2440 N   0  0  0  0  0  0  0  0  0  0  0  0
  195.0440  172.0140  144.8630 C   0  0  0  0  0  0  0  0  0  0  0  0
  194.3180  170.9720  145.4860 N   0  0  0  0  0  0  0  0  0  0  0  0
  187.9860  176.5650  146.8460 C   0  0  0  0  0  2  0  0  0  0  0  0
  185.5190  176.7550  146.2860 C   0  0  0  0  0  2  0  0  0  0  0  0
  184.7010  177.8030  144.2840 O   0  0  0  0  0  0  0  0  0  0  0  0
  184.8750  177.9940  145.6770 C   0  0  2  0  0  3  0  0  0  0  0  0
  187.1620  177.8100  144.7970 C   0  0  2  0  0  3  0  0  0  0  0  0
  186.9360  176.6330  145.7330 C   0  0  1  0  0  3  0  0  0  0  0  0
  185.7550  179.9050  144.5060 O   0  0  0  0  0  1  0  0  0  0  0  0
  185.8310  178.5270  144.6970 C   0  0  1  0  0  0  0  0  0  0  0  0
  187.2480  176.0820  142.8400 C   0  0  0  0  0  1  0  0  0  0  0  0
  188.4740  178.0820  142.8660 O   0  0  0  0  0  0  0  0  0  0  0  0
  187.6820  177.3710  143.4600 C   0  0  0  0  0  0  0  0  0  0  0  0
  1  3  2  0  0  0  0
  1 14  1  0  0  0  0
  2 14  2  0  0  0  0
  2  5  1  0  0  0  0
  3 12  1  0  0  0  0
  4  2  1  0  0  0  0
  5  9  2  0  0  0  0
  6 15  1  0  0  0  0
  8 13  1  0  0  0  0
  8  7  2  0  0  0  0
  9  7  1  0  0  0  0
 10 18  1  0  0  0  0
 11  1  1  0  0  0  0
 12 26  1  0  0  0  0
 12 13  2  0  0  0  0
 14  8  1  0  0  0  0
 15 17  2  0  0  0  0
 15 10  1  0  0  0  0
 16 11  2  0  0  0  0
 17 16  1  0  0  0  0
 18 11  1  0  0  0  0
 18  4  2  0  0  0  0
 19  4  1  0  0  0  0
 19 24  1  0  0  0  0
 20 22  1  0  0  0  0
 22 21  1  6  0  0  0
 22 23  1  0  0  0  0
 24 20  2  0  0  0  0
 24 25  1  0  0  0  0
 25 23  2  0  0  0  0
 28 33  1  0  0  0  0
 28 29  1  0  0  0  0
 29 27  1  1  0  0  0
 30 36  1  6  0  0  0
 30 31  1  0  0  0  0
 31 27  1  0  0  0  0
 31 26  1  1  0  0  0
 33 32  1  6  0  0  0
 33 30  1  0  0  0  0
 33 29  1  0  0  0  0
 34 36  1  0  0  0  0
 35 36  2  0  0  0  0
M  END
>  <MODEL>
2

>  <REMARK>
 VINA RESULT:      -8.4      1.582      2.196
  Name = 
  5 active torsions:
  status: ('A' for Active; 'I' for Inactive)
    1  A    between atoms: C_5  and  C_21
    2  A    between atoms: C_15  and  C_32
    3  A    between atoms: C_16  and  C_31
    4  A    between atoms: C_21  and  C_22
    5  A    between atoms: C_26  and  C_31
                            x       y       z     vdW  Elec       q    Type
                         _______ _______ _______ _____ _____    ______ ____

>  <TORSDO>
F 5

$$$$
=
 OpenBabel11062422273D

 36 42  0  0  1  0  0  0  0  0999 V2000
  189.9390  175.1370  143.1840 C   0  0  0  0  0  0  0  0  0  0  0  0
  191.1670  173.6480  141.6800 C   0  0  0  0  0  0  0  0  0  0  0  0
  188.7220  175.7600  143.5170 C   0  0  0  0  0  3  0  0  0  0  0  0
  192.3360  173.8380  142.4370 C   0  0  0  0  0  0  0  0  0  0  0  0
  191.1670  172.8420  140.5810 N   0  0  0  0  0  0  0  0  0  0  0  0
  194.5840  176.0750  146.4160 C   0  0  0  0  0  1  0  0  0  0  0  0
  188.8810  173.2690  140.1930 N   0  0  0  0  0  0  0  0  0  0  0  0
  188.8250  174.0830  141.2780 C   0  0  0  0  0  0  0  0  0  0  0  0
  190.0400  172.6510  139.8450 C   0  0  0  0  0  3  0  0  0  0  0  0
  193.5810  174.8800  144.3700 C   0  0  0  0  0  3  0  0  0  0  0  0
  191.1120  175.3330  143.9450 C   0  0  0  0  0  0  0  0  0  0  0  0
  187.5740  175.5500  142.7440 C   0  0  0  0  0  0  0  0  0  0  0  0
  187.6280  174.7120  141.6240 C   0  0  0  0  0  3  0  0  0  0  0  0
  189.9780  174.2950  142.0540 C   0  0  1  0  0  3  0  0  0  0  0  0
  193.4130  175.7980  145.5450 C   0  0  0  0  0  0  0  0  0  0  0  0
  191.1000  176.1320  145.0230 C   0  0  0  0  0  3  0  0  0  0  0  0
  192.2720  176.3520  145.8150 N   0  0  0  0  0  0  0  0  0  0  0  0
  192.3130  174.6800  143.5700 C   0  0  0  0  0  0  0  0  0  0  0  0
  193.5960  173.1120  142.0530 C   0  0  0  0  0  2  0  0  0  0  0  0
  195.6690  174.3450  141.6490 N   0  0  0  0  0  0  0  0  0  0  0  0
  196.4290  176.6240  141.2640 C   0  0  0  0  0  1  0  0  0  0  0  0
  196.1640  175.2700  140.6360 C   0  0  2  0  0  3  0  0  0  0  0  0
  195.0610  175.3780  139.6870 N   0  0  0  0  0  0  0  0  0  0  0  0
  194.4880  174.0060  141.2620 C   0  0  0  0  0  0  0  0  0  0  0  0
  194.0970  174.6430  140.0600 N   0  0  0  0  0  0  0  0  0  0  0  0
  186.2940  176.2400  143.1000 C   0  0  0  0  0  2  0  0  0  0  0  0
  186.1640  178.7680  143.2680 C   0  0  0  0  0  2  0  0  0  0  0  0
  185.6690  179.9260  145.3140 O   0  0  0  0  0  0  0  0  0  0  0  0
  185.1120  179.5160  144.0770 C   0  0  2  0  0  3  0  0  0  0  0  0
  185.6220  177.4140  145.2430 C   0  0  2  0  0  3  0  0  0  0  0  0
  186.4890  177.4670  143.9950 C   0  0  1  0  0  3  0  0  0  0  0  0
  183.6300  178.8650  145.8600 O   0  0  0  0  0  1  0  0  0  0  0  0
  184.9060  178.7470  145.3120 C   0  0  1  0  0  0  0  0  0  0  0  0
  187.9020  177.3850  146.5190 C   0  0  0  0  0  1  0  0  0  0  0  0
  185.8720  176.6820  147.4630 O   0  0  0  0  0  0  0  0  0  0  0  0
  186.4290  177.1300  146.4760 C   0  0  0  0  0  0  0  0  0  0  0  0
  1  3  1  0  0  0  0
  1 11  2  0  0  0  0
  2 14  1  0  0  0  0
  2  4  1  0  0  0  0
  4 18  2  0  0  0  0
  5  2  2  0  0  0  0
  7  8  1  0  0  0  0
  8 13  2  0  0  0  0
  9  7  2  0  0  0  0
  9  5  1  0  0  0  0
 10 15  2  0  0  0  0
 11 16  1  0  0  0  0
 12 26  1  0  0  0  0
 12  3  2  0  0  0  0
 13 12  1  0  0  0  0
 14  8  1  1  0  0  0
 14  1  1  0  0  0  0
 15 17  1  0  0  0  0
 15  6  1  0  0  0  0
 16 17  2  0  0  0  0
 18 11  1  0  0  0  0
 18 10  1  0  0  0  0
 19  4  1  0  0  0  0
 22 21  1  1  0  0  0
 22 20  1  0  0  0  0
 23 25  2  0  0  0  0
 23 22  1  0  0  0  0
 24 20  2  0  0  0  0
 24 19  1  0  0  0  0
 25 24  1  0  0  0  0
 27 31  1  0  0  0  0
 29 27  1  6  0  0  0
 29 33  1  0  0  0  0
 29 28  1  0  0  0  0
 30 33  1  0  0  0  0
 30 36  1  1  0  0  0
 31 26  1  6  0  0  0
 31 30  1  0  0  0  0
 33 28  1  0  0  0  0
 33 32  1  1  0  0  0
 36 34  1  0  0  0  0
 36 35  2  0  0  0  0
M  END
>  <MODEL>
3

>  <REMARK>
 VINA RESULT:      -8.0      1.985      4.327
  Name = 
  5 active torsions:
  status: ('A' for Active; 'I' for Inactive)
    1  A    between atoms: C_5  and  C_21
    2  A    between atoms: C_15  and  C_32
    3  A    between atoms: C_16  and  C_31
    4  A    between atoms: C_21  and  C_22
    5  A    between atoms: C_26  and  C_31
                            x       y       z     vdW  Elec       q    Type
                         _______ _______ _______ _____ _____    ______ ____

>  <TORSDO>
F 5

$$$$
=
 OpenBabel11062422273D

 36 42  0  0  1  0  0  0  0  0999 V2000
  190.6870  174.7040  144.5020 C   0  0  0  0  0  0  0  0  0  0  0  0
  193.0170  175.0160  145.1820 C   0  0  0  0  0  0  0  0  0  0  0  0
  189.3310  175.0310  144.6960 C   0  0  0  0  0  3  0  0  0  0  0  0
  193.4340  174.1170  144.1860 C   0  0  0  0  0  0  0  0  0  0  0  0
  193.9200  175.6170  146.0070 N   0  0  0  0  0  0  0  0  0  0  0  0
  192.1490  170.9920  140.3810 C   0  0  0  0  0  1  0  0  0  0  0  0
  192.2070  176.7820  147.1340 N   0  0  0  0  0  0  0  0  0  0  0  0
  191.2650  176.2120  146.3400 C   0  0  0  0  0  0  0  0  0  0  0  0
  193.5250  176.4900  146.9710 C   0  0  0  0  0  3  0  0  0  0  0  0
  192.9440  172.5330  142.2820 C   0  0  0  0  0  2  0  0  0  0  0  0
  191.1020  173.7970  143.5020 C   0  0  0  0  0  0  0  0  0  0  0  0
  188.9480  175.9320  145.6960 C   0  0  0  0  0  0  0  0  0  0  0  0
  189.9160  176.5210  146.5170 C   0  0  0  0  0  3  0  0  0  0  0  0
  191.6510  175.3060  145.3360 C   0  0  0  0  0  0  0  0  0  0  0  0
  191.8260  171.9590  141.4620 C   0  0  0  0  0  0  0  0  0  0  0  0
  190.2020  173.2110  142.6990 C   0  0  0  0  0  3  0  0  0  0  0  0
  190.5900  172.2860  141.6760 N   0  0  0  0  0  0  0  0  0  0  0  0
  192.4790  173.5040  143.3450 C   0  0  0  0  0  0  0  0  0  0  0  0
  194.9010  173.8400  144.0010 C   0  0  0  0  0  2  0  0  0  0  0  0
  195.2190  175.3130  142.0750 N   0  0  0  0  0  0  0  0  0  0  0  0
  196.9630  175.9760  140.5130 C   0  0  0  0  0  1  0  0  0  0  0  0
  196.1330  176.3910  141.7120 C   0  0  2  0  0  3  0  0  0  0  0  0
  196.9960  176.5300  142.8800 N   0  0  0  0  0  0  0  0  0  0  0  0
  195.5510  174.9650  143.2700 C   0  0  0  0  0  0  0  0  0  0  0  0
  196.6490  175.7000  143.7740 N   0  0  0  0  0  0  0  0  0  0  0  0
  187.4990  176.2480  145.9040 C   0  0  0  0  0  2  0  0  0  0  0  0
  187.7590  177.8950  143.9910 C   0  0  0  0  0  2  0  0  0  0  0  0
  186.0110  179.3880  143.2940 O   0  0  0  0  0  0  0  0  0  0  0  0
  186.6750  178.1820  142.9600 C   0  0  2  0  0  3  0  0  0  0  0  0
  185.5800  177.7000  145.1060 C   0  0  2  0  0  3  0  0  0  0  0  0
  187.0820  177.6050  145.3270 C   0  0  1  0  0  3  0  0  0  0  0  0
  184.2970  177.8060  142.9150 O   0  0  0  0  0  1  0  0  0  0  0  0
  185.3960  178.1870  143.6830 C   0  0  1  0  0  0  0  0  0  0  0  0
  185.6750  179.1460  147.2790 C   0  0  0  0  0  1  0  0  0  0  0  0
  183.7450  178.8870  145.9710 O   0  0  0  0  0  0  0  0  0  0  0  0
  184.9210  178.5990  146.1110 C   0  0  0  0  0  0  0  0  0  0  0  0
  1  3  2  0  0  0  0
  1 14  1  0  0  0  0
  2 14  2  0  0  0  0
  2  5  1  0  0  0  0
  3 12  1  0  0  0  0
  4  2  1  0  0  0  0
  5  9  2  0  0  0  0
  6 15  1  0  0  0  0
  8 13  1  0  0  0  0
  8  7  2  0  0  0  0
  9  7  1  0  0  0  0
 10 18  1  0  0  0  0
 11  1  1  0  0  0  0
 12 26  1  0  0  0  0
 12 13  2  0  0  0  0
 14  8  1  0  0  0  0
 15 17  2  0  0  0  0
 15 10  1  0  0  0  0
 16 11  2  0  0  0  0
 17 16  1  0  0  0  0
 18 11  1  0  0  0  0
 18  4  2  0  0  0  0
 19  4  1  0  0  0  0
 20 24  2  0  0  0  0
 22 21  1  6  0  0  0
 22 20  1  0  0  0  0
 22 23  1  0  0  0  0
 23 25  2  0  0  0  0
 24 25  1  0  0  0  0
 24 19  1  0  0  0  0
 27 31  1  0  0  0  0
 28 33  1  0  0  0  0
 29 28  1  0  0  0  0
 29 33  1  0  0  0  0
 29 27  1  1  0  0  0
 30 31  1  0  0  0  0
 30 36  1  1  0  0  0
 31 26  1  6  0  0  0
 33 32  1  6  0  0  0
 33 30  1  0  0  0  0
 35 36  2  0  0  0  0
 36 34  1  0  0  0  0
M  END
>  <MODEL>
4

>  <REMARK>
 VINA RESULT:      -7.9      1.272      2.192
  Name = 
  5 active torsions:
  status: ('A' for Active; 'I' for Inactive)
    1  A    between atoms: C_5  and  C_21
    2  A    between atoms: C_15  and  C_32
    3  A    between atoms: C_16  and  C_31
    4  A    between atoms: C_21  and  C_22
    5  A    between atoms: C_26  and  C_31
                            x       y       z     vdW  Elec       q    Type
                         _______ _______ _______ _____ _____    ______ ____

>  <TORSDO>
F 5

$$$$
=
 OpenBabel11062422273D

 36 42  0  0  1  0  0  0  0  0999 V2000
  190.9320  173.9240  145.0110 C   0  0  0  0  0  0  0  0  0  0  0  0
  193.3670  174.1580  145.0620 C   0  0  0  0  0  0  0  0  0  0  0  0
  189.6800  174.3630  145.4820 C   0  0  0  0  0  3  0  0  0  0  0  0
  193.4920  173.1190  144.1230 C   0  0  0  0  0  0  0  0  0  0  0  0
  194.4680  174.7900  145.5570 N   0  0  0  0  0  0  0  0  0  0  0  0
  191.1910  169.6550  141.1890 C   0  0  0  0  0  1  0  0  0  0  0  0
  193.1320  176.1950  146.8990 N   0  0  0  0  0  0  0  0  0  0  0  0
  192.0020  175.5990  146.4390 C   0  0  0  0  0  0  0  0  0  0  0  0
  194.3560  175.7970  146.4630 C   0  0  0  0  0  3  0  0  0  0  0  0
  192.4880  171.3560  142.6210 C   0  0  0  0  0  2  0  0  0  0  0  0
  191.0530  172.8790  144.0700 C   0  0  0  0  0  0  0  0  0  0  0  0
  189.5890  175.4010  146.4160 C   0  0  0  0  0  0  0  0  0  0  0  0
  190.7510  176.0170  146.8940 C   0  0  0  0  0  3  0  0  0  0  0  0
  192.0940  174.5550  145.5000 C   0  0  0  0  0  0  0  0  0  0  0  0
  191.1820  170.7640  142.1780 C   0  0  0  0  0  0  0  0  0  0  0  0
  189.9620  172.2620  143.5930 C   0  0  0  0  0  3  0  0  0  0  0  0
  190.0500  171.1980  142.6390 N   0  0  0  0  0  0  0  0  0  0  0  0
  192.3370  172.4760  143.6250 C   0  0  0  0  0  0  0  0  0  0  0  0
  194.8560  172.7240  143.6280 C   0  0  0  0  0  2  0  0  0  0  0  0
  195.0670  170.5130  144.6510 N   0  0  0  0  0  0  0  0  0  0  0  0
  194.9930  169.4680  146.8470 C   0  0  0  0  0  1  0  0  0  0  0  0
  195.8810  169.9110  145.7010 C   0  0  2  0  0  3  0  0  0  0  0  0
  196.7460  170.9990  146.1440 N   0  0  0  0  0  0  0  0  0  0  0  0
  195.4740  171.7310  144.5520 C   0  0  0  0  0  0  0  0  0  0  0  0
  196.5010  172.0470  145.4720 N   0  0  0  0  0  0  0  0  0  0  0  0
  188.2490  175.8370  146.9230 C   0  0  0  0  0  2  0  0  0  0  0  0
  188.5490  177.4850  145.0180 C   0  0  0  0  0  2  0  0  0  0  0  0
  186.7210  178.6650  143.9990 O   0  0  0  0  0  0  0  0  0  0  0  0
  187.6150  177.5810  143.8180 C   0  0  2  0  0  3  0  0  0  0  0  0
  186.2770  176.9470  145.7790 C   0  0  2  0  0  3  0  0  0  0  0  0
  187.7190  177.1010  146.2390 C   0  0  1  0  0  3  0  0  0  0  0  0
  185.3670  176.8200  143.4110 O   0  0  0  0  0  1  0  0  0  0  0  0
  186.2510  177.3830  144.3290 C   0  0  1  0  0  0  0  0  0  0  0  0
  185.8240  178.7350  147.6290 C   0  0  0  0  0  1  0  0  0  0  0  0
  184.1290  177.5550  146.5150 O   0  0  0  0  0  0  0  0  0  0  0  0
  185.3290  177.7350  146.6340 C   0  0  0  0  0  0  0  0  0  0  0  0
  1  3  2  0  0  0  0
  1 14  1  0  0  0  0
  2 14  2  0  0  0  0
  2  5  1  0  0  0  0
  3 12  1  0  0  0  0
  4  2  1  0  0  0  0
  5  9  2  0  0  0  0
  6 15  1  0  0  0  0
  8 13  1  0  0  0  0
  8  7  2  0  0  0  0
  9  7  1  0  0  0  0
 10 18  1  0  0  0  0
 11  1  1  0  0  0  0
 12 13  2  0  0  0  0
 12 26  1  0  0  0  0
 14  8  1  0  0  0  0
 15 10  1  0  0  0  0
 15 17  2  0  0  0  0
 16 11  2  0  0  0  0
 17 16  1  0  0  0  0
 18 11  1  0  0  0  0
 18  4  2  0  0  0  0
 19  4  1  0  0  0  0
 19 24  1  0  0  0  0
 20 22  1  0  0  0  0
 22 23  1  0  0  0  0
 22 21  1  1  0  0  0
 24 20  2  0  0  0  0
 24 25  1  0  0  0  0
 25 23  2  0  0  0  0
 27 31  1  0  0  0  0
 28 33  1  0  0  0  0
 29 28  1  0  0  0  0
 29 33  1  0  0  0  0
 29 27  1  1  0  0  0
 30 31  1  0  0  0  0
 30 36  1  1  0  0  0
 31 26  1  6  0  0  0
 33 32  1  6  0  0  0
 33 30  1  0  0  0  0
 35 36  2  0  0  0  0
 36 34  1  0  0  0  0
M  END
>  <MODEL>
5

>  <REMARK>
 VINA RESULT:      -7.9      1.822      3.064
  Name = 
  5 active torsions:
  status: ('A' for Active; 'I' for Inactive)
    1  A    between atoms: C_5  and  C_21
    2  A    between atoms: C_15  and  C_32
    3  A    between atoms: C_16  and  C_31
    4  A    between atoms: C_21  and  C_22
    5  A    between atoms: C_26  and  C_31
                            x       y       z     vdW  Elec       q    Type
                         _______ _______ _______ _____ _____    ______ ____

>  <TORSDO>
F 5

$$$$
=
 OpenBabel11062422273D

 36 42  0  0  1  0  0  0  0  0999 V2000
  191.0040  174.9940  143.8820 C   0  0  0  0  0  0  0  0  0  0  0  0
  193.2760  174.3880  144.5580 C   0  0  0  0  0  0  0  0  0  0  0  0
  189.9030  175.8570  144.0330 C   0  0  0  0  0  3  0  0  0  0  0  0
  193.2680  173.3180  143.6460 C   0  0  0  0  0  0  0  0  0  0  0  0
  194.3650  174.6340  145.3390 N   0  0  0  0  0  0  0  0  0  0  0  0
  190.7340  170.6860  140.1040 C   0  0  0  0  0  1  0  0  0  0  0  0
  193.3000  176.4820  146.3460 N   0  0  0  0  0  0  0  0  0  0  0  0
  192.1890  176.2810  145.5920 C   0  0  0  0  0  0  0  0  0  0  0  0
  194.3820  175.6680  146.2220 C   0  0  0  0  0  3  0  0  0  0  0  0
  192.1320  171.9210  141.8770 C   0  0  0  0  0  2  0  0  0  0  0  0
  190.9920  173.9190  142.9670 C   0  0  0  0  0  0  0  0  0  0  0  0
  189.9420  176.9150  144.9500 C   0  0  0  0  0  0  0  0  0  0  0  0
  191.0850  177.1240  145.7290 C   0  0  0  0  0  3  0  0  0  0  0  0
  192.1490  175.2180  144.6720 C   0  0  0  0  0  0  0  0  0  0  0  0
  190.8580  171.7850  141.0960 C   0  0  0  0  0  0  0  0  0  0  0  0
  189.9110  173.6850  142.2060 C   0  0  0  0  0  3  0  0  0  0  0  0
  189.8660  172.6030  141.2690 N   0  0  0  0  0  0  0  0  0  0  0  0
  192.1270  173.0800  142.8490 C   0  0  0  0  0  0  0  0  0  0  0  0
  194.4920  172.4560  143.5010 C   0  0  0  0  0  2  0  0  0  0  0  0
  194.7270  171.3230  145.6560 N   0  0  0  0  0  0  0  0  0  0  0  0
  195.9000  169.4330  146.6410 C   0  0  0  0  0  1  0  0  0  0  0  0
  194.5660  169.9610  146.1520 C   0  0  2  0  0  3  0  0  0  0  0  0
  194.1390  169.2050  144.9800 N   0  0  0  0  0  0  0  0  0  0  0  0
  194.4050  171.2770  144.4090 C   0  0  0  0  0  0  0  0  0  0  0  0
  194.0500  169.9770  143.9780 N   0  0  0  0  0  0  0  0  0  0  0  0
  188.7510  177.8080  145.1140 C   0  0  0  0  0  2  0  0  0  0  0  0
  187.1980  176.7410  146.8130 C   0  0  0  0  0  2  0  0  0  0  0  0
  184.8180  176.6000  146.5130 O   0  0  0  0  0  0  0  0  0  0  0  0
  185.8370  177.3070  147.1980 C   0  0  2  0  0  3  0  0  0  0  0  0
  186.2330  177.8140  144.8260 C   0  0  2  0  0  3  0  0  0  0  0  0
  187.4420  177.0460  145.3380 C   0  0  1  0  0  3  0  0  0  0  0  0
  184.3510  178.8880  146.1530 O   0  0  0  0  0  1  0  0  0  0  0  0
  185.2310  177.8240  145.9630 C   0  0  1  0  0  0  0  0  0  0  0  0
  186.3310  176.0410  142.9100 C   0  0  0  0  0  1  0  0  0  0  0  0
  184.6600  177.6790  143.0840 O   0  0  0  0  0  0  0  0  0  0  0  0
  185.6730  177.2080  143.5730 C   0  0  0  0  0  0  0  0  0  0  0  0
  1  3  2  0  0  0  0
  1 14  1  0  0  0  0
  2 14  2  0  0  0  0
  2  5  1  0  0  0  0
  3 12  1  0  0  0  0
  4  2  1  0  0  0  0
  5  9  2  0  0  0  0
  6 15  1  0  0  0  0
  8 13  1  0  0  0  0
  8  7  2  0  0  0  0
  9  7  1  0  0  0  0
 10 18  1  0  0  0  0
 11  1  1  0  0  0  0
 12 26  1  0  0  0  0
 12 13  2  0  0  0  0
 14  8  1  0  0  0  0
 15 17  2  0  0  0  0
 15 10  1  0  0  0  0
 16 11  2  0  0  0  0
 17 16  1  0  0  0  0
 18 11  1  0  0  0  0
 18  4  2  0  0  0  0
 19  4  1  0  0  0  0
 19 24  1  0  0  0  0
 20 22  1  0  0  0  0
 22 21  1  6  0  0  0
 23 22  1  0  0  0  0
 24 20  2  0  0  0  0
 25 24  1  0  0  0  0
 25 23  2  0  0  0  0
 28 29  1  0  0  0  0
 29 27  1  6  0  0  0
 30 36  1  6  0  0  0
 30 31  1  0  0  0  0
 30 33  1  0  0  0  0
 31 26  1  1  0  0  0
 31 27  1  0  0  0  0
 33 32  1  1  0  0  0
 33 28  1  0  0  0  0
 33 29  1  0  0  0  0
 34 36  1  0  0  0  0
 35 36  2  0  0  0  0
M  END
>  <MODEL>
6

>  <REMARK>
 VINA RESULT:      -7.8      2.198      2.940
  Name = 
  5 active torsions:
  status: ('A' for Active; 'I' for Inactive)
    1  A    between atoms: C_5  and  C_21
    2  A    between atoms: C_15  and  C_32
    3  A    between atoms: C_16  and  C_31
    4  A    between atoms: C_21  and  C_22
    5  A    between atoms: C_26  and  C_31
                            x       y       z     vdW  Elec       q    Type
                         _______ _______ _______ _____ _____    ______ ____

>  <TORSDO>
F 5

$$$$
=
 OpenBabel11062422273D

 36 42  0  0  1  0  0  0  0  0999 V2000
  190.1820  175.1160  143.2330 C   0  0  0  0  0  0  0  0  0  0  0  0
  191.3730  173.1980  142.2880 C   0  0  0  0  0  0  0  0  0  0  0  0
  188.9690  175.8150  143.3780 C   0  0  0  0  0  3  0  0  0  0  0  0
  192.5660  173.6370  142.8870 C   0  0  0  0  0  0  0  0  0  0  0  0
  191.3430  172.0620  141.5370 N   0  0  0  0  0  0  0  0  0  0  0  0
  194.9290  177.1110  145.7590 C   0  0  0  0  0  1  0  0  0  0  0  0
  189.0390  172.3290  141.1150 N   0  0  0  0  0  0  0  0  0  0  0  0
  189.0120  173.4680  141.8530 C   0  0  0  0  0  0  0  0  0  0  0  0
  190.1930  171.6290  140.9560 C   0  0  0  0  0  3  0  0  0  0  0  0
  193.8680  175.2830  144.2920 C   0  0  0  0  0  3  0  0  0  0  0  0
  191.3790  175.5610  143.8330 C   0  0  0  0  0  0  0  0  0  0  0  0
  187.7970  175.3510  142.7710 C   0  0  0  0  0  0  0  0  0  0  0  0
  187.8210  174.1780  142.0080 C   0  0  0  0  0  3  0  0  0  0  0  0
  190.1910  173.9350  142.4630 C   0  0  1  0  0  3  0  0  0  0  0  0
  193.7310  176.5500  145.0840 C   0  0  0  0  0  0  0  0  0  0  0  0
  191.3960  176.6840  144.5690 C   0  0  0  0  0  3  0  0  0  0  0  0
  192.5930  177.1640  145.1900 N   0  0  0  0  0  0  0  0  0  0  0  0
  192.5740  174.8190  143.6600 C   0  0  0  0  0  0  0  0  0  0  0  0
  193.8210  172.8230  142.7290 C   0  0  0  0  0  2  0  0  0  0  0  0
  194.7920  172.0770  144.8460 N   0  0  0  0  0  0  0  0  0  0  0  0
  196.0150  170.1830  145.7620 C   0  0  0  0  0  1  0  0  0  0  0  0
  194.6800  170.8990  145.6990 C   0  0  2  0  0  3  0  0  0  0  0  0
  193.7050  170.0580  145.0130 N   0  0  0  0  0  0  0  0  0  0  0  0
  193.9720  171.8790  143.8720 C   0  0  0  0  0  0  0  0  0  0  0  0
  193.3030  170.6350  143.9580 N   0  0  0  0  0  0  0  0  0  0  0  0
  186.5210  176.1220  142.9170 C   0  0  0  0  0  2  0  0  0  0  0  0
  186.3180  178.6460  143.0660 C   0  0  0  0  0  2  0  0  0  0  0  0
  185.7220  179.8010  145.0870 O   0  0  0  0  0  0  0  0  0  0  0  0
  185.2200  179.3690  143.8350 C   0  0  2  0  0  3  0  0  0  0  0  0
  185.7450  177.2880  145.0300 C   0  0  2  0  0  3  0  0  0  0  0  0
  186.6530  177.3580  143.8110 C   0  0  1  0  0  3  0  0  0  0  0  0
  183.6950  178.6870  145.5700 O   0  0  0  0  0  1  0  0  0  0  0  0
  184.9920  178.6020  145.0670 C   0  0  1  0  0  0  0  0  0  0  0  0
  188.0070  177.1560  146.3310 C   0  0  0  0  0  1  0  0  0  0  0  0
  185.9170  176.7150  147.3030 O   0  0  0  0  0  0  0  0  0  0  0  0
  186.5180  177.0320  146.2900 C   0  0  0  0  0  0  0  0  0  0  0  0
  1  3  1  0  0  0  0
  1 11  2  0  0  0  0
  2 14  1  0  0  0  0
  2  4  1  0  0  0  0
  4 18  2  0  0  0  0
  5  2  2  0  0  0  0
  7  8  1  0  0  0  0
  8 13  2  0  0  0  0
  9  7  2  0  0  0  0
  9  5  1  0  0  0  0
 10 15  2  0  0  0  0
 11 16  1  0  0  0  0
 12 26  1  0  0  0  0
 12  3  2  0  0  0  0
 13 12  1  0  0  0  0
 14  8  1  1  0  0  0
 14  1  1  0  0  0  0
 15 17  1  0  0  0  0
 15  6  1  0  0  0  0
 16 17  2  0  0  0  0
 18 11  1  0  0  0  0
 18 10  1  0  0  0  0
 19  4  1  0  0  0  0
 19 24  1  0  0  0  0
 20 22  1  0  0  0  0
 22 21  1  6  0  0  0
 23 22  1  0  0  0  0
 24 25  1  0  0  0  0
 24 20  2  0  0  0  0
 25 23  2  0  0  0  0
 27 31  1  0  0  0  0
 29 27  1  6  0  0  0
 29 33  1  0  0  0  0
 29 28  1  0  0  0  0
 30 33  1  0  0  0  0
 30 36  1  1  0  0  0
 31 26  1  6  0  0  0
 31 30  1  0  0  0  0
 33 28  1  0  0  0  0
 33 32  1  1  0  0  0
 36 34  1  0  0  0  0
 36 35  2  0  0  0  0
M  END
>  <MODEL>
7

>  <REMARK>
 VINA RESULT:      -7.8      2.165      4.724
  Name = 
  5 active torsions:
  status: ('A' for Active; 'I' for Inactive)
    1  A    between atoms: C_5  and  C_21
    2  A    between atoms: C_15  and  C_32
    3  A    between atoms: C_16  and  C_31
    4  A    between atoms: C_21  and  C_22
    5  A    between atoms: C_26  and  C_31
                            x       y       z     vdW  Elec       q    Type
                         _______ _______ _______ _____ _____    ______ ____

>  <TORSDO>
F 5

$$$$
=
 OpenBabel11062422273D

 36 42  0  0  1  0  0  0  0  0999 V2000
  191.0600  175.1880  143.7130 C   0  0  0  0  0  0  0  0  0  0  0  0
  193.2780  174.4980  144.4840 C   0  0  0  0  0  0  0  0  0  0  0  0
  189.9500  176.0380  143.8740 C   0  0  0  0  0  3  0  0  0  0  0  0
  193.3370  173.5300  143.4670 C   0  0  0  0  0  0  0  0  0  0  0  0
  194.3070  174.6540  145.3630 N   0  0  0  0  0  0  0  0  0  0  0  0
  191.0680  171.3010  139.4950 C   0  0  0  0  0  1  0  0  0  0  0  0
  193.1710  176.3940  146.4780 N   0  0  0  0  0  0  0  0  0  0  0  0
  192.1170  176.2810  145.6300 C   0  0  0  0  0  0  0  0  0  0  0  0
  194.2590  175.5900  146.3480 C   0  0  0  0  0  3  0  0  0  0  0  0
  192.3330  172.3340  141.4840 C   0  0  0  0  0  2  0  0  0  0  0  0
  191.1150  174.2150  142.6910 C   0  0  0  0  0  0  0  0  0  0  0  0
  189.9220  176.9940  144.8960 C   0  0  0  0  0  0  0  0  0  0  0  0
  191.0060  177.1130  145.7740 C   0  0  0  0  0  3  0  0  0  0  0  0
  192.1450  175.3200  144.6030 C   0  0  0  0  0  0  0  0  0  0  0  0
  191.1180  172.2890  140.6030 C   0  0  0  0  0  0  0  0  0  0  0  0
  190.0930  174.0690  141.8340 C   0  0  0  0  0  3  0  0  0  0  0  0
  190.1170  173.0910  140.7880 N   0  0  0  0  0  0  0  0  0  0  0  0
  192.2570  173.3850  142.5690 C   0  0  0  0  0  0  0  0  0  0  0  0
  194.5680  172.6800  143.3210 C   0  0  0  0  0  2  0  0  0  0  0  0
  196.7410  173.8020  143.2600 N   0  0  0  0  0  0  0  0  0  0  0  0
  197.6820  176.0010  142.8170 C   0  0  0  0  0  1  0  0  0  0  0  0
  197.4910  174.5930  142.2910 C   0  0  2  0  0  3  0  0  0  0  0  0
  196.6280  174.6220  141.1150 N   0  0  0  0  0  0  0  0  0  0  0  0
  195.6560  173.4540  142.6580 C   0  0  0  0  0  0  0  0  0  0  0  0
  195.5700  173.9600  141.3390 N   0  0  0  0  0  0  0  0  0  0  0  0
  188.7220  177.8740  145.0670 C   0  0  0  0  0  2  0  0  0  0  0  0
  187.1930  176.7720  146.7660 C   0  0  0  0  0  2  0  0  0  0  0  0
  184.8130  176.6110  146.4840 O   0  0  0  0  0  0  0  0  0  0  0  0
  185.8310  177.3200  147.1680 C   0  0  2  0  0  3  0  0  0  0  0  0
  186.2010  177.8590  144.8000 C   0  0  2  0  0  3  0  0  0  0  0  0
  187.4220  177.0960  145.2930 C   0  0  1  0  0  3  0  0  0  0  0  0
  184.3210  178.8980  146.1550 O   0  0  0  0  0  1  0  0  0  0  0  0
  185.2090  177.8460  145.9450 C   0  0  1  0  0  0  0  0  0  0  0  0
  186.3450  176.1650  142.8160 C   0  0  0  0  0  1  0  0  0  0  0  0
  184.5790  177.6830  143.1080 O   0  0  0  0  0  0  0  0  0  0  0  0
  185.6370  177.2620  143.5440 C   0  0  0  0  0  0  0  0  0  0  0  0
  1  3  2  0  0  0  0
  1 14  1  0  0  0  0
  2 14  2  0  0  0  0
  2  5  1  0  0  0  0
  3 12  1  0  0  0  0
  4  2  1  0  0  0  0
  5  9  2  0  0  0  0
  6 15  1  0  0  0  0
  8 13  1  0  0  0  0
  8  7  2  0  0  0  0
  9  7  1  0  0  0  0
 10 18  1  0  0  0  0
 11  1  1  0  0  0  0
 12 26  1  0  0  0  0
 12 13  2  0  0  0  0
 14  8  1  0  0  0  0
 15 17  2  0  0  0  0
 15 10  1  0  0  0  0
 16 11  2  0  0  0  0
 17 16  1  0  0  0  0
 18 11  1  0  0  0  0
 18  4  2  0  0  0  0
 19  4  1  0  0  0  0
 22 21  1  1  0  0  0
 22 20  1  0  0  0  0
 23 25  2  0  0  0  0
 23 22  1  0  0  0  0
 24 20  2  0  0  0  0
 24 19  1  0  0  0  0
 25 24  1  0  0  0  0
 28 29  1  0  0  0  0
 29 27  1  6  0  0  0
 30 36  1  6  0  0  0
 30 31  1  0  0  0  0
 30 33  1  0  0  0  0
 31 26  1  1  0  0  0
 31 27  1  0  0  0  0
 33 32  1  1  0  0  0
 33 28  1  0  0  0  0
 33 29  1  0  0  0  0
 34 36  1  0  0  0  0
 35 36  2  0  0  0  0
M  END
>  <MODEL>
8

>  <REMARK>
 VINA RESULT:      -7.7      1.677      1.871
  Name = 
  5 active torsions:
  status: ('A' for Active; 'I' for Inactive)
    1  A    between atoms: C_5  and  C_21
    2  A    between atoms: C_15  and  C_32
    3  A    between atoms: C_16  and  C_31
    4  A    between atoms: C_21  and  C_22
    5  A    between atoms: C_26  and  C_31
                            x       y       z     vdW  Elec       q    Type
                         _______ _______ _______ _____ _____    ______ ____

>  <TORSDO>
F 5

$$$$
=
 OpenBabel11062422273D

 36 42  0  0  1  0  0  0  0  0999 V2000
  190.4910  175.3130  142.8690 C   0  0  0  0  0  0  0  0  0  0  0  0
  192.8250  174.5880  142.9860 C   0  0  0  0  0  0  0  0  0  0  0  0
  189.4750  176.1540  143.3600 C   0  0  0  0  0  3  0  0  0  0  0  0
  192.5990  173.6700  141.9470 C   0  0  0  0  0  0  0  0  0  0  0  0
  194.0540  174.7030  143.5640 N   0  0  0  0  0  0  0  0  0  0  0  0
  189.3230  171.6320  138.6270 C   0  0  0  0  0  1  0  0  0  0  0  0
  193.2780  176.3870  145.0220 N   0  0  0  0  0  0  0  0  0  0  0  0
  192.0350  176.3140  144.4820 C   0  0  0  0  0  0  0  0  0  0  0  0
  194.2820  175.5910  144.5680 C   0  0  0  0  0  3  0  0  0  0  0  0
  191.0870  172.5690  140.2510 C   0  0  0  0  0  2  0  0  0  0  0  0
  190.2590  174.3890  141.8260 C   0  0  0  0  0  0  0  0  0  0  0  0
  189.7320  177.0590  144.3960 C   0  0  0  0  0  0  0  0  0  0  0  0
  191.0130  177.1370  144.9560 C   0  0  0  0  0  3  0  0  0  0  0  0
  191.7760  175.4030  143.4410 C   0  0  0  0  0  0  0  0  0  0  0  0
  189.6800  172.5660  139.7260 C   0  0  0  0  0  0  0  0  0  0  0  0
  189.0430  174.2840  141.2680 C   0  0  0  0  0  3  0  0  0  0  0  0
  188.7740  173.3580  140.2100 N   0  0  0  0  0  0  0  0  0  0  0  0
  191.3160  173.5670  141.3640 C   0  0  0  0  0  0  0  0  0  0  0  0
  193.7360  172.8290  141.4370 C   0  0  0  0  0  2  0  0  0  0  0  0
  195.9310  173.6200  140.7030 N   0  0  0  0  0  0  0  0  0  0  0  0
  197.1810  175.6960  140.4940 C   0  0  0  0  0  1  0  0  0  0  0  0
  196.4310  174.6080  139.7530 C   0  0  2  0  0  3  0  0  0  0  0  0
  195.2230  175.1650  139.1550 N   0  0  0  0  0  0  0  0  0  0  0  0
  194.6480  173.6490  140.5900 C   0  0  0  0  0  0  0  0  0  0  0  0
  194.1980  174.6030  139.6470 N   0  0  0  0  0  0  0  0  0  0  0  0
  188.6330  177.9290  144.9230 C   0  0  0  0  0  2  0  0  0  0  0  0
  187.2250  176.6030  146.5650 C   0  0  0  0  0  2  0  0  0  0  0  0
  184.8230  176.5940  146.5320 O   0  0  0  0  0  0  0  0  0  0  0  0
  185.9480  177.1250  147.2090 C   0  0  2  0  0  3  0  0  0  0  0  0
  186.1010  178.0660  144.9450 C   0  0  2  0  0  3  0  0  0  0  0  0
  187.3180  177.1780  145.1550 C   0  0  1  0  0  3  0  0  0  0  0  0
  184.4390  178.9210  146.6650 O   0  0  0  0  0  1  0  0  0  0  0  0
  185.2350  177.8880  146.1750 C   0  0  1  0  0  0  0  0  0  0  0  0
  185.9550  176.7890  142.6710 C   0  0  0  0  0  1  0  0  0  0  0  0
  184.2860  178.2350  143.4610 O   0  0  0  0  0  0  0  0  0  0  0  0
  185.3740  177.7300  143.6760 C   0  0  0  0  0  0  0  0  0  0  0  0
  1  3  2  0  0  0  0
  1 14  1  0  0  0  0
  2 14  2  0  0  0  0
  2  5  1  0  0  0  0
  3 12  1  0  0  0  0
  4  2  1  0  0  0  0
  5  9  2  0  0  0  0
  6 15  1  0  0  0  0
  8 13  1  0  0  0  0
  8  7  2  0  0  0  0
  9  7  1  0  0  0  0
 10 18  1  0  0  0  0
 11  1  1  0  0  0  0
 12 26  1  0  0  0  0
 12 13  2  0  0  0  0
 14  8  1  0  0  0  0
 15 17  2  0  0  0  0
 15 10  1  0  0  0  0
 16 11  2  0  0  0  0
 17 16  1  0  0  0  0
 18 11  1  0  0  0  0
 18  4  2  0  0  0  0
 19  4  1  0  0  0  0
 22 21  1  1  0  0  0
 22 20  1  0  0  0  0
 23 25  2  0  0  0  0
 23 22  1  0  0  0  0
 24 20  2  0  0  0  0
 24 19  1  0  0  0  0
 25 24  1  0  0  0  0
 28 29  1  0  0  0  0
 29 27  1  6  0  0  0
 30 36  1  6  0  0  0
 30 31  1  0  0  0  0
 30 33  1  0  0  0  0
 31 26  1  1  0  0  0
 31 27  1  0  0  0  0
 33 28  1  0  0  0  0
 33 32  1  1  0  0  0
 33 29  1  0  0  0  0
 34 36  1  0  0  0  0
 35 36  2  0  0  0  0
M  END
>  <MODEL>
9

>  <REMARK>
 VINA RESULT:      -7.6      2.320      2.708
  Name = 
  5 active torsions:
  status: ('A' for Active; 'I' for Inactive)
    1  A    between atoms: C_5  and  C_21
    2  A    between atoms: C_15  and  C_32
    3  A    between atoms: C_16  and  C_31
    4  A    between atoms: C_21  and  C_22
    5  A    between atoms: C_26  and  C_31
                            x       y       z     vdW  Elec       q    Type
                         _______ _______ _______ _____ _____    ______ ____

>  <TORSDO>
F 5

$$$$
