=
 OpenBabel11062418593D

 51 59  0  0  1  0  0  0  0  0999 V2000
  195.0070  176.3410  145.9180 N   0  0  0  0  0  0  0  0  0  0  0  0
  191.7950  173.4220  140.3850 C   0  0  2  0  0  3  0  0  0  0  0  0
  189.1480  172.4260  141.2990 C   0  0  0  0  0  2  0  0  0  0  0  0
  195.7220  172.7500  136.4360 C   0  0  2  0  0  0  0  0  0  0  0  0
  190.8680  174.6080  146.5980 C   0  0  0  0  0  2  0  0  0  0  0  0
  191.2280  173.8240  141.7590 C   0  0  0  0  0  2  0  0  0  0  0  0
  189.4250  171.5500  135.0270 C   0  0  0  0  0  1  0  0  0  0  0  0
  189.3240  176.8890  144.1350 C   0  0  0  0  0  0  0  0  0  0  0  0
  194.7540  173.2670  137.4830 C   0  0  1  0  0  3  0  0  0  0  0  0
  188.5130  175.2870  142.3410 C   0  0  1  0  0  3  0  0  0  0  0  0
  189.6940  171.5250  136.5130 C   0  0  2  0  0  3  0  0  0  0  0  0
  194.8190  172.9640  135.3860 O   0  0  0  0  0  0  0  0  0  0  0  0
  193.8840  176.9950  145.8980 C   0  0  0  0  0  3  0  0  0  0  0  0
  193.8700  172.8930  141.5760 O   0  0  0  0  0  0  0  0  0  0  0  0
  195.1540  174.8050  140.9590 C   0  0  1  0  0  3  0  0  0  0  0  0
  191.7290  172.6660  137.4950 C   0  0  2  0  0  3  0  0  0  0  0  0
  191.2230  172.0540  139.9250 C   0  0  1  0  0  3  0  0  0  0  0  0
  195.1340  174.6460  138.0110 C   0  0  0  0  0  2  0  0  0  0  0  0
  196.0380  171.2740  136.6100 C   0  0  0  0  0  1  0  0  0  0  0  0
  192.2230  175.2750  146.8730 C   0  0  0  0  0  2  0  0  0  0  0  0
  189.6880  172.1100  139.9180 C   0  0  0  0  0  2  0  0  0  0  0  0
  191.6670  176.7820  144.9730 C   0  0  0  0  0  3  0  0  0  0  0  0
  191.7460  171.5200  138.5620 C   0  0  1  0  0  0  0  0  0  0  0  0
  189.6970  173.7610  141.7860 C   0  0  1  0  0  0  0  0  0  0  0  0
  190.3540  176.0710  144.8450 C   0  0  1  0  0  3  0  0  0  0  0  0
  189.1080  174.8580  141.1350 O   0  0  0  0  0  0  0  0  0  0  0  0
  189.8890  175.5980  146.1450 N   0  0  0  0  0  2  0  0  0  0  0  0
  190.3190  172.8570  136.9440 C   0  0  0  0  0  2  0  0  0  0  0  0
  195.6350  176.1780  141.4110 C   0  0  0  0  0  1  0  0  0  0  0  0
  189.1200  174.1340  143.1150 C   0  0  0  0  0  2  0  0  0  0  0  0
  196.8870  173.5130  136.2740 O   0  0  0  0  0  1  0  0  0  0  0  0
  193.6950  175.5100  143.2820 F   0  0  0  0  0  0  0  0  0  0  0  0
  196.5750  175.3040  143.9390 F   0  0  0  0  0  0  0  0  0  0  0  0
  194.8670  173.7740  142.0540 C   0  0  1  0  0  3  0  0  0  0  0  0
  190.5770  170.3330  136.8670 C   0  0  0  0  0  2  0  0  0  0  0  0
  195.5770  174.4700  144.4060 C   0  0  2  0  0  3  0  0  0  0  0  0
  192.6980  172.4050  136.3350 C   0  0  0  0  0  2  0  0  0  0  0  0
  188.8390  177.9470  144.7120 N   0  0  0  0  0  2  0  0  0  0  0  0
  190.9570  170.3730  138.2280 O   0  0  0  0  0  0  0  0  0  0  0  0
  193.9810  175.3080  138.7730 C   0  0  0  0  0  2  0  0  0  0  0  0
  193.8510  174.8690  140.2340 C   0  0  1  0  0  3  0  0  0  0  0  0
  193.0650  171.0900  138.7530 O   0  0  0  0  0  1  0  0  0  0  0  0
  192.5710  176.3420  145.8530 C   0  0  0  0  0  0  0  0  0  0  0  0
  189.0310  176.6150  142.7390 N   0  0  0  0  0  0  0  0  0  0  0  0
  193.3300  173.4580  140.3950 C   0  0  2  0  0  3  0  0  0  0  0  0
  194.4190  174.3400  143.4160 C   0  0  1  0  0  3  0  0  0  0  0  0
  193.8350  173.4180  136.2910 C   0  0  1  0  0  3  0  0  0  0  0  0
  195.1210  174.8850  145.8070 C   0  0  0  0  0  2  0  0  0  0  0  0
  188.6970  177.7610  141.8860 C   0  0  0  0  0  3  0  0  0  0  0  0
  187.2960  178.2840  142.1660 C   0  0  0  0  0  2  0  0  0  0  0  0
  187.5400  177.3920  140.9740 C   0  0  0  0  0  2  0  0  0  0  0  0
  2 45  1  0  0  0  0
  2  6  1  1  0  0  0
  4 19  1  1  0  0  0
  4  9  1  0  0  0  0
  5 20  1  0  0  0  0
  6 24  1  0  0  0  0
  8 38  2  0  0  0  0
  8 25  1  0  0  0  0
  9 18  1  6  0  0  0
 10 44  1  0  0  0  0
 10 30  1  1  0  0  0
 11  7  1  6  0  0  0
 11 35  1  0  0  0  0
 11 28  1  0  0  0  0
 12 47  1  0  0  0  0
 12  4  1  0  0  0  0
 13  1  2  0  0  0  0
 15 29  1  1  0  0  0
 15 34  1  0  0  0  0
 16 37  1  6  0  0  0
 16 23  1  0  0  0  0
 17 21  1  6  0  0  0
 17  2  1  0  0  0  0
 18 40  1  0  0  0  0
 21  3  1  0  0  0  0
 22 43  2  0  0  0  0
 23 42  1  1  0  0  0
 23 17  1  0  0  0  0
 24  3  1  6  0  0  0
 24 30  1  0  0  0  0
 25 22  1  1  0  0  0
 25 27  1  0  0  0  0
 26 24  1  0  0  0  0
 26 10  1  0  0  0  0
 27  5  1  0  0  0  0
 28 16  1  0  0  0  0
 31  4  1  0  0  0  0
 34 14  1  6  0  0  0
 34 46  1  0  0  0  0
 35 39  1  0  0  0  0
 36 33  1  6  0  0  0
 36 48  1  0  0  0  0
 39 23  1  0  0  0  0
 41 40  1  6  0  0  0
 41 45  1  0  0  0  0
 41 15  1  0  0  0  0
 43 13  1  0  0  0  0
 43 20  1  0  0  0  0
 44  8  1  0  0  0  0
 45 14  1  1  0  0  0
 46 32  1  6  0  0  0
 46 36  1  0  0  0  0
 47 37  1  1  0  0  0
 47  9  1  0  0  0  0
 48  1  1  0  0  0  0
 49 50  1  0  0  0  0
 49 44  1  0  0  0  0
 51 49  1  0  0  0  0
 51 50  1  0  0  0  0
M  END
>  <MODEL>
1

>  <REMARK>
 VINA RESULT:      -9.6      0.000      0.000
  Name = 
  1 active torsions:
  status: ('A' for Active; 'I' for Inactive)
    1  A    between atoms: C_38  and  N_47
                            x       y       z     vdW  Elec       q    Type
                         _______ _______ _______ _____ _____    ______ ____

>  <TORSDO>
F 1

$$$$
=
 OpenBabel11062418593D

 51 59  0  0  1  0  0  0  0  0999 V2000
  187.9950  175.6010  144.0900 N   0  0  0  0  0  0  0  0  0  0  0  0
  193.3660  173.4110  140.1130 C   0  0  2  0  0  3  0  0  0  0  0  0
  195.4450  175.5350  140.1540 C   0  0  0  0  0  2  0  0  0  0  0  0
  191.4730  169.0410  137.1480 C   0  0  2  0  0  0  0  0  0  0  0  0
  191.5660  178.3760  143.7160 C   0  0  0  0  0  2  0  0  0  0  0  0
  193.2890  174.5760  141.1170 C   0  0  0  0  0  2  0  0  0  0  0  0
  197.8430  170.6160  136.9550 C   0  0  0  0  0  1  0  0  0  0  0  0
  193.8670  175.8890  145.1920 C   0  0  0  0  0  0  0  0  0  0  0  0
  191.8900  170.0270  138.2220 C   0  0  1  0  0  3  0  0  0  0  0  0
  195.4340  175.3830  143.2610 C   0  0  1  0  0  3  0  0  0  0  0  0
  196.9830  171.7640  137.4290 C   0  0  2  0  0  3  0  0  0  0  0  0
  192.7180  168.3970  137.1500 O   0  0  0  0  0  0  0  0  0  0  0  0
  188.9880  175.6960  144.9230 C   0  0  0  0  0  3  0  0  0  0  0  0
  191.0160  173.8950  139.6170 O   0  0  0  0  0  0  0  0  0  0  0  0
  190.0020  172.1020  140.8180 C   0  0  1  0  0  3  0  0  0  0  0  0
  194.6650  171.3650  138.3660 C   0  0  2  0  0  3  0  0  0  0  0  0
  194.1500  173.8250  138.8390 C   0  0  1  0  0  3  0  0  0  0  0  0
  191.2520  169.7330  139.5740 C   0  0  0  0  0  2  0  0  0  0  0  0
  191.1940  169.7140  135.8140 C   0  0  0  0  0  1  0  0  0  0  0  0
  190.1850  177.8360  144.1150 C   0  0  0  0  0  2  0  0  0  0  0  0
  195.5440  174.3360  139.2320 C   0  0  0  0  0  2  0  0  0  0  0  0
  191.3970  175.8040  144.8830 C   0  0  0  0  0  3  0  0  0  0  0  0
  194.2690  172.7410  137.7310 C   0  0  1  0  0  0  0  0  0  0  0  0
  194.6720  175.1660  141.4150 C   0  0  1  0  0  0  0  0  0  0  0  0
  192.6810  176.4690  144.4910 C   0  0  1  0  0  3  0  0  0  0  0  0
  195.4170  174.3590  142.2900 O   0  0  0  0  0  0  0  0  0  0  0  0
  192.5900  177.9170  144.6570 N   0  0  0  0  0  2  0  0  0  0  0  0
  196.1640  171.3230  138.6480 C   0  0  0  0  0  2  0  0  0  0  0  0
  189.3030  171.7120  142.1140 C   0  0  0  0  0  1  0  0  0  0  0  0
  194.6240  176.3110  142.3770 C   0  0  0  0  0  2  0  0  0  0  0  0
  190.4410  168.1660  137.5110 O   0  0  0  0  0  1  0  0  0  0  0  0
  190.3250  174.2380  142.6500 F   0  0  0  0  0  0  0  0  0  0  0  0
  187.4470  173.8550  142.0640 F   0  0  0  0  0  0  0  0  0  0  0  0
  189.8640  173.5590  140.3650 C   0  0  1  0  0  3  0  0  0  0  0  0
  196.0980  172.2630  136.2900 C   0  0  0  0  0  2  0  0  0  0  0  0
  188.2060  174.9560  141.7120 C   0  0  2  0  0  3  0  0  0  0  0  0
  194.2810  170.1750  137.4790 C   0  0  0  0  0  2  0  0  0  0  0  0
  194.0100  176.0810  146.4690 N   0  0  0  0  0  2  0  0  0  0  0  0
  195.1870  173.2400  136.7510 O   0  0  0  0  0  0  0  0  0  0  0  0
  191.9470  170.4850  140.7150 C   0  0  0  0  0  2  0  0  0  0  0  0
  191.4830  171.9330  140.8970 C   0  0  1  0  0  3  0  0  0  0  0  0
  193.0160  172.6200  137.1190 O   0  0  0  0  0  1  0  0  0  0  0  0
  190.2340  176.4060  144.6140 C   0  0  0  0  0  0  0  0  0  0  0  0
  194.7270  174.9540  144.4880 N   0  0  0  0  0  0  0  0  0  0  0  0
  191.9660  172.8620  139.8050 C   0  0  2  0  0  3  0  0  0  0  0  0
  189.6750  174.6000  141.4840 C   0  0  1  0  0  3  0  0  0  0  0  0
  193.2110  169.2980  138.1180 C   0  0  1  0  0  3  0  0  0  0  0  0
  188.0160  176.0990  142.7130 C   0  0  0  0  0  2  0  0  0  0  0  0
  195.3220  173.8680  145.2750 C   0  0  0  0  0  3  0  0  0  0  0  0
  195.1090  172.5130  144.6170 C   0  0  0  0  0  2  0  0  0  0  0  0
  194.2240  172.9370  145.7630 C   0  0  0  0  0  2  0  0  0  0  0  0
  1 13  2  0  0  0  0
  2  6  1  1  0  0  0
  4 19  1  6  0  0  0
  4 12  1  0  0  0  0
  4 31  1  0  0  0  0
  4  9  1  0  0  0  0
  5 20  1  0  0  0  0
  5 27  1  0  0  0  0
  6 24  1  0  0  0  0
  8 38  2  0  0  0  0
  9 18  1  1  0  0  0
 10 30  1  6  0  0  0
 10 44  1  0  0  0  0
 11  7  1  6  0  0  0
 11 28  1  0  0  0  0
 12 47  1  0  0  0  0
 15 41  1  0  0  0  0
 15 29  1  1  0  0  0
 16 37  1  6  0  0  0
 16 28  1  0  0  0  0
 17 21  1  1  0  0  0
 17  2  1  0  0  0  0
 18 40  1  0  0  0  0
 20 43  1  0  0  0  0
 21  3  1  0  0  0  0
 23 42  1  6  0  0  0
 23 16  1  0  0  0  0
 23 17  1  0  0  0  0
 24  3  1  6  0  0  0
 24 26  1  0  0  0  0
 24 30  1  0  0  0  0
 25 27  1  0  0  0  0
 25 22  1  1  0  0  0
 25  8  1  0  0  0  0
 26 10  1  0  0  0  0
 34 14  1  1  0  0  0
 34 15  1  0  0  0  0
 34 46  1  0  0  0  0
 35 39  1  0  0  0  0
 35 11  1  0  0  0  0
 36 33  1  1  0  0  0
 36 48  1  0  0  0  0
 39 23  1  0  0  0  0
 41 40  1  6  0  0  0
 43 22  2  0  0  0  0
 43 13  1  0  0  0  0
 44  8  1  0  0  0  0
 44 49  1  0  0  0  0
 45 14  1  1  0  0  0
 45  2  1  0  0  0  0
 45 41  1  0  0  0  0
 46 36  1  0  0  0  0
 46 32  1  1  0  0  0
 47 37  1  6  0  0  0
 47  9  1  0  0  0  0
 48  1  1  0  0  0  0
 49 51  1  0  0  0  0
 50 49  1  0  0  0  0
 50 51  1  0  0  0  0
M  END
>  <MODEL>
2

>  <REMARK>
 VINA RESULT:      -8.4      1.991      5.786
  Name = 
  1 active torsions:
  status: ('A' for Active; 'I' for Inactive)
    1  A    between atoms: C_38  and  N_47
                            x       y       z     vdW  Elec       q    Type
                         _______ _______ _______ _____ _____    ______ ____

>  <TORSDO>
F 1

$$$$
=
 OpenBabel11062418593D

 51 59  0  0  1  0  0  0  0  0999 V2000
  190.4350  174.5050  145.6000 N   0  0  0  0  0  0  0  0  0  0  0  0
  194.5780  173.8050  139.9610 C   0  0  2  0  0  3  0  0  0  0  0  0
  196.8730  175.6640  140.2900 C   0  0  0  0  0  2  0  0  0  0  0  0
  191.5920  170.9940  136.1320 C   0  0  2  0  0  0  0  0  0  0  0  0
  194.1790  177.0660  145.4450 C   0  0  0  0  0  2  0  0  0  0  0  0
  194.8510  174.4950  141.3100 C   0  0  0  0  0  2  0  0  0  0  0  0
  197.9400  172.2650  135.0460 C   0  0  0  0  0  1  0  0  0  0  0  0
  196.3970  174.1130  145.3260 C   0  0  0  0  0  0  0  0  0  0  0  0
  192.3380  171.4720  137.3630 C   0  0  1  0  0  3  0  0  0  0  0  0
  197.4680  174.3270  143.0350 C   0  0  1  0  0  3  0  0  0  0  0  0
  197.3440  173.1750  136.0950 C   0  0  2  0  0  3  0  0  0  0  0  0
  192.7210  170.3500  135.6070 O   0  0  0  0  0  0  0  0  0  0  0  0
  191.5790  174.2330  146.1540 C   0  0  0  0  0  3  0  0  0  0  0  0
  192.2560  174.5360  140.2410 O   0  0  0  0  0  0  0  0  0  0  0  0
  191.2870  172.4610  140.9030 C   0  0  1  0  0  3  0  0  0  0  0  0
  195.2310  172.5400  137.3340 C   0  0  2  0  0  3  0  0  0  0  0  0
  195.1350  174.6450  138.7820 C   0  0  1  0  0  3  0  0  0  0  0  0
  191.9520  170.7060  138.6230 C   0  0  0  0  0  2  0  0  0  0  0  0
  191.1380  172.1390  135.2430 C   0  0  0  0  0  1  0  0  0  0  0  0
  192.8490  176.4700  145.9290 C   0  0  0  0  0  2  0  0  0  0  0  0
  196.6320  174.9100  138.9970 C   0  0  0  0  0  2  0  0  0  0  0  0
  193.9250  174.2520  145.5940 C   0  0  0  0  0  3  0  0  0  0  0  0
  194.8920  174.0680  137.3590 C   0  0  1  0  0  0  0  0  0  0  0  0
  196.3290  174.8700  141.4710 C   0  0  1  0  0  0  0  0  0  0  0  0
  195.1770  174.9650  145.1840 C   0  0  1  0  0  3  0  0  0  0  0  0
  197.1270  173.7580  141.7890 O   0  0  0  0  0  0  0  0  0  0  0  0
  195.3040  176.2390  145.8850 N   0  0  0  0  0  2  0  0  0  0  0  0
  196.7390  172.3330  137.2230 C   0  0  0  0  0  2  0  0  0  0  0  0
  190.8190  171.6290  142.0910 C   0  0  0  0  0  1  0  0  0  0  0  0
  196.6200  175.5550  142.7680 C   0  0  0  0  0  2  0  0  0  0  0  0
  190.5530  170.0880  136.3800 O   0  0  0  0  0  1  0  0  0  0  0  0
  192.2380  173.7110  143.2590 F   0  0  0  0  0  0  0  0  0  0  0  0
  189.2760  173.6990  143.2650 F   0  0  0  0  0  0  0  0  0  0  0  0
  191.2450  173.9830  141.0610 C   0  0  1  0  0  3  0  0  0  0  0  0
  196.3190  174.1100  135.4590 C   0  0  0  0  0  2  0  0  0  0  0  0
  190.0810  174.8190  143.1730 C   0  0  2  0  0  3  0  0  0  0  0  0
  194.5290  171.7990  136.1890 C   0  0  0  0  0  2  0  0  0  0  0  0
  196.8170  173.7920  146.5120 N   0  0  0  0  0  2  0  0  0  0  0  0
  195.6490  174.8700  136.4440 O   0  0  0  0  0  0  0  0  0  0  0  0
  192.9510  170.9320  139.7630 C   0  0  0  0  0  2  0  0  0  0  0  0
  192.7200  172.2150  140.5660 C   0  0  1  0  0  3  0  0  0  0  0  0
  193.5360  174.2420  137.0570 O   0  0  0  0  0  1  0  0  0  0  0  0
  192.8170  174.9570  145.8440 C   0  0  0  0  0  0  0  0  0  0  0  0
  196.9730  173.4880  144.1490 N   0  0  0  0  0  0  0  0  0  0  0  0
  193.0860  173.4730  139.8100 C   0  0  2  0  0  3  0  0  0  0  0  0
  191.4180  174.5200  142.4950 C   0  0  1  0  0  3  0  0  0  0  0  0
  193.5080  170.7880  136.6940 C   0  0  1  0  0  3  0  0  0  0  0  0
  190.2410  175.4950  144.5380 C   0  0  0  0  0  2  0  0  0  0  0  0
  197.5720  172.1600  144.3200 C   0  0  0  0  0  3  0  0  0  0  0  0
  196.8370  171.1000  143.5130 C   0  0  0  0  0  2  0  0  0  0  0  0
  196.5700  171.2360  144.9920 C   0  0  0  0  0  2  0  0  0  0  0  0
  1 13  2  0  0  0  0
  2  6  1  1  0  0  0
  4 19  1  6  0  0  0
  4 31  1  0  0  0  0
  4  9  1  0  0  0  0
  5 27  1  0  0  0  0
  5 20  1  0  0  0  0
  6 24  1  0  0  0  0
  8 38  2  0  0  0  0
  9 18  1  1  0  0  0
 10 30  1  1  0  0  0
 10 44  1  0  0  0  0
 11  7  1  6  0  0  0
 11 28  1  0  0  0  0
 12  4  1  0  0  0  0
 12 47  1  0  0  0  0
 15 34  1  0  0  0  0
 15 29  1  1  0  0  0
 16 37  1  6  0  0  0
 16 23  1  0  0  0  0
 17 21  1  1  0  0  0
 17  2  1  0  0  0  0
 18 40  1  0  0  0  0
 21  3  1  0  0  0  0
 22 43  2  0  0  0  0
 23 42  1  6  0  0  0
 23 17  1  0  0  0  0
 24  3  1  6  0  0  0
 24 26  1  0  0  0  0
 24 30  1  0  0  0  0
 25  8  1  0  0  0  0
 25 22  1  1  0  0  0
 25 27  1  0  0  0  0
 26 10  1  0  0  0  0
 28 16  1  0  0  0  0
 34 14  1  6  0  0  0
 34 46  1  0  0  0  0
 35 11  1  0  0  0  0
 35 39  1  0  0  0  0
 36 33  1  1  0  0  0
 36 48  1  0  0  0  0
 39 23  1  0  0  0  0
 41 40  1  6  0  0  0
 41 15  1  0  0  0  0
 43 20  1  0  0  0  0
 43 13  1  0  0  0  0
 44 49  1  0  0  0  0
 44  8  1  0  0  0  0
 45  2  1  0  0  0  0
 45 14  1  1  0  0  0
 45 41  1  0  0  0  0
 46 36  1  0  0  0  0
 46 32  1  1  0  0  0
 47 37  1  6  0  0  0
 47  9  1  0  0  0  0
 48  1  1  0  0  0  0
 49 51  1  0  0  0  0
 50 49  1  0  0  0  0
 50 51  1  0  0  0  0
M  END
>  <MODEL>
3

>  <REMARK>
 VINA RESULT:      -8.4      2.055      6.072
  Name = 
  1 active torsions:
  status: ('A' for Active; 'I' for Inactive)
    1  A    between atoms: C_38  and  N_47
                            x       y       z     vdW  Elec       q    Type
                         _______ _______ _______ _____ _____    ______ ____

>  <TORSDO>
F 1

$$$$
=
 OpenBabel11062418593D

 51 59  0  0  1  0  0  0  0  0999 V2000
  189.3680  174.1680  144.9360 N   0  0  0  0  0  0  0  0  0  0  0  0
  194.0010  173.4240  139.6990 C   0  0  2  0  0  3  0  0  0  0  0  0
  195.9440  175.6650  139.8870 C   0  0  0  0  0  2  0  0  0  0  0  0
  191.8050  169.6750  136.1510 C   0  0  2  0  0  0  0  0  0  0  0  0
  192.6650  177.2700  144.6270 C   0  0  0  0  0  2  0  0  0  0  0  0
  194.0560  174.3230  140.9480 C   0  0  0  0  0  2  0  0  0  0  0  0
  197.9410  171.8270  135.2540 C   0  0  0  0  0  1  0  0  0  0  0  0
  195.3210  174.7380  145.0580 C   0  0  0  0  0  0  0  0  0  0  0  0
  192.3670  170.4290  137.3400 C   0  0  1  0  0  3  0  0  0  0  0  0
  196.5220  174.8210  142.8250 C   0  0  1  0  0  3  0  0  0  0  0  0
  197.1300  172.7560  136.1260 C   0  0  2  0  0  3  0  0  0  0  0  0
  193.0580  169.1630  135.7880 O   0  0  0  0  0  0  0  0  0  0  0  0
  190.4930  174.1640  145.5870 C   0  0  0  0  0  3  0  0  0  0  0  0
  191.5790  173.7900  139.7400 O   0  0  0  0  0  0  0  0  0  0  0  0
  190.8970  171.6890  140.6360 C   0  0  1  0  0  3  0  0  0  0  0  0
  195.0500  171.9480  137.3220 C   0  0  2  0  0  3  0  0  0  0  0  0
  194.5120  174.1820  138.4450 C   0  0  1  0  0  3  0  0  0  0  0  0
  192.0070  169.7820  138.6730 C   0  0  0  0  0  2  0  0  0  0  0  0
  191.2490  170.6000  135.0820 C   0  0  0  0  0  1  0  0  0  0  0  0
  191.4110  176.5320  145.1160 C   0  0  0  0  0  2  0  0  0  0  0  0
  195.9280  174.7180  138.7040 C   0  0  0  0  0  2  0  0  0  0  0  0
  192.8430  174.4980  145.1640 C   0  0  0  0  0  3  0  0  0  0  0  0
  194.4750  173.3890  137.1080 C   0  0  1  0  0  0  0  0  0  0  0  0
  195.4400  174.9550  141.1370 C   0  0  1  0  0  0  0  0  0  0  0  0
  193.9970  175.3480  144.7270 C   0  0  1  0  0  3  0  0  0  0  0  0
  196.3740  174.0430  141.6560 O   0  0  0  0  0  0  0  0  0  0  0  0
  193.8680  176.7080  145.2440 N   0  0  0  0  0  2  0  0  0  0  0  0
  196.5760  171.9810  137.3270 C   0  0  0  0  0  2  0  0  0  0  0  0
  190.4730  170.9560  141.9030 C   0  0  0  0  0  1  0  0  0  0  0  0
  195.5170  175.8450  142.3370 C   0  0  0  0  0  2  0  0  0  0  0  0
  190.9040  168.6500  136.4670 O   0  0  0  0  0  1  0  0  0  0  0  0
  191.4520  173.3810  142.8390 F   0  0  0  0  0  0  0  0  0  0  0  0
  188.5380  172.8780  142.6790 F   0  0  0  0  0  0  0  0  0  0  0  0
  190.6060  173.1910  140.5720 C   0  0  1  0  0  3  0  0  0  0  0  0
  196.0240  173.4150  135.3050 C   0  0  0  0  0  2  0  0  0  0  0  0
  189.1620  174.0940  142.4730 C   0  0  2  0  0  3  0  0  0  0  0  0
  194.5660  170.9570  136.2570 C   0  0  0  0  0  2  0  0  0  0  0  0
  195.6910  174.6510  146.3000 N   0  0  0  0  0  2  0  0  0  0  0  0
  195.1680  174.1770  136.1320 O   0  0  0  0  0  0  0  0  0  0  0  0
  192.8660  170.3200  139.8240 C   0  0  0  0  0  2  0  0  0  0  0  0
  192.3730  171.6420  140.4200 C   0  0  1  0  0  3  0  0  0  0  0  0
  193.1370  173.2940  136.7080 O   0  0  0  0  0  1  0  0  0  0  0  0
  191.6230  175.0360  145.2470 C   0  0  0  0  0  0  0  0  0  0  0  0
  196.0790  174.0660  144.0180 N   0  0  0  0  0  0  0  0  0  0  0  0
  192.5970  172.8320  139.5130 C   0  0  2  0  0  3  0  0  0  0  0  0
  190.5780  173.9340  141.9210 C   0  0  1  0  0  3  0  0  0  0  0  0
  193.6790  169.8650  136.8430 C   0  0  1  0  0  3  0  0  0  0  0  0
  189.1060  174.9610  143.7340 C   0  0  0  0  0  2  0  0  0  0  0  0
  196.8630  172.8900  144.4120 C   0  0  0  0  0  3  0  0  0  0  0  0
  196.3830  171.6310  143.7070 C   0  0  0  0  0  2  0  0  0  0  0  0
  195.9620  171.9000  145.1300 C   0  0  0  0  0  2  0  0  0  0  0  0
  1 13  2  0  0  0  0
  2  6  1  1  0  0  0
  4 19  1  6  0  0  0
  4 31  1  0  0  0  0
  4  9  1  0  0  0  0
  5 20  1  0  0  0  0
  5 27  1  0  0  0  0
  6 24  1  0  0  0  0
  8 38  2  0  0  0  0
  9 18  1  1  0  0  0
 10 30  1  6  0  0  0
 10 44  1  0  0  0  0
 11  7  1  6  0  0  0
 11 28  1  0  0  0  0
 12  4  1  0  0  0  0
 12 47  1  0  0  0  0
 15 29  1  1  0  0  0
 16 37  1  6  0  0  0
 16 28  1  0  0  0  0
 17 21  1  1  0  0  0
 17  2  1  0  0  0  0
 18 40  1  0  0  0  0
 20 43  1  0  0  0  0
 21  3  1  0  0  0  0
 22 43  2  0  0  0  0
 23 42  1  6  0  0  0
 23 16  1  0  0  0  0
 23 17  1  0  0  0  0
 24  3  1  6  0  0  0
 24 26  1  0  0  0  0
 24 30  1  0  0  0  0
 25  8  1  0  0  0  0
 25 22  1  1  0  0  0
 25 27  1  0  0  0  0
 26 10  1  0  0  0  0
 34 14  1  6  0  0  0
 34 15  1  0  0  0  0
 34 46  1  0  0  0  0
 35 11  1  0  0  0  0
 35 39  1  0  0  0  0
 36 33  1  1  0  0  0
 36 48  1  0  0  0  0
 39 23  1  0  0  0  0
 41 40  1  6  0  0  0
 41 15  1  0  0  0  0
 43 13  1  0  0  0  0
 44 49  1  0  0  0  0
 44  8  1  0  0  0  0
 45  2  1  0  0  0  0
 45 14  1  1  0  0  0
 45 41  1  0  0  0  0
 46 36  1  0  0  0  0
 46 32  1  1  0  0  0
 47 37  1  6  0  0  0
 47  9  1  0  0  0  0
 48  1  1  0  0  0  0
 49 51  1  0  0  0  0
 50 49  1  0  0  0  0
 50 51  1  0  0  0  0
M  END
>  <MODEL>
4

>  <REMARK>
 VINA RESULT:      -8.3      2.123      5.893
  Name = 
  1 active torsions:
  status: ('A' for Active; 'I' for Inactive)
    1  A    between atoms: C_38  and  N_47
                            x       y       z     vdW  Elec       q    Type
                         _______ _______ _______ _____ _____    ______ ____

>  <TORSDO>
F 1

$$$$
=
 OpenBabel11062418593D

 51 59  0  0  1  0  0  0  0  0999 V2000
  189.8430  171.7790  137.3530 N   0  0  0  0  0  0  0  0  0  0  0  0
  190.9400  174.6050  143.6980 C   0  0  2  0  0  3  0  0  0  0  0  0
  193.3440  173.3020  144.8640 C   0  0  0  0  0  2  0  0  0  0  0  0
  186.2590  177.3950  145.0290 C   0  0  2  0  0  0  0  0  0  0  0  0
  193.4020  170.2500  139.7180 C   0  0  0  0  0  2  0  0  0  0  0  0
  191.8630  173.7260  142.8340 C   0  0  0  0  0  2  0  0  0  0  0  0
  191.5660  177.8910  148.8590 C   0  0  0  0  0  1  0  0  0  0  0  0
  194.9730  173.5920  139.8380 C   0  0  0  0  0  0  0  0  0  0  0  0
  187.5230  176.8520  144.3920 C   0  0  1  0  0  3  0  0  0  0  0  0
  194.9330  174.1250  142.3190 C   0  0  1  0  0  3  0  0  0  0  0  0
  191.6090  176.6660  147.9760 C   0  0  2  0  0  3  0  0  0  0  0  0
  186.9530  178.3800  145.7440 O   0  0  0  0  0  0  0  0  0  0  0  0
  191.0730  172.1850  137.2440 C   0  0  0  0  0  3  0  0  0  0  0  0
  189.0880  173.3130  142.7480 O   0  0  0  0  0  0  0  0  0  0  0  0
  188.2760  174.9170  141.1830 C   0  0  1  0  0  3  0  0  0  0  0  0
  190.2070  176.5160  145.8740 C   0  0  2  0  0  3  0  0  0  0  0  0
  191.0110  174.1870  145.1910 C   0  0  1  0  0  3  0  0  0  0  0  0
  187.6490  177.2220  142.9180 C   0  0  0  0  0  2  0  0  0  0  0  0
  185.5960  176.3920  145.9580 C   0  0  0  0  0  1  0  0  0  0  0  0
  192.3650  170.4040  138.5960 C   0  0  0  0  0  2  0  0  0  0  0  0
  192.4680  174.2370  145.6740 C   0  0  0  0  0  2  0  0  0  0  0  0
  192.9110  172.8300  138.6660 C   0  0  0  0  0  3  0  0  0  0  0  0
  190.0960  174.9810  146.1650 C   0  0  1  0  0  0  0  0  0  0  0  0
  193.2910  173.6780  143.3880 C   0  0  1  0  0  0  0  0  0  0  0  0
  193.9260  172.5310  139.7270 C   0  0  1  0  0  3  0  0  0  0  0  0
  194.0110  174.8510  143.1030 O   0  0  0  0  0  0  0  0  0  0  0  0
  194.5000  171.2010  139.5390 N   0  0  0  0  0  2  0  0  0  0  0  0
  191.4720  177.0860  146.5080 C   0  0  0  0  0  2  0  0  0  0  0  0
  188.2890  175.3450  139.7200 C   0  0  0  0  0  1  0  0  0  0  0  0
  194.2060  172.8190  142.5740 C   0  0  0  0  0  2  0  0  0  0  0  0
  185.3390  177.9610  144.1370 O   0  0  0  0  0  1  0  0  0  0  0  0
  190.3130  173.4490  139.8730 F   0  0  0  0  0  0  0  0  0  0  0  0
  187.6830  172.7730  138.6920 F   0  0  0  0  0  0  0  0  0  0  0  0
  188.4880  173.4280  141.4730 C   0  0  1  0  0  3  0  0  0  0  0  0
  190.5260  175.6770  148.3970 C   0  0  0  0  0  2  0  0  0  0  0  0
  188.4890  171.9160  139.4170 C   0  0  2  0  0  3  0  0  0  0  0  0
  188.9890  177.2990  146.3780 C   0  0  0  0  0  2  0  0  0  0  0  0
  195.8350  173.7410  138.8780 N   0  0  0  0  0  2  0  0  0  0  0  0
  190.4580  174.5910  147.4950 O   0  0  0  0  0  0  0  0  0  0  0  0
  189.0690  176.9970  142.3880 C   0  0  0  0  0  2  0  0  0  0  0  0
  189.3710  175.5540  141.9720 C   0  0  1  0  0  3  0  0  0  0  0  0
  188.7780  174.5660  145.9420 O   0  0  0  0  0  1  0  0  0  0  0  0
  192.1210  171.8510  138.2160 C   0  0  0  0  0  0  0  0  0  0  0  0
  194.8890  174.5690  140.9080 N   0  0  0  0  0  0  0  0  0  0  0  0
  189.5090  174.6060  143.1420 C   0  0  2  0  0  3  0  0  0  0  0  0
  189.3410  172.6540  140.4500 C   0  0  1  0  0  3  0  0  0  0  0  0
  188.1860  177.9160  145.2390 C   0  0  1  0  0  3  0  0  0  0  0  0
  189.3160  171.0210  138.4890 C   0  0  0  0  0  2  0  0  0  0  0  0
  195.3410  175.9330  140.6090 C   0  0  0  0  0  3  0  0  0  0  0  0
  196.8580  176.0420  140.6320 C   0  0  0  0  0  2  0  0  0  0  0  0
  196.0550  176.5070  141.8210 C   0  0  0  0  0  2  0  0  0  0  0  0
  1 48  1  0  0  0  0
  2  6  1  6  0  0  0
  2 17  1  0  0  0  0
  3 21  1  0  0  0  0
  4 12  1  0  0  0  0
  4 19  1  1  0  0  0
  6 24  1  0  0  0  0
  8 44  1  0  0  0  0
  9 18  1  6  0  0  0
  9  4  1  0  0  0  0
  9 47  1  0  0  0  0
 10 30  1  6  0  0  0
 10 26  1  0  0  0  0
 11 35  1  0  0  0  0
 11  7  1  1  0  0  0
 13  1  2  0  0  0  0
 13 43  1  0  0  0  0
 15 29  1  6  0  0  0
 15 34  1  0  0  0  0
 15 41  1  0  0  0  0
 16 23  1  0  0  0  0
 16 37  1  1  0  0  0
 16 28  1  0  0  0  0
 17 21  1  1  0  0  0
 17 23  1  0  0  0  0
 20  5  1  0  0  0  0
 23 42  1  6  0  0  0
 23 39  1  0  0  0  0
 24 30  1  6  0  0  0
 24  3  1  0  0  0  0
 25 22  1  6  0  0  0
 25  8  1  0  0  0  0
 26 24  1  0  0  0  0
 27  5  1  0  0  0  0
 27 25  1  0  0  0  0
 28 11  1  0  0  0  0
 31  4  1  0  0  0  0
 34 14  1  1  0  0  0
 36 33  1  6  0  0  0
 36 46  1  0  0  0  0
 38  8  2  0  0  0  0
 39 35  1  0  0  0  0
 40 18  1  0  0  0  0
 41 40  1  1  0  0  0
 41 45  1  0  0  0  0
 43 20  1  0  0  0  0
 43 22  2  0  0  0  0
 44 10  1  0  0  0  0
 45 14  1  6  0  0  0
 45  2  1  0  0  0  0
 46 32  1  6  0  0  0
 46 34  1  0  0  0  0
 47 12  1  0  0  0  0
 47 37  1  1  0  0  0
 48 36  1  0  0  0  0
 49 50  1  0  0  0  0
 49 44  1  0  0  0  0
 49 51  1  0  0  0  0
 50 51  1  0  0  0  0
M  END
>  <MODEL>
5

>  <REMARK>
 VINA RESULT:      -8.3      3.432      9.131
  Name = 
  1 active torsions:
  status: ('A' for Active; 'I' for Inactive)
    1  A    between atoms: C_38  and  N_47
                            x       y       z     vdW  Elec       q    Type
                         _______ _______ _______ _____ _____    ______ ____

>  <TORSDO>
F 1

$$$$
=
 OpenBabel11062418593D

 51 59  0  0  1  0  0  0  0  0999 V2000
  195.8460  173.0610  135.3970 N   0  0  0  0  0  0  0  0  0  0  0  0
  192.0170  173.9550  141.2270 C   0  0  2  0  0  3  0  0  0  0  0  0
  189.1660  174.1660  140.4110 C   0  0  0  0  0  2  0  0  0  0  0  0
  195.6250  175.2770  145.3140 C   0  0  2  0  0  0  0  0  0  0  0  0
  191.3530  173.4460  134.8890 C   0  0  0  0  0  2  0  0  0  0  0  0
  191.5730  173.5950  139.7970 C   0  0  0  0  0  2  0  0  0  0  0  0
  189.3160  174.1660  146.7490 C   0  0  0  0  0  1  0  0  0  0  0  0
  190.6930  170.4580  136.9600 C   0  0  0  0  0  0  0  0  0  0  0  0
  194.8460  174.6330  144.1830 C   0  0  1  0  0  3  0  0  0  0  0  0
  189.4590  171.4350  138.9500 C   0  0  1  0  0  3  0  0  0  0  0  0
  189.5230  174.4910  145.2880 C   0  0  2  0  0  3  0  0  0  0  0  0
  194.8670  174.6340  146.3020 O   0  0  0  0  0  0  0  0  0  0  0  0
  194.9950  172.0830  135.2980 C   0  0  0  0  0  3  0  0  0  0  0  0
  193.7780  175.2910  140.1710 O   0  0  0  0  0  0  0  0  0  0  0  0
  195.6250  173.8270  140.5290 C   0  0  1  0  0  3  0  0  0  0  0  0
  191.7900  174.2220  144.1940 C   0  0  2  0  0  3  0  0  0  0  0  0
  191.0480  174.9840  141.8690 C   0  0  1  0  0  3  0  0  0  0  0  0
  195.6350  173.5420  143.4680 C   0  0  0  0  0  2  0  0  0  0  0  0
  195.4430  176.7850  145.3640 C   0  0  0  0  0  1  0  0  0  0  0  0
  192.8430  173.2980  134.5490 C   0  0  0  0  0  2  0  0  0  0  0  0
  189.6140  174.4360  141.8350 C   0  0  0  0  0  2  0  0  0  0  0  0
  192.8530  171.4340  136.1960 C   0  0  0  0  0  3  0  0  0  0  0  0
  191.4080  175.4540  143.3060 C   0  0  1  0  0  0  0  0  0  0  0  0
  190.1030  173.1640  139.7470 C   0  0  1  0  0  0  0  0  0  0  0  0
  191.3860  171.6580  136.3990 C   0  0  1  0  0  3  0  0  0  0  0  0
  189.9160  171.8540  140.2180 O   0  0  0  0  0  0  0  0  0  0  0  0
  190.7570  172.1380  135.1720 N   0  0  0  0  0  2  0  0  0  0  0  0
  190.5320  173.5090  144.6810 C   0  0  0  0  0  2  0  0  0  0  0  0
  196.5110  172.7620  139.8920 C   0  0  0  0  0  1  0  0  0  0  0  0
  189.6400  172.8220  138.3650 C   0  0  0  0  0  2  0  0  0  0  0  0
  196.9760  174.9160  145.3880 O   0  0  0  0  0  1  0  0  0  0  0  0
  194.4090  173.0330  138.0980 F   0  0  0  0  0  0  0  0  0  0  0  0
  197.0510  174.2490  137.5390 F   0  0  0  0  0  0  0  0  0  0  0  0
  194.9920  174.8570  139.5900 C   0  0  1  0  0  3  0  0  0  0  0  0
  189.9650  175.9430  145.1300 C   0  0  0  0  0  2  0  0  0  0  0  0
  195.8250  174.7760  137.1780 C   0  0  2  0  0  3  0  0  0  0  0  0
  192.6530  174.6110  145.4000 C   0  0  0  0  0  2  0  0  0  0  0  0
  190.5590  169.3960  136.2240 N   0  0  0  0  0  2  0  0  0  0  0  0
  190.3000  176.2250  143.7870 O   0  0  0  0  0  0  0  0  0  0  0  0
  194.7370  172.6620  142.5930 C   0  0  0  0  0  2  0  0  0  0  0  0
  194.4320  173.2420  141.2090 C   0  0  1  0  0  3  0  0  0  0  0  0
  192.5120  176.3090  143.2080 O   0  0  0  0  0  1  0  0  0  0  0  0
  193.5430  172.2650  135.4090 C   0  0  0  0  0  0  0  0  0  0  0  0
  190.3650  170.4180  138.3740 N   0  0  0  0  0  0  0  0  0  0  0  0
  193.4810  174.4170  141.2450 C   0  0  2  0  0  3  0  0  0  0  0  0
  194.7140  174.3810  138.1510 C   0  0  1  0  0  3  0  0  0  0  0  0
  194.0570  174.0230  145.3200 C   0  0  1  0  0  3  0  0  0  0  0  0
  195.4890  174.4430  135.7210 C   0  0  0  0  0  2  0  0  0  0  0  0
  190.4410  169.1140  139.0440 C   0  0  0  0  0  3  0  0  0  0  0  0
  191.3420  169.1610  140.2680 C   0  0  0  0  0  2  0  0  0  0  0  0
  191.8670  168.5920  138.9730 C   0  0  0  0  0  2  0  0  0  0  0  0
  1 48  1  0  0  0  0
  2  6  1  6  0  0  0
  2 45  1  0  0  0  0
  2 17  1  0  0  0  0
  3 21  1  0  0  0  0
  4 19  1  1  0  0  0
  4 31  1  0  0  0  0
  4 12  1  0  0  0  0
  5 27  1  0  0  0  0
  8 44  1  0  0  0  0
  9 18  1  1  0  0  0
  9  4  1  0  0  0  0
  9 47  1  0  0  0  0
 10 30  1  6  0  0  0
 10 26  1  0  0  0  0
 11  7  1  1  0  0  0
 13  1  2  0  0  0  0
 13 43  1  0  0  0  0
 15 29  1  6  0  0  0
 15 41  1  0  0  0  0
 16 28  1  1  0  0  0
 16 37  1  0  0  0  0
 17 21  1  1  0  0  0
 17 23  1  0  0  0  0
 20  5  1  0  0  0  0
 20 43  1  0  0  0  0
 23 42  1  6  0  0  0
 23 39  1  0  0  0  0
 23 16  1  0  0  0  0
 24 30  1  6  0  0  0
 24  6  1  0  0  0  0
 24 26  1  0  0  0  0
 24  3  1  0  0  0  0
 25 22  1  6  0  0  0
 25  8  1  0  0  0  0
 27 25  1  0  0  0  0
 28 11  1  0  0  0  0
 34 14  1  1  0  0  0
 34 15  1  0  0  0  0
 35 11  1  0  0  0  0
 36 33  1  1  0  0  0
 36 46  1  0  0  0  0
 38  8  2  0  0  0  0
 39 35  1  0  0  0  0
 40 18  1  0  0  0  0
 41 45  1  0  0  0  0
 41 40  1  1  0  0  0
 43 22  2  0  0  0  0
 44 10  1  0  0  0  0
 44 49  1  0  0  0  0
 45 14  1  6  0  0  0
 46 32  1  1  0  0  0
 46 34  1  0  0  0  0
 47 37  1  1  0  0  0
 47 12  1  0  0  0  0
 48 36  1  0  0  0  0
 49 50  1  0  0  0  0
 51 49  1  0  0  0  0
 51 50  1  0  0  0  0
M  END
>  <MODEL>
6

>  <REMARK>
 VINA RESULT:      -8.0      3.572      7.988
  Name = 
  1 active torsions:
  status: ('A' for Active; 'I' for Inactive)
    1  A    between atoms: C_38  and  N_47
                            x       y       z     vdW  Elec       q    Type
                         _______ _______ _______ _____ _____    ______ ____

>  <TORSDO>
F 1

$$$$
=
 OpenBabel11062418593D

 51 59  0  0  1  0  0  0  0  0999 V2000
  193.9760  175.6520  145.8010 N   0  0  0  0  0  0  0  0  0  0  0  0
  193.6760  171.8360  139.9020 C   0  0  2  0  0  3  0  0  0  0  0  0
  196.2750  170.4260  139.6050 C   0  0  0  0  0  2  0  0  0  0  0  0
  189.2180  173.6800  137.0390 C   0  0  2  0  0  0  0  0  0  0  0  0
  197.6420  173.2030  144.7250 C   0  0  0  0  0  2  0  0  0  0  0  0
  194.6880  171.7870  141.0620 C   0  0  0  0  0  2  0  0  0  0  0  0
  192.4820  168.3790  134.9570 C   0  0  0  0  0  1  0  0  0  0  0  0
  195.7640  170.0240  144.8560 C   0  0  0  0  0  0  0  0  0  0  0  0
  190.1870  173.1200  138.0620 C   0  0  1  0  0  3  0  0  0  0  0  0
  195.8670  169.2300  142.4480 C   0  0  1  0  0  3  0  0  0  0  0  0
  193.3080  169.2290  135.8930 C   0  0  2  0  0  3  0  0  0  0  0  0
  188.9400  172.4170  136.4990 O   0  0  0  0  0  0  0  0  0  0  0  0
  194.2690  174.4670  146.2470 C   0  0  0  0  0  3  0  0  0  0  0  0
  193.5390  174.2430  140.3370 O   0  0  0  0  0  0  0  0  0  0  0  0
  191.4440  174.3020  141.4730 C   0  0  1  0  0  3  0  0  0  0  0  0
  192.2150  170.8710  137.4810 C   0  0  2  0  0  3  0  0  0  0  0  0
  194.3920  171.7040  138.5320 C   0  0  1  0  0  3  0  0  0  0  0  0
  189.6180  173.1190  139.4760 C   0  0  0  0  0  2  0  0  0  0  0  0
  189.8980  174.5840  136.0240 C   0  0  0  0  0  1  0  0  0  0  0  0
  196.7150  174.1740  145.4710 C   0  0  0  0  0  2  0  0  0  0  0  0
  195.2300  170.4180  138.5070 C   0  0  0  0  0  2  0  0  0  0  0  0
  195.0340  172.3410  145.4030 C   0  0  0  0  0  3  0  0  0  0  0  0
  193.4780  171.7730  137.2760 C   0  0  1  0  0  0  0  0  0  0  0  0
  195.6060  170.5630  140.9670 C   0  0  1  0  0  0  0  0  0  0  0  0
  196.0540  171.4840  144.7190 C   0  0  1  0  0  3  0  0  0  0  0  0
  194.9630  169.3830  141.3750 O   0  0  0  0  0  0  0  0  0  0  0  0
  197.4030  171.8260  145.1610 N   0  0  0  0  0  2  0  0  0  0  0  0
  192.5610  169.4070  137.2200 C   0  0  0  0  0  2  0  0  0  0  0  0
  190.7710  174.3540  142.8390 C   0  0  0  0  0  1  0  0  0  0  0  0
  196.6090  170.4980  142.0750 C   0  0  0  0  0  2  0  0  0  0  0  0
  188.0670  174.2750  137.5720 O   0  0  0  0  0  1  0  0  0  0  0  0
  193.4260  173.7970  143.4320 F   0  0  0  0  0  0  0  0  0  0  0  0
  192.3230  176.5190  143.8100 F   0  0  0  0  0  0  0  0  0  0  0  0
  192.8400  174.9220  141.3610 C   0  0  1  0  0  3  0  0  0  0  0  0
  193.6400  170.5650  135.2350 C   0  0  0  0  0  2  0  0  0  0  0  0
  193.6140  176.2160  143.4210 C   0  0  2  0  0  3  0  0  0  0  0  0
  191.0430  171.2850  136.5830 C   0  0  0  0  0  2  0  0  0  0  0  0
  195.8810  169.4560  146.0180 N   0  0  0  0  0  2  0  0  0  0  0  0
  194.2890  171.4290  136.1460 O   0  0  0  0  0  0  0  0  0  0  0  0
  190.4330  172.2310  140.4230 C   0  0  0  0  0  2  0  0  0  0  0  0
  191.6800  172.9030  141.0080 C   0  0  1  0  0  3  0  0  0  0  0  0
  193.0710  173.1030  137.1200 O   0  0  0  0  0  1  0  0  0  0  0  0
  195.3160  173.6220  145.6600 C   0  0  0  0  0  0  0  0  0  0  0  0
  195.1620  169.3070  143.7460 N   0  0  0  0  0  0  0  0  0  0  0  0
  192.7920  173.0880  140.0000 C   0  0  2  0  0  3  0  0  0  0  0  0
  193.6930  174.9010  142.6440 C   0  0  1  0  0  3  0  0  0  0  0  0
  189.8580  171.8090  137.3830 C   0  0  1  0  0  3  0  0  0  0  0  0
  194.5750  176.2640  144.6130 C   0  0  0  0  0  2  0  0  0  0  0  0
  194.2170  168.2330  144.0740 C   0  0  0  0  0  3  0  0  0  0  0  0
  192.8590  168.4590  143.4270 C   0  0  0  0  0  2  0  0  0  0  0  0
  193.0630  168.8040  144.8810 C   0  0  0  0  0  2  0  0  0  0  0  0
  1 13  2  0  0  0  0
  2 45  1  0  0  0  0
  2  6  1  1  0  0  0
  4 19  1  6  0  0  0
  4 31  1  0  0  0  0
  4  9  1  0  0  0  0
  5 27  1  0  0  0  0
  5 20  1  0  0  0  0
  8 38  2  0  0  0  0
  9 18  1  1  0  0  0
 10 30  1  1  0  0  0
 10 44  1  0  0  0  0
 11  7  1  6  0  0  0
 11 28  1  0  0  0  0
 12  4  1  0  0  0  0
 12 47  1  0  0  0  0
 15 29  1  1  0  0  0
 16 37  1  6  0  0  0
 17 21  1  1  0  0  0
 17  2  1  0  0  0  0
 18 40  1  0  0  0  0
 20 43  1  0  0  0  0
 21  3  1  0  0  0  0
 22 43  2  0  0  0  0
 23 42  1  6  0  0  0
 23 16  1  0  0  0  0
 23 17  1  0  0  0  0
 24  3  1  6  0  0  0
 24  6  1  0  0  0  0
 24 26  1  0  0  0  0
 24 30  1  0  0  0  0
 25  8  1  0  0  0  0
 25 27  1  0  0  0  0
 25 22  1  1  0  0  0
 26 10  1  0  0  0  0
 28 16  1  0  0  0  0
 34 14  1  6  0  0  0
 34 15  1  0  0  0  0
 34 46  1  0  0  0  0
 35 11  1  0  0  0  0
 35 39  1  0  0  0  0
 36 33  1  1  0  0  0
 36 48  1  0  0  0  0
 39 23  1  0  0  0  0
 41 40  1  6  0  0  0
 41 15  1  0  0  0  0
 43 13  1  0  0  0  0
 44 49  1  0  0  0  0
 44  8  1  0  0  0  0
 45 14  1  1  0  0  0
 45 41  1  0  0  0  0
 46 36  1  0  0  0  0
 46 32  1  1  0  0  0
 47 37  1  6  0  0  0
 47  9  1  0  0  0  0
 48  1  1  0  0  0  0
 49 51  1  0  0  0  0
 50 49  1  0  0  0  0
 50 51  1  0  0  0  0
M  END
>  <MODEL>
7

>  <REMARK>
 VINA RESULT:      -7.6      3.024      6.011
  Name = 
  1 active torsions:
  status: ('A' for Active; 'I' for Inactive)
    1  A    between atoms: C_38  and  N_47
                            x       y       z     vdW  Elec       q    Type
                         _______ _______ _______ _____ _____    ______ ____

>  <TORSDO>
F 1

$$$$
=
 OpenBabel11062418593D

 51 59  0  0  1  0  0  0  0  0999 V2000
  192.2620  176.7750  147.4190 N   0  0  0  0  0  0  0  0  0  0  0  0
  190.7630  173.5240  141.3660 C   0  0  2  0  0  3  0  0  0  0  0  0
  187.9030  172.7210  141.4560 C   0  0  0  0  0  2  0  0  0  0  0  0
  195.6780  172.3500  138.9300 C   0  0  2  0  0  0  0  0  0  0  0  0
  188.0130  175.2810  146.8630 C   0  0  0  0  0  2  0  0  0  0  0  0
  189.8220  174.0670  142.4570 C   0  0  0  0  0  2  0  0  0  0  0  0
  190.0770  171.2950  135.6750 C   0  0  0  0  0  1  0  0  0  0  0  0
  187.4770  177.4020  143.8850 C   0  0  0  0  0  0  0  0  0  0  0  0
  194.4670  172.9950  139.5750 C   0  0  1  0  0  3  0  0  0  0  0  0
  187.1660  175.6860  142.0420 C   0  0  1  0  0  3  0  0  0  0  0  0
  189.8630  171.3880  137.1680 C   0  0  2  0  0  3  0  0  0  0  0  0
  195.1670  172.5100  137.6350 O   0  0  0  0  0  0  0  0  0  0  0  0
  191.2490  177.4720  146.9970 C   0  0  0  0  0  3  0  0  0  0  0  0
  192.3190  173.0140  143.1890 O   0  0  0  0  0  0  0  0  0  0  0  0
  193.8560  174.8110  142.8830 C   0  0  1  0  0  3  0  0  0  0  0  0
  191.5590  172.5240  138.6650 C   0  0  2  0  0  3  0  0  0  0  0  0
  190.2750  172.1460  140.8440 C   0  0  1  0  0  3  0  0  0  0  0  0
  194.7540  174.3980  140.1000 C   0  0  0  0  0  2  0  0  0  0  0  0
  195.8240  170.8830  139.2970 C   0  0  0  0  0  1  0  0  0  0  0  0
  189.2550  175.9130  147.5080 C   0  0  0  0  0  2  0  0  0  0  0  0
  188.8270  172.2650  140.3450 C   0  0  0  0  0  2  0  0  0  0  0  0
  189.4260  177.2710  145.4320 C   0  0  0  0  0  3  0  0  0  0  0  0
  191.1630  171.4750  139.7590 C   0  0  1  0  0  0  0  0  0  0  0  0
  188.3590  174.0700  142.0000 C   0  0  1  0  0  0  0  0  0  0  0  0
  188.1760  176.6070  144.9410 C   0  0  1  0  0  3  0  0  0  0  0  0
  188.0790  175.1300  141.1210 O   0  0  0  0  0  0  0  0  0  0  0  0
  187.2940  176.2680  146.0550 N   0  0  0  0  0  2  0  0  0  0  0  0
  190.4090  172.7250  137.6820 C   0  0  0  0  0  2  0  0  0  0  0  0
  194.2620  176.1970  143.3690 C   0  0  0  0  0  1  0  0  0  0  0  0
  187.4200  174.5800  143.0470 C   0  0  0  0  0  2  0  0  0  0  0  0
  196.8830  173.0470  139.0950 O   0  0  0  0  0  1  0  0  0  0  0  0
  191.7920  175.7740  144.5660 F   0  0  0  0  0  0  0  0  0  0  0  0
  194.3000  175.5070  146.1190 F   0  0  0  0  0  0  0  0  0  0  0  0
  193.1720  173.8910  143.8980 C   0  0  1  0  0  3  0  0  0  0  0  0
  190.5090  170.1950  137.8660 C   0  0  0  0  0  2  0  0  0  0  0  0
  193.1530  174.7580  146.3000 C   0  0  2  0  0  3  0  0  0  0  0  0
  192.8230  172.1230  137.8950 C   0  0  0  0  0  2  0  0  0  0  0  0
  186.9070  178.5250  144.2040 N   0  0  0  0  0  2  0  0  0  0  0  0
  190.4430  170.3370  139.2710 O   0  0  0  0  0  0  0  0  0  0  0  0
  193.4670  175.1710  140.4080 C   0  0  0  0  0  2  0  0  0  0  0  0
  192.8540  174.8660  141.7780 C   0  0  1  0  0  3  0  0  0  0  0  0
  192.3230  171.0090  140.3880 O   0  0  0  0  0  1  0  0  0  0  0  0
  189.9760  176.8720  146.5820 C   0  0  0  0  0  0  0  0  0  0  0  0
  187.6200  177.0210  142.4910 N   0  0  0  0  0  0  0  0  0  0  0  0
  192.2160  173.4970  141.8620 C   0  0  2  0  0  3  0  0  0  0  0  0
  192.3580  174.5910  145.0040 C   0  0  1  0  0  3  0  0  0  0  0  0
  193.9810  173.0800  138.1460 C   0  0  1  0  0  3  0  0  0  0  0  0
  192.3080  175.3120  147.4510 C   0  0  0  0  0  2  0  0  0  0  0  0
  187.6480  178.1020  141.5000 C   0  0  0  0  0  3  0  0  0  0  0  0
  186.2480  178.4970  141.0560 C   0  0  0  0  0  2  0  0  0  0  0  0
  187.0840  177.5950  140.1830 C   0  0  0  0  0  2  0  0  0  0  0  0
  1 48  1  0  0  0  0
  2 45  1  0  0  0  0
  2  6  1  1  0  0  0
  4 31  1  0  0  0  0
  4 19  1  1  0  0  0
  4  9  1  0  0  0  0
  5 20  1  0  0  0  0
  8 38  2  0  0  0  0
  8 25  1  0  0  0  0
  9 18  1  6  0  0  0
 10 44  1  0  0  0  0
 10 30  1  1  0  0  0
 11  7  1  6  0  0  0
 11 28  1  0  0  0  0
 11 35  1  0  0  0  0
 12 47  1  0  0  0  0
 12  4  1  0  0  0  0
 13  1  2  0  0  0  0
 15 29  1  1  0  0  0
 15 34  1  0  0  0  0
 16 28  1  6  0  0  0
 16 23  1  0  0  0  0
 17 21  1  6  0  0  0
 17  2  1  0  0  0  0
 18 40  1  0  0  0  0
 21  3  1  0  0  0  0
 22 43  2  0  0  0  0
 23 42  1  1  0  0  0
 23 17  1  0  0  0  0
 24  3  1  6  0  0  0
 24  6  1  0  0  0  0
 24 30  1  0  0  0  0
 25 22  1  1  0  0  0
 25 27  1  0  0  0  0
 26 24  1  0  0  0  0
 26 10  1  0  0  0  0
 27  5  1  0  0  0  0
 34 14  1  6  0  0  0
 34 46  1  0  0  0  0
 35 39  1  0  0  0  0
 36 33  1  6  0  0  0
 36 48  1  0  0  0  0
 37 16  1  0  0  0  0
 39 23  1  0  0  0  0
 41 40  1  6  0  0  0
 41 45  1  0  0  0  0
 41 15  1  0  0  0  0
 43 13  1  0  0  0  0
 43 20  1  0  0  0  0
 44  8  1  0  0  0  0
 45 14  1  1  0  0  0
 46 32  1  6  0  0  0
 46 36  1  0  0  0  0
 47 37  1  1  0  0  0
 47  9  1  0  0  0  0
 49 44  1  0  0  0  0
 50 49  1  0  0  0  0
 51 50  1  0  0  0  0
 51 49  1  0  0  0  0
M  END
>  <MODEL>
8

>  <REMARK>
 VINA RESULT:      -7.5      1.702      2.086
  Name = 
  1 active torsions:
  status: ('A' for Active; 'I' for Inactive)
    1  A    between atoms: C_38  and  N_47
                            x       y       z     vdW  Elec       q    Type
                         _______ _______ _______ _____ _____    ______ ____

>  <TORSDO>
F 1

$$$$
=
 OpenBabel11062418593D

 51 59  0  0  1  0  0  0  0  0999 V2000
  191.1550  170.9120  134.8940 N   0  0  0  0  0  0  0  0  0  0  0  0
  194.3390  171.9790  141.0720 C   0  0  2  0  0  3  0  0  0  0  0  0
  196.9340  170.5290  141.0140 C   0  0  0  0  0  2  0  0  0  0  0  0
  190.4490  174.0790  144.5260 C   0  0  2  0  0  0  0  0  0  0  0  0
  195.2160  168.9780  135.4960 C   0  0  0  0  0  2  0  0  0  0  0  0
  194.9000  171.4100  139.7550 C   0  0  0  0  0  2  0  0  0  0  0  0
  196.7190  173.7850  146.4490 C   0  0  0  0  0  1  0  0  0  0  0  0
  196.8800  172.2380  136.0060 C   0  0  0  0  0  0  0  0  0  0  0  0
  191.4200  173.7880  143.3980 C   0  0  1  0  0  3  0  0  0  0  0  0
  197.6580  172.0820  138.4170 C   0  0  1  0  0  3  0  0  0  0  0  0
  196.4260  172.8460  145.3020 C   0  0  2  0  0  3  0  0  0  0  0  0
  191.3760  174.8680  145.2210 O   0  0  0  0  0  0  0  0  0  0  0  0
  192.3010  171.3910  134.5130 C   0  0  0  0  0  3  0  0  0  0  0  0
  192.2290  170.9010  140.4510 O   0  0  0  0  0  0  0  0  0  0  0  0
  191.0260  172.8250  139.7200 C   0  0  1  0  0  3  0  0  0  0  0  0
  194.4200  173.1970  143.7990 C   0  0  2  0  0  3  0  0  0  0  0  0
  194.8670  171.1790  142.2940 C   0  0  1  0  0  3  0  0  0  0  0  0
  191.0840  174.5460  142.1190 C   0  0  0  0  0  2  0  0  0  0  0  0
  190.0770  172.8320  145.3110 C   0  0  0  0  0  1  0  0  0  0  0  0
  193.8830  169.3780  134.8490 C   0  0  0  0  0  2  0  0  0  0  0  0
  196.4020  171.1690  142.2820 C   0  0  0  0  0  2  0  0  0  0  0  0
  194.5220  171.7190  135.3930 C   0  0  0  0  0  3  0  0  0  0  0  0
  194.3450  171.6370  143.6840 C   0  0  1  0  0  0  0  0  0  0  0  0
  196.4270  171.2860  139.7910 C   0  0  1  0  0  0  0  0  0  0  0  0
  195.8100  171.1960  135.9530 C   0  0  1  0  0  3  0  0  0  0  0  0
  197.0660  172.5250  139.6190 O   0  0  0  0  0  0  0  0  0  0  0  0
  196.2380  169.9950  135.2400 N   0  0  0  0  0  2  0  0  0  0  0  0
  195.8450  173.6370  144.1250 C   0  0  0  0  0  2  0  0  0  0  0  0
  190.5890  173.6310  138.5020 C   0  0  0  0  0  1  0  0  0  0  0  0
  196.9970  170.7220  138.5280 C   0  0  0  0  0  2  0  0  0  0  0  0
  189.3170  174.8180  144.1620 O   0  0  0  0  0  1  0  0  0  0  0  0
  192.4750  171.8640  137.4840 F   0  0  0  0  0  0  0  0  0  0  0  0
  189.5790  171.4030  137.0670 F   0  0  0  0  0  0  0  0  0  0  0  0
  191.2580  171.3260  139.5150 C   0  0  1  0  0  3  0  0  0  0  0  0
  195.4950  171.7280  145.7630 C   0  0  0  0  0  2  0  0  0  0  0  0
  190.5380  170.4230  137.2380 C   0  0  2  0  0  3  0  0  0  0  0  0
  193.4600  173.7570  144.8560 C   0  0  0  0  0  2  0  0  0  0  0  0
  197.3950  172.6810  134.8990 N   0  0  0  0  0  2  0  0  0  0  0  0
  195.0960  170.9220  144.6720 O   0  0  0  0  0  0  0  0  0  0  0  0
  192.2490  174.5410  141.1230 C   0  0  0  0  0  2  0  0  0  0  0  0
  192.3410  173.2790  140.2600 C   0  0  1  0  0  3  0  0  0  0  0  0
  193.0090  171.2340  143.7900 O   0  0  0  0  0  1  0  0  0  0  0  0
  193.5900  170.8600  134.9710 C   0  0  0  0  0  0  0  0  0  0  0  0
  197.1840  172.8860  137.2690 N   0  0  0  0  0  0  0  0  0  0  0  0
  192.8070  172.0600  141.0240 C   0  0  2  0  0  3  0  0  0  0  0  0
  191.7060  170.8970  138.1050 C   0  0  1  0  0  3  0  0  0  0  0  0
  192.3620  174.6170  144.2430 C   0  0  1  0  0  3  0  0  0  0  0  0
  190.9880  169.8520  135.8900 C   0  0  0  0  0  2  0  0  0  0  0  0
  197.5730  174.3010  137.2200 C   0  0  0  0  0  3  0  0  0  0  0  0
  196.6960  175.1580  138.1210 C   0  0  0  0  0  2  0  0  0  0  0  0
  196.4330  175.1180  136.6360 C   0  0  0  0  0  2  0  0  0  0  0  0
  1 48  1  0  0  0  0
  2  6  1  6  0  0  0
  2 17  1  0  0  0  0
  3 21  1  0  0  0  0
  4 12  1  0  0  0  0
  4 19  1  1  0  0  0
  6 24  1  0  0  0  0
  8 44  1  0  0  0  0
  9 18  1  6  0  0  0
  9 47  1  0  0  0  0
  9  4  1  0  0  0  0
 10 30  1  6  0  0  0
 10 26  1  0  0  0  0
 11 35  1  0  0  0  0
 11  7  1  1  0  0  0
 13  1  2  0  0  0  0
 13 43  1  0  0  0  0
 15 29  1  6  0  0  0
 15 41  1  0  0  0  0
 16 28  1  1  0  0  0
 16 37  1  0  0  0  0
 17 21  1  1  0  0  0
 17 23  1  0  0  0  0
 20 43  1  0  0  0  0
 20  5  1  0  0  0  0
 23 42  1  1  0  0  0
 23 16  1  0  0  0  0
 23 39  1  0  0  0  0
 24 30  1  6  0  0  0
 24  3  1  0  0  0  0
 25 22  1  6  0  0  0
 25  8  1  0  0  0  0
 26 24  1  0  0  0  0
 27  5  1  0  0  0  0
 27 25  1  0  0  0  0
 28 11  1  0  0  0  0
 31  4  1  0  0  0  0
 34 15  1  0  0  0  0
 34 14  1  1  0  0  0
 36 33  1  6  0  0  0
 36 46  1  0  0  0  0
 38  8  2  0  0  0  0
 39 35  1  0  0  0  0
 40 18  1  0  0  0  0
 41 45  1  0  0  0  0
 41 40  1  1  0  0  0
 43 22  2  0  0  0  0
 44 10  1  0  0  0  0
 45 14  1  6  0  0  0
 45  2  1  0  0  0  0
 46 32  1  6  0  0  0
 46 34  1  0  0  0  0
 47 37  1  1  0  0  0
 47 12  1  0  0  0  0
 48 36  1  0  0  0  0
 49 44  1  0  0  0  0
 49 50  1  0  0  0  0
 51 49  1  0  0  0  0
 51 50  1  0  0  0  0
M  END
>  <MODEL>
9

>  <REMARK>
 VINA RESULT:      -7.2      4.153      9.338
  Name = 
  1 active torsions:
  status: ('A' for Active; 'I' for Inactive)
    1  A    between atoms: C_38  and  N_47
                            x       y       z     vdW  Elec       q    Type
                         _______ _______ _______ _____ _____    ______ ____

>  <TORSDO>
F 1

$$$$
