=
 OpenBabel11072409373D

 63 70  0  0  1  0  0  0  0  0999 V2000
  192.8540  175.3800  146.3600 C   0  0  0  0  0  3  0  0  0  0  0  0
  191.7040  175.3200  146.9740 C   0  0  0  0  0  0  0  0  0  0  0  0
  190.5560  175.2330  147.5810 C   0  0  0  0  0  3  0  0  0  0  0  0
  189.3160  175.0290  146.7910 C   0  0  0  0  0  2  0  0  0  0  0  0
  188.5060  176.3150  146.7030 C   0  0  1  0  0  3  0  0  0  0  0  0
  189.3360  177.3900  146.3390 O   0  0  0  0  0  0  0  0  0  0  0  0
  188.4750  176.9110  145.3300 C   0  0  2  0  0  0  0  0  0  0  0  0
  186.6190  178.5180  146.2690 C   0  0  1  0  0  3  0  0  0  0  0  0
  186.0010  178.1740  143.1770 C   0  0  0  0  0  2  0  0  0  0  0  0
  183.6760  178.4420  144.0400 O   0  0  0  0  0  0  0  0  0  0  0  0
  187.3970  177.9800  145.0620 C   0  0  2  0  0  3  0  0  0  0  0  0
  186.2040  177.4170  144.4260 N   0  0  1  0  0  0  0  0  0  0  0  0
  185.4100  177.9230  145.5600 C   0  0  2  0  0  0  0  0  0  0  0  0
  184.5200  178.5350  142.9100 C   0  0  0  0  0  2  0  0  0  0  0  0
  184.3690  178.9590  145.1460 C   0  0  0  0  0  2  0  0  0  0  0  0
  186.9530  177.8460  147.6010 C   0  0  0  0  0  1  0  0  0  0  0  0
  184.8060  176.8660  146.2440 O   0  0  0  0  0  1  0  0  0  0  0  0
  189.3540  176.4130  144.1700 C   0  0  0  0  0  2  0  0  0  0  0  0
  188.5740  175.6980  143.0770 C   0  0  2  0  0  3  0  0  0  0  0  0
  188.3140  173.4190  141.9880 C   0  0  0  0  0  2  0  0  0  0  0  0
  187.9530  174.8400  139.9130 C   0  0  0  0  0  2  0  0  0  0  0  0
  189.0730  174.2570  143.0080 C   0  0  0  0  0  2  0  0  0  0  0  0
  187.6140  176.0400  140.8030 C   0  0  0  0  0  2  0  0  0  0  0  0
  188.8070  173.7660  140.5890 C   0  0  2  0  0  3  0  0  0  0  0  0
  188.7450  176.4250  141.7470 C   0  0  0  0  0  2  0  0  0  0  0  0
  188.8690  172.5230  139.7170 C   0  0  0  0  0  2  0  0  0  0  0  0
  190.2420  172.3750  139.1370 C   0  0  0  0  0  0  0  0  0  0  0  0
  191.2280  171.8780  139.8870 C   0  0  0  0  0  2  0  0  0  0  0  0
  190.5160  172.7480  137.7070 C   0  0  1  0  0  3  0  0  0  0  0  0
  189.8190  170.6660  136.6060 C   0  0  0  0  0  2  0  0  0  0  0  0
  189.6190  171.9730  136.7950 C   0  0  0  0  0  3  0  0  0  0  0  0
  190.3180  174.1170  137.5070 O   0  0  0  0  0  0  0  0  0  0  0  0
  189.9290  175.3110  135.4870 C   0  0  0  0  0  1  0  0  0  0  0  0
  189.4510  174.2100  136.4150 C   0  0  0  0  0  2  0  0  0  0  0  0
  193.6850  174.1520  146.2110 C   0  0  0  0  0  2  0  0  0  0  0  0
  194.6870  174.3200  145.2080 O   0  0  0  0  0  0  0  0  0  0  0  0
  195.9650  173.7400  145.2550 C   0  0  0  0  0  0  0  0  0  0  0  0
  196.6570  173.6490  146.3940 C   0  0  0  0  0  2  0  0  0  0  0  0
  196.6010  173.2540  143.9830 C   0  0  1  0  0  3  0  0  0  0  0  0
  197.9070  173.7480  143.9030 O   0  0  0  0  0  0  0  0  0  0  0  0
  197.7940  174.9990  143.2970 C   0  0  0  0  0  1  0  0  0  0  0  0
  196.6220  171.7110  143.9180 C   0  0  2  0  0  3  0  0  0  0  0  0
  197.8230  171.1530  144.4130 O   0  0  0  0  0  0  0  0  0  0  0  0
  197.5310  170.3640  145.5340 C   0  0  0  0  0  1  0  0  0  0  0  0
  196.2240  171.1450  142.5480 C   0  0  0  0  0  2  0  0  0  0  0  0
  196.5870  169.3630  142.4300 S   0  0  0  0  0  0  0  0  0  0  0  0
  194.8530  168.8550  142.2110 C   0  0  0  0  0  2  0  0  0  0  0  0
  192.7690  168.6670  143.4920 C   0  0  0  0  0  2  0  0  0  0  0  0
  192.6110  169.8410  142.5500 C   0  0  2  0  0  3  0  0  0  0  0  0
  193.9510  169.5650  143.2000 C   0  0  2  0  0  3  0  0  0  0  0  0
  191.9280  170.9820  143.2880 C   0  0  0  0  0  2  0  0  0  0  0  0
  192.8790  172.1520  143.4940 C   0  0  0  0  0  2  0  0  0  0  0  0
  192.3820  173.3840  142.7530 C   0  0  0  0  0  2  0  0  0  0  0  0
  193.4520  174.2120  142.3990 O   0  0  0  0  0  0  0  0  0  0  0  0
  193.0650  174.8550  141.2120 C   0  0  0  0  0  2  0  0  0  0  0  0
  194.9160  176.2270  140.5760 O   0  0  0  0  0  1  0  0  0  0  0  0
  194.2490  175.0430  140.2560 C   0  0  1  0  0  3  0  0  0  0  0  0
  196.8890  172.0020  138.8810 S   0  0  0  0  0  0  0  0  0  0  0  0
  194.5830  172.7940  139.6260 O   0  0  0  0  0  0  0  0  0  0  0  0
  197.9170  173.4110  140.0720 S   0  0  0  0  0  0  0  0  0  0  0  0
  196.4600  174.3720  139.5870 C   0  0  1  0  0  3  0  0  0  0  0  0
  195.6370  173.3240  138.8800 C   0  0  2  0  0  0  0  0  0  0  0  0
  195.2270  173.8600  140.2710 C   0  0  2  0  0  0  0  0  0  0  0  0
  1  2  2  0  0  0  0
  2  3  2  0  0  0  0
  4  3  1  0  0  0  0
  5  4  1  6  0  0  0
  6  5  1  0  0  0  0
  7 18  1  6  0  0  0
  7  6  1  0  0  0  0
  7  5  1  0  0  0  0
  8 16  1  1  0  0  0
 10 15  1  0  0  0  0
 11  7  1  1  0  0  0
 11  8  1  0  0  0  0
 12  9  1  6  0  0  0
 12 11  1  0  0  0  0
 12 13  1  0  0  0  0
 13 17  1  1  0  0  0
 13  8  1  0  0  0  0
 14  9  1  0  0  0  0
 14 10  1  0  0  0  0
 15 13  1  0  0  0  0
 19 18  1  1  0  0  0
 20 22  1  0  0  0  0
 21 24  1  0  0  0  0
 21 23  1  0  0  0  0
 22 19  1  0  0  0  0
 23 25  1  0  0  0  0
 24 26  1  6  0  0  0
 24 20  1  0  0  0  0
 25 19  1  0  0  0  0
 27 26  1  0  0  0  0
 27 28  2  0  0  0  0
 29 31  1  6  0  0  0
 29 27  1  0  0  0  0
 30 31  2  0  0  0  0
 32 29  1  0  0  0  0
 33 34  1  0  0  0  0
 34 32  1  0  0  0  0
 35  1  1  0  0  0  0
 36 37  1  0  0  0  0
 36 35  1  0  0  0  0
 37 38  2  0  0  0  0
 39 40  1  1  0  0  0
 39 37  1  0  0  0  0
 41 40  1  0  0  0  0
 42 45  1  6  0  0  0
 42 39  1  0  0  0  0
 42 43  1  0  0  0  0
 43 44  1  0  0  0  0
 46 45  1  0  0  0  0
 47 46  1  0  0  0  0
 49 50  1  0  0  0  0
 49 51  1  1  0  0  0
 49 48  1  0  0  0  0
 50 47  1  6  0  0  0
 50 48  1  0  0  0  0
 51 52  1  0  0  0  0
 53 52  1  0  0  0  0
 54 53  1  0  0  0  0
 55 54  1  0  0  0  0
 57 56  1  1  0  0  0
 57 55  1  0  0  0  0
 58 60  1  0  0  0  0
 59 63  1  0  0  0  0
 61 60  1  1  0  0  0
 61 63  1  0  0  0  0
 62 58  1  1  0  0  0
 62 61  1  0  0  0  0
 62 59  1  0  0  0  0
 62 63  1  0  0  0  0
 63 57  1  6  0  0  0
M  END
>  <MODEL>
1

>  <REMARK>
 VINA RESULT:      -5.4      0.000      0.000
  Name = 
  29 active torsions:
  status: ('A' for Active; 'I' for Inactive)
    1  A    between atoms: C_2  and  C_18
    2  A    between atoms: C_2  and  C_25
    3  A    between atoms: C_2  and  O_46
    4  A    between atoms: C_3  and  C_48
    5  A    between atoms: C_4  and  C_7
    6  A    between atoms: C_4  and  C_16
    7  A    between atoms: O_5  and  C_26
    8  A    between atoms: O_5  and  C_33
    9  A    between atoms: O_6  and  C_15
   10  A    between atoms: O_6  and  C_32
   11  A    between atoms: C_7  and  C_15
   12  A    between atoms: C_8  and  C_36
   13  A    between atoms: C_9  and  C_26
   14  A    between atoms: C_9  and  C_60
   15  A    between atoms: C_10  and  C_21
   16  A    between atoms: C_10  and  O_37
   17  A    between atoms: O_13  and  C_18
   18  A    between atoms: C_18  and  C_56
   19  A    between atoms: C_25  and  O_37
   20  A    between atoms: C_26  and  C_58
   21  A    between atoms: C_28  and  C_57
   22  A    between atoms: C_32  and  C_35
   23  A    between atoms: C_35  and  C_50
   24  A    between atoms: C_36  and  C_39
   25  A    between atoms: C_48  and  C_57
   26  A    between atoms: C_51  and  C_60
   27  A    between atoms: S_52  and  C_56
   28  A    between atoms: S_52  and  C_59
   29  A    between atoms: C_59  and  C_61
                            x       y       z     vdW  Elec       q    Type
                         _______ _______ _______ _____ _____    ______ ____

>  <TORSDO>
F 29

$$$$
=
 OpenBabel11072409373D

 63 70  0  0  1  0  0  0  0  0999 V2000
  188.0110  173.5930  142.3990 C   0  0  0  0  0  3  0  0  0  0  0  0
  188.8980  172.7020  142.7470 C   0  0  0  0  0  0  0  0  0  0  0  0
  189.8010  171.8320  143.0970 C   0  0  0  0  0  3  0  0  0  0  0  0
  190.8910  171.4790  142.1530 C   0  0  0  0  0  2  0  0  0  0  0  0
  192.2280  171.3880  142.8730 C   0  0  1  0  0  3  0  0  0  0  0  0
  193.2730  171.7680  142.0120 O   0  0  0  0  0  0  0  0  0  0  0  0
  192.9280  172.7040  143.0080 C   0  0  2  0  0  0  0  0  0  0  0  0
  195.3820  173.4540  143.5790 C   0  0  1  0  0  3  0  0  0  0  0  0
  194.6420  171.1950  145.6800 C   0  0  0  0  0  2  0  0  0  0  0  0
  197.0900  170.7690  145.4530 O   0  0  0  0  0  0  0  0  0  0  0  0
  194.0820  172.7760  144.0280 C   0  0  2  0  0  3  0  0  0  0  0  0
  194.7220  171.4750  144.2340 N   0  0  1  0  0  0  0  0  0  0  0  0
  195.9990  172.0830  143.8190 C   0  0  2  0  0  0  0  0  0  0  0  0
  195.9430  170.5950  146.2630 C   0  0  0  0  0  2  0  0  0  0  0  0
  197.0540  172.0670  144.9210 C   0  0  0  0  0  2  0  0  0  0  0  0
  195.4040  173.9000  142.1170 C   0  0  0  0  0  1  0  0  0  0  0  0
  196.4830  171.4620  142.6660 O   0  0  0  0  0  1  0  0  0  0  0  0
  192.4650  173.9870  142.2970 C   0  0  0  0  0  2  0  0  0  0  0  0
  192.3450  175.1880  143.2210 C   0  0  2  0  0  3  0  0  0  0  0  0
  191.4460  175.8600  145.5000 C   0  0  0  0  0  2  0  0  0  0  0  0
  190.9480  178.0280  144.2750 C   0  0  0  0  0  2  0  0  0  0  0  0
  191.5720  174.7510  144.4640 C   0  0  0  0  0  2  0  0  0  0  0  0
  191.9770  177.6520  143.2050 C   0  0  0  0  0  2  0  0  0  0  0  0
  190.3730  176.8430  145.0520 C   0  0  2  0  0  3  0  0  0  0  0  0
  191.6560  176.3410  142.4990 C   0  0  0  0  0  2  0  0  0  0  0  0
  189.5680  177.3390  146.2420 C   0  0  0  0  0  2  0  0  0  0  0  0
  188.3780  176.4560  146.4560 C   0  0  0  0  0  0  0  0  0  0  0  0
  188.5300  175.2690  147.0490 C   0  0  0  0  0  2  0  0  0  0  0  0
  187.0030  176.9040  146.0420 C   0  0  1  0  0  3  0  0  0  0  0  0
  184.9290  177.6100  147.1520 C   0  0  0  0  0  2  0  0  0  0  0  0
  186.2440  177.3920  147.2340 C   0  0  0  0  0  3  0  0  0  0  0  0
  187.0840  177.9230  145.0880 O   0  0  0  0  0  0  0  0  0  0  0  0
  185.6610  179.4790  143.9860 C   0  0  0  0  0  1  0  0  0  0  0  0
  185.7740  178.1140  144.6400 C   0  0  0  0  0  2  0  0  0  0  0  0
  188.1980  175.0210  142.7830 C   0  0  0  0  0  2  0  0  0  0  0  0
  187.0940  175.8220  142.3600 O   0  0  0  0  0  0  0  0  0  0  0  0
  187.1910  176.9070  141.4730 C   0  0  0  0  0  0  0  0  0  0  0  0
  188.0440  177.9130  141.6800 C   0  0  0  0  0  2  0  0  0  0  0  0
  186.2760  176.9690  140.2820 C   0  0  1  0  0  3  0  0  0  0  0  0
  185.8430  178.2870  140.1040 O   0  0  0  0  0  0  0  0  0  0  0  0
  184.5470  178.3240  140.6190 C   0  0  0  0  0  1  0  0  0  0  0  0
  186.9820  176.4740  139.0020 C   0  0  2  0  0  3  0  0  0  0  0  0
  186.0990  176.3190  137.9090 O   0  0  0  0  0  0  0  0  0  0  0  0
  186.8360  176.3740  136.7170 C   0  0  0  0  0  1  0  0  0  0  0  0
  187.8740  175.2460  139.2240 C   0  0  0  0  0  2  0  0  0  0  0  0
  188.2250  174.3820  137.6570 S   0  0  0  0  0  0  0  0  0  0  0  0
  188.4210  172.7390  138.4150 C   0  0  0  0  0  2  0  0  0  0  0  0
  190.7050  173.6330  138.4780 C   0  0  0  0  0  2  0  0  0  0  0  0
  190.8040  172.1810  138.0620 C   0  0  2  0  0  3  0  0  0  0  0  0
  189.7730  172.6080  139.0870 C   0  0  2  0  0  3  0  0  0  0  0  0
  191.9790  171.5370  138.7810 C   0  0  0  0  0  2  0  0  0  0  0  0
  192.9920  170.9790  137.7920 C   0  0  0  0  0  2  0  0  0  0  0  0
  192.7380  171.5280  136.3960 C   0  0  0  0  0  2  0  0  0  0  0  0
  193.8310  172.2800  135.9560 O   0  0  0  0  0  0  0  0  0  0  0  0
  194.9250  171.8600  136.7290 C   0  0  0  0  0  2  0  0  0  0  0  0
  197.1470  172.4920  137.3410 O   0  0  0  0  0  1  0  0  0  0  0  0
  195.8930  173.0140  137.0170 C   0  0  1  0  0  3  0  0  0  0  0  0
  196.2070  176.6810  134.8830 S   0  0  0  0  0  0  0  0  0  0  0  0
  194.8310  174.7580  135.8370 O   0  0  0  0  0  0  0  0  0  0  0  0
  197.9370  175.5000  134.6110 S   0  0  0  0  0  0  0  0  0  0  0  0
  197.2650  174.7790  136.1310 C   0  0  1  0  0  3  0  0  0  0  0  0
  195.9440  175.4970  136.2420 C   0  0  2  0  0  0  0  0  0  0  0  0
  196.0130  174.0030  135.8510 C   0  0  2  0  0  0  0  0  0  0  0  0
  1  2  2  0  0  0  0
  1 35  1  0  0  0  0
  2  3  2  0  0  0  0
  4  3  1  0  0  0  0
  5  4  1  6  0  0  0
  5  7  1  0  0  0  0
  6  5  1  0  0  0  0
  6  7  1  0  0  0  0
  7 18  1  6  0  0  0
  8 16  1  6  0  0  0
  8 13  1  0  0  0  0
  8 11  1  0  0  0  0
  9 14  1  0  0  0  0
 10 14  1  0  0  0  0
 11  7  1  6  0  0  0
 11 12  1  0  0  0  0
 12  9  1  1  0  0  0
 13 17  1  6  0  0  0
 13 12  1  0  0  0  0
 13 15  1  0  0  0  0
 15 10  1  0  0  0  0
 19 18  1  6  0  0  0
 19 22  1  0  0  0  0
 21 24  1  0  0  0  0
 22 20  1  0  0  0  0
 23 21  1  0  0  0  0
 24 20  1  0  0  0  0
 24 26  1  1  0  0  0
 25 23  1  0  0  0  0
 25 19  1  0  0  0  0
 26 27  1  0  0  0  0
 27 28  2  0  0  0  0
 29 27  1  0  0  0  0
 29 31  1  1  0  0  0
 30 31  2  0  0  0  0
 32 29  1  0  0  0  0
 33 34  1  0  0  0  0
 34 32  1  0  0  0  0
 36 35  1  0  0  0  0
 37 38  2  0  0  0  0
 37 36  1  0  0  0  0
 39 40  1  6  0  0  0
 39 37  1  0  0  0  0
 40 41  1  0  0  0  0
 42 45  1  1  0  0  0
 42 39  1  0  0  0  0
 43 42  1  0  0  0  0
 44 43  1  0  0  0  0
 46 47  1  0  0  0  0
 46 45  1  0  0  0  0
 48 50  1  0  0  0  0
 49 48  1  0  0  0  0
 49 51  1  1  0  0  0
 49 50  1  0  0  0  0
 50 47  1  6  0  0  0
 52 51  1  0  0  0  0
 53 52  1  0  0  0  0
 54 53  1  0  0  0  0
 54 55  1  0  0  0  0
 55 57  1  0  0  0  0
 57 56  1  6  0  0  0
 59 63  1  0  0  0  0
 59 62  1  0  0  0  0
 60 58  1  0  0  0  0
 61 60  1  6  0  0  0
 61 62  1  0  0  0  0
 62 58  1  6  0  0  0
 63 61  1  0  0  0  0
 63 62  1  0  0  0  0
 63 57  1  1  0  0  0
M  END
>  <MODEL>
2

>  <REMARK>
 VINA RESULT:      -5.0      2.987      9.007
  Name = 
  29 active torsions:
  status: ('A' for Active; 'I' for Inactive)
    1  A    between atoms: C_2  and  C_18
    2  A    between atoms: C_2  and  C_25
    3  A    between atoms: C_2  and  O_46
    4  A    between atoms: C_3  and  C_48
    5  A    between atoms: C_4  and  C_7
    6  A    between atoms: C_4  and  C_16
    7  A    between atoms: O_5  and  C_26
    8  A    between atoms: O_5  and  C_33
    9  A    between atoms: O_6  and  C_15
   10  A    between atoms: O_6  and  C_32
   11  A    between atoms: C_7  and  C_15
   12  A    between atoms: C_8  and  C_36
   13  A    between atoms: C_9  and  C_26
   14  A    between atoms: C_9  and  C_60
   15  A    between atoms: C_10  and  C_21
   16  A    between atoms: C_10  and  O_37
   17  A    between atoms: O_13  and  C_18
   18  A    between atoms: C_18  and  C_56
   19  A    between atoms: C_25  and  O_37
   20  A    between atoms: C_26  and  C_58
   21  A    between atoms: C_28  and  C_57
   22  A    between atoms: C_32  and  C_35
   23  A    between atoms: C_35  and  C_50
   24  A    between atoms: C_36  and  C_39
   25  A    between atoms: C_48  and  C_57
   26  A    between atoms: C_51  and  C_60
   27  A    between atoms: S_52  and  C_56
   28  A    between atoms: S_52  and  C_59
   29  A    between atoms: C_59  and  C_61
                            x       y       z     vdW  Elec       q    Type
                         _______ _______ _______ _____ _____    ______ ____

>  <TORSDO>
F 29

$$$$
=
 OpenBabel11072409373D

 63 70  0  0  1  0  0  0  0  0999 V2000
  192.8370  177.2190  146.9680 C   0  0  0  0  0  3  0  0  0  0  0  0
  191.9500  176.3240  147.3090 C   0  0  0  0  0  0  0  0  0  0  0  0
  191.0730  175.4170  147.6290 C   0  0  0  0  0  3  0  0  0  0  0  0
  189.8580  175.2390  146.7950 C   0  0  0  0  0  2  0  0  0  0  0  0
  188.8910  176.3990  146.9830 C   0  0  1  0  0  3  0  0  0  0  0  0
  189.5260  177.6160  146.6790 O   0  0  0  0  0  0  0  0  0  0  0  0
  188.6030  177.1500  145.7200 C   0  0  2  0  0  0  0  0  0  0  0  0
  186.3080  177.8330  146.8040 C   0  0  1  0  0  3  0  0  0  0  0  0
  186.3050  179.0750  143.8850 C   0  0  0  0  0  2  0  0  0  0  0  0
  183.8680  178.6100  144.1430 O   0  0  0  0  0  0  0  0  0  0  0  0
  187.3760  178.0830  145.7320 C   0  0  2  0  0  3  0  0  0  0  0  0
  186.4600  177.8070  144.6230 N   0  0  1  0  0  0  0  0  0  0  0  0
  185.3960  177.5670  145.6140 C   0  0  2  0  0  0  0  0  0  0  0  0
  184.8480  179.3630  143.4550 C   0  0  0  0  0  2  0  0  0  0  0  0
  184.2360  178.5510  145.4970 C   0  0  0  0  0  2  0  0  0  0  0  0
  186.5550  176.6090  147.6860 C   0  0  0  0  0  1  0  0  0  0  0  0
  184.9360  176.2510  145.5270 O   0  0  0  0  0  1  0  0  0  0  0  0
  189.3740  176.9280  144.4080 C   0  0  0  0  0  2  0  0  0  0  0  0
  188.6130  176.0940  143.3880 C   0  0  2  0  0  3  0  0  0  0  0  0
  188.5340  173.7600  142.3910 C   0  0  0  0  0  2  0  0  0  0  0  0
  187.9080  175.0550  140.2970 C   0  0  0  0  0  2  0  0  0  0  0  0
  189.2570  174.7100  143.3350 C   0  0  0  0  0  2  0  0  0  0  0  0
  187.4960  176.2470  141.1660 C   0  0  0  0  0  2  0  0  0  0  0  0
  188.9080  174.1020  140.9540 C   0  0  2  0  0  3  0  0  0  0  0  0
  188.6310  176.7830  142.0270 C   0  0  0  0  0  2  0  0  0  0  0  0
  189.0520  172.8390  140.1210 C   0  0  0  0  0  2  0  0  0  0  0  0
  190.4120  172.7930  139.4970 C   0  0  0  0  0  0  0  0  0  0  0  0
  191.4730  172.4710  140.2420 C   0  0  0  0  0  2  0  0  0  0  0  0
  190.5950  173.0690  138.0300 C   0  0  1  0  0  3  0  0  0  0  0  0
  190.8960  170.7030  137.4440 C   0  0  0  0  0  2  0  0  0  0  0  0
  190.2490  171.8520  137.2330 C   0  0  0  0  0  3  0  0  0  0  0  0
  189.7900  174.1380  137.6260 O   0  0  0  0  0  0  0  0  0  0  0  0
  189.0330  175.1500  135.6110 C   0  0  0  0  0  1  0  0  0  0  0  0
  189.4470  173.8630  136.3000 C   0  0  0  0  0  2  0  0  0  0  0  0
  194.0100  176.8260  146.1360 C   0  0  0  0  0  2  0  0  0  0  0  0
  194.5110  175.5450  146.5160 O   0  0  0  0  0  0  0  0  0  0  0  0
  195.3670  174.7590  145.7260 C   0  0  0  0  0  0  0  0  0  0  0  0
  196.2940  173.9650  146.2670 C   0  0  0  0  0  2  0  0  0  0  0  0
  195.2770  174.8500  144.2290 C   0  0  1  0  0  3  0  0  0  0  0  0
  196.2250  175.7680  143.7660 O   0  0  0  0  0  0  0  0  0  0  0  0
  195.6870  176.2960  142.5920 C   0  0  0  0  0  1  0  0  0  0  0  0
  195.5140  173.4760  143.5660 C   0  0  2  0  0  3  0  0  0  0  0  0
  196.7540  173.3950  142.8900 O   0  0  0  0  0  0  0  0  0  0  0  0
  197.5720  172.4650  143.5470 C   0  0  0  0  0  1  0  0  0  0  0  0
  194.3380  172.9910  142.7090 C   0  0  0  0  0  2  0  0  0  0  0  0
  193.1020  172.1010  143.7100 S   0  0  0  0  0  0  0  0  0  0  0  0
  194.3230  171.2120  144.7270 C   0  0  0  0  0  2  0  0  0  0  0  0
  194.4950  168.8210  145.2530 C   0  0  0  0  0  2  0  0  0  0  0  0
  195.8650  169.2800  144.8000 C   0  0  2  0  0  3  0  0  0  0  0  0
  194.6200  169.8450  144.1450 C   0  0  2  0  0  3  0  0  0  0  0  0
  196.4670  168.2220  143.8880 C   0  0  0  0  0  2  0  0  0  0  0  0
  195.9670  168.3760  142.4590 C   0  0  0  0  0  2  0  0  0  0  0  0
  197.0420  168.9950  141.5780 C   0  0  0  0  0  2  0  0  0  0  0  0
  196.6760  170.2860  141.1870 O   0  0  0  0  0  0  0  0  0  0  0  0
  195.4240  170.1610  140.5660 C   0  0  0  0  0  2  0  0  0  0  0  0
  194.2670  170.3270  138.4810 O   0  0  0  0  0  1  0  0  0  0  0  0
  195.5410  170.1980  139.0380 C   0  0  1  0  0  3  0  0  0  0  0  0
  197.3490  173.0360  136.4340 S   0  0  0  0  0  0  0  0  0  0  0  0
  197.2980  170.7510  137.5640 O   0  0  0  0  0  0  0  0  0  0  0  0
  196.3370  174.0020  138.0160 S   0  0  0  0  0  0  0  0  0  0  0  0
  195.5270  172.3820  138.0300 C   0  0  1  0  0  3  0  0  0  0  0  0
  196.3560  171.6280  137.0220 C   0  0  2  0  0  0  0  0  0  0  0  0
  196.4580  171.3200  138.5330 C   0  0  2  0  0  0  0  0  0  0  0  0
  1  2  2  0  0  0  0
  2  3  2  0  0  0  0
  4  3  1  0  0  0  0
  5  4  1  6  0  0  0
  6  5  1  0  0  0  0
  7 18  1  6  0  0  0
  7  6  1  0  0  0  0
  7  5  1  0  0  0  0
  8 16  1  1  0  0  0
 10 15  1  0  0  0  0
 11  7  1  1  0  0  0
 11  8  1  0  0  0  0
 12  9  1  6  0  0  0
 12 13  1  0  0  0  0
 12 11  1  0  0  0  0
 13 17  1  6  0  0  0
 13  8  1  0  0  0  0
 14  9  1  0  0  0  0
 14 10  1  0  0  0  0
 15 13  1  0  0  0  0
 19 18  1  1  0  0  0
 20 22  1  0  0  0  0
 21 24  1  0  0  0  0
 21 23  1  0  0  0  0
 22 19  1  0  0  0  0
 23 25  1  0  0  0  0
 24 26  1  6  0  0  0
 24 20  1  0  0  0  0
 25 19  1  0  0  0  0
 27 26  1  0  0  0  0
 27 28  2  0  0  0  0
 29 31  1  6  0  0  0
 29 27  1  0  0  0  0
 31 30  2  0  0  0  0
 32 29  1  0  0  0  0
 33 34  1  0  0  0  0
 34 32  1  0  0  0  0
 35 36  1  0  0  0  0
 35  1  1  0  0  0  0
 37 38  2  0  0  0  0
 37 36  1  0  0  0  0
 39 40  1  6  0  0  0
 39 37  1  0  0  0  0
 41 40  1  0  0  0  0
 42 45  1  6  0  0  0
 42 39  1  0  0  0  0
 43 44  1  0  0  0  0
 43 42  1  0  0  0  0
 45 46  1  0  0  0  0
 46 47  1  0  0  0  0
 49 51  1  6  0  0  0
 49 48  1  0  0  0  0
 50 47  1  1  0  0  0
 50 49  1  0  0  0  0
 50 48  1  0  0  0  0
 52 51  1  0  0  0  0
 53 52  1  0  0  0  0
 54 53  1  0  0  0  0
 55 54  1  0  0  0  0
 57 56  1  6  0  0  0
 57 55  1  0  0  0  0
 58 60  1  0  0  0  0
 59 63  1  0  0  0  0
 61 60  1  1  0  0  0
 61 63  1  0  0  0  0
 62 58  1  1  0  0  0
 62 59  1  0  0  0  0
 62 61  1  0  0  0  0
 62 63  1  0  0  0  0
 63 57  1  1  0  0  0
M  END
>  <MODEL>
3

>  <REMARK>
 VINA RESULT:      -4.4      1.707      2.547
  Name = 
  29 active torsions:
  status: ('A' for Active; 'I' for Inactive)
    1  A    between atoms: C_2  and  C_18
    2  A    between atoms: C_2  and  C_25
    3  A    between atoms: C_2  and  O_46
    4  A    between atoms: C_3  and  C_48
    5  A    between atoms: C_4  and  C_7
    6  A    between atoms: C_4  and  C_16
    7  A    between atoms: O_5  and  C_26
    8  A    between atoms: O_5  and  C_33
    9  A    between atoms: O_6  and  C_15
   10  A    between atoms: O_6  and  C_32
   11  A    between atoms: C_7  and  C_15
   12  A    between atoms: C_8  and  C_36
   13  A    between atoms: C_9  and  C_26
   14  A    between atoms: C_9  and  C_60
   15  A    between atoms: C_10  and  C_21
   16  A    between atoms: C_10  and  O_37
   17  A    between atoms: O_13  and  C_18
   18  A    between atoms: C_18  and  C_56
   19  A    between atoms: C_25  and  O_37
   20  A    between atoms: C_26  and  C_58
   21  A    between atoms: C_28  and  C_57
   22  A    between atoms: C_32  and  C_35
   23  A    between atoms: C_35  and  C_50
   24  A    between atoms: C_36  and  C_39
   25  A    between atoms: C_48  and  C_57
   26  A    between atoms: C_51  and  C_60
   27  A    between atoms: S_52  and  C_56
   28  A    between atoms: S_52  and  C_59
   29  A    between atoms: C_59  and  C_61
                            x       y       z     vdW  Elec       q    Type
                         _______ _______ _______ _____ _____    ______ ____

>  <TORSDO>
F 29

$$$$
=
 OpenBabel11072409373D

 63 70  0  0  1  0  0  0  0  0999 V2000
  187.8950  174.3100  142.2180 C   0  0  0  0  0  3  0  0  0  0  0  0
  188.9590  173.7990  142.7740 C   0  0  0  0  0  0  0  0  0  0  0  0
  190.0340  173.3130  143.3240 C   0  0  0  0  0  3  0  0  0  0  0  0
  191.2000  172.9550  142.4780 C   0  0  0  0  0  2  0  0  0  0  0  0
  192.3260  172.3710  143.3180 C   0  0  1  0  0  3  0  0  0  0  0  0
  193.4970  172.2540  142.5500 O   0  0  0  0  0  0  0  0  0  0  0  0
  193.4860  173.3000  143.4960 C   0  0  2  0  0  0  0  0  0  0  0  0
  195.9050  173.5270  144.4980 C   0  0  1  0  0  3  0  0  0  0  0  0
  194.6310  170.9560  145.8520 C   0  0  0  0  0  2  0  0  0  0  0  0
  197.0220  170.2500  145.7830 O   0  0  0  0  0  0  0  0  0  0  0  0
  194.4870  172.9550  144.6160 C   0  0  2  0  0  3  0  0  0  0  0  0
  194.9420  171.5650  144.5440 N   0  0  1  0  0  0  0  0  0  0  0  0
  196.3240  172.0640  144.4390 C   0  0  2  0  0  0  0  0  0  0  0  0
  195.7620  170.0520  146.3940 C   0  0  0  0  0  2  0  0  0  0  0  0
  197.2080  171.6300  145.6040 C   0  0  0  0  0  2  0  0  0  0  0  0
  196.1800  174.3070  143.2120 C   0  0  0  0  0  1  0  0  0  0  0  0
  196.8910  171.6790  143.2220 O   0  0  0  0  0  1  0  0  0  0  0  0
  193.6370  174.6220  142.7250 C   0  0  0  0  0  2  0  0  0  0  0  0
  193.0540  175.8240  143.4530 C   0  0  2  0  0  3  0  0  0  0  0  0
  192.0490  176.4980  145.6860 C   0  0  0  0  0  2  0  0  0  0  0  0
  190.6250  177.9860  144.1980 C   0  0  0  0  0  2  0  0  0  0  0  0
  192.5930  175.3600  144.8330 C   0  0  0  0  0  2  0  0  0  0  0  0
  191.6720  177.8640  143.0870 C   0  0  0  0  0  2  0  0  0  0  0  0
  190.6420  176.8450  145.2170 C   0  0  2  0  0  3  0  0  0  0  0  0
  191.9120  176.4270  142.6430 C   0  0  0  0  0  2  0  0  0  0  0  0
  189.7510  177.1890  146.4000 C   0  0  0  0  0  2  0  0  0  0  0  0
  188.5970  176.2370  146.4620 C   0  0  0  0  0  0  0  0  0  0  0  0
  188.7720  175.0150  146.9720 C   0  0  0  0  0  2  0  0  0  0  0  0
  187.2310  176.6520  145.9900 C   0  0  1  0  0  3  0  0  0  0  0  0
  186.3310  177.9140  147.8940 C   0  0  0  0  0  2  0  0  0  0  0  0
  186.3090  176.8010  147.1570 C   0  0  0  0  0  3  0  0  0  0  0  0
  187.2990  177.8590  145.2880 O   0  0  0  0  0  0  0  0  0  0  0  0
  185.7240  179.3590  144.3240 C   0  0  0  0  0  1  0  0  0  0  0  0
  186.1280  177.9100  144.5270 C   0  0  0  0  0  2  0  0  0  0  0  0
  187.7290  175.7900  142.1460 C   0  0  0  0  0  2  0  0  0  0  0  0
  186.6850  176.1520  141.2420 O   0  0  0  0  0  0  0  0  0  0  0  0
  186.8880  176.8010  140.0120 C   0  0  0  0  0  0  0  0  0  0  0  0
  187.4640  178.0030  139.9360 C   0  0  0  0  0  2  0  0  0  0  0  0
  186.3970  176.1540  138.7480 C   0  0  1  0  0  3  0  0  0  0  0  0
  185.2950  176.8660  138.2640 O   0  0  0  0  0  0  0  0  0  0  0  0
  184.6470  175.9960  137.3870 C   0  0  0  0  0  1  0  0  0  0  0  0
  187.5030  176.1090  137.6720 C   0  0  2  0  0  3  0  0  0  0  0  0
  187.2330  176.9500  136.5670 O   0  0  0  0  0  0  0  0  0  0  0  0
  187.9070  176.4540  135.4420 C   0  0  0  0  0  1  0  0  0  0  0  0
  187.9010  174.6880  137.2530 C   0  0  0  0  0  2  0  0  0  0  0  0
  188.8460  173.8440  138.5630 S   0  0  0  0  0  0  0  0  0  0  0  0
  190.3650  173.6570  137.5770 C   0  0  0  0  0  2  0  0  0  0  0  0
  189.5100  171.6800  136.4000 C   0  0  0  0  0  2  0  0  0  0  0  0
  189.5410  171.3440  137.8760 C   0  0  2  0  0  3  0  0  0  0  0  0
  190.6360  172.1980  137.2690 C   0  0  2  0  0  3  0  0  0  0  0  0
  190.0600  169.9260  138.0520 C   0  0  0  0  0  2  0  0  0  0  0  0
  190.6590  169.7260  139.4370 C   0  0  0  0  0  2  0  0  0  0  0  0
  192.1210  169.3180  139.3350 C   0  0  0  0  0  2  0  0  0  0  0  0
  192.9280  170.1800  140.0830 O   0  0  0  0  0  0  0  0  0  0  0  0
  194.2230  170.0500  139.5560 C   0  0  0  0  0  2  0  0  0  0  0  0
  196.2730  171.1920  139.1040 O   0  0  0  0  0  1  0  0  0  0  0  0
  194.9490  171.3990  139.4960 C   0  0  1  0  0  3  0  0  0  0  0  0
  193.8530  175.0950  137.6940 S   0  0  0  0  0  0  0  0  0  0  0  0
  193.4430  173.2090  139.3610 O   0  0  0  0  0  0  0  0  0  0  0  0
  194.8560  173.8500  136.3130 S   0  0  0  0  0  0  0  0  0  0  0  0
  195.3970  173.1250  137.8820 C   0  0  1  0  0  3  0  0  0  0  0  0
  194.5560  173.8940  138.8690 C   0  0  2  0  0  0  0  0  0  0  0  0
  194.2690  172.4070  138.5600 C   0  0  2  0  0  0  0  0  0  0  0  0
  1  2  2  0  0  0  0
  2  3  2  0  0  0  0
  4  3  1  0  0  0  0
  5  4  1  6  0  0  0
  5  7  1  0  0  0  0
  6  5  1  0  0  0  0
  6  7  1  0  0  0  0
  7 18  1  6  0  0  0
  8 16  1  6  0  0  0
  8 11  1  0  0  0  0
  9 14  1  0  0  0  0
 10 14  1  0  0  0  0
 11  7  1  6  0  0  0
 12 11  1  0  0  0  0
 12  9  1  1  0  0  0
 13 17  1  6  0  0  0
 13  8  1  0  0  0  0
 13 12  1  0  0  0  0
 13 15  1  0  0  0  0
 15 10  1  0  0  0  0
 19 18  1  6  0  0  0
 19 22  1  0  0  0  0
 21 24  1  0  0  0  0
 22 20  1  0  0  0  0
 23 21  1  0  0  0  0
 24 20  1  0  0  0  0
 24 26  1  1  0  0  0
 25 23  1  0  0  0  0
 25 19  1  0  0  0  0
 26 27  1  0  0  0  0
 27 28  2  0  0  0  0
 29 27  1  0  0  0  0
 29 31  1  1  0  0  0
 31 30  2  0  0  0  0
 32 29  1  0  0  0  0
 33 34  1  0  0  0  0
 34 32  1  0  0  0  0
 35  1  1  0  0  0  0
 36 35  1  0  0  0  0
 37 36  1  0  0  0  0
 38 37  2  0  0  0  0
 39 40  1  6  0  0  0
 39 37  1  0  0  0  0
 41 40  1  0  0  0  0
 42 45  1  6  0  0  0
 42 39  1  0  0  0  0
 43 42  1  0  0  0  0
 44 43  1  0  0  0  0
 45 46  1  0  0  0  0
 47 46  1  0  0  0  0
 48 50  1  0  0  0  0
 48 49  1  0  0  0  0
 49 51  1  6  0  0  0
 50 47  1  1  0  0  0
 50 49  1  0  0  0  0
 51 52  1  0  0  0  0
 53 52  1  0  0  0  0
 53 54  1  0  0  0  0
 55 54  1  0  0  0  0
 57 56  1  6  0  0  0
 57 55  1  0  0  0  0
 60 58  1  0  0  0  0
 61 60  1  6  0  0  0
 61 63  1  0  0  0  0
 61 62  1  0  0  0  0
 62 58  1  6  0  0  0
 62 59  1  0  0  0  0
 63 62  1  0  0  0  0
 63 59  1  0  0  0  0
 63 57  1  1  0  0  0
M  END
>  <MODEL>
4

>  <REMARK>
 VINA RESULT:      -4.3      2.754      9.037
  Name = 
  29 active torsions:
  status: ('A' for Active; 'I' for Inactive)
    1  A    between atoms: C_2  and  C_18
    2  A    between atoms: C_2  and  C_25
    3  A    between atoms: C_2  and  O_46
    4  A    between atoms: C_3  and  C_48
    5  A    between atoms: C_4  and  C_7
    6  A    between atoms: C_4  and  C_16
    7  A    between atoms: O_5  and  C_26
    8  A    between atoms: O_5  and  C_33
    9  A    between atoms: O_6  and  C_15
   10  A    between atoms: O_6  and  C_32
   11  A    between atoms: C_7  and  C_15
   12  A    between atoms: C_8  and  C_36
   13  A    between atoms: C_9  and  C_26
   14  A    between atoms: C_9  and  C_60
   15  A    between atoms: C_10  and  C_21
   16  A    between atoms: C_10  and  O_37
   17  A    between atoms: O_13  and  C_18
   18  A    between atoms: C_18  and  C_56
   19  A    between atoms: C_25  and  O_37
   20  A    between atoms: C_26  and  C_58
   21  A    between atoms: C_28  and  C_57
   22  A    between atoms: C_32  and  C_35
   23  A    between atoms: C_35  and  C_50
   24  A    between atoms: C_36  and  C_39
   25  A    between atoms: C_48  and  C_57
   26  A    between atoms: C_51  and  C_60
   27  A    between atoms: S_52  and  C_56
   28  A    between atoms: S_52  and  C_59
   29  A    between atoms: C_59  and  C_61
                            x       y       z     vdW  Elec       q    Type
                         _______ _______ _______ _____ _____    ______ ____

>  <TORSDO>
F 29

$$$$
=
 OpenBabel11072409373D

 63 70  0  0  1  0  0  0  0  0999 V2000
  193.5880  176.6150  146.4900 C   0  0  0  0  0  3  0  0  0  0  0  0
  192.7670  175.6110  146.6230 C   0  0  0  0  0  0  0  0  0  0  0  0
  191.9540  174.6000  146.7320 C   0  0  0  0  0  3  0  0  0  0  0  0
  190.7150  174.5570  145.9150 C   0  0  0  0  0  2  0  0  0  0  0  0
  189.8540  175.7860  146.1640 C   0  0  1  0  0  3  0  0  0  0  0  0
  190.4890  176.9360  145.6620 O   0  0  0  0  0  0  0  0  0  0  0  0
  189.3960  176.4620  144.9080 C   0  0  2  0  0  0  0  0  0  0  0  0
  187.2410  177.2480  146.1900 C   0  0  1  0  0  3  0  0  0  0  0  0
  187.0940  178.5900  143.3190 C   0  0  0  0  0  2  0  0  0  0  0  0
  184.6590  178.2690  143.7540 O   0  0  0  0  0  0  0  0  0  0  0  0
  188.2370  177.4680  145.0450 C   0  0  2  0  0  3  0  0  0  0  0  0
  187.2220  177.2890  144.0040 N   0  0  1  0  0  0  0  0  0  0  0  0
  186.2240  177.0810  145.0680 C   0  0  2  0  0  0  0  0  0  0  0  0
  185.6300  178.9820  143.0140 C   0  0  0  0  0  2  0  0  0  0  0  0
  185.1250  178.1390  145.0720 C   0  0  0  0  0  2  0  0  0  0  0  0
  187.4740  175.9810  147.0120 C   0  0  0  0  0  1  0  0  0  0  0  0
  185.6740  175.8010  144.9780 O   0  0  0  0  0  1  0  0  0  0  0  0
  189.9230  176.0970  143.5100 C   0  0  0  0  0  2  0  0  0  0  0  0
  189.2600  174.8670  142.9100 C   0  0  2  0  0  3  0  0  0  0  0  0
  189.6310  172.3780  142.5640 C   0  0  0  0  0  2  0  0  0  0  0  0
  188.4060  172.8530  140.3900 C   0  0  0  0  0  2  0  0  0  0  0  0
  190.2180  173.6880  143.0710 C   0  0  0  0  0  2  0  0  0  0  0  0
  187.8340  174.1360  141.0010 C   0  0  0  0  0  2  0  0  0  0  0  0
  189.6970  172.3570  141.0420 C   0  0  2  0  0  3  0  0  0  0  0  0
  188.9090  175.1190  141.4470 C   0  0  0  0  0  2  0  0  0  0  0  0
  190.0340  170.9640  140.5390 C   0  0  0  0  0  2  0  0  0  0  0  0
  191.3430  170.9870  139.8110 C   0  0  0  0  0  0  0  0  0  0  0  0
  192.4430  170.5240  140.4100 C   0  0  0  0  0  2  0  0  0  0  0  0
  191.4280  171.4950  138.3990 C   0  0  1  0  0  3  0  0  0  0  0  0
  190.7740  173.7840  137.7940 C   0  0  0  0  0  2  0  0  0  0  0  0
  191.6470  172.9740  138.3990 C   0  0  0  0  0  3  0  0  0  0  0  0
  192.4710  170.8670  137.7110 O   0  0  0  0  0  0  0  0  0  0  0  0
  192.1540  170.0010  135.5190 C   0  0  0  0  0  1  0  0  0  0  0  0
  192.3130  171.2430  136.3750 C   0  0  0  0  0  2  0  0  0  0  0  0
  194.7440  176.5140  145.5540 C   0  0  0  0  0  2  0  0  0  0  0  0
  195.2970  175.1980  145.5510 O   0  0  0  0  0  0  0  0  0  0  0  0
  196.2310  174.7300  144.6120 C   0  0  0  0  0  0  0  0  0  0  0  0
  197.4380  174.2910  144.9770 C   0  0  0  0  0  2  0  0  0  0  0  0
  195.8890  174.7710  143.1490 C   0  0  1  0  0  3  0  0  0  0  0  0
  196.8260  175.5650  142.4800 O   0  0  0  0  0  0  0  0  0  0  0  0
  196.0760  176.4690  141.7270 C   0  0  0  0  0  1  0  0  0  0  0  0
  195.8720  173.3550  142.5350 C   0  0  2  0  0  3  0  0  0  0  0  0
  196.3140  173.3290  141.1920 O   0  0  0  0  0  0  0  0  0  0  0  0
  195.2030  173.1870  140.3480 C   0  0  0  0  0  1  0  0  0  0  0  0
  194.5460  172.6100  142.7370 C   0  0  0  0  0  2  0  0  0  0  0  0
  194.7730  171.0960  143.7270 S   0  0  0  0  0  0  0  0  0  0  0  0
  196.1840  170.4760  142.7580 C   0  0  0  0  0  2  0  0  0  0  0  0
  195.3300  168.3590  141.8570 C   0  0  0  0  0  2  0  0  0  0  0  0
  196.6530  168.6340  141.1750 C   0  0  2  0  0  3  0  0  0  0  0  0
  195.7130  169.7780  141.4980 C   0  0  2  0  0  3  0  0  0  0  0  0
  196.5300  168.2950  139.6980 C   0  0  0  0  0  2  0  0  0  0  0  0
  197.3510  169.2500  138.8430 C   0  0  0  0  0  2  0  0  0  0  0  0
  197.4360  168.7490  137.4090 C   0  0  0  0  0  2  0  0  0  0  0  0
  196.1580  168.5210  136.8890 O   0  0  0  0  0  0  0  0  0  0  0  0
  196.0310  169.3830  135.7880 C   0  0  0  0  0  2  0  0  0  0  0  0
  197.9310  170.2680  134.6380 O   0  0  0  0  0  1  0  0  0  0  0  0
  197.1340  170.4480  135.7700 C   0  0  1  0  0  3  0  0  0  0  0  0
  196.5600  174.4910  136.9680 S   0  0  0  0  0  0  0  0  0  0  0  0
  195.9200  172.0230  137.0390 O   0  0  0  0  0  0  0  0  0  0  0  0
  197.3120  174.3880  134.9970 S   0  0  0  0  0  0  0  0  0  0  0  0
  197.7880  172.7590  135.6300 C   0  0  1  0  0  3  0  0  0  0  0  0
  197.1080  172.7540  136.9760 C   0  0  2  0  0  0  0  0  0  0  0  0
  196.5860  171.8810  135.8130 C   0  0  2  0  0  0  0  0  0  0  0  0
  1  2  2  0  0  0  0
  2  3  2  0  0  0  0
  4  3  1  0  0  0  0
  5  4  1  6  0  0  0
  6  5  1  0  0  0  0
  7 18  1  6  0  0  0
  7  6  1  0  0  0  0
  7  5  1  0  0  0  0
  8 16  1  6  0  0  0
 10 15  1  0  0  0  0
 11  7  1  6  0  0  0
 11  8  1  0  0  0  0
 12  9  1  1  0  0  0
 12 11  1  0  0  0  0
 12 13  1  0  0  0  0
 13 17  1  6  0  0  0
 13 15  1  0  0  0  0
 13  8  1  0  0  0  0
 14  9  1  0  0  0  0
 14 10  1  0  0  0  0
 19 22  1  0  0  0  0
 19 18  1  6  0  0  0
 20 22  1  0  0  0  0
 21 23  1  0  0  0  0
 21 24  1  0  0  0  0
 23 25  1  0  0  0  0
 24 26  1  6  0  0  0
 24 20  1  0  0  0  0
 25 19  1  0  0  0  0
 27 28  2  0  0  0  0
 27 26  1  0  0  0  0
 29 31  1  1  0  0  0
 29 27  1  0  0  0  0
 30 31  2  0  0  0  0
 32 29  1  0  0  0  0
 33 34  1  0  0  0  0
 34 32  1  0  0  0  0
 35  1  1  0  0  0  0
 36 35  1  0  0  0  0
 37 38  2  0  0  0  0
 37 36  1  0  0  0  0
 39 40  1  6  0  0  0
 39 37  1  0  0  0  0
 41 40  1  0  0  0  0
 42 45  1  6  0  0  0
 42 39  1  0  0  0  0
 43 42  1  0  0  0  0
 44 43  1  0  0  0  0
 45 46  1  0  0  0  0
 47 46  1  0  0  0  0
 49 51  1  6  0  0  0
 49 50  1  0  0  0  0
 49 48  1  0  0  0  0
 50 48  1  0  0  0  0
 50 47  1  1  0  0  0
 52 51  1  0  0  0  0
 53 52  1  0  0  0  0
 54 53  1  0  0  0  0
 55 54  1  0  0  0  0
 57 56  1  6  0  0  0
 57 55  1  0  0  0  0
 60 58  1  0  0  0  0
 61 60  1  6  0  0  0
 61 63  1  0  0  0  0
 61 62  1  0  0  0  0
 62 58  1  6  0  0  0
 62 59  1  0  0  0  0
 63 57  1  1  0  0  0
 63 62  1  0  0  0  0
 63 59  1  0  0  0  0
M  END
>  <MODEL>
5

>  <REMARK>
 VINA RESULT:      -4.3      2.434      3.633
  Name = 
  29 active torsions:
  status: ('A' for Active; 'I' for Inactive)
    1  A    between atoms: C_2  and  C_18
    2  A    between atoms: C_2  and  C_25
    3  A    between atoms: C_2  and  O_46
    4  A    between atoms: C_3  and  C_48
    5  A    between atoms: C_4  and  C_7
    6  A    between atoms: C_4  and  C_16
    7  A    between atoms: O_5  and  C_26
    8  A    between atoms: O_5  and  C_33
    9  A    between atoms: O_6  and  C_15
   10  A    between atoms: O_6  and  C_32
   11  A    between atoms: C_7  and  C_15
   12  A    between atoms: C_8  and  C_36
   13  A    between atoms: C_9  and  C_26
   14  A    between atoms: C_9  and  C_60
   15  A    between atoms: C_10  and  C_21
   16  A    between atoms: C_10  and  O_37
   17  A    between atoms: O_13  and  C_18
   18  A    between atoms: C_18  and  C_56
   19  A    between atoms: C_25  and  O_37
   20  A    between atoms: C_26  and  C_58
   21  A    between atoms: C_28  and  C_57
   22  A    between atoms: C_32  and  C_35
   23  A    between atoms: C_35  and  C_50
   24  A    between atoms: C_36  and  C_39
   25  A    between atoms: C_48  and  C_57
   26  A    between atoms: C_51  and  C_60
   27  A    between atoms: S_52  and  C_56
   28  A    between atoms: S_52  and  C_59
   29  A    between atoms: C_59  and  C_61
                            x       y       z     vdW  Elec       q    Type
                         _______ _______ _______ _____ _____    ______ ____

>  <TORSDO>
F 29

$$$$
=
 OpenBabel11072409373D

 63 70  0  0  1  0  0  0  0  0999 V2000
  192.9050  176.8550  147.1260 C   0  0  0  0  0  3  0  0  0  0  0  0
  192.0510  175.8740  147.2270 C   0  0  0  0  0  0  0  0  0  0  0  0
  191.2100  174.8840  147.3060 C   0  0  0  0  0  3  0  0  0  0  0  0
  190.1080  174.7700  146.3180 C   0  0  0  0  0  2  0  0  0  0  0  0
  189.2220  176.0070  146.3430 C   0  0  1  0  0  3  0  0  0  0  0  0
  189.9730  177.1520  146.0290 O   0  0  0  0  0  0  0  0  0  0  0  0
  189.1080  176.6900  145.0160 C   0  0  2  0  0  0  0  0  0  0  0  0
  187.0060  177.8890  146.0420 C   0  0  1  0  0  3  0  0  0  0  0  0
  186.7630  178.2270  142.8960 C   0  0  0  0  0  2  0  0  0  0  0  0
  184.3430  178.1090  143.4920 O   0  0  0  0  0  0  0  0  0  0  0  0
  187.9600  177.7070  144.8550 C   0  0  2  0  0  3  0  0  0  0  0  0
  186.9070  177.2180  143.9630 N   0  0  1  0  0  0  0  0  0  0  0  0
  185.9480  177.3850  145.0690 C   0  0  2  0  0  0  0  0  0  0  0  0
  185.2900  178.5250  142.5280 C   0  0  0  0  0  2  0  0  0  0  0  0
  184.8560  178.4070  144.7640 C   0  0  0  0  0  2  0  0  0  0  0  0
  187.2610  176.9540  147.2230 C   0  0  0  0  0  1  0  0  0  0  0  0
  185.3860  176.1550  145.4190 O   0  0  0  0  0  1  0  0  0  0  0  0
  189.9730  176.3240  143.7990 C   0  0  0  0  0  2  0  0  0  0  0  0
  189.6000  174.9950  143.1610 C   0  0  2  0  0  3  0  0  0  0  0  0
  190.5310  173.1920  141.6350 C   0  0  0  0  0  2  0  0  0  0  0  0
  188.1140  173.0890  140.8610 C   0  0  0  0  0  2  0  0  0  0  0  0
  190.7640  174.5520  142.2770 C   0  0  0  0  0  2  0  0  0  0  0  0
  187.6760  173.7650  142.1640 C   0  0  0  0  0  2  0  0  0  0  0  0
  189.5680  173.3490  140.4650 C   0  0  2  0  0  3  0  0  0  0  0  0
  188.3040  175.1370  142.3690 C   0  0  0  0  0  2  0  0  0  0  0  0
  189.9670  172.4410  139.3140 C   0  0  0  0  0  2  0  0  0  0  0  0
  191.0500  173.0860  138.5070 C   0  0  0  0  0  0  0  0  0  0  0  0
  192.0300  173.7510  139.1240 C   0  0  0  0  0  2  0  0  0  0  0  0
  191.0690  172.9630  137.0090 C   0  0  1  0  0  3  0  0  0  0  0  0
  190.9980  175.0230  135.6720 C   0  0  0  0  0  2  0  0  0  0  0  0
  191.7170  174.1680  136.4040 C   0  0  0  0  0  3  0  0  0  0  0  0
  191.7600  171.8130  136.6170 O   0  0  0  0  0  0  0  0  0  0  0  0
  190.9010  169.6000  136.4670 C   0  0  0  0  0  1  0  0  0  0  0  0
  190.8190  171.0250  135.9500 C   0  0  0  0  0  2  0  0  0  0  0  0
  194.1860  176.6560  146.3900 C   0  0  0  0  0  2  0  0  0  0  0  0
  194.7700  175.3900  146.6970 O   0  0  0  0  0  0  0  0  0  0  0  0
  195.5940  174.6620  145.8230 C   0  0  0  0  0  0  0  0  0  0  0  0
  196.4490  173.7370  146.2660 C   0  0  0  0  0  2  0  0  0  0  0  0
  195.5560  174.9640  144.3510 C   0  0  1  0  0  3  0  0  0  0  0  0
  196.7200  175.6500  143.9920 O   0  0  0  0  0  0  0  0  0  0  0  0
  196.2930  176.7170  143.2010 C   0  0  0  0  0  1  0  0  0  0  0  0
  195.4310  173.6720  143.5140 C   0  0  2  0  0  3  0  0  0  0  0  0
  196.2540  173.6780  142.3640 O   0  0  0  0  0  0  0  0  0  0  0  0
  197.2400  172.6910  142.5040 C   0  0  0  0  0  1  0  0  0  0  0  0
  193.9820  173.2730  143.2060 C   0  0  0  0  0  2  0  0  0  0  0  0
  193.4360  171.8820  144.2490 S   0  0  0  0  0  0  0  0  0  0  0  0
  194.2260  170.5940  143.2350 C   0  0  0  0  0  2  0  0  0  0  0  0
  193.0620  168.6260  142.3410 C   0  0  0  0  0  2  0  0  0  0  0  0
  194.0130  169.1100  141.2670 C   0  0  2  0  0  3  0  0  0  0  0  0
  193.2890  170.1100  142.1460 C   0  0  2  0  0  3  0  0  0  0  0  0
  193.3150  169.0410  139.9180 C   0  0  0  0  0  2  0  0  0  0  0  0
  193.5220  170.3230  139.1240 C   0  0  0  0  0  2  0  0  0  0  0  0
  194.3210  171.3330  139.9340 C   0  0  0  0  0  2  0  0  0  0  0  0
  195.6180  171.4560  139.4280 O   0  0  0  0  0  0  0  0  0  0  0  0
  195.5540  172.4520  138.4410 C   0  0  0  0  0  2  0  0  0  0  0  0
  197.7710  173.1270  139.0250 O   0  0  0  0  0  1  0  0  0  0  0  0
  196.4940  173.6220  138.7520 C   0  0  1  0  0  3  0  0  0  0  0  0
  197.5480  175.5030  135.0840 S   0  0  0  0  0  0  0  0  0  0  0  0
  197.8730  175.1400  137.5870 O   0  0  0  0  0  0  0  0  0  0  0  0
  195.4820  175.0700  135.1430 S   0  0  0  0  0  0  0  0  0  0  0  0
  196.1080  173.9230  136.3970 C   0  0  1  0  0  3  0  0  0  0  0  0
  197.5530  174.3420  136.4870 C   0  0  2  0  0  0  0  0  0  0  0  0
  196.5560  174.6600  137.6240 C   0  0  2  0  0  0  0  0  0  0  0  0
  1  2  2  0  0  0  0
  2  3  2  0  0  0  0
  4  3  1  0  0  0  0
  5  4  1  6  0  0  0
  6  5  1  0  0  0  0
  7 18  1  6  0  0  0
  7  6  1  0  0  0  0
  7  5  1  0  0  0  0
  8 16  1  1  0  0  0
 10 15  1  0  0  0  0
 11  7  1  1  0  0  0
 11  8  1  0  0  0  0
 12  9  1  6  0  0  0
 12 11  1  0  0  0  0
 12 13  1  0  0  0  0
 13 17  1  1  0  0  0
 13  8  1  0  0  0  0
 14  9  1  0  0  0  0
 14 10  1  0  0  0  0
 15 13  1  0  0  0  0
 19 18  1  6  0  0  0
 20 22  1  0  0  0  0
 21 23  1  0  0  0  0
 22 19  1  0  0  0  0
 23 25  1  0  0  0  0
 24 26  1  6  0  0  0
 24 21  1  0  0  0  0
 24 20  1  0  0  0  0
 25 19  1  0  0  0  0
 27 28  2  0  0  0  0
 27 26  1  0  0  0  0
 29 31  1  6  0  0  0
 29 27  1  0  0  0  0
 30 31  2  0  0  0  0
 32 29  1  0  0  0  0
 34 33  1  0  0  0  0
 34 32  1  0  0  0  0
 35 36  1  0  0  0  0
 35  1  1  0  0  0  0
 37 38  2  0  0  0  0
 37 36  1  0  0  0  0
 39 40  1  6  0  0  0
 39 37  1  0  0  0  0
 41 40  1  0  0  0  0
 42 45  1  6  0  0  0
 42 39  1  0  0  0  0
 43 44  1  0  0  0  0
 43 42  1  0  0  0  0
 45 46  1  0  0  0  0
 47 46  1  0  0  0  0
 49 51  1  6  0  0  0
 49 50  1  0  0  0  0
 49 48  1  0  0  0  0
 50 48  1  0  0  0  0
 50 47  1  1  0  0  0
 52 51  1  0  0  0  0
 52 53  1  0  0  0  0
 54 53  1  0  0  0  0
 55 57  1  0  0  0  0
 55 54  1  0  0  0  0
 57 56  1  6  0  0  0
 58 60  1  0  0  0  0
 59 63  1  0  0  0  0
 61 60  1  6  0  0  0
 61 62  1  0  0  0  0
 61 63  1  0  0  0  0
 62 58  1  6  0  0  0
 62 59  1  0  0  0  0
 62 63  1  0  0  0  0
 63 57  1  1  0  0  0
M  END
>  <MODEL>
6

>  <REMARK>
 VINA RESULT:      -4.1      1.954      2.734
  Name = 
  29 active torsions:
  status: ('A' for Active; 'I' for Inactive)
    1  A    between atoms: C_2  and  C_18
    2  A    between atoms: C_2  and  C_25
    3  A    between atoms: C_2  and  O_46
    4  A    between atoms: C_3  and  C_48
    5  A    between atoms: C_4  and  C_7
    6  A    between atoms: C_4  and  C_16
    7  A    between atoms: O_5  and  C_26
    8  A    between atoms: O_5  and  C_33
    9  A    between atoms: O_6  and  C_15
   10  A    between atoms: O_6  and  C_32
   11  A    between atoms: C_7  and  C_15
   12  A    between atoms: C_8  and  C_36
   13  A    between atoms: C_9  and  C_26
   14  A    between atoms: C_9  and  C_60
   15  A    between atoms: C_10  and  C_21
   16  A    between atoms: C_10  and  O_37
   17  A    between atoms: O_13  and  C_18
   18  A    between atoms: C_18  and  C_56
   19  A    between atoms: C_25  and  O_37
   20  A    between atoms: C_26  and  C_58
   21  A    between atoms: C_28  and  C_57
   22  A    between atoms: C_32  and  C_35
   23  A    between atoms: C_35  and  C_50
   24  A    between atoms: C_36  and  C_39
   25  A    between atoms: C_48  and  C_57
   26  A    between atoms: C_51  and  C_60
   27  A    between atoms: S_52  and  C_56
   28  A    between atoms: S_52  and  C_59
   29  A    between atoms: C_59  and  C_61
                            x       y       z     vdW  Elec       q    Type
                         _______ _______ _______ _____ _____    ______ ____

>  <TORSDO>
F 29

$$$$
=
 OpenBabel11072409373D

 63 70  0  0  1  0  0  0  0  0999 V2000
  195.5570  172.7130  139.4800 C   0  0  0  0  0  3  0  0  0  0  0  0
  195.5070  171.5480  138.8950 C   0  0  0  0  0  0  0  0  0  0  0  0
  195.4800  170.3910  138.2990 C   0  0  0  0  0  3  0  0  0  0  0  0
  195.2390  170.3190  136.8360 C   0  0  0  0  0  2  0  0  0  0  0  0
  195.4770  171.6690  136.1760 C   0  0  1  0  0  3  0  0  0  0  0  0
  195.5270  171.5260  134.7780 O   0  0  0  0  0  0  0  0  0  0  0  0
  194.3520  172.1110  135.2920 C   0  0  2  0  0  0  0  0  0  0  0  0
  195.5440  174.4540  135.2730 C   0  0  1  0  0  3  0  0  0  0  0  0
  192.4660  175.0300  134.7650 C   0  0  0  0  0  2  0  0  0  0  0  0
  193.0780  177.1010  136.0140 O   0  0  0  0  0  0  0  0  0  0  0  0
  194.3310  173.5980  134.8870 C   0  0  2  0  0  3  0  0  0  0  0  0
  193.4010  174.3820  135.7040 N   0  0  1  0  0  0  0  0  0  0  0  0
  194.5330  175.2400  136.0970 C   0  0  2  0  0  0  0  0  0  0  0  0
  192.1580  176.5030  135.1220 C   0  0  0  0  0  2  0  0  0  0  0  0
  194.3690  176.6890  135.6480 C   0  0  0  0  0  2  0  0  0  0  0  0
  196.6010  173.7320  136.1090 C   0  0  0  0  0  1  0  0  0  0  0  0
  194.7410  175.1730  137.4760 O   0  0  0  0  0  1  0  0  0  0  0  0
  193.1740  171.2030  134.9020 C   0  0  0  0  0  2  0  0  0  0  0  0
  191.9960  171.2850  135.8610 C   0  0  2  0  0  3  0  0  0  0  0  0
  191.2470  172.4430  137.9940 C   0  0  0  0  0  2  0  0  0  0  0  0
  190.1180  170.2040  138.3980 C   0  0  0  0  0  2  0  0  0  0  0  0
  192.3800  172.2280  137.0000 C   0  0  0  0  0  2  0  0  0  0  0  0
  190.2060  169.8970  136.9000 C   0  0  0  0  0  2  0  0  0  0  0  0
  191.1400  171.2240  138.9010 C   0  0  2  0  0  3  0  0  0  0  0  0
  191.6350  169.8940  136.3710 C   0  0  0  0  0  2  0  0  0  0  0  0
  190.8040  171.6410  140.3230 C   0  0  0  0  0  2  0  0  0  0  0  0
  190.9690  173.1220  140.4730 C   0  0  0  0  0  0  0  0  0  0  0  0
  192.1700  173.6770  140.2940 C   0  0  0  0  0  2  0  0  0  0  0  0
  189.7890  173.9980  140.7900 C   0  0  1  0  0  3  0  0  0  0  0  0
  188.3360  173.5210  138.8680 C   0  0  0  0  0  2  0  0  0  0  0  0
  188.5480  173.4250  140.1830 C   0  0  0  0  0  3  0  0  0  0  0  0
  189.6220  174.1190  142.1720 O   0  0  0  0  0  0  0  0  0  0  0  0
  190.6480  176.2110  142.6540 C   0  0  0  0  0  1  0  0  0  0  0  0
  189.3490  175.4710  142.3950 C   0  0  0  0  0  2  0  0  0  0  0  0
  196.8700  173.3900  139.6830 C   0  0  0  0  0  2  0  0  0  0  0  0
  196.9150  174.0710  140.9360 O   0  0  0  0  0  0  0  0  0  0  0  0
  195.7860  174.5470  141.6240 C   0  0  0  0  0  0  0  0  0  0  0  0
  195.1510  175.6610  141.2510 C   0  0  0  0  0  2  0  0  0  0  0  0
  195.3060  173.8160  142.8460 C   0  0  1  0  0  3  0  0  0  0  0  0
  196.4060  173.2860  143.5270 O   0  0  0  0  0  0  0  0  0  0  0  0
  197.5110  173.9970  143.0570 C   0  0  0  0  0  1  0  0  0  0  0  0
  194.5130  174.7510  143.7860 C   0  0  2  0  0  3  0  0  0  0  0  0
  195.3410  175.4680  144.6790 O   0  0  0  0  0  0  0  0  0  0  0  0
  195.2280  176.8390  144.4050 C   0  0  0  0  0  1  0  0  0  0  0  0
  193.3350  174.0640  144.4900 C   0  0  0  0  0  2  0  0  0  0  0  0
  193.2060  174.5780  146.2340 S   0  0  0  0  0  0  0  0  0  0  0  0
  192.0500  175.9470  145.9180 C   0  0  0  0  0  2  0  0  0  0  0  0
  189.8200  174.9230  145.9650 C   0  0  0  0  0  2  0  0  0  0  0  0
  189.6240  176.4240  146.0020 C   0  0  2  0  0  3  0  0  0  0  0  0
  190.7860  175.7910  146.7400 C   0  0  2  0  0  3  0  0  0  0  0  0
  188.5260  176.7570  146.9990 C   0  0  0  0  0  2  0  0  0  0  0  0
  188.4080  178.2600  147.2070 C   0  0  0  0  0  2  0  0  0  0  0  0
  187.3370  178.5770  148.2400 C   0  0  0  0  0  2  0  0  0  0  0  0
  186.0920  178.0980  147.8230 O   0  0  0  0  0  0  0  0  0  0  0  0
  185.6120  179.0320  146.8920 C   0  0  0  0  0  2  0  0  0  0  0  0
  183.3990  178.6370  146.0790 O   0  0  0  0  0  1  0  0  0  0  0  0
  184.7440  178.3680  145.8160 C   0  0  1  0  0  3  0  0  0  0  0  0
  186.4490  178.3420  141.9180 S   0  0  0  0  0  0  0  0  0  0  0  0
  186.4940  179.0210  144.3750 O   0  0  0  0  0  0  0  0  0  0  0  0
  184.3390  178.3000  141.8190 S   0  0  0  0  0  0  0  0  0  0  0  0
  184.6150  177.7060  143.5080 C   0  0  1  0  0  3  0  0  0  0  0  0
  186.1040  177.8940  143.6490 C   0  0  2  0  0  0  0  0  0  0  0  0
  185.1070  178.8110  144.3930 C   0  0  2  0  0  0  0  0  0  0  0  0
  1 35  1  0  0  0  0
  2  1  2  0  0  0  0
  3  2  2  0  0  0  0
  4  3  1  0  0  0  0
  5  4  1  1  0  0  0
  6  7  1  0  0  0  0
  6  5  1  0  0  0  0
  7 18  1  6  0  0  0
  7  5  1  0  0  0  0
  8 13  1  0  0  0  0
  8 16  1  1  0  0  0
  9 14  1  0  0  0  0
 11  8  1  0  0  0  0
 11  7  1  1  0  0  0
 11 12  1  0  0  0  0
 12  9  1  6  0  0  0
 12 13  1  0  0  0  0
 13 17  1  1  0  0  0
 14 10  1  0  0  0  0
 15 10  1  0  0  0  0
 15 13  1  0  0  0  0
 19 18  1  6  0  0  0
 19 25  1  0  0  0  0
 19 22  1  0  0  0  0
 20 24  1  0  0  0  0
 21 24  1  0  0  0  0
 22 20  1  0  0  0  0
 23 21  1  0  0  0  0
 24 26  1  1  0  0  0
 25 23  1  0  0  0  0
 26 27  1  0  0  0  0
 27 29  1  0  0  0  0
 28 27  2  0  0  0  0
 29 31  1  6  0  0  0
 29 32  1  0  0  0  0
 30 31  2  0  0  0  0
 32 34  1  0  0  0  0
 34 33  1  0  0  0  0
 35 36  1  0  0  0  0
 36 37  1  0  0  0  0
 38 37  2  0  0  0  0
 39 37  1  6  0  0  0
 39 40  1  0  0  0  0
 39 42  1  0  0  0  0
 41 40  1  0  0  0  0
 42 45  1  1  0  0  0
 42 43  1  0  0  0  0
 44 43  1  0  0  0  0
 45 46  1  0  0  0  0
 47 46  1  0  0  0  0
 48 49  1  0  0  0  0
 48 50  1  0  0  0  0
 49 50  1  0  0  0  0
 49 51  1  1  0  0  0
 50 47  1  6  0  0  0
 51 52  1  0  0  0  0
 52 53  1  0  0  0  0
 54 53  1  0  0  0  0
 55 54  1  0  0  0  0
 57 56  1  1  0  0  0
 57 55  1  0  0  0  0
 59 63  1  0  0  0  0
 60 58  1  0  0  0  0
 61 60  1  6  0  0  0
 61 62  1  0  0  0  0
 61 63  1  0  0  0  0
 62 58  1  6  0  0  0
 62 59  1  0  0  0  0
 62 63  1  0  0  0  0
 63 57  1  1  0  0  0
M  END
>  <MODEL>
7

>  <REMARK>
 VINA RESULT:      -3.3      3.756      9.386
  Name = 
  29 active torsions:
  status: ('A' for Active; 'I' for Inactive)
    1  A    between atoms: C_2  and  C_18
    2  A    between atoms: C_2  and  C_25
    3  A    between atoms: C_2  and  O_46
    4  A    between atoms: C_3  and  C_48
    5  A    between atoms: C_4  and  C_7
    6  A    between atoms: C_4  and  C_16
    7  A    between atoms: O_5  and  C_26
    8  A    between atoms: O_5  and  C_33
    9  A    between atoms: O_6  and  C_15
   10  A    between atoms: O_6  and  C_32
   11  A    between atoms: C_7  and  C_15
   12  A    between atoms: C_8  and  C_36
   13  A    between atoms: C_9  and  C_26
   14  A    between atoms: C_9  and  C_60
   15  A    between atoms: C_10  and  C_21
   16  A    between atoms: C_10  and  O_37
   17  A    between atoms: O_13  and  C_18
   18  A    between atoms: C_18  and  C_56
   19  A    between atoms: C_25  and  O_37
   20  A    between atoms: C_26  and  C_58
   21  A    between atoms: C_28  and  C_57
   22  A    between atoms: C_32  and  C_35
   23  A    between atoms: C_35  and  C_50
   24  A    between atoms: C_36  and  C_39
   25  A    between atoms: C_48  and  C_57
   26  A    between atoms: C_51  and  C_60
   27  A    between atoms: S_52  and  C_56
   28  A    between atoms: S_52  and  C_59
   29  A    between atoms: C_59  and  C_61
                            x       y       z     vdW  Elec       q    Type
                         _______ _______ _______ _____ _____    ______ ____

>  <TORSDO>
F 29

$$$$
=
 OpenBabel11072409373D

 63 70  0  0  1  0  0  0  0  0999 V2000
  195.4690  173.2460  138.5890 C   0  0  0  0  0  3  0  0  0  0  0  0
  195.1990  171.9710  138.5250 C   0  0  0  0  0  0  0  0  0  0  0  0
  194.9540  170.6950  138.4500 C   0  0  0  0  0  3  0  0  0  0  0  0
  194.6780  170.0720  137.1310 C   0  0  0  0  0  2  0  0  0  0  0  0
  194.3350  171.1270  136.0900 C   0  0  1  0  0  3  0  0  0  0  0  0
  194.1170  170.5250  134.8390 O   0  0  0  0  0  0  0  0  0  0  0  0
  192.9630  170.9750  135.5110 C   0  0  2  0  0  0  0  0  0  0  0  0
  193.3310  173.3790  134.5130 C   0  0  1  0  0  3  0  0  0  0  0  0
  190.1920  173.0150  134.7930 C   0  0  0  0  0  2  0  0  0  0  0  0
  190.3660  175.4700  135.2020 O   0  0  0  0  0  0  0  0  0  0  0  0
  192.3950  172.1870  134.7450 C   0  0  2  0  0  3  0  0  0  0  0  0
  191.4540  172.9630  135.5550 N   0  0  1  0  0  0  0  0  0  0  0  0
  192.3150  174.1420  135.3530 C   0  0  2  0  0  0  0  0  0  0  0  0
  189.5180  174.4070  134.8140 C   0  0  0  0  0  2  0  0  0  0  0  0
  191.6180  175.2700  134.5990 C   0  0  0  0  0  2  0  0  0  0  0  0
  194.7080  173.2530  135.1640 C   0  0  0  0  0  1  0  0  0  0  0  0
  192.8110  174.6000  136.5760 O   0  0  0  0  0  1  0  0  0  0  0  0
  192.0680  169.7510  135.7640 C   0  0  0  0  0  2  0  0  0  0  0  0
  191.3010  169.8160  137.0770 C   0  0  2  0  0  3  0  0  0  0  0  0
  190.5440  171.4630  138.8550 C   0  0  0  0  0  2  0  0  0  0  0  0
  190.9860  169.4810  140.3810 C   0  0  0  0  0  2  0  0  0  0  0  0
  191.3400  171.2600  137.5740 C   0  0  0  0  0  2  0  0  0  0  0  0
  190.8860  168.5400  139.1760 C   0  0  0  0  0  2  0  0  0  0  0  0
  191.3460  170.9260  140.0340 C   0  0  2  0  0  3  0  0  0  0  0  0
  191.9070  168.8490  138.0880 C   0  0  0  0  0  2  0  0  0  0  0  0
  191.1700  171.8150  141.2530 C   0  0  0  0  0  2  0  0  0  0  0  0
  190.9140  173.2270  140.8230 C   0  0  0  0  0  0  0  0  0  0  0  0
  191.7550  173.8250  139.9760 C   0  0  0  0  0  2  0  0  0  0  0  0
  189.6980  173.9690  141.3050 C   0  0  1  0  0  3  0  0  0  0  0  0
  187.5510  173.2840  140.3300 C   0  0  0  0  0  2  0  0  0  0  0  0
  188.4990  173.0780  141.2480 C   0  0  0  0  0  3  0  0  0  0  0  0
  189.8850  174.4210  142.6150 O   0  0  0  0  0  0  0  0  0  0  0  0
  189.9580  172.8530  144.4020 C   0  0  0  0  0  1  0  0  0  0  0  0
  189.0840  173.5960  143.4090 C   0  0  0  0  0  2  0  0  0  0  0  0
  196.8860  173.7100  138.5750 C   0  0  0  0  0  2  0  0  0  0  0  0
  197.2010  174.4510  139.7530 O   0  0  0  0  0  0  0  0  0  0  0  0
  196.2530  174.8980  140.6890 C   0  0  0  0  0  0  0  0  0  0  0  0
  195.3860  175.8730  140.4040 C   0  0  0  0  0  2  0  0  0  0  0  0
  196.2430  174.3040  142.0690 C   0  0  1  0  0  3  0  0  0  0  0  0
  197.4890  173.7240  142.3290 O   0  0  0  0  0  0  0  0  0  0  0  0
  197.2570  172.7780  143.3270 C   0  0  0  0  0  1  0  0  0  0  0  0
  195.9310  175.3710  143.1400 C   0  0  2  0  0  3  0  0  0  0  0  0
  197.0790  175.8010  143.8430 O   0  0  0  0  0  0  0  0  0  0  0  0
  197.3660  177.1250  143.4820 C   0  0  0  0  0  1  0  0  0  0  0  0
  194.7720  174.9910  144.0710 C   0  0  0  0  0  2  0  0  0  0  0  0
  194.7190  176.0630  145.5450 S   0  0  0  0  0  0  0  0  0  0  0  0
  193.0370  176.6840  145.2380 C   0  0  0  0  0  2  0  0  0  0  0  0
  192.4070  175.1860  147.0770 C   0  0  0  0  0  2  0  0  0  0  0  0
  191.1550  175.4560  146.2720 C   0  0  2  0  0  3  0  0  0  0  0  0
  192.1760  176.5560  146.4790 C   0  0  2  0  0  3  0  0  0  0  0  0
  189.9890  175.6770  147.2240 C   0  0  0  0  0  2  0  0  0  0  0  0
  188.6630  175.6940  146.4770 C   0  0  0  0  0  2  0  0  0  0  0  0
  187.5720  176.3150  147.3360 C   0  0  0  0  0  2  0  0  0  0  0  0
  186.3820  176.4340  146.6130 O   0  0  0  0  0  0  0  0  0  0  0  0
  186.4480  177.6790  145.9660 C   0  0  0  0  0  2  0  0  0  0  0  0
  184.9640  178.9540  144.5930 O   0  0  0  0  0  1  0  0  0  0  0  0
  185.5840  177.7070  144.6990 C   0  0  1  0  0  3  0  0  0  0  0  0
  186.7970  177.7400  140.6210 S   0  0  0  0  0  0  0  0  0  0  0  0
  185.5090  176.7070  142.5640 O   0  0  0  0  0  0  0  0  0  0  0  0
  188.3000  178.5550  141.8610 S   0  0  0  0  0  0  0  0  0  0  0  0
  186.8440  178.7320  142.9260 C   0  0  1  0  0  3  0  0  0  0  0  0
  185.8000  177.9990  142.1230 C   0  0  2  0  0  0  0  0  0  0  0  0
  186.3770  177.3970  143.4230 C   0  0  2  0  0  0  0  0  0  0  0  0
  2  1  2  0  0  0  0
  3  2  2  0  0  0  0
  4  3  1  0  0  0  0
  5  4  1  1  0  0  0
  6  7  1  0  0  0  0
  6  5  1  0  0  0  0
  7 18  1  1  0  0  0
  7  5  1  0  0  0  0
  8 11  1  0  0  0  0
  8 16  1  1  0  0  0
  8 13  1  0  0  0  0
  9 14  1  0  0  0  0
 11  7  1  1  0  0  0
 11 12  1  0  0  0  0
 12  9  1  6  0  0  0
 13 12  1  0  0  0  0
 13 17  1  1  0  0  0
 14 10  1  0  0  0  0
 15 10  1  0  0  0  0
 15 13  1  0  0  0  0
 19 18  1  6  0  0  0
 19 22  1  0  0  0  0
 19 25  1  0  0  0  0
 20 24  1  0  0  0  0
 22 20  1  0  0  0  0
 23 21  1  0  0  0  0
 24 21  1  0  0  0  0
 24 26  1  1  0  0  0
 25 23  1  0  0  0  0
 27 26  1  0  0  0  0
 27 29  1  0  0  0  0
 28 27  2  0  0  0  0
 29 31  1  1  0  0  0
 29 32  1  0  0  0  0
 30 31  2  0  0  0  0
 32 34  1  0  0  0  0
 34 33  1  0  0  0  0
 35  1  1  0  0  0  0
 35 36  1  0  0  0  0
 36 37  1  0  0  0  0
 38 37  2  0  0  0  0
 39 37  1  6  0  0  0
 39 40  1  0  0  0  0
 39 42  1  0  0  0  0
 40 41  1  0  0  0  0
 42 43  1  0  0  0  0
 42 45  1  1  0  0  0
 44 43  1  0  0  0  0
 45 46  1  0  0  0  0
 47 46  1  0  0  0  0
 49 50  1  0  0  0  0
 49 48  1  0  0  0  0
 49 51  1  1  0  0  0
 50 47  1  6  0  0  0
 50 48  1  0  0  0  0
 52 51  1  0  0  0  0
 52 53  1  0  0  0  0
 54 53  1  0  0  0  0
 55 54  1  0  0  0  0
 57 56  1  6  0  0  0
 57 55  1  0  0  0  0
 58 60  1  0  0  0  0
 59 63  1  0  0  0  0
 61 60  1  6  0  0  0
 61 63  1  0  0  0  0
 62 58  1  6  0  0  0
 62 59  1  0  0  0  0
 62 61  1  0  0  0  0
 62 63  1  0  0  0  0
 63 57  1  1  0  0  0
M  END
>  <MODEL>
8

>  <REMARK>
 VINA RESULT:      -3.3      3.393      8.977
  Name = 
  29 active torsions:
  status: ('A' for Active; 'I' for Inactive)
    1  A    between atoms: C_2  and  C_18
    2  A    between atoms: C_2  and  C_25
    3  A    between atoms: C_2  and  O_46
    4  A    between atoms: C_3  and  C_48
    5  A    between atoms: C_4  and  C_7
    6  A    between atoms: C_4  and  C_16
    7  A    between atoms: O_5  and  C_26
    8  A    between atoms: O_5  and  C_33
    9  A    between atoms: O_6  and  C_15
   10  A    between atoms: O_6  and  C_32
   11  A    between atoms: C_7  and  C_15
   12  A    between atoms: C_8  and  C_36
   13  A    between atoms: C_9  and  C_26
   14  A    between atoms: C_9  and  C_60
   15  A    between atoms: C_10  and  C_21
   16  A    between atoms: C_10  and  O_37
   17  A    between atoms: O_13  and  C_18
   18  A    between atoms: C_18  and  C_56
   19  A    between atoms: C_25  and  O_37
   20  A    between atoms: C_26  and  C_58
   21  A    between atoms: C_28  and  C_57
   22  A    between atoms: C_32  and  C_35
   23  A    between atoms: C_35  and  C_50
   24  A    between atoms: C_36  and  C_39
   25  A    between atoms: C_48  and  C_57
   26  A    between atoms: C_51  and  C_60
   27  A    between atoms: S_52  and  C_56
   28  A    between atoms: S_52  and  C_59
   29  A    between atoms: C_59  and  C_61
                            x       y       z     vdW  Elec       q    Type
                         _______ _______ _______ _____ _____    ______ ____

>  <TORSDO>
F 29

$$$$
=
 OpenBabel11072409373D

 63 70  0  0  1  0  0  0  0  0999 V2000
  186.3610  177.0520  142.1830 C   0  0  0  0  0  3  0  0  0  0  0  0
  186.6730  175.7850  142.1430 C   0  0  0  0  0  0  0  0  0  0  0  0
  186.9880  174.5230  142.1290 C   0  0  0  0  0  3  0  0  0  0  0  0
  188.3950  174.1100  142.3620 C   0  0  0  0  0  2  0  0  0  0  0  0
  188.9400  173.3330  141.1730 C   0  0  1  0  0  3  0  0  0  0  0  0
  189.7290  174.1690  140.3640 O   0  0  0  0  0  0  0  0  0  0  0  0
  190.4340  173.2370  141.1530 C   0  0  2  0  0  0  0  0  0  0  0  0
  192.2430  172.6010  139.3550 C   0  0  1  0  0  3  0  0  0  0  0  0
  189.9370  170.4390  139.0840 C   0  0  0  0  0  2  0  0  0  0  0  0
  190.6850  170.5520  136.7070 O   0  0  0  0  0  0  0  0  0  0  0  0
  191.0490  172.1760  140.2200 C   0  0  2  0  0  3  0  0  0  0  0  0
  190.1950  171.8920  139.0640 N   0  0  1  0  0  0  0  0  0  0  0  0
  191.3160  172.2800  138.1900 C   0  0  2  0  0  0  0  0  0  0  0  0
  190.0170  169.7810  137.6870 C   0  0  0  0  0  2  0  0  0  0  0  0
  191.8100  171.1380  137.3080 C   0  0  0  0  0  2  0  0  0  0  0  0
  192.6210  174.0780  139.4620 C   0  0  0  0  0  1  0  0  0  0  0  0
  190.9680  173.3870  137.4130 O   0  0  0  0  0  1  0  0  0  0  0  0
  191.3460  174.0310  142.1030 C   0  0  0  0  0  2  0  0  0  0  0  0
  192.3350  173.1630  142.8660 C   0  0  2  0  0  3  0  0  0  0  0  0
  193.5370  170.9300  142.7300 C   0  0  0  0  0  2  0  0  0  0  0  0
  193.2000  170.9920  145.2470 C   0  0  0  0  0  2  0  0  0  0  0  0
  192.5110  171.8580  142.0930 C   0  0  0  0  0  2  0  0  0  0  0  0
  193.0030  172.5090  145.1760 C   0  0  0  0  0  2  0  0  0  0  0  0
  192.9120  170.2490  143.9410 C   0  0  2  0  0  3  0  0  0  0  0  0
  191.8370  172.9220  144.2870 C   0  0  0  0  0  2  0  0  0  0  0  0
  193.3780  168.8070  144.0470 C   0  0  0  0  0  2  0  0  0  0  0  0
  194.8700  168.7430  143.9350 C   0  0  0  0  0  0  0  0  0  0  0  0
  195.4310  168.2460  142.8300 C   0  0  0  0  0  2  0  0  0  0  0  0
  195.7460  169.2650  145.0390 C   0  0  1  0  0  3  0  0  0  0  0  0
  195.1210  168.7620  147.3610 C   0  0  0  0  0  2  0  0  0  0  0  0
  195.6810  168.3500  146.2210 C   0  0  0  0  0  3  0  0  0  0  0  0
  197.0710  169.3780  144.6060 O   0  0  0  0  0  0  0  0  0  0  0  0
  196.7650  171.1980  146.1070 C   0  0  0  0  0  1  0  0  0  0  0  0
  197.7170  170.1380  145.5850 C   0  0  0  0  0  2  0  0  0  0  0  0
  185.8570  177.6560  143.4490 C   0  0  0  0  0  2  0  0  0  0  0  0
  186.9060  178.3050  144.1680 O   0  0  0  0  0  0  0  0  0  0  0  0
  188.1470  177.7170  144.4670 C   0  0  0  0  0  0  0  0  0  0  0  0
  189.1260  177.6380  143.5630 C   0  0  0  0  0  2  0  0  0  0  0  0
  188.3660  177.1100  145.8250 C   0  0  1  0  0  3  0  0  0  0  0  0
  187.2290  176.3850  146.1940 O   0  0  0  0  0  0  0  0  0  0  0  0
  186.5200  177.2220  147.0560 C   0  0  0  0  0  1  0  0  0  0  0  0
  189.6010  176.1840  145.8340 C   0  0  2  0  0  3  0  0  0  0  0  0
  189.4390  175.0560  146.6720 O   0  0  0  0  0  0  0  0  0  0  0  0
  190.4350  175.0750  147.6590 C   0  0  0  0  0  1  0  0  0  0  0  0
  190.9250  176.9210  146.0800 C   0  0  0  0  0  2  0  0  0  0  0  0
  191.6000  177.6160  144.5360 S   0  0  0  0  0  0  0  0  0  0  0  0
  193.3430  177.4800  145.0420 C   0  0  0  0  0  2  0  0  0  0  0  0
  195.2220  175.9750  145.5230 C   0  0  0  0  0  2  0  0  0  0  0  0
  195.0320  175.9890  144.0210 C   0  0  2  0  0  3  0  0  0  0  0  0
  193.8280  176.0470  144.9380 C   0  0  2  0  0  3  0  0  0  0  0  0
  195.1810  174.5730  143.4880 C   0  0  0  0  0  2  0  0  0  0  0  0
  196.6350  174.1240  143.5140 C   0  0  0  0  0  2  0  0  0  0  0  0
  197.1630  173.9300  142.1000 C   0  0  0  0  0  2  0  0  0  0  0  0
  196.2090  173.2950  141.3000 O   0  0  0  0  0  0  0  0  0  0  0  0
  196.6330  173.4800  139.9740 C   0  0  0  0  0  2  0  0  0  0  0  0
  196.7790  171.1040  140.1940 O   0  0  0  0  0  1  0  0  0  0  0  0
  196.8910  172.1440  139.2680 C   0  0  1  0  0  3  0  0  0  0  0  0
  195.4670  171.8930  135.2670 S   0  0  0  0  0  0  0  0  0  0  0  0
  195.7410  173.1470  137.4700 O   0  0  0  0  0  0  0  0  0  0  0  0
  195.4860  169.9890  136.1810 S   0  0  0  0  0  0  0  0  0  0  0  0
  196.6580  170.8850  137.2320 C   0  0  1  0  0  3  0  0  0  0  0  0
  196.5240  172.2880  136.6960 C   0  0  2  0  0  0  0  0  0  0  0  0
  195.9520  171.9010  138.0790 C   0  0  2  0  0  0  0  0  0  0  0  0
  1 35  1  0  0  0  0
  2  1  2  0  0  0  0
  3  2  2  0  0  0  0
  3  4  1  0  0  0  0
  5  4  1  1  0  0  0
  6  7  1  0  0  0  0
  6  5  1  0  0  0  0
  7  5  1  0  0  0  0
  7 18  1  1  0  0  0
  8 16  1  1  0  0  0
  8 11  1  0  0  0  0
 10 15  1  0  0  0  0
 10 14  1  0  0  0  0
 11  7  1  1  0  0  0
 12  9  1  6  0  0  0
 12 11  1  0  0  0  0
 13 17  1  6  0  0  0
 13 12  1  0  0  0  0
 13  8  1  0  0  0  0
 14  9  1  0  0  0  0
 15 13  1  0  0  0  0
 19 18  1  6  0  0  0
 19 25  1  0  0  0  0
 20 24  1  0  0  0  0
 22 20  1  0  0  0  0
 22 19  1  0  0  0  0
 23 21  1  0  0  0  0
 24 26  1  1  0  0  0
 24 21  1  0  0  0  0
 25 23  1  0  0  0  0
 27 26  1  0  0  0  0
 27 29  1  0  0  0  0
 28 27  2  0  0  0  0
 29 31  1  1  0  0  0
 31 30  2  0  0  0  0
 32 29  1  0  0  0  0
 32 34  1  0  0  0  0
 34 33  1  0  0  0  0
 35 36  1  0  0  0  0
 36 37  1  0  0  0  0
 38 37  2  0  0  0  0
 39 37  1  6  0  0  0
 39 42  1  0  0  0  0
 39 40  1  0  0  0  0
 40 41  1  0  0  0  0
 42 45  1  1  0  0  0
 42 43  1  0  0  0  0
 43 44  1  0  0  0  0
 46 47  1  0  0  0  0
 46 45  1  0  0  0  0
 49 51  1  6  0  0  0
 49 50  1  0  0  0  0
 49 48  1  0  0  0  0
 50 47  1  1  0  0  0
 50 48  1  0  0  0  0
 51 52  1  0  0  0  0
 53 52  1  0  0  0  0
 54 53  1  0  0  0  0
 55 54  1  0  0  0  0
 57 55  1  0  0  0  0
 57 56  1  1  0  0  0
 58 60  1  0  0  0  0
 59 63  1  0  0  0  0
 61 60  1  6  0  0  0
 61 63  1  0  0  0  0
 62 58  1  6  0  0  0
 62 61  1  0  0  0  0
 62 59  1  0  0  0  0
 62 63  1  0  0  0  0
 63 57  1  1  0  0  0
M  END
>  <MODEL>
9

>  <REMARK>
 VINA RESULT:      -3.1      2.492      8.280
  Name = 
  29 active torsions:
  status: ('A' for Active; 'I' for Inactive)
    1  A    between atoms: C_2  and  C_18
    2  A    between atoms: C_2  and  C_25
    3  A    between atoms: C_2  and  O_46
    4  A    between atoms: C_3  and  C_48
    5  A    between atoms: C_4  and  C_7
    6  A    between atoms: C_4  and  C_16
    7  A    between atoms: O_5  and  C_26
    8  A    between atoms: O_5  and  C_33
    9  A    between atoms: O_6  and  C_15
   10  A    between atoms: O_6  and  C_32
   11  A    between atoms: C_7  and  C_15
   12  A    between atoms: C_8  and  C_36
   13  A    between atoms: C_9  and  C_26
   14  A    between atoms: C_9  and  C_60
   15  A    between atoms: C_10  and  C_21
   16  A    between atoms: C_10  and  O_37
   17  A    between atoms: O_13  and  C_18
   18  A    between atoms: C_18  and  C_56
   19  A    between atoms: C_25  and  O_37
   20  A    between atoms: C_26  and  C_58
   21  A    between atoms: C_28  and  C_57
   22  A    between atoms: C_32  and  C_35
   23  A    between atoms: C_35  and  C_50
   24  A    between atoms: C_36  and  C_39
   25  A    between atoms: C_48  and  C_57
   26  A    between atoms: C_51  and  C_60
   27  A    between atoms: S_52  and  C_56
   28  A    between atoms: S_52  and  C_59
   29  A    between atoms: C_59  and  C_61
                            x       y       z     vdW  Elec       q    Type
                         _______ _______ _______ _____ _____    ______ ____

>  <TORSDO>
F 29

$$$$
