=
 OpenBabel11062418193D

 49 54  0  0  1  0  0  0  0  0999 V2000
  191.2800  173.5760  140.8220 C   0  0  2  0  0  3  0  0  0  0  0  0
  193.6120  170.1260  139.2110 O   0  0  0  0  0  0  0  0  0  0  0  0
  189.5600  173.9390  142.6710 C   0  0  2  0  0  0  0  0  0  0  0  0
  190.6550  171.6640  139.1040 C   0  0  0  0  0  0  0  0  0  0  0  0
  189.4250  173.6550  139.3040 O   0  0  0  0  0  1  0  0  0  0  0  0
  189.7760  170.7760  138.6370 C   0  0  0  0  0  2  0  0  0  0  0  0
  192.7820  173.4030  140.5400 C   0  0  0  0  0  2  0  0  0  0  0  0
  188.6380  173.0870  141.7790 C   0  0  0  0  0  2  0  0  0  0  0  0
  193.0250  171.1780  139.4260 C   0  0  0  0  0  0  0  0  0  0  0  0
  192.0020  171.6700  138.4550 C   0  0  0  0  0  2  0  0  0  0  0  0
  191.0310  173.6840  142.3260 C   0  0  0  0  0  2  0  0  0  0  0  0
  190.1780  172.7500  140.0690 C   0  0  2  0  0  0  0  0  0  0  0  0
  189.3440  172.1150  141.0330 O   0  0  0  0  0  0  0  0  0  0  0  0
  193.3380  171.9740  140.6520 C   0  0  2  0  0  3  0  0  0  0  0  0
  189.9640  172.1930  144.4900 C   0  0  0  0  0  1  0  0  0  0  0  0
  189.3200  173.5290  144.1290 C   0  0  0  0  0  2  0  0  0  0  0  0
  193.6210  171.1300  142.9500 N   0  0  0  0  0  0  0  0  0  0  0  0
  192.8890  171.2460  141.8930 C   0  0  0  0  0  3  0  0  0  0  0  0
  194.9590  171.6660  143.0500 C   0  0  2  0  0  3  0  0  0  0  0  0
  195.1710  169.5400  144.2580 N   0  0  0  0  0  2  0  0  0  0  0  0
  197.3090  169.8950  145.8040 S   0  0  0  0  0  0  0  0  0  0  0  0
  196.1590  168.7560  144.9790 C   0  0  0  0  0  2  0  0  0  0  0  0
  195.9140  170.6100  143.6120 C   0  0  2  0  0  3  0  0  0  0  0  0
  196.8540  171.2120  144.6400 C   0  0  0  0  0  2  0  0  0  0  0  0
  194.9430  172.8300  143.9240 N   0  0  0  0  0  2  0  0  0  0  0  0
  193.7910  172.6830  144.7970 C   0  0  0  0  0  2  0  0  0  0  0  0
  193.7370  173.8460  145.7670 C   0  0  0  0  0  2  0  0  0  0  0  0
  192.3960  176.0600  145.6610 C   0  0  1  0  0  3  0  0  0  0  0  0
  192.3750  174.5210  145.6740 C   0  0  2  0  0  3  0  0  0  0  0  0
  192.1180  175.3000  146.9470 C   0  0  0  0  0  2  0  0  0  0  0  0
  193.7660  176.6820  145.6800 C   0  0  0  0  0  0  0  0  0  0  0  0
  194.4530  176.7500  144.6260 O   0  0  0  0  0  0  0  0  0  0  0  0
  194.3010  177.1320  146.8800 O   0  0  0  0  0  1  0  0  0  0  0  0
  189.2460  175.4230  142.4320 C   0  0  0  0  0  2  0  0  0  0  0  0
  187.6170  176.6730  141.0860 O   0  0  0  0  0  0  0  0  0  0  0  0
  187.0350  176.0440  143.2730 O   0  0  0  0  0  0  0  0  0  0  0  0
  187.7730  175.6920  142.0980 C   0  0  2  0  0  3  0  0  0  0  0  0
  186.8040  177.3800  143.6250 C   0  0  0  0  0  0  0  0  0  0  0  0
  187.2350  178.3310  142.7940 C   0  0  0  0  0  3  0  0  0  0  0  0
  188.0290  177.9310  141.5870 C   0  0  0  0  0  2  0  0  0  0  0  0
  184.6810  178.4020  147.2390 C   0  0  0  0  0  3  0  0  0  0  0  0
  184.7370  178.1800  144.8310 C   0  0  0  0  0  0  0  0  0  0  0  0
  186.7030  177.5980  146.1540 C   0  0  0  0  0  0  0  0  0  0  0  0
  184.0870  178.3400  143.6490 F   0  0  0  0  0  0  0  0  0  0  0  0
  184.0550  178.5180  146.0000 C   0  0  0  0  0  3  0  0  0  0  0  0
  185.9940  177.9460  147.3130 C   0  0  0  0  0  3  0  0  0  0  0  0
  186.0740  177.7140  144.8830 C   0  0  0  0  0  0  0  0  0  0  0  0
  188.0810  177.0870  146.2930 C   0  0  0  0  0  3  0  0  0  0  0  0
  188.3310  175.9380  146.8330 N   0  0  0  0  0  2  0  0  0  0  0  0
  1  7  1  1  0  0  0
  1 11  1  0  0  0  0
  2  9  2  0  0  0  0
  3 34  1  6  0  0  0
  3 16  1  0  0  0  0
  4 12  1  0  0  0  0
  6  4  2  0  0  0  0
  7 14  1  0  0  0  0
  8  3  1  0  0  0  0
  9 14  1  0  0  0  0
 10  4  1  0  0  0  0
 10  9  1  0  0  0  0
 11  3  1  0  0  0  0
 12  5  1  6  0  0  0
 12  1  1  0  0  0  0
 12 13  1  0  0  0  0
 13  8  1  0  0  0  0
 14 18  1  1  0  0  0
 16 15  1  0  0  0  0
 18 17  2  0  0  0  0
 19 17  1  1  0  0  0
 19 25  1  0  0  0  0
 20 22  1  0  0  0  0
 22 21  1  0  0  0  0
 23 19  1  1  0  0  0
 23 20  1  0  0  0  0
 23 24  1  0  0  0  0
 24 21  1  0  0  0  0
 25 26  1  0  0  0  0
 26 27  1  0  0  0  0
 28 29  1  0  0  0  0
 28 31  1  1  0  0  0
 28 30  1  0  0  0  0
 29 27  1  1  0  0  0
 29 30  1  0  0  0  0
 31 33  1  0  0  0  0
 32 31  2  0  0  0  0
 35 40  1  0  0  0  0
 35 37  1  0  0  0  0
 36 38  1  0  0  0  0
 37 34  1  1  0  0  0
 37 36  1  0  0  0  0
 38 47  1  0  0  0  0
 39 38  2  0  0  0  0
 40 39  1  0  0  0  0
 41 46  1  0  0  0  0
 42 47  2  0  0  0  0
 42 45  1  0  0  0  0
 43 48  1  0  0  0  0
 43 46  2  0  0  0  0
 44 42  1  0  0  0  0
 45 41  2  0  0  0  0
 47 43  1  0  0  0  0
 48 49  2  0  0  0  0
M  END
>  <MODEL>
1

>  <REMARK>
 VINA RESULT:      -7.6      0.000      0.000
  Name = 
  13 active torsions:
  status: ('A' for Active; 'I' for Inactive)
    1  A    between atoms: N_6  and  C_32
    2  A    between atoms: C_7  and  C_28
    3  A    between atoms: C_7  and  C_45
    4  A    between atoms: C_8  and  C_20
    5  A    between atoms: C_14  and  C_35
    6  A    between atoms: C_16  and  N_42
    7  A    between atoms: C_16  and  C_48
    8  A    between atoms: C_17  and  C_28
    9  A    between atoms: C_22  and  C_48
   10  A    between atoms: C_26  and  C_47
   11  A    between atoms: C_30  and  C_32
   12  A    between atoms: C_31  and  C_49
   13  A    between atoms: C_32  and  N_42
                            x       y       z     vdW  Elec       q    Type
                         _______ _______ _______ _____ _____    ______ ____

>  <TORSDO>
F 13

$$$$
=
 OpenBabel11062418193D

 49 54  0  0  1  0  0  0  0  0999 V2000
  193.1480  174.2500  143.4400 C   0  0  2  0  0  3  0  0  0  0  0  0
  196.9270  173.1370  141.3390 O   0  0  0  0  0  0  0  0  0  0  0  0
  191.9140  176.4130  143.9960 C   0  0  2  0  0  0  0  0  0  0  0  0
  195.6680  174.1900  144.2410 C   0  0  0  0  0  0  0  0  0  0  0  0
  193.8530  174.2540  145.7320 O   0  0  0  0  0  1  0  0  0  0  0  0
  196.6760  174.7410  144.9210 C   0  0  0  0  0  2  0  0  0  0  0  0
  193.4320  173.2350  142.3190 C   0  0  0  0  0  2  0  0  0  0  0  0
  193.1030  176.6770  144.9370 C   0  0  0  0  0  2  0  0  0  0  0  0
  195.9130  173.2100  142.0210 C   0  0  0  0  0  0  0  0  0  0  0  0
  195.9830  172.9380  143.4870 C   0  0  0  0  0  2  0  0  0  0  0  0
  192.2990  175.4050  142.9090 C   0  0  0  0  0  2  0  0  0  0  0  0
  194.2470  174.7080  144.4620 C   0  0  2  0  0  0  0  0  0  0  0  0
  194.3150  176.1310  144.4540 O   0  0  0  0  0  0  0  0  0  0  0  0
  194.6070  173.5610  141.3840 C   0  0  2  0  0  3  0  0  0  0  0  0
  190.1630  177.7000  142.6570 C   0  0  0  0  0  1  0  0  0  0  0  0
  191.5350  177.7380  143.3250 C   0  0  0  0  0  2  0  0  0  0  0  0
  194.4750  175.3100  139.6540 N   0  0  0  0  0  0  0  0  0  0  0  0
  194.6140  174.9870  140.8950 C   0  0  0  0  0  3  0  0  0  0  0  0
  194.3200  174.3410  138.5940 C   0  0  2  0  0  3  0  0  0  0  0  0
  196.5630  175.2150  138.1150 N   0  0  0  0  0  2  0  0  0  0  0  0
  196.3550  176.1860  135.6450 S   0  0  0  0  0  0  0  0  0  0  0  0
  197.4110  175.5670  136.9890 C   0  0  0  0  0  2  0  0  0  0  0  0
  195.4210  174.5190  137.5450 C   0  0  2  0  0  3  0  0  0  0  0  0
  194.9240  175.3290  136.3610 C   0  0  0  0  0  2  0  0  0  0  0  0
  193.0160  174.5160  137.9730 N   0  0  0  0  0  2  0  0  0  0  0  0
  192.2220  173.3530  138.3310 C   0  0  0  0  0  2  0  0  0  0  0  0
  191.2880  173.7080  139.4700 C   0  0  0  0  0  2  0  0  0  0  0  0
  188.9970  172.6260  140.0120 C   0  0  1  0  0  3  0  0  0  0  0  0
  190.5240  172.4650  139.9060 C   0  0  2  0  0  3  0  0  0  0  0  0
  189.8740  172.7250  141.2490 C   0  0  0  0  0  2  0  0  0  0  0  0
  188.4660  173.9750  139.6100 C   0  0  0  0  0  0  0  0  0  0  0  0
  188.1620  174.2110  138.4100 O   0  0  0  0  0  0  0  0  0  0  0  0
  188.3660  174.9860  140.5570 O   0  0  0  0  0  1  0  0  0  0  0  0
  190.7530  175.8320  144.8180 C   0  0  0  0  0  2  0  0  0  0  0  0
  190.4500  175.8710  147.2540 O   0  0  0  0  0  0  0  0  0  0  0  0
  189.1610  177.3210  145.9290 O   0  0  0  0  0  0  0  0  0  0  0  0
  190.4190  176.6530  146.0720 C   0  0  2  0  0  3  0  0  0  0  0  0
  187.9750  176.7740  146.4350 C   0  0  0  0  0  0  0  0  0  0  0  0
  188.0540  175.6330  147.1230 C   0  0  0  0  0  3  0  0  0  0  0  0
  189.3820  174.9430  147.2290 C   0  0  0  0  0  2  0  0  0  0  0  0
  184.1880  178.7650  145.8840 C   0  0  0  0  0  3  0  0  0  0  0  0
  186.1090  178.2560  147.2630 C   0  0  0  0  0  0  0  0  0  0  0  0
  185.9590  177.3500  145.0030 C   0  0  0  0  0  0  0  0  0  0  0  0
  186.7250  178.3920  148.4660 F   0  0  0  0  0  0  0  0  0  0  0  0
  184.8800  178.8930  147.0860 C   0  0  0  0  0  3  0  0  0  0  0  0
  184.7240  177.9990  144.8520 C   0  0  0  0  0  3  0  0  0  0  0  0
  186.6730  177.4720  146.2270 C   0  0  0  0  0  0  0  0  0  0  0  0
  186.4980  176.5810  143.8640 C   0  0  0  0  0  3  0  0  0  0  0  0
  186.5680  177.0820  142.6740 N   0  0  0  0  0  2  0  0  0  0  0  0
  1  7  1  6  0  0  0
  1 12  1  0  0  0  0
  2  9  2  0  0  0  0
  3 16  1  6  0  0  0
  3 34  1  0  0  0  0
  3  8  1  0  0  0  0
  4 12  1  0  0  0  0
  4  6  2  0  0  0  0
  9 10  1  0  0  0  0
 10  4  1  0  0  0  0
 11  1  1  0  0  0  0
 11  3  1  0  0  0  0
 12  5  1  1  0  0  0
 13 12  1  0  0  0  0
 13  8  1  0  0  0  0
 14 18  1  1  0  0  0
 14  9  1  0  0  0  0
 14  7  1  0  0  0  0
 15 16  1  0  0  0  0
 17 18  2  0  0  0  0
 19 25  1  6  0  0  0
 19 17  1  0  0  0  0
 21 24  1  0  0  0  0
 21 22  1  0  0  0  0
 22 20  1  0  0  0  0
 23 20  1  0  0  0  0
 23 19  1  1  0  0  0
 24 23  1  0  0  0  0
 25 26  1  0  0  0  0
 26 27  1  0  0  0  0
 28 31  1  6  0  0  0
 28 30  1  0  0  0  0
 29 27  1  6  0  0  0
 29 28  1  0  0  0  0
 29 30  1  0  0  0  0
 31 33  1  0  0  0  0
 32 31  2  0  0  0  0
 36 37  1  0  0  0  0
 36 38  1  0  0  0  0
 37 34  1  6  0  0  0
 37 35  1  0  0  0  0
 38 39  2  0  0  0  0
 39 40  1  0  0  0  0
 40 35  1  0  0  0  0
 41 45  1  0  0  0  0
 42 44  1  0  0  0  0
 43 47  2  0  0  0  0
 45 42  2  0  0  0  0
 46 43  1  0  0  0  0
 46 41  2  0  0  0  0
 47 38  1  0  0  0  0
 47 42  1  0  0  0  0
 48 43  1  0  0  0  0
 49 48  2  0  0  0  0
M  END
>  <MODEL>
2

>  <REMARK>
 VINA RESULT:      -7.6      3.371      6.138
  Name = 
  13 active torsions:
  status: ('A' for Active; 'I' for Inactive)
    1  A    between atoms: N_6  and  C_32
    2  A    between atoms: C_7  and  C_28
    3  A    between atoms: C_7  and  C_45
    4  A    between atoms: C_8  and  C_20
    5  A    between atoms: C_14  and  C_35
    6  A    between atoms: C_16  and  N_42
    7  A    between atoms: C_16  and  C_48
    8  A    between atoms: C_17  and  C_28
    9  A    between atoms: C_22  and  C_48
   10  A    between atoms: C_26  and  C_47
   11  A    between atoms: C_30  and  C_32
   12  A    between atoms: C_31  and  C_49
   13  A    between atoms: C_32  and  N_42
                            x       y       z     vdW  Elec       q    Type
                         _______ _______ _______ _____ _____    ______ ____

>  <TORSDO>
F 13

$$$$
=
 OpenBabel11062418193D

 49 54  0  0  1  0  0  0  0  0999 V2000
  192.8580  174.0100  143.9990 C   0  0  2  0  0  3  0  0  0  0  0  0
  196.7200  172.4550  142.3870 O   0  0  0  0  0  0  0  0  0  0  0  0
  191.7680  176.2980  144.2920 C   0  0  2  0  0  0  0  0  0  0  0  0
  195.2670  173.7990  145.0700 C   0  0  0  0  0  0  0  0  0  0  0  0
  193.3220  174.1100  146.3500 O   0  0  0  0  0  1  0  0  0  0  0  0
  196.2450  174.3110  145.8220 C   0  0  0  0  0  2  0  0  0  0  0  0
  193.1650  172.9030  142.9760 C   0  0  0  0  0  2  0  0  0  0  0  0
  192.8730  176.5270  145.3390 C   0  0  0  0  0  2  0  0  0  0  0  0
  195.6520  172.6560  142.9500 C   0  0  0  0  0  0  0  0  0  0  0  0
  195.5460  172.4780  144.4280 C   0  0  0  0  0  2  0  0  0  0  0  0
  192.1730  175.1920  143.3130 C   0  0  0  0  0  2  0  0  0  0  0  0
  193.8820  174.4450  145.1060 C   0  0  2  0  0  0  0  0  0  0  0  0
  194.0760  175.8530  145.0220 O   0  0  0  0  0  0  0  0  0  0  0  0
  194.4540  173.0680  142.1560 C   0  0  2  0  0  3  0  0  0  0  0  0
  190.4020  177.5500  142.5360 C   0  0  0  0  0  1  0  0  0  0  0  0
  191.5780  177.6020  143.5080 C   0  0  0  0  0  2  0  0  0  0  0  0
  194.2570  174.7880  140.4030 N   0  0  0  0  0  0  0  0  0  0  0  0
  194.6370  174.4530  141.5890 C   0  0  0  0  0  3  0  0  0  0  0  0
  193.6340  173.8670  139.4790 C   0  0  2  0  0  3  0  0  0  0  0  0
  195.3750  174.8610  138.0630 N   0  0  0  0  0  2  0  0  0  0  0  0
  194.0170  175.9340  136.0410 S   0  0  0  0  0  0  0  0  0  0  0  0
  195.5900  175.3020  136.6960 C   0  0  0  0  0  2  0  0  0  0  0  0
  194.1120  174.1420  138.0510 C   0  0  2  0  0  3  0  0  0  0  0  0
  193.1040  174.9810  137.2880 C   0  0  0  0  0  2  0  0  0  0  0  0
  192.1890  174.0200  139.5530 N   0  0  0  0  0  2  0  0  0  0  0  0
  191.6340  172.6860  139.7090 C   0  0  0  0  0  2  0  0  0  0  0  0
  190.1900  172.7870  140.1570 C   0  0  0  0  0  2  0  0  0  0  0  0
  188.9830  174.0480  142.0720 C   0  0  1  0  0  3  0  0  0  0  0  0
  189.9800  174.1000  140.9010 C   0  0  2  0  0  3  0  0  0  0  0  0
  188.5500  174.5600  140.7080 C   0  0  0  0  0  2  0  0  0  0  0  0
  188.3990  172.6910  142.3560 C   0  0  0  0  0  0  0  0  0  0  0  0
  187.2520  172.3870  141.9310 O   0  0  0  0  0  0  0  0  0  0  0  0
  189.1050  171.7880  143.1400 O   0  0  0  0  0  1  0  0  0  0  0  0
  190.4820  175.8710  145.0160 C   0  0  0  0  0  2  0  0  0  0  0  0
  189.5650  176.5620  147.1860 O   0  0  0  0  0  0  0  0  0  0  0  0
  188.6940  177.5260  145.2290 O   0  0  0  0  0  0  0  0  0  0  0  0
  189.8570  176.9860  145.8650 C   0  0  2  0  0  3  0  0  0  0  0  0
  187.4060  177.0820  145.5500 C   0  0  0  0  0  0  0  0  0  0  0  0
  187.2790  176.1780  146.5240 C   0  0  0  0  0  3  0  0  0  0  0  0
  188.5180  175.6110  147.1510 C   0  0  0  0  0  2  0  0  0  0  0  0
  184.0050  178.6790  143.4310 C   0  0  0  0  0  3  0  0  0  0  0  0
  185.8910  177.1690  143.5340 C   0  0  0  0  0  0  0  0  0  0  0  0
  185.4000  178.6350  145.4210 C   0  0  0  0  0  0  0  0  0  0  0  0
  186.6450  176.2300  142.9040 F   0  0  0  0  0  0  0  0  0  0  0  0
  184.7960  177.6920  142.8460 C   0  0  0  0  0  3  0  0  0  0  0  0
  184.3060  179.1450  144.7070 C   0  0  0  0  0  3  0  0  0  0  0  0
  186.2170  177.6290  144.8330 C   0  0  0  0  0  0  0  0  0  0  0  0
  185.6540  179.1400  146.7850 C   0  0  0  0  0  3  0  0  0  0  0  0
  185.0570  178.6410  147.8190 N   0  0  0  0  0  2  0  0  0  0  0  0
  1  7  1  6  0  0  0
  1 12  1  0  0  0  0
  2  9  2  0  0  0  0
  3 16  1  6  0  0  0
  3 34  1  0  0  0  0
  3  8  1  0  0  0  0
  4 12  1  0  0  0  0
  4  6  2  0  0  0  0
  9 10  1  0  0  0  0
 10  4  1  0  0  0  0
 11  1  1  0  0  0  0
 11  3  1  0  0  0  0
 12  5  1  1  0  0  0
 13 12  1  0  0  0  0
 13  8  1  0  0  0  0
 14 18  1  1  0  0  0
 14  9  1  0  0  0  0
 14  7  1  0  0  0  0
 15 16  1  0  0  0  0
 17 18  2  0  0  0  0
 19 25  1  6  0  0  0
 19 17  1  0  0  0  0
 21 22  1  0  0  0  0
 21 24  1  0  0  0  0
 22 20  1  0  0  0  0
 23 20  1  0  0  0  0
 23 19  1  1  0  0  0
 24 23  1  0  0  0  0
 25 26  1  0  0  0  0
 26 27  1  0  0  0  0
 28 31  1  6  0  0  0
 29 27  1  6  0  0  0
 29 28  1  0  0  0  0
 30 29  1  0  0  0  0
 30 28  1  0  0  0  0
 31 33  1  0  0  0  0
 32 31  2  0  0  0  0
 36 38  1  0  0  0  0
 36 37  1  0  0  0  0
 37 34  1  6  0  0  0
 37 35  1  0  0  0  0
 38 39  2  0  0  0  0
 39 40  1  0  0  0  0
 40 35  1  0  0  0  0
 41 46  1  0  0  0  0
 42 47  2  0  0  0  0
 43 48  1  0  0  0  0
 44 42  1  0  0  0  0
 45 41  2  0  0  0  0
 45 42  1  0  0  0  0
 46 43  2  0  0  0  0
 47 43  1  0  0  0  0
 47 38  1  0  0  0  0
 48 49  2  0  0  0  0
M  END
>  <MODEL>
3

>  <REMARK>
 VINA RESULT:      -7.4      3.072      5.897
  Name = 
  13 active torsions:
  status: ('A' for Active; 'I' for Inactive)
    1  A    between atoms: N_6  and  C_32
    2  A    between atoms: C_7  and  C_28
    3  A    between atoms: C_7  and  C_45
    4  A    between atoms: C_8  and  C_20
    5  A    between atoms: C_14  and  C_35
    6  A    between atoms: C_16  and  N_42
    7  A    between atoms: C_16  and  C_48
    8  A    between atoms: C_17  and  C_28
    9  A    between atoms: C_22  and  C_48
   10  A    between atoms: C_26  and  C_47
   11  A    between atoms: C_30  and  C_32
   12  A    between atoms: C_31  and  C_49
   13  A    between atoms: C_32  and  N_42
                            x       y       z     vdW  Elec       q    Type
                         _______ _______ _______ _____ _____    ______ ____

>  <TORSDO>
F 13

$$$$
=
 OpenBabel11062418193D

 49 54  0  0  1  0  0  0  0  0999 V2000
  191.5290  173.7320  140.8890 C   0  0  2  0  0  3  0  0  0  0  0  0
  193.9090  170.3350  139.2370 O   0  0  0  0  0  0  0  0  0  0  0  0
  189.8530  174.0620  142.7840 C   0  0  2  0  0  0  0  0  0  0  0  0
  190.9090  171.7900  139.2040 C   0  0  0  0  0  0  0  0  0  0  0  0
  189.6300  173.7480  139.4250 O   0  0  0  0  0  1  0  0  0  0  0  0
  190.0410  170.8730  138.7680 C   0  0  0  0  0  2  0  0  0  0  0  0
  193.0270  173.5980  140.5660 C   0  0  0  0  0  2  0  0  0  0  0  0
  188.9300  173.1780  141.9250 C   0  0  0  0  0  2  0  0  0  0  0  0
  193.2990  171.3720  139.4610 C   0  0  0  0  0  0  0  0  0  0  0  0
  192.2360  171.8280  138.5160 C   0  0  0  0  0  2  0  0  0  0  0  0
  191.3200  173.8450  142.3990 C   0  0  0  0  0  2  0  0  0  0  0  0
  190.4300  172.8690  140.1740 C   0  0  2  0  0  0  0  0  0  0  0  0
  189.6420  172.2190  141.1670 O   0  0  0  0  0  0  0  0  0  0  0  0
  193.6250  172.1860  140.6720 C   0  0  2  0  0  3  0  0  0  0  0  0
  190.4330  172.3910  144.6260 C   0  0  0  0  0  1  0  0  0  0  0  0
  189.6660  173.6570  144.2520 C   0  0  0  0  0  2  0  0  0  0  0  0
  193.9830  171.3960  142.9780 N   0  0  0  0  0  0  0  0  0  0  0  0
  193.2320  171.4550  141.9300 C   0  0  0  0  0  3  0  0  0  0  0  0
  195.2920  172.0040  143.0510 C   0  0  2  0  0  3  0  0  0  0  0  0
  196.5460  170.3670  141.7190 N   0  0  0  0  0  2  0  0  0  0  0  0
  196.8130  168.2840  143.3540 S   0  0  0  0  0  0  0  0  0  0  0  0
  197.3840  169.1930  141.8880 C   0  0  0  0  0  2  0  0  0  0  0  0
  196.3790  170.9270  143.0500 C   0  0  2  0  0  3  0  0  0  0  0  0
  196.0260  169.7910  143.9930 C   0  0  0  0  0  2  0  0  0  0  0  0
  195.3840  172.7960  144.2690 N   0  0  0  0  0  2  0  0  0  0  0  0
  194.6190  174.0090  144.0390 C   0  0  0  0  0  2  0  0  0  0  0  0
  193.7210  174.2750  145.2300 C   0  0  0  0  0  2  0  0  0  0  0  0
  193.3400  176.3930  146.6720 C   0  0  1  0  0  3  0  0  0  0  0  0
  194.3330  175.3710  146.0920 C   0  0  2  0  0  3  0  0  0  0  0  0
  194.1300  176.7100  145.4140 C   0  0  0  0  0  2  0  0  0  0  0  0
  191.8930  176.1300  146.3560 C   0  0  0  0  0  0  0  0  0  0  0  0
  191.3580  176.6400  145.3350 O   0  0  0  0  0  0  0  0  0  0  0  0
  191.1250  175.3670  147.2260 O   0  0  0  0  0  1  0  0  0  0  0  0
  189.4910  175.5350  142.5440 C   0  0  0  0  0  2  0  0  0  0  0  0
  187.8860  176.7170  141.1120 O   0  0  0  0  0  0  0  0  0  0  0  0
  187.2200  176.0790  143.2720 O   0  0  0  0  0  0  0  0  0  0  0  0
  188.0270  175.7480  142.1360 C   0  0  2  0  0  3  0  0  0  0  0  0
  186.9240  177.4070  143.6030 C   0  0  0  0  0  0  0  0  0  0  0  0
  187.3600  178.3690  142.7870 C   0  0  0  0  0  3  0  0  0  0  0  0
  188.2270  177.9920  141.6230 C   0  0  0  0  0  2  0  0  0  0  0  0
  184.6050  178.2550  147.1400 C   0  0  0  0  0  3  0  0  0  0  0  0
  186.5710  177.3050  146.0990 C   0  0  0  0  0  0  0  0  0  0  0  0
  184.8860  178.4180  144.7310 C   0  0  0  0  0  0  0  0  0  0  0  0
  187.7290  176.6120  146.2530 F   0  0  0  0  0  0  0  0  0  0  0  0
  185.8160  177.5740  147.2410 C   0  0  0  0  0  3  0  0  0  0  0  0
  184.1450  178.6730  145.8940 C   0  0  0  0  0  3  0  0  0  0  0  0
  186.1220  177.7210  144.8210 C   0  0  0  0  0  0  0  0  0  0  0  0
  184.3690  178.9150  143.4400 C   0  0  0  0  0  3  0  0  0  0  0  0
  183.7060  178.1520  142.6320 N   0  0  0  0  0  2  0  0  0  0  0  0
  1  7  1  1  0  0  0
  1 11  1  0  0  0  0
  2  9  2  0  0  0  0
  3 34  1  6  0  0  0
  3 16  1  0  0  0  0
  4 12  1  0  0  0  0
  6  4  2  0  0  0  0
  7 14  1  0  0  0  0
  8  3  1  0  0  0  0
  9 14  1  0  0  0  0
 10  4  1  0  0  0  0
 10  9  1  0  0  0  0
 11  3  1  0  0  0  0
 12  5  1  6  0  0  0
 12  1  1  0  0  0  0
 12 13  1  0  0  0  0
 13  8  1  0  0  0  0
 14 18  1  1  0  0  0
 16 15  1  0  0  0  0
 18 17  2  0  0  0  0
 19 17  1  1  0  0  0
 19 25  1  0  0  0  0
 20 22  1  0  0  0  0
 20 23  1  0  0  0  0
 21 24  1  0  0  0  0
 22 21  1  0  0  0  0
 23 19  1  6  0  0  0
 23 24  1  0  0  0  0
 26 25  1  0  0  0  0
 26 27  1  0  0  0  0
 28 31  1  6  0  0  0
 29 27  1  6  0  0  0
 29 28  1  0  0  0  0
 30 29  1  0  0  0  0
 30 28  1  0  0  0  0
 31 33  1  0  0  0  0
 32 31  2  0  0  0  0
 35 40  1  0  0  0  0
 35 37  1  0  0  0  0
 36 38  1  0  0  0  0
 37 34  1  1  0  0  0
 37 36  1  0  0  0  0
 38 47  1  0  0  0  0
 39 38  2  0  0  0  0
 40 39  1  0  0  0  0
 41 45  1  0  0  0  0
 42 44  1  0  0  0  0
 42 45  2  0  0  0  0
 43 47  2  0  0  0  0
 43 46  1  0  0  0  0
 46 41  2  0  0  0  0
 47 42  1  0  0  0  0
 48 43  1  0  0  0  0
 49 48  2  0  0  0  0
M  END
>  <MODEL>
4

>  <REMARK>
 VINA RESULT:      -7.2      1.635      2.009
  Name = 
  13 active torsions:
  status: ('A' for Active; 'I' for Inactive)
    1  A    between atoms: N_6  and  C_32
    2  A    between atoms: C_7  and  C_28
    3  A    between atoms: C_7  and  C_45
    4  A    between atoms: C_8  and  C_20
    5  A    between atoms: C_14  and  C_35
    6  A    between atoms: C_16  and  N_42
    7  A    between atoms: C_16  and  C_48
    8  A    between atoms: C_17  and  C_28
    9  A    between atoms: C_22  and  C_48
   10  A    between atoms: C_26  and  C_47
   11  A    between atoms: C_30  and  C_32
   12  A    between atoms: C_31  and  C_49
   13  A    between atoms: C_32  and  N_42
                            x       y       z     vdW  Elec       q    Type
                         _______ _______ _______ _____ _____    ______ ____

>  <TORSDO>
F 13

$$$$
=
 OpenBabel11062418193D

 49 54  0  0  1  0  0  0  0  0999 V2000
  192.4030  172.9230  141.0830 C   0  0  2  0  0  3  0  0  0  0  0  0
  188.5720  171.9130  143.1400 O   0  0  0  0  0  0  0  0  0  0  0  0
  193.1090  173.6140  138.7300 C   0  0  2  0  0  0  0  0  0  0  0  0
  190.9860  170.6930  141.1910 C   0  0  0  0  0  0  0  0  0  0  0  0
  193.2360  170.7460  140.5180 O   0  0  0  0  0  1  0  0  0  0  0  0
  190.4830  169.6140  140.5860 C   0  0  0  0  0  2  0  0  0  0  0  0
  191.7830  173.4360  142.3940 C   0  0  0  0  0  2  0  0  0  0  0  0
  192.6990  172.1800  138.3460 C   0  0  0  0  0  2  0  0  0  0  0  0
  189.7290  172.0630  142.7710 C   0  0  0  0  0  0  0  0  0  0  0  0
  190.6230  170.8750  142.6310 C   0  0  0  0  0  2  0  0  0  0  0  0
  192.4290  174.0370  140.0360 C   0  0  0  0  0  2  0  0  0  0  0  0
  192.0600  171.5150  140.4810 C   0  0  2  0  0  0  0  0  0  0  0  0
  191.6330  171.6860  139.1330 O   0  0  0  0  0  0  0  0  0  0  0  0
  190.2490  173.4320  142.4710 C   0  0  2  0  0  3  0  0  0  0  0  0
  191.2950  174.1700  137.0220 C   0  0  0  0  0  1  0  0  0  0  0  0
  192.6490  174.5560  137.6110 C   0  0  0  0  0  2  0  0  0  0  0  0
  188.9110  175.1070  141.2560 N   0  0  0  0  0  0  0  0  0  0  0  0
  189.5790  174.0030  141.2470 C   0  0  0  0  0  3  0  0  0  0  0  0
  188.7120  175.9050  142.4450 C   0  0  2  0  0  3  0  0  0  0  0  0
  186.7330  177.2170  141.8230 N   0  0  0  0  0  2  0  0  0  0  0  0
  185.4540  177.5750  144.1290 S   0  0  0  0  0  0  0  0  0  0  0  0
  185.4050  177.5400  142.3140 C   0  0  0  0  0  2  0  0  0  0  0  0
  187.2180  176.1460  142.6780 C   0  0  2  0  0  3  0  0  0  0  0  0
  186.9450  176.5390  144.1180 C   0  0  0  0  0  2  0  0  0  0  0  0
  189.3980  177.1780  142.2860 N   0  0  0  0  0  2  0  0  0  0  0  0
  190.6920  177.0400  142.9320 C   0  0  0  0  0  2  0  0  0  0  0  0
  190.4960  176.7910  144.4140 C   0  0  0  0  0  2  0  0  0  0  0  0
  191.4250  175.0150  146.0540 C   0  0  1  0  0  3  0  0  0  0  0  0
  191.7150  176.0710  144.9730 C   0  0  2  0  0  3  0  0  0  0  0  0
  191.8690  176.4170  146.4400 C   0  0  0  0  0  2  0  0  0  0  0  0
  189.9690  174.7990  146.3640 C   0  0  0  0  0  0  0  0  0  0  0  0
  189.3170  173.8950  145.7750 O   0  0  0  0  0  0  0  0  0  0  0  0
  189.3240  175.6390  147.2620 O   0  0  0  0  0  1  0  0  0  0  0  0
  194.6310  173.6570  138.9290 C   0  0  0  0  0  2  0  0  0  0  0  0
  196.5010  175.2280  139.1820 O   0  0  0  0  0  0  0  0  0  0  0  0
  194.9110  175.0730  140.9030 O   0  0  0  0  0  0  0  0  0  0  0  0
  195.1380  174.9910  139.4920 C   0  0  2  0  0  3  0  0  0  0  0  0
  195.9060  174.7400  141.8310 C   0  0  0  0  0  0  0  0  0  0  0  0
  197.1100  174.4040  141.3640 C   0  0  0  0  0  3  0  0  0  0  0  0
  197.3080  174.2990  139.8810 C   0  0  0  0  0  2  0  0  0  0  0  0
  195.1380  174.9060  146.0720 C   0  0  0  0  0  3  0  0  0  0  0  0
  195.7040  176.0140  143.9990 C   0  0  0  0  0  0  0  0  0  0  0  0
  195.2860  173.6110  144.0200 C   0  0  0  0  0  0  0  0  0  0  0  0
  196.0460  177.1700  143.3720 F   0  0  0  0  0  0  0  0  0  0  0  0
  195.4630  176.0650  145.3720 C   0  0  0  0  0  3  0  0  0  0  0  0
  195.0510  173.6890  145.4000 C   0  0  0  0  0  3  0  0  0  0  0  0
  195.6220  174.7880  143.2940 C   0  0  0  0  0  0  0  0  0  0  0  0
  195.1450  172.3020  143.3510 C   0  0  0  0  0  3  0  0  0  0  0  0
  195.5830  171.2100  143.8900 N   0  0  0  0  0  2  0  0  0  0  0  0
  1 11  1  6  0  0  0
  1  7  1  0  0  0  0
  3 16  1  6  0  0  0
  3 34  1  0  0  0  0
  3 11  1  0  0  0  0
  4 10  1  0  0  0  0
  6  4  2  0  0  0  0
  7 14  1  0  0  0  0
  8  3  1  0  0  0  0
  8 13  1  0  0  0  0
  9  2  2  0  0  0  0
 10  9  1  0  0  0  0
 12  5  1  6  0  0  0
 12  1  1  0  0  0  0
 12  4  1  0  0  0  0
 13 12  1  0  0  0  0
 14 18  1  6  0  0  0
 14  9  1  0  0  0  0
 15 16  1  0  0  0  0
 18 17  2  0  0  0  0
 19 17  1  6  0  0  0
 20 22  1  0  0  0  0
 20 23  1  0  0  0  0
 22 21  1  0  0  0  0
 23 19  1  1  0  0  0
 23 24  1  0  0  0  0
 24 21  1  0  0  0  0
 25 19  1  0  0  0  0
 25 26  1  0  0  0  0
 26 27  1  0  0  0  0
 28 31  1  1  0  0  0
 28 30  1  0  0  0  0
 29 27  1  1  0  0  0
 29 28  1  0  0  0  0
 29 30  1  0  0  0  0
 31 33  1  0  0  0  0
 32 31  2  0  0  0  0
 35 37  1  0  0  0  0
 35 40  1  0  0  0  0
 36 38  1  0  0  0  0
 37 34  1  1  0  0  0
 37 36  1  0  0  0  0
 38 47  1  0  0  0  0
 39 38  2  0  0  0  0
 40 39  1  0  0  0  0
 42 45  1  0  0  0  0
 43 46  2  0  0  0  0
 44 42  1  0  0  0  0
 45 41  2  0  0  0  0
 46 41  1  0  0  0  0
 47 42  2  0  0  0  0
 47 43  1  0  0  0  0
 48 49  2  0  0  0  0
 48 43  1  0  0  0  0
M  END
>  <MODEL>
5

>  <REMARK>
 VINA RESULT:      -6.6      3.789      7.806
  Name = 
  13 active torsions:
  status: ('A' for Active; 'I' for Inactive)
    1  A    between atoms: N_6  and  C_32
    2  A    between atoms: C_7  and  C_28
    3  A    between atoms: C_7  and  C_45
    4  A    between atoms: C_8  and  C_20
    5  A    between atoms: C_14  and  C_35
    6  A    between atoms: C_16  and  N_42
    7  A    between atoms: C_16  and  C_48
    8  A    between atoms: C_17  and  C_28
    9  A    between atoms: C_22  and  C_48
   10  A    between atoms: C_26  and  C_47
   11  A    between atoms: C_30  and  C_32
   12  A    between atoms: C_31  and  C_49
   13  A    between atoms: C_32  and  N_42
                            x       y       z     vdW  Elec       q    Type
                         _______ _______ _______ _____ _____    ______ ____

>  <TORSDO>
F 13

$$$$
=
 OpenBabel11062418193D

 49 54  0  0  1  0  0  0  0  0999 V2000
  192.8580  172.9060  141.1260 C   0  0  2  0  0  3  0  0  0  0  0  0
  189.0500  171.9080  143.2310 O   0  0  0  0  0  0  0  0  0  0  0  0
  193.5180  173.8100  138.8320 C   0  0  2  0  0  0  0  0  0  0  0  0
  191.3040  170.7670  141.0550 C   0  0  0  0  0  0  0  0  0  0  0  0
  193.5260  170.7590  140.2910 O   0  0  0  0  0  1  0  0  0  0  0  0
  190.7100  169.7950  140.3590 C   0  0  0  0  0  2  0  0  0  0  0  0
  192.3230  173.3070  142.5110 C   0  0  0  0  0  2  0  0  0  0  0  0
  193.0010  172.4550  138.3130 C   0  0  0  0  0  2  0  0  0  0  0  0
  190.1990  172.0270  142.8280 C   0  0  0  0  0  0  0  0  0  0  0  0
  191.0080  170.8100  142.5200 C   0  0  0  0  0  2  0  0  0  0  0  0
  192.9170  174.1260  140.2060 C   0  0  0  0  0  2  0  0  0  0  0  0
  192.4020  171.5970  140.3900 C   0  0  2  0  0  0  0  0  0  0  0  0
  191.9360  171.9420  139.0890 O   0  0  0  0  0  0  0  0  0  0  0  0
  190.7950  173.3870  142.6560 C   0  0  2  0  0  3  0  0  0  0  0  0
  193.0300  174.4070  136.3980 C   0  0  0  0  0  1  0  0  0  0  0  0
  193.0790  174.8970  137.8440 C   0  0  0  0  0  2  0  0  0  0  0  0
  189.5830  175.2960  141.6750 N   0  0  0  0  0  0  0  0  0  0  0  0
  190.1190  174.1300  141.5320 C   0  0  0  0  0  3  0  0  0  0  0  0
  189.5530  176.0060  142.9340 C   0  0  2  0  0  3  0  0  0  0  0  0
  187.2170  176.3840  142.2830 N   0  0  0  0  0  2  0  0  0  0  0  0
  186.2820  178.0040  144.1770 S   0  0  0  0  0  0  0  0  0  0  0  0
  185.9490  176.8020  142.8560 C   0  0  0  0  0  2  0  0  0  0  0  0
  188.1090  176.1780  143.4120 C   0  0  2  0  0  3  0  0  0  0  0  0
  187.9770  177.3740  144.3370 C   0  0  0  0  0  2  0  0  0  0  0  0
  190.1740  177.3110  142.7610 N   0  0  0  0  0  2  0  0  0  0  0  0
  191.5650  177.1690  143.1540 C   0  0  0  0  0  2  0  0  0  0  0  0
  191.6480  176.9490  144.6520 C   0  0  0  0  0  2  0  0  0  0  0  0
  192.4410  174.8940  146.0150 C   0  0  1  0  0  3  0  0  0  0  0  0
  192.7680  175.9640  144.9580 C   0  0  2  0  0  3  0  0  0  0  0  0
  193.2140  176.1470  146.3940 C   0  0  0  0  0  2  0  0  0  0  0  0
  191.0370  174.9360  146.5540 C   0  0  0  0  0  0  0  0  0  0  0  0
  190.0970  174.3660  145.9370 O   0  0  0  0  0  0  0  0  0  0  0  0
  190.7640  175.6550  147.7100 O   0  0  0  0  0  1  0  0  0  0  0  0
  195.0460  173.7380  138.9660 C   0  0  0  0  0  2  0  0  0  0  0  0
  196.9340  175.2840  139.2410 O   0  0  0  0  0  0  0  0  0  0  0  0
  195.6860  174.6730  141.1340 O   0  0  0  0  0  0  0  0  0  0  0  0
  195.6500  174.9270  139.7260 C   0  0  2  0  0  3  0  0  0  0  0  0
  196.8340  174.1750  141.7640 C   0  0  0  0  0  0  0  0  0  0  0  0
  197.9320  174.0050  141.0240 C   0  0  0  0  0  3  0  0  0  0  0  0
  197.8540  174.2530  139.5470 C   0  0  0  0  0  2  0  0  0  0  0  0
  196.7650  173.2570  145.9790 C   0  0  0  0  0  3  0  0  0  0  0  0
  197.1210  172.5680  143.6880 C   0  0  0  0  0  0  0  0  0  0  0  0
  196.4940  174.8730  144.1830 C   0  0  0  0  0  0  0  0  0  0  0  0
  197.4170  171.5610  142.8260 F   0  0  0  0  0  0  0  0  0  0  0  0
  197.0910  172.2710  145.0510 C   0  0  0  0  0  3  0  0  0  0  0  0
  196.4690  174.5470  145.5460 C   0  0  0  0  0  3  0  0  0  0  0  0
  196.8230  173.8740  143.2250 C   0  0  0  0  0  0  0  0  0  0  0  0
  196.2070  176.2650  143.7820 C   0  0  0  0  0  3  0  0  0  0  0  0
  197.1300  177.0480  143.3260 N   0  0  0  0  0  2  0  0  0  0  0  0
  1 11  1  6  0  0  0
  1  7  1  0  0  0  0
  3 16  1  6  0  0  0
  3 34  1  0  0  0  0
  3 11  1  0  0  0  0
  4 10  1  0  0  0  0
  6  4  2  0  0  0  0
  7 14  1  0  0  0  0
  8  3  1  0  0  0  0
  8 13  1  0  0  0  0
  9  2  2  0  0  0  0
 10  9  1  0  0  0  0
 12  5  1  6  0  0  0
 12  4  1  0  0  0  0
 12  1  1  0  0  0  0
 13 12  1  0  0  0  0
 14 18  1  6  0  0  0
 14  9  1  0  0  0  0
 15 16  1  0  0  0  0
 18 17  2  0  0  0  0
 19 17  1  6  0  0  0
 20 22  1  0  0  0  0
 20 23  1  0  0  0  0
 21 24  1  0  0  0  0
 22 21  1  0  0  0  0
 23 19  1  6  0  0  0
 23 24  1  0  0  0  0
 25 19  1  0  0  0  0
 25 26  1  0  0  0  0
 26 27  1  0  0  0  0
 28 30  1  0  0  0  0
 28 31  1  1  0  0  0
 29 27  1  1  0  0  0
 29 28  1  0  0  0  0
 29 30  1  0  0  0  0
 31 33  1  0  0  0  0
 32 31  2  0  0  0  0
 35 40  1  0  0  0  0
 35 37  1  0  0  0  0
 36 38  1  0  0  0  0
 37 34  1  6  0  0  0
 37 36  1  0  0  0  0
 38 47  1  0  0  0  0
 39 38  2  0  0  0  0
 40 39  1  0  0  0  0
 42 45  1  0  0  0  0
 43 46  2  0  0  0  0
 44 42  1  0  0  0  0
 45 41  2  0  0  0  0
 46 41  1  0  0  0  0
 47 42  2  0  0  0  0
 47 43  1  0  0  0  0
 48 43  1  0  0  0  0
 49 48  2  0  0  0  0
M  END
>  <MODEL>
6

>  <REMARK>
 VINA RESULT:      -6.5      4.074      8.165
  Name = 
  13 active torsions:
  status: ('A' for Active; 'I' for Inactive)
    1  A    between atoms: N_6  and  C_32
    2  A    between atoms: C_7  and  C_28
    3  A    between atoms: C_7  and  C_45
    4  A    between atoms: C_8  and  C_20
    5  A    between atoms: C_14  and  C_35
    6  A    between atoms: C_16  and  N_42
    7  A    between atoms: C_16  and  C_48
    8  A    between atoms: C_17  and  C_28
    9  A    between atoms: C_22  and  C_48
   10  A    between atoms: C_26  and  C_47
   11  A    between atoms: C_30  and  C_32
   12  A    between atoms: C_31  and  C_49
   13  A    between atoms: C_32  and  N_42
                            x       y       z     vdW  Elec       q    Type
                         _______ _______ _______ _____ _____    ______ ____

>  <TORSDO>
F 13

$$$$
=
 OpenBabel11062418193D

 49 54  0  0  1  0  0  0  0  0999 V2000
  193.0420  174.8390  143.4400 C   0  0  2  0  0  3  0  0  0  0  0  0
  194.1960  177.3910  146.9170 O   0  0  0  0  0  0  0  0  0  0  0  0
  192.1010  172.4910  143.1060 C   0  0  2  0  0  0  0  0  0  0  0  0
  195.2380  174.9400  144.9120 C   0  0  0  0  0  0  0  0  0  0  0  0
  195.1580  173.9060  142.8040 O   0  0  0  0  0  1  0  0  0  0  0  0
  196.2280  174.3130  145.5520 C   0  0  0  0  0  2  0  0  0  0  0  0
  192.6700  176.2850  143.8130 C   0  0  0  0  0  2  0  0  0  0  0  0
  193.4710  172.0270  143.6330 C   0  0  0  0  0  2  0  0  0  0  0  0
  194.0310  176.8500  145.8320 C   0  0  0  0  0  0  0  0  0  0  0  0
  195.2140  176.4310  145.0230 C   0  0  0  0  0  2  0  0  0  0  0  0
  191.8160  173.9320  143.5420 C   0  0  0  0  0  2  0  0  0  0  0  0
  194.3640  174.1530  143.9360 C   0  0  2  0  0  0  0  0  0  0  0  0
  194.0290  172.9240  144.5730 O   0  0  0  0  0  0  0  0  0  0  0  0
  192.6480  176.6190  145.3120 C   0  0  2  0  0  3  0  0  0  0  0  0
  190.0670  172.3100  144.6380 C   0  0  0  0  0  1  0  0  0  0  0  0
  191.0260  171.5760  143.7040 C   0  0  0  0  0  2  0  0  0  0  0  0
  190.6700  175.6780  146.4400 N   0  0  0  0  0  0  0  0  0  0  0  0
  191.9250  175.5960  146.1500 C   0  0  0  0  0  3  0  0  0  0  0  0
  189.8260  176.7700  146.0110 C   0  0  2  0  0  3  0  0  0  0  0  0
  187.3970  176.4330  146.1330 N   0  0  0  0  0  2  0  0  0  0  0  0
  186.5470  178.4580  147.6370 S   0  0  0  0  0  0  0  0  0  0  0  0
  186.2560  176.8000  146.9530 C   0  0  0  0  0  2  0  0  0  0  0  0
  188.5710  176.8460  146.8850 C   0  0  2  0  0  3  0  0  0  0  0  0
  188.3340  178.2600  147.3820 C   0  0  0  0  0  2  0  0  0  0  0  0
  189.4470  176.5640  144.6210 N   0  0  0  0  0  2  0  0  0  0  0  0
  189.5530  177.8540  143.9630 C   0  0  0  0  0  2  0  0  0  0  0  0
  189.0120  177.7490  142.5510 C   0  0  0  0  0  2  0  0  0  0  0  0
  186.8480  176.4250  142.0270 C   0  0  1  0  0  3  0  0  0  0  0  0
  187.4900  177.7040  142.5930 C   0  0  2  0  0  3  0  0  0  0  0  0
  186.9540  177.6790  141.1770 C   0  0  0  0  0  2  0  0  0  0  0  0
  187.8170  175.3710  141.5680 C   0  0  0  0  0  0  0  0  0  0  0  0
  188.1630  175.3030  140.3570 O   0  0  0  0  0  0  0  0  0  0  0  0
  188.2910  174.4290  142.4720 O   0  0  0  0  0  1  0  0  0  0  0  0
  192.1160  172.4330  141.5710 C   0  0  0  0  0  2  0  0  0  0  0  0
  190.4460  170.9450  140.5590 O   0  0  0  0  0  0  0  0  0  0  0  0
  190.5420  173.1830  139.8550 O   0  0  0  0  0  0  0  0  0  0  0  0
  190.7200  172.2790  140.9510 C   0  0  2  0  0  3  0  0  0  0  0  0
  190.7590  172.7860  138.5290 C   0  0  0  0  0  0  0  0  0  0  0  0
  191.0740  171.5090  138.3010 C   0  0  0  0  0  3  0  0  0  0  0  0
  191.2810  170.5940  139.4720 C   0  0  0  0  0  2  0  0  0  0  0  0
  190.3090  175.5760  135.2700 C   0  0  0  0  0  3  0  0  0  0  0  0
  189.3380  174.0290  136.8560 C   0  0  0  0  0  0  0  0  0  0  0  0
  191.7430  174.4370  136.8690 C   0  0  0  0  0  0  0  0  0  0  0  0
  188.2220  173.4020  137.3110 F   0  0  0  0  0  0  0  0  0  0  0  0
  189.1950  174.9260  135.7970 C   0  0  0  0  0  3  0  0  0  0  0  0
  191.5720  175.3310  135.8030 C   0  0  0  0  0  3  0  0  0  0  0  0
  190.6130  173.7650  137.4140 C   0  0  0  0  0  0  0  0  0  0  0  0
  193.0990  174.2420  137.4190 C   0  0  0  0  0  3  0  0  0  0  0  0
  193.8810  175.2400  137.6760 N   0  0  0  0  0  2  0  0  0  0  0  0
  1 11  1  1  0  0  0
  1  7  1  0  0  0  0
  1 12  1  0  0  0  0
  3 34  1  6  0  0  0
  3 11  1  0  0  0  0
  3  8  1  0  0  0  0
  3 16  1  0  0  0  0
  4 10  1  0  0  0  0
  4  6  2  0  0  0  0
  7 14  1  0  0  0  0
  8 13  1  0  0  0  0
  9  2  2  0  0  0  0
 10  9  1  0  0  0  0
 12  5  1  6  0  0  0
 12 13  1  0  0  0  0
 12  4  1  0  0  0  0
 14  9  1  0  0  0  0
 14 18  1  1  0  0  0
 16 15  1  0  0  0  0
 18 17  2  0  0  0  0
 19 25  1  6  0  0  0
 19 17  1  0  0  0  0
 20 23  1  0  0  0  0
 20 22  1  0  0  0  0
 22 21  1  0  0  0  0
 23 19  1  6  0  0  0
 23 24  1  0  0  0  0
 24 21  1  0  0  0  0
 26 25  1  0  0  0  0
 27 26  1  0  0  0  0
 28 31  1  6  0  0  0
 28 29  1  0  0  0  0
 29 27  1  6  0  0  0
 30 28  1  0  0  0  0
 30 29  1  0  0  0  0
 31 33  1  0  0  0  0
 32 31  2  0  0  0  0
 35 37  1  0  0  0  0
 36 37  1  0  0  0  0
 37 34  1  6  0  0  0
 38 36  1  0  0  0  0
 39 38  2  0  0  0  0
 39 40  1  0  0  0  0
 40 35  1  0  0  0  0
 41 45  2  0  0  0  0
 41 46  1  0  0  0  0
 42 44  1  0  0  0  0
 42 47  2  0  0  0  0
 43 47  1  0  0  0  0
 43 48  1  0  0  0  0
 45 42  1  0  0  0  0
 46 43  2  0  0  0  0
 47 38  1  0  0  0  0
 48 49  2  0  0  0  0
M  END
>  <MODEL>
7

>  <REMARK>
 VINA RESULT:      -6.4      3.396      8.360
  Name = 
  13 active torsions:
  status: ('A' for Active; 'I' for Inactive)
    1  A    between atoms: N_6  and  C_32
    2  A    between atoms: C_7  and  C_28
    3  A    between atoms: C_7  and  C_45
    4  A    between atoms: C_8  and  C_20
    5  A    between atoms: C_14  and  C_35
    6  A    between atoms: C_16  and  N_42
    7  A    between atoms: C_16  and  C_48
    8  A    between atoms: C_17  and  C_28
    9  A    between atoms: C_22  and  C_48
   10  A    between atoms: C_26  and  C_47
   11  A    between atoms: C_30  and  C_32
   12  A    between atoms: C_31  and  C_49
   13  A    between atoms: C_32  and  N_42
                            x       y       z     vdW  Elec       q    Type
                         _______ _______ _______ _____ _____    ______ ____

>  <TORSDO>
F 13

$$$$
=
 OpenBabel11062418193D

 49 54  0  0  1  0  0  0  0  0999 V2000
  192.5810  172.7870  140.9510 C   0  0  2  0  0  3  0  0  0  0  0  0
  188.5780  171.9020  142.7210 O   0  0  0  0  0  0  0  0  0  0  0  0
  193.4550  173.7740  138.7670 C   0  0  2  0  0  0  0  0  0  0  0  0
  190.9200  170.7510  140.6450 C   0  0  0  0  0  0  0  0  0  0  0  0
  193.1880  170.6530  140.0400 O   0  0  0  0  0  1  0  0  0  0  0  0
  190.3250  169.8550  139.8530 C   0  0  0  0  0  2  0  0  0  0  0  0
  191.9680  173.1420  142.3170 C   0  0  0  0  0  2  0  0  0  0  0  0
  192.9050  172.4830  138.1340 C   0  0  0  0  0  2  0  0  0  0  0  0
  189.7590  171.9750  142.4080 C   0  0  0  0  0  0  0  0  0  0  0  0
  190.5200  170.7310  142.0860 C   0  0  0  0  0  2  0  0  0  0  0  0
  192.7740  174.0490  140.1110 C   0  0  0  0  0  2  0  0  0  0  0  0
  192.1080  171.5490  140.1090 C   0  0  2  0  0  0  0  0  0  0  0  0
  191.7590  171.9920  138.8020 O   0  0  0  0  0  0  0  0  0  0  0  0
  190.4400  173.3050  142.3580 C   0  0  2  0  0  3  0  0  0  0  0  0
  193.6870  174.7120  136.4040 C   0  0  0  0  0  1  0  0  0  0  0  0
  193.1510  174.9370  137.8150 C   0  0  0  0  0  2  0  0  0  0  0  0
  189.3060  175.2820  141.4230 N   0  0  0  0  0  0  0  0  0  0  0  0
  189.8910  174.1470  141.2360 C   0  0  0  0  0  3  0  0  0  0  0  0
  189.0940  175.8590  142.7310 C   0  0  2  0  0  3  0  0  0  0  0  0
  186.6930  176.2430  143.0640 N   0  0  0  0  0  2  0  0  0  0  0  0
  186.0350  177.9110  141.0970 S   0  0  0  0  0  0  0  0  0  0  0  0
  185.6550  177.2020  142.7260 C   0  0  0  0  0  2  0  0  0  0  0  0
  187.9480  176.8720  142.6850 C   0  0  2  0  0  3  0  0  0  0  0  0
  187.7790  177.4470  141.2910 C   0  0  0  0  0  2  0  0  0  0  0  0
  190.3170  176.5180  143.1660 N   0  0  0  0  0  2  0  0  0  0  0  0
  190.4060  176.3290  144.6040 C   0  0  0  0  0  2  0  0  0  0  0  0
  191.8330  176.5610  145.0580 C   0  0  0  0  0  2  0  0  0  0  0  0
  193.9110  175.2990  145.9530 C   0  0  1  0  0  3  0  0  0  0  0  0
  192.4220  175.2520  145.5680 C   0  0  2  0  0  3  0  0  0  0  0  0
  193.4780  174.7690  144.5960 C   0  0  0  0  0  2  0  0  0  0  0  0
  194.5620  176.6490  145.8290 C   0  0  0  0  0  0  0  0  0  0  0  0
  195.1900  176.9630  144.7830 O   0  0  0  0  0  0  0  0  0  0  0  0
  194.5190  177.5340  146.8980 O   0  0  0  0  0  1  0  0  0  0  0  0
  194.9640  173.6040  139.0030 C   0  0  0  0  0  2  0  0  0  0  0  0
  196.8710  175.1070  139.3650 O   0  0  0  0  0  0  0  0  0  0  0  0
  195.6220  174.3960  141.2220 O   0  0  0  0  0  0  0  0  0  0  0  0
  195.5850  174.7370  139.8320 C   0  0  2  0  0  3  0  0  0  0  0  0
  196.7650  173.8480  141.8160 C   0  0  0  0  0  0  0  0  0  0  0  0
  197.8580  173.7100  141.0630 C   0  0  0  0  0  3  0  0  0  0  0  0
  197.7790  174.0490  139.6040 C   0  0  0  0  0  2  0  0  0  0  0  0
  196.7970  172.7260  145.9810 C   0  0  0  0  0  3  0  0  0  0  0  0
  197.3480  174.2990  144.2290 C   0  0  0  0  0  0  0  0  0  0  0  0
  196.1770  172.2300  143.6830 C   0  0  0  0  0  0  0  0  0  0  0  0
  197.9410  175.4720  143.8860 F   0  0  0  0  0  0  0  0  0  0  0  0
  197.3640  173.9310  145.5750 C   0  0  0  0  0  3  0  0  0  0  0  0
  196.2090  171.8830  145.0420 C   0  0  0  0  0  3  0  0  0  0  0  0
  196.7550  173.4570  143.2560 C   0  0  0  0  0  0  0  0  0  0  0  0
  195.5090  171.3160  142.7350 C   0  0  0  0  0  3  0  0  0  0  0  0
  195.5960  170.0300  142.8510 N   0  0  0  0  0  2  0  0  0  0  0  0
  1 11  1  6  0  0  0
  1  7  1  0  0  0  0
  3 16  1  6  0  0  0
  3 34  1  0  0  0  0
  3 11  1  0  0  0  0
  4 10  1  0  0  0  0
  6  4  2  0  0  0  0
  7 14  1  0  0  0  0
  8  3  1  0  0  0  0
  8 13  1  0  0  0  0
  9  2  2  0  0  0  0
 10  9  1  0  0  0  0
 12  5  1  6  0  0  0
 12  4  1  0  0  0  0
 12  1  1  0  0  0  0
 13 12  1  0  0  0  0
 14 18  1  6  0  0  0
 14  9  1  0  0  0  0
 15 16  1  0  0  0  0
 18 17  2  0  0  0  0
 19 17  1  6  0  0  0
 19 25  1  0  0  0  0
 21 24  1  0  0  0  0
 21 22  1  0  0  0  0
 22 20  1  0  0  0  0
 23 19  1  6  0  0  0
 23 20  1  0  0  0  0
 24 23  1  0  0  0  0
 25 26  1  0  0  0  0
 26 27  1  0  0  0  0
 28 31  1  6  0  0  0
 29 27  1  6  0  0  0
 29 28  1  0  0  0  0
 30 29  1  0  0  0  0
 30 28  1  0  0  0  0
 31 33  1  0  0  0  0
 32 31  2  0  0  0  0
 35 40  1  0  0  0  0
 35 37  1  0  0  0  0
 36 38  1  0  0  0  0
 37 34  1  6  0  0  0
 37 36  1  0  0  0  0
 38 47  1  0  0  0  0
 39 38  2  0  0  0  0
 40 39  1  0  0  0  0
 42 45  2  0  0  0  0
 43 46  1  0  0  0  0
 44 42  1  0  0  0  0
 45 41  1  0  0  0  0
 46 41  2  0  0  0  0
 47 43  2  0  0  0  0
 47 42  1  0  0  0  0
 48 49  2  0  0  0  0
 48 43  1  0  0  0  0
M  END
>  <MODEL>
8

>  <REMARK>
 VINA RESULT:      -6.4      3.828      8.230
  Name = 
  13 active torsions:
  status: ('A' for Active; 'I' for Inactive)
    1  A    between atoms: N_6  and  C_32
    2  A    between atoms: C_7  and  C_28
    3  A    between atoms: C_7  and  C_45
    4  A    between atoms: C_8  and  C_20
    5  A    between atoms: C_14  and  C_35
    6  A    between atoms: C_16  and  N_42
    7  A    between atoms: C_16  and  C_48
    8  A    between atoms: C_17  and  C_28
    9  A    between atoms: C_22  and  C_48
   10  A    between atoms: C_26  and  C_47
   11  A    between atoms: C_30  and  C_32
   12  A    between atoms: C_31  and  C_49
   13  A    between atoms: C_32  and  N_42
                            x       y       z     vdW  Elec       q    Type
                         _______ _______ _______ _____ _____    ______ ____

>  <TORSDO>
F 13

$$$$
=
 OpenBabel11062418193D

 49 54  0  0  1  0  0  0  0  0999 V2000
  192.8880  175.2700  142.7690 C   0  0  2  0  0  3  0  0  0  0  0  0
  191.6740  176.9260  146.7340 O   0  0  0  0  0  0  0  0  0  0  0  0
  192.9220  172.9720  141.6610 C   0  0  2  0  0  0  0  0  0  0  0  0
  194.1350  175.3800  145.1000 C   0  0  0  0  0  0  0  0  0  0  0  0
  195.2500  174.9800  143.0710 O   0  0  0  0  0  1  0  0  0  0  0  0
  194.9080  174.8040  146.0230 C   0  0  0  0  0  2  0  0  0  0  0  0
  191.9810  176.4540  143.1460 C   0  0  0  0  0  2  0  0  0  0  0  0
  194.0200  172.6540  142.6920 C   0  0  0  0  0  2  0  0  0  0  0  0
  192.1440  176.6870  145.6290 C   0  0  0  0  0  0  0  0  0  0  0  0
  193.6220  176.7470  145.4220 C   0  0  0  0  0  2  0  0  0  0  0  0
  192.0640  174.1510  142.1330 C   0  0  0  0  0  2  0  0  0  0  0  0
  194.0240  174.7420  143.7150 C   0  0  2  0  0  0  0  0  0  0  0  0
  193.8410  173.3440  143.9130 O   0  0  0  0  0  0  0  0  0  0  0  0
  191.2400  176.3460  144.4880 C   0  0  2  0  0  3  0  0  0  0  0  0
  190.5390  172.0570  141.6680 C   0  0  0  0  0  1  0  0  0  0  0  0
  192.0250  171.7360  141.5250 C   0  0  0  0  0  2  0  0  0  0  0  0
  189.2990  174.8420  144.6880 N   0  0  0  0  0  0  0  0  0  0  0  0
  190.5780  175.0100  144.7090 C   0  0  0  0  0  3  0  0  0  0  0  0
  188.3600  175.9200  144.4730 C   0  0  2  0  0  3  0  0  0  0  0  0
  188.4400  177.9080  143.0350 N   0  0  0  0  0  2  0  0  0  0  0  0
  187.0670  177.1850  140.8710 S   0  0  0  0  0  0  0  0  0  0  0  0
  188.2900  178.2870  141.6410 C   0  0  0  0  0  2  0  0  0  0  0  0
  188.4850  176.4550  143.0440 C   0  0  2  0  0  3  0  0  0  0  0  0
  187.3540  175.9470  142.1680 C   0  0  0  0  0  2  0  0  0  0  0  0
  188.6330  176.9880  145.4240 N   0  0  0  0  0  2  0  0  0  0  0  0
  187.5780  176.9390  146.4210 C   0  0  0  0  0  2  0  0  0  0  0  0
  186.2360  176.7920  145.7330 C   0  0  0  0  0  2  0  0  0  0  0  0
  184.4220  178.6340  145.9050 C   0  0  1  0  0  3  0  0  0  0  0  0
  185.1580  177.4610  146.5760 C   0  0  2  0  0  3  0  0  0  0  0  0
  185.5690  178.8890  146.8690 C   0  0  0  0  0  2  0  0  0  0  0  0
  184.8300  178.9170  144.4850 C   0  0  0  0  0  0  0  0  0  0  0  0
  185.7080  179.7860  144.2320 O   0  0  0  0  0  1  0  0  0  0  0  0
  184.1940  178.2570  143.4410 O   0  0  0  0  0  0  0  0  0  0  0  0
  193.5880  173.3480  140.3280 C   0  0  0  0  0  2  0  0  0  0  0  0
  191.8320  173.3460  138.6130 O   0  0  0  0  0  0  0  0  0  0  0  0
  193.4490  175.0480  138.5750 O   0  0  0  0  0  0  0  0  0  0  0  0
  192.6800  174.1650  139.3990 C   0  0  2  0  0  3  0  0  0  0  0  0
  193.8280  174.6980  137.2730 C   0  0  0  0  0  0  0  0  0  0  0  0
  193.3910  173.5350  136.7850 C   0  0  0  0  0  3  0  0  0  0  0  0
  192.6120  172.6200  137.6820 C   0  0  0  0  0  2  0  0  0  0  0  0
  196.2380  177.3450  134.8660 C   0  0  0  0  0  3  0  0  0  0  0  0
  194.0670  176.5730  135.6010 C   0  0  0  0  0  0  0  0  0  0  0  0
  196.0920  175.5520  136.5010 C   0  0  0  0  0  0  0  0  0  0  0  0
  192.7170  176.6730  135.4920 F   0  0  0  0  0  0  0  0  0  0  0  0
  194.8480  177.4230  134.8180 C   0  0  0  0  0  3  0  0  0  0  0  0
  196.8530  176.4160  135.7010 C   0  0  0  0  0  3  0  0  0  0  0  0
  194.6710  175.6200  136.4580 C   0  0  0  0  0  0  0  0  0  0  0  0
  196.7960  174.6100  137.3940 C   0  0  0  0  0  3  0  0  0  0  0  0
  197.2730  174.9830  138.5380 N   0  0  0  0  0  2  0  0  0  0  0  0
  1 11  1  1  0  0  0
  1  7  1  0  0  0  0
  1 12  1  0  0  0  0
  3 34  1  6  0  0  0
  3 11  1  0  0  0  0
  3  8  1  0  0  0  0
  4 10  1  0  0  0  0
  4  6  2  0  0  0  0
  7 14  1  0  0  0  0
  8 13  1  0  0  0  0
  9  2  2  0  0  0  0
 10  9  1  0  0  0  0
 12  5  1  6  0  0  0
 12 13  1  0  0  0  0
 12  4  1  0  0  0  0
 14 18  1  1  0  0  0
 14  9  1  0  0  0  0
 16  3  1  0  0  0  0
 16 15  1  0  0  0  0
 17 18  2  0  0  0  0
 19 17  1  6  0  0  0
 19 25  1  0  0  0  0
 20 23  1  0  0  0  0
 21 22  1  0  0  0  0
 21 24  1  0  0  0  0
 22 20  1  0  0  0  0
 23 19  1  1  0  0  0
 24 23  1  0  0  0  0
 25 26  1  0  0  0  0
 27 26  1  0  0  0  0
 28 31  1  6  0  0  0
 28 29  1  0  0  0  0
 28 30  1  0  0  0  0
 29 27  1  6  0  0  0
 29 30  1  0  0  0  0
 32 31  1  0  0  0  0
 33 31  2  0  0  0  0
 35 37  1  0  0  0  0
 36 37  1  0  0  0  0
 37 34  1  6  0  0  0
 38 36  1  0  0  0  0
 39 38  2  0  0  0  0
 39 40  1  0  0  0  0
 40 35  1  0  0  0  0
 41 46  1  0  0  0  0
 42 47  2  0  0  0  0
 43 48  1  0  0  0  0
 44 42  1  0  0  0  0
 45 41  2  0  0  0  0
 45 42  1  0  0  0  0
 46 43  2  0  0  0  0
 47 43  1  0  0  0  0
 47 38  1  0  0  0  0
 48 49  2  0  0  0  0
M  END
>  <MODEL>
9

>  <REMARK>
 VINA RESULT:      -6.4      4.124      9.350
  Name = 
  13 active torsions:
  status: ('A' for Active; 'I' for Inactive)
    1  A    between atoms: N_6  and  C_32
    2  A    between atoms: C_7  and  C_28
    3  A    between atoms: C_7  and  C_45
    4  A    between atoms: C_8  and  C_20
    5  A    between atoms: C_14  and  C_35
    6  A    between atoms: C_16  and  N_42
    7  A    between atoms: C_16  and  C_48
    8  A    between atoms: C_17  and  C_28
    9  A    between atoms: C_22  and  C_48
   10  A    between atoms: C_26  and  C_47
   11  A    between atoms: C_30  and  C_32
   12  A    between atoms: C_31  and  C_49
   13  A    between atoms: C_32  and  N_42
                            x       y       z     vdW  Elec       q    Type
                         _______ _______ _______ _____ _____    ______ ____

>  <TORSDO>
F 13

$$$$
