=
 OpenBabel11062421553D

 37 40  0  0  1  0  0  0  0  0999 V2000
  188.7320  175.2900  146.7680 N   0  0  0  0  0  1  0  0  0  0  0  0
  193.4310  172.6830  143.2100 C   0  0  0  0  0  0  0  0  0  0  0  0
  192.1280  175.2910  147.7180 N   0  0  0  0  0  0  0  0  0  0  0  0
  194.6220  173.3970  143.3680 O   0  0  0  0  0  0  0  0  0  0  0  0
  193.5450  175.1370  145.6420 C   0  0  0  0  0  2  0  0  0  0  0  0
  190.1380  175.1410  146.8680 C   0  0  0  0  0  0  0  0  0  0  0  0
  194.6230  174.8240  143.4220 C   0  0  2  0  0  3  0  0  0  0  0  0
  192.2550  175.1790  146.3850 C   0  0  0  0  0  0  0  0  0  0  0  0
  193.3470  175.3660  144.1130 C   0  0  1  0  0  3  0  0  0  0  0  0
  190.8300  175.2910  148.0150 N   0  0  0  0  0  2  0  0  0  0  0  0
  191.0220  175.0540  145.8080 C   0  0  0  0  0  0  0  0  0  0  0  0
  192.1850  173.3250  143.3480 O   0  0  0  0  0  0  0  0  0  0  0  0
  193.4820  171.4370  142.9960 O   0  0  0  0  0  0  0  0  0  0  0  0
  190.7680  175.0680  144.3290 C   0  0  1  0  0  3  0  0  0  0  0  0
  191.8630  175.3110  142.2400 O   0  0  0  0  0  1  0  0  0  0  0  0
  192.0480  174.7420  143.5000 C   0  0  1  0  0  0  0  0  0  0  0  0
  196.3510  175.5480  141.9480 F   0  0  0  0  0  0  0  0  0  0  0  0
  194.4090  176.6820  141.9140 F   0  0  0  0  0  0  0  0  0  0  0  0
  194.5200  174.6130  141.0350 F   0  0  0  0  0  0  0  0  0  0  0  0
  194.9680  175.4310  142.0560 C   0  0  0  0  0  0  0  0  0  0  0  0
  189.4920  174.2470  143.9720 C   0  0  2  0  0  3  0  0  0  0  0  0
  189.4970  172.0470  144.8540 O   0  0  0  0  0  0  0  0  0  0  0  0
  189.6910  172.7620  143.8840 C   0  0  0  0  0  3  0  0  0  0  0  0
  188.5710  174.8190  142.8770 C   0  0  1  0  0  3  0  0  0  0  0  0
  188.0580  173.6840  141.9960 C   0  0  0  0  0  1  0  0  0  0  0  0
  187.4060  175.6570  143.4460 C   0  0  1  0  0  3  0  0  0  0  0  0
  187.7560  177.1440  143.6620 C   0  0  1  0  0  0  0  0  0  0  0  0
  186.7950  176.7400  142.5280 C   0  0  1  0  0  0  0  0  0  0  0  0
  187.2470  176.6990  141.0590 C   0  0  0  0  0  1  0  0  0  0  0  0
  187.1160  177.7260  144.9130 C   0  0  0  0  0  1  0  0  0  0  0  0
  189.0840  177.7450  143.2240 C   0  0  0  0  0  0  0  0  0  0  0  0
  189.1890  178.2910  142.0130 C   0  0  0  0  0  2  0  0  0  0  0  0
  191.2910  178.4780  143.6690 O   0  0  0  0  0  1  0  0  0  0  0  0
  190.0640  178.1950  144.2610 C   0  0  0  0  0  2  0  0  0  0  0  0
  185.4150  176.9070  142.7620 O   0  0  0  0  0  0  0  0  0  0  0  0
  184.9840  177.9250  141.8990 C   0  0  0  0  0  2  0  0  0  0  0  0
  183.6810  178.2910  142.2300 O   0  0  0  0  0  1  0  0  0  0  0  0
  1  6  1  0  0  0  0
  2 12  1  0  0  0  0
  2  4  1  0  0  0  0
  3 10  1  0  0  0  0
  4  7  1  0  0  0  0
  5  8  1  0  0  0  0
  6 10  1  0  0  0  0
  7 20  1  6  0  0  0
  7  9  1  0  0  0  0
  8  3  2  0  0  0  0
  9  5  1  1  0  0  0
 11  8  1  0  0  0  0
 11  6  2  0  0  0  0
 12 16  1  0  0  0  0
 13  2  2  0  0  0  0
 14 21  1  1  0  0  0
 14 11  1  0  0  0  0
 16 15  1  6  0  0  0
 16  9  1  0  0  0  0
 16 14  1  0  0  0  0
 17 20  1  0  0  0  0
 18 20  1  0  0  0  0
 19 20  1  0  0  0  0
 21 23  1  6  0  0  0
 23 22  2  0  0  0  0
 24 25  1  1  0  0  0
 24 21  1  0  0  0  0
 26 24  1  6  0  0  0
 26 27  1  0  0  0  0
 27 30  1  1  0  0  0
 28 29  1  6  0  0  0
 28 35  1  0  0  0  0
 28 26  1  0  0  0  0
 28 27  1  0  0  0  0
 31 27  1  0  0  0  0
 31 34  1  0  0  0  0
 32 31  2  0  0  0  0
 33 34  1  0  0  0  0
 36 37  1  0  0  0  0
 36 35  1  0  0  0  0
M  END
>  <MODEL>
1

>  <REMARK>
 VINA RESULT:      -6.6      0.000      0.000
  Name = 
  9 active torsions:
  status: ('A' for Active; 'I' for Inactive)
    1  A    between atoms: C_1  and  C_10
    2  A    between atoms: C_1  and  C_26
    3  A    between atoms: C_4  and  C_9
    4  A    between atoms: C_9  and  C_19
    5  A    between atoms: C_12  and  O_28
    6  A    between atoms: C_17  and  O_28
    7  A    between atoms: C_18  and  C_23
    8  A    between atoms: C_19  and  C_24
    9  A    between atoms: C_19  and  C_34
                            x       y       z     vdW  Elec       q    Type
                         _______ _______ _______ _____ _____    ______ ____

>  <TORSDO>
F 9

$$$$
=
 OpenBabel11062421553D

 37 40  0  0  1  0  0  0  0  0999 V2000
  190.2120  175.6020  146.4760 N   0  0  0  0  0  1  0  0  0  0  0  0
  193.0640  171.9700  141.9800 C   0  0  0  0  0  0  0  0  0  0  0  0
  193.6930  175.0570  146.3280 N   0  0  0  0  0  0  0  0  0  0  0  0
  194.3350  172.4680  141.6780 O   0  0  0  0  0  0  0  0  0  0  0  0
  194.3230  174.5170  143.9500 C   0  0  0  0  0  2  0  0  0  0  0  0
  191.5370  175.2110  146.1560 C   0  0  0  0  0  0  0  0  0  0  0  0
  194.5660  173.8720  141.5600 C   0  0  2  0  0  3  0  0  0  0  0  0
  193.3640  174.8370  145.0440 C   0  0  0  0  0  0  0  0  0  0  0  0
  193.6780  174.6770  142.5400 C   0  0  1  0  0  3  0  0  0  0  0  0
  192.5760  175.3080  147.0070 N   0  0  0  0  0  2  0  0  0  0  0  0
  192.0070  174.8980  144.8930 C   0  0  0  0  0  0  0  0  0  0  0  0
  192.0400  172.8330  142.4180 O   0  0  0  0  0  0  0  0  0  0  0  0
  192.8570  170.7240  141.9110 O   0  0  0  0  0  0  0  0  0  0  0  0
  191.2930  174.8610  143.5730 C   0  0  1  0  0  3  0  0  0  0  0  0
  191.6770  174.7680  141.2350 O   0  0  0  0  0  1  0  0  0  0  0  0
  192.1730  174.2580  142.4350 C   0  0  1  0  0  0  0  0  0  0  0  0
  195.8000  174.1280  139.5370 F   0  0  0  0  0  0  0  0  0  0  0  0
  194.2060  175.6500  139.9850 F   0  0  0  0  0  0  0  0  0  0  0  0
  193.6290  173.5620  139.3740 F   0  0  0  0  0  0  0  0  0  0  0  0
  194.5380  174.3170  140.0920 C   0  0  0  0  0  0  0  0  0  0  0  0
  189.8630  174.2610  143.7260 C   0  0  2  0  0  3  0  0  0  0  0  0
  189.6920  172.3020  145.0490 O   0  0  0  0  0  0  0  0  0  0  0  0
  189.8120  172.7750  143.9310 C   0  0  0  0  0  3  0  0  0  0  0  0
  188.7700  174.7990  142.7820 C   0  0  1  0  0  3  0  0  0  0  0  0
  188.1920  173.6490  141.9610 C   0  0  0  0  0  1  0  0  0  0  0  0
  187.6580  175.5700  143.5250 C   0  0  1  0  0  3  0  0  0  0  0  0
  187.9930  177.0560  143.7740 C   0  0  1  0  0  0  0  0  0  0  0  0
  186.9160  176.6760  142.7410 C   0  0  1  0  0  0  0  0  0  0  0  0
  187.1930  176.7200  141.2290 C   0  0  0  0  0  1  0  0  0  0  0  0
  187.4900  177.5580  145.1190 C   0  0  0  0  0  1  0  0  0  0  0  0
  189.2440  177.7190  143.2160 C   0  0  0  0  0  0  0  0  0  0  0  0
  189.2010  178.2910  142.0120 C   0  0  0  0  0  2  0  0  0  0  0  0
  191.5300  178.2660  143.4980 O   0  0  0  0  0  1  0  0  0  0  0  0
  190.3070  178.1910  144.1570 C   0  0  0  0  0  2  0  0  0  0  0  0
  185.5690  176.7870  143.1410 O   0  0  0  0  0  0  0  0  0  0  0  0
  185.0000  177.7980  142.3530 C   0  0  0  0  0  2  0  0  0  0  0  0
  185.1190  179.0210  143.0110 O   0  0  0  0  0  1  0  0  0  0  0  0
  2 12  1  0  0  0  0
  3 10  1  0  0  0  0
  4  2  1  0  0  0  0
  5  8  1  0  0  0  0
  6  1  1  0  0  0  0
  6 10  1  0  0  0  0
  7 20  1  6  0  0  0
  7  4  1  0  0  0  0
  7  9  1  0  0  0  0
  8  3  2  0  0  0  0
  9  5  1  1  0  0  0
 11  8  1  0  0  0  0
 11  6  2  0  0  0  0
 12 16  1  0  0  0  0
 13  2  2  0  0  0  0
 14 21  1  1  0  0  0
 14 11  1  0  0  0  0
 16 15  1  6  0  0  0
 16  9  1  0  0  0  0
 16 14  1  0  0  0  0
 17 20  1  0  0  0  0
 18 20  1  0  0  0  0
 19 20  1  0  0  0  0
 21 23  1  6  0  0  0
 23 22  2  0  0  0  0
 24 25  1  1  0  0  0
 24 21  1  0  0  0  0
 26 24  1  6  0  0  0
 26 27  1  0  0  0  0
 27 30  1  1  0  0  0
 28 29  1  6  0  0  0
 28 35  1  0  0  0  0
 28 26  1  0  0  0  0
 28 27  1  0  0  0  0
 31 27  1  0  0  0  0
 31 34  1  0  0  0  0
 32 31  2  0  0  0  0
 33 34  1  0  0  0  0
 36 37  1  0  0  0  0
 36 35  1  0  0  0  0
M  END
>  <MODEL>
2

>  <REMARK>
 VINA RESULT:      -6.1      1.145      1.376
  Name = 
  9 active torsions:
  status: ('A' for Active; 'I' for Inactive)
    1  A    between atoms: C_1  and  C_10
    2  A    between atoms: C_1  and  C_26
    3  A    between atoms: C_4  and  C_9
    4  A    between atoms: C_9  and  C_19
    5  A    between atoms: C_12  and  O_28
    6  A    between atoms: C_17  and  O_28
    7  A    between atoms: C_18  and  C_23
    8  A    between atoms: C_19  and  C_24
    9  A    between atoms: C_19  and  C_34
                            x       y       z     vdW  Elec       q    Type
                         _______ _______ _______ _____ _____    ______ ____

>  <TORSDO>
F 9

$$$$
=
 OpenBabel11062421553D

 37 40  0  0  1  0  0  0  0  0999 V2000
  192.8070  176.8920  142.3870 N   0  0  0  0  0  1  0  0  0  0  0  0
  196.6410  173.1310  145.9510 C   0  0  0  0  0  0  0  0  0  0  0  0
  195.4270  174.9490  141.0470 N   0  0  0  0  0  0  0  0  0  0  0  0
  197.0350  172.0030  145.2270 O   0  0  0  0  0  0  0  0  0  0  0  0
  195.8550  173.0020  142.5870 C   0  0  0  0  0  2  0  0  0  0  0  0
  193.9000  176.0190  142.1540 C   0  0  0  0  0  0  0  0  0  0  0  0
  196.1110  171.3070  144.3890 C   0  0  2  0  0  3  0  0  0  0  0  0
  195.1750  174.2610  142.1740 C   0  0  1  0  0  3  0  0  0  0  0  0
  195.0950  172.2760  143.7380 C   0  0  1  0  0  3  0  0  0  0  0  0
  194.6300  176.0150  141.0220 N   0  0  0  0  0  0  0  0  0  0  0  0
  194.2330  174.9150  142.9180 C   0  0  0  0  0  0  0  0  0  0  0  0
  195.4070  173.7580  145.6890 O   0  0  0  0  0  0  0  0  0  0  0  0
  197.4310  173.6210  146.8090 O   0  0  0  0  0  0  0  0  0  0  0  0
  193.5920  174.3630  144.1570 C   0  0  1  0  0  3  0  0  0  0  0  0
  193.5330  172.4380  145.5410 O   0  0  0  0  0  1  0  0  0  0  0  0
  194.4260  173.2130  144.8000 C   0  0  1  0  0  0  0  0  0  0  0  0
  196.3600  168.9910  144.8970 F   0  0  0  0  0  0  0  0  0  0  0  0
  194.2720  169.7790  144.6200 F   0  0  0  0  0  0  0  0  0  0  0  0
  195.4410  170.3150  146.4670 F   0  0  0  0  0  0  0  0  0  0  0  0
  195.5240  170.0840  145.1060 C   0  0  0  0  0  0  0  0  0  0  0  0
  193.1480  175.5080  145.1170 C   0  0  2  0  0  3  0  0  0  0  0  0
  194.7480  177.1980  145.5700 O   0  0  0  0  0  0  0  0  0  0  0  0
  194.2530  176.1370  145.9150 C   0  0  0  0  0  3  0  0  0  0  0  0
  191.8460  175.2940  145.9140 C   0  0  1  0  0  3  0  0  0  0  0  0
  192.0130  175.8510  147.3240 C   0  0  0  0  0  1  0  0  0  0  0  0
  190.6070  175.8950  145.2170 C   0  0  1  0  0  3  0  0  0  0  0  0
  189.8420  174.8890  144.3310 C   0  0  1  0  0  0  0  0  0  0  0  0
  189.2210  175.3710  145.6560 C   0  0  1  0  0  0  0  0  0  0  0  0
  189.2120  174.4880  146.9150 C   0  0  0  0  0  1  0  0  0  0  0  0
  189.2930  175.5190  143.0600 C   0  0  0  0  0  1  0  0  0  0  0  0
  190.2060  173.4130  144.2670 C   0  0  0  0  0  0  0  0  0  0  0  0
  189.5820  172.5480  145.0670 C   0  0  0  0  0  2  0  0  0  0  0  0
  191.3470  171.5960  143.2660 O   0  0  0  0  0  1  0  0  0  0  0  0
  190.8260  172.8620  143.0210 C   0  0  0  0  0  2  0  0  0  0  0  0
  188.2340  176.3740  145.5780 O   0  0  0  0  0  0  0  0  0  0  0  0
  187.5470  176.3540  146.8010 C   0  0  0  0  0  2  0  0  0  0  0  0
  186.1780  176.4690  146.5640 O   0  0  0  0  0  1  0  0  0  0  0  0
  2 13  2  0  0  0  0
  3  8  1  0  0  0  0
  4  2  1  0  0  0  0
  6  1  1  0  0  0  0
  6 11  2  0  0  0  0
  7 20  1  1  0  0  0
  7  4  1  0  0  0  0
  8  5  1  1  0  0  0
  8 11  1  0  0  0  0
  9  5  1  6  0  0  0
  9  7  1  0  0  0  0
  9 16  1  0  0  0  0
 10  3  2  0  0  0  0
 10  6  1  0  0  0  0
 11 14  1  0  0  0  0
 12  2  1  0  0  0  0
 14 16  1  0  0  0  0
 14 21  1  1  0  0  0
 16 15  1  1  0  0  0
 16 12  1  0  0  0  0
 17 20  1  0  0  0  0
 18 20  1  0  0  0  0
 20 19  1  0  0  0  0
 21 24  1  0  0  0  0
 21 23  1  1  0  0  0
 22 23  2  0  0  0  0
 24 25  1  1  0  0  0
 26 28  1  0  0  0  0
 26 24  1  1  0  0  0
 27 30  1  6  0  0  0
 27 26  1  0  0  0  0
 27 28  1  0  0  0  0
 28 29  1  1  0  0  0
 31 27  1  0  0  0  0
 31 32  2  0  0  0  0
 34 33  1  0  0  0  0
 34 31  1  0  0  0  0
 35 28  1  0  0  0  0
 35 36  1  0  0  0  0
 37 36  1  0  0  0  0
M  END
>  <MODEL>
3

>  <REMARK>
 VINA RESULT:      -5.9      3.470      5.439
  Name = 
  9 active torsions:
  status: ('A' for Active; 'I' for Inactive)
    1  A    between atoms: C_1  and  C_10
    2  A    between atoms: C_1  and  C_26
    3  A    between atoms: C_4  and  C_9
    4  A    between atoms: C_9  and  C_19
    5  A    between atoms: C_12  and  O_28
    6  A    between atoms: C_17  and  O_28
    7  A    between atoms: C_18  and  C_23
    8  A    between atoms: C_19  and  C_24
    9  A    between atoms: C_19  and  C_34
                            x       y       z     vdW  Elec       q    Type
                         _______ _______ _______ _____ _____    ______ ____

>  <TORSDO>
F 9

$$$$
=
 OpenBabel11062421553D

 37 40  0  0  1  0  0  0  0  0999 V2000
  192.3000  177.5820  144.5870 N   0  0  0  0  0  1  0  0  0  0  0  0
  189.1080  172.3240  142.6630 C   0  0  0  0  0  0  0  0  0  0  0  0
  193.8370  174.8480  142.9750 N   0  0  0  0  0  0  0  0  0  0  0  0
  189.6830  171.7960  141.5040 O   0  0  0  0  0  0  0  0  0  0  0  0
  192.1080  173.6590  141.5820 C   0  0  0  0  0  2  0  0  0  0  0  0
  192.6190  176.3660  143.9320 C   0  0  0  0  0  0  0  0  0  0  0  0
  190.1360  172.6500  140.4520 C   0  0  2  0  0  3  0  0  0  0  0  0
  192.5750  174.7030  142.5360 C   0  0  0  0  0  0  0  0  0  0  0  0
  190.6960  173.9820  141.0050 C   0  0  1  0  0  3  0  0  0  0  0  0
  193.8700  175.8800  143.8140 N   0  0  0  0  0  2  0  0  0  0  0  0
  191.7640  175.6260  143.1350 C   0  0  0  0  0  0  0  0  0  0  0  0
  189.1830  173.7040  142.9370 O   0  0  0  0  0  0  0  0  0  0  0  0
  188.5670  171.5400  143.4950 O   0  0  0  0  0  0  0  0  0  0  0  0
  190.3280  175.8640  142.7700 C   0  0  1  0  0  3  0  0  0  0  0  0
  188.6380  175.1720  141.2580 O   0  0  0  0  0  1  0  0  0  0  0  0
  189.6990  174.6600  142.0040 C   0  0  1  0  0  0  0  0  0  0  0  0
  187.8160  172.6930  139.9040 F   0  0  0  0  0  0  0  0  0  0  0  0
  189.2180  171.7360  138.4280 F   0  0  0  0  0  0  0  0  0  0  0  0
  189.2040  173.9730  138.6810 F   0  0  0  0  0  0  0  0  0  0  0  0
  189.0860  172.7620  139.3380 C   0  0  0  0  0  0  0  0  0  0  0  0
  189.5200  176.4000  143.9900 C   0  0  2  0  0  3  0  0  0  0  0  0
  189.7940  175.1110  145.9610 O   0  0  0  0  0  0  0  0  0  0  0  0
  189.1020  175.3590  144.9860 C   0  0  0  0  0  3  0  0  0  0  0  0
  188.4410  177.4630  143.7070 C   0  0  1  0  0  3  0  0  0  0  0  0
  188.7800  178.2050  142.4180 C   0  0  0  0  0  1  0  0  0  0  0  0
  187.0140  176.8750  143.6560 C   0  0  1  0  0  3  0  0  0  0  0  0
  186.1170  177.3170  144.8320 C   0  0  1  0  0  0  0  0  0  0  0  0
  185.8480  177.8600  143.4160 C   0  0  1  0  0  0  0  0  0  0  0  0
  186.2550  179.2850  143.0040 C   0  0  0  0  0  1  0  0  0  0  0  0
  185.1910  176.2120  145.3170 C   0  0  0  0  0  1  0  0  0  0  0  0
  186.5640  178.3430  145.8620 C   0  0  0  0  0  0  0  0  0  0  0  0
  185.8430  179.4500  146.0420 C   0  0  0  0  0  2  0  0  0  0  0  0
  187.1010  178.5980  148.1550 O   0  0  0  0  0  1  0  0  0  0  0  0
  187.4440  177.9120  146.9940 C   0  0  0  0  0  2  0  0  0  0  0  0
  184.8020  177.2640  142.6840 O   0  0  0  0  0  0  0  0  0  0  0  0
  184.1820  178.2940  141.9600 C   0  0  0  0  0  2  0  0  0  0  0  0
  182.8800  177.9160  141.6390 O   0  0  0  0  0  1  0  0  0  0  0  0
  2 12  1  0  0  0  0
  2 13  2  0  0  0  0
  3 10  1  0  0  0  0
  4  2  1  0  0  0  0
  5  8  1  0  0  0  0
  6  1  1  0  0  0  0
  7 20  1  6  0  0  0
  7  9  1  0  0  0  0
  7  4  1  0  0  0  0
  8  3  2  0  0  0  0
  8 11  1  0  0  0  0
  9  5  1  1  0  0  0
  9 16  1  0  0  0  0
 10  6  1  0  0  0  0
 11  6  2  0  0  0  0
 14 11  1  0  0  0  0
 14 21  1  1  0  0  0
 16 15  1  6  0  0  0
 16 14  1  0  0  0  0
 16 12  1  0  0  0  0
 18 20  1  0  0  0  0
 19 20  1  0  0  0  0
 20 17  1  0  0  0  0
 21 23  1  6  0  0  0
 23 22  2  0  0  0  0
 24 25  1  6  0  0  0
 24 21  1  0  0  0  0
 26 24  1  1  0  0  0
 26 27  1  0  0  0  0
 27 30  1  1  0  0  0
 27 31  1  0  0  0  0
 28 29  1  6  0  0  0
 28 26  1  0  0  0  0
 28 27  1  0  0  0  0
 31 32  2  0  0  0  0
 31 34  1  0  0  0  0
 34 33  1  0  0  0  0
 35 28  1  0  0  0  0
 36 35  1  0  0  0  0
 37 36  1  0  0  0  0
M  END
>  <MODEL>
4

>  <REMARK>
 VINA RESULT:      -5.7      3.121      4.354
  Name = 
  9 active torsions:
  status: ('A' for Active; 'I' for Inactive)
    1  A    between atoms: C_1  and  C_10
    2  A    between atoms: C_1  and  C_26
    3  A    between atoms: C_4  and  C_9
    4  A    between atoms: C_9  and  C_19
    5  A    between atoms: C_12  and  O_28
    6  A    between atoms: C_17  and  O_28
    7  A    between atoms: C_18  and  C_23
    8  A    between atoms: C_19  and  C_24
    9  A    between atoms: C_19  and  C_34
                            x       y       z     vdW  Elec       q    Type
                         _______ _______ _______ _____ _____    ______ ____

>  <TORSDO>
F 9

$$$$
=
 OpenBabel11062421553D

 37 40  0  0  1  0  0  0  0  0999 V2000
  191.4290  172.0270  144.2390 N   0  0  0  0  0  1  0  0  0  0  0  0
  186.8250  176.5130  144.7110 C   0  0  0  0  0  0  0  0  0  0  0  0
  188.4800  172.0070  142.3070 N   0  0  0  0  0  0  0  0  0  0  0  0
  186.2130  176.7220  143.4720 O   0  0  0  0  0  0  0  0  0  0  0  0
  187.6220  174.3680  142.1200 C   0  0  0  0  0  2  0  0  0  0  0  0
  190.1800  172.2910  143.6220 C   0  0  0  0  0  0  0  0  0  0  0  0
  186.9820  176.7660  142.2690 C   0  0  2  0  0  3  0  0  0  0  0  0
  188.5620  173.3150  142.6000 C   0  0  0  0  0  0  0  0  0  0  0  0
  188.1920  175.8020  142.3340 C   0  0  1  0  0  3  0  0  0  0  0  0
  189.4850  171.3800  142.9140 N   0  0  0  0  0  2  0  0  0  0  0  0
  189.6070  173.5380  143.4510 C   0  0  0  0  0  0  0  0  0  0  0  0
  188.1680  176.0950  144.7870 O   0  0  0  0  0  0  0  0  0  0  0  0
  186.1420  176.6480  145.7670 O   0  0  0  0  0  0  0  0  0  0  0  0
  190.0960  174.8960  143.8640 C   0  0  1  0  0  3  0  0  0  0  0  0
  189.7210  177.2110  143.5140 O   0  0  0  0  0  1  0  0  0  0  0  0
  189.0260  176.0090  143.6430 C   0  0  1  0  0  0  0  0  0  0  0  0
  188.5430  178.2620  141.2650 F   0  0  0  0  0  0  0  0  0  0  0  0
  187.2790  179.0510  142.9500 F   0  0  0  0  0  0  0  0  0  0  0  0
  186.3530  178.6590  140.9360 F   0  0  0  0  0  0  0  0  0  0  0  0
  187.2840  178.2130  141.8570 C   0  0  0  0  0  0  0  0  0  0  0  0
  190.7560  174.8490  145.2750 C   0  0  2  0  0  3  0  0  0  0  0  0
  189.3140  174.1530  147.0230 O   0  0  0  0  0  0  0  0  0  0  0  0
  189.8230  175.0880  146.4260 C   0  0  0  0  0  3  0  0  0  0  0  0
  192.1290  175.5300  145.4330 C   0  0  1  0  0  3  0  0  0  0  0  0
  192.1130  176.4330  146.6630 C   0  0  0  0  0  1  0  0  0  0  0  0
  193.2990  174.5240  145.4920 C   0  0  1  0  0  3  0  0  0  0  0  0
  194.0120  174.3200  144.1380 C   0  0  1  0  0  0  0  0  0  0  0  0
  194.7240  175.0790  145.2730 C   0  0  1  0  0  0  0  0  0  0  0  0
  194.8480  176.6120  145.2690 C   0  0  0  0  0  1  0  0  0  0  0  0
  194.4490  172.8810  143.9120 C   0  0  0  0  0  1  0  0  0  0  0  0
  193.6730  175.1400  142.9020 C   0  0  0  0  0  0  0  0  0  0  0  0
  194.4890  176.1230  142.5220 C   0  0  0  0  0  2  0  0  0  0  0  0
  193.2300  174.9110  140.5870 O   0  0  0  0  0  1  0  0  0  0  0  0
  192.7790  174.5540  141.8540 C   0  0  0  0  0  2  0  0  0  0  0  0
  195.6830  174.3690  146.0230 O   0  0  0  0  0  0  0  0  0  0  0  0
  196.9090  174.5310  145.3610 C   0  0  0  0  0  2  0  0  0  0  0  0
  197.6070  173.3250  145.3760 O   0  0  0  0  0  1  0  0  0  0  0  0
  2 12  1  0  0  0  0
  2 13  2  0  0  0  0
  3  8  2  0  0  0  0
  3 10  1  0  0  0  0
  4  2  1  0  0  0  0
  5  8  1  0  0  0  0
  6  1  1  0  0  0  0
  7 20  1  1  0  0  0
  7  9  1  0  0  0  0
  7  4  1  0  0  0  0
  8 11  1  0  0  0  0
  9  5  1  1  0  0  0
  9 16  1  0  0  0  0
 10  6  1  0  0  0  0
 11  6  2  0  0  0  0
 11 14  1  0  0  0  0
 14 21  1  1  0  0  0
 16 15  1  6  0  0  0
 16 14  1  0  0  0  0
 16 12  1  0  0  0  0
 17 20  1  0  0  0  0
 19 20  1  0  0  0  0
 20 18  1  0  0  0  0
 21 24  1  0  0  0  0
 21 23  1  1  0  0  0
 23 22  2  0  0  0  0
 24 25  1  1  0  0  0
 26 24  1  6  0  0  0
 27 30  1  6  0  0  0
 27 28  1  0  0  0  0
 27 26  1  0  0  0  0
 28 29  1  6  0  0  0
 28 26  1  0  0  0  0
 28 35  1  0  0  0  0
 31 27  1  0  0  0  0
 32 31  2  0  0  0  0
 33 34  1  0  0  0  0
 34 31  1  0  0  0  0
 36 37  1  0  0  0  0
 36 35  1  0  0  0  0
M  END
>  <MODEL>
5

>  <REMARK>
 VINA RESULT:      -5.7      3.079      7.187
  Name = 
  9 active torsions:
  status: ('A' for Active; 'I' for Inactive)
    1  A    between atoms: C_1  and  C_10
    2  A    between atoms: C_1  and  C_26
    3  A    between atoms: C_4  and  C_9
    4  A    between atoms: C_9  and  C_19
    5  A    between atoms: C_12  and  O_28
    6  A    between atoms: C_17  and  O_28
    7  A    between atoms: C_18  and  C_23
    8  A    between atoms: C_19  and  C_24
    9  A    between atoms: C_19  and  C_34
                            x       y       z     vdW  Elec       q    Type
                         _______ _______ _______ _____ _____    ______ ____

>  <TORSDO>
F 9

$$$$
=
 OpenBabel11062421553D

 37 40  0  0  1  0  0  0  0  0999 V2000
  191.1700  175.3170  145.9270 N   0  0  0  0  0  1  0  0  0  0  0  0
  191.9020  171.1560  141.0610 C   0  0  0  0  0  0  0  0  0  0  0  0
  194.3000  174.0840  144.8690 N   0  0  0  0  0  0  0  0  0  0  0  0
  193.1080  171.3860  140.3930 O   0  0  0  0  0  0  0  0  0  0  0  0
  194.1230  173.4120  142.4480 C   0  0  0  0  0  2  0  0  0  0  0  0
  192.2520  174.6660  145.2820 C   0  0  0  0  0  0  0  0  0  0  0  0
  193.5600  172.7150  140.1280 C   0  0  2  0  0  3  0  0  0  0  0  0
  193.5880  173.9260  143.7390 C   0  0  0  0  0  0  0  0  0  0  0  0
  193.1520  173.6890  141.2600 C   0  0  1  0  0  3  0  0  0  0  0  0
  193.4870  174.5590  145.8100 N   0  0  0  0  0  2  0  0  0  0  0  0
  192.2810  174.2570  143.9610 C   0  0  0  0  0  0  0  0  0  0  0  0
  191.2260  172.2090  141.7060 O   0  0  0  0  0  0  0  0  0  0  0  0
  191.4500  169.9760  141.1290 O   0  0  0  0  0  0  0  0  0  0  0  0
  191.2330  174.3540  142.8920 C   0  0  1  0  0  3  0  0  0  0  0  0
  190.9210  174.1690  140.5490 O   0  0  0  0  0  1  0  0  0  0  0  0
  191.6270  173.5790  141.5970 C   0  0  1  0  0  0  0  0  0  0  0  0
  194.2100  172.7180  137.8340 F   0  0  0  0  0  0  0  0  0  0  0  0
  193.1020  174.5170  138.6060 F   0  0  0  0  0  0  0  0  0  0  0  0
  192.0140  172.5700  138.2990 F   0  0  0  0  0  0  0  0  0  0  0  0
  193.2060  173.1460  138.6980 C   0  0  0  0  0  0  0  0  0  0  0  0
  189.8160  174.0530  143.4670 C   0  0  2  0  0  3  0  0  0  0  0  0
  189.5850  172.2960  145.0410 O   0  0  0  0  0  0  0  0  0  0  0  0
  189.5770  172.6270  143.8660 C   0  0  0  0  0  3  0  0  0  0  0  0
  188.6150  174.7130  142.7610 C   0  0  1  0  0  3  0  0  0  0  0  0
  187.8150  173.6510  142.0130 C   0  0  0  0  0  1  0  0  0  0  0  0
  187.7160  175.5170  143.7240 C   0  0  1  0  0  3  0  0  0  0  0  0
  188.1640  176.9810  143.9190 C   0  0  1  0  0  0  0  0  0  0  0  0
  186.8830  176.6710  143.1220 C   0  0  1  0  0  0  0  0  0  0  0  0
  186.8480  176.7350  141.5860 C   0  0  0  0  0  1  0  0  0  0  0  0
  187.9690  177.4740  145.3440 C   0  0  0  0  0  1  0  0  0  0  0  0
  189.3050  177.6000  143.1250 C   0  0  0  0  0  0  0  0  0  0  0  0
  189.0350  178.2830  142.0130 C   0  0  0  0  0  2  0  0  0  0  0  0
  191.6590  177.7670  142.9210 O   0  0  0  0  0  1  0  0  0  0  0  0
  190.5990  177.9030  143.8130 C   0  0  0  0  0  2  0  0  0  0  0  0
  185.6530  176.8320  143.7910 O   0  0  0  0  0  0  0  0  0  0  0  0
  184.9540  177.8370  143.1060 C   0  0  0  0  0  2  0  0  0  0  0  0
  185.3330  179.0840  143.6000 O   0  0  0  0  0  1  0  0  0  0  0  0
  2 13  2  0  0  0  0
  2 12  1  0  0  0  0
  3 10  1  0  0  0  0
  4  2  1  0  0  0  0
  5  8  1  0  0  0  0
  6 10  1  0  0  0  0
  6  1  1  0  0  0  0
  7 20  1  6  0  0  0
  7  4  1  0  0  0  0
  7  9  1  0  0  0  0
  8 11  1  0  0  0  0
  8  3  2  0  0  0  0
  9 16  1  0  0  0  0
  9  5  1  1  0  0  0
 11  6  2  0  0  0  0
 14 21  1  1  0  0  0
 14 11  1  0  0  0  0
 16 15  1  6  0  0  0
 16 12  1  0  0  0  0
 16 14  1  0  0  0  0
 17 20  1  0  0  0  0
 18 20  1  0  0  0  0
 19 20  1  0  0  0  0
 21 23  1  6  0  0  0
 23 22  2  0  0  0  0
 24 25  1  1  0  0  0
 24 21  1  0  0  0  0
 26 24  1  6  0  0  0
 26 27  1  0  0  0  0
 27 30  1  1  0  0  0
 28 29  1  6  0  0  0
 28 26  1  0  0  0  0
 28 35  1  0  0  0  0
 28 27  1  0  0  0  0
 31 34  1  0  0  0  0
 31 27  1  0  0  0  0
 32 31  2  0  0  0  0
 33 34  1  0  0  0  0
 36 37  1  0  0  0  0
 36 35  1  0  0  0  0
M  END
>  <MODEL>
6

>  <REMARK>
 VINA RESULT:      -5.7      2.069      2.581
  Name = 
  9 active torsions:
  status: ('A' for Active; 'I' for Inactive)
    1  A    between atoms: C_1  and  C_10
    2  A    between atoms: C_1  and  C_26
    3  A    between atoms: C_4  and  C_9
    4  A    between atoms: C_9  and  C_19
    5  A    between atoms: C_12  and  O_28
    6  A    between atoms: C_17  and  O_28
    7  A    between atoms: C_18  and  C_23
    8  A    between atoms: C_19  and  C_24
    9  A    between atoms: C_19  and  C_34
                            x       y       z     vdW  Elec       q    Type
                         _______ _______ _______ _____ _____    ______ ____

>  <TORSDO>
F 9

$$$$
=
 OpenBabel11062421553D

 37 40  0  0  1  0  0  0  0  0999 V2000
  194.0760  176.0510  143.3730 N   0  0  0  0  0  1  0  0  0  0  0  0
  190.5620  171.2220  140.9510 C   0  0  0  0  0  0  0  0  0  0  0  0
  194.9040  174.3320  140.4080 N   0  0  0  0  0  0  0  0  0  0  0  0
  190.6240  171.2200  139.5550 O   0  0  0  0  0  0  0  0  0  0  0  0
  192.7960  173.3690  139.4200 C   0  0  0  0  0  2  0  0  0  0  0  0
  194.1380  175.1990  142.2420 C   0  0  0  0  0  0  0  0  0  0  0  0
  190.5700  172.4400  138.8140 C   0  0  2  0  0  3  0  0  0  0  0  0
  193.5790  174.1090  140.4490 C   0  0  0  0  0  0  0  0  0  0  0  0
  191.2620  173.5960  139.5760 C   0  0  1  0  0  3  0  0  0  0  0  0
  195.2450  175.0200  141.4950 N   0  0  0  0  0  2  0  0  0  0  0  0
  193.0560  174.6170  141.6050 C   0  0  0  0  0  0  0  0  0  0  0  0
  190.6950  172.4240  141.6740 O   0  0  0  0  0  0  0  0  0  0  0  0
  190.4410  170.1230  141.5650 O   0  0  0  0  0  0  0  0  0  0  0  0
  191.5910  174.6920  141.9180 C   0  0  1  0  0  3  0  0  0  0  0  0
  189.4520  174.2340  141.0020 O   0  0  0  0  0  1  0  0  0  0  0  0
  190.7440  173.7110  141.0500 C   0  0  1  0  0  0  0  0  0  0  0  0
  188.9970  174.0850  138.1070 F   0  0  0  0  0  0  0  0  0  0  0  0
  188.2050  172.2900  139.2070 F   0  0  0  0  0  0  0  0  0  0  0  0
  188.9420  172.0790  137.0910 F   0  0  0  0  0  0  0  0  0  0  0  0
  189.1510  172.7150  138.3010 C   0  0  0  0  0  0  0  0  0  0  0  0
  191.3410  174.6370  143.4550 C   0  0  2  0  0  3  0  0  0  0  0  0
  191.6890  172.6130  144.6380 O   0  0  0  0  0  0  0  0  0  0  0  0
  190.9180  173.3000  143.9870 C   0  0  0  0  0  3  0  0  0  0  0  0
  190.5930  175.8260  144.0890 C   0  0  1  0  0  3  0  0  0  0  0  0
  190.0720  176.7470  142.9890 C   0  0  0  0  0  1  0  0  0  0  0  0
  189.4570  175.3880  145.0380 C   0  0  1  0  0  3  0  0  0  0  0  0
  189.8430  175.4310  146.5310 C   0  0  1  0  0  0  0  0  0  0  0  0
  188.8510  176.4650  145.9660 C   0  0  1  0  0  0  0  0  0  0  0  0
  189.2730  177.9130  145.6680 C   0  0  0  0  0  1  0  0  0  0  0  0
  189.2400  174.2860  147.3310 C   0  0  0  0  0  1  0  0  0  0  0  0
  191.1740  175.9850  147.0180 C   0  0  0  0  0  0  0  0  0  0  0  0
  191.1900  176.8730  148.0130 C   0  0  0  0  0  2  0  0  0  0  0  0
  193.5300  176.0460  146.7900 O   0  0  0  0  0  1  0  0  0  0  0  0
  192.4260  175.2000  146.7850 C   0  0  0  0  0  2  0  0  0  0  0  0
  187.4800  176.2410  146.2020 O   0  0  0  0  0  0  0  0  0  0  0  0
  186.9310  177.4760  146.5770 C   0  0  0  0  0  2  0  0  0  0  0  0
  185.9480  177.2720  147.5420 O   0  0  0  0  0  1  0  0  0  0  0  0
  2 13  2  0  0  0  0
  2 12  1  0  0  0  0
  3  8  2  0  0  0  0
  3 10  1  0  0  0  0
  4  2  1  0  0  0  0
  5  8  1  0  0  0  0
  6  1  1  0  0  0  0
  7 20  1  1  0  0  0
  7  4  1  0  0  0  0
  7  9  1  0  0  0  0
  8 11  1  0  0  0  0
  9  5  1  1  0  0  0
  9 16  1  0  0  0  0
 10  6  1  0  0  0  0
 11 14  1  0  0  0  0
 11  6  2  0  0  0  0
 14 21  1  1  0  0  0
 16 15  1  6  0  0  0
 16 12  1  0  0  0  0
 16 14  1  0  0  0  0
 17 20  1  0  0  0  0
 19 20  1  0  0  0  0
 20 18  1  0  0  0  0
 21 23  1  6  0  0  0
 21 24  1  0  0  0  0
 23 22  2  0  0  0  0
 24 25  1  6  0  0  0
 26 24  1  6  0  0  0
 26 28  1  0  0  0  0
 26 27  1  0  0  0  0
 27 31  1  0  0  0  0
 27 30  1  1  0  0  0
 28 29  1  6  0  0  0
 28 35  1  0  0  0  0
 28 27  1  0  0  0  0
 31 32  2  0  0  0  0
 34 33  1  0  0  0  0
 34 31  1  0  0  0  0
 35 36  1  0  0  0  0
 36 37  1  0  0  0  0
M  END
>  <MODEL>
7

>  <REMARK>
 VINA RESULT:      -5.6      3.714      5.239
  Name = 
  9 active torsions:
  status: ('A' for Active; 'I' for Inactive)
    1  A    between atoms: C_1  and  C_10
    2  A    between atoms: C_1  and  C_26
    3  A    between atoms: C_4  and  C_9
    4  A    between atoms: C_9  and  C_19
    5  A    between atoms: C_12  and  O_28
    6  A    between atoms: C_17  and  O_28
    7  A    between atoms: C_18  and  C_23
    8  A    between atoms: C_19  and  C_24
    9  A    between atoms: C_19  and  C_34
                            x       y       z     vdW  Elec       q    Type
                         _______ _______ _______ _____ _____    ______ ____

>  <TORSDO>
F 9

$$$$
=
 OpenBabel11062421553D

 37 40  0  0  1  0  0  0  0  0999 V2000
  191.4880  173.9320  140.6360 N   0  0  0  0  0  1  0  0  0  0  0  0
  196.9050  173.9320  144.1280 C   0  0  0  0  0  0  0  0  0  0  0  0
  194.2700  171.8850  139.9230 N   0  0  0  0  0  0  0  0  0  0  0  0
  197.4810  172.6590  144.1450 O   0  0  0  0  0  0  0  0  0  0  0  0
  195.5650  171.5160  142.0510 C   0  0  0  0  0  2  0  0  0  0  0  0
  192.7300  173.2480  140.6110 C   0  0  0  0  0  0  0  0  0  0  0  0
  196.6730  171.4880  144.2770 C   0  0  2  0  0  3  0  0  0  0  0  0
  194.4630  172.0990  141.2350 C   0  0  1  0  0  3  0  0  0  0  0  0
  195.3020  171.6630  143.5800 C   0  0  1  0  0  3  0  0  0  0  0  0
  193.1940  172.5710  139.5430 N   0  0  0  0  0  0  0  0  0  0  0  0
  193.5280  172.9760  141.7080 C   0  0  0  0  0  0  0  0  0  0  0  0
  195.5120  174.0890  143.9920 O   0  0  0  0  0  0  0  0  0  0  0  0
  197.6560  174.9490  144.1800 O   0  0  0  0  0  0  0  0  0  0  0  0
  193.3390  173.3240  143.1550 C   0  0  1  0  0  3  0  0  0  0  0  0
  194.1450  172.8150  145.3270 O   0  0  0  0  0  1  0  0  0  0  0  0
  194.5950  172.9900  144.0180 C   0  0  1  0  0  0  0  0  0  0  0  0
  197.6800  170.0930  145.9280 F   0  0  0  0  0  0  0  0  0  0  0  0
  195.4490  170.3690  146.0160 F   0  0  0  0  0  0  0  0  0  0  0  0
  196.8170  172.0580  146.6030 F   0  0  0  0  0  0  0  0  0  0  0  0
  196.6410  170.9990  145.7310 C   0  0  0  0  0  0  0  0  0  0  0  0
  192.7590  174.7610  143.3160 C   0  0  2  0  0  3  0  0  0  0  0  0
  193.7820  176.3420  141.8770 O   0  0  0  0  0  0  0  0  0  0  0  0
  193.7130  175.8750  143.0030 C   0  0  0  0  0  3  0  0  0  0  0  0
  191.8710  175.0270  144.5480 C   0  0  1  0  0  3  0  0  0  0  0  0
  192.5990  175.9600  145.5110 C   0  0  0  0  0  1  0  0  0  0  0  0
  190.4780  175.5800  144.1790 C   0  0  1  0  0  3  0  0  0  0  0  0
  189.4630  174.4890  143.7760 C   0  0  1  0  0  0  0  0  0  0  0  0
  189.3020  175.2280  145.1180 C   0  0  1  0  0  0  0  0  0  0  0  0
  189.6920  174.5740  146.4550 C   0  0  0  0  0  1  0  0  0  0  0  0
  188.5380  174.9280  142.6500 C   0  0  0  0  0  1  0  0  0  0  0  0
  189.7770  173.0030  143.8700 C   0  0  0  0  0  0  0  0  0  0  0  0
  189.6930  172.3880  145.0500 C   0  0  0  0  0  2  0  0  0  0  0  0
  190.6160  171.1400  142.6740 O   0  0  0  0  0  1  0  0  0  0  0  0
  189.6590  172.1490  142.6470 C   0  0  0  0  0  2  0  0  0  0  0  0
  188.3490  176.2640  145.1750 O   0  0  0  0  0  0  0  0  0  0  0  0
  187.8230  176.2540  146.4750 C   0  0  0  0  0  2  0  0  0  0  0  0
  187.8620  177.5440  147.0000 O   0  0  0  0  0  1  0  0  0  0  0  0
  2  4  1  0  0  0  0
  2 13  2  0  0  0  0
  3  8  1  0  0  0  0
  4  7  1  0  0  0  0
  6  1  1  0  0  0  0
  6 11  2  0  0  0  0
  7 20  1  1  0  0  0
  8 11  1  0  0  0  0
  8  5  1  6  0  0  0
  9  5  1  6  0  0  0
  9 16  1  0  0  0  0
  9  7  1  0  0  0  0
 10  3  2  0  0  0  0
 10  6  1  0  0  0  0
 11 14  1  0  0  0  0
 12 16  1  0  0  0  0
 12  2  1  0  0  0  0
 14 21  1  6  0  0  0
 14 16  1  0  0  0  0
 16 15  1  1  0  0  0
 20 17  1  0  0  0  0
 20 18  1  0  0  0  0
 20 19  1  0  0  0  0
 21 23  1  1  0  0  0
 21 24  1  0  0  0  0
 22 23  2  0  0  0  0
 24 25  1  1  0  0  0
 26 24  1  1  0  0  0
 26 28  1  0  0  0  0
 27 30  1  6  0  0  0
 27 31  1  0  0  0  0
 27 26  1  0  0  0  0
 27 28  1  0  0  0  0
 28 35  1  0  0  0  0
 28 29  1  1  0  0  0
 31 32  2  0  0  0  0
 34 33  1  0  0  0  0
 34 31  1  0  0  0  0
 35 36  1  0  0  0  0
 36 37  1  0  0  0  0
M  END
>  <MODEL>
8

>  <REMARK>
 VINA RESULT:      -5.6      3.632      5.595
  Name = 
  9 active torsions:
  status: ('A' for Active; 'I' for Inactive)
    1  A    between atoms: C_1  and  C_10
    2  A    between atoms: C_1  and  C_26
    3  A    between atoms: C_4  and  C_9
    4  A    between atoms: C_9  and  C_19
    5  A    between atoms: C_12  and  O_28
    6  A    between atoms: C_17  and  O_28
    7  A    between atoms: C_18  and  C_23
    8  A    between atoms: C_19  and  C_24
    9  A    between atoms: C_19  and  C_34
                            x       y       z     vdW  Elec       q    Type
                         _______ _______ _______ _____ _____    ______ ____

>  <TORSDO>
F 9

$$$$
=
 OpenBabel11062421553D

 37 40  0  0  1  0  0  0  0  0999 V2000
  192.3960  175.0390  147.0240 N   0  0  0  0  0  1  0  0  0  0  0  0
  188.8540  178.0020  142.5280 C   0  0  0  0  0  0  0  0  0  0  0  0
  190.0770  177.5970  147.7400 N   0  0  0  0  0  0  0  0  0  0  0  0
  187.6080  178.3680  143.0450 O   0  0  0  0  0  0  0  0  0  0  0  0
  188.3310  177.6320  145.9250 C   0  0  0  0  0  2  0  0  0  0  0  0
  191.4110  176.0590  146.9950 C   0  0  0  0  0  0  0  0  0  0  0  0
  186.8830  177.4910  143.9080 C   0  0  2  0  0  3  0  0  0  0  0  0
  189.5730  177.1380  146.5820 C   0  0  0  0  0  0  0  0  0  0  0  0
  187.8350  176.6660  144.8080 C   0  0  1  0  0  3  0  0  0  0  0  0
  191.1920  176.9210  148.0070 N   0  0  0  0  0  2  0  0  0  0  0  0
  190.3990  176.1820  146.0600 C   0  0  0  0  0  0  0  0  0  0  0  0
  189.5390  176.8790  143.0330 O   0  0  0  0  0  0  0  0  0  0  0  0
  189.3890  178.7240  141.6380 O   0  0  0  0  0  0  0  0  0  0  0  0
  190.0770  175.3390  144.8620 C   0  0  1  0  0  3  0  0  0  0  0  0
  188.3710  174.9160  143.2700 O   0  0  0  0  0  1  0  0  0  0  0  0
  188.9600  175.9670  143.9720 C   0  0  1  0  0  0  0  0  0  0  0  0
  185.5670  175.5050  143.8000 F   0  0  0  0  0  0  0  0  0  0  0  0
  186.2600  176.4040  141.8580 F   0  0  0  0  0  0  0  0  0  0  0  0
  184.6420  177.4160  143.0540 F   0  0  0  0  0  0  0  0  0  0  0  0
  185.8230  176.6990  143.1310 C   0  0  0  0  0  0  0  0  0  0  0  0
  191.3750  174.8960  144.1220 C   0  0  2  0  0  3  0  0  0  0  0  0
  192.3270  176.2030  142.3880 O   0  0  0  0  0  0  0  0  0  0  0  0
  191.4940  175.3680  142.7020 C   0  0  0  0  0  3  0  0  0  0  0  0
  191.8500  173.4470  144.3400 C   0  0  1  0  0  3  0  0  0  0  0  0
  190.6420  172.5400  144.5540 C   0  0  0  0  0  1  0  0  0  0  0  0
  192.7460  172.9270  143.1960 C   0  0  1  0  0  3  0  0  0  0  0  0
  194.2260  173.3460  143.3250 C   0  0  1  0  0  0  0  0  0  0  0  0
  193.8220  171.8780  143.5570 C   0  0  1  0  0  0  0  0  0  0  0  0
  193.7210  171.2790  144.9700 C   0  0  0  0  0  1  0  0  0  0  0  0
  194.8690  173.6650  141.9840 C   0  0  0  0  0  1  0  0  0  0  0  0
  194.7650  174.0860  144.5410 C   0  0  0  0  0  0  0  0  0  0  0  0
  195.5550  173.4460  145.4010 C   0  0  0  0  0  2  0  0  0  0  0  0
  196.1750  175.9680  144.2640 O   0  0  0  0  0  1  0  0  0  0  0  0
  194.8620  175.5790  144.5080 C   0  0  0  0  0  2  0  0  0  0  0  0
  194.0460  170.9720  142.5010 O   0  0  0  0  0  0  0  0  0  0  0  0
  194.9730  170.0300  142.9710 C   0  0  0  0  0  2  0  0  0  0  0  0
  196.2630  170.4520  142.6520 O   0  0  0  0  0  1  0  0  0  0  0  0
  2 12  1  0  0  0  0
  2  4  1  0  0  0  0
  3 10  1  0  0  0  0
  4  7  1  0  0  0  0
  5  8  1  0  0  0  0
  6  1  1  0  0  0  0
  6 10  1  0  0  0  0
  7 20  1  6  0  0  0
  7  9  1  0  0  0  0
  8  3  2  0  0  0  0
  9  5  1  1  0  0  0
 11  8  1  0  0  0  0
 11  6  2  0  0  0  0
 12 16  1  0  0  0  0
 13  2  2  0  0  0  0
 14 21  1  6  0  0  0
 14 11  1  0  0  0  0
 16 15  1  6  0  0  0
 16  9  1  0  0  0  0
 16 14  1  0  0  0  0
 18 20  1  0  0  0  0
 19 20  1  0  0  0  0
 20 17  1  0  0  0  0
 21 23  1  6  0  0  0
 21 24  1  0  0  0  0
 22 23  2  0  0  0  0
 24 25  1  6  0  0  0
 26 27  1  0  0  0  0
 26 28  1  0  0  0  0
 26 24  1  1  0  0  0
 27 30  1  6  0  0  0
 27 28  1  0  0  0  0
 27 31  1  0  0  0  0
 28 29  1  1  0  0  0
 31 32  2  0  0  0  0
 33 34  1  0  0  0  0
 34 31  1  0  0  0  0
 35 36  1  0  0  0  0
 35 28  1  0  0  0  0
 37 36  1  0  0  0  0
M  END
>  <MODEL>
9

>  <REMARK>
 VINA RESULT:      -5.4      3.153      7.143
  Name = 
  9 active torsions:
  status: ('A' for Active; 'I' for Inactive)
    1  A    between atoms: C_1  and  C_10
    2  A    between atoms: C_1  and  C_26
    3  A    between atoms: C_4  and  C_9
    4  A    between atoms: C_9  and  C_19
    5  A    between atoms: C_12  and  O_28
    6  A    between atoms: C_17  and  O_28
    7  A    between atoms: C_18  and  C_23
    8  A    between atoms: C_19  and  C_24
    9  A    between atoms: C_19  and  C_34
                            x       y       z     vdW  Elec       q    Type
                         _______ _______ _______ _____ _____    ______ ____

>  <TORSDO>
F 9

$$$$
