=
 OpenBabel11062421433D

 41 45  0  0  1  0  0  0  0  0999 V2000
  189.8500  174.4730  143.4830 C   0  0  1  0  0  3  0  0  0  0  0  0
  191.6840  174.4490  142.2000 N   0  0  0  0  0  0  0  0  0  0  0  0
  191.4160  172.0880  141.8790 N   0  0  0  0  0  2  0  0  0  0  0  0
  191.1850  177.5160  142.6330 O   0  0  0  0  0  0  0  0  0  0  0  0
  191.6180  173.1440  142.8610 C   0  0  2  0  0  3  0  0  0  0  0  0
  190.2820  177.2120  145.5030 C   0  0  0  0  0  1  0  0  0  0  0  0
  189.5680  176.6510  144.2780 C   0  0  2  0  0  0  0  0  0  0  0  0
  189.2350  175.2420  144.5150 N   0  0  0  0  0  2  0  0  0  0  0  0
  190.5650  175.1850  142.6690 C   0  0  2  0  0  3  0  0  0  0  0  0
  190.4150  173.1830  143.6670 N   0  0  2  0  0  0  0  0  0  0  0  0
  190.3970  171.2470  142.3800 N   0  0  0  0  0  2  0  0  0  0  0  0
  190.5050  176.5670  143.1060 C   0  0  0  0  0  0  0  0  0  0  0  0
  189.6470  172.0020  143.3800 C   0  0  0  0  0  2  0  0  0  0  0  0
  186.2180  176.4980  143.2350 C   0  0  0  0  0  2  0  0  0  0  0  0
  188.2900  177.4400  143.9350 C   0  0  2  0  0  3  0  0  0  0  0  0
  187.0260  176.7680  144.4680 C   0  0  1  0  0  3  0  0  0  0  0  0
  186.8240  177.4400  142.2250 C   0  0  1  0  0  3  0  0  0  0  0  0
  188.1820  177.6060  142.5400 O   0  0  0  0  0  0  0  0  0  0  0  0
  186.2660  177.6860  145.4330 C   0  0  0  0  0  0  0  0  0  0  0  0
  184.9600  177.2560  145.5670 F   0  0  0  0  0  0  0  0  0  0  0  0
  186.2570  178.9730  144.9290 F   0  0  0  0  0  0  0  0  0  0  0  0
  186.8640  177.6920  146.6830 F   0  0  0  0  0  0  0  0  0  0  0  0
  186.6660  176.8730  140.8230 C   0  0  0  0  0  2  0  0  0  0  0  0
  185.8360  177.8030  139.9550 C   0  0  0  0  0  2  0  0  0  0  0  0
  185.0040  178.6530  140.7890 N   0  0  0  0  0  2  0  0  0  0  0  0
  182.8290  178.2850  141.7840 C   0  0  0  0  0  1  0  0  0  0  0  0
  183.6260  178.3070  140.4960 C   0  0  0  0  0  2  0  0  0  0  0  0
  192.9160  175.0360  141.6930 C   0  0  0  0  0  2  0  0  0  0  0  0
  194.0740  174.7310  142.6260 C   0  0  0  0  0  2  0  0  0  0  0  0
  194.5970  176.0330  143.2320 C   0  0  1  0  0  3  0  0  0  0  0  0
  193.4480  175.5740  146.6360 C   0  0  0  0  0  2  0  0  0  0  0  0
  193.8110  176.4280  144.4140 N   0  0  0  0  0  0  0  0  0  0  0  0
  194.6660  177.1670  145.3400 C   0  0  0  0  0  2  0  0  0  0  0  0
  193.4420  175.2300  145.1600 C   0  0  0  0  0  2  0  0  0  0  0  0
  194.1440  176.9070  146.7330 C   0  0  0  0  0  2  0  0  0  0  0  0
  196.8840  176.7830  142.9200 O   0  0  0  0  0  1  0  0  0  0  0  0
  196.0850  175.8290  143.5610 C   0  0  2  0  0  3  0  0  0  0  0  0
  196.5460  174.4220  143.2150 C   0  0  0  0  0  2  0  0  0  0  0  0
  197.5680  174.0310  144.0820 O   0  0  0  0  0  0  0  0  0  0  0  0
  197.0150  174.1480  145.3560 C   0  0  0  0  0  2  0  0  0  0  0  0
  196.7760  172.7660  145.9290 C   0  0  0  0  0  1  0  0  0  0  0  0
  1 10  1  0  0  0  0
  1  8  1  1  0  0  0
  2  9  1  0  0  0  0
  2  5  1  0  0  0  0
  3 11  1  0  0  0  0
  4 12  2  0  0  0  0
  5  3  1  6  0  0  0
  5 10  1  0  0  0  0
  7  8  1  0  0  0  0
  7  6  1  1  0  0  0
  9 12  1  1  0  0  0
  9  1  1  0  0  0  0
 10 13  1  6  0  0  0
 11 13  1  0  0  0  0
 12  7  1  0  0  0  0
 14 16  1  0  0  0  0
 15 18  1  6  0  0  0
 15  7  1  0  0  0  0
 15 16  1  0  0  0  0
 16 19  1  1  0  0  0
 17 23  1  6  0  0  0
 17 18  1  0  0  0  0
 17 14  1  0  0  0  0
 19 20  1  0  0  0  0
 19 22  1  0  0  0  0
 21 19  1  0  0  0  0
 24 25  1  0  0  0  0
 24 23  1  0  0  0  0
 27 25  1  0  0  0  0
 27 26  1  0  0  0  0
 28  2  1  0  0  0  0
 28 29  1  0  0  0  0
 30 29  1  1  0  0  0
 30 37  1  0  0  0  0
 30 32  1  0  0  0  0
 31 35  1  0  0  0  0
 32 34  1  0  0  0  0
 32 33  1  0  0  0  0
 33 35  1  0  0  0  0
 34 31  1  0  0  0  0
 37 36  1  6  0  0  0
 38 37  1  0  0  0  0
 38 39  1  0  0  0  0
 39 40  1  0  0  0  0
 40 41  1  0  0  0  0
M  END
>  <MODEL>
1

>  <REMARK>
 VINA RESULT:      -7.0      0.000      0.000
  Name = 
  14 active torsions:
  status: ('A' for Active; 'I' for Inactive)
    1  A    between atoms: C_2  and  C_30
    2  A    between atoms: C_2  and  C_37
    3  A    between atoms: N_3  and  C_35
    4  A    between atoms: C_4  and  O_14
    5  A    between atoms: C_4  and  C_39
    6  A    between atoms: C_9  and  C_16
    7  A    between atoms: C_9  and  C_35
    8  A    between atoms: C_12  and  C_23
    9  A    between atoms: O_14  and  C_15
   10  A    between atoms: C_16  and  N_20
   11  A    between atoms: C_16  and  C_39
   12  A    between atoms: C_18  and  C_19
   13  A    between atoms: C_25  and  N_27
   14  A    between atoms: N_27  and  C_37
                            x       y       z     vdW  Elec       q    Type
                         _______ _______ _______ _____ _____    ______ ____

>  <TORSDO>
F 14

$$$$
=
 OpenBabel11062421433D

 41 45  0  0  1  0  0  0  0  0999 V2000
  190.5450  174.3330  142.2970 C   0  0  1  0  0  3  0  0  0  0  0  0
  188.5030  175.1390  141.8580 N   0  0  0  0  0  0  0  0  0  0  0  0
  188.1340  173.3360  140.3220 N   0  0  0  0  0  2  0  0  0  0  0  0
  189.4350  176.9040  144.2780 O   0  0  0  0  0  0  0  0  0  0  0  0
  188.9690  174.4880  140.6320 C   0  0  2  0  0  3  0  0  0  0  0  0
  192.3110  177.0750  143.3600 C   0  0  0  0  0  1  0  0  0  0  0  0
  191.5840  175.8050  143.7840 C   0  0  2  0  0  0  0  0  0  0  0  0
  191.8160  174.7570  142.7850 N   0  0  0  0  0  2  0  0  0  0  0  0
  189.5550  175.0000  142.8010 C   0  0  2  0  0  3  0  0  0  0  0  0
  190.2800  173.9610  140.9520 N   0  0  2  0  0  0  0  0  0  0  0  0
  189.0030  172.2690  139.9980 N   0  0  0  0  0  2  0  0  0  0  0  0
  190.0950  175.9920  143.7110 C   0  0  0  0  0  0  0  0  0  0  0  0
  190.3150  172.5800  140.5570 C   0  0  0  0  0  2  0  0  0  0  0  0
  193.8610  176.1660  146.4340 C   0  0  0  0  0  2  0  0  0  0  0  0
  192.0320  175.3100  145.1730 C   0  0  2  0  0  3  0  0  0  0  0  0
  192.4280  176.4560  146.1030 C   0  0  1  0  0  3  0  0  0  0  0  0
  193.9930  174.7030  146.0970 C   0  0  1  0  0  3  0  0  0  0  0  0
  193.1100  174.4130  145.0450 O   0  0  0  0  0  0  0  0  0  0  0  0
  191.5650  176.4770  147.3700 C   0  0  0  0  0  0  0  0  0  0  0  0
  192.1670  177.2530  148.3420 F   0  0  0  0  0  0  0  0  0  0  0  0
  191.4320  175.1880  147.8550 F   0  0  0  0  0  0  0  0  0  0  0  0
  190.3070  176.9920  147.1030 F   0  0  0  0  0  0  0  0  0  0  0  0
  195.4250  174.3880  145.6950 C   0  0  0  0  0  2  0  0  0  0  0  0
  195.6500  174.6850  144.2210 C   0  0  0  0  0  2  0  0  0  0  0  0
  196.8530  175.4820  144.0510 N   0  0  0  0  0  2  0  0  0  0  0  0
  195.5940  176.1520  142.0960 C   0  0  0  0  0  1  0  0  0  0  0  0
  196.4920  176.6170  143.2240 C   0  0  0  0  0  2  0  0  0  0  0  0
  187.4930  176.1880  141.8810 C   0  0  0  0  0  2  0  0  0  0  0  0
  186.4440  175.8930  142.9380 C   0  0  0  0  0  2  0  0  0  0  0  0
  185.5810  177.1340  143.1590 C   0  0  1  0  0  3  0  0  0  0  0  0
  184.5040  177.9160  146.5280 C   0  0  0  0  0  2  0  0  0  0  0  0
  185.7900  177.7010  144.5030 N   0  0  0  0  0  0  0  0  0  0  0  0
  186.1900  176.6380  145.4220 C   0  0  0  0  0  2  0  0  0  0  0  0
  184.5070  178.1530  145.0320 C   0  0  0  0  0  2  0  0  0  0  0  0
  185.6870  177.0200  146.7930 C   0  0  0  0  0  2  0  0  0  0  0  0
  186.2440  179.3930  142.5690 O   0  0  0  0  0  1  0  0  0  0  0  0
  185.9140  178.1380  142.0440 C   0  0  2  0  0  3  0  0  0  0  0  0
  184.7750  178.2580  141.0430 C   0  0  0  0  0  2  0  0  0  0  0  0
  183.5590  177.9840  141.6720 O   0  0  0  0  0  0  0  0  0  0  0  0
  182.5890  178.3320  140.7330 C   0  0  0  0  0  2  0  0  0  0  0  0
  181.2170  178.2340  141.3670 C   0  0  0  0  0  1  0  0  0  0  0  0
  1  8  1  6  0  0  0
  1  9  1  0  0  0  0
  2 28  1  0  0  0  0
  2  9  1  0  0  0  0
  5  3  1  1  0  0  0
  5 10  1  0  0  0  0
  5  2  1  0  0  0  0
  7  6  1  6  0  0  0
  7 15  1  0  0  0  0
  8  7  1  0  0  0  0
  9 12  1  6  0  0  0
 10 13  1  1  0  0  0
 10  1  1  0  0  0  0
 11  3  1  0  0  0  0
 11 13  1  0  0  0  0
 12  7  1  0  0  0  0
 12  4  2  0  0  0  0
 15 18  1  6  0  0  0
 15 16  1  0  0  0  0
 16 14  1  0  0  0  0
 16 19  1  1  0  0  0
 17 23  1  6  0  0  0
 17 14  1  0  0  0  0
 18 17  1  0  0  0  0
 19 21  1  0  0  0  0
 19 20  1  0  0  0  0
 22 19  1  0  0  0  0
 24 23  1  0  0  0  0
 25 24  1  0  0  0  0
 26 27  1  0  0  0  0
 27 25  1  0  0  0  0
 28 29  1  0  0  0  0
 30 29  1  6  0  0  0
 30 32  1  0  0  0  0
 31 35  1  0  0  0  0
 32 34  1  0  0  0  0
 32 33  1  0  0  0  0
 33 35  1  0  0  0  0
 34 31  1  0  0  0  0
 37 36  1  1  0  0  0
 37 30  1  0  0  0  0
 38 39  1  0  0  0  0
 38 37  1  0  0  0  0
 40 41  1  0  0  0  0
 40 39  1  0  0  0  0
M  END
>  <MODEL>
2

>  <REMARK>
 VINA RESULT:      -6.9      2.464      8.450
  Name = 
  14 active torsions:
  status: ('A' for Active; 'I' for Inactive)
    1  A    between atoms: C_2  and  C_30
    2  A    between atoms: C_2  and  C_37
    3  A    between atoms: N_3  and  C_35
    4  A    between atoms: C_4  and  O_14
    5  A    between atoms: C_4  and  C_39
    6  A    between atoms: C_9  and  C_16
    7  A    between atoms: C_9  and  C_35
    8  A    between atoms: C_12  and  C_23
    9  A    between atoms: O_14  and  C_15
   10  A    between atoms: C_16  and  N_20
   11  A    between atoms: C_16  and  C_39
   12  A    between atoms: C_18  and  C_19
   13  A    between atoms: C_25  and  N_27
   14  A    between atoms: N_27  and  C_37
                            x       y       z     vdW  Elec       q    Type
                         _______ _______ _______ _____ _____    ______ ____

>  <TORSDO>
F 14

$$$$
=
 OpenBabel11062421433D

 41 45  0  0  1  0  0  0  0  0999 V2000
  188.5660  175.5630  143.5730 C   0  0  1  0  0  3  0  0  0  0  0  0
  190.5610  175.8900  142.6120 N   0  0  0  0  0  0  0  0  0  0  0  0
  190.0390  174.2160  140.9790 N   0  0  0  0  0  2  0  0  0  0  0  0
  190.4090  178.2260  144.7010 O   0  0  0  0  0  0  0  0  0  0  0  0
  190.2200  174.4830  142.3990 C   0  0  2  0  0  3  0  0  0  0  0  0
  189.0290  176.5680  146.8200 C   0  0  0  0  0  1  0  0  0  0  0  0
  188.4510  176.9370  145.4590 C   0  0  2  0  0  0  0  0  0  0  0  0
  187.9020  175.7340  144.8230 N   0  0  0  0  0  2  0  0  0  0  0  0
  189.4890  176.4470  143.3570 C   0  0  2  0  0  3  0  0  0  0  0  0
  188.9200  174.3060  143.0130 N   0  0  2  0  0  0  0  0  0  0  0  0
  188.8520  173.4610  140.8480 N   0  0  0  0  0  2  0  0  0  0  0  0
  189.5430  177.3330  144.5050 C   0  0  0  0  0  0  0  0  0  0  0  0
  188.0590  173.6650  142.0570 C   0  0  0  0  0  2  0  0  0  0  0  0
  185.0600  177.7330  145.0150 C   0  0  0  0  0  2  0  0  0  0  0  0
  187.3590  178.0190  145.5600 C   0  0  2  0  0  3  0  0  0  0  0  0
  186.0440  177.4730  146.1150 C   0  0  1  0  0  3  0  0  0  0  0  0
  185.7460  178.7940  144.1940 C   0  0  1  0  0  3  0  0  0  0  0  0
  187.1320  178.6000  144.2970 O   0  0  0  0  0  0  0  0  0  0  0  0
  185.6340  178.1980  147.4030 C   0  0  0  0  0  0  0  0  0  0  0  0
  185.9780  177.4370  148.5040 F   0  0  0  0  0  0  0  0  0  0  0  0
  184.2640  178.3850  147.4070 F   0  0  0  0  0  0  0  0  0  0  0  0
  186.2600  179.4290  147.4980 F   0  0  0  0  0  0  0  0  0  0  0  0
  185.3000  178.7000  142.7440 C   0  0  0  0  0  2  0  0  0  0  0  0
  185.5340  177.3020  142.1960 C   0  0  0  0  0  2  0  0  0  0  0  0
  186.6040  177.3240  141.2130 N   0  0  0  0  0  2  0  0  0  0  0  0
  186.5680  176.8410  138.8420 C   0  0  0  0  0  1  0  0  0  0  0  0
  186.0040  177.7070  139.9490 C   0  0  0  0  0  2  0  0  0  0  0  0
  191.9250  176.4010  142.6040 C   0  0  0  0  0  2  0  0  0  0  0  0
  192.9060  175.3050  142.9790 C   0  0  0  0  0  2  0  0  0  0  0  0
  194.1220  175.9230  143.6680 C   0  0  1  0  0  3  0  0  0  0  0  0
  192.7820  176.4060  146.9990 C   0  0  0  0  0  2  0  0  0  0  0  0
  194.0990  175.6740  145.1210 N   0  0  0  0  0  0  0  0  0  0  0  0
  193.1080  174.6440  145.4220 C   0  0  0  0  0  2  0  0  0  0  0  0
  193.5860  176.8600  145.7970 C   0  0  0  0  0  2  0  0  0  0  0  0
  192.5790  174.9260  146.8070 C   0  0  0  0  0  2  0  0  0  0  0  0
  195.1640  174.0440  142.5400 O   0  0  0  0  0  1  0  0  0  0  0  0
  195.3800  175.3490  142.9970 C   0  0  2  0  0  3  0  0  0  0  0  0
  196.5820  175.3990  143.9290 C   0  0  0  0  0  2  0  0  0  0  0  0
  197.1300  174.1220  144.0650 O   0  0  0  0  0  0  0  0  0  0  0  0
  197.2740  173.9440  145.4400 C   0  0  0  0  0  2  0  0  0  0  0  0
  196.4930  172.7200  145.8720 C   0  0  0  0  0  1  0  0  0  0  0  0
  1  8  1  1  0  0  0
  2  9  1  0  0  0  0
  5  3  1  6  0  0  0
  5  2  1  0  0  0  0
  5 10  1  0  0  0  0
  7 15  1  0  0  0  0
  7  6  1  1  0  0  0
  8  7  1  0  0  0  0
  9  1  1  0  0  0  0
  9 12  1  1  0  0  0
 10 13  1  6  0  0  0
 10  1  1  0  0  0  0
 11  3  1  0  0  0  0
 11 13  1  0  0  0  0
 12  4  2  0  0  0  0
 12  7  1  0  0  0  0
 14 16  1  0  0  0  0
 15 18  1  6  0  0  0
 15 16  1  0  0  0  0
 16 19  1  1  0  0  0
 17 23  1  6  0  0  0
 17 18  1  0  0  0  0
 17 14  1  0  0  0  0
 19 21  1  0  0  0  0
 19 22  1  0  0  0  0
 19 20  1  0  0  0  0
 24 23  1  0  0  0  0
 25 24  1  0  0  0  0
 26 27  1  0  0  0  0
 27 25  1  0  0  0  0
 28  2  1  0  0  0  0
 28 29  1  0  0  0  0
 30 29  1  6  0  0  0
 30 32  1  0  0  0  0
 32 33  1  0  0  0  0
 32 34  1  0  0  0  0
 33 35  1  0  0  0  0
 34 31  1  0  0  0  0
 35 31  1  0  0  0  0
 37 36  1  1  0  0  0
 37 30  1  0  0  0  0
 37 38  1  0  0  0  0
 38 39  1  0  0  0  0
 39 40  1  0  0  0  0
 40 41  1  0  0  0  0
M  END
>  <MODEL>
3

>  <REMARK>
 VINA RESULT:      -6.9      1.702      2.228
  Name = 
  14 active torsions:
  status: ('A' for Active; 'I' for Inactive)
    1  A    between atoms: C_2  and  C_30
    2  A    between atoms: C_2  and  C_37
    3  A    between atoms: N_3  and  C_35
    4  A    between atoms: C_4  and  O_14
    5  A    between atoms: C_4  and  C_39
    6  A    between atoms: C_9  and  C_16
    7  A    between atoms: C_9  and  C_35
    8  A    between atoms: C_12  and  C_23
    9  A    between atoms: O_14  and  C_15
   10  A    between atoms: C_16  and  N_20
   11  A    between atoms: C_16  and  C_39
   12  A    between atoms: C_18  and  C_19
   13  A    between atoms: C_25  and  N_27
   14  A    between atoms: N_27  and  C_37
                            x       y       z     vdW  Elec       q    Type
                         _______ _______ _______ _____ _____    ______ ____

>  <TORSDO>
F 14

$$$$
=
 OpenBabel11062421433D

 41 45  0  0  1  0  0  0  0  0999 V2000
  188.2360  175.8310  143.2510 C   0  0  1  0  0  3  0  0  0  0  0  0
  190.3210  176.1110  142.4860 N   0  0  0  0  0  0  0  0  0  0  0  0
  189.8300  174.6570  140.6450 N   0  0  0  0  0  2  0  0  0  0  0  0
  190.1440  178.2230  144.8000 O   0  0  0  0  0  0  0  0  0  0  0  0
  189.9090  174.7620  142.0950 C   0  0  2  0  0  3  0  0  0  0  0  0
  188.4910  176.4570  146.6140 C   0  0  0  0  0  1  0  0  0  0  0  0
  188.0530  177.0060  145.2610 C   0  0  2  0  0  0  0  0  0  0  0  0
  187.4830  175.9180  144.4590 N   0  0  0  0  0  2  0  0  0  0  0  0
  189.2280  176.6640  143.2040 C   0  0  2  0  0  3  0  0  0  0  0  0
  188.5540  174.6170  142.5860 N   0  0  2  0  0  0  0  0  0  0  0  0
  188.6120  174.0070  140.3430 N   0  0  0  0  0  2  0  0  0  0  0  0
  189.2430  177.4190  144.4420 C   0  0  0  0  0  0  0  0  0  0  0  0
  187.7360  174.1420  141.5030 C   0  0  0  0  0  2  0  0  0  0  0  0
  184.6590  177.9090  145.3290 C   0  0  0  0  0  2  0  0  0  0  0  0
  187.0270  178.1480  145.3980 C   0  0  2  0  0  3  0  0  0  0  0  0
  185.8260  177.7560  146.2570 C   0  0  1  0  0  3  0  0  0  0  0  0
  185.2070  178.8060  144.2480 C   0  0  1  0  0  3  0  0  0  0  0  0
  186.5820  178.5560  144.1250 O   0  0  0  0  0  0  0  0  0  0  0  0
  185.6830  178.6770  147.4760 C   0  0  0  0  0  0  0  0  0  0  0  0
  185.9010  179.9900  147.1060 F   0  0  0  0  0  0  0  0  0  0  0  0
  186.6230  178.3250  148.4270 F   0  0  0  0  0  0  0  0  0  0  0  0
  184.4180  178.5730  148.0280 F   0  0  0  0  0  0  0  0  0  0  0  0
  184.4940  178.5310  142.9330 C   0  0  0  0  0  2  0  0  0  0  0  0
  185.2850  177.5470  142.0850 C   0  0  0  0  0  2  0  0  0  0  0  0
  185.5780  178.1310  140.7880 N   0  0  0  0  0  2  0  0  0  0  0  0
  186.7140  176.9520  139.0060 C   0  0  0  0  0  1  0  0  0  0  0  0
  186.8600  177.5980  140.3680 C   0  0  0  0  0  2  0  0  0  0  0  0
  191.7100  176.5200  142.6370 C   0  0  0  0  0  2  0  0  0  0  0  0
  192.5600  175.3550  143.1100 C   0  0  0  0  0  2  0  0  0  0  0  0
  192.5490  175.3040  144.6370 C   0  0  1  0  0  3  0  0  0  0  0  0
  190.2110  172.5590  144.9860 C   0  0  0  0  0  2  0  0  0  0  0  0
  192.1570  173.9700  145.1280 N   0  0  0  0  0  0  0  0  0  0  0  0
  192.3770  172.9820  144.0750 C   0  0  0  0  0  2  0  0  0  0  0  0
  190.7130  173.9470  145.3320 C   0  0  0  0  0  2  0  0  0  0  0  0
  191.3540  171.8890  144.2690 C   0  0  0  0  0  2  0  0  0  0  0  0
  193.9530  177.0370  145.5930 O   0  0  0  0  0  1  0  0  0  0  0  0
  193.9460  175.7180  145.1270 C   0  0  2  0  0  3  0  0  0  0  0  0
  194.9970  175.5250  144.0440 C   0  0  0  0  0  2  0  0  0  0  0  0
  195.7790  176.6770  143.9320 O   0  0  0  0  0  0  0  0  0  0  0  0
  196.6190  176.4280  142.8470 C   0  0  0  0  0  2  0  0  0  0  0  0
  195.8490  176.6260  141.5580 C   0  0  0  0  0  1  0  0  0  0  0  0
  1  8  1  1  0  0  0
  2 28  1  0  0  0  0
  2  9  1  0  0  0  0
  5  3  1  6  0  0  0
  5  2  1  0  0  0  0
  5 10  1  0  0  0  0
  7 15  1  0  0  0  0
  7  6  1  1  0  0  0
  8  7  1  0  0  0  0
  9  1  1  0  0  0  0
  9 12  1  1  0  0  0
 10 13  1  6  0  0  0
 10  1  1  0  0  0  0
 11  3  1  0  0  0  0
 11 13  1  0  0  0  0
 12  4  2  0  0  0  0
 12  7  1  0  0  0  0
 14 16  1  0  0  0  0
 15 18  1  6  0  0  0
 15 16  1  0  0  0  0
 16 19  1  1  0  0  0
 17 23  1  6  0  0  0
 17 14  1  0  0  0  0
 18 17  1  0  0  0  0
 19 22  1  0  0  0  0
 19 21  1  0  0  0  0
 20 19  1  0  0  0  0
 24 23  1  0  0  0  0
 25 24  1  0  0  0  0
 26 27  1  0  0  0  0
 27 25  1  0  0  0  0
 28 29  1  0  0  0  0
 30 29  1  6  0  0  0
 30 37  1  0  0  0  0
 30 32  1  0  0  0  0
 31 34  1  0  0  0  0
 32 34  1  0  0  0  0
 33 35  1  0  0  0  0
 33 32  1  0  0  0  0
 35 31  1  0  0  0  0
 37 36  1  6  0  0  0
 38 37  1  0  0  0  0
 39 38  1  0  0  0  0
 40 39  1  0  0  0  0
 41 40  1  0  0  0  0
M  END
>  <MODEL>
4

>  <REMARK>
 VINA RESULT:      -6.7      2.031      3.169
  Name = 
  14 active torsions:
  status: ('A' for Active; 'I' for Inactive)
    1  A    between atoms: C_2  and  C_30
    2  A    between atoms: C_2  and  C_37
    3  A    between atoms: N_3  and  C_35
    4  A    between atoms: C_4  and  O_14
    5  A    between atoms: C_4  and  C_39
    6  A    between atoms: C_9  and  C_16
    7  A    between atoms: C_9  and  C_35
    8  A    between atoms: C_12  and  C_23
    9  A    between atoms: O_14  and  C_15
   10  A    between atoms: C_16  and  N_20
   11  A    between atoms: C_16  and  C_39
   12  A    between atoms: C_18  and  C_19
   13  A    between atoms: C_25  and  N_27
   14  A    between atoms: N_27  and  C_37
                            x       y       z     vdW  Elec       q    Type
                         _______ _______ _______ _____ _____    ______ ____

>  <TORSDO>
F 14

$$$$
=
 OpenBabel11062421433D

 41 45  0  0  1  0  0  0  0  0999 V2000
  189.7200  175.0090  144.7880 C   0  0  1  0  0  3  0  0  0  0  0  0
  191.5760  175.3530  143.5860 N   0  0  0  0  0  0  0  0  0  0  0  0
  191.6430  173.0200  143.0410 N   0  0  0  0  0  2  0  0  0  0  0  0
  190.6500  178.2710  144.2740 O   0  0  0  0  0  0  0  0  0  0  0  0
  191.6710  173.9950  144.1220 C   0  0  2  0  0  3  0  0  0  0  0  0
  189.7150  177.5760  147.0640 C   0  0  0  0  0  1  0  0  0  0  0  0
  189.1200  177.0450  145.7650 C   0  0  2  0  0  0  0  0  0  0  0  0
  188.9760  175.5880  145.8590 N   0  0  0  0  0  2  0  0  0  0  0  0
  190.3540  175.8850  144.0730 C   0  0  2  0  0  3  0  0  0  0  0  0
  190.4510  173.7950  144.8780 N   0  0  2  0  0  0  0  0  0  0  0  0
  190.7350  172.0060  143.4210 N   0  0  0  0  0  2  0  0  0  0  0  0
  190.0930  177.1990  144.6300 C   0  0  0  0  0  0  0  0  0  0  0  0
  189.8610  172.5550  144.4520 C   0  0  0  0  0  2  0  0  0  0  0  0
  185.8860  176.5670  144.4820 C   0  0  0  0  0  2  0  0  0  0  0  0
  187.7570  177.6840  145.4410 C   0  0  2  0  0  3  0  0  0  0  0  0
  186.5830  176.7720  145.7930 C   0  0  1  0  0  3  0  0  0  0  0  0
  186.3920  177.7180  143.6500 C   0  0  1  0  0  3  0  0  0  0  0  0
  187.6930  178.0280  144.0770 O   0  0  0  0  0  0  0  0  0  0  0  0
  185.6480  177.4270  146.8170 C   0  0  0  0  0  0  0  0  0  0  0  0
  185.7870  178.8010  146.7730 F   0  0  0  0  0  0  0  0  0  0  0  0
  185.9800  176.9910  148.0860 F   0  0  0  0  0  0  0  0  0  0  0  0
  184.3260  177.1040  146.5570 F   0  0  0  0  0  0  0  0  0  0  0  0
  186.3890  177.3370  142.1780 C   0  0  0  0  0  2  0  0  0  0  0  0
  187.7950  177.0110  141.7010 C   0  0  0  0  0  2  0  0  0  0  0  0
  187.7490  175.9730  140.6870 N   0  0  0  0  0  2  0  0  0  0  0  0
  187.7520  173.8820  141.9060 C   0  0  0  0  0  1  0  0  0  0  0  0
  188.5950  174.8910  141.1540 C   0  0  0  0  0  2  0  0  0  0  0  0
  192.7310  176.1450  143.1860 C   0  0  0  0  0  2  0  0  0  0  0  0
  193.4490  175.4890  142.0200 C   0  0  0  0  0  2  0  0  0  0  0  0
  194.8180  174.9910  142.4810 C   0  0  1  0  0  3  0  0  0  0  0  0
  196.3810  173.5610  139.5420 C   0  0  0  0  0  2  0  0  0  0  0  0
  195.7950  175.0060  141.3770 N   0  0  0  0  0  0  0  0  0  0  0  0
  195.1500  175.5090  140.1660 C   0  0  0  0  0  2  0  0  0  0  0  0
  196.1490  173.6320  141.0380 C   0  0  0  0  0  2  0  0  0  0  0  0
  195.8340  174.8520  138.9910 C   0  0  0  0  0  2  0  0  0  0  0  0
  196.2340  176.7950  143.2740 O   0  0  0  0  0  1  0  0  0  0  0  0
  195.2600  175.8680  143.6630 C   0  0  2  0  0  3  0  0  0  0  0  0
  195.7570  175.0250  144.8290 C   0  0  0  0  0  2  0  0  0  0  0  0
  194.7120  174.7970  145.7270 O   0  0  0  0  0  0  0  0  0  0  0  0
  194.5500  176.0100  146.3950 C   0  0  0  0  0  2  0  0  0  0  0  0
  193.0980  176.1750  146.7930 C   0  0  0  0  0  1  0  0  0  0  0  0
  1 10  1  0  0  0  0
  1  8  1  1  0  0  0
  2  9  1  0  0  0  0
  2  5  1  0  0  0  0
  3 11  1  0  0  0  0
  4 12  2  0  0  0  0
  5  3  1  6  0  0  0
  5 10  1  0  0  0  0
  7  8  1  0  0  0  0
  7  6  1  1  0  0  0
  9 12  1  1  0  0  0
  9  1  1  0  0  0  0
 10 13  1  6  0  0  0
 11 13  1  0  0  0  0
 12  7  1  0  0  0  0
 14 16  1  0  0  0  0
 15 18  1  6  0  0  0
 15  7  1  0  0  0  0
 15 16  1  0  0  0  0
 16 19  1  1  0  0  0
 17 23  1  6  0  0  0
 17 18  1  0  0  0  0
 17 14  1  0  0  0  0
 19 21  1  0  0  0  0
 20 19  1  0  0  0  0
 22 19  1  0  0  0  0
 24 23  1  0  0  0  0
 25 27  1  0  0  0  0
 25 24  1  0  0  0  0
 27 26  1  0  0  0  0
 28  2  1  0  0  0  0
 29 28  1  0  0  0  0
 30 29  1  6  0  0  0
 30 37  1  0  0  0  0
 31 34  1  0  0  0  0
 32 30  1  0  0  0  0
 33 32  1  0  0  0  0
 34 32  1  0  0  0  0
 35 31  1  0  0  0  0
 35 33  1  0  0  0  0
 37 36  1  6  0  0  0
 37 38  1  0  0  0  0
 38 39  1  0  0  0  0
 39 40  1  0  0  0  0
 40 41  1  0  0  0  0
M  END
>  <MODEL>
5

>  <REMARK>
 VINA RESULT:      -6.7      1.937      3.260
  Name = 
  14 active torsions:
  status: ('A' for Active; 'I' for Inactive)
    1  A    between atoms: C_2  and  C_30
    2  A    between atoms: C_2  and  C_37
    3  A    between atoms: N_3  and  C_35
    4  A    between atoms: C_4  and  O_14
    5  A    between atoms: C_4  and  C_39
    6  A    between atoms: C_9  and  C_16
    7  A    between atoms: C_9  and  C_35
    8  A    between atoms: C_12  and  C_23
    9  A    between atoms: O_14  and  C_15
   10  A    between atoms: C_16  and  N_20
   11  A    between atoms: C_16  and  C_39
   12  A    between atoms: C_18  and  C_19
   13  A    between atoms: C_25  and  N_27
   14  A    between atoms: N_27  and  C_37
                            x       y       z     vdW  Elec       q    Type
                         _______ _______ _______ _____ _____    ______ ____

>  <TORSDO>
F 14

$$$$
=
 OpenBabel11062421433D

 41 45  0  0  1  0  0  0  0  0999 V2000
  189.0740  175.0910  143.3220 C   0  0  1  0  0  3  0  0  0  0  0  0
  191.0710  175.4440  142.3740 N   0  0  0  0  0  0  0  0  0  0  0  0
  190.5560  173.8030  140.7040 N   0  0  0  0  0  2  0  0  0  0  0  0
  190.9070  177.7340  144.5120 O   0  0  0  0  0  0  0  0  0  0  0  0
  190.7340  174.0400  142.1300 C   0  0  2  0  0  3  0  0  0  0  0  0
  189.5260  176.0270  146.5910 C   0  0  0  0  0  1  0  0  0  0  0  0
  188.9510  176.4240  145.2360 C   0  0  2  0  0  0  0  0  0  0  0  0
  188.4070  175.2330  144.5740 N   0  0  0  0  0  2  0  0  0  0  0  0
  189.9950  175.9820  143.1280 C   0  0  2  0  0  3  0  0  0  0  0  0
  189.4320  173.8470  142.7360 N   0  0  2  0  0  0  0  0  0  0  0  0
  189.3710  173.0480  140.5540 N   0  0  0  0  0  2  0  0  0  0  0  0
  190.0440  176.8430  144.2940 C   0  0  0  0  0  0  0  0  0  0  0  0
  188.5750  173.2250  141.7650 C   0  0  0  0  0  2  0  0  0  0  0  0
  185.6450  177.3440  144.4900 C   0  0  0  0  0  2  0  0  0  0  0  0
  187.8560  177.5000  145.3590 C   0  0  2  0  0  3  0  0  0  0  0  0
  186.4800  176.9060  145.6550 C   0  0  1  0  0  3  0  0  0  0  0  0
  186.4320  178.5010  143.9290 C   0  0  1  0  0  3  0  0  0  0  0  0
  187.7940  178.2660  144.1780 O   0  0  0  0  0  0  0  0  0  0  0  0
  185.9090  177.4410  146.9730 C   0  0  0  0  0  0  0  0  0  0  0  0
  186.5440  178.6180  147.3220 F   0  0  0  0  0  0  0  0  0  0  0  0
  186.1220  176.5120  147.9750 F   0  0  0  0  0  0  0  0  0  0  0  0
  184.5500  177.6840  146.8610 F   0  0  0  0  0  0  0  0  0  0  0  0
  186.1760  178.6300  142.4360 C   0  0  0  0  0  2  0  0  0  0  0  0
  184.7480  178.2380  142.0970 C   0  0  0  0  0  2  0  0  0  0  0  0
  184.5810  178.1610  140.6550 N   0  0  0  0  0  2  0  0  0  0  0  0
  182.4040  178.2460  141.7100 C   0  0  0  0  0  1  0  0  0  0  0  0
  183.1550  178.2090  140.3950 C   0  0  0  0  0  2  0  0  0  0  0  0
  192.4330  175.9580  142.3800 C   0  0  0  0  0  2  0  0  0  0  0  0
  193.3830  174.9410  142.9870 C   0  0  0  0  0  2  0  0  0  0  0  0
  194.6030  175.6620  143.5600 C   0  0  1  0  0  3  0  0  0  0  0  0
  193.7410  176.9180  146.8460 C   0  0  0  0  0  2  0  0  0  0  0  0
  194.6200  175.6010  145.0330 N   0  0  0  0  0  0  0  0  0  0  0  0
  193.3900  174.9730  145.5070 C   0  0  0  0  0  2  0  0  0  0  0  0
  194.5470  176.9580  145.5640 C   0  0  0  0  0  2  0  0  0  0  0  0
  193.0820  175.5630  146.8620 C   0  0  0  0  0  2  0  0  0  0  0  0
  196.2540  173.8860  143.6380 O   0  0  0  0  0  1  0  0  0  0  0  0
  195.8550  175.0270  142.9350 C   0  0  2  0  0  3  0  0  0  0  0  0
  196.9990  176.0260  142.8390 C   0  0  0  0  0  2  0  0  0  0  0  0
  197.8730  175.6500  141.8170 O   0  0  0  0  0  0  0  0  0  0  0  0
  197.0600  175.5010  140.6950 C   0  0  0  0  0  2  0  0  0  0  0  0
  197.8970  175.6580  139.4420 C   0  0  0  0  0  1  0  0  0  0  0  0
  1  8  1  1  0  0  0
  2 28  1  0  0  0  0
  2  9  1  0  0  0  0
  5  3  1  6  0  0  0
  5  2  1  0  0  0  0
  5 10  1  0  0  0  0
  7 15  1  0  0  0  0
  7  6  1  1  0  0  0
  8  7  1  0  0  0  0
  9  1  1  0  0  0  0
  9 12  1  1  0  0  0
 10 13  1  6  0  0  0
 10  1  1  0  0  0  0
 11  3  1  0  0  0  0
 11 13  1  0  0  0  0
 12  4  2  0  0  0  0
 12  7  1  0  0  0  0
 14 16  1  0  0  0  0
 15 18  1  6  0  0  0
 15 16  1  0  0  0  0
 16 19  1  1  0  0  0
 17 23  1  6  0  0  0
 17 18  1  0  0  0  0
 17 14  1  0  0  0  0
 19 20  1  0  0  0  0
 19 21  1  0  0  0  0
 22 19  1  0  0  0  0
 24 23  1  0  0  0  0
 25 24  1  0  0  0  0
 27 25  1  0  0  0  0
 27 26  1  0  0  0  0
 28 29  1  0  0  0  0
 30 29  1  6  0  0  0
 30 32  1  0  0  0  0
 31 35  1  0  0  0  0
 32 33  1  0  0  0  0
 32 34  1  0  0  0  0
 33 35  1  0  0  0  0
 34 31  1  0  0  0  0
 37 30  1  0  0  0  0
 37 36  1  1  0  0  0
 38 37  1  0  0  0  0
 39 38  1  0  0  0  0
 40 39  1  0  0  0  0
 41 40  1  0  0  0  0
M  END
>  <MODEL>
6

>  <REMARK>
 VINA RESULT:      -6.7      1.581      2.265
  Name = 
  14 active torsions:
  status: ('A' for Active; 'I' for Inactive)
    1  A    between atoms: C_2  and  C_30
    2  A    between atoms: C_2  and  C_37
    3  A    between atoms: N_3  and  C_35
    4  A    between atoms: C_4  and  O_14
    5  A    between atoms: C_4  and  C_39
    6  A    between atoms: C_9  and  C_16
    7  A    between atoms: C_9  and  C_35
    8  A    between atoms: C_12  and  C_23
    9  A    between atoms: O_14  and  C_15
   10  A    between atoms: C_16  and  N_20
   11  A    between atoms: C_16  and  C_39
   12  A    between atoms: C_18  and  C_19
   13  A    between atoms: C_25  and  N_27
   14  A    between atoms: N_27  and  C_37
                            x       y       z     vdW  Elec       q    Type
                         _______ _______ _______ _____ _____    ______ ____

>  <TORSDO>
F 14

$$$$
=
 OpenBabel11062421433D

 41 45  0  0  1  0  0  0  0  0999 V2000
  189.8120  175.1640  144.7220 C   0  0  1  0  0  3  0  0  0  0  0  0
  191.7880  175.5960  143.7630 N   0  0  0  0  0  0  0  0  0  0  0  0
  191.9750  173.2910  143.1320 N   0  0  0  0  0  2  0  0  0  0  0  0
  190.7160  178.4620  144.4590 O   0  0  0  0  0  0  0  0  0  0  0  0
  191.8520  174.2170  144.2490 C   0  0  2  0  0  3  0  0  0  0  0  0
  189.4770  177.6250  147.0870 C   0  0  0  0  0  1  0  0  0  0  0  0
  189.0520  177.1410  145.7060 C   0  0  2  0  0  0  0  0  0  0  0  0
  188.9340  175.6790  145.7200 N   0  0  0  0  0  2  0  0  0  0  0  0
  190.5040  176.0830  144.1240 C   0  0  2  0  0  3  0  0  0  0  0  0
  190.5570  173.9600  144.8460 N   0  0  2  0  0  0  0  0  0  0  0  0
  191.0540  172.2440  143.3580 N   0  0  0  0  0  2  0  0  0  0  0  0
  190.1480  177.3640  144.7020 C   0  0  0  0  0  0  0  0  0  0  0  0
  190.0510  172.7300  144.3020 C   0  0  0  0  0  2  0  0  0  0  0  0
  185.7920  176.5740  144.5290 C   0  0  0  0  0  2  0  0  0  0  0  0
  187.7210  177.7680  145.2510 C   0  0  2  0  0  3  0  0  0  0  0  0
  186.5040  177.0070  145.7740 C   0  0  1  0  0  3  0  0  0  0  0  0
  186.3520  177.5030  143.4830 C   0  0  1  0  0  3  0  0  0  0  0  0
  187.6680  177.8290  143.8440 O   0  0  0  0  0  0  0  0  0  0  0  0
  185.6080  177.9040  146.6370 C   0  0  0  0  0  0  0  0  0  0  0  0
  185.7190  179.2180  146.2260 F   0  0  0  0  0  0  0  0  0  0  0  0
  186.0110  177.8190  147.9570 F   0  0  0  0  0  0  0  0  0  0  0  0
  184.2820  177.5160  146.5410 F   0  0  0  0  0  0  0  0  0  0  0  0
  186.3230  176.8300  142.1190 C   0  0  0  0  0  2  0  0  0  0  0  0
  187.7070  176.3370  141.7310 C   0  0  0  0  0  2  0  0  0  0  0  0
  187.7720  174.8910  141.8510 N   0  0  0  0  0  2  0  0  0  0  0  0
  188.5870  174.1070  139.7110 C   0  0  0  0  0  1  0  0  0  0  0  0
  188.9590  174.4630  141.1350 C   0  0  0  0  0  2  0  0  0  0  0  0
  192.9620  176.4280  143.5360 C   0  0  0  0  0  2  0  0  0  0  0  0
  194.0630  175.6230  142.8690 C   0  0  0  0  0  2  0  0  0  0  0  0
  195.3150  175.6490  143.7450 C   0  0  1  0  0  3  0  0  0  0  0  0
  197.5070  172.9850  144.8480 C   0  0  0  0  0  2  0  0  0  0  0  0
  195.5730  174.3310  144.3530 N   0  0  0  0  0  0  0  0  0  0  0  0
  195.9100  174.5040  145.7640 C   0  0  0  0  0  2  0  0  0  0  0  0
  196.7880  173.7710  143.7710 C   0  0  0  0  0  2  0  0  0  0  0  0
  196.8410  173.3780  146.1410 C   0  0  0  0  0  2  0  0  0  0  0  0
  197.1880  177.1700  143.4880 O   0  0  0  0  0  1  0  0  0  0  0  0
  196.4850  176.1280  142.8720 C   0  0  2  0  0  3  0  0  0  0  0  0
  196.0150  176.5430  141.4860 C   0  0  0  0  0  2  0  0  0  0  0  0
  196.8900  176.0440  140.5190 O   0  0  0  0  0  0  0  0  0  0  0  0
  196.1020  175.2090  139.7270 C   0  0  0  0  0  2  0  0  0  0  0  0
  196.6350  175.2110  138.3100 C   0  0  0  0  0  1  0  0  0  0  0  0
  1 10  1  0  0  0  0
  1  8  1  1  0  0  0
  2  9  1  0  0  0  0
  2  5  1  0  0  0  0
  3 11  1  0  0  0  0
  4 12  2  0  0  0  0
  5  3  1  6  0  0  0
  5 10  1  0  0  0  0
  7  8  1  0  0  0  0
  7  6  1  1  0  0  0
  9 12  1  1  0  0  0
  9  1  1  0  0  0  0
 10 13  1  6  0  0  0
 11 13  1  0  0  0  0
 12  7  1  0  0  0  0
 14 16  1  0  0  0  0
 15 18  1  6  0  0  0
 15  7  1  0  0  0  0
 15 16  1  0  0  0  0
 16 19  1  1  0  0  0
 17 23  1  6  0  0  0
 17 18  1  0  0  0  0
 17 14  1  0  0  0  0
 19 21  1  0  0  0  0
 20 19  1  0  0  0  0
 22 19  1  0  0  0  0
 24 25  1  0  0  0  0
 24 23  1  0  0  0  0
 26 27  1  0  0  0  0
 27 25  1  0  0  0  0
 28  2  1  0  0  0  0
 29 28  1  0  0  0  0
 30 29  1  6  0  0  0
 30 32  1  0  0  0  0
 31 35  1  0  0  0  0
 32 33  1  0  0  0  0
 33 35  1  0  0  0  0
 34 32  1  0  0  0  0
 34 31  1  0  0  0  0
 37 36  1  1  0  0  0
 37 30  1  0  0  0  0
 38 37  1  0  0  0  0
 39 38  1  0  0  0  0
 40 39  1  0  0  0  0
 41 40  1  0  0  0  0
M  END
>  <MODEL>
7

>  <REMARK>
 VINA RESULT:      -6.6      1.909      3.169
  Name = 
  14 active torsions:
  status: ('A' for Active; 'I' for Inactive)
    1  A    between atoms: C_2  and  C_30
    2  A    between atoms: C_2  and  C_37
    3  A    between atoms: N_3  and  C_35
    4  A    between atoms: C_4  and  O_14
    5  A    between atoms: C_4  and  C_39
    6  A    between atoms: C_9  and  C_16
    7  A    between atoms: C_9  and  C_35
    8  A    between atoms: C_12  and  C_23
    9  A    between atoms: O_14  and  C_15
   10  A    between atoms: C_16  and  N_20
   11  A    between atoms: C_16  and  C_39
   12  A    between atoms: C_18  and  C_19
   13  A    between atoms: C_25  and  N_27
   14  A    between atoms: N_27  and  C_37
                            x       y       z     vdW  Elec       q    Type
                         _______ _______ _______ _____ _____    ______ ____

>  <TORSDO>
F 14

$$$$
=
 OpenBabel11062421433D

 41 45  0  0  1  0  0  0  0  0999 V2000
  190.6880  174.6390  142.5170 C   0  0  1  0  0  3  0  0  0  0  0  0
  189.0300  176.1390  142.6120 N   0  0  0  0  0  0  0  0  0  0  0  0
  187.4560  174.4200  142.0510 N   0  0  0  0  0  2  0  0  0  0  0  0
  191.4780  177.7440  143.7400 O   0  0  0  0  0  0  0  0  0  0  0  0
  188.6390  175.1460  141.6100 C   0  0  2  0  0  3  0  0  0  0  0  0
  193.4740  176.5180  141.8290 C   0  0  0  0  0  1  0  0  0  0  0  0
  192.6940  175.7710  142.9040 C   0  0  2  0  0  0  0  0  0  0  0  0
  192.0990  174.5640  142.3210 N   0  0  0  0  0  2  0  0  0  0  0  0
  190.3070  175.7400  143.0860 C   0  0  2  0  0  3  0  0  0  0  0  0
  189.7190  174.1810  141.5850 N   0  0  2  0  0  0  0  0  0  0  0  0
  187.7030  173.0470  141.8230 N   0  0  0  0  0  2  0  0  0  0  0  0
  191.4820  176.5550  143.3260 C   0  0  0  0  0  0  0  0  0  0  0  0
  189.1480  172.8680  141.7120 C   0  0  0  0  0  2  0  0  0  0  0  0
  192.8160  174.3960  146.1330 C   0  0  0  0  0  2  0  0  0  0  0  0
  193.5760  175.3900  144.1080 C   0  0  2  0  0  3  0  0  0  0  0  0
  193.1820  174.0480  144.7220 C   0  0  1  0  0  3  0  0  0  0  0  0
  193.4810  175.7340  146.3310 C   0  0  1  0  0  3  0  0  0  0  0  0
  193.5140  176.3950  145.0940 O   0  0  0  0  0  0  0  0  0  0  0  0
  194.3450  173.0490  144.6850 C   0  0  0  0  0  0  0  0  0  0  0  0
  194.5820  172.5510  145.9520 F   0  0  0  0  0  0  0  0  0  0  0  0
  195.4870  173.6920  144.2440 F   0  0  0  0  0  0  0  0  0  0  0  0
  194.0620  171.9930  143.8360 F   0  0  0  0  0  0  0  0  0  0  0  0
  192.7090  176.5530  147.3540 C   0  0  0  0  0  2  0  0  0  0  0  0
  191.2940  176.0240  147.5120 C   0  0  0  0  0  2  0  0  0  0  0  0
  190.3590  176.8830  146.8060 N   0  0  0  0  0  2  0  0  0  0  0  0
  189.2130  174.7820  146.4420 C   0  0  0  0  0  1  0  0  0  0  0  0
  189.0650  176.2300  146.8620 C   0  0  0  0  0  2  0  0  0  0  0  0
  188.5180  177.5020  142.6400 C   0  0  0  0  0  2  0  0  0  0  0  0
  187.4060  177.6330  143.6650 C   0  0  0  0  0  2  0  0  0  0  0  0
  186.3040  178.5340  143.1100 C   0  0  1  0  0  3  0  0  0  0  0  0
  183.1830  178.0780  141.3300 C   0  0  0  0  0  2  0  0  0  0  0  0
  185.4070  177.7900  142.2070 N   0  0  0  0  0  0  0  0  0  0  0  0
  185.5080  178.3430  140.8590 C   0  0  0  0  0  2  0  0  0  0  0  0
  184.0240  178.0560  142.5900 C   0  0  0  0  0  2  0  0  0  0  0  0
  184.1690  178.1410  140.1920 C   0  0  0  0  0  2  0  0  0  0  0  0
  185.6080  180.5420  144.2800 O   0  0  0  0  0  1  0  0  0  0  0  0
  185.5550  179.1440  144.3050 C   0  0  2  0  0  3  0  0  0  0  0  0
  186.0840  178.6100  145.6280 C   0  0  0  0  0  2  0  0  0  0  0  0
  185.0320  178.4610  146.5340 O   0  0  0  0  0  0  0  0  0  0  0  0
  185.6430  178.0610  147.7210 C   0  0  0  0  0  2  0  0  0  0  0  0
  186.8230  178.9660  148.0100 C   0  0  0  0  0  1  0  0  0  0  0  0
  1  8  1  6  0  0  0
  1  9  1  0  0  0  0
  2 28  1  0  0  0  0
  2  9  1  0  0  0  0
  5  3  1  1  0  0  0
  5  2  1  0  0  0  0
  7  6  1  6  0  0  0
  7 12  1  0  0  0  0
  7 15  1  0  0  0  0
  8  7  1  0  0  0  0
  9 12  1  6  0  0  0
 10  5  1  0  0  0  0
 10 13  1  1  0  0  0
 10  1  1  0  0  0  0
 11  3  1  0  0  0  0
 12  4  2  0  0  0  0
 13 11  1  0  0  0  0
 14 17  1  0  0  0  0
 15 16  1  0  0  0  0
 15 18  1  1  0  0  0
 16 19  1  1  0  0  0
 16 14  1  0  0  0  0
 17 23  1  1  0  0  0
 18 17  1  0  0  0  0
 19 20  1  0  0  0  0
 21 19  1  0  0  0  0
 22 19  1  0  0  0  0
 23 24  1  0  0  0  0
 25 27  1  0  0  0  0
 25 24  1  0  0  0  0
 26 27  1  0  0  0  0
 28 29  1  0  0  0  0
 30 29  1  1  0  0  0
 30 37  1  0  0  0  0
 31 34  1  0  0  0  0
 32 34  1  0  0  0  0
 32 30  1  0  0  0  0
 33 32  1  0  0  0  0
 35 33  1  0  0  0  0
 35 31  1  0  0  0  0
 37 36  1  1  0  0  0
 37 38  1  0  0  0  0
 38 39  1  0  0  0  0
 39 40  1  0  0  0  0
 40 41  1  0  0  0  0
M  END
>  <MODEL>
8

>  <REMARK>
 VINA RESULT:      -6.4      3.430      8.187
  Name = 
  14 active torsions:
  status: ('A' for Active; 'I' for Inactive)
    1  A    between atoms: C_2  and  C_30
    2  A    between atoms: C_2  and  C_37
    3  A    between atoms: N_3  and  C_35
    4  A    between atoms: C_4  and  O_14
    5  A    between atoms: C_4  and  C_39
    6  A    between atoms: C_9  and  C_16
    7  A    between atoms: C_9  and  C_35
    8  A    between atoms: C_12  and  C_23
    9  A    between atoms: O_14  and  C_15
   10  A    between atoms: C_16  and  N_20
   11  A    between atoms: C_16  and  C_39
   12  A    between atoms: C_18  and  C_19
   13  A    between atoms: C_25  and  N_27
   14  A    between atoms: N_27  and  C_37
                            x       y       z     vdW  Elec       q    Type
                         _______ _______ _______ _____ _____    ______ ____

>  <TORSDO>
F 14

$$$$
=
 OpenBabel11062421433D

 41 45  0  0  1  0  0  0  0  0999 V2000
  188.5990  175.6900  142.4990 C   0  0  1  0  0  3  0  0  0  0  0  0
  190.8230  175.9200  142.3880 N   0  0  0  0  0  0  0  0  0  0  0  0
  190.8910  174.3010  140.6220 N   0  0  0  0  0  2  0  0  0  0  0  0
  189.9870  178.2300  144.3400 O   0  0  0  0  0  0  0  0  0  0  0  0
  190.5250  174.5370  142.0110 C   0  0  2  0  0  3  0  0  0  0  0  0
  187.8250  176.6200  145.7100 C   0  0  0  0  0  1  0  0  0  0  0  0
  187.8320  177.0400  144.2450 C   0  0  2  0  0  0  0  0  0  0  0  0
  187.5140  175.8800  143.4060 N   0  0  0  0  0  2  0  0  0  0  0  0
  189.5730  176.5250  142.6850 C   0  0  2  0  0  3  0  0  0  0  0  0
  189.0820  174.4240  142.0740 N   0  0  2  0  0  0  0  0  0  0  0  0
  189.8120  173.6160  140.0200 N   0  0  0  0  0  2  0  0  0  0  0  0
  189.2240  177.3890  143.7960 C   0  0  0  0  0  0  0  0  0  0  0  0
  188.6260  173.8470  140.8390 C   0  0  0  0  0  2  0  0  0  0  0  0
  184.5600  177.9120  143.3140 C   0  0  0  0  0  2  0  0  0  0  0  0
  186.8360  178.1800  143.9590 C   0  0  2  0  0  3  0  0  0  0  0  0
  185.4440  177.8980  144.5240 C   0  0  1  0  0  3  0  0  0  0  0  0
  185.3890  178.6600  142.3010 C   0  0  1  0  0  3  0  0  0  0  0  0
  186.7430  178.4080  142.5710 O   0  0  0  0  0  0  0  0  0  0  0  0
  185.0180  178.9730  145.5300 C   0  0  0  0  0  0  0  0  0  0  0  0
  183.6400  179.0660  145.5690 F   0  0  0  0  0  0  0  0  0  0  0  0
  185.5310  180.1960  145.1390 F   0  0  0  0  0  0  0  0  0  0  0  0
  185.4800  178.6720  146.8010 F   0  0  0  0  0  0  0  0  0  0  0  0
  185.0310  178.2020  140.8960 C   0  0  0  0  0  2  0  0  0  0  0  0
  183.6390  178.6750  140.5120 C   0  0  0  0  0  2  0  0  0  0  0  0
  182.7640  177.5330  140.3070 N   0  0  0  0  0  2  0  0  0  0  0  0
  181.3370  178.8190  141.7780 C   0  0  0  0  0  1  0  0  0  0  0  0
  181.4060  178.0030  140.5040 C   0  0  0  0  0  2  0  0  0  0  0  0
  192.1070  176.3530  142.9200 C   0  0  0  0  0  2  0  0  0  0  0  0
  192.8670  175.1750  143.5020 C   0  0  0  0  0  2  0  0  0  0  0  0
  192.8010  175.2300  145.0280 C   0  0  1  0  0  3  0  0  0  0  0  0
  189.7150  173.3750  145.4280 C   0  0  0  0  0  2  0  0  0  0  0  0
  192.0020  174.1160  145.5710 N   0  0  0  0  0  0  0  0  0  0  0  0
  191.9220  173.0470  144.5790 C   0  0  0  0  0  2  0  0  0  0  0  0
  190.6190  174.5560  145.7210 C   0  0  0  0  0  2  0  0  0  0  0  0
  190.6050  172.3400  144.7900 C   0  0  0  0  0  2  0  0  0  0  0  0
  194.5690  176.4430  146.1650 O   0  0  0  0  0  1  0  0  0  0  0  0
  194.2440  175.2240  145.5580 C   0  0  2  0  0  3  0  0  0  0  0  0
  195.2410  174.8890  144.4580 C   0  0  0  0  0  2  0  0  0  0  0  0
  196.5310  174.8290  144.9900 O   0  0  0  0  0  0  0  0  0  0  0  0
  197.3740  174.9230  143.8840 C   0  0  0  0  0  2  0  0  0  0  0  0
  196.9170  173.9470  142.8190 C   0  0  0  0  0  1  0  0  0  0  0  0
  1  9  1  0  0  0  0
  1  8  1  1  0  0  0
  2  9  1  0  0  0  0
  2 28  1  0  0  0  0
  5  3  1  6  0  0  0
  5 10  1  0  0  0  0
  5  2  1  0  0  0  0
  7  6  1  1  0  0  0
  8  7  1  0  0  0  0
  9 12  1  1  0  0  0
 10 13  1  6  0  0  0
 10  1  1  0  0  0  0
 11  3  1  0  0  0  0
 11 13  1  0  0  0  0
 12  7  1  0  0  0  0
 12  4  2  0  0  0  0
 14 16  1  0  0  0  0
 15 18  1  6  0  0  0
 15  7  1  0  0  0  0
 15 16  1  0  0  0  0
 16 19  1  1  0  0  0
 17 23  1  6  0  0  0
 17 18  1  0  0  0  0
 17 14  1  0  0  0  0
 19 20  1  0  0  0  0
 19 22  1  0  0  0  0
 21 19  1  0  0  0  0
 24 23  1  0  0  0  0
 25 27  1  0  0  0  0
 25 24  1  0  0  0  0
 27 26  1  0  0  0  0
 28 29  1  0  0  0  0
 30 29  1  6  0  0  0
 30 37  1  0  0  0  0
 30 32  1  0  0  0  0
 31 34  1  0  0  0  0
 32 34  1  0  0  0  0
 33 35  1  0  0  0  0
 33 32  1  0  0  0  0
 35 31  1  0  0  0  0
 37 36  1  6  0  0  0
 38 39  1  0  0  0  0
 38 37  1  0  0  0  0
 40 39  1  0  0  0  0
 41 40  1  0  0  0  0
M  END
>  <MODEL>
9

>  <REMARK>
 VINA RESULT:      -6.4      1.874      2.631
  Name = 
  14 active torsions:
  status: ('A' for Active; 'I' for Inactive)
    1  A    between atoms: C_2  and  C_30
    2  A    between atoms: C_2  and  C_37
    3  A    between atoms: N_3  and  C_35
    4  A    between atoms: C_4  and  O_14
    5  A    between atoms: C_4  and  C_39
    6  A    between atoms: C_9  and  C_16
    7  A    between atoms: C_9  and  C_35
    8  A    between atoms: C_12  and  C_23
    9  A    between atoms: O_14  and  C_15
   10  A    between atoms: C_16  and  N_20
   11  A    between atoms: C_16  and  C_39
   12  A    between atoms: C_18  and  C_19
   13  A    between atoms: C_25  and  N_27
   14  A    between atoms: N_27  and  C_37
                            x       y       z     vdW  Elec       q    Type
                         _______ _______ _______ _____ _____    ______ ____

>  <TORSDO>
F 14

$$$$
