=
 OpenBabel11062423023D

 62 66  0  0  1  0  0  0  0  0999 V2000
  189.4530  176.8870  142.3630 C   0  0  2  0  0  0  0  0  0  0  0  0
  188.3190  177.7470  141.7700 C   0  0  0  0  0  2  0  0  0  0  0  0
  188.4410  177.6290  143.2250 C   0  0  1  0  0  3  0  0  0  0  0  0
  193.0260  177.1940  142.0340 F   0  0  0  0  0  0  0  0  0  0  0  0
  192.0850  176.8180  143.0060 C   0  0  0  0  0  0  0  0  0  0  0  0
  190.9690  178.3380  143.9610 C   0  0  0  0  0  2  0  0  0  0  0  0
  192.3110  177.6740  144.2500 C   0  0  0  0  0  2  0  0  0  0  0  0
  191.9840  175.4530  143.2690 F   0  0  0  0  0  0  0  0  0  0  0  0
  190.7900  177.5580  142.7130 C   0  0  2  0  0  3  0  0  0  0  0  0
  189.2810  175.5430  142.7150 O   0  0  0  0  0  0  0  0  0  0  0  0
  188.8190  173.0670  140.2050 C   0  0  0  0  0  2  0  0  0  0  0  0
  189.3860  171.8100  142.2150 C   0  0  0  0  0  1  0  0  0  0  0  0
  188.3260  174.4090  140.7160 C   0  0  0  0  0  2  0  0  0  0  0  0
  190.4160  173.9320  141.7870 O   0  0  0  0  0  0  0  0  0  0  0  0
  189.5010  174.8570  141.5100 N   0  0  0  0  0  0  0  0  0  0  0  0
  189.9780  172.7000  141.1740 C   0  0  2  0  0  0  0  0  0  0  0  0
  191.2120  171.7900  140.7080 C   0  0  0  0  0  2  0  0  0  0  0  0
  190.8130  170.6160  138.5290 C   0  0  0  0  0  2  0  0  0  0  0  0
  191.6480  171.6580  139.2300 C   0  0  1  0  0  0  0  0  0  0  0  0
  191.5200  172.8820  138.4100 C   0  0  0  0  0  2  0  0  0  0  0  0
  190.4380  172.7510  137.4570 N   0  0  0  0  0  0  0  0  0  0  0  0
  190.2960  171.2770  137.2760 C   0  0  0  0  0  2  0  0  0  0  0  0
  188.5990  174.5840  136.4890 O   0  0  0  0  0  0  0  0  0  0  0  0
  190.6970  173.5870  136.3510 N   0  0  0  0  0  2  0  0  0  0  0  0
  189.7020  174.5290  135.9210 C   0  0  0  0  0  0  0  0  0  0  0  0
  190.0380  175.3890  134.8390 N   0  0  0  0  0  2  0  0  0  0  0  0
  190.0350  176.8330  135.0010 C   0  0  0  0  0  2  0  0  0  0  0  0
  188.7070  177.4250  134.5240 C   0  0  0  0  0  1  0  0  0  0  0  0
  193.0720  171.3990  139.1750 N   0  0  0  0  0  2  0  0  0  0  0  0
  193.6570  173.4500  140.4850 C   0  0  0  0  0  3  0  0  0  0  0  0
  196.2520  173.3010  139.5550 C   0  0  0  0  0  3  0  0  0  0  0  0
  195.7730  174.4730  140.1340 C   0  0  0  0  0  0  0  0  0  0  0  0
  194.5470  174.5430  140.7030 C   0  0  0  0  0  3  0  0  0  0  0  0
  194.0430  172.3620  139.7170 C   0  0  0  0  0  0  0  0  0  0  0  0
  196.7750  175.8800  140.2030 Cl  0  0  0  0  0  0  0  0  0  0  0  0
  195.4090  172.1690  139.4000 C   0  0  0  0  0  0  0  0  0  0  0  0
  196.4070  170.9670  137.4400 O   0  0  0  0  0  0  0  0  0  0  0  0
  195.9540  170.9120  138.7060 C   0  0  0  0  0  0  0  0  0  0  0  0
  196.0930  169.8150  139.3330 O   0  0  0  0  0  1  0  0  0  0  0  0
  187.1810  176.5720  143.9400 S   0  0  0  0  0  0  0  0  0  0  0  0
  187.4820  177.2760  145.5300 C   0  0  2  0  0  3  0  0  0  0  0  0
  191.4410  177.1430  148.1930 O   0  0  0  0  0  0  0  0  0  0  0  0
  190.6870  176.5240  147.4210 C   0  0  0  0  0  0  0  0  0  0  0  0
  188.5920  175.1950  145.6830 O   0  0  0  0  0  0  0  0  0  0  0  0
  188.4870  176.4000  146.1400 C   0  0  0  0  0  0  0  0  0  0  0  0
  189.3040  176.9010  147.2120 N   0  0  0  0  0  2  0  0  0  0  0  0
  191.1800  175.3650  146.7200 C   0  0  0  0  0  2  0  0  0  0  0  0
  192.6560  175.2200  146.8840 C   0  0  0  0  0  2  0  0  0  0  0  0
  193.1750  174.4240  145.7570 C   0  0  0  0  0  0  0  0  0  0  0  0
  192.6110  173.3220  145.4390 O   0  0  0  0  0  0  0  0  0  0  0  0
  194.4100  174.8230  145.2110 N   0  0  0  0  0  2  0  0  0  0  0  0
  195.6080  174.5170  145.9830 C   0  0  0  0  0  2  0  0  0  0  0  0
  196.5130  175.2010  143.7960 C   0  0  0  0  0  1  0  0  0  0  0  0
  196.7350  174.4560  145.0580 C   0  0  2  0  0  3  0  0  0  0  0  0
  196.8570  171.8860  145.8250 C   0  0  0  0  0  1  0  0  0  0  0  0
  197.4740  173.0930  145.0720 C   0  0  1  0  0  3  0  0  0  0  0  0
  197.9410  172.8450  143.8040 O   0  0  0  0  0  1  0  0  0  0  0  0
  186.1530  177.3030  146.2910 C   0  0  0  0  0  2  0  0  0  0  0  0
  186.3090  179.3520  147.4760 F   0  0  0  0  0  0  0  0  0  0  0  0
  185.6190  178.7280  146.4440 C   0  0  0  0  0  0  0  0  0  0  0  0
  184.2160  178.7260  146.6460 F   0  0  0  0  0  0  0  0  0  0  0  0
  185.9890  179.4890  145.3720 F   0  0  0  0  0  0  0  0  0  0  0  0
  1  9  1  0  0  0  0
  1 10  1  6  0  0  0
  1  3  1  0  0  0  0
  2  1  1  0  0  0  0
  2  3  1  0  0  0  0
  3 40  1  6  0  0  0
  4  5  1  0  0  0  0
  5  8  1  0  0  0  0
  5  7  1  0  0  0  0
  6  7  1  0  0  0  0
  9  5  1  0  0  0  0
  9  6  1  1  0  0  0
 11 13  1  0  0  0  0
 11 16  1  0  0  0  0
 13 15  1  0  0  0  0
 15 14  1  0  0  0  0
 15 10  1  0  0  0  0
 16 14  1  0  0  0  0
 16 12  1  1  0  0  0
 17 16  1  0  0  0  0
 18 19  1  0  0  0  0
 19 17  1  1  0  0  0
 20 19  1  0  0  0  0
 21 20  1  0  0  0  0
 22 21  1  0  0  0  0
 22 18  1  0  0  0  0
 24 21  1  0  0  0  0
 25 24  1  0  0  0  0
 25 23  2  0  0  0  0
 26 27  1  0  0  0  0
 26 25  1  0  0  0  0
 28 27  1  0  0  0  0
 29 19  1  0  0  0  0
 29 34  1  0  0  0  0
 30 33  1  0  0  0  0
 31 32  1  0  0  0  0
 32 35  1  0  0  0  0
 32 33  2  0  0  0  0
 34 30  2  0  0  0  0
 36 31  2  0  0  0  0
 36 34  1  0  0  0  0
 37 38  2  0  0  0  0
 38 39  1  0  0  0  0
 38 36  1  0  0  0  0
 40 41  1  0  0  0  0
 41 45  1  0  0  0  0
 41 58  1  1  0  0  0
 43 42  2  0  0  0  0
 44 45  2  0  0  0  0
 45 46  1  0  0  0  0
 46 43  1  0  0  0  0
 47 48  1  0  0  0  0
 47 43  1  0  0  0  0
 49 48  1  0  0  0  0
 50 49  2  0  0  0  0
 51 49  1  0  0  0  0
 51 52  1  0  0  0  0
 54 53  1  6  0  0  0
 54 56  1  0  0  0  0
 54 52  1  0  0  0  0
 56 55  1  6  0  0  0
 57 56  1  0  0  0  0
 58 60  1  0  0  0  0
 60 61  1  0  0  0  0
 60 59  1  0  0  0  0
 62 60  1  0  0  0  0
M  END
>  <MODEL>
1

>  <REMARK>
 VINA RESULT:      -6.5      0.000      0.000
  Name = 
  21 active torsions:
  status: ('A' for Active; 'I' for Inactive)
    1  A    between atoms: C_4  and  C_58
    2  A    between atoms: C_5  and  N_44
    3  A    between atoms: C_7  and  C_56
    4  A    between atoms: C_9  and  C_48
    5  A    between atoms: C_13  and  N_24
    6  A    between atoms: C_13  and  C_33
    7  A    between atoms: C_16  and  C_23
    8  A    between atoms: C_16  and  N_36
    9  A    between atoms: C_23  and  C_55
   10  A    between atoms: N_24  and  C_40
   11  A    between atoms: N_27  and  N_35
   12  A    between atoms: C_29  and  O_30
   13  A    between atoms: C_29  and  C_54
   14  A    between atoms: O_30  and  N_52
   15  A    between atoms: C_31  and  C_39
   16  A    between atoms: C_31  and  C_48
   17  A    between atoms: C_31  and  S_62
   18  A    between atoms: C_33  and  C_59
   19  A    between atoms: C_47  and  C_51
   20  A    between atoms: C_53  and  S_62
   21  A    between atoms: C_56  and  C_58
                            x       y       z     vdW  Elec       q    Type
                         _______ _______ _______ _____ _____    ______ ____

>  <TORSDO>
F 21

$$$$
=
 OpenBabel11062423023D

 62 66  0  0  1  0  0  0  0  0999 V2000
  190.1660  172.5420  140.3060 C   0  0  2  0  0  0  0  0  0  0  0  0
  191.2250  173.5510  140.7950 C   0  0  0  0  0  2  0  0  0  0  0  0
  191.3820  172.1320  141.1240 C   0  0  1  0  0  3  0  0  0  0  0  0
  191.9630  172.0740  137.2200 F   0  0  0  0  0  0  0  0  0  0  0  0
  190.7080  172.5340  137.6500 C   0  0  0  0  0  0  0  0  0  0  0  0
  189.2800  171.1080  138.2780 C   0  0  0  0  0  2  0  0  0  0  0  0
  189.6290  171.7290  136.9290 C   0  0  0  0  0  2  0  0  0  0  0  0
  190.5100  173.9120  137.6060 F   0  0  0  0  0  0  0  0  0  0  0  0
  190.3780  171.8350  138.9580 C   0  0  2  0  0  3  0  0  0  0  0  0
  189.0760  172.1450  141.0900 O   0  0  0  0  0  0  0  0  0  0  0  0
  187.9670  175.4710  140.4870 C   0  0  0  0  0  2  0  0  0  0  0  0
  189.4890  175.6620  142.3810 C   0  0  0  0  0  1  0  0  0  0  0  0
  188.3420  174.1580  139.8220 C   0  0  0  0  0  2  0  0  0  0  0  0
  188.0640  173.7460  142.1660 O   0  0  0  0  0  0  0  0  0  0  0  0
  188.1690  173.2090  140.9530 N   0  0  0  0  0  0  0  0  0  0  0  0
  188.1280  175.1800  142.0060 C   0  0  2  0  0  0  0  0  0  0  0  0
  187.2550  175.9460  143.1100 C   0  0  0  0  0  2  0  0  0  0  0  0
  187.0230  177.8580  141.5050 C   0  0  0  0  0  2  0  0  0  0  0  0
  186.6610  177.3570  142.8800 C   0  0  1  0  0  0  0  0  0  0  0  0
  185.1880  177.4560  142.9600 C   0  0  0  0  0  2  0  0  0  0  0  0
  184.6150  177.6770  141.6500 N   0  0  0  0  0  0  0  0  0  0  0  0
  185.7260  178.3020  140.8740 C   0  0  0  0  0  2  0  0  0  0  0  0
  182.5830  177.5100  139.7740 O   0  0  0  0  0  0  0  0  0  0  0  0
  183.3800  178.3430  141.7960 N   0  0  0  0  0  2  0  0  0  0  0  0
  182.3660  178.1900  140.7910 C   0  0  0  0  0  0  0  0  0  0  0  0
  181.1180  178.8340  141.0170 N   0  0  0  0  0  2  0  0  0  0  0  0
  179.8830  178.0720  141.0920 C   0  0  0  0  0  2  0  0  0  0  0  0
  178.7540  178.8040  140.3630 C   0  0  0  0  0  1  0  0  0  0  0  0
  187.0870  178.2330  143.9520 N   0  0  0  0  0  2  0  0  0  0  0  0
  189.3470  177.7080  144.8920 C   0  0  0  0  0  3  0  0  0  0  0  0
  188.1580  176.4440  147.0390 C   0  0  0  0  0  3  0  0  0  0  0  0
  189.5050  176.2380  146.7520 C   0  0  0  0  0  0  0  0  0  0  0  0
  190.1450  176.9290  145.7810 C   0  0  0  0  0  3  0  0  0  0  0  0
  187.9680  177.7490  145.0260 C   0  0  0  0  0  0  0  0  0  0  0  0
  190.4310  175.1210  147.6910 Cl  0  0  0  0  0  0  0  0  0  0  0  0
  187.3590  177.2810  146.2150 C   0  0  0  0  0  0  0  0  0  0  0  0
  185.0000  176.4380  146.2910 O   0  0  0  0  0  0  0  0  0  0  0  0
  185.8640  177.4420  146.5290 C   0  0  0  0  0  0  0  0  0  0  0  0
  185.4150  178.4760  147.1150 O   0  0  0  0  0  1  0  0  0  0  0  0
  191.0150  171.7780  142.8430 S   0  0  0  0  0  0  0  0  0  0  0  0
  192.1760  170.4490  142.8250 C   0  0  2  0  0  3  0  0  0  0  0  0
  194.1570  173.7090  145.6930 O   0  0  0  0  0  0  0  0  0  0  0  0
  194.1210  172.5150  145.3470 C   0  0  0  0  0  0  0  0  0  0  0  0
  193.6970  169.6530  144.4490 O   0  0  0  0  0  0  0  0  0  0  0  0
  192.9920  170.6510  144.0260 C   0  0  0  0  0  0  0  0  0  0  0  0
  192.9730  171.9280  144.6870 N   0  0  0  0  0  2  0  0  0  0  0  0
  195.2440  171.6560  145.6310 C   0  0  0  0  0  2  0  0  0  0  0  0
  196.4890  172.1600  144.9790 C   0  0  0  0  0  2  0  0  0  0  0  0
  196.5910  171.5550  143.6380 C   0  0  0  0  0  0  0  0  0  0  0  0
  197.0360  170.3630  143.5070 O   0  0  0  0  0  0  0  0  0  0  0  0
  196.3840  172.4080  142.5370 N   0  0  0  0  0  2  0  0  0  0  0  0
  197.4580  173.3360  142.2050 C   0  0  0  0  0  2  0  0  0  0  0  0
  197.4790  175.1690  140.5580 C   0  0  0  0  0  1  0  0  0  0  0  0
  196.8490  174.5870  141.7670 C   0  0  2  0  0  3  0  0  0  0  0  0
  197.0410  176.8610  143.1820 C   0  0  0  0  0  1  0  0  0  0  0  0
  196.3690  175.4850  142.9370 C   0  0  1  0  0  3  0  0  0  0  0  0
  194.9950  175.4650  142.9570 O   0  0  0  0  0  1  0  0  0  0  0  0
  192.9760  170.5420  141.5220 C   0  0  0  0  0  2  0  0  0  0  0  0
  191.9960  168.4080  141.1880 F   0  0  0  0  0  0  0  0  0  0  0  0
  193.0940  169.1800  140.8340 C   0  0  0  0  0  0  0  0  0  0  0  0
  194.3270  168.5570  141.1500 F   0  0  0  0  0  0  0  0  0  0  0  0
  192.9080  169.3140  139.4870 F   0  0  0  0  0  0  0  0  0  0  0  0
  1  2  1  0  0  0  0
  1 10  1  1  0  0  0
  1  3  1  0  0  0  0
  2  3  1  0  0  0  0
  3 40  1  1  0  0  0
  4  5  1  0  0  0  0
  5  9  1  0  0  0  0
  7  5  1  0  0  0  0
  7  6  1  0  0  0  0
  8  5  1  0  0  0  0
  9  6  1  6  0  0  0
  9  1  1  0  0  0  0
 11 16  1  0  0  0  0
 13 11  1  0  0  0  0
 13 15  1  0  0  0  0
 15 10  1  0  0  0  0
 15 14  1  0  0  0  0
 16 14  1  0  0  0  0
 16 12  1  1  0  0  0
 16 17  1  0  0  0  0
 18 19  1  0  0  0  0
 19 20  1  0  0  0  0
 19 17  1  1  0  0  0
 19 29  1  0  0  0  0
 21 24  1  0  0  0  0
 21 20  1  0  0  0  0
 22 18  1  0  0  0  0
 22 21  1  0  0  0  0
 23 25  2  0  0  0  0
 25 26  1  0  0  0  0
 25 24  1  0  0  0  0
 26 27  1  0  0  0  0
 28 27  1  0  0  0  0
 29 34  1  0  0  0  0
 30 34  2  0  0  0  0
 30 33  1  0  0  0  0
 32 31  1  0  0  0  0
 32 35  1  0  0  0  0
 33 32  2  0  0  0  0
 34 36  1  0  0  0  0
 36 38  1  0  0  0  0
 36 31  2  0  0  0  0
 37 38  2  0  0  0  0
 38 39  1  0  0  0  0
 41 58  1  6  0  0  0
 41 40  1  0  0  0  0
 41 45  1  0  0  0  0
 43 47  1  0  0  0  0
 43 42  2  0  0  0  0
 45 44  2  0  0  0  0
 45 46  1  0  0  0  0
 46 43  1  0  0  0  0
 48 47  1  0  0  0  0
 49 48  1  0  0  0  0
 50 49  2  0  0  0  0
 51 49  1  0  0  0  0
 52 51  1  0  0  0  0
 54 53  1  1  0  0  0
 54 52  1  0  0  0  0
 54 56  1  0  0  0  0
 56 57  1  0  0  0  0
 56 55  1  6  0  0  0
 60 61  1  0  0  0  0
 60 59  1  0  0  0  0
 60 58  1  0  0  0  0
 62 60  1  0  0  0  0
M  END
>  <MODEL>
2

>  <REMARK>
 VINA RESULT:      -6.5      4.244      8.546
  Name = 
  21 active torsions:
  status: ('A' for Active; 'I' for Inactive)
    1  A    between atoms: C_4  and  C_58
    2  A    between atoms: C_5  and  N_44
    3  A    between atoms: C_7  and  C_56
    4  A    between atoms: C_9  and  C_48
    5  A    between atoms: C_13  and  N_24
    6  A    between atoms: C_13  and  C_33
    7  A    between atoms: C_16  and  C_23
    8  A    between atoms: C_16  and  N_36
    9  A    between atoms: C_23  and  C_55
   10  A    between atoms: N_24  and  C_40
   11  A    between atoms: N_27  and  N_35
   12  A    between atoms: C_29  and  O_30
   13  A    between atoms: C_29  and  C_54
   14  A    between atoms: O_30  and  N_52
   15  A    between atoms: C_31  and  C_39
   16  A    between atoms: C_31  and  C_48
   17  A    between atoms: C_31  and  S_62
   18  A    between atoms: C_33  and  C_59
   19  A    between atoms: C_47  and  C_51
   20  A    between atoms: C_53  and  S_62
   21  A    between atoms: C_56  and  C_58
                            x       y       z     vdW  Elec       q    Type
                         _______ _______ _______ _____ _____    ______ ____

>  <TORSDO>
F 21

$$$$
=
 OpenBabel11062423023D

 62 66  0  0  1  0  0  0  0  0999 V2000
  190.3680  172.5330  140.2930 C   0  0  2  0  0  0  0  0  0  0  0  0
  191.2900  173.7590  140.4480 C   0  0  0  0  0  2  0  0  0  0  0  0
  191.6660  172.4960  141.0880 C   0  0  1  0  0  3  0  0  0  0  0  0
  190.7230  171.7930  136.7860 F   0  0  0  0  0  0  0  0  0  0  0  0
  189.8330  171.5190  137.8370 C   0  0  0  0  0  0  0  0  0  0  0  0
  190.4060  170.0950  139.2900 C   0  0  0  0  0  2  0  0  0  0  0  0
  189.6790  170.0040  137.9530 C   0  0  0  0  0  2  0  0  0  0  0  0
  188.6240  172.2110  137.8160 F   0  0  0  0  0  0  0  0  0  0  0  0
  190.6200  171.5530  139.1370 C   0  0  2  0  0  3  0  0  0  0  0  0
  189.3840  172.2010  141.2310 O   0  0  0  0  0  0  0  0  0  0  0  0
  188.0040  175.3820  140.4390 C   0  0  0  0  0  2  0  0  0  0  0  0
  189.4590  175.7990  142.3500 C   0  0  0  0  0  1  0  0  0  0  0  0
  188.5070  174.0760  139.8490 C   0  0  0  0  0  2  0  0  0  0  0  0
  188.2110  173.7570  142.2060 O   0  0  0  0  0  0  0  0  0  0  0  0
  188.3910  173.1720  141.0240 N   0  0  0  0  0  0  0  0  0  0  0  0
  188.1540  175.1810  141.9740 C   0  0  2  0  0  0  0  0  0  0  0  0
  187.1930  175.9210  143.0200 C   0  0  0  0  0  2  0  0  0  0  0  0
  186.9650  177.8110  141.3890 C   0  0  0  0  0  2  0  0  0  0  0  0
  186.6220  177.3400  142.7800 C   0  0  1  0  0  0  0  0  0  0  0  0
  185.1540  177.4700  142.8890 C   0  0  0  0  0  2  0  0  0  0  0  0
  184.5570  177.6820  141.5870 N   0  0  0  0  0  0  0  0  0  0  0  0
  185.6650  178.2710  140.7780 C   0  0  0  0  0  2  0  0  0  0  0  0
  182.4670  177.4920  139.7790 O   0  0  0  0  0  0  0  0  0  0  0  0
  183.3400  178.3750  141.7480 N   0  0  0  0  0  2  0  0  0  0  0  0
  182.2930  178.2090  140.7790 C   0  0  0  0  0  0  0  0  0  0  0  0
  181.0650  178.8840  141.0210 N   0  0  0  0  0  2  0  0  0  0  0  0
  179.8190  178.1470  141.1580 C   0  0  0  0  0  2  0  0  0  0  0  0
  178.6530  179.1070  141.4090 C   0  0  0  0  0  1  0  0  0  0  0  0
  187.0890  178.2230  143.8280 N   0  0  0  0  0  2  0  0  0  0  0  0
  189.2990  177.6770  144.8680 C   0  0  0  0  0  3  0  0  0  0  0  0
  188.0050  176.3880  146.9380 C   0  0  0  0  0  3  0  0  0  0  0  0
  189.3630  176.1810  146.7120 C   0  0  0  0  0  0  0  0  0  0  0  0
  190.0510  176.8820  145.7820 C   0  0  0  0  0  3  0  0  0  0  0  0
  187.9150  177.7210  144.9360 C   0  0  0  0  0  0  0  0  0  0  0  0
  190.2390  175.0470  147.6790 Cl  0  0  0  0  0  0  0  0  0  0  0  0
  187.2480  177.2400  146.0880 C   0  0  0  0  0  0  0  0  0  0  0  0
  185.1870  178.6240  146.4280 O   0  0  0  0  0  1  0  0  0  0  0  0
  185.7410  177.4020  146.3330 C   0  0  0  0  0  0  0  0  0  0  0  0
  184.9590  176.4000  146.3480 O   0  0  0  0  0  0  0  0  0  0  0  0
  191.4320  172.5260  142.8650 S   0  0  0  0  0  0  0  0  0  0  0  0
  193.0890  171.9670  143.1000 C   0  0  2  0  0  3  0  0  0  0  0  0
  193.0630  176.7270  142.7600 O   0  0  0  0  0  0  0  0  0  0  0  0
  193.7470  175.7010  142.9200 C   0  0  0  0  0  0  0  0  0  0  0  0
  195.1440  173.0710  143.4770 O   0  0  0  0  0  0  0  0  0  0  0  0
  193.8650  173.1890  143.3330 C   0  0  0  0  0  0  0  0  0  0  0  0
  193.1860  174.4550  143.3990 N   0  0  0  0  0  2  0  0  0  0  0  0
  195.1640  175.7400  142.6530 C   0  0  0  0  0  2  0  0  0  0  0  0
  195.4580  176.4950  141.3990 C   0  0  0  0  0  2  0  0  0  0  0  0
  196.1120  175.5800  140.4450 C   0  0  0  0  0  0  0  0  0  0  0  0
  197.2610  175.8710  139.9670 O   0  0  0  0  0  0  0  0  0  0  0  0
  195.3340  174.5180  139.9460 N   0  0  0  0  0  2  0  0  0  0  0  0
  194.3260  174.8460  138.9450 C   0  0  0  0  0  2  0  0  0  0  0  0
  194.0500  172.5400  138.1220 C   0  0  0  0  0  1  0  0  0  0  0  0
  194.4900  173.9240  137.8260 C   0  0  2  0  0  3  0  0  0  0  0  0
  197.0070  173.3060  137.1300 C   0  0  0  0  0  1  0  0  0  0  0  0
  195.7530  174.2040  136.9720 C   0  0  1  0  0  3  0  0  0  0  0  0
  195.3510  174.4680  135.6850 O   0  0  0  0  0  1  0  0  0  0  0  0
  193.5120  171.2070  141.8390 C   0  0  0  0  0  2  0  0  0  0  0  0
  194.2470  169.6470  143.4690 F   0  0  0  0  0  0  0  0  0  0  0  0
  193.8380  169.7430  142.1440 C   0  0  0  0  0  0  0  0  0  0  0  0
  194.8010  169.2380  141.2360 F   0  0  0  0  0  0  0  0  0  0  0  0
  192.6940  168.9980  142.1600 F   0  0  0  0  0  0  0  0  0  0  0  0
  1  2  1  0  0  0  0
  1  3  1  0  0  0  0
  1 10  1  1  0  0  0
  2  3  1  0  0  0  0
  3 40  1  1  0  0  0
  4  5  1  0  0  0  0
  5  7  1  0  0  0  0
  5  9  1  0  0  0  0
  7  6  1  0  0  0  0
  8  5  1  0  0  0  0
  9  6  1  1  0  0  0
  9  1  1  0  0  0  0
 11 16  1  0  0  0  0
 13 11  1  0  0  0  0
 13 15  1  0  0  0  0
 15 10  1  0  0  0  0
 15 14  1  0  0  0  0
 16 14  1  0  0  0  0
 16 12  1  1  0  0  0
 16 17  1  0  0  0  0
 18 19  1  0  0  0  0
 19 20  1  0  0  0  0
 19 17  1  1  0  0  0
 19 29  1  0  0  0  0
 21 24  1  0  0  0  0
 21 20  1  0  0  0  0
 22 18  1  0  0  0  0
 22 21  1  0  0  0  0
 23 25  2  0  0  0  0
 25 26  1  0  0  0  0
 25 24  1  0  0  0  0
 26 27  1  0  0  0  0
 27 28  1  0  0  0  0
 29 34  1  0  0  0  0
 30 34  2  0  0  0  0
 30 33  1  0  0  0  0
 32 31  1  0  0  0  0
 32 35  1  0  0  0  0
 33 32  2  0  0  0  0
 34 36  1  0  0  0  0
 36 38  1  0  0  0  0
 36 31  2  0  0  0  0
 38 39  2  0  0  0  0
 38 37  1  0  0  0  0
 40 41  1  0  0  0  0
 41 58  1  6  0  0  0
 41 45  1  0  0  0  0
 42 43  2  0  0  0  0
 43 46  1  0  0  0  0
 45 46  1  0  0  0  0
 45 44  2  0  0  0  0
 47 43  1  0  0  0  0
 48 47  1  0  0  0  0
 49 48  1  0  0  0  0
 50 49  2  0  0  0  0
 51 49  1  0  0  0  0
 52 51  1  0  0  0  0
 54 53  1  1  0  0  0
 54 52  1  0  0  0  0
 56 55  1  6  0  0  0
 56 54  1  0  0  0  0
 57 56  1  0  0  0  0
 58 60  1  0  0  0  0
 60 62  1  0  0  0  0
 60 59  1  0  0  0  0
 61 60  1  0  0  0  0
M  END
>  <MODEL>
3

>  <REMARK>
 VINA RESULT:      -6.4      4.333      8.834
  Name = 
  21 active torsions:
  status: ('A' for Active; 'I' for Inactive)
    1  A    between atoms: C_4  and  C_58
    2  A    between atoms: C_5  and  N_44
    3  A    between atoms: C_7  and  C_56
    4  A    between atoms: C_9  and  C_48
    5  A    between atoms: C_13  and  N_24
    6  A    between atoms: C_13  and  C_33
    7  A    between atoms: C_16  and  C_23
    8  A    between atoms: C_16  and  N_36
    9  A    between atoms: C_23  and  C_55
   10  A    between atoms: N_24  and  C_40
   11  A    between atoms: N_27  and  N_35
   12  A    between atoms: C_29  and  O_30
   13  A    between atoms: C_29  and  C_54
   14  A    between atoms: O_30  and  N_52
   15  A    between atoms: C_31  and  C_39
   16  A    between atoms: C_31  and  C_48
   17  A    between atoms: C_31  and  S_62
   18  A    between atoms: C_33  and  C_59
   19  A    between atoms: C_47  and  C_51
   20  A    between atoms: C_53  and  S_62
   21  A    between atoms: C_56  and  C_58
                            x       y       z     vdW  Elec       q    Type
                         _______ _______ _______ _____ _____    ______ ____

>  <TORSDO>
F 21

$$$$
=
 OpenBabel11062423023D

 62 66  0  0  1  0  0  0  0  0999 V2000
  187.2260  176.0090  142.8340 C   0  0  2  0  0  0  0  0  0  0  0  0
  185.7780  176.5130  142.9940 C   0  0  0  0  0  2  0  0  0  0  0  0
  186.8030  176.9710  143.9350 C   0  0  1  0  0  3  0  0  0  0  0  0
  190.4330  177.5690  142.3270 F   0  0  0  0  0  0  0  0  0  0  0  0
  189.0950  177.9480  142.5240 C   0  0  0  0  0  0  0  0  0  0  0  0
  187.7470  177.7360  140.9090 C   0  0  0  0  0  2  0  0  0  0  0  0
  188.6780  178.8530  141.3670 C   0  0  0  0  0  2  0  0  0  0  0  0
  188.7770  178.4550  143.7820 F   0  0  0  0  0  0  0  0  0  0  0  0
  188.2110  176.8330  141.9900 C   0  0  2  0  0  3  0  0  0  0  0  0
  187.7240  174.8980  143.5230 O   0  0  0  0  0  0  0  0  0  0  0  0
  189.0290  172.0320  141.8690 C   0  0  0  0  0  2  0  0  0  0  0  0
  190.1610  172.0680  144.0270 C   0  0  0  0  0  1  0  0  0  0  0  0
  187.7820  172.8750  142.0740 C   0  0  0  0  0  2  0  0  0  0  0  0
  189.6590  174.1190  142.8940 O   0  0  0  0  0  0  0  0  0  0  0  0
  188.3810  174.1590  142.5260 N   0  0  0  0  0  0  0  0  0  0  0  0
  190.1160  172.7620  142.7080 C   0  0  2  0  0  0  0  0  0  0  0  0
  191.6680  172.7000  142.3150 C   0  0  0  0  0  2  0  0  0  0  0  0
  191.9570  170.7700  140.7420 C   0  0  0  0  0  2  0  0  0  0  0  0
  192.1650  172.2530  140.9200 C   0  0  1  0  0  0  0  0  0  0  0  0
  191.4930  172.8850  139.7640 C   0  0  0  0  0  2  0  0  0  0  0  0
  190.6400  171.9350  139.0820 N   0  0  0  0  0  0  0  0  0  0  0  0
  191.2300  170.6090  139.4310 C   0  0  0  0  0  2  0  0  0  0  0  0
  188.4590  173.3600  138.1400 O   0  0  0  0  0  0  0  0  0  0  0  0
  190.5050  172.3270  137.7340 N   0  0  0  0  0  2  0  0  0  0  0  0
  189.3550  173.0840  137.3250 C   0  0  0  0  0  0  0  0  0  0  0  0
  189.2970  173.5040  135.9670 N   0  0  0  0  0  2  0  0  0  0  0  0
  189.2230  174.9140  135.6210 C   0  0  0  0  0  2  0  0  0  0  0  0
  190.6220  175.4740  135.3510 C   0  0  0  0  0  1  0  0  0  0  0  0
  193.5390  172.6750  140.7460 N   0  0  0  0  0  2  0  0  0  0  0  0
  194.3650  171.3170  142.6790 C   0  0  0  0  0  3  0  0  0  0  0  0
  196.9170  172.2840  142.2670 C   0  0  0  0  0  3  0  0  0  0  0  0
  196.5780  171.6670  143.4680 C   0  0  0  0  0  0  0  0  0  0  0  0
  195.3740  171.0810  143.6590 C   0  0  0  0  0  3  0  0  0  0  0  0
  194.6170  172.1190  141.5780 C   0  0  0  0  0  0  0  0  0  0  0  0
  197.7330  171.5730  144.7500 Cl  0  0  0  0  0  0  0  0  0  0  0  0
  195.9500  172.4600  141.2410 C   0  0  0  0  0  0  0  0  0  0  0  0
  196.7630  172.5100  138.8710 O   0  0  0  0  0  0  0  0  0  0  0  0
  196.3440  173.1940  139.9510 C   0  0  0  0  0  0  0  0  0  0  0  0
  196.1880  174.4500  139.8280 O   0  0  0  0  0  1  0  0  0  0  0  0
  186.6490  176.2050  145.5490 S   0  0  0  0  0  0  0  0  0  0  0  0
  187.6570  177.4710  146.2530 C   0  0  2  0  0  3  0  0  0  0  0  0
  192.2310  177.3120  144.8990 O   0  0  0  0  0  0  0  0  0  0  0  0
  191.3120  176.7510  145.5210 C   0  0  0  0  0  0  0  0  0  0  0  0
  188.9610  175.6990  147.1160 O   0  0  0  0  0  0  0  0  0  0  0  0
  188.9540  176.8280  146.4850 C   0  0  0  0  0  0  0  0  0  0  0  0
  190.1540  177.4660  146.0160 N   0  0  0  0  0  2  0  0  0  0  0  0
  191.3970  175.3380  145.7980 C   0  0  0  0  0  2  0  0  0  0  0  0
  192.7340  174.9750  146.3540 C   0  0  0  0  0  2  0  0  0  0  0  0
  193.3350  173.9450  145.4870 C   0  0  0  0  0  0  0  0  0  0  0  0
  193.5450  172.7690  145.9430 O   0  0  0  0  0  0  0  0  0  0  0  0
  193.8450  174.3750  144.2470 N   0  0  0  0  0  2  0  0  0  0  0  0
  195.1070  175.1040  144.2640 C   0  0  0  0  0  2  0  0  0  0  0  0
  193.9740  175.8840  142.2190 C   0  0  0  0  0  1  0  0  0  0  0  0
  195.0620  176.1030  143.2020 C   0  0  2  0  0  3  0  0  0  0  0  0
  197.7180  175.7420  143.0590 C   0  0  0  0  0  1  0  0  0  0  0  0
  196.4620  176.6000  142.7580 C   0  0  1  0  0  3  0  0  0  0  0  0
  196.3560  177.0990  141.4820 O   0  0  0  0  0  1  0  0  0  0  0  0
  186.9770  177.9530  147.5380 C   0  0  0  0  0  2  0  0  0  0  0  0
  186.0420  179.4050  145.9110 F   0  0  0  0  0  0  0  0  0  0  0  0
  185.9800  179.0800  147.2600 C   0  0  0  0  0  0  0  0  0  0  0  0
  186.2240  180.1930  148.1030 F   0  0  0  0  0  0  0  0  0  0  0  0
  184.7000  178.6150  147.3680 F   0  0  0  0  0  0  0  0  0  0  0  0
  1  2  1  0  0  0  0
  1 10  1  1  0  0  0
  1  3  1  0  0  0  0
  2  3  1  0  0  0  0
  3 40  1  1  0  0  0
  4  5  1  0  0  0  0
  5  8  1  0  0  0  0
  6  7  1  0  0  0  0
  7  5  1  0  0  0  0
  9  6  1  6  0  0  0
  9  5  1  0  0  0  0
  9  1  1  0  0  0  0
 11 13  1  0  0  0  0
 11 16  1  0  0  0  0
 13 15  1  0  0  0  0
 15 14  1  0  0  0  0
 15 10  1  0  0  0  0
 16 14  1  0  0  0  0
 16 12  1  1  0  0  0
 17 16  1  0  0  0  0
 18 19  1  0  0  0  0
 19 17  1  1  0  0  0
 20 19  1  0  0  0  0
 21 22  1  0  0  0  0
 21 20  1  0  0  0  0
 22 18  1  0  0  0  0
 24 21  1  0  0  0  0
 25 24  1  0  0  0  0
 25 23  2  0  0  0  0
 26 25  1  0  0  0  0
 27 26  1  0  0  0  0
 28 27  1  0  0  0  0
 29 19  1  0  0  0  0
 29 34  1  0  0  0  0
 30 33  1  0  0  0  0
 31 32  1  0  0  0  0
 32 33  2  0  0  0  0
 32 35  1  0  0  0  0
 34 30  2  0  0  0  0
 36 34  1  0  0  0  0
 36 31  2  0  0  0  0
 37 38  2  0  0  0  0
 38 36  1  0  0  0  0
 39 38  1  0  0  0  0
 40 41  1  0  0  0  0
 41 45  1  0  0  0  0
 41 58  1  1  0  0  0
 42 43  2  0  0  0  0
 43 47  1  0  0  0  0
 43 46  1  0  0  0  0
 45 44  2  0  0  0  0
 46 45  1  0  0  0  0
 47 48  1  0  0  0  0
 49 50  2  0  0  0  0
 49 48  1  0  0  0  0
 51 52  1  0  0  0  0
 51 49  1  0  0  0  0
 54 53  1  6  0  0  0
 54 52  1  0  0  0  0
 56 55  1  6  0  0  0
 56 54  1  0  0  0  0
 57 56  1  0  0  0  0
 59 60  1  0  0  0  0
 60 62  1  0  0  0  0
 60 58  1  0  0  0  0
 60 61  1  0  0  0  0
M  END
>  <MODEL>
4

>  <REMARK>
 VINA RESULT:      -6.3      2.062      2.750
  Name = 
  21 active torsions:
  status: ('A' for Active; 'I' for Inactive)
    1  A    between atoms: C_4  and  C_58
    2  A    between atoms: C_5  and  N_44
    3  A    between atoms: C_7  and  C_56
    4  A    between atoms: C_9  and  C_48
    5  A    between atoms: C_13  and  N_24
    6  A    between atoms: C_13  and  C_33
    7  A    between atoms: C_16  and  C_23
    8  A    between atoms: C_16  and  N_36
    9  A    between atoms: C_23  and  C_55
   10  A    between atoms: N_24  and  C_40
   11  A    between atoms: N_27  and  N_35
   12  A    between atoms: C_29  and  O_30
   13  A    between atoms: C_29  and  C_54
   14  A    between atoms: O_30  and  N_52
   15  A    between atoms: C_31  and  C_39
   16  A    between atoms: C_31  and  C_48
   17  A    between atoms: C_31  and  S_62
   18  A    between atoms: C_33  and  C_59
   19  A    between atoms: C_47  and  C_51
   20  A    between atoms: C_53  and  S_62
   21  A    between atoms: C_56  and  C_58
                            x       y       z     vdW  Elec       q    Type
                         _______ _______ _______ _____ _____    ______ ____

>  <TORSDO>
F 21

$$$$
=
 OpenBabel11062423023D

 62 66  0  0  1  0  0  0  0  0999 V2000
  189.2060  176.0860  143.3020 C   0  0  2  0  0  0  0  0  0  0  0  0
  189.1750  175.1420  144.5210 C   0  0  0  0  0  2  0  0  0  0  0  0
  190.2030  176.1830  144.4490 C   0  0  1  0  0  3  0  0  0  0  0  0
  187.0380  178.4100  144.9950 F   0  0  0  0  0  0  0  0  0  0  0  0
  187.0120  177.5730  143.8680 C   0  0  0  0  0  0  0  0  0  0  0  0
  188.0840  178.1750  142.1480 C   0  0  0  0  0  2  0  0  0  0  0  0
  186.6640  178.4220  142.6480 C   0  0  0  0  0  2  0  0  0  0  0  0
  186.2540  176.4090  143.9830 F   0  0  0  0  0  0  0  0  0  0  0  0
  188.4390  177.4160  143.3710 C   0  0  2  0  0  3  0  0  0  0  0  0
  190.0030  175.8460  142.1760 O   0  0  0  0  0  0  0  0  0  0  0  0
  188.0800  172.9150  141.5760 C   0  0  0  0  0  2  0  0  0  0  0  0
  190.2040  172.0920  142.4440 C   0  0  0  0  0  1  0  0  0  0  0  0
  188.0100  174.3610  142.0340 C   0  0  0  0  0  2  0  0  0  0  0  0
  190.1480  174.0120  141.0090 O   0  0  0  0  0  0  0  0  0  0  0  0
  189.2620  174.9050  141.4440 N   0  0  0  0  0  0  0  0  0  0  0  0
  189.5820  172.7030  141.2340 C   0  0  2  0  0  0  0  0  0  0  0  0
  190.0540  171.6470  140.1250 C   0  0  0  0  0  2  0  0  0  0  0  0
  191.4760  173.3360  138.9380 C   0  0  0  0  0  2  0  0  0  0  0  0
  190.6740  172.0700  138.7710 C   0  0  1  0  0  0  0  0  0  0  0  0
  191.6000  171.0960  138.1550 C   0  0  0  0  0  2  0  0  0  0  0  0
  192.9660  171.5690  138.2240 N   0  0  0  0  0  0  0  0  0  0  0  0
  192.8270  173.0510  138.3300 C   0  0  0  0  0  2  0  0  0  0  0  0
  195.6450  170.9020  138.4550 O   0  0  0  0  0  0  0  0  0  0  0  0
  193.7050  170.9910  137.1720 N   0  0  0  0  0  2  0  0  0  0  0  0
  195.0860  170.6520  137.3740 C   0  0  0  0  0  0  0  0  0  0  0  0
  195.7680  170.0170  136.2990 N   0  0  0  0  0  2  0  0  0  0  0  0
  196.3570  168.6980  136.4600 C   0  0  0  0  0  2  0  0  0  0  0  0
  197.8540  168.7360  136.1400 C   0  0  0  0  0  1  0  0  0  0  0  0
  189.6250  172.1700  137.7780 N   0  0  0  0  0  2  0  0  0  0  0  0
  188.1910  174.2010  138.0620 C   0  0  0  0  0  3  0  0  0  0  0  0
  188.7990  174.9900  135.4880 C   0  0  0  0  0  3  0  0  0  0  0  0
  187.7200  175.5500  136.1650 C   0  0  0  0  0  0  0  0  0  0  0  0
  187.4640  175.2720  137.4640 C   0  0  0  0  0  3  0  0  0  0  0  0
  189.1210  173.4780  137.3320 C   0  0  0  0  0  0  0  0  0  0  0  0
  186.6950  176.6920  135.3680 Cl  0  0  0  0  0  0  0  0  0  0  0  0
  189.5900  173.9770  136.0940 C   0  0  0  0  0  0  0  0  0  0  0  0
  191.9510  173.9240  135.2540 O   0  0  0  0  0  1  0  0  0  0  0  0
  190.7390  173.3410  135.2970 C   0  0  0  0  0  0  0  0  0  0  0  0
  190.6150  172.2020  134.7460 O   0  0  0  0  0  0  0  0  0  0  0  0
  191.8250  175.5270  144.0600 S   0  0  0  0  0  0  0  0  0  0  0  0
  192.4040  175.9880  145.6620 C   0  0  2  0  0  3  0  0  0  0  0  0
  196.0380  176.5900  142.6270 O   0  0  0  0  0  0  0  0  0  0  0  0
  195.6770  176.1970  143.7510 C   0  0  0  0  0  0  0  0  0  0  0  0
  194.5650  175.4940  146.4800 O   0  0  0  0  0  0  0  0  0  0  0  0
  193.8630  176.0270  145.5330 C   0  0  0  0  0  0  0  0  0  0  0  0
  194.4550  176.6520  144.3820 N   0  0  0  0  0  2  0  0  0  0  0  0
  196.5080  175.2760  144.4850 C   0  0  0  0  0  2  0  0  0  0  0  0
  196.9960  174.1700  143.6090 C   0  0  0  0  0  2  0  0  0  0  0  0
  196.6460  172.8850  144.2410 C   0  0  0  0  0  0  0  0  0  0  0  0
  197.4260  171.8800  144.1190 O   0  0  0  0  0  0  0  0  0  0  0  0
  195.3500  172.7720  144.7810 N   0  0  0  0  0  2  0  0  0  0  0  0
  194.2490  172.6130  143.8380 C   0  0  0  0  0  2  0  0  0  0  0  0
  194.1150  171.5290  141.6290 C   0  0  0  0  0  1  0  0  0  0  0  0
  194.5010  171.4080  143.0550 C   0  0  2  0  0  3  0  0  0  0  0  0
  192.8230  169.6470  144.1900 C   0  0  0  0  0  1  0  0  0  0  0  0
  194.2670  170.0940  143.8460 C   0  0  1  0  0  3  0  0  0  0  0  0
  195.0980  169.1290  143.3300 O   0  0  0  0  0  1  0  0  0  0  0  0
  191.9060  174.9380  146.6610 C   0  0  0  0  0  2  0  0  0  0  0  0
  191.6020  174.8800  149.0130 F   0  0  0  0  0  0  0  0  0  0  0  0
  191.2350  175.5860  147.8740 C   0  0  0  0  0  0  0  0  0  0  0  0
  189.8300  175.6540  147.7000 F   0  0  0  0  0  0  0  0  0  0  0  0
  191.7900  176.8090  148.1220 F   0  0  0  0  0  0  0  0  0  0  0  0
  1 10  1  6  0  0  0
  1  9  1  0  0  0  0
  1  3  1  0  0  0  0
  1  2  1  0  0  0  0
  3 40  1  6  0  0  0
  3  2  1  0  0  0  0
  5  8  1  0  0  0  0
  5  4  1  0  0  0  0
  6  7  1  0  0  0  0
  7  5  1  0  0  0  0
  9  6  1  6  0  0  0
  9  5  1  0  0  0  0
 11 13  1  0  0  0  0
 14 16  1  0  0  0  0
 14 15  1  0  0  0  0
 15 13  1  0  0  0  0
 15 10  1  0  0  0  0
 16 11  1  0  0  0  0
 16 12  1  1  0  0  0
 17 16  1  0  0  0  0
 19 18  1  0  0  0  0
 19 17  1  1  0  0  0
 20 21  1  0  0  0  0
 20 19  1  0  0  0  0
 21 22  1  0  0  0  0
 22 18  1  0  0  0  0
 24 25  1  0  0  0  0
 24 21  1  0  0  0  0
 25 23  2  0  0  0  0
 26 27  1  0  0  0  0
 26 25  1  0  0  0  0
 28 27  1  0  0  0  0
 29 19  1  0  0  0  0
 31 36  2  0  0  0  0
 31 32  1  0  0  0  0
 32 33  2  0  0  0  0
 33 30  1  0  0  0  0
 34 29  1  0  0  0  0
 34 30  2  0  0  0  0
 35 32  1  0  0  0  0
 36 34  1  0  0  0  0
 37 38  1  0  0  0  0
 38 36  1  0  0  0  0
 39 38  2  0  0  0  0
 40 41  1  0  0  0  0
 41 58  1  1  0  0  0
 42 43  2  0  0  0  0
 43 46  1  0  0  0  0
 43 47  1  0  0  0  0
 45 41  1  0  0  0  0
 45 44  2  0  0  0  0
 46 45  1  0  0  0  0
 48 49  1  0  0  0  0
 48 47  1  0  0  0  0
 49 51  1  0  0  0  0
 50 49  2  0  0  0  0
 52 51  1  0  0  0  0
 54 53  1  6  0  0  0
 54 52  1  0  0  0  0
 54 56  1  0  0  0  0
 56 55  1  6  0  0  0
 57 56  1  0  0  0  0
 58 60  1  0  0  0  0
 60 62  1  0  0  0  0
 60 59  1  0  0  0  0
 61 60  1  0  0  0  0
M  END
>  <MODEL>
5

>  <REMARK>
 VINA RESULT:      -6.2      2.866      5.666
  Name = 
  21 active torsions:
  status: ('A' for Active; 'I' for Inactive)
    1  A    between atoms: C_4  and  C_58
    2  A    between atoms: C_5  and  N_44
    3  A    between atoms: C_7  and  C_56
    4  A    between atoms: C_9  and  C_48
    5  A    between atoms: C_13  and  N_24
    6  A    between atoms: C_13  and  C_33
    7  A    between atoms: C_16  and  C_23
    8  A    between atoms: C_16  and  N_36
    9  A    between atoms: C_23  and  C_55
   10  A    between atoms: N_24  and  C_40
   11  A    between atoms: N_27  and  N_35
   12  A    between atoms: C_29  and  O_30
   13  A    between atoms: C_29  and  C_54
   14  A    between atoms: O_30  and  N_52
   15  A    between atoms: C_31  and  C_39
   16  A    between atoms: C_31  and  C_48
   17  A    between atoms: C_31  and  S_62
   18  A    between atoms: C_33  and  C_59
   19  A    between atoms: C_47  and  C_51
   20  A    between atoms: C_53  and  S_62
   21  A    between atoms: C_56  and  C_58
                            x       y       z     vdW  Elec       q    Type
                         _______ _______ _______ _____ _____    ______ ____

>  <TORSDO>
F 21

$$$$
=
 OpenBabel11062423023D

 62 66  0  0  1  0  0  0  0  0999 V2000
  189.8620  173.3750  139.2850 C   0  0  2  0  0  0  0  0  0  0  0  0
  191.3960  173.3010  139.4250 C   0  0  0  0  0  2  0  0  0  0  0  0
  190.6330  172.0630  139.2420 C   0  0  1  0  0  3  0  0  0  0  0  0
  190.0020  172.8950  135.7180 F   0  0  0  0  0  0  0  0  0  0  0  0
  189.9880  173.9540  136.6400 C   0  0  0  0  0  0  0  0  0  0  0  0
  188.1570  174.4400  137.5790 C   0  0  0  0  0  2  0  0  0  0  0  0
  188.8300  174.8840  136.2840 C   0  0  0  0  0  2  0  0  0  0  0  0
  191.2000  174.6110  136.8430 F   0  0  0  0  0  0  0  0  0  0  0  0
  189.2470  173.4830  137.8810 C   0  0  2  0  0  3  0  0  0  0  0  0
  188.9920  173.2250  140.3710 O   0  0  0  0  0  0  0  0  0  0  0  0
  189.3880  176.1160  142.4040 C   0  0  0  0  0  2  0  0  0  0  0  0
  188.5970  174.3910  143.9330 C   0  0  0  0  0  1  0  0  0  0  0  0
  189.9630  175.3520  141.2240 C   0  0  0  0  0  2  0  0  0  0  0  0
  187.7800  174.4750  141.6810 O   0  0  0  0  0  0  0  0  0  0  0  0
  188.7860  174.5420  140.8120 N   0  0  0  0  0  0  0  0  0  0  0  0
  188.1470  175.2790  142.8230 C   0  0  2  0  0  0  0  0  0  0  0  0
  186.8690  175.9530  143.5170 C   0  0  0  0  0  2  0  0  0  0  0  0
  186.8620  177.7930  141.8140 C   0  0  0  0  0  2  0  0  0  0  0  0
  186.3950  177.3900  143.1900 C   0  0  1  0  0  0  0  0  0  0  0  0
  184.9320  177.5990  143.1850 C   0  0  0  0  0  2  0  0  0  0  0  0
  184.4440  177.7950  141.8370 N   0  0  0  0  0  0  0  0  0  0  0  0
  185.6370  178.2970  141.0940 C   0  0  0  0  0  2  0  0  0  0  0  0
  182.4150  177.5400  139.9670 O   0  0  0  0  0  0  0  0  0  0  0  0
  183.2570  178.5550  141.8850 N   0  0  0  0  0  2  0  0  0  0  0  0
  182.2400  178.3510  140.8920 C   0  0  0  0  0  0  0  0  0  0  0  0
  181.0380  179.1010  141.0210 N   0  0  0  0  0  2  0  0  0  0  0  0
  179.7530  178.4380  141.1710 C   0  0  0  0  0  2  0  0  0  0  0  0
  179.1610  178.0990  139.8010 C   0  0  0  0  0  1  0  0  0  0  0  0
  186.8320  178.2850  144.2410 N   0  0  0  0  0  2  0  0  0  0  0  0
  189.1630  177.9140  145.0720 C   0  0  0  0  0  3  0  0  0  0  0  0
  188.1680  176.5160  147.2350 C   0  0  0  0  0  3  0  0  0  0  0  0
  189.5130  176.4210  146.8860 C   0  0  0  0  0  0  0  0  0  0  0  0
  190.0560  177.1790  145.9070 C   0  0  0  0  0  3  0  0  0  0  0  0
  187.7920  177.8460  145.2650 C   0  0  0  0  0  0  0  0  0  0  0  0
  190.5600  175.3570  147.7570 Cl  0  0  0  0  0  0  0  0  0  0  0  0
  187.2720  177.3080  146.4660 C   0  0  0  0  0  0  0  0  0  0  0  0
  185.2620  178.4170  147.4720 O   0  0  0  0  0  1  0  0  0  0  0  0
  185.7850  177.3460  146.8460 C   0  0  0  0  0  0  0  0  0  0  0  0
  184.9850  176.4240  146.4930 O   0  0  0  0  0  0  0  0  0  0  0  0
  190.5110  171.0990  140.7480 S   0  0  0  0  0  0  0  0  0  0  0  0
  190.9900  169.6470  139.8660 C   0  0  2  0  0  3  0  0  0  0  0  0
  192.9270  169.3190  144.2150 O   0  0  0  0  0  0  0  0  0  0  0  0
  193.0880  169.1610  142.9920 C   0  0  0  0  0  0  0  0  0  0  0  0
  193.1460  168.6900  140.0000 O   0  0  0  0  0  0  0  0  0  0  0  0
  192.0980  169.0870  140.6450 C   0  0  0  0  0  0  0  0  0  0  0  0
  191.9800  168.9910  142.0750 N   0  0  0  0  0  2  0  0  0  0  0  0
  194.4220  169.1120  142.4490 C   0  0  0  0  0  2  0  0  0  0  0  0
  195.2560  170.2400  142.9590 C   0  0  0  0  0  2  0  0  0  0  0  0
  195.3670  171.2570  141.8970 C   0  0  0  0  0  0  0  0  0  0  0  0
  196.2750  171.1510  141.0030 O   0  0  0  0  0  0  0  0  0  0  0  0
  194.5860  172.4190  142.0430 N   0  0  0  0  0  2  0  0  0  0  0  0
  195.0280  173.3970  143.0300 C   0  0  0  0  0  2  0  0  0  0  0  0
  192.8000  174.3850  143.3890 C   0  0  0  0  0  1  0  0  0  0  0  0
  193.9300  173.6180  143.9650 C   0  0  2  0  0  3  0  0  0  0  0  0
  195.7950  174.4490  145.7080 C   0  0  0  0  0  1  0  0  0  0  0  0
  194.3950  173.8420  145.4270 C   0  0  1  0  0  3  0  0  0  0  0  0
  193.3460  174.3780  146.1340 O   0  0  0  0  0  1  0  0  0  0  0  0
  191.3910  170.0700  138.4490 C   0  0  0  0  0  2  0  0  0  0  0  0
  191.5310  168.7310  136.4960 F   0  0  0  0  0  0  0  0  0  0  0  0
  190.6200  169.2850  137.3860 C   0  0  0  0  0  0  0  0  0  0  0  0
  189.6590  170.1080  136.7460 F   0  0  0  0  0  0  0  0  0  0  0  0
  190.0640  168.1660  137.9360 F   0  0  0  0  0  0  0  0  0  0  0  0
  1  2  1  0  0  0  0
  1 10  1  1  0  0  0
  3  1  1  0  0  0  0
  3  2  1  0  0  0  0
  3 40  1  1  0  0  0
  4  5  1  0  0  0  0
  5  8  1  0  0  0  0
  5  9  1  0  0  0  0
  7  5  1  0  0  0  0
  7  6  1  0  0  0  0
  9  6  1  1  0  0  0
  9  1  1  0  0  0  0
 10 15  1  0  0  0  0
 11 16  1  0  0  0  0
 13 11  1  0  0  0  0
 14 16  1  0  0  0  0
 15 13  1  0  0  0  0
 15 14  1  0  0  0  0
 16 17  1  0  0  0  0
 16 12  1  1  0  0  0
 18 19  1  0  0  0  0
 19 17  1  1  0  0  0
 19 29  1  0  0  0  0
 20 19  1  0  0  0  0
 21 24  1  0  0  0  0
 21 20  1  0  0  0  0
 22 18  1  0  0  0  0
 22 21  1  0  0  0  0
 23 25  2  0  0  0  0
 25 26  1  0  0  0  0
 25 24  1  0  0  0  0
 26 27  1  0  0  0  0
 28 27  1  0  0  0  0
 29 34  1  0  0  0  0
 30 34  2  0  0  0  0
 30 33  1  0  0  0  0
 32 31  1  0  0  0  0
 32 35  1  0  0  0  0
 33 32  2  0  0  0  0
 34 36  1  0  0  0  0
 36 38  1  0  0  0  0
 36 31  2  0  0  0  0
 38 37  1  0  0  0  0
 39 38  2  0  0  0  0
 41 58  1  6  0  0  0
 41 45  1  0  0  0  0
 41 40  1  0  0  0  0
 43 42  2  0  0  0  0
 44 45  2  0  0  0  0
 45 46  1  0  0  0  0
 46 43  1  0  0  0  0
 47 48  1  0  0  0  0
 47 43  1  0  0  0  0
 49 51  1  0  0  0  0
 49 48  1  0  0  0  0
 50 49  2  0  0  0  0
 51 52  1  0  0  0  0
 52 54  1  0  0  0  0
 54 53  1  6  0  0  0
 54 56  1  0  0  0  0
 56 55  1  6  0  0  0
 56 57  1  0  0  0  0
 59 60  1  0  0  0  0
 60 62  1  0  0  0  0
 60 58  1  0  0  0  0
 61 60  1  0  0  0  0
M  END
>  <MODEL>
6

>  <REMARK>
 VINA RESULT:      -6.1      4.435      8.996
  Name = 
  21 active torsions:
  status: ('A' for Active; 'I' for Inactive)
    1  A    between atoms: C_4  and  C_58
    2  A    between atoms: C_5  and  N_44
    3  A    between atoms: C_7  and  C_56
    4  A    between atoms: C_9  and  C_48
    5  A    between atoms: C_13  and  N_24
    6  A    between atoms: C_13  and  C_33
    7  A    between atoms: C_16  and  C_23
    8  A    between atoms: C_16  and  N_36
    9  A    between atoms: C_23  and  C_55
   10  A    between atoms: N_24  and  C_40
   11  A    between atoms: N_27  and  N_35
   12  A    between atoms: C_29  and  O_30
   13  A    between atoms: C_29  and  C_54
   14  A    between atoms: O_30  and  N_52
   15  A    between atoms: C_31  and  C_39
   16  A    between atoms: C_31  and  C_48
   17  A    between atoms: C_31  and  S_62
   18  A    between atoms: C_33  and  C_59
   19  A    between atoms: C_47  and  C_51
   20  A    between atoms: C_53  and  S_62
   21  A    between atoms: C_56  and  C_58
                            x       y       z     vdW  Elec       q    Type
                         _______ _______ _______ _____ _____    ______ ____

>  <TORSDO>
F 21

$$$$
=
 OpenBabel11062423023D

 62 66  0  0  1  0  0  0  0  0999 V2000
  191.4070  171.9840  139.8750 C   0  0  2  0  0  0  0  0  0  0  0  0
  191.2350  171.7290  141.3860 C   0  0  0  0  0  2  0  0  0  0  0  0
  190.1820  172.4400  140.6560 C   0  0  1  0  0  3  0  0  0  0  0  0
  191.7240  169.0190  137.8540 F   0  0  0  0  0  0  0  0  0  0  0  0
  191.5930  170.4060  137.6780 C   0  0  0  0  0  0  0  0  0  0  0  0
  189.6950  171.2800  137.9970 C   0  0  0  0  0  2  0  0  0  0  0  0
  190.3830  170.6640  136.7840 C   0  0  0  0  0  2  0  0  0  0  0  0
  192.7420  171.0890  137.2870 F   0  0  0  0  0  0  0  0  0  0  0  0
  190.8420  170.9590  138.8790 C   0  0  2  0  0  3  0  0  0  0  0  0
  191.9460  173.1690  139.3620 O   0  0  0  0  0  0  0  0  0  0  0  0
  195.3000  174.0900  140.1040 C   0  0  0  0  0  2  0  0  0  0  0  0
  195.5000  172.3350  138.4250 C   0  0  0  0  0  1  0  0  0  0  0  0
  193.8850  174.6170  139.9460 C   0  0  0  0  0  2  0  0  0  0  0  0
  193.7730  172.2270  140.0840 O   0  0  0  0  0  0  0  0  0  0  0  0
  193.0960  173.3720  140.1410 N   0  0  0  0  0  0  0  0  0  0  0  0
  195.1600  172.5610  139.8600 C   0  0  2  0  0  0  0  0  0  0  0  0
  196.1500  171.5020  140.5420 C   0  0  0  0  0  2  0  0  0  0  0  0
  197.9060  172.1860  142.1960 C   0  0  0  0  0  2  0  0  0  0  0  0
  196.5420  171.5620  142.0380 C   0  0  1  0  0  0  0  0  0  0  0  0
  195.6450  172.3520  142.9080 C   0  0  0  0  0  2  0  0  0  0  0  0
  196.2860  173.5800  143.3290 N   0  0  0  0  0  0  0  0  0  0  0  0
  197.7430  173.2760  143.2250 C   0  0  0  0  0  2  0  0  0  0  0  0
  195.9590  176.2440  144.0140 O   0  0  0  0  0  0  0  0  0  0  0  0
  195.7250  173.9930  144.5550 N   0  0  0  0  0  2  0  0  0  0  0  0
  195.5670  175.3940  144.8300 C   0  0  0  0  0  0  0  0  0  0  0  0
  194.9420  175.7540  146.0550 N   0  0  0  0  0  2  0  0  0  0  0  0
  193.7170  176.5360  146.0700 C   0  0  0  0  0  2  0  0  0  0  0  0
  192.5690  175.7490  145.4360 C   0  0  0  0  0  1  0  0  0  0  0  0
  196.4370  170.2360  142.6110 N   0  0  0  0  0  2  0  0  0  0  0  0
  197.2390  170.2490  144.9810 C   0  0  0  0  0  3  0  0  0  0  0  0
  194.8990  169.0210  145.7790 C   0  0  0  0  0  3  0  0  0  0  0  0
  196.0100  169.0420  146.6170 C   0  0  0  0  0  0  0  0  0  0  0  0
  197.1310  169.7320  146.3070 C   0  0  0  0  0  3  0  0  0  0  0  0
  196.2300  170.0430  144.0540 C   0  0  0  0  0  0  0  0  0  0  0  0
  195.9620  168.2250  148.1400 Cl  0  0  0  0  0  0  0  0  0  0  0  0
  194.9560  169.6000  144.4820 C   0  0  0  0  0  0  0  0  0  0  0  0
  192.5110  169.8750  144.0020 O   0  0  0  0  0  1  0  0  0  0  0  0
  193.7290  169.5090  143.5620 C   0  0  0  0  0  0  0  0  0  0  0  0
  193.8400  169.1890  142.3370 O   0  0  0  0  0  0  0  0  0  0  0  0
  190.1620  174.1970  141.0140 S   0  0  0  0  0  0  0  0  0  0  0  0
  189.0500  173.9180  142.3560 C   0  0  2  0  0  3  0  0  0  0  0  0
  187.4530  177.8410  140.1570 O   0  0  0  0  0  0  0  0  0  0  0  0
  187.2000  176.9220  140.9560 C   0  0  0  0  0  0  0  0  0  0  0  0
  186.7820  174.4840  142.7050 O   0  0  0  0  0  0  0  0  0  0  0  0
  187.8580  174.7020  142.0210 C   0  0  0  0  0  0  0  0  0  0  0  0
  187.9220  175.6670  140.9570 N   0  0  0  0  0  2  0  0  0  0  0  0
  186.1270  177.0790  141.9070 C   0  0  0  0  0  2  0  0  0  0  0  0
  185.1480  178.1100  141.4530 C   0  0  0  0  0  2  0  0  0  0  0  0
  184.0690  178.2030  142.4540 C   0  0  0  0  0  0  0  0  0  0  0  0
  182.8740  178.4610  142.0830 O   0  0  0  0  0  0  0  0  0  0  0  0
  184.4560  178.2060  143.8080 N   0  0  0  0  0  2  0  0  0  0  0  0
  185.0490  179.4320  144.3270 C   0  0  0  0  0  2  0  0  0  0  0  0
  187.0960  178.1640  144.8460 C   0  0  0  0  0  1  0  0  0  0  0  0
  186.0270  179.0620  145.3440 C   0  0  2  0  0  3  0  0  0  0  0  0
  183.9920  178.2860  146.9120 C   0  0  0  0  0  1  0  0  0  0  0  0
  185.4150  178.8820  146.7570 C   0  0  1  0  0  3  0  0  0  0  0  0
  186.3840  178.3670  147.5820 O   0  0  0  0  0  1  0  0  0  0  0  0
  189.7430  174.3780  143.6430 C   0  0  0  0  0  2  0  0  0  0  0  0
  189.0250  172.2080  144.2760 F   0  0  0  0  0  0  0  0  0  0  0  0
  189.8850  173.2330  144.6480 C   0  0  0  0  0  0  0  0  0  0  0  0
  189.6560  173.6880  145.9710 F   0  0  0  0  0  0  0  0  0  0  0  0
  191.1020  172.6310  144.5080 F   0  0  0  0  0  0  0  0  0  0  0  0
  1 10  1  6  0  0  0
  1  3  1  0  0  0  0
  1  2  1  0  0  0  0
  3 40  1  1  0  0  0
  3  2  1  0  0  0  0
  5  4  1  0  0  0  0
  5  9  1  0  0  0  0
  7  5  1  0  0  0  0
  7  6  1  0  0  0  0
  8  5  1  0  0  0  0
  9  6  1  6  0  0  0
  9  1  1  0  0  0  0
 10 15  1  0  0  0  0
 13 11  1  0  0  0  0
 13 15  1  0  0  0  0
 14 15  1  0  0  0  0
 16 12  1  6  0  0  0
 16 14  1  0  0  0  0
 16 11  1  0  0  0  0
 16 17  1  0  0  0  0
 18 22  1  0  0  0  0
 19 17  1  6  0  0  0
 19 18  1  0  0  0  0
 19 29  1  0  0  0  0
 19 20  1  0  0  0  0
 20 21  1  0  0  0  0
 21 24  1  0  0  0  0
 22 21  1  0  0  0  0
 23 25  2  0  0  0  0
 24 25  1  0  0  0  0
 25 26  1  0  0  0  0
 26 27  1  0  0  0  0
 28 27  1  0  0  0  0
 29 34  1  0  0  0  0
 30 33  1  0  0  0  0
 31 32  1  0  0  0  0
 32 35  1  0  0  0  0
 33 32  2  0  0  0  0
 34 36  1  0  0  0  0
 34 30  2  0  0  0  0
 36 31  2  0  0  0  0
 38 37  1  0  0  0  0
 38 36  1  0  0  0  0
 39 38  2  0  0  0  0
 40 41  1  0  0  0  0
 41 58  1  1  0  0  0
 42 43  2  0  0  0  0
 43 46  1  0  0  0  0
 43 47  1  0  0  0  0
 45 41  1  0  0  0  0
 45 44  2  0  0  0  0
 46 45  1  0  0  0  0
 48 47  1  0  0  0  0
 48 49  1  0  0  0  0
 49 51  1  0  0  0  0
 50 49  2  0  0  0  0
 51 52  1  0  0  0  0
 52 54  1  0  0  0  0
 54 53  1  6  0  0  0
 54 56  1  0  0  0  0
 56 55  1  6  0  0  0
 56 57  1  0  0  0  0
 58 60  1  0  0  0  0
 59 60  1  0  0  0  0
 60 61  1  0  0  0  0
 62 60  1  0  0  0  0
M  END
>  <MODEL>
7

>  <REMARK>
 VINA RESULT:      -6.0      3.598      8.410
  Name = 
  21 active torsions:
  status: ('A' for Active; 'I' for Inactive)
    1  A    between atoms: C_4  and  C_58
    2  A    between atoms: C_5  and  N_44
    3  A    between atoms: C_7  and  C_56
    4  A    between atoms: C_9  and  C_48
    5  A    between atoms: C_13  and  N_24
    6  A    between atoms: C_13  and  C_33
    7  A    between atoms: C_16  and  C_23
    8  A    between atoms: C_16  and  N_36
    9  A    between atoms: C_23  and  C_55
   10  A    between atoms: N_24  and  C_40
   11  A    between atoms: N_27  and  N_35
   12  A    between atoms: C_29  and  O_30
   13  A    between atoms: C_29  and  C_54
   14  A    between atoms: O_30  and  N_52
   15  A    between atoms: C_31  and  C_39
   16  A    between atoms: C_31  and  C_48
   17  A    between atoms: C_31  and  S_62
   18  A    between atoms: C_33  and  C_59
   19  A    between atoms: C_47  and  C_51
   20  A    between atoms: C_53  and  S_62
   21  A    between atoms: C_56  and  C_58
                            x       y       z     vdW  Elec       q    Type
                         _______ _______ _______ _____ _____    ______ ____

>  <TORSDO>
F 21

$$$$
=
 OpenBabel11062423023D

 62 66  0  0  1  0  0  0  0  0999 V2000
  188.7770  174.3470  141.8280 C   0  0  2  0  0  0  0  0  0  0  0  0
  188.5620  173.1120  142.7260 C   0  0  0  0  0  2  0  0  0  0  0  0
  189.1870  174.3090  143.2940 C   0  0  1  0  0  3  0  0  0  0  0  0
  187.4180  177.4210  140.5340 F   0  0  0  0  0  0  0  0  0  0  0  0
  187.9520  176.9280  141.7350 C   0  0  0  0  0  0  0  0  0  0  0  0
  186.7520  175.6450  142.9110 C   0  0  0  0  0  2  0  0  0  0  0  0
  186.9290  177.1590  142.8450 C   0  0  0  0  0  2  0  0  0  0  0  0
  189.2400  177.3500  142.0560 F   0  0  0  0  0  0  0  0  0  0  0  0
  187.6890  175.4320  141.7820 C   0  0  2  0  0  3  0  0  0  0  0  0
  189.9740  174.5900  141.1450 O   0  0  0  0  0  0  0  0  0  0  0  0
  189.3420  171.7490  139.1010 C   0  0  0  0  0  2  0  0  0  0  0  0
  191.2140  171.0880  140.5150 C   0  0  0  0  0  1  0  0  0  0  0  0
  188.6890  172.9040  139.8400 C   0  0  0  0  0  2  0  0  0  0  0  0
  191.0420  173.3410  139.7150 O   0  0  0  0  0  0  0  0  0  0  0  0
  189.8350  173.8430  139.9640 N   0  0  0  0  0  0  0  0  0  0  0  0
  190.8620  171.9550  139.3530 C   0  0  2  0  0  0  0  0  0  0  0  0
  191.9660  171.4610  138.3020 C   0  0  0  0  0  2  0  0  0  0  0  0
  191.1720  170.5520  136.1060 C   0  0  0  0  0  2  0  0  0  0  0  0
  191.8520  171.7160  136.7800 C   0  0  1  0  0  0  0  0  0  0  0  0
  191.0750  172.9090  136.3850 C   0  0  0  0  0  2  0  0  0  0  0  0
  189.8120  172.5270  135.7880 N   0  0  0  0  0  0  0  0  0  0  0  0
  190.0620  171.1470  135.2760 C   0  0  0  0  0  2  0  0  0  0  0  0
  188.8860  174.9800  136.6810 O   0  0  0  0  0  0  0  0  0  0  0  0
  189.3890  173.5500  134.9150 N   0  0  0  0  0  2  0  0  0  0  0  0
  188.9420  174.8050  135.4520 C   0  0  0  0  0  0  0  0  0  0  0  0
  188.5830  175.8230  134.5260 N   0  0  0  0  0  2  0  0  0  0  0  0
  189.2710  177.1030  134.5160 C   0  0  0  0  0  2  0  0  0  0  0  0
  190.7880  176.8980  134.5130 C   0  0  0  0  0  1  0  0  0  0  0  0
  193.1660  172.0140  136.2480 N   0  0  0  0  0  2  0  0  0  0  0  0
  194.6900  170.0590  136.5920 C   0  0  0  0  0  3  0  0  0  0  0  0
  196.0990  171.4910  138.4840 C   0  0  0  0  0  3  0  0  0  0  0  0
  196.2360  170.1090  138.3950 C   0  0  0  0  0  0  0  0  0  0  0  0
  195.6510  169.3920  137.4090 C   0  0  0  0  0  3  0  0  0  0  0  0
  194.3740  171.3900  136.8100 C   0  0  0  0  0  0  0  0  0  0  0  0
  197.2300  169.2610  139.5270 Cl  0  0  0  0  0  0  0  0  0  0  0  0
  195.2080  172.1910  137.6270 C   0  0  0  0  0  0  0  0  0  0  0  0
  194.2990  174.2150  138.7910 O   0  0  0  0  0  1  0  0  0  0  0  0
  195.0410  173.7090  137.7900 C   0  0  0  0  0  0  0  0  0  0  0  0
  195.6770  174.5290  137.0560 O   0  0  0  0  0  0  0  0  0  0  0  0
  190.9500  174.1120  143.5500 S   0  0  0  0  0  0  0  0  0  0  0  0
  190.8260  174.9510  145.0980 C   0  0  2  0  0  3  0  0  0  0  0  0
  194.5200  177.5340  146.6690 O   0  0  0  0  0  0  0  0  0  0  0  0
  194.1150  176.4180  146.2980 C   0  0  0  0  0  0  0  0  0  0  0  0
  192.8310  173.7810  145.5410 O   0  0  0  0  0  0  0  0  0  0  0  0
  192.1770  174.8900  145.6640 C   0  0  0  0  0  0  0  0  0  0  0  0
  192.7170  176.0420  146.3320 N   0  0  0  0  0  2  0  0  0  0  0  0
  195.0630  175.4310  145.8410 C   0  0  0  0  0  2  0  0  0  0  0  0
  195.7730  175.8920  144.6120 C   0  0  0  0  0  2  0  0  0  0  0  0
  195.4140  174.9920  143.5000 C   0  0  0  0  0  0  0  0  0  0  0  0
  194.2680  175.0920  142.9420 O   0  0  0  0  0  0  0  0  0  0  0  0
  196.2860  173.9170  143.2440 N   0  0  0  0  0  2  0  0  0  0  0  0
  196.2460  172.7930  144.1730 C   0  0  0  0  0  2  0  0  0  0  0  0
  195.7220  171.8190  141.9710 C   0  0  0  0  0  1  0  0  0  0  0  0
  195.7760  171.6230  143.4390 C   0  0  2  0  0  3  0  0  0  0  0  0
  194.6460  170.8180  145.7370 C   0  0  0  0  0  1  0  0  0  0  0  0
  194.6790  170.8210  144.1870 C   0  0  1  0  0  3  0  0  0  0  0  0
  193.4800  171.0400  143.5520 O   0  0  0  0  0  1  0  0  0  0  0  0
  189.7760  174.2240  145.9440 C   0  0  0  0  0  2  0  0  0  0  0  0
  188.5470  174.4920  147.9550 F   0  0  0  0  0  0  0  0  0  0  0  0
  189.0090  175.1920  146.8470 C   0  0  0  0  0  0  0  0  0  0  0  0
  187.9690  175.8360  146.1330 F   0  0  0  0  0  0  0  0  0  0  0  0
  189.8710  176.0780  147.4280 F   0  0  0  0  0  0  0  0  0  0  0  0
  1 10  1  6  0  0  0
  1  2  1  0  0  0  0
  1  3  1  0  0  0  0
  2  3  1  0  0  0  0
  3 40  1  6  0  0  0
  4  5  1  0  0  0  0
  5  9  1  0  0  0  0
  5  8  1  0  0  0  0
  5  7  1  0  0  0  0
  7  6  1  0  0  0  0
  9  1  1  0  0  0  0
  9  6  1  1  0  0  0
 11 16  1  0  0  0  0
 11 13  1  0  0  0  0
 13 15  1  0  0  0  0
 14 15  1  0  0  0  0
 15 10  1  0  0  0  0
 16 14  1  0  0  0  0
 16 12  1  1  0  0  0
 17 16  1  0  0  0  0
 18 19  1  0  0  0  0
 19 17  1  1  0  0  0
 20 19  1  0  0  0  0
 21 20  1  0  0  0  0
 22 21  1  0  0  0  0
 22 18  1  0  0  0  0
 24 25  1  0  0  0  0
 24 21  1  0  0  0  0
 25 23  2  0  0  0  0
 26 25  1  0  0  0  0
 27 26  1  0  0  0  0
 28 27  1  0  0  0  0
 29 19  1  0  0  0  0
 29 34  1  0  0  0  0
 30 34  2  0  0  0  0
 30 33  1  0  0  0  0
 32 31  1  0  0  0  0
 32 35  1  0  0  0  0
 33 32  2  0  0  0  0
 34 36  1  0  0  0  0
 36 38  1  0  0  0  0
 36 31  2  0  0  0  0
 38 37  1  0  0  0  0
 39 38  2  0  0  0  0
 40 41  1  0  0  0  0
 41 45  1  0  0  0  0
 41 58  1  1  0  0  0
 43 46  1  0  0  0  0
 43 42  2  0  0  0  0
 44 45  2  0  0  0  0
 45 46  1  0  0  0  0
 47 43  1  0  0  0  0
 48 47  1  0  0  0  0
 49 48  1  0  0  0  0
 50 49  2  0  0  0  0
 51 49  1  0  0  0  0
 51 52  1  0  0  0  0
 54 53  1  6  0  0  0
 54 52  1  0  0  0  0
 54 56  1  0  0  0  0
 56 55  1  1  0  0  0
 57 56  1  0  0  0  0
 58 60  1  0  0  0  0
 60 62  1  0  0  0  0
 60 59  1  0  0  0  0
 61 60  1  0  0  0  0
M  END
>  <MODEL>
8

>  <REMARK>
 VINA RESULT:      -6.0      2.678      3.690
  Name = 
  21 active torsions:
  status: ('A' for Active; 'I' for Inactive)
    1  A    between atoms: C_4  and  C_58
    2  A    between atoms: C_5  and  N_44
    3  A    between atoms: C_7  and  C_56
    4  A    between atoms: C_9  and  C_48
    5  A    between atoms: C_13  and  N_24
    6  A    between atoms: C_13  and  C_33
    7  A    between atoms: C_16  and  C_23
    8  A    between atoms: C_16  and  N_36
    9  A    between atoms: C_23  and  C_55
   10  A    between atoms: N_24  and  C_40
   11  A    between atoms: N_27  and  N_35
   12  A    between atoms: C_29  and  O_30
   13  A    between atoms: C_29  and  C_54
   14  A    between atoms: O_30  and  N_52
   15  A    between atoms: C_31  and  C_39
   16  A    between atoms: C_31  and  C_48
   17  A    between atoms: C_31  and  S_62
   18  A    between atoms: C_33  and  C_59
   19  A    between atoms: C_47  and  C_51
   20  A    between atoms: C_53  and  S_62
   21  A    between atoms: C_56  and  C_58
                            x       y       z     vdW  Elec       q    Type
                         _______ _______ _______ _____ _____    ______ ____

>  <TORSDO>
F 21

$$$$
=
 OpenBabel11062423023D

 62 66  0  0  1  0  0  0  0  0999 V2000
  188.9860  176.7930  143.7940 C   0  0  2  0  0  0  0  0  0  0  0  0
  189.6550  177.8830  142.9320 C   0  0  0  0  0  2  0  0  0  0  0  0
  188.1940  177.8480  143.0350 C   0  0  1  0  0  3  0  0  0  0  0  0
  189.9740  177.8890  147.0790 F   0  0  0  0  0  0  0  0  0  0  0  0
  189.5630  176.7080  146.4410 C   0  0  0  0  0  0  0  0  0  0  0  0
  187.5160  176.4890  145.9620 C   0  0  0  0  0  2  0  0  0  0  0  0
  188.3540  176.1540  147.1910 C   0  0  0  0  0  2  0  0  0  0  0  0
  190.5570  175.7640  146.1930 F   0  0  0  0  0  0  0  0  0  0  0  0
  188.6770  177.0960  145.2690 C   0  0  2  0  0  3  0  0  0  0  0  0
  188.5330  175.5790  143.2650 O   0  0  0  0  0  0  0  0  0  0  0  0
  190.5640  173.0940  141.7320 C   0  0  0  0  0  2  0  0  0  0  0  0
  189.4000  171.9210  143.5240 C   0  0  0  0  0  1  0  0  0  0  0  0
  189.7220  174.3300  141.4700 C   0  0  0  0  0  2  0  0  0  0  0  0
  190.1120  174.1900  143.8300 O   0  0  0  0  0  0  0  0  0  0  0  0
  189.7090  174.9550  142.8190 N   0  0  0  0  0  0  0  0  0  0  0  0
  190.4880  172.9110  143.2740 C   0  0  2  0  0  0  0  0  0  0  0  0
  191.6750  172.2230  144.1020 C   0  0  0  0  0  2  0  0  0  0  0  0
  192.7300  169.9490  144.0860 C   0  0  0  0  0  2  0  0  0  0  0  0
  192.7410  171.3140  143.4450 C   0  0  1  0  0  0  0  0  0  0  0  0
  192.5740  171.0690  141.9970 C   0  0  0  0  0  2  0  0  0  0  0  0
  192.1540  169.7050  141.7500 N   0  0  0  0  0  0  0  0  0  0  0  0
  192.6330  168.9600  142.9510 C   0  0  0  0  0  2  0  0  0  0  0  0
  190.4440  169.6620  139.5710 O   0  0  0  0  0  0  0  0  0  0  0  0
  192.5690  169.3240  140.4570 N   0  0  0  0  0  2  0  0  0  0  0  0
  191.6290  169.3490  139.3710 C   0  0  0  0  0  0  0  0  0  0  0  0
  192.1150  169.0120  138.0780 N   0  0  0  0  0  2  0  0  0  0  0  0
  192.0340  169.9580  136.9770 C   0  0  0  0  0  2  0  0  0  0  0  0
  190.6150  169.9970  136.4060 C   0  0  0  0  0  1  0  0  0  0  0  0
  194.0290  171.9740  143.4990 N   0  0  0  0  0  2  0  0  0  0  0  0
  194.0740  173.6160  141.6110 C   0  0  0  0  0  3  0  0  0  0  0  0
  195.1540  175.5190  143.2930 C   0  0  0  0  0  3  0  0  0  0  0  0
  195.2050  175.6830  141.9120 C   0  0  0  0  0  0  0  0  0  0  0  0
  194.5860  174.8300  141.0640 C   0  0  0  0  0  3  0  0  0  0  0  0
  194.2120  173.3300  142.9600 C   0  0  0  0  0  0  0  0  0  0  0  0
  196.0220  177.0460  141.2300 Cl  0  0  0  0  0  0  0  0  0  0  0  0
  194.5760  174.3550  143.8660 C   0  0  0  0  0  0  0  0  0  0  0  0
  193.4380  174.1890  146.0930 O   0  0  0  0  0  1  0  0  0  0  0  0
  194.5860  174.1810  145.3920 C   0  0  0  0  0  0  0  0  0  0  0  0
  195.6580  173.9210  146.0240 O   0  0  0  0  0  0  0  0  0  0  0  0
  187.4110  177.2360  141.5430 S   0  0  0  0  0  0  0  0  0  0  0  0
  185.8350  177.7470  142.1510 C   0  0  2  0  0  3  0  0  0  0  0  0
  181.3550  178.0690  140.5370 O   0  0  0  0  0  0  0  0  0  0  0  0
  182.5480  177.8620  140.2550 C   0  0  0  0  0  0  0  0  0  0  0  0
  185.5330  177.5860  139.8130 O   0  0  0  0  0  0  0  0  0  0  0  0
  184.9990  177.8780  140.9540 C   0  0  0  0  0  0  0  0  0  0  0  0
  183.6390  178.3260  141.0860 N   0  0  0  0  0  2  0  0  0  0  0  0
  182.8830  177.1610  139.0400 C   0  0  0  0  0  2  0  0  0  0  0  0
  181.7240  176.3650  138.5380 C   0  0  0  0  0  2  0  0  0  0  0  0
  182.2120  175.4260  137.5120 C   0  0  0  0  0  0  0  0  0  0  0  0
  183.0230  175.8290  136.6100 O   0  0  0  0  0  0  0  0  0  0  0  0
  181.5880  174.1640  137.4550 N   0  0  0  0  0  2  0  0  0  0  0  0
  180.2520  174.1090  136.8750 C   0  0  0  0  0  2  0  0  0  0  0  0
  178.8100  172.6420  135.5190 C   0  0  0  0  0  1  0  0  0  0  0  0
  180.0820  172.7960  136.2640 C   0  0  2  0  0  3  0  0  0  0  0  0
  180.0060  171.2640  138.4680 C   0  0  0  0  0  1  0  0  0  0  0  0
  180.6650  171.6360  137.1140 C   0  0  1  0  0  3  0  0  0  0  0  0
  180.9580  170.5920  136.2720 O   0  0  0  0  0  1  0  0  0  0  0  0
  186.0290  179.0650  142.9070 C   0  0  0  0  0  2  0  0  0  0  0  0
  185.9550  179.5570  145.2270 F   0  0  0  0  0  0  0  0  0  0  0  0
  185.1650  179.1240  144.1700 C   0  0  0  0  0  0  0  0  0  0  0  0
  184.5500  177.8730  144.4220 F   0  0  0  0  0  0  0  0  0  0  0  0
  184.2590  180.1410  144.0740 F   0  0  0  0  0  0  0  0  0  0  0  0
  1 10  1  6  0  0  0
  1  9  1  0  0  0  0
  2  3  1  0  0  0  0
  2  1  1  0  0  0  0
  3 40  1  6  0  0  0
  3  1  1  0  0  0  0
  5  4  1  0  0  0  0
  5  7  1  0  0  0  0
  6  7  1  0  0  0  0
  8  5  1  0  0  0  0
  9  6  1  1  0  0  0
  9  5  1  0  0  0  0
 11 16  1  0  0  0  0
 13 11  1  0  0  0  0
 13 15  1  0  0  0  0
 15 10  1  0  0  0  0
 15 14  1  0  0  0  0
 16 12  1  1  0  0  0
 16 14  1  0  0  0  0
 16 17  1  0  0  0  0
 19 29  1  0  0  0  0
 19 18  1  0  0  0  0
 19 17  1  1  0  0  0
 20 19  1  0  0  0  0
 21 20  1  0  0  0  0
 21 22  1  0  0  0  0
 22 18  1  0  0  0  0
 24 21  1  0  0  0  0
 25 23  2  0  0  0  0
 25 24  1  0  0  0  0
 26 25  1  0  0  0  0
 27 26  1  0  0  0  0
 28 27  1  0  0  0  0
 30 34  1  0  0  0  0
 31 36  1  0  0  0  0
 32 31  2  0  0  0  0
 33 30  2  0  0  0  0
 33 32  1  0  0  0  0
 34 29  1  0  0  0  0
 34 36  2  0  0  0  0
 35 32  1  0  0  0  0
 36 38  1  0  0  0  0
 38 39  2  0  0  0  0
 38 37  1  0  0  0  0
 40 41  1  0  0  0  0
 41 58  1  6  0  0  0
 43 42  2  0  0  0  0
 43 46  1  0  0  0  0
 44 45  2  0  0  0  0
 45 46  1  0  0  0  0
 45 41  1  0  0  0  0
 47 43  1  0  0  0  0
 48 47  1  0  0  0  0
 49 48  1  0  0  0  0
 50 49  2  0  0  0  0
 51 49  1  0  0  0  0
 52 51  1  0  0  0  0
 54 53  1  1  0  0  0
 54 52  1  0  0  0  0
 54 56  1  0  0  0  0
 56 55  1  1  0  0  0
 57 56  1  0  0  0  0
 58 60  1  0  0  0  0
 60 61  1  0  0  0  0
 60 59  1  0  0  0  0
 62 60  1  0  0  0  0
M  END
>  <MODEL>
9

>  <REMARK>
 VINA RESULT:      -5.9      4.429      8.433
  Name = 
  21 active torsions:
  status: ('A' for Active; 'I' for Inactive)
    1  A    between atoms: C_4  and  C_58
    2  A    between atoms: C_5  and  N_44
    3  A    between atoms: C_7  and  C_56
    4  A    between atoms: C_9  and  C_48
    5  A    between atoms: C_13  and  N_24
    6  A    between atoms: C_13  and  C_33
    7  A    between atoms: C_16  and  C_23
    8  A    between atoms: C_16  and  N_36
    9  A    between atoms: C_23  and  C_55
   10  A    between atoms: N_24  and  C_40
   11  A    between atoms: N_27  and  N_35
   12  A    between atoms: C_29  and  O_30
   13  A    between atoms: C_29  and  C_54
   14  A    between atoms: O_30  and  N_52
   15  A    between atoms: C_31  and  C_39
   16  A    between atoms: C_31  and  C_48
   17  A    between atoms: C_31  and  S_62
   18  A    between atoms: C_33  and  C_59
   19  A    between atoms: C_47  and  C_51
   20  A    between atoms: C_53  and  S_62
   21  A    between atoms: C_56  and  C_58
                            x       y       z     vdW  Elec       q    Type
                         _______ _______ _______ _____ _____    ______ ____

>  <TORSDO>
F 21

$$$$
