=
 OpenBabel11072409173D

 39 46  0  0  1  0  0  0  0  0999 V2000
  186.6910  177.4830  143.3780 C   0  0  0  0  0  3  0  0  0  0  0  0
  190.1010  173.2950  140.8470 C   0  0  2  0  0  3  0  0  0  0  0  0
  190.4130  173.2710  143.6180 C   0  0  0  0  0  2  0  0  0  0  0  0
  194.8160  172.1090  143.7300 C   0  0  0  0  0  2  0  0  0  0  0  0
  192.6440  176.3890  144.6570 C   0  0  0  0  0  0  0  0  0  0  0  0
  191.2240  171.4420  141.6620 C   0  0  2  0  0  3  0  0  0  0  0  0
  194.6770  174.0350  145.3750 C   0  0  0  0  0  0  0  0  0  0  0  0
  190.1750  177.5090  144.9360 C   0  0  1  0  0  3  0  0  0  0  0  0
  191.8090  172.9130  143.3800 C   0  0  1  0  0  0  0  0  0  0  0  0
  190.9700  174.8340  145.7120 O   0  0  0  0  0  0  0  0  0  0  0  0
  192.4150  173.7350  142.4220 O   0  0  0  0  0  1  0  0  0  0  0  0
  193.1740  173.8370  145.4660 C   0  0  2  0  0  3  0  0  0  0  0  0
  193.3840  177.3100  145.4020 O   0  0  0  0  0  1  0  0  0  0  0  0
  192.5800  172.6200  144.6820 C   0  0  2  0  0  3  0  0  0  0  0  0
  187.8930  174.1150  142.0590 C   0  0  0  0  0  2  0  0  0  0  0  0
  187.8140  175.4070  142.8160 C   0  0  0  0  0  0  0  0  0  0  0  0
  193.4260  176.0020  143.5700 O   0  0  0  0  0  1  0  0  0  0  0  0
  188.8910  174.2650  140.9120 C   0  0  2  0  0  3  0  0  0  0  0  0
  188.9110  175.8260  143.5650 C   0  0  0  0  0  3  0  0  0  0  0  0
  191.3410  176.7880  146.9730 O   0  0  0  0  0  0  0  0  0  0  0  0
  192.3290  175.1340  145.5360 C   0  0  1  0  0  0  0  0  0  0  0  0
  190.6700  171.9170  142.9450 C   0  0  2  0  0  0  0  0  0  0  0  0
  195.2690  174.8810  146.2160 C   0  0  0  0  0  2  0  0  0  0  0  0
  190.1690  172.9470  139.4320 N   0  0  0  0  0  0  0  0  0  0  0  0
  189.1390  173.4090  138.8140 C   0  0  0  0  0  0  0  0  0  0  0  0
  189.9160  172.0620  141.6370 N   0  0  1  0  0  0  0  0  0  0  0  0
  195.5700  173.0720  144.6380 C   0  0  0  0  0  2  0  0  0  0  0  0
  188.2410  174.1460  139.6220 N   0  0  0  0  0  2  0  0  0  0  0  0
  188.9340  177.0700  144.2060 C   0  0  0  0  0  0  0  0  0  0  0  0
  193.6160  171.5250  144.4540 C   0  0  0  0  0  2  0  0  0  0  0  0
  187.8100  177.8990  144.1160 C   0  0  0  0  0  3  0  0  0  0  0  0
  186.6960  176.2430  142.7200 C   0  0  0  0  0  3  0  0  0  0  0  0
  190.0840  177.0820  146.4170 C   0  0  0  0  0  2  0  0  0  0  0  0
  191.6220  175.4020  146.8310 C   0  0  2  0  0  3  0  0  0  0  0  0
  191.0700  169.9370  141.5780 C   0  0  0  0  0  1  0  0  0  0  0  0
  191.4080  177.1000  144.0790 C   0  0  0  0  0  2  0  0  0  0  0  0
  188.8890  173.1440  137.3690 C   0  0  0  0  0  2  0  0  0  0  0  0
  189.3420  174.3210  136.5230 C   0  0  0  0  0  2  0  0  0  0  0  0
  188.2620  175.1670  136.2640 O   0  0  0  0  0  1  0  0  0  0  0  0
  1 31  1  0  0  0  0
  2 24  1  6  0  0  0
  2 18  1  0  0  0  0
  2 26  1  0  0  0  0
  4 30  1  0  0  0  0
  4 27  1  0  0  0  0
  5 13  1  0  0  0  0
  5 21  1  0  0  0  0
  6 35  1  1  0  0  0
  6 22  1  0  0  0  0
  7 23  2  0  0  0  0
  8 36  1  6  0  0  0
  8 33  1  0  0  0  0
  9 11  1  6  0  0  0
  9  3  1  0  0  0  0
  9 14  1  0  0  0  0
 10 34  1  0  0  0  0
 12  7  1  6  0  0  0
 12 21  1  0  0  0  0
 14 30  1  6  0  0  0
 14 12  1  0  0  0  0
 15 16  1  0  0  0  0
 16 19  2  0  0  0  0
 17  5  1  0  0  0  0
 18 15  1  1  0  0  0
 19 29  1  0  0  0  0
 21 10  1  6  0  0  0
 21 34  1  0  0  0  0
 22  9  1  0  0  0  0
 22  3  1  1  0  0  0
 25 24  2  0  0  0  0
 25 28  1  0  0  0  0
 26  6  1  0  0  0  0
 26 22  1  0  0  0  0
 27  7  1  0  0  0  0
 28 18  1  0  0  0  0
 29  8  1  0  0  0  0
 31 29  2  0  0  0  0
 32 16  1  0  0  0  0
 32  1  2  0  0  0  0
 33 20  1  0  0  0  0
 34 20  1  0  0  0  0
 36  5  1  0  0  0  0
 37 25  1  0  0  0  0
 38 37  1  0  0  0  0
 39 38  1  0  0  0  0
M  END
>  <MODEL>
1

>  <REMARK>
 VINA RESULT:      -9.2      0.000      0.000
  Name = 
  2 active torsions:
  status: ('A' for Active; 'I' for Inactive)
    1  A    between atoms: C_12  and  C_28
    2  A    between atoms: C_26  and  C_28
                            x       y       z     vdW  Elec       q    Type
                         _______ _______ _______ _____ _____    ______ ____

>  <TORSDO>
F 2

$$$$
=
 OpenBabel11072409173D

 39 46  0  0  1  0  0  0  0  0999 V2000
  186.6000  177.7660  147.4420 C   0  0  0  0  0  3  0  0  0  0  0  0
  187.6780  176.3310  141.7550 C   0  0  2  0  0  3  0  0  0  0  0  0
  189.1240  174.6790  143.4740 C   0  0  0  0  0  2  0  0  0  0  0  0
  192.8190  174.1580  140.8610 C   0  0  0  0  0  2  0  0  0  0  0  0
  192.1700  176.7610  144.9470 C   0  0  0  0  0  0  0  0  0  0  0  0
  188.6370  174.4920  140.7260 C   0  0  2  0  0  3  0  0  0  0  0  0
  193.7880  174.6790  143.1460 C   0  0  0  0  0  0  0  0  0  0  0  0
  190.3400  177.2190  146.9140 C   0  0  1  0  0  3  0  0  0  0  0  0
  190.1820  174.6860  142.4660 C   0  0  1  0  0  0  0  0  0  0  0  0
  190.8240  174.7180  145.5360 O   0  0  0  0  0  0  0  0  0  0  0  0
  190.4780  175.9770  142.0130 O   0  0  0  0  0  1  0  0  0  0  0  0
  192.4600  174.3090  143.7840 C   0  0  2  0  0  3  0  0  0  0  0  0
  193.3270  177.1210  145.6410 O   0  0  0  0  0  1  0  0  0  0  0  0
  191.3550  173.7530  142.8260 C   0  0  2  0  0  3  0  0  0  0  0  0
  186.4120  176.0180  144.0610 C   0  0  0  0  0  2  0  0  0  0  0  0
  186.9270  176.5790  145.3530 C   0  0  0  0  0  0  0  0  0  0  0  0
  192.3190  177.1910  143.6300 O   0  0  0  0  0  1  0  0  0  0  0  0
  186.8370  176.9320  142.9120 C   0  0  2  0  0  3  0  0  0  0  0  0
  188.2990  176.5760  145.5970 C   0  0  0  0  0  3  0  0  0  0  0  0
  192.0860  175.5470  147.3430 O   0  0  0  0  0  0  0  0  0  0  0  0
  192.0090  175.2060  144.9650 C   0  0  1  0  0  0  0  0  0  0  0  0
  188.7900  174.0380  142.1220 C   0  0  2  0  0  0  0  0  0  0  0  0
  194.8400  174.9070  143.9310 C   0  0  0  0  0  2  0  0  0  0  0  0
  187.0660  176.9120  140.5650 N   0  0  0  0  0  0  0  0  0  0  0  0
  185.9900  177.5410  140.8860 C   0  0  0  0  0  0  0  0  0  0  0  0
  187.5980  174.8590  141.6660 N   0  0  1  0  0  0  0  0  0  0  0  0
  194.0660  174.4550  141.6830 C   0  0  0  0  0  2  0  0  0  0  0  0
  185.6920  177.5440  142.2690 N   0  0  0  0  0  2  0  0  0  0  0  0
  188.8450  177.1790  146.7360 C   0  0  0  0  0  0  0  0  0  0  0  0
  191.9480  173.1320  141.5660 C   0  0  0  0  0  2  0  0  0  0  0  0
  187.9850  177.7710  147.6680 C   0  0  0  0  0  3  0  0  0  0  0  0
  186.0720  177.1800  146.2820 C   0  0  0  0  0  3  0  0  0  0  0  0
  190.8000  175.9810  147.7120 C   0  0  0  0  0  2  0  0  0  0  0  0
  191.9900  174.5640  146.3210 C   0  0  2  0  0  3  0  0  0  0  0  0
  188.1570  173.3340  139.8740 C   0  0  0  0  0  1  0  0  0  0  0  0
  190.9800  177.5400  145.5320 C   0  0  0  0  0  2  0  0  0  0  0  0
  185.1020  178.1730  139.8690 C   0  0  0  0  0  2  0  0  0  0  0  0
  183.8170  178.6660  140.5130 C   0  0  0  0  0  2  0  0  0  0  0  0
  182.7500  177.8470  140.1380 O   0  0  0  0  0  1  0  0  0  0  0  0
  1 31  1  0  0  0  0
  2 24  1  6  0  0  0
  2 18  1  0  0  0  0
  4 30  1  0  0  0  0
  4 27  1  0  0  0  0
  5 21  1  0  0  0  0
  5 36  1  0  0  0  0
  5 13  1  0  0  0  0
  6 35  1  6  0  0  0
  6 26  1  0  0  0  0
  6 22  1  0  0  0  0
  7 23  2  0  0  0  0
  8 36  1  6  0  0  0
  8 33  1  0  0  0  0
  9 11  1  6  0  0  0
  9 14  1  0  0  0  0
  9  3  1  0  0  0  0
 10 34  1  0  0  0  0
 12  7  1  6  0  0  0
 12 21  1  0  0  0  0
 14 30  1  6  0  0  0
 14 12  1  0  0  0  0
 15 16  1  0  0  0  0
 16 19  2  0  0  0  0
 16 32  1  0  0  0  0
 17  5  1  0  0  0  0
 18 15  1  1  0  0  0
 19 29  1  0  0  0  0
 20 33  1  0  0  0  0
 21 10  1  6  0  0  0
 21 34  1  0  0  0  0
 22  9  1  0  0  0  0
 22  3  1  1  0  0  0
 24 25  2  0  0  0  0
 25 28  1  0  0  0  0
 26  2  1  0  0  0  0
 26 22  1  0  0  0  0
 27  7  1  0  0  0  0
 28 18  1  0  0  0  0
 29  8  1  0  0  0  0
 29 31  2  0  0  0  0
 32  1  2  0  0  0  0
 34 20  1  0  0  0  0
 37 38  1  0  0  0  0
 37 25  1  0  0  0  0
 39 38  1  0  0  0  0
M  END
>  <MODEL>
2

>  <REMARK>
 VINA RESULT:      -8.8      2.437      3.628
  Name = 
  2 active torsions:
  status: ('A' for Active; 'I' for Inactive)
    1  A    between atoms: C_12  and  C_28
    2  A    between atoms: C_26  and  C_28
                            x       y       z     vdW  Elec       q    Type
                         _______ _______ _______ _____ _____    ______ ____

>  <TORSDO>
F 2

$$$$
=
 OpenBabel11072409173D

 39 46  0  0  1  0  0  0  0  0999 V2000
  191.2600  176.2780  148.0110 C   0  0  0  0  0  3  0  0  0  0  0  0
  189.7830  175.0590  142.3630 C   0  0  2  0  0  3  0  0  0  0  0  0
  191.9870  173.5420  143.1500 C   0  0  0  0  0  2  0  0  0  0  0  0
  194.1390  173.4580  139.1360 C   0  0  0  0  0  2  0  0  0  0  0  0
  195.1750  175.9100  143.2360 C   0  0  0  0  0  0  0  0  0  0  0  0
  190.3330  173.3480  140.9020 C   0  0  2  0  0  3  0  0  0  0  0  0
  195.9840  174.0420  140.7760 C   0  0  0  0  0  0  0  0  0  0  0  0
  194.3930  176.1400  145.8370 C   0  0  1  0  0  3  0  0  0  0  0  0
  192.4730  173.6770  141.7790 C   0  0  1  0  0  0  0  0  0  0  0  0
  194.4220  173.7270  144.2350 O   0  0  0  0  0  0  0  0  0  0  0  0
  192.4180  175.0000  141.3220 O   0  0  0  0  0  1  0  0  0  0  0  0
  195.1230  173.5220  141.9150 C   0  0  2  0  0  3  0  0  0  0  0  0
  196.4840  176.3800  143.3620 O   0  0  0  0  0  1  0  0  0  0  0  0
  193.7580  172.8680  141.5180 C   0  0  2  0  0  3  0  0  0  0  0  0
  189.7240  174.5750  144.9670 C   0  0  0  0  0  2  0  0  0  0  0  0
  190.7140  175.1660  145.9260 C   0  0  0  0  0  0  0  0  0  0  0  0
  194.6760  176.3750  142.0200 O   0  0  0  0  0  1  0  0  0  0  0  0
  189.5040  175.5480  143.8090 C   0  0  2  0  0  3  0  0  0  0  0  0
  192.0430  175.3050  145.5310 C   0  0  0  0  0  3  0  0  0  0  0  0
  196.2840  174.6550  145.3360 O   0  0  0  0  0  0  0  0  0  0  0  0
  195.1760  174.3470  143.2270 C   0  0  1  0  0  0  0  0  0  0  0  0
  191.1370  172.8910  142.0520 C   0  0  2  0  0  0  0  0  0  0  0  0
  197.2520  174.3680  141.0220 C   0  0  0  0  0  2  0  0  0  0  0  0
  188.6530  175.5910  141.6100 N   0  0  0  0  0  0  0  0  0  0  0  0
  187.7860  176.0960  142.4160 C   0  0  0  0  0  0  0  0  0  0  0  0
  189.8010  173.5880  142.2280 N   0  0  1  0  0  0  0  0  0  0  0  0
  195.5920  173.8720  139.3320 C   0  0  0  0  0  2  0  0  0  0  0  0
  188.1430  176.0450  143.7840 N   0  0  0  0  0  2  0  0  0  0  0  0
  192.9890  175.9440  146.3420 C   0  0  0  0  0  0  0  0  0  0  0  0
  193.7730  172.3340  140.0900 C   0  0  0  0  0  2  0  0  0  0  0  0
  192.5920  176.4260  147.5950 C   0  0  0  0  0  3  0  0  0  0  0  0
  190.3200  175.6580  147.1740 C   0  0  0  0  0  3  0  0  0  0  0  0
  195.2700  174.9440  146.2670 C   0  0  0  0  0  2  0  0  0  0  0  0
  195.8250  173.6850  144.4060 C   0  0  2  0  0  3  0  0  0  0  0  0
  189.6240  172.1610  140.2830 C   0  0  0  0  0  1  0  0  0  0  0  0
  194.3120  176.5490  144.3370 C   0  0  0  0  0  2  0  0  0  0  0  0
  186.4840  176.6470  141.9440 C   0  0  0  0  0  2  0  0  0  0  0  0
  186.6350  178.1020  141.5330 C   0  0  0  0  0  2  0  0  0  0  0  0
  186.3320  178.9370  142.6100 O   0  0  0  0  0  1  0  0  0  0  0  0
  2 24  1  6  0  0  0
  2 18  1  0  0  0  0
  4 27  1  0  0  0  0
  4 30  1  0  0  0  0
  5 13  1  0  0  0  0
  5 36  1  0  0  0  0
  6 35  1  6  0  0  0
  6 22  1  0  0  0  0
  6 26  1  0  0  0  0
  7 23  2  0  0  0  0
  8 36  1  6  0  0  0
  8 33  1  0  0  0  0
  8 29  1  0  0  0  0
  9 11  1  6  0  0  0
  9 22  1  0  0  0  0
  9  3  1  0  0  0  0
 10 34  1  0  0  0  0
 12  7  1  6  0  0  0
 12 21  1  0  0  0  0
 14 30  1  6  0  0  0
 14  9  1  0  0  0  0
 14 12  1  0  0  0  0
 15 16  1  0  0  0  0
 16 32  1  0  0  0  0
 17  5  1  0  0  0  0
 18 15  1  1  0  0  0
 19 16  2  0  0  0  0
 19 29  1  0  0  0  0
 20 33  1  0  0  0  0
 21  5  1  0  0  0  0
 21 10  1  1  0  0  0
 21 34  1  0  0  0  0
 22 26  1  0  0  0  0
 22  3  1  1  0  0  0
 24 25  2  0  0  0  0
 25 28  1  0  0  0  0
 26  2  1  0  0  0  0
 27  7  1  0  0  0  0
 28 18  1  0  0  0  0
 29 31  2  0  0  0  0
 31  1  1  0  0  0  0
 32  1  2  0  0  0  0
 34 20  1  0  0  0  0
 37 25  1  0  0  0  0
 38 37  1  0  0  0  0
 38 39  1  0  0  0  0
M  END
>  <MODEL>
3

>  <REMARK>
 VINA RESULT:      -8.3      2.571      4.399
  Name = 
  2 active torsions:
  status: ('A' for Active; 'I' for Inactive)
    1  A    between atoms: C_12  and  C_28
    2  A    between atoms: C_26  and  C_28
                            x       y       z     vdW  Elec       q    Type
                         _______ _______ _______ _____ _____    ______ ____

>  <TORSDO>
F 2

$$$$
=
 OpenBabel11072409173D

 39 46  0  0  1  0  0  0  0  0999 V2000
  186.8180  176.7340  139.9220 C   0  0  0  0  0  3  0  0  0  0  0  0
  189.1260  175.7520  145.3330 C   0  0  2  0  0  3  0  0  0  0  0  0
  191.0590  175.3740  143.3590 C   0  0  0  0  0  2  0  0  0  0  0  0
  193.3600  172.0060  145.3880 C   0  0  0  0  0  2  0  0  0  0  0  0
  190.3410  171.9150  141.5440 C   0  0  0  0  0  0  0  0  0  0  0  0
  191.2900  175.5800  146.1390 C   0  0  2  0  0  3  0  0  0  0  0  0
  193.0790  171.1720  143.0090 C   0  0  0  0  0  0  0  0  0  0  0  0
  188.9560  173.5720  139.8820 C   0  0  1  0  0  3  0  0  0  0  0  0
  191.6030  174.3130  144.2020 C   0  0  1  0  0  0  0  0  0  0  0  0
  191.5470  174.0730  141.0760 O   0  0  0  0  0  0  0  0  0  0  0  0
  190.6120  173.4350  144.6590 O   0  0  0  0  0  1  0  0  0  0  0  0
  192.7840  172.5920  142.5560 C   0  0  2  0  0  3  0  0  0  0  0  0
  190.4420  170.8030  140.7050 O   0  0  0  0  0  1  0  0  0  0  0  0
  192.9060  173.7120  143.6410 C   0  0  2  0  0  3  0  0  0  0  0  0
  188.6420  177.2800  143.2240 C   0  0  0  0  0  2  0  0  0  0  0  0
  188.2310  176.7220  141.8940 C   0  0  0  0  0  0  0  0  0  0  0  0
  190.1470  171.4450  142.8420 O   0  0  0  0  0  1  0  0  0  0  0  0
  188.1140  176.3720  144.3340 C   0  0  2  0  0  3  0  0  0  0  0  0
  188.7940  175.5250  141.4540 C   0  0  0  0  0  3  0  0  0  0  0  0
  191.1620  172.7900  139.1400 O   0  0  0  0  0  0  0  0  0  0  0  0
  191.6690  172.7380  141.4880 C   0  0  1  0  0  0  0  0  0  0  0  0
  191.6260  175.7990  144.7190 C   0  0  2  0  0  0  0  0  0  0  0  0
  193.2450  170.2220  142.0900 C   0  0  0  0  0  2  0  0  0  0  0  0
  188.4600  175.9100  146.6210 N   0  0  0  0  0  0  0  0  0  0  0  0
  187.4050  176.6340  146.4840 C   0  0  0  0  0  0  0  0  0  0  0  0
  190.4250  176.4540  145.3740 N   0  0  1  0  0  0  0  0  0  0  0  0
  193.5430  170.8560  144.4060 C   0  0  0  0  0  2  0  0  0  0  0  0
  187.1390  177.0560  145.1600 N   0  0  0  0  0  2  0  0  0  0  0  0
  188.3720  174.9040  140.2730 C   0  0  0  0  0  0  0  0  0  0  0  0
  193.8420  173.3100  144.7760 C   0  0  0  0  0  2  0  0  0  0  0  0
  187.3820  175.5210  139.4990 C   0  0  0  0  0  3  0  0  0  0  0  0
  187.2350  177.3290  141.1230 C   0  0  0  0  0  3  0  0  0  0  0  0
  190.1870  173.7910  138.9780 C   0  0  0  0  0  2  0  0  0  0  0  0
  192.1050  173.1880  140.1250 C   0  0  2  0  0  3  0  0  0  0  0  0
  192.2110  176.4160  147.0050 C   0  0  0  0  0  1  0  0  0  0  0  0
  189.0750  172.7040  141.1690 C   0  0  0  0  0  2  0  0  0  0  0  0
  186.5580  177.0370  147.6430 C   0  0  0  0  0  2  0  0  0  0  0  0
  185.9520  178.4110  147.4110 C   0  0  0  0  0  2  0  0  0  0  0  0
  184.5800  178.2960  147.1810 O   0  0  0  0  0  1  0  0  0  0  0  0
  1 32  1  0  0  0  0
  2 26  1  0  0  0  0
  2 24  1  1  0  0  0
  3  9  1  0  0  0  0
  5 17  1  0  0  0  0
  6 35  1  1  0  0  0
  7 27  1  0  0  0  0
  8 33  1  1  0  0  0
  8 29  1  0  0  0  0
  8 36  1  0  0  0  0
  9 11  1  1  0  0  0
  9 22  1  0  0  0  0
 12  7  1  1  0  0  0
 12 14  1  0  0  0  0
 13  5  1  0  0  0  0
 14  9  1  0  0  0  0
 14 30  1  1  0  0  0
 16 15  1  0  0  0  0
 18 15  1  6  0  0  0
 18 28  1  0  0  0  0
 18  2  1  0  0  0  0
 19 16  1  0  0  0  0
 20 34  1  0  0  0  0
 21 10  1  1  0  0  0
 21  5  1  0  0  0  0
 21 12  1  0  0  0  0
 22  3  1  6  0  0  0
 22 26  1  0  0  0  0
 22  6  1  0  0  0  0
 23  7  2  0  0  0  0
 25 24  2  0  0  0  0
 25 37  1  0  0  0  0
 26  6  1  0  0  0  0
 27  4  1  0  0  0  0
 28 25  1  0  0  0  0
 29 19  2  0  0  0  0
 30  4  1  0  0  0  0
 31  1  2  0  0  0  0
 31 29  1  0  0  0  0
 32 16  2  0  0  0  0
 33 20  1  0  0  0  0
 34 10  1  0  0  0  0
 34 21  1  0  0  0  0
 36  5  1  0  0  0  0
 38 37  1  0  0  0  0
 39 38  1  0  0  0  0
M  END
>  <MODEL>
4

>  <REMARK>
 VINA RESULT:      -7.8      2.814      6.078
  Name = 
  2 active torsions:
  status: ('A' for Active; 'I' for Inactive)
    1  A    between atoms: C_12  and  C_28
    2  A    between atoms: C_26  and  C_28
                            x       y       z     vdW  Elec       q    Type
                         _______ _______ _______ _____ _____    ______ ____

>  <TORSDO>
F 2

$$$$
=
 OpenBabel11072409173D

 39 46  0  0  1  0  0  0  0  0999 V2000
  187.8240  176.3400  141.9850 C   0  0  0  0  0  3  0  0  0  0  0  0
  191.1910  171.5190  140.9900 C   0  0  2  0  0  3  0  0  0  0  0  0
  191.3820  172.3160  143.6560 C   0  0  0  0  0  2  0  0  0  0  0  0
  195.7330  171.1500  144.3360 C   0  0  0  0  0  2  0  0  0  0  0  0
  193.6730  175.5550  143.8380 C   0  0  0  0  0  0  0  0  0  0  0  0
  192.2130  169.9710  142.3760 C   0  0  2  0  0  3  0  0  0  0  0  0
  195.5900  173.4810  145.3260 C   0  0  0  0  0  0  0  0  0  0  0  0
  191.2360  176.7580  143.6430 C   0  0  1  0  0  3  0  0  0  0  0  0
  192.7740  171.8740  143.6080 C   0  0  1  0  0  0  0  0  0  0  0  0
  191.9020  174.4200  145.2180 O   0  0  0  0  0  0  0  0  0  0  0  0
  193.4490  172.3610  142.4820 O   0  0  0  0  0  1  0  0  0  0  0  0
  194.0780  173.3490  145.3940 C   0  0  2  0  0  3  0  0  0  0  0  0
  194.4120  176.6410  144.3130 O   0  0  0  0  0  1  0  0  0  0  0  0
  193.4760  171.9670  144.9760 C   0  0  2  0  0  3  0  0  0  0  0  0
  188.9630  172.7090  141.7890 C   0  0  0  0  0  2  0  0  0  0  0  0
  188.8960  174.1690  142.1230 C   0  0  0  0  0  0  0  0  0  0  0  0
  194.4880  174.8460  142.9560 O   0  0  0  0  0  1  0  0  0  0  0  0
  190.0150  172.4890  140.7020 C   0  0  2  0  0  3  0  0  0  0  0  0
  189.9750  174.7690  142.7700 C   0  0  0  0  0  3  0  0  0  0  0  0
  192.2870  176.6530  145.8600 O   0  0  0  0  0  0  0  0  0  0  0  0
  193.2770  174.6260  145.0310 C   0  0  1  0  0  0  0  0  0  0  0  0
  191.6210  170.8180  143.4300 C   0  0  2  0  0  0  0  0  0  0  0  0
  196.1750  174.5270  145.9080 C   0  0  0  0  0  2  0  0  0  0  0  0
  191.3080  170.7630  139.7480 N   0  0  0  0  0  0  0  0  0  0  0  0
  190.3230  171.0420  138.9690 C   0  0  0  0  0  0  0  0  0  0  0  0
  190.9290  170.5820  142.1010 N   0  0  1  0  0  0  0  0  0  0  0  0
  196.4800  172.3240  144.9550 C   0  0  0  0  0  2  0  0  0  0  0  0
  189.4180  172.0050  139.4740 N   0  0  0  0  0  2  0  0  0  0  0  0
  190.0130  176.1470  143.0130 C   0  0  0  0  0  0  0  0  0  0  0  0
  194.4820  170.8330  145.1380 C   0  0  0  0  0  2  0  0  0  0  0  0
  188.9240  176.9340  142.6230 C   0  0  0  0  0  3  0  0  0  0  0  0
  187.8140  174.9610  141.7260 C   0  0  0  0  0  3  0  0  0  0  0  0
  191.0660  176.7930  145.1770 C   0  0  0  0  0  2  0  0  0  0  0  0
  192.5240  175.2820  146.1500 C   0  0  2  0  0  3  0  0  0  0  0  0
  192.0090  168.5130  142.7340 C   0  0  0  0  0  1  0  0  0  0  0  0
  192.4900  176.0860  143.0120 C   0  0  0  0  0  2  0  0  0  0  0  0
  190.1270  170.3630  137.6560 C   0  0  0  0  0  2  0  0  0  0  0  0
  189.9250  171.3850  136.5500 C   0  0  0  0  0  2  0  0  0  0  0  0
  190.9950  172.2810  136.5260 O   0  0  0  0  0  1  0  0  0  0  0  0
  1 31  1  0  0  0  0
  2 24  1  6  0  0  0
  2 26  1  0  0  0  0
  4 27  1  0  0  0  0
  4 30  1  0  0  0  0
  5 13  1  0  0  0  0
  5 21  1  0  0  0  0
  6 35  1  1  0  0  0
  6 22  1  0  0  0  0
  7 23  2  0  0  0  0
  8 36  1  1  0  0  0
  8 33  1  0  0  0  0
  9 11  1  6  0  0  0
  9  3  1  0  0  0  0
  9 14  1  0  0  0  0
 10 34  1  0  0  0  0
 12  7  1  6  0  0  0
 14 30  1  6  0  0  0
 14 12  1  0  0  0  0
 15 16  1  0  0  0  0
 16 19  2  0  0  0  0
 17  5  1  0  0  0  0
 18  2  1  0  0  0  0
 18 15  1  1  0  0  0
 19 29  1  0  0  0  0
 20 34  1  0  0  0  0
 21 10  1  6  0  0  0
 21 12  1  0  0  0  0
 21 34  1  0  0  0  0
 22  9  1  0  0  0  0
 22  3  1  1  0  0  0
 25 28  1  0  0  0  0
 25 24  2  0  0  0  0
 26  6  1  0  0  0  0
 26 22  1  0  0  0  0
 27  7  1  0  0  0  0
 28 18  1  0  0  0  0
 29  8  1  0  0  0  0
 31 29  2  0  0  0  0
 32  1  2  0  0  0  0
 32 16  1  0  0  0  0
 33 20  1  0  0  0  0
 36  5  1  0  0  0  0
 37 25  1  0  0  0  0
 38 37  1  0  0  0  0
 39 38  1  0  0  0  0
M  END
>  <MODEL>
5

>  <REMARK>
 VINA RESULT:      -7.7      1.601      1.905
  Name = 
  2 active torsions:
  status: ('A' for Active; 'I' for Inactive)
    1  A    between atoms: C_12  and  C_28
    2  A    between atoms: C_26  and  C_28
                            x       y       z     vdW  Elec       q    Type
                         _______ _______ _______ _____ _____    ______ ____

>  <TORSDO>
F 2

$$$$
=
 OpenBabel11072409173D

 39 46  0  0  1  0  0  0  0  0999 V2000
  188.7260  177.1880  145.1740 C   0  0  0  0  0  3  0  0  0  0  0  0
  190.6160  173.4650  140.9160 C   0  0  2  0  0  3  0  0  0  0  0  0
  191.9700  172.9890  143.3070 C   0  0  0  0  0  2  0  0  0  0  0  0
  195.9910  171.8190  141.5120 C   0  0  0  0  0  2  0  0  0  0  0  0
  194.6270  175.8930  143.8440 C   0  0  0  0  0  0  0  0  0  0  0  0
  191.8450  171.5020  140.9400 C   0  0  2  0  0  3  0  0  0  0  0  0
  196.6230  173.4510  143.3490 C   0  0  0  0  0  0  0  0  0  0  0  0
  192.5360  176.9560  145.2310 C   0  0  1  0  0  3  0  0  0  0  0  0
  193.1410  172.6720  142.4910 C   0  0  1  0  0  0  0  0  0  0  0  0
  193.3930  174.1890  145.2250 O   0  0  0  0  0  0  0  0  0  0  0  0
  193.3820  173.6390  141.5070 O   0  0  0  0  0  1  0  0  0  0  0  0
  195.2610  173.2420  143.9900 C   0  0  2  0  0  3  0  0  0  0  0  0
  195.6550  176.6790  144.3680 O   0  0  0  0  0  1  0  0  0  0  0  0
  194.3330  172.1710  143.3280 C   0  0  2  0  0  3  0  0  0  0  0  0
  189.1050  174.0790  143.0030 C   0  0  0  0  0  2  0  0  0  0  0  0
  189.4080  175.2310  143.9150 C   0  0  0  0  0  0  0  0  0  0  0  0
  194.9020  175.6880  142.4930 O   0  0  0  0  0  1  0  0  0  0  0  0
  189.5910  174.4130  141.5930 C   0  0  2  0  0  3  0  0  0  0  0  0
  190.7340  175.5200  144.2280 C   0  0  0  0  0  3  0  0  0  0  0  0
  194.3480  175.9110  146.5160 O   0  0  0  0  0  0  0  0  0  0  0  0
  194.5950  174.5130  144.5770 C   0  0  1  0  0  0  0  0  0  0  0  0
  191.8600  171.7630  142.3930 C   0  0  2  0  0  0  0  0  0  0  0  0
  197.5470  174.1480  144.0070 C   0  0  0  0  0  2  0  0  0  0  0  0
  190.1100  173.3510  139.5530 N   0  0  0  0  0  0  0  0  0  0  0  0
  188.9540  173.9100  139.4640 C   0  0  0  0  0  0  0  0  0  0  0  0
  190.6710  172.1190  141.5220 N   0  0  1  0  0  0  0  0  0  0  0  0
  197.0980  172.6200  142.1860 C   0  0  0  0  0  2  0  0  0  0  0  0
  188.4880  174.5060  140.6590 N   0  0  0  0  0  2  0  0  0  0  0  0
  191.0830  176.6430  144.9870 C   0  0  0  0  0  0  0  0  0  0  0  0
  195.1280  171.1260  142.5520 C   0  0  0  0  0  2  0  0  0  0  0  0
  190.0680  177.4770  145.4690 C   0  0  0  0  0  3  0  0  0  0  0  0
  188.3970  176.0720  144.3900 C   0  0  0  0  0  3  0  0  0  0  0  0
  192.9950  176.2930  146.5470 C   0  0  0  0  0  2  0  0  0  0  0  0
  194.4610  174.5670  146.0700 C   0  0  2  0  0  3  0  0  0  0  0  0
  191.5720  170.0320  140.6990 C   0  0  0  0  0  1  0  0  0  0  0  0
  193.3130  176.6900  143.9090 C   0  0  0  0  0  2  0  0  0  0  0  0
  188.1500  173.8840  138.2090 C   0  0  0  0  0  2  0  0  0  0  0  0
  189.0090  174.2600  137.0150 C   0  0  0  0  0  2  0  0  0  0  0  0
  189.2620  173.1320  136.2330 O   0  0  0  0  0  1  0  0  0  0  0  0
  1 31  1  0  0  0  0
  2 24  1  6  0  0  0
  2 26  1  0  0  0  0
  2 18  1  0  0  0  0
  4 27  1  0  0  0  0
  4 30  1  0  0  0  0
  5 36  1  0  0  0  0
  5 13  1  0  0  0  0
  5 21  1  0  0  0  0
  6 35  1  1  0  0  0
  6 26  1  0  0  0  0
  6 22  1  0  0  0  0
  7 23  2  0  0  0  0
  8 36  1  6  0  0  0
  8 33  1  0  0  0  0
  9 11  1  6  0  0  0
  9  3  1  0  0  0  0
  9 14  1  0  0  0  0
 10 34  1  0  0  0  0
 12  7  1  6  0  0  0
 12 21  1  0  0  0  0
 14 30  1  6  0  0  0
 14 12  1  0  0  0  0
 15 16  1  0  0  0  0
 16 19  2  0  0  0  0
 16 32  1  0  0  0  0
 17  5  1  0  0  0  0
 18 15  1  1  0  0  0
 19 29  1  0  0  0  0
 20 33  1  0  0  0  0
 21 10  1  6  0  0  0
 21 34  1  0  0  0  0
 22  9  1  0  0  0  0
 22  3  1  1  0  0  0
 25 24  2  0  0  0  0
 25 28  1  0  0  0  0
 26 22  1  0  0  0  0
 27  7  1  0  0  0  0
 28 18  1  0  0  0  0
 29  8  1  0  0  0  0
 29 31  2  0  0  0  0
 32  1  2  0  0  0  0
 34 20  1  0  0  0  0
 37 25  1  0  0  0  0
 38 37  1  0  0  0  0
 39 38  1  0  0  0  0
M  END
>  <MODEL>
6

>  <REMARK>
 VINA RESULT:      -7.7      1.473      2.122
  Name = 
  2 active torsions:
  status: ('A' for Active; 'I' for Inactive)
    1  A    between atoms: C_12  and  C_28
    2  A    between atoms: C_26  and  C_28
                            x       y       z     vdW  Elec       q    Type
                         _______ _______ _______ _____ _____    ______ ____

>  <TORSDO>
F 2

$$$$
=
 OpenBabel11072409173D

 39 46  0  0  1  0  0  0  0  0999 V2000
  188.5960  173.5130  140.6490 C   0  0  0  0  0  3  0  0  0  0  0  0
  191.6080  175.7620  145.2790 C   0  0  2  0  0  3  0  0  0  0  0  0
  193.3660  174.8090  143.3350 C   0  0  0  0  0  2  0  0  0  0  0  0
  196.6500  173.3550  146.1380 C   0  0  0  0  0  2  0  0  0  0  0  0
  193.3900  170.8400  143.5030 C   0  0  0  0  0  0  0  0  0  0  0  0
  193.8120  176.4000  145.5930 C   0  0  2  0  0  3  0  0  0  0  0  0
  196.3580  171.4190  144.5240 C   0  0  0  0  0  0  0  0  0  0  0  0
  191.4640  171.1830  141.6050 C   0  0  1  0  0  3  0  0  0  0  0  0
  194.2470  174.4190  144.4340 C   0  0  1  0  0  0  0  0  0  0  0  0
  193.9430  172.6600  141.8550 O   0  0  0  0  0  0  0  0  0  0  0  0
  193.5680  173.7220  145.4400 O   0  0  0  0  0  1  0  0  0  0  0  0
  195.6620  172.3510  143.5470 C   0  0  2  0  0  3  0  0  0  0  0  0
  193.6900  169.4970  143.2650 O   0  0  0  0  0  1  0  0  0  0  0  0
  195.5980  173.8630  143.9460 C   0  0  2  0  0  3  0  0  0  0  0  0
  190.5370  175.9340  142.8620 C   0  0  0  0  0  2  0  0  0  0  0  0
  190.1530  174.7280  142.0560 C   0  0  0  0  0  0  0  0  0  0  0  0
  193.4550  171.0480  144.8800 O   0  0  0  0  0  1  0  0  0  0  0  0
  190.3750  175.6170  144.3480 C   0  0  2  0  0  3  0  0  0  0  0  0
  190.9600  173.5930  142.1040 C   0  0  0  0  0  3  0  0  0  0  0  0
  193.7120  170.5420  140.8520 O   0  0  0  0  0  0  0  0  0  0  0  0
  194.4470  171.7490  142.7960 C   0  0  1  0  0  0  0  0  0  0  0  0
  193.9360  175.9430  144.1950 C   0  0  2  0  0  0  0  0  0  0  0  0
  196.6720  170.1860  144.1300 C   0  0  0  0  0  2  0  0  0  0  0  0
  191.0550  176.4150  146.4600 N   0  0  0  0  0  0  0  0  0  0  0  0
  189.8400  176.7760  146.2360 C   0  0  0  0  0  0  0  0  0  0  0  0
  192.6780  176.6110  144.7170 N   0  0  1  0  0  0  0  0  0  0  0  0
  197.0260  171.9240  145.7770 C   0  0  0  0  0  2  0  0  0  0  0  0
  189.3440  176.4330  144.9570 N   0  0  0  0  0  2  0  0  0  0  0  0
  190.5980  172.4050  141.4570 C   0  0  0  0  0  0  0  0  0  0  0  0
  196.7150  174.2470  144.9110 C   0  0  0  0  0  2  0  0  0  0  0  0
  189.4100  172.3720  140.7190 C   0  0  0  0  0  3  0  0  0  0  0  0
  188.9620  174.6870  141.3250 C   0  0  0  0  0  3  0  0  0  0  0  0
  192.5000  171.1410  140.4620 C   0  0  0  0  0  2  0  0  0  0  0  0
  194.6130  171.5360  141.3210 C   0  0  2  0  0  3  0  0  0  0  0  0
  194.5660  177.7020  145.7630 C   0  0  0  0  0  1  0  0  0  0  0  0
  191.9320  171.1010  143.0880 C   0  0  0  0  0  2  0  0  0  0  0  0
  189.0380  177.5410  147.2330 C   0  0  0  0  0  2  0  0  0  0  0  0
  187.5740  177.5750  146.8280 C   0  0  0  0  0  2  0  0  0  0  0  0
  186.9300  176.4160  147.2650 O   0  0  0  0  0  1  0  0  0  0  0  0
  1 31  2  0  0  0  0
  1 32  1  0  0  0  0
  2 24  1  1  0  0  0
  3  9  1  0  0  0  0
  5 17  1  0  0  0  0
  6 35  1  6  0  0  0
  7 27  1  0  0  0  0
  8 33  1  6  0  0  0
  8 36  1  0  0  0  0
  9 11  1  1  0  0  0
 12 14  1  0  0  0  0
 12  7  1  1  0  0  0
 13  5  1  0  0  0  0
 14  9  1  0  0  0  0
 14 30  1  1  0  0  0
 16 19  1  0  0  0  0
 16 15  1  0  0  0  0
 18 15  1  6  0  0  0
 18 28  1  0  0  0  0
 18  2  1  0  0  0  0
 20 34  1  0  0  0  0
 21 10  1  6  0  0  0
 21  5  1  0  0  0  0
 21 12  1  0  0  0  0
 22  3  1  6  0  0  0
 22  9  1  0  0  0  0
 22 26  1  0  0  0  0
 22  6  1  0  0  0  0
 23  7  2  0  0  0  0
 25 24  2  0  0  0  0
 25 37  1  0  0  0  0
 26  2  1  0  0  0  0
 26  6  1  0  0  0  0
 27  4  1  0  0  0  0
 28 25  1  0  0  0  0
 29  8  1  0  0  0  0
 29 19  2  0  0  0  0
 30  4  1  0  0  0  0
 31 29  1  0  0  0  0
 32 16  2  0  0  0  0
 33 20  1  0  0  0  0
 34 10  1  0  0  0  0
 34 21  1  0  0  0  0
 36  5  1  0  0  0  0
 38 37  1  0  0  0  0
 38 39  1  0  0  0  0
M  END
>  <MODEL>
7

>  <REMARK>
 VINA RESULT:      -7.7      2.967      6.240
  Name = 
  2 active torsions:
  status: ('A' for Active; 'I' for Inactive)
    1  A    between atoms: C_12  and  C_28
    2  A    between atoms: C_26  and  C_28
                            x       y       z     vdW  Elec       q    Type
                         _______ _______ _______ _____ _____    ______ ____

>  <TORSDO>
F 2

$$$$
=
 OpenBabel11072409173D

 39 46  0  0  1  0  0  0  0  0999 V2000
  186.4830  176.7890  142.6450 C   0  0  0  0  0  3  0  0  0  0  0  0
  191.3460  176.3980  146.0740 C   0  0  2  0  0  3  0  0  0  0  0  0
  191.9270  175.6280  143.4580 C   0  0  0  0  0  2  0  0  0  0  0  0
  195.0110  172.4190  144.4320 C   0  0  0  0  0  2  0  0  0  0  0  0
  190.4040  172.0090  142.8480 C   0  0  0  0  0  0  0  0  0  0  0  0
  193.6080  176.1930  145.6210 C   0  0  2  0  0  3  0  0  0  0  0  0
  193.5120  171.2910  142.7250 C   0  0  0  0  0  0  0  0  0  0  0  0
  188.3170  173.5150  141.9510 C   0  0  1  0  0  3  0  0  0  0  0  0
  192.8550  174.6560  144.0310 C   0  0  1  0  0  0  0  0  0  0  0  0
  191.1360  173.9990  141.4920 O   0  0  0  0  0  0  0  0  0  0  0  0
  192.2780  173.9170  145.0710 O   0  0  0  0  0  1  0  0  0  0  0  0
  192.9970  172.6520  142.2900 C   0  0  2  0  0  3  0  0  0  0  0  0
  190.0580  170.7900  142.2630 O   0  0  0  0  0  1  0  0  0  0  0  0
  193.6640  173.8990  142.9610 C   0  0  2  0  0  3  0  0  0  0  0  0
  189.7820  177.6540  144.3440 C   0  0  0  0  0  2  0  0  0  0  0  0
  188.7320  176.9500  143.5380 C   0  0  0  0  0  0  0  0  0  0  0  0
  190.9440  171.7340  144.1040 O   0  0  0  0  0  1  0  0  0  0  0  0
  189.9460  176.9440  145.6870 C   0  0  2  0  0  3  0  0  0  0  0  0
  188.9910  175.6700  143.0530 C   0  0  0  0  0  3  0  0  0  0  0  0
  189.7950  172.4930  140.2770 O   0  0  0  0  0  0  0  0  0  0  0  0
  191.4820  172.7260  141.9720 C   0  0  1  0  0  0  0  0  0  0  0  0
  193.1260  176.1940  144.2260 C   0  0  2  0  0  0  0  0  0  0  0  0
  193.1760  170.2160  142.0130 C   0  0  0  0  0  2  0  0  0  0  0  0
  191.4710  176.7750  147.4780 N   0  0  0  0  0  0  0  0  0  0  0  0
  190.4950  177.5420  147.8160 C   0  0  0  0  0  0  0  0  0  0  0  0
  192.4530  177.0110  145.3120 N   0  0  1  0  0  0  0  0  0  0  0  0
  194.6580  171.1370  143.6900 C   0  0  0  0  0  2  0  0  0  0  0  0
  189.5540  177.7970  146.7910 N   0  0  0  0  0  2  0  0  0  0  0  0
  188.0120  174.9240  142.3860 C   0  0  0  0  0  0  0  0  0  0  0  0
  195.0680  173.5930  143.4700 C   0  0  0  0  0  2  0  0  0  0  0  0
  186.7520  175.4950  142.1750 C   0  0  0  0  0  3  0  0  0  0  0  0
  187.4680  177.5120  143.3350 C   0  0  0  0  0  3  0  0  0  0  0  0
  188.8690  173.5260  140.5090 C   0  0  0  0  0  2  0  0  0  0  0  0
  191.1120  172.9570  140.5370 C   0  0  2  0  0  3  0  0  0  0  0  0
  194.8350  177.0750  145.7270 C   0  0  0  0  0  1  0  0  0  0  0  0
  189.1220  172.8240  143.0900 C   0  0  0  0  0  2  0  0  0  0  0  0
  190.3940  178.1540  149.1720 C   0  0  0  0  0  2  0  0  0  0  0  0
  191.7500  178.1650  149.8570 C   0  0  0  0  0  2  0  0  0  0  0  0
  191.6160  177.7710  151.1890 O   0  0  0  0  0  1  0  0  0  0  0  0
  1 32  1  0  0  0  0
  2 24  1  1  0  0  0
  3  9  1  0  0  0  0
  5 36  1  0  0  0  0
  5 17  1  0  0  0  0
  6 35  1  6  0  0  0
  7 27  1  0  0  0  0
  8 33  1  6  0  0  0
  8 29  1  0  0  0  0
  8 36  1  0  0  0  0
  9 22  1  0  0  0  0
  9 11  1  1  0  0  0
 12  7  1  1  0  0  0
 12 14  1  0  0  0  0
 13  5  1  0  0  0  0
 14 30  1  1  0  0  0
 14  9  1  0  0  0  0
 16 15  1  0  0  0  0
 18 15  1  6  0  0  0
 18  2  1  0  0  0  0
 18 28  1  0  0  0  0
 19 16  1  0  0  0  0
 20 33  1  0  0  0  0
 20 34  1  0  0  0  0
 21 10  1  1  0  0  0
 21 12  1  0  0  0  0
 21  5  1  0  0  0  0
 22  3  1  6  0  0  0
 22 26  1  0  0  0  0
 22  6  1  0  0  0  0
 23  7  2  0  0  0  0
 24 25  2  0  0  0  0
 25 37  1  0  0  0  0
 26  6  1  0  0  0  0
 26  2  1  0  0  0  0
 27  4  1  0  0  0  0
 28 25  1  0  0  0  0
 29 19  2  0  0  0  0
 30  4  1  0  0  0  0
 31 29  1  0  0  0  0
 31  1  2  0  0  0  0
 32 16  2  0  0  0  0
 34 10  1  0  0  0  0
 34 21  1  0  0  0  0
 37 38  1  0  0  0  0
 38 39  1  0  0  0  0
M  END
>  <MODEL>
8

>  <REMARK>
 VINA RESULT:      -7.7      2.763      6.494
  Name = 
  2 active torsions:
  status: ('A' for Active; 'I' for Inactive)
    1  A    between atoms: C_12  and  C_28
    2  A    between atoms: C_26  and  C_28
                            x       y       z     vdW  Elec       q    Type
                         _______ _______ _______ _____ _____    ______ ____

>  <TORSDO>
F 2

$$$$
=
 OpenBabel11072409173D

 39 46  0  0  1  0  0  0  0  0999 V2000
  196.7690  172.2110  143.7110 C   0  0  0  0  0  3  0  0  0  0  0  0
  191.1180  171.8400  141.8420 C   0  0  2  0  0  3  0  0  0  0  0  0
  191.8440  174.5020  142.2490 C   0  0  0  0  0  2  0  0  0  0  0  0
  187.8000  176.0280  143.6880 C   0  0  0  0  0  2  0  0  0  0  0  0
  191.9350  175.1950  146.1590 C   0  0  0  0  0  0  0  0  0  0  0  0
  189.6150  173.3790  140.9850 C   0  0  2  0  0  3  0  0  0  0  0  0
  189.4270  177.0060  145.3710 C   0  0  0  0  0  0  0  0  0  0  0  0
  194.5500  174.5310  145.7750 C   0  0  1  0  0  3  0  0  0  0  0  0
  190.4690  174.7290  142.6880 C   0  0  1  0  0  0  0  0  0  0  0  0
  192.8990  176.1710  144.0500 O   0  0  0  0  0  0  0  0  0  0  0  0
  190.0400  173.7710  143.6140 O   0  0  0  0  0  1  0  0  0  0  0  0
  190.5660  176.7650  144.3950 C   0  0  2  0  0  3  0  0  0  0  0  0
  192.0530  175.8260  147.3990 O   0  0  0  0  0  1  0  0  0  0  0  0
  190.1750  176.2120  142.9850 C   0  0  2  0  0  3  0  0  0  0  0  0
  193.7120  172.1910  141.4360 C   0  0  0  0  0  2  0  0  0  0  0  0
  194.6690  172.5280  142.5400 C   0  0  0  0  0  0  0  0  0  0  0  0
  190.7350  174.4840  146.1620 O   0  0  0  0  0  1  0  0  0  0  0  0
  192.5770  171.3360  141.9980 C   0  0  2  0  0  3  0  0  0  0  0  0
  194.2590  173.3890  143.5560 C   0  0  0  0  0  3  0  0  0  0  0  0
  193.9940  176.9130  145.9970 O   0  0  0  0  0  0  0  0  0  0  0  0
  191.8930  176.2680  145.0230 C   0  0  1  0  0  0  0  0  0  0  0  0
  190.7440  174.3050  141.1980 C   0  0  2  0  0  0  0  0  0  0  0  0
  189.6610  177.7100  146.4770 C   0  0  0  0  0  2  0  0  0  0  0  0
  190.3910  170.6350  141.4570 N   0  0  0  0  0  0  0  0  0  0  0  0
  191.2190  169.6780  141.2240 C   0  0  0  0  0  0  0  0  0  0  0  0
  190.9520  172.8590  140.7860 N   0  0  1  0  0  0  0  0  0  0  0  0
  187.9850  176.8040  144.9860 C   0  0  0  0  0  2  0  0  0  0  0  0
  192.5800  170.0050  141.4250 N   0  0  0  0  0  2  0  0  0  0  0  0
  195.0700  173.6570  144.6650 C   0  0  0  0  0  0  0  0  0  0  0  0
  188.7360  176.5550  142.6150 C   0  0  0  0  0  2  0  0  0  0  0  0
  196.3380  173.0680  144.7350 C   0  0  0  0  0  3  0  0  0  0  0  0
  195.9320  171.9340  142.6190 C   0  0  0  0  0  3  0  0  0  0  0  0
  194.9440  175.9990  145.5060 C   0  0  0  0  0  2  0  0  0  0  0  0
  193.0500  177.2230  144.9820 C   0  0  2  0  0  3  0  0  0  0  0  0
  188.9810  173.6650  139.6380 C   0  0  0  0  0  1  0  0  0  0  0  0
  193.0600  174.1550  146.0250 C   0  0  0  0  0  2  0  0  0  0  0  0
  190.7760  168.3420  140.7330 C   0  0  0  0  0  2  0  0  0  0  0  0
  191.0150  168.2150  139.2380 C   0  0  0  0  0  2  0  0  0  0  0  0
  190.0750  168.9730  138.5370 O   0  0  0  0  0  1  0  0  0  0  0  0
  1 31  1  0  0  0  0
  2 24  1  6  0  0  0
  2 18  1  0  0  0  0
  3  9  1  0  0  0  0
  4 27  1  0  0  0  0
  5 17  1  0  0  0  0
  5 13  1  0  0  0  0
  6 35  1  6  0  0  0
  6 22  1  0  0  0  0
  7 23  2  0  0  0  0
  8 33  1  6  0  0  0
  8 36  1  0  0  0  0
  9 14  1  0  0  0  0
  9 11  1  1  0  0  0
 10 34  1  0  0  0  0
 12 21  1  0  0  0  0
 12  7  1  1  0  0  0
 14 30  1  1  0  0  0
 14 12  1  0  0  0  0
 15 16  1  0  0  0  0
 16 32  1  0  0  0  0
 16 19  2  0  0  0  0
 18 15  1  6  0  0  0
 19 29  1  0  0  0  0
 21 10  1  6  0  0  0
 21  5  1  0  0  0  0
 22  3  1  6  0  0  0
 22  9  1  0  0  0  0
 25 28  1  0  0  0  0
 25 24  2  0  0  0  0
 26  6  1  0  0  0  0
 26 22  1  0  0  0  0
 26  2  1  0  0  0  0
 27  7  1  0  0  0  0
 28 18  1  0  0  0  0
 29 31  2  0  0  0  0
 29  8  1  0  0  0  0
 30  4  1  0  0  0  0
 32  1  2  0  0  0  0
 33 20  1  0  0  0  0
 34 21  1  0  0  0  0
 34 20  1  0  0  0  0
 36  5  1  0  0  0  0
 37 25  1  0  0  0  0
 38 37  1  0  0  0  0
 39 38  1  0  0  0  0
M  END
>  <MODEL>
9

>  <REMARK>
 VINA RESULT:      -7.7      1.845      5.605
  Name = 
  2 active torsions:
  status: ('A' for Active; 'I' for Inactive)
    1  A    between atoms: C_12  and  C_28
    2  A    between atoms: C_26  and  C_28
                            x       y       z     vdW  Elec       q    Type
                         _______ _______ _______ _____ _____    ______ ____

>  <TORSDO>
F 2

$$$$
