=
 OpenBabel11062420433D

 45 49  0  0  1  0  0  0  0  0999 V2000
  188.3000  175.8240  141.6310 C   0  0  2  0  0  3  0  0  0  0  0  0
  191.3310  174.9210  148.0980 C   0  0  0  0  0  1  0  0  0  0  0  0
  191.0400  174.8610  142.1380 C   0  0  0  0  0  2  0  0  0  0  0  0
  189.5230  173.8690  143.7170 O   0  0  0  0  0  1  0  0  0  0  0  0
  188.7170  176.0230  145.6160 N   0  0  0  0  0  0  0  0  0  0  0  0
  192.6510  175.6610  143.6690 C   0  0  1  0  0  3  0  0  0  0  0  0
  186.7580  178.1720  142.2090 C   0  0  0  0  0  0  0  0  0  0  0  0
  186.8140  177.6410  140.8020 C   0  0  2  0  0  3  0  0  0  0  0  0
  186.1810  179.2680  142.4430 O   0  0  0  0  0  0  0  0  0  0  0  0
  191.0210  177.0150  147.0600 O   0  0  0  0  0  1  0  0  0  0  0  0
  187.4400  177.4310  143.2940 C   0  0  0  0  0  0  0  0  0  0  0  0
  193.1320  174.0880  142.0620 O   0  0  0  0  0  1  0  0  0  0  0  0
  187.4230  177.9120  144.5420 C   0  0  0  0  0  3  0  0  0  0  0  0
  188.0390  177.2800  145.7190 C   0  0  0  0  0  0  0  0  0  0  0  0
  188.0800  176.2240  142.9860 O   0  0  0  0  0  0  0  0  0  0  0  0
  185.6310  177.9130  140.1390 F   0  0  0  0  0  0  0  0  0  0  0  0
  191.5380  175.1300  145.7520 O   0  0  0  0  0  0  0  0  0  0  0  0
  192.1820  174.4640  142.9520 N   0  0  0  0  0  0  0  0  0  0  0  0
  190.8230  175.6390  146.8650 C   0  0  1  0  0  0  0  0  0  0  0  0
  189.3290  175.3260  146.7420 C   0  0  0  0  0  2  0  0  0  0  0  0
  187.0760  176.1370  140.7820 C   0  0  0  0  0  2  0  0  0  0  0  0
  191.6070  176.0820  144.7160 C   0  0  0  0  0  2  0  0  0  0  0  0
  187.9260  177.8980  146.8880 C   0  0  0  0  0  1  0  0  0  0  0  0
  189.8600  173.9230  142.3640 C   0  0  1  0  0  3  0  0  0  0  0  0
  188.6410  174.3370  141.5360 C   0  0  0  0  0  2  0  0  0  0  0  0
  196.6880  171.0420  142.1690 C   0  0  0  0  0  3  0  0  0  0  0  0
  197.3970  171.4750  141.0560 C   0  0  0  0  0  0  0  0  0  0  0  0
  195.3960  171.3590  144.2920 C   0  0  1  0  0  3  0  0  0  0  0  0
  194.0000  175.4270  144.3920 C   0  0  2  0  0  3  0  0  0  0  0  0
  195.2370  175.7360  143.5320 C   0  0  0  0  0  0  0  0  0  0  0  0
  197.9320  170.5280  140.1380 N   0  0  0  0  0  1  0  0  0  0  0  0
  194.4490  173.9740  144.4100 C   0  0  2  0  0  3  0  0  0  0  0  0
  197.1110  173.7790  141.7650 C   0  0  0  0  0  0  0  0  0  0  0  0
  195.7290  170.0170  144.4940 O   0  0  0  0  0  1  0  0  0  0  0  0
  197.6260  172.8320  140.8660 C   0  0  0  0  0  3  0  0  0  0  0  0
  196.2970  173.3560  142.8430 C   0  0  0  0  0  0  0  0  0  0  0  0
  194.9500  175.9170  142.1740 O   0  0  0  0  0  1  0  0  0  0  0  0
  195.5860  172.1170  145.6180 C   0  0  0  0  0  2  0  0  0  0  0  0
  194.6310  173.3130  145.7630 C   0  0  0  0  0  2  0  0  0  0  0  0
  195.8090  174.3610  143.8690 C   0  0  1  0  0  3  0  0  0  0  0  0
  196.0040  176.7770  144.0530 O   0  0  0  0  0  1  0  0  0  0  0  0
  196.1640  171.9500  143.1010 C   0  0  0  0  0  0  0  0  0  0  0  0
  197.4230  175.1360  141.6070 O   0  0  0  0  0  0  0  0  0  0  0  0
  197.2070  175.6640  139.3240 C   0  0  0  0  0  2  0  0  0  0  0  0
  197.9410  175.6640  140.4240 C   0  0  0  0  0  3  0  0  0  0  0  0
  1 21  1  6  0  0  0
  1 15  1  0  0  0  0
  3 24  1  0  0  0  0
  3 18  1  0  0  0  0
  5 14  2  0  0  0  0
  5 20  1  0  0  0  0
  6 29  1  0  0  0  0
  6 22  1  1  0  0  0
  7  9  2  0  0  0  0
  7 11  1  0  0  0  0
  8 16  1  1  0  0  0
  8  7  1  0  0  0  0
 11 13  2  0  0  0  0
 12 18  1  0  0  0  0
 13 14  1  0  0  0  0
 14 23  1  0  0  0  0
 15 11  1  0  0  0  0
 17 19  1  0  0  0  0
 18  6  1  0  0  0  0
 19 10  1  0  0  0  0
 19  2  1  1  0  0  0
 20 19  1  0  0  0  0
 21  8  1  0  0  0  0
 22 17  1  0  0  0  0
 24  4  1  1  0  0  0
 25  1  1  0  0  0  0
 25 24  1  0  0  0  0
 26 42  1  0  0  0  0
 27 26  2  0  0  0  0
 28 34  1  1  0  0  0
 28 38  1  0  0  0  0
 29 30  1  6  0  0  0
 29 32  1  0  0  0  0
 30 40  1  0  0  0  0
 30 41  1  0  0  0  0
 31 27  1  0  0  0  0
 32 39  1  1  0  0  0
 33 36  1  0  0  0  0
 35 27  1  0  0  0  0
 35 33  2  0  0  0  0
 36 42  2  0  0  0  0
 37 30  1  0  0  0  0
 38 39  1  0  0  0  0
 40 36  1  6  0  0  0
 40 32  1  0  0  0  0
 42 28  1  0  0  0  0
 43 33  1  0  0  0  0
 44 45  2  0  0  0  0
 45 43  1  0  0  0  0
M  END
>  <MODEL>
1

>  <REMARK>
 VINA RESULT:      -8.6      0.000      0.000
  Name = 
  3 active torsions:
  status: ('A' for Active; 'I' for Inactive)
    1  A    between atoms: C_9  and  C_12
    2  A    between atoms: C_16  and  O_21
    3  A    between atoms: O_21  and  C_40
                            x       y       z     vdW  Elec       q    Type
                         _______ _______ _______ _____ _____    ______ ____

>  <TORSDO>
F 3

$$$$
=
 OpenBabel11062420433D

 45 49  0  0  1  0  0  0  0  0999 V2000
  190.6940  174.4790  145.4500 C   0  0  2  0  0  3  0  0  0  0  0  0
  195.0970  169.9330  142.0210 C   0  0  0  0  0  1  0  0  0  0  0  0
  190.2260  173.2910  142.7930 C   0  0  0  0  0  2  0  0  0  0  0  0
  191.1480  171.6370  144.2730 O   0  0  0  0  0  1  0  0  0  0  0  0
  194.0130  172.3550  144.6980 N   0  0  0  0  0  0  0  0  0  0  0  0
  191.7260  173.0120  140.9900 C   0  0  1  0  0  3  0  0  0  0  0  0
  192.6770  176.1380  146.6910 C   0  0  0  0  0  0  0  0  0  0  0  0
  191.2220  176.5020  146.8030 C   0  0  2  0  0  3  0  0  0  0  0  0
  193.5570  176.9270  147.1310 O   0  0  0  0  0  0  0  0  0  0  0  0
  195.4640  172.2560  142.1950 O   0  0  0  0  0  1  0  0  0  0  0  0
  193.0630  174.8840  146.0040 C   0  0  0  0  0  0  0  0  0  0  0  0
  189.4680  172.6170  140.8040 O   0  0  0  0  0  1  0  0  0  0  0  0
  194.3560  174.5690  145.8710 C   0  0  0  0  0  3  0  0  0  0  0  0
  194.8870  173.3550  145.2310 C   0  0  0  0  0  0  0  0  0  0  0  0
  192.0530  174.0440  145.5190 O   0  0  0  0  0  0  0  0  0  0  0  0
  190.9790  177.1490  148.0000 F   0  0  0  0  0  0  0  0  0  0  0  0
  193.2700  171.4330  141.9820 O   0  0  0  0  0  0  0  0  0  0  0  0
  190.5260  172.4560  141.6370 N   0  0  0  0  0  0  0  0  0  0  0  0
  194.5560  171.2450  142.5500 C   0  0  1  0  0  0  0  0  0  0  0  0
  194.4650  171.1170  144.0730 C   0  0  0  0  0  2  0  0  0  0  0  0
  190.3270  175.2680  146.7000 C   0  0  0  0  0  2  0  0  0  0  0  0
  192.9490  172.8030  141.8980 C   0  0  0  0  0  2  0  0  0  0  0  0
  196.2040  173.2010  145.1860 C   0  0  0  0  0  1  0  0  0  0  0  0
  190.0300  172.4390  144.0420 C   0  0  1  0  0  3  0  0  0  0  0  0
  189.7370  173.2990  145.2730 C   0  0  0  0  0  2  0  0  0  0  0  0
  191.3920  176.0780  135.4790 C   0  0  0  0  0  3  0  0  0  0  0  0
  192.5720  176.7970  135.3490 C   0  0  0  0  0  0  0  0  0  0  0  0
  189.9800  174.1760  136.2970 C   0  0  1  0  0  3  0  0  0  0  0  0
  192.0180  172.3550  139.6190 C   0  0  2  0  0  3  0  0  0  0  0  0
  193.3020  172.8570  138.9400 C   0  0  0  0  0  0  0  0  0  0  0  0
  192.5980  177.9920  134.5760 N   0  0  0  0  0  1  0  0  0  0  0  0
  191.2390  172.9620  138.4630 C   0  0  2  0  0  3  0  0  0  0  0  0
  193.7350  175.1410  136.6900 C   0  0  0  0  0  0  0  0  0  0  0  0
  189.1360  174.5810  135.2590 O   0  0  0  0  0  1  0  0  0  0  0  0
  193.7400  176.3220  135.9310 C   0  0  0  0  0  3  0  0  0  0  0  0
  192.5170  174.4580  136.9200 C   0  0  0  0  0  0  0  0  0  0  0  0
  193.8450  174.0020  139.5360 O   0  0  0  0  0  1  0  0  0  0  0  0
  190.0580  172.6390  136.2940 C   0  0  0  0  0  2  0  0  0  0  0  0
  190.3000  172.0520  137.6950 C   0  0  0  0  0  2  0  0  0  0  0  0
  192.5130  173.1360  137.6630 C   0  0  1  0  0  3  0  0  0  0  0  0
  194.2490  171.8490  138.7740 O   0  0  0  0  0  1  0  0  0  0  0  0
  191.3390  174.8860  136.2180 C   0  0  0  0  0  0  0  0  0  0  0  0
  194.9360  174.6310  137.1990 O   0  0  0  0  0  0  0  0  0  0  0  0
  197.0340  175.2940  138.0340 C   0  0  0  0  0  2  0  0  0  0  0  0
  196.1640  175.2730  137.0380 C   0  0  0  0  0  3  0  0  0  0  0  0
  1 25  1  1  0  0  0
  1 15  1  0  0  0  0
  1 21  1  0  0  0  0
  3 24  1  0  0  0  0
  5 14  2  0  0  0  0
  6 18  1  0  0  0  0
  6 22  1  1  0  0  0
  7  8  1  0  0  0  0
  7  9  2  0  0  0  0
  8 16  1  1  0  0  0
 10 19  1  0  0  0  0
 11  7  1  0  0  0  0
 12 18  1  0  0  0  0
 13 11  2  0  0  0  0
 14 13  1  0  0  0  0
 15 11  1  0  0  0  0
 17 19  1  0  0  0  0
 18  3  1  0  0  0  0
 19  2  1  6  0  0  0
 19 20  1  0  0  0  0
 20  5  1  0  0  0  0
 21  8  1  0  0  0  0
 22 17  1  0  0  0  0
 23 14  1  0  0  0  0
 24  4  1  1  0  0  0
 24 25  1  0  0  0  0
 26 42  1  0  0  0  0
 27 26  2  0  0  0  0
 27 35  1  0  0  0  0
 28 34  1  6  0  0  0
 29 30  1  6  0  0  0
 29  6  1  0  0  0  0
 30 37  1  0  0  0  0
 31 27  1  0  0  0  0
 32 39  1  6  0  0  0
 32 29  1  0  0  0  0
 33 36  1  0  0  0  0
 33 43  1  0  0  0  0
 35 33  2  0  0  0  0
 38 28  1  0  0  0  0
 38 39  1  0  0  0  0
 40 36  1  1  0  0  0
 40 32  1  0  0  0  0
 40 30  1  0  0  0  0
 41 30  1  0  0  0  0
 42 28  1  0  0  0  0
 42 36  2  0  0  0  0
 45 43  1  0  0  0  0
 45 44  2  0  0  0  0
M  END
>  <MODEL>
2

>  <REMARK>
 VINA RESULT:      -8.1      4.101      7.161
  Name = 
  3 active torsions:
  status: ('A' for Active; 'I' for Inactive)
    1  A    between atoms: C_9  and  C_12
    2  A    between atoms: C_16  and  O_21
    3  A    between atoms: O_21  and  C_40
                            x       y       z     vdW  Elec       q    Type
                         _______ _______ _______ _____ _____    ______ ____

>  <TORSDO>
F 3

$$$$
=
 OpenBabel11062420433D

 45 49  0  0  1  0  0  0  0  0999 V2000
  197.1180  175.1320  139.6860 C   0  0  2  0  0  3  0  0  0  0  0  0
  194.5020  169.4250  143.2080 C   0  0  0  0  0  1  0  0  0  0  0  0
  195.6640  175.1990  142.2490 C   0  0  0  0  0  2  0  0  0  0  0  0
  197.1940  173.3460  142.2300 O   0  0  0  0  0  1  0  0  0  0  0  0
  196.0740  171.3170  140.3510 N   0  0  0  0  0  2  0  0  0  0  0  0
  193.7180  174.0290  142.9000 C   0  0  1  0  0  3  0  0  0  0  0  0
  196.6120  174.2470  137.0060 C   0  0  0  0  0  0  0  0  0  0  0  0
  197.1360  175.6360  137.2480 C   0  0  2  0  0  3  0  0  0  0  0  0
  196.2770  173.8960  135.8420 O   0  0  0  0  0  0  0  0  0  0  0  0
  193.5040  170.3730  141.2930 O   0  0  0  0  0  1  0  0  0  0  0  0
  196.4350  173.3260  138.1510 C   0  0  0  0  0  0  0  0  0  0  0  0
  194.6480  175.7040  144.1720 O   0  0  0  0  0  1  0  0  0  0  0  0
  195.9400  172.1000  137.9500 C   0  0  0  0  0  3  0  0  0  0  0  0
  195.7250  171.0750  138.9830 C   0  0  0  0  0  0  0  0  0  0  0  0
  196.8100  173.7610  139.4290 O   0  0  0  0  0  0  0  0  0  0  0  0
  197.9270  176.0430  136.1890 F   0  0  0  0  0  0  0  0  0  0  0  0
  194.5690  171.7640  142.8640 O   0  0  0  0  0  0  0  0  0  0  0  0
  194.9630  174.6370  143.3970 N   0  0  0  0  0  0  0  0  0  0  0  0
  194.5890  170.5260  142.1710 C   0  0  1  0  0  0  0  0  0  0  0  0
  195.9130  170.3420  141.4240 C   0  0  0  0  0  2  0  0  0  0  0  0
  197.9410  175.7130  138.5440 C   0  0  0  0  0  2  0  0  0  0  0  0
  194.0470  172.7900  142.0520 C   0  0  0  0  0  2  0  0  0  0  0  0
  195.2220  169.9070  138.6060 C   0  0  0  0  0  2  0  0  0  0  0  0
  197.1170  174.7390  142.2220 C   0  0  1  0  0  3  0  0  0  0  0  0
  197.8650  175.2990  141.0100 C   0  0  0  0  0  2  0  0  0  0  0  0
  188.5920  177.2840  144.6370 C   0  0  0  0  0  3  0  0  0  0  0  0
  187.5890  176.9640  143.7320 C   0  0  0  0  0  0  0  0  0  0  0  0
  190.6810  176.8420  145.9490 C   0  0  1  0  0  3  0  0  0  0  0  0
  192.7710  173.5980  144.0460 C   0  0  2  0  0  3  0  0  0  0  0  0
  191.3780  173.1470  143.5770 C   0  0  0  0  0  0  0  0  0  0  0  0
  186.5460  177.8950  143.4660 N   0  0  0  0  0  1  0  0  0  0  0  0
  192.0910  174.7580  144.7570 C   0  0  2  0  0  3  0  0  0  0  0  0
  188.5930  174.7820  143.3830 C   0  0  0  0  0  0  0  0  0  0  0  0
  190.2010  177.8890  146.7410 O   0  0  0  0  0  1  0  0  0  0  0  0
  187.5770  175.7150  143.1260 C   0  0  0  0  0  3  0  0  0  0  0  0
  189.6780  175.1370  144.2200 C   0  0  0  0  0  0  0  0  0  0  0  0
  191.1080  173.4500  142.2370 O   0  0  0  0  0  1  0  0  0  0  0  0
  191.2100  175.7310  146.8740 C   0  0  0  0  0  2  0  0  0  0  0  0
  192.3570  174.9250  146.2410 C   0  0  0  0  0  2  0  0  0  0  0  0
  190.7350  174.1090  144.5740 C   0  0  1  0  0  3  0  0  0  0  0  0
  191.1190  171.8120  143.8790 O   0  0  0  0  0  1  0  0  0  0  0  0
  189.6240  176.3800  144.9350 C   0  0  0  0  0  0  0  0  0  0  0  0
  188.5200  173.4970  142.8290 O   0  0  0  0  0  0  0  0  0  0  0  0
  188.1310  172.9420  140.5760 C   0  0  0  0  0  2  0  0  0  0  0  0
  187.6520  173.1650  141.7890 C   0  0  0  0  0  3  0  0  0  0  0  0
  1 21  1  6  0  0  0
  1 25  1  0  0  0  0
  3 18  1  0  0  0  0
  5 20  1  0  0  0  0
  6 22  1  1  0  0  0
  6 18  1  0  0  0  0
  6 29  1  0  0  0  0
  7  8  1  0  0  0  0
  7 11  1  0  0  0  0
  8 16  1  6  0  0  0
  8 21  1  0  0  0  0
  9  7  2  0  0  0  0
 10 19  1  0  0  0  0
 11 15  1  0  0  0  0
 13 11  2  0  0  0  0
 13 14  1  0  0  0  0
 14  5  1  0  0  0  0
 15  1  1  0  0  0  0
 18 12  1  0  0  0  0
 19 17  1  0  0  0  0
 19  2  1  1  0  0  0
 20 19  1  0  0  0  0
 22 17  1  0  0  0  0
 23 14  2  0  0  0  0
 24  4  1  6  0  0  0
 24  3  1  0  0  0  0
 25 24  1  0  0  0  0
 26 42  1  0  0  0  0
 27 26  2  0  0  0  0
 28 34  1  1  0  0  0
 28 38  1  0  0  0  0
 29 30  1  6  0  0  0
 29 32  1  0  0  0  0
 30 41  1  0  0  0  0
 30 40  1  0  0  0  0
 31 27  1  0  0  0  0
 32 39  1  1  0  0  0
 33 36  1  0  0  0  0
 35 33  2  0  0  0  0
 35 27  1  0  0  0  0
 36 42  2  0  0  0  0
 37 30  1  0  0  0  0
 39 38  1  0  0  0  0
 40 36  1  6  0  0  0
 40 32  1  0  0  0  0
 42 28  1  0  0  0  0
 43 33  1  0  0  0  0
 44 45  2  0  0  0  0
 45 43  1  0  0  0  0
M  END
>  <MODEL>
3

>  <REMARK>
 VINA RESULT:      -7.7      2.987      8.911
  Name = 
  3 active torsions:
  status: ('A' for Active; 'I' for Inactive)
    1  A    between atoms: C_9  and  C_12
    2  A    between atoms: C_16  and  O_21
    3  A    between atoms: O_21  and  C_40
                            x       y       z     vdW  Elec       q    Type
                         _______ _______ _______ _____ _____    ______ ____

>  <TORSDO>
F 3

$$$$
=
 OpenBabel11062420433D

 45 49  0  0  1  0  0  0  0  0999 V2000
  189.5270  174.2680  142.2360 C   0  0  2  0  0  3  0  0  0  0  0  0
  195.7770  173.9070  145.7880 C   0  0  0  0  0  1  0  0  0  0  0  0
  192.1240  173.4730  141.0900 C   0  0  0  0  0  2  0  0  0  0  0  0
  191.8680  172.5040  143.2750 O   0  0  0  0  0  1  0  0  0  0  0  0
  192.1380  174.7270  145.2460 N   0  0  0  0  0  0  0  0  0  0  0  0
  194.2560  174.4420  141.3940 C   0  0  1  0  0  3  0  0  0  0  0  0
  188.4240  176.5670  143.5470 C   0  0  0  0  0  0  0  0  0  0  0  0
  187.7020  175.9560  142.3770 C   0  0  2  0  0  3  0  0  0  0  0  0
  188.0060  177.6460  144.0490 O   0  0  0  0  0  0  0  0  0  0  0  0
  194.7720  175.9170  145.0750 O   0  0  0  0  0  1  0  0  0  0  0  0
  189.6590  175.9280  144.0560 C   0  0  0  0  0  0  0  0  0  0  0  0
  193.8450  172.8000  139.8370 O   0  0  0  0  0  1  0  0  0  0  0  0
  190.3250  176.4810  145.0750 C   0  0  0  0  0  3  0  0  0  0  0  0
  191.5500  175.9530  145.6940 C   0  0  0  0  0  0  0  0  0  0  0  0
  190.0940  174.7370  143.4600 O   0  0  0  0  0  0  0  0  0  0  0  0
  186.3370  176.1280  142.5120 F   0  0  0  0  0  0  0  0  0  0  0  0
  194.5840  173.9840  143.7480 O   0  0  0  0  0  0  0  0  0  0  0  0
  193.5520  173.1820  141.1050 N   0  0  0  0  0  0  0  0  0  0  0  0
  194.6010  174.5240  145.0590 C   0  0  1  0  0  0  0  0  0  0  0  0
  193.3360  174.1300  145.8270 C   0  0  0  0  0  2  0  0  0  0  0  0
  188.0170  174.4680  142.2410 C   0  0  0  0  0  2  0  0  0  0  0  0
  193.9740  174.8740  142.8420 C   0  0  0  0  0  2  0  0  0  0  0  0
  192.0820  176.6340  146.7010 C   0  0  0  0  0  1  0  0  0  0  0  0
  191.3620  172.4930  141.9740 C   0  0  1  0  0  3  0  0  0  0  0  0
  189.8620  172.7960  141.9920 C   0  0  0  0  0  2  0  0  0  0  0  0
  196.9920  170.8890  136.9470 C   0  0  0  0  0  3  0  0  0  0  0  0
  196.9430  171.6180  135.7660 C   0  0  0  0  0  0  0  0  0  0  0  0
  197.0830  170.6200  139.4370 C   0  0  1  0  0  3  0  0  0  0  0  0
  195.7890  174.3190  141.2110 C   0  0  2  0  0  3  0  0  0  0  0  0
  196.3250  174.9730  139.9270 C   0  0  0  0  0  0  0  0  0  0  0  0
  196.9220  170.9430  134.5130 N   0  0  0  0  0  1  0  0  0  0  0  0
  196.2400  172.9800  140.6480 C   0  0  2  0  0  3  0  0  0  0  0  0
  196.9920  173.6870  137.0350 C   0  0  0  0  0  0  0  0  0  0  0  0
  197.5350  169.3380  139.1100 O   0  0  0  0  0  1  0  0  0  0  0  0
  196.9640  173.0050  135.8080 C   0  0  0  0  0  3  0  0  0  0  0  0
  196.9330  172.9570  138.2450 C   0  0  0  0  0  0  0  0  0  0  0  0
  195.3240  175.3310  139.0150 O   0  0  0  0  0  1  0  0  0  0  0  0
  197.9410  171.1630  140.5930 C   0  0  0  0  0  2  0  0  0  0  0  0
  197.1720  172.1400  141.4980 C   0  0  0  0  0  2  0  0  0  0  0  0
  197.0510  173.6760  139.5760 C   0  0  1  0  0  3  0  0  0  0  0  0
  197.2020  176.0240  140.1870 O   0  0  0  0  0  1  0  0  0  0  0  0
  197.0320  171.5250  138.1970 C   0  0  0  0  0  0  0  0  0  0  0  0
  197.0990  175.0840  137.0570 O   0  0  0  0  0  0  0  0  0  0  0  0
  196.6420  176.6700  135.3800 C   0  0  0  0  0  2  0  0  0  0  0  0
  197.4950  175.8340  135.9500 C   0  0  0  0  0  3  0  0  0  0  0  0
  1 25  1  1  0  0  0
  1 21  1  0  0  0  0
  1 15  1  0  0  0  0
  3 18  1  0  0  0  0
  3 24  1  0  0  0  0
  5 14  2  0  0  0  0
  5 20  1  0  0  0  0
  6 22  1  1  0  0  0
  7  9  2  0  0  0  0
  7 11  1  0  0  0  0
  8 16  1  1  0  0  0
  8  7  1  0  0  0  0
 11 13  2  0  0  0  0
 12 18  1  0  0  0  0
 13 14  1  0  0  0  0
 14 23  1  0  0  0  0
 15 11  1  0  0  0  0
 17 19  1  0  0  0  0
 18  6  1  0  0  0  0
 19 10  1  0  0  0  0
 19  2  1  1  0  0  0
 19 20  1  0  0  0  0
 21  8  1  0  0  0  0
 22 17  1  0  0  0  0
 24 25  1  0  0  0  0
 24  4  1  1  0  0  0
 26 42  1  0  0  0  0
 27 35  1  0  0  0  0
 27 26  2  0  0  0  0
 28 34  1  6  0  0  0
 28 38  1  0  0  0  0
 29 30  1  6  0  0  0
 29  6  1  0  0  0  0
 30 41  1  0  0  0  0
 31 27  1  0  0  0  0
 32 29  1  0  0  0  0
 32 39  1  1  0  0  0
 33 43  1  0  0  0  0
 33 36  1  0  0  0  0
 35 33  2  0  0  0  0
 37 30  1  0  0  0  0
 38 39  1  0  0  0  0
 40 36  1  6  0  0  0
 40 30  1  0  0  0  0
 40 32  1  0  0  0  0
 42 36  2  0  0  0  0
 42 28  1  0  0  0  0
 44 45  2  0  0  0  0
 45 43  1  0  0  0  0
M  END
>  <MODEL>
4

>  <REMARK>
 VINA RESULT:      -7.7      2.651      3.995
  Name = 
  3 active torsions:
  status: ('A' for Active; 'I' for Inactive)
    1  A    between atoms: C_9  and  C_12
    2  A    between atoms: C_16  and  O_21
    3  A    between atoms: O_21  and  C_40
                            x       y       z     vdW  Elec       q    Type
                         _______ _______ _______ _____ _____    ______ ____

>  <TORSDO>
F 3

$$$$
=
 OpenBabel11062420433D

 45 49  0  0  1  0  0  0  0  0999 V2000
  193.6500  170.5480  144.4900 C   0  0  2  0  0  3  0  0  0  0  0  0
  195.1120  176.7440  141.1310 C   0  0  0  0  0  1  0  0  0  0  0  0
  191.6820  172.6040  143.7200 C   0  0  0  0  0  2  0  0  0  0  0  0
  193.2940  172.3190  141.9600 O   0  0  0  0  0  1  0  0  0  0  0  0
  195.8520  173.5130  142.9250 N   0  0  0  0  0  0  0  0  0  0  0  0
  191.8110  174.9530  143.9260 C   0  0  1  0  0  3  0  0  0  0  0  0
  195.9920  170.3930  146.1370 C   0  0  0  0  0  0  0  0  0  0  0  0
  194.8930  169.3800  146.3040 C   0  0  2  0  0  3  0  0  0  0  0  0
  196.9660  170.4000  146.9370 O   0  0  0  0  0  0  0  0  0  0  0  0
  195.5250  176.3470  143.4180 O   0  0  0  0  0  1  0  0  0  0  0  0
  195.8850  171.4150  145.0710 C   0  0  0  0  0  0  0  0  0  0  0  0
  189.8850  173.8600  143.3070 O   0  0  0  0  0  1  0  0  0  0  0  0
  196.8420  172.3390  144.9350 C   0  0  0  0  0  3  0  0  0  0  0  0
  196.8790  173.4000  143.9170 C   0  0  0  0  0  0  0  0  0  0  0  0
  194.7790  171.3770  144.2120 O   0  0  0  0  0  0  0  0  0  0  0  0
  195.4160  168.1660  146.7080 F   0  0  0  0  0  0  0  0  0  0  0  0
  193.6310  175.4000  142.3930 O   0  0  0  0  0  0  0  0  0  0  0  0
  191.2290  173.8580  143.1330 N   0  0  0  0  0  0  0  0  0  0  0  0
  195.0010  175.7440  142.2640 C   0  0  1  0  0  0  0  0  0  0  0  0
  195.8350  174.5220  141.8710 C   0  0  0  0  0  2  0  0  0  0  0  0
  194.1050  169.1910  145.0100 C   0  0  0  0  0  2  0  0  0  0  0  0
  193.3330  174.9980  143.7100 C   0  0  0  0  0  2  0  0  0  0  0  0
  197.9080  174.2370  143.9270 C   0  0  0  0  0  1  0  0  0  0  0  0
  192.2640  171.6830  142.6530 C   0  0  1  0  0  3  0  0  0  0  0  0
  192.7680  170.3690  143.2540 C   0  0  0  0  0  2  0  0  0  0  0  0
  186.0130  176.8690  145.5350 C   0  0  0  0  0  3  0  0  0  0  0  0
  186.0840  177.2980  146.8540 C   0  0  0  0  0  0  0  0  0  0  0  0
  186.9330  176.4280  143.2470 C   0  0  1  0  0  3  0  0  0  0  0  0
  191.2240  176.3350  143.5470 C   0  0  2  0  0  3  0  0  0  0  0  0
  191.0320  177.2860  144.7390 C   0  0  0  0  0  0  0  0  0  0  0  0
  184.9310  177.2390  147.6870 N   0  0  0  0  0  1  0  0  0  0  0  0
  189.7130  176.3390  143.3750 C   0  0  2  0  0  3  0  0  0  0  0  0
  188.4140  177.9030  146.5360 C   0  0  0  0  0  0  0  0  0  0  0  0
  185.5810  176.4160  142.8920 O   0  0  0  0  0  1  0  0  0  0  0  0
  187.2690  177.8300  147.3450 C   0  0  0  0  0  3  0  0  0  0  0  0
  188.3830  177.3710  145.2250 C   0  0  0  0  0  0  0  0  0  0  0  0
  191.1650  176.6630  145.9860 O   0  0  0  0  0  1  0  0  0  0  0  0
  187.7120  177.2180  142.1800 C   0  0  0  0  0  2  0  0  0  0  0  0
  189.1620  176.7300  142.0180 C   0  0  0  0  0  2  0  0  0  0  0  0
  189.5850  177.5220  144.3130 C   0  0  1  0  0  3  0  0  0  0  0  0
  191.8130  178.4350  144.6380 O   0  0  0  0  0  1  0  0  0  0  0  0
  187.1270  176.9320  144.6850 C   0  0  0  0  0  0  0  0  0  0  0  0
  189.5750  178.5200  147.0190 O   0  0  0  0  0  0  0  0  0  0  0  0
  190.8110  177.9510  148.9390 C   0  0  0  0  0  2  0  0  0  0  0  0
  189.8490  178.6660  148.3790 C   0  0  0  0  0  3  0  0  0  0  0  0
  1 25  1  6  0  0  0
  1 21  1  0  0  0  0
  5 14  2  0  0  0  0
  6 22  1  6  0  0  0
  7  8  1  0  0  0  0
  7  9  2  0  0  0  0
  8 16  1  6  0  0  0
 11  7  1  0  0  0  0
 13 11  2  0  0  0  0
 14 23  1  0  0  0  0
 14 13  1  0  0  0  0
 15  1  1  0  0  0  0
 15 11  1  0  0  0  0
 17 22  1  0  0  0  0
 18 12  1  0  0  0  0
 18  3  1  0  0  0  0
 18  6  1  0  0  0  0
 19  2  1  6  0  0  0
 19 17  1  0  0  0  0
 19 10  1  0  0  0  0
 20 19  1  0  0  0  0
 20  5  1  0  0  0  0
 21  8  1  0  0  0  0
 24  4  1  1  0  0  0
 24 25  1  0  0  0  0
 24  3  1  0  0  0  0
 26 27  1  0  0  0  0
 27 35  2  0  0  0  0
 27 31  1  0  0  0  0
 28 34  1  6  0  0  0
 28 42  1  0  0  0  0
 29  6  1  0  0  0  0
 29 30  1  1  0  0  0
 30 37  1  0  0  0  0
 32 39  1  6  0  0  0
 32 29  1  0  0  0  0
 32 40  1  0  0  0  0
 33 43  1  0  0  0  0
 33 35  1  0  0  0  0
 36 33  2  0  0  0  0
 38 28  1  0  0  0  0
 39 38  1  0  0  0  0
 40 30  1  0  0  0  0
 40 36  1  1  0  0  0
 41 30  1  0  0  0  0
 42 36  1  0  0  0  0
 42 26  2  0  0  0  0
 43 45  1  0  0  0  0
 45 44  2  0  0  0  0
M  END
>  <MODEL>
5

>  <REMARK>
 VINA RESULT:      -7.5      3.100      9.309
  Name = 
  3 active torsions:
  status: ('A' for Active; 'I' for Inactive)
    1  A    between atoms: C_9  and  C_12
    2  A    between atoms: C_16  and  O_21
    3  A    between atoms: O_21  and  C_40
                            x       y       z     vdW  Elec       q    Type
                         _______ _______ _______ _____ _____    ______ ____

>  <TORSDO>
F 3

$$$$
=
 OpenBabel11062420433D

 45 49  0  0  1  0  0  0  0  0999 V2000
  188.1870  175.2260  142.5110 C   0  0  2  0  0  3  0  0  0  0  0  0
  194.1360  174.5780  146.5120 C   0  0  0  0  0  1  0  0  0  0  0  0
  190.8160  174.2830  141.5630 C   0  0  0  0  0  2  0  0  0  0  0  0
  190.3500  173.3540  143.7300 O   0  0  0  0  0  1  0  0  0  0  0  0
  190.5950  175.5820  145.7000 N   0  0  0  0  0  0  0  0  0  0  0  0
  192.9680  175.1440  142.0150 C   0  0  1  0  0  3  0  0  0  0  0  0
  187.1160  177.5940  143.7210 C   0  0  0  0  0  0  0  0  0  0  0  0
  186.4500  177.0090  142.5060 C   0  0  2  0  0  3  0  0  0  0  0  0
  186.7200  178.6990  144.1830 O   0  0  0  0  0  0  0  0  0  0  0  0
  193.2930  176.6300  145.7130 O   0  0  0  0  0  1  0  0  0  0  0  0
  188.2750  176.8970  144.3230 C   0  0  0  0  0  0  0  0  0  0  0  0
  192.5840  173.5080  140.4440 O   0  0  0  0  0  1  0  0  0  0  0  0
  188.8940  177.4260  145.3840 C   0  0  0  0  0  3  0  0  0  0  0  0
  190.0420  176.8420  146.0940 C   0  0  0  0  0  0  0  0  0  0  0  0
  188.6890  175.6780  143.7700 O   0  0  0  0  0  0  0  0  0  0  0  0
  185.0890  177.2530  142.5390 F   0  0  0  0  0  0  0  0  0  0  0  0
  193.1000  174.6950  144.3900 O   0  0  0  0  0  0  0  0  0  0  0  0
  192.2210  173.9190  141.6840 N   0  0  0  0  0  0  0  0  0  0  0  0
  193.0500  175.2480  145.6950 C   0  0  1  0  0  0  0  0  0  0  0  0
  191.7140  174.9290  146.3710 C   0  0  0  0  0  2  0  0  0  0  0  0
  186.6940  175.5050  142.4040 C   0  0  0  0  0  2  0  0  0  0  0  0
  192.6050  175.6060  143.4360 C   0  0  0  0  0  2  0  0  0  0  0  0
  190.5340  177.5050  147.1330 C   0  0  0  0  0  1  0  0  0  0  0  0
  189.9400  173.3550  142.3970 C   0  0  1  0  0  3  0  0  0  0  0  0
  188.4610  173.7360  142.3030 C   0  0  0  0  0  2  0  0  0  0  0  0
  195.7800  170.8880  138.2910 C   0  0  0  0  0  3  0  0  0  0  0  0
  195.8290  171.4400  137.0180 C   0  0  0  0  0  0  0  0  0  0  0  0
  195.7210  170.9760  140.7950 C   0  0  1  0  0  3  0  0  0  0  0  0
  194.5010  174.9380  141.9450 C   0  0  2  0  0  3  0  0  0  0  0  0
  195.1360  175.3800  140.6170 C   0  0  0  0  0  0  0  0  0  0  0  0
  195.8470  170.5940  135.8740 N   0  0  0  0  0  1  0  0  0  0  0  0
  194.9210  173.5160  141.6060 C   0  0  2  0  0  3  0  0  0  0  0  0
  195.9030  173.6670  137.9820 C   0  0  0  0  0  0  0  0  0  0  0  0
  196.1320  169.6450  140.6810 O   0  0  0  0  0  1  0  0  0  0  0  0
  195.9120  172.8180  136.8640 C   0  0  0  0  0  3  0  0  0  0  0  0
  195.7440  173.1220  139.2780 C   0  0  0  0  0  0  0  0  0  0  0  0
  194.2050  175.6400  139.6040 O   0  0  0  0  0  1  0  0  0  0  0  0
  196.5380  171.6480  141.9130 C   0  0  0  0  0  2  0  0  0  0  0  0
  195.7660  172.7730  142.6220 C   0  0  0  0  0  2  0  0  0  0  0  0
  195.8210  174.0200  140.4970 C   0  0  1  0  0  3  0  0  0  0  0  0
  196.0450  176.4240  140.7790 O   0  0  0  0  0  1  0  0  0  0  0  0
  195.7800  171.6950  139.4390 C   0  0  0  0  0  0  0  0  0  0  0  0
  196.0720  175.0480  137.8130 O   0  0  0  0  0  0  0  0  0  0  0  0
  197.2190  176.0390  136.0130 C   0  0  0  0  0  2  0  0  0  0  0  0
  197.2250  175.6110  137.2650 C   0  0  0  0  0  3  0  0  0  0  0  0
  1 25  1  1  0  0  0
  1 15  1  0  0  0  0
  3 18  1  0  0  0  0
  3 24  1  0  0  0  0
  5 14  2  0  0  0  0
  5 20  1  0  0  0  0
  6 22  1  1  0  0  0
  7  9  2  0  0  0  0
  7 11  1  0  0  0  0
  8 16  1  1  0  0  0
  8  7  1  0  0  0  0
 11 13  2  0  0  0  0
 12 18  1  0  0  0  0
 13 14  1  0  0  0  0
 14 23  1  0  0  0  0
 15 11  1  0  0  0  0
 17 19  1  0  0  0  0
 18  6  1  0  0  0  0
 19 10  1  0  0  0  0
 19 20  1  0  0  0  0
 19  2  1  1  0  0  0
 21  8  1  0  0  0  0
 21  1  1  0  0  0  0
 22 17  1  0  0  0  0
 24  4  1  1  0  0  0
 25 24  1  0  0  0  0
 26 42  1  0  0  0  0
 27 26  2  0  0  0  0
 28 34  1  6  0  0  0
 28 38  1  0  0  0  0
 29 30  1  6  0  0  0
 29  6  1  0  0  0  0
 30 41  1  0  0  0  0
 31 27  1  0  0  0  0
 32 29  1  0  0  0  0
 32 39  1  1  0  0  0
 33 36  1  0  0  0  0
 35 27  1  0  0  0  0
 35 33  2  0  0  0  0
 36 42  2  0  0  0  0
 37 30  1  0  0  0  0
 38 39  1  0  0  0  0
 40 36  1  6  0  0  0
 40 30  1  0  0  0  0
 40 32  1  0  0  0  0
 42 28  1  0  0  0  0
 43 33  1  0  0  0  0
 44 45  2  0  0  0  0
 45 43  1  0  0  0  0
M  END
>  <MODEL>
6

>  <REMARK>
 VINA RESULT:      -7.5      2.222      2.804
  Name = 
  3 active torsions:
  status: ('A' for Active; 'I' for Inactive)
    1  A    between atoms: C_9  and  C_12
    2  A    between atoms: C_16  and  O_21
    3  A    between atoms: O_21  and  C_40
                            x       y       z     vdW  Elec       q    Type
                         _______ _______ _______ _____ _____    ______ ____

>  <TORSDO>
F 3

$$$$
=
 OpenBabel11062420433D

 45 49  0  0  1  0  0  0  0  0999 V2000
  196.7880  174.9070  137.9560 C   0  0  2  0  0  3  0  0  0  0  0  0
  193.2430  169.1630  140.4570 C   0  0  0  0  0  1  0  0  0  0  0  0
  196.1690  174.3540  140.7850 C   0  0  0  0  0  2  0  0  0  0  0  0
  196.8460  172.3250  139.6870 O   0  0  0  0  0  1  0  0  0  0  0  0
  194.6150  171.5360  137.8700 N   0  0  0  0  0  2  0  0  0  0  0  0
  194.1640  173.5660  141.7540 C   0  0  1  0  0  3  0  0  0  0  0  0
  195.3240  175.2830  135.5190 C   0  0  0  0  0  0  0  0  0  0  0  0
  196.3670  176.2870  135.9270 C   0  0  2  0  0  3  0  0  0  0  0  0
  194.5970  175.5060  134.5130 O   0  0  0  0  0  0  0  0  0  0  0  0
  192.2120  170.9970  139.3910 O   0  0  0  0  0  1  0  0  0  0  0  0
  195.1180  174.0710  136.3450 C   0  0  0  0  0  0  0  0  0  0  0  0
  195.9390  174.3220  143.0050 O   0  0  0  0  0  1  0  0  0  0  0  0
  194.1710  173.1890  136.0080 C   0  0  0  0  0  3  0  0  0  0  0  0
  193.8650  171.9380  136.7190 C   0  0  0  0  0  0  0  0  0  0  0  0
  195.9400  173.8690  137.4600 O   0  0  0  0  0  0  0  0  0  0  0  0
  196.9530  176.8520  134.8090 F   0  0  0  0  0  0  0  0  0  0  0  0
  194.0790  171.3520  140.7780 O   0  0  0  0  0  0  0  0  0  0  0  0
  195.6280  173.5940  141.9040 N   0  0  0  0  0  0  0  0  0  0  0  0
  193.4620  170.5160  139.8120 C   0  0  1  0  0  0  0  0  0  0  0  0
  194.3850  170.3000  138.6100 C   0  0  0  0  0  2  0  0  0  0  0  0
  197.4450  175.6500  136.8010 C   0  0  0  0  0  2  0  0  0  0  0  0
  193.7840  172.7080  140.5350 C   0  0  0  0  0  2  0  0  0  0  0  0
  192.8870  171.1760  136.2450 C   0  0  0  0  0  2  0  0  0  0  0  0
  197.2900  173.5830  140.0960 C   0  0  1  0  0  3  0  0  0  0  0  0
  197.8550  174.3540  138.9010 C   0  0  0  0  0  2  0  0  0  0  0  0
  190.1510  176.8500  145.3580 C   0  0  0  0  0  3  0  0  0  0  0  0
  188.9290  176.8490  144.6990 C   0  0  0  0  0  0  0  0  0  0  0  0
  192.3910  175.9090  145.9720 C   0  0  1  0  0  3  0  0  0  0  0  0
  193.4520  172.9850  143.0000 C   0  0  2  0  0  3  0  0  0  0  0  0
  191.9360  172.7980  142.8290 C   0  0  0  0  0  0  0  0  0  0  0  0
  188.0110  177.9190  144.8980 N   0  0  0  0  0  1  0  0  0  0  0  0
  193.1450  174.0170  144.0740 C   0  0  2  0  0  3  0  0  0  0  0  0
  189.4720  174.7120  143.6850 C   0  0  0  0  0  0  0  0  0  0  0  0
  192.2770  176.7930  147.0490 O   0  0  0  0  0  1  0  0  0  0  0  0
  188.5820  175.7790  143.8860 C   0  0  0  0  0  3  0  0  0  0  0  0
  190.7620  174.7540  144.2640 C   0  0  0  0  0  0  0  0  0  0  0  0
  191.4140  173.4240  141.6900 O   0  0  0  0  0  1  0  0  0  0  0  0
  192.9390  174.5690  146.4940 C   0  0  0  0  0  2  0  0  0  0  0  0
  193.7680  173.8140  145.4410 C   0  0  0  0  0  2  0  0  0  0  0  0
  191.6990  173.5690  144.1260 C   0  0  1  0  0  3  0  0  0  0  0  0
  191.5480  171.4630  142.9220 O   0  0  0  0  0  1  0  0  0  0  0  0
  191.0690  175.8010  145.1970 C   0  0  0  0  0  0  0  0  0  0  0  0
  189.0730  173.6010  142.9300 O   0  0  0  0  0  0  0  0  0  0  0  0
  188.3600  173.3630  140.7000 C   0  0  0  0  0  2  0  0  0  0  0  0
  188.0750  173.6600  141.9580 C   0  0  0  0  0  3  0  0  0  0  0  0
  1 21  1  6  0  0  0
  1 25  1  0  0  0  0
  3 18  1  0  0  0  0
  5 20  1  0  0  0  0
  6 22  1  6  0  0  0
  6 18  1  0  0  0  0
  6 29  1  0  0  0  0
  7  8  1  0  0  0  0
  7 11  1  0  0  0  0
  8 16  1  6  0  0  0
  8 21  1  0  0  0  0
  9  7  2  0  0  0  0
 10 19  1  0  0  0  0
 11 15  1  0  0  0  0
 13 11  2  0  0  0  0
 13 14  1  0  0  0  0
 14  5  1  0  0  0  0
 15  1  1  0  0  0  0
 18 12  1  0  0  0  0
 19  2  1  1  0  0  0
 19 17  1  0  0  0  0
 20 19  1  0  0  0  0
 22 17  1  0  0  0  0
 23 14  2  0  0  0  0
 24  4  1  6  0  0  0
 24  3  1  0  0  0  0
 25 24  1  0  0  0  0
 27 31  1  0  0  0  0
 27 26  2  0  0  0  0
 28 38  1  0  0  0  0
 28 34  1  1  0  0  0
 29 30  1  6  0  0  0
 29 32  1  0  0  0  0
 30 41  1  0  0  0  0
 30 40  1  0  0  0  0
 32 40  1  0  0  0  0
 32 39  1  1  0  0  0
 33 35  2  0  0  0  0
 33 36  1  0  0  0  0
 35 27  1  0  0  0  0
 36 42  2  0  0  0  0
 37 30  1  0  0  0  0
 39 38  1  0  0  0  0
 40 36  1  6  0  0  0
 42 26  1  0  0  0  0
 42 28  1  0  0  0  0
 43 33  1  0  0  0  0
 44 45  2  0  0  0  0
 45 43  1  0  0  0  0
M  END
>  <MODEL>
7

>  <REMARK>
 VINA RESULT:      -7.3      3.674      8.722
  Name = 
  3 active torsions:
  status: ('A' for Active; 'I' for Inactive)
    1  A    between atoms: C_9  and  C_12
    2  A    between atoms: C_16  and  O_21
    3  A    between atoms: O_21  and  C_40
                            x       y       z     vdW  Elec       q    Type
                         _______ _______ _______ _____ _____    ______ ____

>  <TORSDO>
F 3

$$$$
=
 OpenBabel11062420433D

 45 49  0  0  1  0  0  0  0  0999 V2000
  194.9940  175.7920  136.0930 C   0  0  2  0  0  3  0  0  0  0  0  0
  189.5320  171.1570  136.8090 C   0  0  0  0  0  1  0  0  0  0  0  0
  194.6550  173.8410  138.2790 C   0  0  0  0  0  2  0  0  0  0  0  0
  194.0460  172.8310  136.1840 O   0  0  0  0  0  1  0  0  0  0  0  0
  191.4550  174.0540  135.3520 N   0  0  0  0  0  2  0  0  0  0  0  0
  192.7130  173.2850  139.5030 C   0  0  1  0  0  3  0  0  0  0  0  0
  193.5320  178.0080  135.0100 C   0  0  0  0  0  0  0  0  0  0  0  0
  194.9860  178.1700  135.3580 C   0  0  2  0  0  3  0  0  0  0  0  0
  192.8580  179.0090  134.6470 O   0  0  0  0  0  0  0  0  0  0  0  0
  189.3870  173.4610  137.2900 O   0  0  0  0  0  1  0  0  0  0  0  0
  192.8910  176.6810  135.1610 C   0  0  0  0  0  0  0  0  0  0  0  0
  194.8070  172.5260  140.0750 O   0  0  0  0  0  1  0  0  0  0  0  0
  191.5900  176.5350  134.8840 C   0  0  0  0  0  3  0  0  0  0  0  0
  190.8260  175.2810  134.9710 C   0  0  0  0  0  0  0  0  0  0  0  0
  193.6750  175.5990  135.5790 O   0  0  0  0  0  0  0  0  0  0  0  0
  195.5830  179.0880  134.5140 F   0  0  0  0  0  0  0  0  0  0  0  0
  191.3830  172.2980  137.7380 O   0  0  0  0  0  0  0  0  0  0  0  0
  194.0010  172.7660  139.0130 N   0  0  0  0  0  0  0  0  0  0  0  0
  190.2840  172.4710  136.8580 C   0  0  1  0  0  0  0  0  0  0  0  0
  190.7680  172.7690  135.4360 C   0  0  0  0  0  2  0  0  0  0  0  0
  195.7330  176.8410  135.2750 C   0  0  0  0  0  2  0  0  0  0  0  0
  191.7640  173.5250  138.3180 C   0  0  0  0  0  2  0  0  0  0  0  0
  189.5360  175.3160  134.6580 C   0  0  0  0  0  2  0  0  0  0  0  0
  195.1160  173.3610  136.9070 C   0  0  1  0  0  3  0  0  0  0  0  0
  195.7840  174.4830  136.1100 C   0  0  0  0  0  2  0  0  0  0  0  0
  191.7780  174.5740  145.6140 C   0  0  0  0  0  3  0  0  0  0  0  0
  190.6570  175.3920  145.6840 C   0  0  0  0  0  0  0  0  0  0  0  0
  193.2230  172.7990  144.5960 C   0  0  1  0  0  3  0  0  0  0  0  0
  192.0230  172.3150  140.4930 C   0  0  2  0  0  3  0  0  0  0  0  0
  190.6420  172.7860  140.9760 C   0  0  0  0  0  0  0  0  0  0  0  0
  190.5090  176.3080  146.7630 N   0  0  0  0  0  1  0  0  0  0  0  0
  192.5060  172.4480  141.9290 C   0  0  2  0  0  3  0  0  0  0  0  0
  189.7830  174.3740  143.6610 C   0  0  0  0  0  0  0  0  0  0  0  0
  193.7860  172.7630  145.8750 O   0  0  0  0  0  1  0  0  0  0  0  0
  189.6570  175.2780  144.7280 C   0  0  0  0  0  3  0  0  0  0  0  0
  190.9690  173.6140  143.5200 C   0  0  0  0  0  0  0  0  0  0  0  0
  190.3570  174.1200  140.6590 O   0  0  0  0  0  1  0  0  0  0  0  0
  193.0410  171.3520  144.1010 C   0  0  0  0  0  2  0  0  0  0  0  0
  193.1410  171.2300  142.5710 C   0  0  0  0  0  2  0  0  0  0  0  0
  191.0800  172.5720  142.4230 C   0  0  1  0  0  3  0  0  0  0  0  0
  189.6180  171.9220  140.5940 O   0  0  0  0  0  1  0  0  0  0  0  0
  191.9430  173.6480  144.5740 C   0  0  0  0  0  0  0  0  0  0  0  0
  188.7280  174.2110  142.7530 O   0  0  0  0  0  0  0  0  0  0  0  0
  188.1410  176.2170  141.6720 C   0  0  0  0  0  2  0  0  0  0  0  0
  187.8050  175.2180  142.4720 C   0  0  0  0  0  3  0  0  0  0  0  0
  1 21  1  6  0  0  0
  1 25  1  0  0  0  0
  3 18  1  0  0  0  0
  5 20  1  0  0  0  0
  6 22  1  6  0  0  0
  6 29  1  0  0  0  0
  7 11  1  0  0  0  0
  7  8  1  0  0  0  0
  8 16  1  6  0  0  0
  9  7  2  0  0  0  0
 11 15  1  0  0  0  0
 13 14  1  0  0  0  0
 13 11  2  0  0  0  0
 14  5  1  0  0  0  0
 15  1  1  0  0  0  0
 17 22  1  0  0  0  0
 18  6  1  0  0  0  0
 18 12  1  0  0  0  0
 19  2  1  6  0  0  0
 19 10  1  0  0  0  0
 19 17  1  0  0  0  0
 20 19  1  0  0  0  0
 21  8  1  0  0  0  0
 23 14  2  0  0  0  0
 24  4  1  6  0  0  0
 24  3  1  0  0  0  0
 25 24  1  0  0  0  0
 26 27  1  0  0  0  0
 27 31  1  0  0  0  0
 28 34  1  1  0  0  0
 29 30  1  1  0  0  0
 29 32  1  0  0  0  0
 30 40  1  0  0  0  0
 32 40  1  0  0  0  0
 32 39  1  1  0  0  0
 33 35  1  0  0  0  0
 35 27  2  0  0  0  0
 36 33  2  0  0  0  0
 36 42  1  0  0  0  0
 37 30  1  0  0  0  0
 38 28  1  0  0  0  0
 39 38  1  0  0  0  0
 40 36  1  1  0  0  0
 41 30  1  0  0  0  0
 42 28  1  0  0  0  0
 42 26  2  0  0  0  0
 43 33  1  0  0  0  0
 44 45  2  0  0  0  0
 45 43  1  0  0  0  0
M  END
>  <MODEL>
8

>  <REMARK>
 VINA RESULT:      -7.2      4.701      8.455
  Name = 
  3 active torsions:
  status: ('A' for Active; 'I' for Inactive)
    1  A    between atoms: C_9  and  C_12
    2  A    between atoms: C_16  and  O_21
    3  A    between atoms: O_21  and  C_40
                            x       y       z     vdW  Elec       q    Type
                         _______ _______ _______ _____ _____    ______ ____

>  <TORSDO>
F 3

$$$$
=
 OpenBabel11062420433D

 45 49  0  0  1  0  0  0  0  0999 V2000
  188.3090  174.7970  142.2010 C   0  0  2  0  0  3  0  0  0  0  0  0
  194.0140  171.0940  144.5580 C   0  0  0  0  0  1  0  0  0  0  0  0
  189.9560  172.9520  140.5970 C   0  0  0  0  0  2  0  0  0  0  0  0
  189.5920  172.0250  142.7840 O   0  0  0  0  0  1  0  0  0  0  0  0
  191.2300  173.6310  144.6910 N   0  0  0  0  0  0  0  0  0  0  0  0
  192.3060  172.7250  140.5160 C   0  0  1  0  0  3  0  0  0  0  0  0
  188.7100  177.2020  143.7090 C   0  0  0  0  0  0  0  0  0  0  0  0
  187.6110  177.1370  142.6850 C   0  0  2  0  0  3  0  0  0  0  0  0
  188.9660  178.2940  144.2860 O   0  0  0  0  0  0  0  0  0  0  0  0
  194.0440  173.3970  144.0550 O   0  0  0  0  0  1  0  0  0  0  0  0
  189.5260  175.9960  143.9800 C   0  0  0  0  0  0  0  0  0  0  0  0
  190.9000  171.6510  139.0480 O   0  0  0  0  0  1  0  0  0  0  0  0
  190.5260  176.0540  144.8650 C   0  0  0  0  0  3  0  0  0  0  0  0
  191.4060  174.9390  145.2480 C   0  0  0  0  0  0  0  0  0  0  0  0
  189.2150  174.8090  143.3060 O   0  0  0  0  0  0  0  0  0  0  0  0
  186.5500  177.9390  143.0660 F   0  0  0  0  0  0  0  0  0  0  0  0
  192.7200  171.9390  142.7680 O   0  0  0  0  0  0  0  0  0  0  0  0
  191.0340  172.0030  140.3500 N   0  0  0  0  0  0  0  0  0  0  0  0
  193.2040  172.2730  144.0590 C   0  0  1  0  0  0  0  0  0  0  0  0
  192.0460  172.4730  145.0400 C   0  0  0  0  0  2  0  0  0  0  0  0
  187.1200  175.7050  142.4820 C   0  0  0  0  0  2  0  0  0  0  0  0
  192.5020  173.0970  141.9960 C   0  0  0  0  0  2  0  0  0  0  0  0
  192.3530  175.1730  146.1470 C   0  0  0  0  0  1  0  0  0  0  0  0
  188.9540  172.3870  141.5970 C   0  0  1  0  0  3  0  0  0  0  0  0
  187.8260  173.3790  141.8890 C   0  0  0  0  0  2  0  0  0  0  0  0
  196.0730  174.3440  135.7130 C   0  0  0  0  0  3  0  0  0  0  0  0
  196.9530  175.3020  136.2000 C   0  0  0  0  0  0  0  0  0  0  0  0
  194.5540  172.3600  135.9070 C   0  0  1  0  0  3  0  0  0  0  0  0
  193.5260  171.8890  140.0580 C   0  0  2  0  0  3  0  0  0  0  0  0
  194.8840  172.5520  140.3370 C   0  0  0  0  0  0  0  0  0  0  0  0
  197.5140  176.2670  135.3180 N   0  0  0  0  0  1  0  0  0  0  0  0
  193.8370  172.0090  138.5740 C   0  0  2  0  0  3  0  0  0  0  0  0
  196.7860  174.3330  138.4200 C   0  0  0  0  0  0  0  0  0  0  0  0
  194.7380  172.2990  134.5230 O   0  0  0  0  0  1  0  0  0  0  0  0
  197.3240  175.2830  137.5380 C   0  0  0  0  0  3  0  0  0  0  0  0
  195.8070  173.4210  137.9590 C   0  0  0  0  0  0  0  0  0  0  0  0
  194.7900  173.8990  140.7070 O   0  0  0  0  0  1  0  0  0  0  0  0
  194.6410  170.9330  136.4770 C   0  0  0  0  0  2  0  0  0  0  0  0
  193.7850  170.7440  137.7410 C   0  0  0  0  0  2  0  0  0  0  0  0
  195.2840  172.3350  138.8790 C   0  0  1  0  0  3  0  0  0  0  0  0
  195.6680  171.8140  141.2210 O   0  0  0  0  0  1  0  0  0  0  0  0
  195.5180  173.3670  136.5530 C   0  0  0  0  0  0  0  0  0  0  0  0
  197.2360  174.2750  139.7460 O   0  0  0  0  0  0  0  0  0  0  0  0
  197.8400  175.4270  141.7060 C   0  0  0  0  0  2  0  0  0  0  0  0
  197.8550  175.3480  140.3860 C   0  0  0  0  0  3  0  0  0  0  0  0
  1 25  1  1  0  0  0
  1 21  1  0  0  0  0
  1 15  1  0  0  0  0
  3 24  1  0  0  0  0
  5 20  1  0  0  0  0
  5 14  2  0  0  0  0
  6 22  1  1  0  0  0
  7 11  1  0  0  0  0
  7  9  2  0  0  0  0
  8 16  1  1  0  0  0
  8  7  1  0  0  0  0
 10 19  1  0  0  0  0
 11 13  2  0  0  0  0
 12 18  1  0  0  0  0
 13 14  1  0  0  0  0
 14 23  1  0  0  0  0
 15 11  1  0  0  0  0
 17 19  1  0  0  0  0
 18  6  1  0  0  0  0
 18  3  1  0  0  0  0
 19  2  1  1  0  0  0
 19 20  1  0  0  0  0
 21  8  1  0  0  0  0
 22 17  1  0  0  0  0
 24 25  1  0  0  0  0
 24  4  1  1  0  0  0
 26 27  2  0  0  0  0
 26 42  1  0  0  0  0
 27 35  1  0  0  0  0
 28 34  1  6  0  0  0
 28 38  1  0  0  0  0
 28 42  1  0  0  0  0
 29 30  1  1  0  0  0
 29  6  1  0  0  0  0
 30 37  1  0  0  0  0
 30 41  1  0  0  0  0
 31 27  1  0  0  0  0
 32 39  1  6  0  0  0
 32 40  1  0  0  0  0
 32 29  1  0  0  0  0
 33 43  1  0  0  0  0
 35 33  2  0  0  0  0
 36 33  1  0  0  0  0
 38 39  1  0  0  0  0
 40 36  1  6  0  0  0
 40 30  1  0  0  0  0
 42 36  2  0  0  0  0
 43 45  1  0  0  0  0
 45 44  2  0  0  0  0
M  END
>  <MODEL>
9

>  <REMARK>
 VINA RESULT:      -7.1      3.193      4.910
  Name = 
  3 active torsions:
  status: ('A' for Active; 'I' for Inactive)
    1  A    between atoms: C_9  and  C_12
    2  A    between atoms: C_16  and  O_21
    3  A    between atoms: O_21  and  C_40
                            x       y       z     vdW  Elec       q    Type
                         _______ _______ _______ _____ _____    ______ ____

>  <TORSDO>
F 3

$$$$
