=
 OpenBabel11062422433D

 29 32  0  0  1  0  0  0  0  0999 V2000
  190.1910  172.3080  140.6220 C   0  0  0  0  0  0  0  0  0  0  0  0
  189.9290  174.7570  142.4020 N   0  0  0  0  0  0  0  0  0  0  0  0
  190.7400  170.5120  142.1930 N   0  0  0  0  0  1  0  0  0  0  0  0
  190.3050  171.8930  142.0620 C   0  0  1  0  0  3  0  0  0  0  0  0
  188.2360  175.4310  140.8980 N   0  0  0  0  0  2  0  0  0  0  0  0
  189.2890  174.5430  141.2840 C   0  0  0  0  0  0  0  0  0  0  0  0
  191.2330  172.7610  142.7680 N   0  0  0  0  0  0  0  0  0  0  0  0
  189.6780  173.5010  140.3120 C   0  0  0  0  0  3  0  0  0  0  0  0
  191.0460  174.0330  142.9460 C   0  0  0  0  0  3  0  0  0  0  0  0
  189.7950  171.1530  137.0880 C   0  0  0  0  0  2  0  0  0  0  0  0
  192.2510  170.8090  137.7370 C   0  0  0  0  0  2  0  0  0  0  0  0
  191.1070  170.4140  136.7880 C   0  0  0  0  0  0  0  0  0  0  0  0
  191.8460  171.8330  138.7980 C   0  0  0  0  0  2  0  0  0  0  0  0
  191.5240  170.7400  135.3680 C   0  0  0  0  0  1  0  0  0  0  0  0
  189.4070  171.0810  138.5710 C   0  0  0  0  0  2  0  0  0  0  0  0
  190.5840  171.3610  139.5210 C   0  0  0  0  0  3  0  0  0  0  0  0
  190.8830  168.9160  136.8860 C   0  0  0  0  0  1  0  0  0  0  0  0
  187.8070  176.5620  141.7090 C   0  0  1  0  0  3  0  0  0  0  0  0
  187.1430  177.6050  140.8390 C   0  0  0  0  0  2  0  0  0  0  0  0
  186.0690  178.1410  141.7210 C   0  0  0  0  0  2  0  0  0  0  0  0
  185.7740  176.9690  142.6270 C   0  0  1  0  0  3  0  0  0  0  0  0
  186.9000  176.1240  142.6930 O   0  0  0  0  0  0  0  0  0  0  0  0
  185.5840  177.3360  146.4080 C   0  0  0  0  0  0  0  0  0  0  0  0
  185.9640  176.8850  145.1420 C   0  0  0  0  0  3  0  0  0  0  0  0
  184.4090  178.4360  144.1210 C   0  0  0  0  0  3  0  0  0  0  0  0
  184.0290  178.8880  145.3880 C   0  0  0  0  0  3  0  0  0  0  0  0
  186.1820  176.7790  147.5730 N   0  0  0  0  0  1  0  0  0  0  0  0
  184.6160  178.3390  146.5320 C   0  0  0  0  0  3  0  0  0  0  0  0
  185.3750  177.4320  143.9920 C   0  0  0  0  0  0  0  0  0  0  0  0
  1  4  1  0  0  0  0
  2  9  1  0  0  0  0
  4  3  1  6  0  0  0
  4  7  1  0  0  0  0
  5  6  1  0  0  0  0
  6  2  2  0  0  0  0
  7  9  2  0  0  0  0
  8  1  2  0  0  0  0
  8  6  1  0  0  0  0
 10 15  1  0  0  0  0
 11 13  1  0  0  0  0
 12 17  1  0  0  0  0
 12 10  1  0  0  0  0
 12 11  1  0  0  0  0
 13 16  1  0  0  0  0
 14 12  1  0  0  0  0
 15 16  1  0  0  0  0
 16  1  1  0  0  0  0
 18  5  1  6  0  0  0
 18 22  1  0  0  0  0
 19 18  1  0  0  0  0
 19 20  1  0  0  0  0
 20 21  1  0  0  0  0
 21 22  1  0  0  0  0
 21 29  1  1  0  0  0
 23 28  1  0  0  0  0
 23 27  1  0  0  0  0
 24 23  2  0  0  0  0
 25 26  1  0  0  0  0
 26 28  2  0  0  0  0
 29 25  2  0  0  0  0
 29 24  1  0  0  0  0
M  END
>  <MODEL>
1

>  <REMARK>
 VINA RESULT:      -7.5      0.000      0.000
  Name = 
  3 active torsions:
  status: ('A' for Active; 'I' for Inactive)
    1  A    between atoms: C_3  and  C_24
    2  A    between atoms: C_5  and  N_15
    3  A    between atoms: C_16  and  C_28
                            x       y       z     vdW  Elec       q    Type
                         _______ _______ _______ _____ _____    ______ ____

>  <TORSDO>
F 3

$$$$
=
 OpenBabel11062422433D

 29 32  0  0  1  0  0  0  0  0999 V2000
  194.4150  174.6830  144.3080 C   0  0  0  0  0  0  0  0  0  0  0  0
  191.9640  175.6810  145.8020 N   0  0  0  0  0  0  0  0  0  0  0  0
  196.0760  174.3600  146.0780 N   0  0  0  0  0  1  0  0  0  0  0  0
  194.6770  174.6330  145.7870 C   0  0  1  0  0  3  0  0  0  0  0  0
  190.7280  174.4640  144.1980 N   0  0  0  0  0  2  0  0  0  0  0  0
  191.9640  174.9790  144.7010 C   0  0  0  0  0  0  0  0  0  0  0  0
  194.2890  175.8860  146.4130 N   0  0  0  0  0  0  0  0  0  0  0  0
  193.1630  174.7910  143.8580 C   0  0  0  0  0  3  0  0  0  0  0  0
  193.0710  176.3340  146.4470 C   0  0  0  0  0  3  0  0  0  0  0  0
  195.5760  174.4320  140.7630 C   0  0  0  0  0  2  0  0  0  0  0  0
  197.3840  175.6870  142.0750 C   0  0  0  0  0  2  0  0  0  0  0  0
  197.0470  174.8640  140.8200 C   0  0  0  0  0  0  0  0  0  0  0  0
  196.1980  175.8870  143.0190 C   0  0  0  0  0  2  0  0  0  0  0  0
  197.3470  175.7050  139.5970 C   0  0  0  0  0  1  0  0  0  0  0  0
  195.1050  173.7740  142.0660 C   0  0  0  0  0  2  0  0  0  0  0  0
  195.5460  174.5390  143.3260 C   0  0  0  0  0  3  0  0  0  0  0  0
  197.9410  173.6370  140.7840 C   0  0  0  0  0  1  0  0  0  0  0  0
  189.4500  174.6540  144.8690 C   0  0  1  0  0  3  0  0  0  0  0  0
  189.6100  174.4620  146.3600 C   0  0  0  0  0  2  0  0  0  0  0  0
  188.6640  175.4610  146.9300 C   0  0  0  0  0  2  0  0  0  0  0  0
  188.6200  176.5200  145.8550 C   0  0  1  0  0  3  0  0  0  0  0  0
  188.9670  175.9520  144.6120 O   0  0  0  0  0  0  0  0  0  0  0  0
  185.7440  178.7920  144.8380 C   0  0  0  0  0  0  0  0  0  0  0  0
  187.0130  178.2110  144.8920 C   0  0  0  0  0  3  0  0  0  0  0  0
  186.2490  176.7000  146.6240 C   0  0  0  0  0  3  0  0  0  0  0  0
  184.9790  177.2820  146.5700 C   0  0  0  0  0  3  0  0  0  0  0  0
  185.4850  179.8560  143.9290 N   0  0  0  0  0  1  0  0  0  0  0  0
  184.7260  178.3280  145.6770 C   0  0  0  0  0  3  0  0  0  0  0  0
  187.2710  177.1620  145.7880 C   0  0  0  0  0  0  0  0  0  0  0  0
  1  4  1  0  0  0  0
  2  9  1  0  0  0  0
  4  3  1  6  0  0  0
  4  7  1  0  0  0  0
  5  6  1  0  0  0  0
  6  2  2  0  0  0  0
  7  9  2  0  0  0  0
  8  1  2  0  0  0  0
  8  6  1  0  0  0  0
 10 12  1  0  0  0  0
 10 15  1  0  0  0  0
 11 13  1  0  0  0  0
 12 11  1  0  0  0  0
 13 16  1  0  0  0  0
 14 12  1  0  0  0  0
 15 16  1  0  0  0  0
 16  1  1  0  0  0  0
 17 12  1  0  0  0  0
 18  5  1  6  0  0  0
 18 19  1  0  0  0  0
 19 20  1  0  0  0  0
 21 29  1  6  0  0  0
 21 20  1  0  0  0  0
 22 18  1  0  0  0  0
 22 21  1  0  0  0  0
 23 24  2  0  0  0  0
 23 28  1  0  0  0  0
 24 29  1  0  0  0  0
 26 25  1  0  0  0  0
 27 23  1  0  0  0  0
 28 26  2  0  0  0  0
 29 25  2  0  0  0  0
M  END
>  <MODEL>
2

>  <REMARK>
 VINA RESULT:      -7.4      4.530      5.791
  Name = 
  3 active torsions:
  status: ('A' for Active; 'I' for Inactive)
    1  A    between atoms: C_3  and  C_24
    2  A    between atoms: C_5  and  N_15
    3  A    between atoms: C_16  and  C_28
                            x       y       z     vdW  Elec       q    Type
                         _______ _______ _______ _____ _____    ______ ____

>  <TORSDO>
F 3

$$$$
=
 OpenBabel11062422433D

 29 32  0  0  1  0  0  0  0  0999 V2000
  194.5120  175.2860  143.3780 C   0  0  0  0  0  0  0  0  0  0  0  0
  192.5410  177.1590  144.7370 N   0  0  0  0  0  0  0  0  0  0  0  0
  195.3980  173.9450  145.2250 N   0  0  0  0  0  1  0  0  0  0  0  0
  194.3880  174.9140  144.8280 C   0  0  1  0  0  3  0  0  0  0  0  0
  191.2700  176.9480  142.7570 N   0  0  0  0  0  2  0  0  0  0  0  0
  192.4590  176.7060  143.5150 C   0  0  0  0  0  0  0  0  0  0  0  0
  194.4980  176.0960  145.6670 N   0  0  0  0  0  0  0  0  0  0  0  0
  193.5860  176.0620  142.8100 C   0  0  0  0  0  3  0  0  0  0  0  0
  193.6530  177.0820  145.6470 C   0  0  0  0  0  3  0  0  0  0  0  0
  195.8170  174.2890  140.0190 C   0  0  0  0  0  2  0  0  0  0  0  0
  197.7940  175.2050  141.3700 C   0  0  0  0  0  2  0  0  0  0  0  0
  197.3430  174.3370  140.1820 C   0  0  0  0  0  0  0  0  0  0  0  0
  196.6380  175.8200  142.1590 C   0  0  0  0  0  2  0  0  0  0  0  0
  197.9410  174.9080  138.9130 C   0  0  0  0  0  1  0  0  0  0  0  0
  195.0970  173.9480  141.3300 C   0  0  0  0  0  2  0  0  0  0  0  0
  195.6320  174.7340  142.5400 C   0  0  0  0  0  3  0  0  0  0  0  0
  197.8810  172.9300  140.3710 C   0  0  0  0  0  1  0  0  0  0  0  0
  190.1130  177.6550  143.2880 C   0  0  1  0  0  3  0  0  0  0  0  0
  189.1960  178.0730  142.1620 C   0  0  0  0  0  2  0  0  0  0  0  0
  187.8410  177.9250  142.7640 C   0  0  0  0  0  2  0  0  0  0  0  0
  188.0570  176.8470  143.7980 C   0  0  1  0  0  3  0  0  0  0  0  0
  189.4140  176.8190  144.1800 O   0  0  0  0  0  0  0  0  0  0  0  0
  185.1420  177.9240  145.9920 C   0  0  0  0  0  0  0  0  0  0  0  0
  185.9580  177.7460  144.8710 C   0  0  0  0  0  3  0  0  0  0  0  0
  187.5640  176.5440  146.2290 C   0  0  0  0  0  3  0  0  0  0  0  0
  186.7480  176.7220  147.3500 C   0  0  0  0  0  3  0  0  0  0  0  0
  183.9090  178.6230  145.8720 N   0  0  0  0  0  1  0  0  0  0  0  0
  185.5360  177.4110  147.2320 C   0  0  0  0  0  3  0  0  0  0  0  0
  187.1740  177.0560  144.9860 C   0  0  0  0  0  0  0  0  0  0  0  0
  1  4  1  0  0  0  0
  2  9  1  0  0  0  0
  4  3  1  1  0  0  0
  4  7  1  0  0  0  0
  5  6  1  0  0  0  0
  6  2  2  0  0  0  0
  8  1  2  0  0  0  0
  8  6  1  0  0  0  0
  9  7  2  0  0  0  0
 10 12  1  0  0  0  0
 10 15  1  0  0  0  0
 11 13  1  0  0  0  0
 12 17  1  0  0  0  0
 12 11  1  0  0  0  0
 13 16  1  0  0  0  0
 14 12  1  0  0  0  0
 15 16  1  0  0  0  0
 16  1  1  0  0  0  0
 18  5  1  6  0  0  0
 18 22  1  0  0  0  0
 19 20  1  0  0  0  0
 19 18  1  0  0  0  0
 20 21  1  0  0  0  0
 21 22  1  0  0  0  0
 21 29  1  1  0  0  0
 23 28  1  0  0  0  0
 24 29  1  0  0  0  0
 24 23  2  0  0  0  0
 25 26  1  0  0  0  0
 27 23  1  0  0  0  0
 28 26  2  0  0  0  0
 29 25  2  0  0  0  0
M  END
>  <MODEL>
3

>  <REMARK>
 VINA RESULT:      -7.3      4.461      5.287
  Name = 
  3 active torsions:
  status: ('A' for Active; 'I' for Inactive)
    1  A    between atoms: C_3  and  C_24
    2  A    between atoms: C_5  and  N_15
    3  A    between atoms: C_16  and  C_28
                            x       y       z     vdW  Elec       q    Type
                         _______ _______ _______ _____ _____    ______ ____

>  <TORSDO>
F 3

$$$$
=
 OpenBabel11062422433D

 29 32  0  0  1  0  0  0  0  0999 V2000
  192.8610  174.5110  142.8080 C   0  0  0  0  0  0  0  0  0  0  0  0
  189.8790  174.1140  143.2440 N   0  0  0  0  0  0  0  0  0  0  0  0
  193.1120  174.3670  140.3770 N   0  0  0  0  0  1  0  0  0  0  0  0
  192.1650  174.4570  141.4770 C   0  0  1  0  0  3  0  0  0  0  0  0
  190.1320  175.6390  145.0300 N   0  0  0  0  0  2  0  0  0  0  0  0
  190.6820  174.8220  143.9930 C   0  0  0  0  0  0  0  0  0  0  0  0
  191.2560  173.3240  141.4260 N   0  0  0  0  0  0  0  0  0  0  0  0
  192.1540  174.7280  143.9200 C   0  0  0  0  0  3  0  0  0  0  0  0
  190.2180  173.1900  142.1940 C   0  0  0  0  0  3  0  0  0  0  0  0
  196.0490  175.3260  144.5840 C   0  0  0  0  0  2  0  0  0  0  0  0
  196.3080  172.9830  143.5780 C   0  0  0  0  0  2  0  0  0  0  0  0
  197.0220  174.2300  144.1260 C   0  0  0  0  0  0  0  0  0  0  0  0
  194.7830  173.0950  143.5770 C   0  0  0  0  0  2  0  0  0  0  0  0
  197.8700  173.8190  145.3120 C   0  0  0  0  0  1  0  0  0  0  0  0
  194.9870  175.6490  143.5250 C   0  0  0  0  0  2  0  0  0  0  0  0
  194.3580  174.3950  142.8930 C   0  0  0  0  0  3  0  0  0  0  0  0
  197.9410  174.7810  143.0510 C   0  0  0  0  0  1  0  0  0  0  0  0
  188.7030  175.7550  145.2850 C   0  0  1  0  0  3  0  0  0  0  0  0
  188.4400  175.7950  146.7730 C   0  0  0  0  0  2  0  0  0  0  0  0
  187.2890  176.7330  146.8830 C   0  0  0  0  0  2  0  0  0  0  0  0
  187.4700  177.6170  145.6720 C   0  0  1  0  0  3  0  0  0  0  0  0
  188.2080  176.9300  144.6880 O   0  0  0  0  0  0  0  0  0  0  0  0
  184.6200  178.3930  143.2760 C   0  0  0  0  0  0  0  0  0  0  0  0
  185.8630  177.9770  143.7610 C   0  0  0  0  0  3  0  0  0  0  0  0
  185.1820  178.5660  146.0100 C   0  0  0  0  0  3  0  0  0  0  0  0
  183.9390  178.9810  145.5250 C   0  0  0  0  0  3  0  0  0  0  0  0
  184.3320  178.3040  141.8850 N   0  0  0  0  0  1  0  0  0  0  0  0
  183.6570  178.8940  144.1570 C   0  0  0  0  0  3  0  0  0  0  0  0
  186.1500  178.0640  145.1310 C   0  0  0  0  0  0  0  0  0  0  0  0
  1 16  1  0  0  0  0
  1  8  2  0  0  0  0
  2  6  2  0  0  0  0
  4  3  1  6  0  0  0
  4  1  1  0  0  0  0
  6  5  1  0  0  0  0
  7  4  1  0  0  0  0
  7  9  2  0  0  0  0
  8  6  1  0  0  0  0
  9  2  1  0  0  0  0
 11 12  1  0  0  0  0
 12 10  1  0  0  0  0
 12 14  1  0  0  0  0
 13 11  1  0  0  0  0
 15 10  1  0  0  0  0
 16 15  1  0  0  0  0
 16 13  1  0  0  0  0
 17 12  1  0  0  0  0
 18  5  1  1  0  0  0
 18 19  1  0  0  0  0
 19 20  1  0  0  0  0
 21 29  1  6  0  0  0
 21 20  1  0  0  0  0
 22 18  1  0  0  0  0
 22 21  1  0  0  0  0
 23 24  2  0  0  0  0
 23 28  1  0  0  0  0
 24 29  1  0  0  0  0
 26 25  1  0  0  0  0
 27 23  1  0  0  0  0
 28 26  2  0  0  0  0
 29 25  2  0  0  0  0
M  END
>  <MODEL>
4

>  <REMARK>
 VINA RESULT:      -7.3      3.411      5.764
  Name = 
  3 active torsions:
  status: ('A' for Active; 'I' for Inactive)
    1  A    between atoms: C_3  and  C_24
    2  A    between atoms: C_5  and  N_15
    3  A    between atoms: C_16  and  C_28
                            x       y       z     vdW  Elec       q    Type
                         _______ _______ _______ _____ _____    ______ ____

>  <TORSDO>
F 3

$$$$
=
 OpenBabel11062422433D

 29 32  0  0  1  0  0  0  0  0999 V2000
  188.8360  175.6380  142.7770 C   0  0  0  0  0  0  0  0  0  0  0  0
  191.6670  174.6620  142.2570 N   0  0  0  0  0  0  0  0  0  0  0  0
  187.4380  173.7800  142.0110 N   0  0  0  0  0  1  0  0  0  0  0  0
  188.7940  174.2100  142.3100 C   0  0  1  0  0  3  0  0  0  0  0  0
  192.2320  175.8500  144.2190 N   0  0  0  0  0  2  0  0  0  0  0  0
  191.2940  175.4790  143.2050 C   0  0  0  0  0  0  0  0  0  0  0  0
  189.6270  174.0370  141.1310 N   0  0  0  0  0  0  0  0  0  0  0  0
  189.9820  176.1590  143.2220 C   0  0  0  0  0  3  0  0  0  0  0  0
  190.9140  174.2080  141.1190 C   0  0  0  0  0  3  0  0  0  0  0  0
  186.4720  177.7940  144.7110 C   0  0  0  0  0  2  0  0  0  0  0  0
  186.5190  178.6740  142.3040 C   0  0  0  0  0  2  0  0  0  0  0  0
  185.7480  178.6140  143.6340 C   0  0  0  0  0  0  0  0  0  0  0  0
  187.8310  177.8890  142.3150 C   0  0  0  0  0  2  0  0  0  0  0  0
  185.5660  180.0260  144.1500 C   0  0  0  0  0  1  0  0  0  0  0  0
  186.9150  176.4160  144.2020 C   0  0  0  0  0  2  0  0  0  0  0  0
  187.5810  176.4660  142.8160 C   0  0  0  0  0  3  0  0  0  0  0  0
  184.3750  178.0200  143.3770 C   0  0  0  0  0  1  0  0  0  0  0  0
  193.5930  175.3370  144.2760 C   0  0  1  0  0  3  0  0  0  0  0  0
  194.4260  176.1710  145.2220 C   0  0  0  0  0  2  0  0  0  0  0  0
  195.3290  175.1650  145.8470 C   0  0  0  0  0  2  0  0  0  0  0  0
  194.5140  173.8970  145.7650 C   0  0  1  0  0  3  0  0  0  0  0  0
  193.5780  174.0000  144.7160 O   0  0  0  0  0  0  0  0  0  0  0  0
  195.7340  170.2990  145.5750 C   0  0  0  0  0  0  0  0  0  0  0  0
  194.8980  171.4040  145.7630 C   0  0  0  0  0  3  0  0  0  0  0  0
  196.7290  172.8870  145.2030 C   0  0  0  0  0  3  0  0  0  0  0  0
  197.5650  171.7820  145.0150 C   0  0  0  0  0  3  0  0  0  0  0  0
  195.2280  168.9830  145.7630 N   0  0  0  0  0  1  0  0  0  0  0  0
  197.0680  170.4880  145.2010 C   0  0  0  0  0  3  0  0  0  0  0  0
  195.3940  172.7030  145.5790 C   0  0  0  0  0  0  0  0  0  0  0  0
  1 16  1  0  0  0  0
  1  8  2  0  0  0  0
  2  6  2  0  0  0  0
  4  3  1  6  0  0  0
  4  1  1  0  0  0  0
  6  8  1  0  0  0  0
  6  5  1  0  0  0  0
  7  4  1  0  0  0  0
  9  7  2  0  0  0  0
  9  2  1  0  0  0  0
 11 13  1  0  0  0  0
 11 12  1  0  0  0  0
 12 14  1  0  0  0  0
 12 10  1  0  0  0  0
 13 16  1  0  0  0  0
 15 10  1  0  0  0  0
 16 15  1  0  0  0  0
 17 12  1  0  0  0  0
 18  5  1  1  0  0  0
 18 22  1  0  0  0  0
 18 19  1  0  0  0  0
 19 20  1  0  0  0  0
 21 29  1  6  0  0  0
 21 20  1  0  0  0  0
 22 21  1  0  0  0  0
 23 24  1  0  0  0  0
 23 27  1  0  0  0  0
 25 29  1  0  0  0  0
 26 28  1  0  0  0  0
 26 25  2  0  0  0  0
 28 23  2  0  0  0  0
 29 24  2  0  0  0  0
M  END
>  <MODEL>
5

>  <REMARK>
 VINA RESULT:      -7.2      3.986      9.421
  Name = 
  3 active torsions:
  status: ('A' for Active; 'I' for Inactive)
    1  A    between atoms: C_3  and  C_24
    2  A    between atoms: C_5  and  N_15
    3  A    between atoms: C_16  and  C_28
                            x       y       z     vdW  Elec       q    Type
                         _______ _______ _______ _____ _____    ______ ____

>  <TORSDO>
F 3

$$$$
=
 OpenBabel11062422433D

 29 32  0  0  1  0  0  0  0  0999 V2000
  186.1200  177.0780  143.1270 C   0  0  0  0  0  0  0  0  0  0  0  0
  187.8240  176.4630  140.6860 N   0  0  0  0  0  0  0  0  0  0  0  0
  184.0260  177.9110  142.1720 N   0  0  0  0  0  1  0  0  0  0  0  0
  185.2980  177.2690  141.8840 C   0  0  1  0  0  3  0  0  0  0  0  0
  188.6740  174.6710  141.9690 N   0  0  0  0  0  2  0  0  0  0  0  0
  187.8770  175.8510  141.8390 C   0  0  0  0  0  0  0  0  0  0  0  0
  186.0300  178.0620  140.9100 N   0  0  0  0  0  0  0  0  0  0  0  0
  187.2600  176.3850  143.0710 C   0  0  0  0  0  3  0  0  0  0  0  0
  187.1400  177.6840  140.3520 C   0  0  0  0  0  3  0  0  0  0  0  0
  186.5930  177.3890  146.8230 C   0  0  0  0  0  2  0  0  0  0  0  0
  185.5000  179.5570  146.0040 C   0  0  0  0  0  2  0  0  0  0  0  0
  185.7740  178.6310  147.2010 C   0  0  0  0  0  0  0  0  0  0  0  0
  186.0730  179.0450  144.6830 C   0  0  0  0  0  2  0  0  0  0  0  0
  186.5440  179.4100  148.2470 C   0  0  0  0  0  1  0  0  0  0  0  0
  186.0190  176.6540  145.6050 C   0  0  0  0  0  2  0  0  0  0  0  0
  185.6340  177.5980  144.4520 C   0  0  0  0  0  3  0  0  0  0  0  0
  184.4490  178.2040  147.8050 C   0  0  0  0  0  1  0  0  0  0  0  0
  189.4180  174.0830  140.8640 C   0  0  1  0  0  3  0  0  0  0  0  0
  190.9040  174.2030  141.1130 C   0  0  0  0  0  2  0  0  0  0  0  0
  191.4430  172.9410  140.5360 C   0  0  0  0  0  2  0  0  0  0  0  0
  190.2760  171.9930  140.6750 C   0  0  1  0  0  3  0  0  0  0  0  0
  189.0730  172.7240  140.7290 O   0  0  0  0  0  0  0  0  0  0  0  0
  189.9320  170.4700  137.2060 C   0  0  0  0  0  0  0  0  0  0  0  0
  189.9440  171.4070  138.2430 C   0  0  0  0  0  3  0  0  0  0  0  0
  190.5450  169.6630  139.8120 C   0  0  0  0  0  3  0  0  0  0  0  0
  190.5340  168.7260  138.7750 C   0  0  0  0  0  3  0  0  0  0  0  0
  189.6220  170.8800  135.8790 N   0  0  0  0  0  1  0  0  0  0  0  0
  190.2270  169.1290  137.4710 C   0  0  0  0  0  3  0  0  0  0  0  0
  190.2490  171.0050  139.5520 C   0  0  0  0  0  0  0  0  0  0  0  0
  1 16  1  0  0  0  0
  2  6  2  0  0  0  0
  4  3  1  1  0  0  0
  4  1  1  0  0  0  0
  6  5  1  0  0  0  0
  6  8  1  0  0  0  0
  7  4  1  0  0  0  0
  8  1  2  0  0  0  0
  9  2  1  0  0  0  0
  9  7  2  0  0  0  0
 10 12  1  0  0  0  0
 11 12  1  0  0  0  0
 12 17  1  0  0  0  0
 12 14  1  0  0  0  0
 13 11  1  0  0  0  0
 15 10  1  0  0  0  0
 16 13  1  0  0  0  0
 16 15  1  0  0  0  0
 18 19  1  0  0  0  0
 18  5  1  1  0  0  0
 20 21  1  0  0  0  0
 20 19  1  0  0  0  0
 21 29  1  6  0  0  0
 21 22  1  0  0  0  0
 22 18  1  0  0  0  0
 23 28  2  0  0  0  0
 23 24  1  0  0  0  0
 24 29  2  0  0  0  0
 26 25  2  0  0  0  0
 27 23  1  0  0  0  0
 28 26  1  0  0  0  0
 29 25  1  0  0  0  0
M  END
>  <MODEL>
6

>  <REMARK>
 VINA RESULT:      -7.2      2.189      9.961
  Name = 
  3 active torsions:
  status: ('A' for Active; 'I' for Inactive)
    1  A    between atoms: C_3  and  C_24
    2  A    between atoms: C_5  and  N_15
    3  A    between atoms: C_16  and  C_28
                            x       y       z     vdW  Elec       q    Type
                         _______ _______ _______ _____ _____    ______ ____

>  <TORSDO>
F 3

$$$$
=
 OpenBabel11062422433D

 29 32  0  0  1  0  0  0  0  0999 V2000
  189.4910  176.6990  143.3880 C   0  0  0  0  0  0  0  0  0  0  0  0
  191.3900  174.6170  142.2490 N   0  0  0  0  0  0  0  0  0  0  0  0
  190.9400  178.6250  143.8190 N   0  0  0  0  0  1  0  0  0  0  0  0
  190.8490  177.3140  143.1970 C   0  0  1  0  0  3  0  0  0  0  0  0
  189.5590  173.9580  140.9100 N   0  0  0  0  0  2  0  0  0  0  0  0
  190.1210  174.7410  141.9670 C   0  0  0  0  0  0  0  0  0  0  0  0
  191.8790  176.4470  143.7440 N   0  0  0  0  0  0  0  0  0  0  0  0
  189.1860  175.5550  142.7700 C   0  0  0  0  0  3  0  0  0  0  0  0
  192.1400  175.2560  143.2970 C   0  0  0  0  0  3  0  0  0  0  0  0
  185.8910  177.1590  144.2850 C   0  0  0  0  0  2  0  0  0  0  0  0
  187.2660  177.5320  146.4150 C   0  0  0  0  0  2  0  0  0  0  0  0
  185.9320  177.7760  145.6900 C   0  0  0  0  0  0  0  0  0  0  0  0
  188.2850  176.7490  145.5860 C   0  0  0  0  0  2  0  0  0  0  0  0
  184.8160  177.1660  146.5130 C   0  0  0  0  0  1  0  0  0  0  0  0
  187.1180  177.5310  143.4430 C   0  0  0  0  0  2  0  0  0  0  0  0
  188.4440  177.3980  144.2110 C   0  0  0  0  0  3  0  0  0  0  0  0
  185.6910  179.2720  145.5970 C   0  0  0  0  0  1  0  0  0  0  0  0
  190.3390  173.0380  140.0940 C   0  0  1  0  0  3  0  0  0  0  0  0
  190.4850  171.7100  140.8010 C   0  0  0  0  0  2  0  0  0  0  0  0
  190.4410  170.7290  139.6810 C   0  0  0  0  0  2  0  0  0  0  0  0
  189.6160  171.4520  138.6440 C   0  0  1  0  0  3  0  0  0  0  0  0
  189.7000  172.8440  138.8550 O   0  0  0  0  0  0  0  0  0  0  0  0
  191.2770  169.6640  135.7270 C   0  0  0  0  0  0  0  0  0  0  0  0
  190.8830  169.9860  137.0280 C   0  0  0  0  0  3  0  0  0  0  0  0
  189.6250  171.8750  136.1810 C   0  0  0  0  0  3  0  0  0  0  0  0
  190.0190  171.5530  134.8790 C   0  0  0  0  0  3  0  0  0  0  0  0
  192.1150  168.5390  135.4940 N   0  0  0  0  0  1  0  0  0  0  0  0
  190.8450  170.4470  134.6510 C   0  0  0  0  0  3  0  0  0  0  0  0
  190.0560  171.0960  137.2610 C   0  0  0  0  0  0  0  0  0  0  0  0
  1 16  1  0  0  0  0
  2  9  1  0  0  0  0
  4  1  1  0  0  0  0
  4  7  1  0  0  0  0
  4  3  1  1  0  0  0
  5  6  1  0  0  0  0
  6  2  2  0  0  0  0
  6  8  1  0  0  0  0
  8  1  2  0  0  0  0
  9  7  2  0  0  0  0
 10 12  1  0  0  0  0
 12 11  1  0  0  0  0
 12 14  1  0  0  0  0
 13 11  1  0  0  0  0
 15 16  1  0  0  0  0
 15 10  1  0  0  0  0
 16 13  1  0  0  0  0
 17 12  1  0  0  0  0
 18 19  1  0  0  0  0
 18  5  1  1  0  0  0
 20 19  1  0  0  0  0
 21 29  1  6  0  0  0
 21 22  1  0  0  0  0
 21 20  1  0  0  0  0
 22 18  1  0  0  0  0
 23 24  1  0  0  0  0
 24 29  2  0  0  0  0
 25 29  1  0  0  0  0
 26 25  2  0  0  0  0
 27 23  1  0  0  0  0
 28 26  1  0  0  0  0
 28 23  2  0  0  0  0
M  END
>  <MODEL>
7

>  <REMARK>
 VINA RESULT:      -7.2      2.435      9.690
  Name = 
  3 active torsions:
  status: ('A' for Active; 'I' for Inactive)
    1  A    between atoms: C_3  and  C_24
    2  A    between atoms: C_5  and  N_15
    3  A    between atoms: C_16  and  C_28
                            x       y       z     vdW  Elec       q    Type
                         _______ _______ _______ _____ _____    ______ ____

>  <TORSDO>
F 3

$$$$
=
 OpenBabel11062422433D

 29 32  0  0  1  0  0  0  0  0999 V2000
  192.6020  172.1850  143.6040 C   0  0  0  0  0  0  0  0  0  0  0  0
  189.6400  172.8310  143.8090 N   0  0  0  0  0  0  0  0  0  0  0  0
  192.9320  171.7470  141.2180 N   0  0  0  0  0  1  0  0  0  0  0  0
  192.0070  172.2420  142.2250 C   0  0  1  0  0  3  0  0  0  0  0  0
  190.2830  174.3440  145.5060 N   0  0  0  0  0  2  0  0  0  0  0  0
  190.5870  173.3010  144.5750 C   0  0  0  0  0  0  0  0  0  0  0  0
  190.7760  171.4710  142.1720 N   0  0  0  0  0  0  0  0  0  0  0  0
  191.9450  172.7220  144.6350 C   0  0  0  0  0  3  0  0  0  0  0  0
  189.7100  171.7560  142.8560 C   0  0  0  0  0  3  0  0  0  0  0  0
  195.6540  171.8540  145.7390 C   0  0  0  0  0  2  0  0  0  0  0  0
  195.2810  169.6000  144.5780 C   0  0  0  0  0  2  0  0  0  0  0  0
  196.2810  170.5270  145.2910 C   0  0  0  0  0  0  0  0  0  0  0  0
  193.8800  170.1940  144.4380 C   0  0  0  0  0  2  0  0  0  0  0  0
  196.8120  169.8110  146.5160 C   0  0  0  0  0  1  0  0  0  0  0  0
  194.8780  172.5480  144.6120 C   0  0  0  0  0  2  0  0  0  0  0  0
  193.9670  171.5920  143.8230 C   0  0  0  0  0  3  0  0  0  0  0  0
  197.4460  170.8020  144.3580 C   0  0  0  0  0  1  0  0  0  0  0  0
  188.9630  174.9450  145.6300 C   0  0  1  0  0  3  0  0  0  0  0  0
  188.7230  175.3880  147.0550 C   0  0  0  0  0  2  0  0  0  0  0  0
  187.9260  176.6350  146.8870 C   0  0  0  0  0  2  0  0  0  0  0  0
  188.3780  177.1330  145.5360 C   0  0  1  0  0  3  0  0  0  0  0  0
  188.8640  176.0550  144.7690 O   0  0  0  0  0  0  0  0  0  0  0  0
  186.0770  178.3950  142.7820 C   0  0  0  0  0  0  0  0  0  0  0  0
  187.1270  177.7390  143.4290 C   0  0  0  0  0  3  0  0  0  0  0  0
  186.3450  178.5880  145.5590 C   0  0  0  0  0  3  0  0  0  0  0  0
  185.2940  179.2440  144.9110 C   0  0  0  0  0  3  0  0  0  0  0  0
  185.9380  178.2960  141.3690 N   0  0  0  0  0  1  0  0  0  0  0  0
  185.1600  179.1470  143.5220 C   0  0  0  0  0  3  0  0  0  0  0  0
  187.2670  177.8350  144.8220 C   0  0  0  0  0  0  0  0  0  0  0  0
  1 16  1  0  0  0  0
  1  8  2  0  0  0  0
  2  6  2  0  0  0  0
  4  3  1  6  0  0  0
  4  1  1  0  0  0  0
  6  8  1  0  0  0  0
  6  5  1  0  0  0  0
  7  4  1  0  0  0  0
  7  9  2  0  0  0  0
  9  2  1  0  0  0  0
 11 12  1  0  0  0  0
 12 10  1  0  0  0  0
 12 14  1  0  0  0  0
 13 11  1  0  0  0  0
 15 10  1  0  0  0  0
 16 13  1  0  0  0  0
 16 15  1  0  0  0  0
 17 12  1  0  0  0  0
 18  5  1  1  0  0  0
 18 19  1  0  0  0  0
 20 19  1  0  0  0  0
 21 29  1  6  0  0  0
 21 20  1  0  0  0  0
 22 21  1  0  0  0  0
 22 18  1  0  0  0  0
 23 24  2  0  0  0  0
 23 28  1  0  0  0  0
 24 29  1  0  0  0  0
 26 25  1  0  0  0  0
 27 23  1  0  0  0  0
 28 26  2  0  0  0  0
 29 25  2  0  0  0  0
M  END
>  <MODEL>
8

>  <REMARK>
 VINA RESULT:      -7.1      3.723      5.777
  Name = 
  3 active torsions:
  status: ('A' for Active; 'I' for Inactive)
    1  A    between atoms: C_3  and  C_24
    2  A    between atoms: C_5  and  N_15
    3  A    between atoms: C_16  and  C_28
                            x       y       z     vdW  Elec       q    Type
                         _______ _______ _______ _____ _____    ______ ____

>  <TORSDO>
F 3

$$$$
=
 OpenBabel11062422433D

 29 32  0  0  1  0  0  0  0  0999 V2000
  194.2870  174.0560  144.2690 C   0  0  0  0  0  0  0  0  0  0  0  0
  192.5270  175.9050  142.6180 N   0  0  0  0  0  0  0  0  0  0  0  0
  196.3450  175.3450  144.5770 N   0  0  0  0  0  1  0  0  0  0  0  0
  194.9670  175.3870  144.1150 C   0  0  1  0  0  3  0  0  0  0  0  0
  190.7340  174.9830  143.8490 N   0  0  0  0  0  2  0  0  0  0  0  0
  192.1160  175.0170  143.4830 C   0  0  0  0  0  0  0  0  0  0  0  0
  194.9360  175.8150  142.7260 N   0  0  0  0  0  0  0  0  0  0  0  0
  192.9790  173.9450  144.0190 C   0  0  0  0  0  3  0  0  0  0  0  0
  193.8460  176.0770  142.0710 C   0  0  0  0  0  3  0  0  0  0  0  0
  194.2860  170.4990  145.4190 C   0  0  0  0  0  2  0  0  0  0  0  0
  196.4930  170.9050  144.1800 C   0  0  0  0  0  2  0  0  0  0  0  0
  195.7320  170.0340  145.1940 C   0  0  0  0  0  0  0  0  0  0  0  0
  195.6690  172.0660  143.6230 C   0  0  0  0  0  2  0  0  0  0  0  0
  195.7010  168.6100  144.6790 C   0  0  0  0  0  1  0  0  0  0  0  0
  194.1920  172.0010  145.7160 C   0  0  0  0  0  2  0  0  0  0  0  0
  195.0490  172.8620  144.7720 C   0  0  0  0  0  3  0  0  0  0  0  0
  196.4830  170.0460  146.5130 C   0  0  0  0  0  1  0  0  0  0  0  0
  189.7450  175.9160  143.3270 C   0  0  1  0  0  3  0  0  0  0  0  0
  189.0330  175.3110  142.1390 C   0  0  0  0  0  2  0  0  0  0  0  0
  187.6440  175.8290  142.2830 C   0  0  0  0  0  2  0  0  0  0  0  0
  187.5260  176.0390  143.7730 C   0  0  1  0  0  3  0  0  0  0  0  0
  188.8070  176.2240  144.3310 O   0  0  0  0  0  0  0  0  0  0  0  0
  184.9930  178.2980  145.4920 C   0  0  0  0  0  0  0  0  0  0  0  0
  185.8100  177.1980  145.2150 C   0  0  0  0  0  3  0  0  0  0  0  0
  186.6440  178.3150  143.2350 C   0  0  0  0  0  3  0  0  0  0  0  0
  185.8280  179.4160  143.5130 C   0  0  0  0  0  3  0  0  0  0  0  0
  184.1550  178.2910  146.6420 N   0  0  0  0  0  1  0  0  0  0  0  0
  185.0030  179.4080  144.6420 C   0  0  0  0  0  3  0  0  0  0  0  0
  186.6380  177.2020  144.0830 C   0  0  0  0  0  0  0  0  0  0  0  0
  1 16  1  0  0  0  0
  2  6  2  0  0  0  0
  4  1  1  0  0  0  0
  4  3  1  6  0  0  0
  6  5  1  0  0  0  0
  6  8  1  0  0  0  0
  7  4  1  0  0  0  0
  8  1  2  0  0  0  0
  9  2  1  0  0  0  0
  9  7  2  0  0  0  0
 10 15  1  0  0  0  0
 11 12  1  0  0  0  0
 12 10  1  0  0  0  0
 12 17  1  0  0  0  0
 13 11  1  0  0  0  0
 13 16  1  0  0  0  0
 14 12  1  0  0  0  0
 16 15  1  0  0  0  0
 18  5  1  1  0  0  0
 18 22  1  0  0  0  0
 19 20  1  0  0  0  0
 19 18  1  0  0  0  0
 20 21  1  0  0  0  0
 21 29  1  6  0  0  0
 21 22  1  0  0  0  0
 23 27  1  0  0  0  0
 24 23  1  0  0  0  0
 25 26  2  0  0  0  0
 25 29  1  0  0  0  0
 26 28  1  0  0  0  0
 28 23  2  0  0  0  0
 29 24  2  0  0  0  0
M  END
>  <MODEL>
9

>  <REMARK>
 VINA RESULT:      -7.1      4.138      5.672
  Name = 
  3 active torsions:
  status: ('A' for Active; 'I' for Inactive)
    1  A    between atoms: C_3  and  C_24
    2  A    between atoms: C_5  and  N_15
    3  A    between atoms: C_16  and  C_28
                            x       y       z     vdW  Elec       q    Type
                         _______ _______ _______ _____ _____    ______ ____

>  <TORSDO>
F 3

$$$$
