=
 OpenBabel11062419533D

 30 34  0  0  1  0  0  0  0  0999 V2000
  189.4990  174.2810  142.0090 N   0  0  0  0  0  0  0  0  0  0  0  0
  188.8010  175.3090  141.6230 C   0  0  0  0  0  0  0  0  0  0  0  0
  187.9090  177.3680  141.7080 C   0  0  0  0  0  0  0  0  0  0  0  0
  190.1120  177.9720  143.9430 C   0  0  0  0  0  3  0  0  0  0  0  0
  187.4260  176.6250  140.5340 C   0  0  0  0  0  0  0  0  0  0  0  0
  190.3350  174.3810  143.1770 C   0  0  0  0  0  0  0  0  0  0  0  0
  187.9870  175.3510  140.5030 O   0  0  0  0  0  0  0  0  0  0  0  0
  191.5520  176.3250  144.2120 C   0  0  2  0  0  3  0  0  0  0  0  0
  190.4290  175.6900  143.8780 C   0  0  1  0  0  3  0  0  0  0  0  0
  190.9890  173.3780  143.5650 O   0  0  0  0  0  0  0  0  0  0  0  0
  189.3410  176.7110  143.7230 C   0  0  2  0  0  3  0  0  0  0  0  0
  191.3450  177.7310  144.2480 N   0  0  0  0  0  0  0  0  0  0  0  0
  188.7610  176.5770  142.3470 C   0  0  0  0  0  0  0  0  0  0  0  0
  186.5910  177.0610  139.6510 N   0  0  0  0  0  2  0  0  0  0  0  0
  193.2810  175.0190  145.5510 N   0  0  0  0  0  0  0  0  0  0  0  0
  193.7010  175.7760  143.3860 O   0  0  0  0  0  0  0  0  0  0  0  0
  192.5490  175.1710  146.7980 C   0  0  0  0  0  1  0  0  0  0  0  0
  194.5050  174.2360  145.5790 C   0  0  0  0  0  1  0  0  0  0  0  0
  192.8950  175.7180  144.3550 C   0  0  0  0  0  0  0  0  0  0  0  0
  187.4640  178.6410  142.1810 N   0  0  0  0  0  2  0  0  0  0  0  0
  186.1070  178.8800  142.6370 C   0  0  0  0  0  2  0  0  0  0  0  0
  185.6210  177.2810  144.2860 C   0  0  1  0  0  3  0  0  0  0  0  0
  184.3380  176.2450  146.8230 F   0  0  0  0  0  0  0  0  0  0  0  0
  186.2970  176.7660  145.5650 C   0  0  0  0  0  2  0  0  0  0  0  0
  185.1730  178.4790  146.9290 C   0  0  0  0  0  2  0  0  0  0  0  0
  186.2640  176.6380  147.9240 F   0  0  0  0  0  0  0  0  0  0  0  0
  185.4980  177.0020  146.8350 C   0  0  0  0  0  0  0  0  0  0  0  0
  184.6330  178.3820  144.3870 C   0  0  1  0  0  3  0  0  0  0  0  0
  184.2490  178.8950  145.7890 C   0  0  0  0  0  2  0  0  0  0  0  0
  186.0360  178.6810  144.0730 N   0  0  0  0  0  0  0  0  0  0  0  0
  1  6  1  0  0  0  0
  2  1  2  0  0  0  0
  2 13  1  0  0  0  0
  3 20  1  0  0  0  0
  3 13  2  0  0  0  0
  4 12  2  0  0  0  0
  5  3  1  0  0  0  0
  6 10  2  0  0  0  0
  7  5  1  0  0  0  0
  7  2  1  0  0  0  0
  8 12  1  0  0  0  0
  8 19  1  6  0  0  0
  9  6  1  6  0  0  0
  9  8  1  0  0  0  0
 11  9  1  0  0  0  0
 11  4  1  6  0  0  0
 13 11  1  0  0  0  0
 14  5  2  0  0  0  0
 15 18  1  0  0  0  0
 15 17  1  0  0  0  0
 16 19  2  0  0  0  0
 19 15  1  0  0  0  0
 20 21  1  0  0  0  0
 21 30  1  0  0  0  0
 22 28  1  0  0  0  0
 22 24  1  1  0  0  0
 23 27  1  0  0  0  0
 24 27  1  0  0  0  0
 27 25  1  0  0  0  0
 27 26  1  0  0  0  0
 28 29  1  1  0  0  0
 29 25  1  0  0  0  0
 30 22  1  0  0  0  0
 30 28  1  0  0  0  0
M  END
>  <MODEL>
1

>  <REMARK>
 VINA RESULT:      -8.1      0.000      0.000
  Name = 
  4 active torsions:
  status: ('A' for Active; 'I' for Inactive)
    1  A    between atoms: C_8  and  N_29
    2  A    between atoms: C_18  and  C_25
    3  A    between atoms: C_20  and  N_28
    4  A    between atoms: C_20  and  N_29
                            x       y       z     vdW  Elec       q    Type
                         _______ _______ _______ _____ _____    ______ ____

>  <TORSDO>
F 4

$$$$
=
 OpenBabel11062419533D

 30 34  0  0  1  0  0  0  0  0999 V2000
  193.0730  176.5730  147.0180 N   0  0  0  0  0  0  0  0  0  0  0  0
  191.9440  175.9730  146.7790 C   0  0  0  0  0  0  0  0  0  0  0  0
  190.2390  175.1550  145.5680 C   0  0  0  0  0  0  0  0  0  0  0  0
  192.2000  175.4310  143.0590 C   0  0  0  0  0  3  0  0  0  0  0  0
  189.9970  174.9910  147.0090 C   0  0  0  0  0  0  0  0  0  0  0  0
  193.9160  176.9750  145.9230 C   0  0  0  0  0  0  0  0  0  0  0  0
  191.0610  175.5080  147.7410 O   0  0  0  0  0  0  0  0  0  0  0  0
  194.2490  176.0220  143.6190 C   0  0  2  0  0  3  0  0  0  0  0  0
  193.4990  176.6310  144.5370 C   0  0  1  0  0  3  0  0  0  0  0  0
  194.9960  177.5800  146.1550 O   0  0  0  0  0  0  0  0  0  0  0  0
  192.0580  176.3520  144.2270 C   0  0  2  0  0  3  0  0  0  0  0  0
  193.4370  175.2840  142.7130 N   0  0  0  0  0  0  0  0  0  0  0  0
  191.4300  175.7230  145.4350 C   0  0  0  0  0  0  0  0  0  0  0  0
  188.9490  174.4620  147.5470 N   0  0  0  0  0  2  0  0  0  0  0  0
  196.4210  174.8060  144.1560 N   0  0  0  0  0  0  0  0  0  0  0  0
  196.3890  176.8600  143.0530 O   0  0  0  0  0  0  0  0  0  0  0  0
  195.7700  173.8740  145.0620 C   0  0  0  0  0  1  0  0  0  0  0  0
  197.8460  174.6350  143.9210 C   0  0  0  0  0  1  0  0  0  0  0  0
  195.7270  175.9390  143.6040 C   0  0  0  0  0  0  0  0  0  0  0  0
  189.3330  174.8940  144.4930 N   0  0  0  0  0  2  0  0  0  0  0  0
  188.5110  175.9280  143.8900 C   0  0  0  0  0  2  0  0  0  0  0  0
  186.9160  177.5930  144.3300 C   0  0  1  0  0  3  0  0  0  0  0  0
  185.3950  179.5620  146.0510 F   0  0  0  0  0  0  0  0  0  0  0  0
  185.4140  177.6340  144.6460 C   0  0  0  0  0  2  0  0  0  0  0  0
  185.8500  177.4480  147.0610 C   0  0  0  0  0  2  0  0  0  0  0  0
  183.7230  178.0630  146.2400 F   0  0  0  0  0  0  0  0  0  0  0  0
  185.0760  178.2150  146.0080 C   0  0  0  0  0  0  0  0  0  0  0  0
  187.8870  177.5590  145.4500 C   0  0  1  0  0  3  0  0  0  0  0  0
  187.3480  177.6710  146.8890 C   0  0  0  0  0  2  0  0  0  0  0  0
  187.4570  176.3070  144.8120 N   0  0  0  0  0  0  0  0  0  0  0  0
  2  1  2  0  0  0  0
  2  7  1  0  0  0  0
  3  5  1  0  0  0  0
  5 14  2  0  0  0  0
  5  7  1  0  0  0  0
  6 10  2  0  0  0  0
  6  1  1  0  0  0  0
  8 19  1  1  0  0  0
  8  9  1  0  0  0  0
  9  6  1  1  0  0  0
 11  4  1  6  0  0  0
 11  9  1  0  0  0  0
 11 13  1  0  0  0  0
 12  4  2  0  0  0  0
 12  8  1  0  0  0  0
 13  3  2  0  0  0  0
 13  2  1  0  0  0  0
 15 17  1  0  0  0  0
 16 19  2  0  0  0  0
 18 15  1  0  0  0  0
 19 15  1  0  0  0  0
 20  3  1  0  0  0  0
 21 20  1  0  0  0  0
 21 30  1  0  0  0  0
 22 24  1  1  0  0  0
 22 30  1  0  0  0  0
 22 28  1  0  0  0  0
 24 27  1  0  0  0  0
 27 23  1  0  0  0  0
 27 26  1  0  0  0  0
 27 25  1  0  0  0  0
 28 29  1  1  0  0  0
 29 25  1  0  0  0  0
 30 28  1  0  0  0  0
M  END
>  <MODEL>
2

>  <REMARK>
 VINA RESULT:      -7.9      2.826      4.436
  Name = 
  4 active torsions:
  status: ('A' for Active; 'I' for Inactive)
    1  A    between atoms: C_8  and  N_29
    2  A    between atoms: C_18  and  C_25
    3  A    between atoms: C_20  and  N_28
    4  A    between atoms: C_20  and  N_29
                            x       y       z     vdW  Elec       q    Type
                         _______ _______ _______ _____ _____    ______ ____

>  <TORSDO>
F 4

$$$$
=
 OpenBabel11062419533D

 30 34  0  0  1  0  0  0  0  0999 V2000
  191.4020  173.1360  144.3350 N   0  0  0  0  0  0  0  0  0  0  0  0
  190.3650  173.5370  143.6590 C   0  0  0  0  0  0  0  0  0  0  0  0
  188.8030  174.9560  142.8930 C   0  0  0  0  0  0  0  0  0  0  0  0
  190.7560  177.2750  143.9030 C   0  0  0  0  0  3  0  0  0  0  0  0
  188.5580  173.5860  142.4170 C   0  0  0  0  0  0  0  0  0  0  0  0
  192.2060  174.0940  145.0480 C   0  0  0  0  0  0  0  0  0  0  0  0
  189.5330  172.7220  142.9070 O   0  0  0  0  0  0  0  0  0  0  0  0
  192.7010  176.5240  144.6200 C   0  0  2  0  0  3  0  0  0  0  0  0
  191.8620  175.5380  144.9370 C   0  0  1  0  0  3  0  0  0  0  0  0
  193.1930  173.7030  145.7230 O   0  0  0  0  0  0  0  0  0  0  0  0
  190.4750  175.9580  144.5490 C   0  0  2  0  0  3  0  0  0  0  0  0
  192.0080  177.5900  143.9830 N   0  0  0  0  0  0  0  0  0  0  0  0
  189.9120  174.9240  143.6200 C   0  0  0  0  0  0  0  0  0  0  0  0
  187.5780  173.2080  141.6660 N   0  0  0  0  0  2  0  0  0  0  0  0
  195.0050  176.1900  143.5870 N   0  0  0  0  0  0  0  0  0  0  0  0
  194.7210  176.7780  145.8260 O   0  0  0  0  0  0  0  0  0  0  0  0
  194.4670  175.5590  142.3930 C   0  0  0  0  0  1  0  0  0  0  0  0
  196.4430  176.3930  143.6540 C   0  0  0  0  0  1  0  0  0  0  0  0
  194.1770  176.4900  144.7250 C   0  0  0  0  0  0  0  0  0  0  0  0
  187.9580  176.0990  142.7410 N   0  0  0  0  0  2  0  0  0  0  0  0
  186.5240  176.0510  142.9600 C   0  0  0  0  0  2  0  0  0  0  0  0
  185.7330  177.8250  144.2770 C   0  0  1  0  0  3  0  0  0  0  0  0
  185.7580  179.7370  146.6220 F   0  0  0  0  0  0  0  0  0  0  0  0
  184.6840  178.0040  145.3830 C   0  0  0  0  0  2  0  0  0  0  0  0
  186.3370  177.4780  147.1290 C   0  0  0  0  0  2  0  0  0  0  0  0
  184.2460  178.4330  147.6660 F   0  0  0  0  0  0  0  0  0  0  0  0
  185.2520  178.4520  146.7190 C   0  0  0  0  0  0  0  0  0  0  0  0
  187.1380  177.5440  144.6560 C   0  0  1  0  0  3  0  0  0  0  0  0
  187.5070  177.5430  146.1530 C   0  0  0  0  0  2  0  0  0  0  0  0
  186.2300  176.4370  144.3270 N   0  0  0  0  0  0  0  0  0  0  0  0
  1  6  1  0  0  0  0
  2  1  2  0  0  0  0
  3 13  2  0  0  0  0
  4 12  2  0  0  0  0
  5  3  1  0  0  0  0
  5  7  1  0  0  0  0
  6 10  2  0  0  0  0
  7  2  1  0  0  0  0
  8 19  1  6  0  0  0
  8  9  1  0  0  0  0
  9  6  1  6  0  0  0
 11  4  1  6  0  0  0
 11  9  1  0  0  0  0
 12  8  1  0  0  0  0
 13  2  1  0  0  0  0
 13 11  1  0  0  0  0
 14  5  2  0  0  0  0
 15 18  1  0  0  0  0
 15 19  1  0  0  0  0
 17 15  1  0  0  0  0
 19 16  2  0  0  0  0
 20  3  1  0  0  0  0
 20 21  1  0  0  0  0
 21 30  1  0  0  0  0
 22 30  1  0  0  0  0
 22 28  1  0  0  0  0
 22 24  1  1  0  0  0
 23 27  1  0  0  0  0
 24 27  1  0  0  0  0
 27 25  1  0  0  0  0
 27 26  1  0  0  0  0
 28 29  1  1  0  0  0
 29 25  1  0  0  0  0
 30 28  1  0  0  0  0
M  END
>  <MODEL>
3

>  <REMARK>
 VINA RESULT:      -7.6      1.999      2.786
  Name = 
  4 active torsions:
  status: ('A' for Active; 'I' for Inactive)
    1  A    between atoms: C_8  and  N_29
    2  A    between atoms: C_18  and  C_25
    3  A    between atoms: C_20  and  N_28
    4  A    between atoms: C_20  and  N_29
                            x       y       z     vdW  Elec       q    Type
                         _______ _______ _______ _____ _____    ______ ____

>  <TORSDO>
F 4

$$$$
=
 OpenBabel11062419533D

 30 34  0  0  1  0  0  0  0  0999 V2000
  186.9550  176.6200  140.9610 N   0  0  0  0  0  0  0  0  0  0  0  0
  187.9570  175.8150  141.1620 C   0  0  0  0  0  0  0  0  0  0  0  0
  189.8820  175.0710  142.0480 C   0  0  0  0  0  0  0  0  0  0  0  0
  189.3890  177.2420  144.3410 C   0  0  0  0  0  3  0  0  0  0  0  0
  189.3940  174.1660  140.9950 C   0  0  0  0  0  0  0  0  0  0  0  0
  186.7940  177.7850  141.7910 C   0  0  0  0  0  0  0  0  0  0  0  0
  188.2040  174.6480  140.4560 O   0  0  0  0  0  0  0  0  0  0  0  0
  187.4350  178.2490  144.1790 C   0  0  2  0  0  3  0  0  0  0  0  0
  187.7530  178.0020  142.9090 C   0  0  1  0  0  3  0  0  0  0  0  0
  185.8400  178.5770  141.5790 O   0  0  0  0  0  0  0  0  0  0  0  0
  189.1090  177.3630  142.8780 C   0  0  2  0  0  3  0  0  0  0  0  0
  188.4520  177.7750  145.0540 N   0  0  0  0  0  0  0  0  0  0  0  0
  188.9950  176.0500  142.1630 C   0  0  0  0  0  0  0  0  0  0  0  0
  189.9730  173.0840  140.5970 N   0  0  0  0  0  2  0  0  0  0  0  0
  185.2990  177.9880  145.5420 N   0  0  0  0  0  0  0  0  0  0  0  0
  185.7960  179.9450  144.3760 O   0  0  0  0  0  0  0  0  0  0  0  0
  185.4680  176.5510  145.6820 C   0  0  0  0  0  1  0  0  0  0  0  0
  184.1600  178.6020  146.2050 C   0  0  0  0  0  1  0  0  0  0  0  0
  186.1430  178.7710  144.6780 C   0  0  0  0  0  0  0  0  0  0  0  0
  191.1320  175.0160  142.7380 N   0  0  0  0  0  2  0  0  0  0  0  0
  191.4020  174.0650  143.8020 C   0  0  0  0  0  2  0  0  0  0  0  0
  192.8380  175.8930  144.1250 C   0  0  1  0  0  3  0  0  0  0  0  0
  195.4370  177.2550  144.8630 F   0  0  0  0  0  0  0  0  0  0  0  0
  193.1090  176.9060  145.2470 C   0  0  0  0  0  2  0  0  0  0  0  0
  194.7970  175.4310  146.2630 C   0  0  0  0  0  2  0  0  0  0  0  0
  194.5960  177.6930  146.9070 F   0  0  0  0  0  0  0  0  0  0  0  0
  194.5170  176.8510  145.8150 C   0  0  0  0  0  0  0  0  0  0  0  0
  193.6530  174.6560  144.0600 C   0  0  1  0  0  3  0  0  0  0  0  0
  194.8090  174.4870  145.0650 C   0  0  0  0  0  2  0  0  0  0  0  0
  192.3490  174.6420  144.7370 N   0  0  0  0  0  0  0  0  0  0  0  0
  1  2  2  0  0  0  0
  1  6  1  0  0  0  0
  2 13  1  0  0  0  0
  3 13  2  0  0  0  0
  3 20  1  0  0  0  0
  4 12  2  0  0  0  0
  5  3  1  0  0  0  0
  7  5  1  0  0  0  0
  7  2  1  0  0  0  0
  8 19  1  1  0  0  0
  8 12  1  0  0  0  0
  9  6  1  1  0  0  0
  9  8  1  0  0  0  0
 10  6  2  0  0  0  0
 11  9  1  0  0  0  0
 11  4  1  1  0  0  0
 13 11  1  0  0  0  0
 14  5  2  0  0  0  0
 15 17  1  0  0  0  0
 15 18  1  0  0  0  0
 16 19  2  0  0  0  0
 19 15  1  0  0  0  0
 20 21  1  0  0  0  0
 21 30  1  0  0  0  0
 22 30  1  0  0  0  0
 22 24  1  1  0  0  0
 23 27  1  0  0  0  0
 24 27  1  0  0  0  0
 27 25  1  0  0  0  0
 27 26  1  0  0  0  0
 28 22  1  0  0  0  0
 28 30  1  0  0  0  0
 28 29  1  1  0  0  0
 29 25  1  0  0  0  0
M  END
>  <MODEL>
4

>  <REMARK>
 VINA RESULT:      -7.5      3.132      6.899
  Name = 
  4 active torsions:
  status: ('A' for Active; 'I' for Inactive)
    1  A    between atoms: C_8  and  N_29
    2  A    between atoms: C_18  and  C_25
    3  A    between atoms: C_20  and  N_28
    4  A    between atoms: C_20  and  N_29
                            x       y       z     vdW  Elec       q    Type
                         _______ _______ _______ _____ _____    ______ ____

>  <TORSDO>
F 4

$$$$
=
 OpenBabel11062419533D

 30 34  0  0  1  0  0  0  0  0999 V2000
  192.7800  175.3800  143.8900 N   0  0  0  0  0  0  0  0  0  0  0  0
  192.0420  175.7600  144.8910 C   0  0  0  0  0  0  0  0  0  0  0  0
  190.2120  176.4920  145.9670 C   0  0  0  0  0  0  0  0  0  0  0  0
  188.6100  175.6120  143.3450 C   0  0  0  0  0  3  0  0  0  0  0  0
  191.3590  176.3820  146.8810 C   0  0  0  0  0  0  0  0  0  0  0  0
  192.1870  175.2050  142.5900 C   0  0  0  0  0  0  0  0  0  0  0  0
  192.4840  175.9320  146.1940 O   0  0  0  0  0  0  0  0  0  0  0  0
  189.8650  174.5530  141.8740 C   0  0  2  0  0  3  0  0  0  0  0  0
  190.7190  175.4030  142.4420 C   0  0  1  0  0  3  0  0  0  0  0  0
  192.9070  174.8630  141.6150 O   0  0  0  0  0  0  0  0  0  0  0  0
  189.9650  176.2370  143.4340 C   0  0  2  0  0  3  0  0  0  0  0  0
  188.5670  174.6910  142.4400 N   0  0  0  0  0  0  0  0  0  0  0  0
  190.6240  176.0880  144.7720 C   0  0  0  0  0  0  0  0  0  0  0  0
  191.3570  176.6700  148.1390 N   0  0  0  0  0  2  0  0  0  0  0  0
  190.3710  172.1110  141.3550 N   0  0  0  0  0  0  0  0  0  0  0  0
  190.2960  173.7440  139.6920 O   0  0  0  0  0  0  0  0  0  0  0  0
  190.5820  171.7740  142.7530 C   0  0  0  0  0  1  0  0  0  0  0  0
  190.4670  171.0370  140.3800 C   0  0  0  0  0  1  0  0  0  0  0  0
  190.2020  173.4720  140.9200 C   0  0  0  0  0  0  0  0  0  0  0  0
  188.9260  177.0540  146.2410 N   0  0  0  0  0  2  0  0  0  0  0  0
  187.8430  176.2870  146.8290 C   0  0  0  0  0  2  0  0  0  0  0  0
  186.8800  177.9150  145.4410 C   0  0  1  0  0  3  0  0  0  0  0  0
  185.0040  180.1890  144.7550 F   0  0  0  0  0  0  0  0  0  0  0  0
  185.7610  177.9560  144.3900 C   0  0  0  0  0  2  0  0  0  0  0  0
  184.0720  178.4570  146.1080 C   0  0  0  0  0  2  0  0  0  0  0  0
  183.5960  178.7050  143.8100 F   0  0  0  0  0  0  0  0  0  0  0  0
  184.5980  178.8650  144.7480 C   0  0  0  0  0  0  0  0  0  0  0  0
  186.5550  178.2420  146.8500 C   0  0  1  0  0  3  0  0  0  0  0  0
  185.1250  178.7090  147.1830 C   0  0  0  0  0  2  0  0  0  0  0  0
  186.5710  176.8420  146.4060 N   0  0  0  0  0  0  0  0  0  0  0  0
  1  2  2  0  0  0  0
  2  7  1  0  0  0  0
  3 20  1  0  0  0  0
  3  5  1  0  0  0  0
  5 14  2  0  0  0  0
  6  1  1  0  0  0  0
  7  5  1  0  0  0  0
  8 19  1  1  0  0  0
  8 12  1  0  0  0  0
  8  9  1  0  0  0  0
  9  6  1  1  0  0  0
  9 11  1  0  0  0  0
 10  6  2  0  0  0  0
 11  4  1  1  0  0  0
 11 13  1  0  0  0  0
 12  4  2  0  0  0  0
 13  2  1  0  0  0  0
 13  3  2  0  0  0  0
 15 17  1  0  0  0  0
 16 19  2  0  0  0  0
 18 15  1  0  0  0  0
 19 15  1  0  0  0  0
 20 21  1  0  0  0  0
 22 24  1  6  0  0  0
 22 30  1  0  0  0  0
 22 28  1  0  0  0  0
 24 27  1  0  0  0  0
 25 29  1  0  0  0  0
 26 27  1  0  0  0  0
 27 23  1  0  0  0  0
 27 25  1  0  0  0  0
 28 29  1  6  0  0  0
 30 21  1  0  0  0  0
 30 28  1  0  0  0  0
M  END
>  <MODEL>
5

>  <REMARK>
 VINA RESULT:      -7.5      2.369      4.620
  Name = 
  4 active torsions:
  status: ('A' for Active; 'I' for Inactive)
    1  A    between atoms: C_8  and  N_29
    2  A    between atoms: C_18  and  C_25
    3  A    between atoms: C_20  and  N_28
    4  A    between atoms: C_20  and  N_29
                            x       y       z     vdW  Elec       q    Type
                         _______ _______ _______ _____ _____    ______ ____

>  <TORSDO>
F 4

$$$$
=
 OpenBabel11062419533D

 30 34  0  0  1  0  0  0  0  0999 V2000
  191.8010  172.9040  143.6760 N   0  0  0  0  0  0  0  0  0  0  0  0
  190.8260  173.7630  143.7300 C   0  0  0  0  0  0  0  0  0  0  0  0
  189.6060  175.4780  144.5120 C   0  0  0  0  0  0  0  0  0  0  0  0
  192.2170  176.2640  146.1800 C   0  0  0  0  0  3  0  0  0  0  0  0
  188.9480  174.8360  143.3640 C   0  0  0  0  0  0  0  0  0  0  0  0
  192.9150  173.0270  144.5780 C   0  0  0  0  0  0  0  0  0  0  0  0
  189.7170  173.7730  142.8980 O   0  0  0  0  0  0  0  0  0  0  0  0
  193.9710  175.0260  145.6820 C   0  0  2  0  0  3  0  0  0  0  0  0
  192.9520  174.1850  145.5130 C   0  0  1  0  0  3  0  0  0  0  0  0
  193.8450  172.1790  144.5440 O   0  0  0  0  0  0  0  0  0  0  0  0
  191.6860  174.9000  145.8830 C   0  0  2  0  0  3  0  0  0  0  0  0
  193.5060  176.3060  146.0930 N   0  0  0  0  0  0  0  0  0  0  0  0
  190.7540  174.8430  144.7100 C   0  0  0  0  0  0  0  0  0  0  0  0
  187.8130  175.1760  142.8520 N   0  0  0  0  0  2  0  0  0  0  0  0
  195.9450  175.2320  144.0850 N   0  0  0  0  0  0  0  0  0  0  0  0
  196.1320  174.1880  146.1610 O   0  0  0  0  0  0  0  0  0  0  0  0
  195.1040  175.6300  142.9680 C   0  0  0  0  0  1  0  0  0  0  0  0
  197.3810  175.1840  143.8640 C   0  0  0  0  0  1  0  0  0  0  0  0
  195.3870  174.7750  145.3300 C   0  0  0  0  0  0  0  0  0  0  0  0
  189.0800  176.4990  145.3640 N   0  0  0  0  0  2  0  0  0  0  0  0
  188.1630  176.2170  146.4540 C   0  0  0  0  0  2  0  0  0  0  0  0
  187.0760  177.9170  145.2550 C   0  0  1  0  0  3  0  0  0  0  0  0
  185.0890  180.1630  144.8510 F   0  0  0  0  0  0  0  0  0  0  0  0
  185.9090  178.0020  144.2610 C   0  0  0  0  0  2  0  0  0  0  0  0
  184.2860  178.2870  146.0890 C   0  0  0  0  0  2  0  0  0  0  0  0
  183.6930  178.7090  143.8430 F   0  0  0  0  0  0  0  0  0  0  0  0
  184.7310  178.8290  144.7460 C   0  0  0  0  0  0  0  0  0  0  0  0
  186.8070  178.1100  146.7000 C   0  0  1  0  0  3  0  0  0  0  0  0
  185.3770  178.4890  147.1340 C   0  0  0  0  0  2  0  0  0  0  0  0
  186.8530  176.7540  146.1360 N   0  0  0  0  0  0  0  0  0  0  0  0
  1  2  2  0  0  0  0
  1  6  1  0  0  0  0
  2 13  1  0  0  0  0
  3 13  2  0  0  0  0
  3 20  1  0  0  0  0
  5  3  1  0  0  0  0
  7  5  1  0  0  0  0
  7  2  1  0  0  0  0
  8 19  1  6  0  0  0
  8 12  1  0  0  0  0
  9  6  1  6  0  0  0
  9  8  1  0  0  0  0
  9 11  1  0  0  0  0
 10  6  2  0  0  0  0
 11  4  1  6  0  0  0
 12  4  2  0  0  0  0
 13 11  1  0  0  0  0
 14  5  2  0  0  0  0
 15 19  1  0  0  0  0
 17 15  1  0  0  0  0
 18 15  1  0  0  0  0
 19 16  2  0  0  0  0
 20 21  1  0  0  0  0
 22 24  1  6  0  0  0
 22 30  1  0  0  0  0
 22 28  1  0  0  0  0
 24 27  1  0  0  0  0
 25 29  1  0  0  0  0
 26 27  1  0  0  0  0
 27 23  1  0  0  0  0
 27 25  1  0  0  0  0
 28 29  1  6  0  0  0
 30 21  1  0  0  0  0
 30 28  1  0  0  0  0
M  END
>  <MODEL>
6

>  <REMARK>
 VINA RESULT:      -7.4      2.433      3.474
  Name = 
  4 active torsions:
  status: ('A' for Active; 'I' for Inactive)
    1  A    between atoms: C_8  and  N_29
    2  A    between atoms: C_18  and  C_25
    3  A    between atoms: C_20  and  N_28
    4  A    between atoms: C_20  and  N_29
                            x       y       z     vdW  Elec       q    Type
                         _______ _______ _______ _____ _____    ______ ____

>  <TORSDO>
F 4

$$$$
=
 OpenBabel11062419533D

 30 34  0  0  1  0  0  0  0  0999 V2000
  186.7310  176.4100  140.9010 N   0  0  0  0  0  0  0  0  0  0  0  0
  187.8120  175.7110  141.0860 C   0  0  0  0  0  0  0  0  0  0  0  0
  189.8550  175.2080  141.8700 C   0  0  0  0  0  0  0  0  0  0  0  0
  189.3480  177.5350  144.0020 C   0  0  0  0  0  3  0  0  0  0  0  0
  189.3700  174.1740  140.9430 C   0  0  0  0  0  0  0  0  0  0  0  0
  186.5310  177.6290  141.6380 C   0  0  0  0  0  0  0  0  0  0  0  0
  188.1060  174.5070  140.4640 O   0  0  0  0  0  0  0  0  0  0  0  0
  187.3070  178.3620  143.9170 C   0  0  2  0  0  3  0  0  0  0  0  0
  187.5480  178.0260  142.6510 C   0  0  1  0  0  3  0  0  0  0  0  0
  185.4970  178.3190  141.4390 O   0  0  0  0  0  0  0  0  0  0  0  0
  188.9490  177.4970  142.5630 C   0  0  2  0  0  3  0  0  0  0  0  0
  188.4240  178.0540  144.7420 N   0  0  0  0  0  0  0  0  0  0  0  0
  188.8970  176.1190  141.9740 C   0  0  0  0  0  0  0  0  0  0  0  0
  190.0110  173.1100  140.5920 N   0  0  0  0  0  2  0  0  0  0  0  0
  185.2860  178.0330  145.4320 N   0  0  0  0  0  0  0  0  0  0  0  0
  185.5670  179.9510  144.1370 O   0  0  0  0  0  0  0  0  0  0  0  0
  185.5660  176.6210  145.6330 C   0  0  0  0  0  1  0  0  0  0  0  0
  184.1500  178.6030  146.1380 C   0  0  0  0  0  1  0  0  0  0  0  0
  186.0140  178.8210  144.4740 C   0  0  0  0  0  0  0  0  0  0  0  0
  191.1540  175.3180  142.4560 N   0  0  0  0  0  2  0  0  0  0  0  0
  191.5590  174.5480  143.6190 C   0  0  0  0  0  2  0  0  0  0  0  0
  192.0340  174.7380  145.9090 C   0  0  1  0  0  3  0  0  0  0  0  0
  191.3640  174.9160  148.8540 F   0  0  0  0  0  0  0  0  0  0  0  0
  192.3150  175.8830  146.8930 C   0  0  0  0  0  2  0  0  0  0  0  0
  189.9190  176.1300  147.3940 C   0  0  0  0  0  2  0  0  0  0  0  0
  191.5670  177.1560  148.7370 F   0  0  0  0  0  0  0  0  0  0  0  0
  191.2970  176.0130  148.0120 C   0  0  0  0  0  0  0  0  0  0  0  0
  190.6440  174.2490  145.7530 C   0  0  1  0  0  3  0  0  0  0  0  0
  189.5510  174.8440  146.6620 C   0  0  0  0  0  2  0  0  0  0  0  0
  191.1770  175.2570  144.8260 N   0  0  0  0  0  0  0  0  0  0  0  0
  1  2  2  0  0  0  0
  1  6  1  0  0  0  0
  2 13  1  0  0  0  0
  3 13  2  0  0  0  0
  3 20  1  0  0  0  0
  4 12  2  0  0  0  0
  5  3  1  0  0  0  0
  7  5  1  0  0  0  0
  7  2  1  0  0  0  0
  8 19  1  1  0  0  0
  8 12  1  0  0  0  0
  9  6  1  1  0  0  0
  9  8  1  0  0  0  0
 10  6  2  0  0  0  0
 11  9  1  0  0  0  0
 11  4  1  1  0  0  0
 13 11  1  0  0  0  0
 14  5  2  0  0  0  0
 15 17  1  0  0  0  0
 15 18  1  0  0  0  0
 16 19  2  0  0  0  0
 19 15  1  0  0  0  0
 20 21  1  0  0  0  0
 21 30  1  0  0  0  0
 22 24  1  1  0  0  0
 24 27  1  0  0  0  0
 25 27  1  0  0  0  0
 27 26  1  0  0  0  0
 27 23  1  0  0  0  0
 28 22  1  0  0  0  0
 28 29  1  1  0  0  0
 29 25  1  0  0  0  0
 30 28  1  0  0  0  0
 30 22  1  0  0  0  0
M  END
>  <MODEL>
7

>  <REMARK>
 VINA RESULT:      -7.3      2.633      5.894
  Name = 
  4 active torsions:
  status: ('A' for Active; 'I' for Inactive)
    1  A    between atoms: C_8  and  N_29
    2  A    between atoms: C_18  and  C_25
    3  A    between atoms: C_20  and  N_28
    4  A    between atoms: C_20  and  N_29
                            x       y       z     vdW  Elec       q    Type
                         _______ _______ _______ _____ _____    ______ ____

>  <TORSDO>
F 4

$$$$
=
 OpenBabel11062419533D

 30 34  0  0  1  0  0  0  0  0999 V2000
  194.8510  176.5720  145.3550 N   0  0  0  0  0  0  0  0  0  0  0  0
  193.5840  176.4610  145.6270 C   0  0  0  0  0  0  0  0  0  0  0  0
  191.3840  176.2380  145.2340 C   0  0  0  0  0  0  0  0  0  0  0  0
  192.2450  175.2850  142.3070 C   0  0  0  0  0  3  0  0  0  0  0  0
  191.6540  176.4170  146.6690 C   0  0  0  0  0  0  0  0  0  0  0  0
  195.3100  176.4140  144.0010 C   0  0  0  0  0  0  0  0  0  0  0  0
  193.0210  176.5580  146.8900 O   0  0  0  0  0  0  0  0  0  0  0  0
  194.4250  175.0600  142.0730 C   0  0  2  0  0  3  0  0  0  0  0  0
  194.3190  176.0590  142.9480 C   0  0  1  0  0  3  0  0  0  0  0  0
  196.5330  176.5480  143.7340 O   0  0  0  0  0  0  0  0  0  0  0  0
  192.8620  176.3540  143.1500 C   0  0  2  0  0  3  0  0  0  0  0  0
  193.1400  174.5900  141.6850 N   0  0  0  0  0  0  0  0  0  0  0  0
  192.5560  176.2370  144.6130 C   0  0  0  0  0  0  0  0  0  0  0  0
  190.7690  176.4580  147.6080 N   0  0  0  0  0  2  0  0  0  0  0  0
  196.0980  173.1530  142.2990 N   0  0  0  0  0  0  0  0  0  0  0  0
  196.3540  174.8470  140.7180 O   0  0  0  0  0  0  0  0  0  0  0  0
  195.5550  172.7190  143.5750 C   0  0  0  0  0  1  0  0  0  0  0  0
  197.1900  172.3770  141.7320 C   0  0  0  0  0  1  0  0  0  0  0  0
  195.6740  174.3740  141.6690 C   0  0  0  0  0  0  0  0  0  0  0  0
  190.1130  176.2090  144.5800 N   0  0  0  0  0  2  0  0  0  0  0  0
  189.4530  177.4060  144.0920 C   0  0  0  0  0  2  0  0  0  0  0  0
  187.6580  176.6080  145.3760 C   0  0  1  0  0  3  0  0  0  0  0  0
  184.8470  176.6370  146.4970 F   0  0  0  0  0  0  0  0  0  0  0  0
  187.2070  176.7150  146.8390 C   0  0  0  0  0  2  0  0  0  0  0  0
  185.9260  178.7620  146.3660 C   0  0  0  0  0  2  0  0  0  0  0  0
  185.6400  177.5750  148.3860 F   0  0  0  0  0  0  0  0  0  0  0  0
  185.8670  177.4040  147.0340 C   0  0  0  0  0  0  0  0  0  0  0  0
  187.1370  177.5850  144.3890 C   0  0  1  0  0  3  0  0  0  0  0  0
  186.0830  178.6070  144.8570 C   0  0  0  0  0  2  0  0  0  0  0  0
  188.4340  177.8170  145.0390 N   0  0  0  0  0  0  0  0  0  0  0  0
  1  2  2  0  0  0  0
  2  7  1  0  0  0  0
  3  5  1  0  0  0  0
  5  7  1  0  0  0  0
  5 14  2  0  0  0  0
  6  1  1  0  0  0  0
  8 19  1  1  0  0  0
  8  9  1  0  0  0  0
  9 11  1  0  0  0  0
  9  6  1  1  0  0  0
 10  6  2  0  0  0  0
 11  4  1  6  0  0  0
 11 13  1  0  0  0  0
 12  8  1  0  0  0  0
 12  4  2  0  0  0  0
 13  3  2  0  0  0  0
 13  2  1  0  0  0  0
 15 17  1  0  0  0  0
 16 19  2  0  0  0  0
 18 15  1  0  0  0  0
 19 15  1  0  0  0  0
 20  3  1  0  0  0  0
 21 20  1  0  0  0  0
 21 30  1  0  0  0  0
 22 24  1  1  0  0  0
 23 27  1  0  0  0  0
 24 27  1  0  0  0  0
 25 27  1  0  0  0  0
 27 26  1  0  0  0  0
 28 29  1  1  0  0  0
 28 30  1  0  0  0  0
 28 22  1  0  0  0  0
 29 25  1  0  0  0  0
 30 22  1  0  0  0  0
M  END
>  <MODEL>
8

>  <REMARK>
 VINA RESULT:      -7.2      2.873      4.662
  Name = 
  4 active torsions:
  status: ('A' for Active; 'I' for Inactive)
    1  A    between atoms: C_8  and  N_29
    2  A    between atoms: C_18  and  C_25
    3  A    between atoms: C_20  and  N_28
    4  A    between atoms: C_20  and  N_29
                            x       y       z     vdW  Elec       q    Type
                         _______ _______ _______ _____ _____    ______ ____

>  <TORSDO>
F 4

$$$$
=
 OpenBabel11062419533D

 30 34  0  0  1  0  0  0  0  0999 V2000
  192.1050  172.6050  143.3050 N   0  0  0  0  0  0  0  0  0  0  0  0
  191.0380  173.3480  143.2790 C   0  0  0  0  0  0  0  0  0  0  0  0
  189.5970  174.9430  143.9290 C   0  0  0  0  0  0  0  0  0  0  0  0
  192.0260  176.0980  145.6570 C   0  0  0  0  0  3  0  0  0  0  0  0
  189.0680  174.1800  142.7890 C   0  0  0  0  0  0  0  0  0  0  0  0
  193.1580  172.8960  144.2430 C   0  0  0  0  0  0  0  0  0  0  0  0
  189.9730  173.1940  142.4050 O   0  0  0  0  0  0  0  0  0  0  0  0
  193.9300  175.0500  145.2890 C   0  0  2  0  0  3  0  0  0  0  0  0
  193.0220  174.0900  145.1210 C   0  0  1  0  0  3  0  0  0  0  0  0
  194.1780  172.1610  144.2860 O   0  0  0  0  0  0  0  0  0  0  0  0
  191.6670  174.6690  145.4060 C   0  0  2  0  0  3  0  0  0  0  0  0
  193.3040  176.2850  145.6180 N   0  0  0  0  0  0  0  0  0  0  0  0
  190.8000  174.4540  144.2020 C   0  0  0  0  0  0  0  0  0  0  0  0
  187.9260  174.3640  142.2170 N   0  0  0  0  0  2  0  0  0  0  0  0
  195.9320  175.3830  143.7490 N   0  0  0  0  0  0  0  0  0  0  0  0
  196.1530  174.5160  145.9020 O   0  0  0  0  0  0  0  0  0  0  0  0
  195.0980  175.5970  142.5780 C   0  0  0  0  0  1  0  0  0  0  0  0
  197.3710  175.4940  143.5820 C   0  0  0  0  0  1  0  0  0  0  0  0
  195.3790  174.9490  145.0050 C   0  0  0  0  0  0  0  0  0  0  0  0
  188.9210  175.9330  144.7090 N   0  0  0  0  0  2  0  0  0  0  0  0
  188.7880  177.3140  144.2820 C   0  0  0  0  0  2  0  0  0  0  0  0
  187.0210  176.8550  145.7560 C   0  0  1  0  0  3  0  0  0  0  0  0
  184.1350  176.8150  146.6660 F   0  0  0  0  0  0  0  0  0  0  0  0
  186.3870  177.5390  146.9750 C   0  0  0  0  0  2  0  0  0  0  0  0
  184.8340  178.8020  145.5440 C   0  0  0  0  0  2  0  0  0  0  0  0
  184.5210  178.6730  147.8810 F   0  0  0  0  0  0  0  0  0  0  0  0
  184.9340  177.9400  146.7850 C   0  0  0  0  0  0  0  0  0  0  0  0
  186.4580  177.1190  144.4090 C   0  0  1  0  0  3  0  0  0  0  0  0
  185.1940  177.9930  144.3020 C   0  0  0  0  0  2  0  0  0  0  0  0
  187.6080  177.8970  144.8920 N   0  0  0  0  0  0  0  0  0  0  0  0
  1  6  1  0  0  0  0
  2  1  2  0  0  0  0
  2 13  1  0  0  0  0
  3 13  2  0  0  0  0
  3 20  1  0  0  0  0
  5  3  1  0  0  0  0
  6 10  2  0  0  0  0
  7  5  1  0  0  0  0
  7  2  1  0  0  0  0
  8 19  1  6  0  0  0
  8 12  1  0  0  0  0
  9  6  1  6  0  0  0
  9  8  1  0  0  0  0
  9 11  1  0  0  0  0
 11  4  1  6  0  0  0
 12  4  2  0  0  0  0
 13 11  1  0  0  0  0
 14  5  2  0  0  0  0
 15 19  1  0  0  0  0
 17 15  1  0  0  0  0
 18 15  1  0  0  0  0
 19 16  2  0  0  0  0
 21 20  1  0  0  0  0
 21 30  1  0  0  0  0
 22 24  1  1  0  0  0
 23 27  1  0  0  0  0
 25 27  1  0  0  0  0
 27 24  1  0  0  0  0
 27 26  1  0  0  0  0
 28 29  1  1  0  0  0
 28 30  1  0  0  0  0
 28 22  1  0  0  0  0
 29 25  1  0  0  0  0
 30 22  1  0  0  0  0
M  END
>  <MODEL>
9

>  <REMARK>
 VINA RESULT:      -7.2      2.038      3.118
  Name = 
  4 active torsions:
  status: ('A' for Active; 'I' for Inactive)
    1  A    between atoms: C_8  and  N_29
    2  A    between atoms: C_18  and  C_25
    3  A    between atoms: C_20  and  N_28
    4  A    between atoms: C_20  and  N_29
                            x       y       z     vdW  Elec       q    Type
                         _______ _______ _______ _____ _____    ______ ____

>  <TORSDO>
F 4

$$$$
