=
 OpenBabel11062420103D

 35 38  0  0  1  0  0  0  0  0999 V2000
  189.8430  176.7330  144.5840 N   0  0  2  0  0  0  0  0  0  0  0  0
  188.6120  176.9490  145.3970 C   0  0  1  0  0  3  0  0  0  0  0  0
  188.5070  176.7320  143.9550 C   0  0  1  0  0  3  0  0  0  0  0  0
  190.7730  175.0550  146.1260 C   0  0  0  0  0  2  0  0  0  0  0  0
  193.3240  175.6050  146.3010 C   0  0  0  0  0  2  0  0  0  0  0  0
  191.8990  175.8740  146.6960 C   0  0  0  0  0  0  0  0  0  0  0  0
  192.8610  174.4410  144.0230 C   0  0  0  0  0  2  0  0  0  0  0  0
  191.7930  175.5260  143.8260 C   0  0  0  0  0  2  0  0  0  0  0  0
  193.4540  174.3430  145.4400 C   0  0  1  0  0  3  0  0  0  0  0  0
  191.6500  176.7870  147.4640 O   0  0  0  0  0  0  0  0  0  0  0  0
  190.4860  175.3870  144.6430 C   0  0  2  0  0  0  0  0  0  0  0  0
  189.6420  174.2450  144.0060 C   0  0  0  0  0  2  0  0  0  0  0  0
  189.7640  172.9030  144.7170 C   0  0  0  0  0  1  0  0  0  0  0  0
  194.8390  173.8870  145.3880 N   0  0  0  0  0  2  0  0  0  0  0  0
  196.1700  169.8960  145.8920 C   0  0  0  0  0  3  0  0  0  0  0  0
  197.0910  170.9370  145.7360 C   0  0  0  0  0  3  0  0  0  0  0  0
  194.3510  171.4810  145.7170 C   0  0  0  0  0  3  0  0  0  0  0  0
  196.6420  172.2500  145.5710 C   0  0  0  0  0  3  0  0  0  0  0  0
  194.8000  170.1690  145.8830 C   0  0  0  0  0  3  0  0  0  0  0  0
  195.2710  172.5310  145.5610 C   0  0  0  0  0  0  0  0  0  0  0  0
  188.1970  175.8030  146.0820 O   0  0  0  0  0  0  0  0  0  0  0  0
  187.4230  176.2860  147.1370 C   0  0  0  0  0  2  0  0  0  0  0  0
  186.2030  176.7490  146.6440 O   0  0  0  0  0  0  0  0  0  0  0  0
  185.6880  177.5380  147.6710 C   0  0  0  0  0  2  0  0  0  0  0  0
  186.6600  178.6580  147.9830 C   0  0  0  0  0  1  0  0  0  0  0  0
  188.2930  178.0570  143.2490 C   0  0  0  0  0  2  0  0  0  0  0  0
  186.5910  177.5500  141.4630 C   0  0  0  0  0  0  0  0  0  0  0  0
  185.8820  178.7450  143.4560 C   0  0  0  0  0  0  0  0  0  0  0  0
  184.5770  178.7870  142.9590 C   0  0  0  0  0  3  0  0  0  0  0  0
  185.2820  177.5940  140.9770 C   0  0  0  0  0  3  0  0  0  0  0  0
  183.0080  178.2540  141.2470 F   0  0  0  0  0  0  0  0  0  0  0  0
  186.1590  179.3150  144.6940 O   0  0  0  0  0  1  0  0  0  0  0  0
  184.2760  178.2120  141.7230 C   0  0  0  0  0  0  0  0  0  0  0  0
  187.5770  176.9300  140.7050 O   0  0  0  0  0  1  0  0  0  0  0  0
  186.9000  178.1300  142.7070 C   0  0  0  0  0  0  0  0  0  0  0  0
  1 11  1  1  0  0  0
  1  2  1  0  0  0  0
  2 21  1  1  0  0  0
  3 26  1  6  0  0  0
  3  1  1  0  0  0  0
  3  2  1  0  0  0  0
  4  6  1  0  0  0  0
  5  6  1  0  0  0  0
  6 10  2  0  0  0  0
  7  9  1  0  0  0  0
  8  7  1  0  0  0  0
  8 11  1  0  0  0  0
  9 14  1  6  0  0  0
  9  5  1  0  0  0  0
 11 12  1  6  0  0  0
 11  4  1  0  0  0  0
 12 13  1  0  0  0  0
 14 20  1  0  0  0  0
 16 15  2  0  0  0  0
 17 19  2  0  0  0  0
 18 16  1  0  0  0  0
 19 15  1  0  0  0  0
 20 18  2  0  0  0  0
 20 17  1  0  0  0  0
 21 22  1  0  0  0  0
 23 22  1  0  0  0  0
 23 24  1  0  0  0  0
 24 25  1  0  0  0  0
 27 35  1  0  0  0  0
 28 32  1  0  0  0  0
 29 28  1  0  0  0  0
 30 27  2  0  0  0  0
 30 33  1  0  0  0  0
 31 33  1  0  0  0  0
 33 29  2  0  0  0  0
 34 27  1  0  0  0  0
 35 26  1  0  0  0  0
 35 28  2  0  0  0  0
M  END
>  <MODEL>
1

>  <REMARK>
 VINA RESULT:      -7.0      0.000      0.000
  Name = 
  10 active torsions:
  status: ('A' for Active; 'I' for Inactive)
    1  A    between atoms: C_4  and  C_33
    2  A    between atoms: C_5  and  O_8
    3  A    between atoms: C_5  and  O_24
    4  A    between atoms: N_6  and  C_33
    5  A    between atoms: O_8  and  C_11
    6  A    between atoms: N_9  and  C_25
    7  A    between atoms: N_9  and  C_35
    8  A    between atoms: C_23  and  O_24
    9  A    between atoms: C_27  and  C_31
   10  A    between atoms: C_28  and  C_31
                            x       y       z     vdW  Elec       q    Type
                         _______ _______ _______ _____ _____    ______ ____

>  <TORSDO>
F 10

$$$$
=
 OpenBabel11062420103D

 35 38  0  0  1  0  0  0  0  0999 V2000
  192.7520  174.4360  145.4900 N   0  0  2  0  0  0  0  0  0  0  0  0
  194.1970  174.7400  145.2840 C   0  0  1  0  0  3  0  0  0  0  0  0
  193.2960  174.6650  144.1360 C   0  0  1  0  0  3  0  0  0  0  0  0
  190.5700  174.9060  146.5260 C   0  0  0  0  0  2  0  0  0  0  0  0
  188.9240  175.3140  144.5330 C   0  0  0  0  0  2  0  0  0  0  0  0
  189.6830  174.3780  145.4310 C   0  0  0  0  0  0  0  0  0  0  0  0
  190.4310  177.4120  144.8330 C   0  0  0  0  0  2  0  0  0  0  0  0
  191.6060  176.4280  144.7470 C   0  0  0  0  0  2  0  0  0  0  0  0
  189.0410  176.7720  144.9940 C   0  0  1  0  0  3  0  0  0  0  0  0
  189.6030  173.1740  145.2500 O   0  0  0  0  0  0  0  0  0  0  0  0
  191.8740  175.5380  145.9840 C   0  0  2  0  0  0  0  0  0  0  0  0
  192.5200  176.4280  147.0850 C   0  0  0  0  0  2  0  0  0  0  0  0
  191.5850  176.7810  148.2350 C   0  0  0  0  0  1  0  0  0  0  0  0
  188.0160  177.6010  144.3660 N   0  0  0  0  0  2  0  0  0  0  0  0
  184.1830  178.4530  145.9580 C   0  0  0  0  0  3  0  0  0  0  0  0
  184.7540  179.2920  144.9950 C   0  0  0  0  0  3  0  0  0  0  0  0
  186.1420  177.0340  145.8820 C   0  0  0  0  0  3  0  0  0  0  0  0
  186.0190  179.0010  144.4760 C   0  0  0  0  0  3  0  0  0  0  0  0
  184.8780  177.3240  146.4010 C   0  0  0  0  0  3  0  0  0  0  0  0
  186.7200  177.8720  144.9140 C   0  0  0  0  0  0  0  0  0  0  0  0
  194.5210  176.0750  145.5480 O   0  0  0  0  0  0  0  0  0  0  0  0
  195.2930  176.4710  144.4560 C   0  0  0  0  0  2  0  0  0  0  0  0
  196.4490  175.6930  144.3980 O   0  0  0  0  0  0  0  0  0  0  0  0
  197.0780  176.0880  143.2190 C   0  0  0  0  0  2  0  0  0  0  0  0
  196.0310  176.4020  142.1690 C   0  0  0  0  0  1  0  0  0  0  0  0
  193.4610  173.3290  143.4380 C   0  0  0  0  0  2  0  0  0  0  0  0
  191.4520  171.9250  142.8610 C   0  0  0  0  0  0  0  0  0  0  0  0
  191.9150  173.9100  141.5390 C   0  0  0  0  0  0  0  0  0  0  0  0
  190.7790  173.6540  140.7680 C   0  0  0  0  0  3  0  0  0  0  0  0
  190.3160  171.6800  142.0850 C   0  0  0  0  0  3  0  0  0  0  0  0
  188.8790  172.3000  140.2880 F   0  0  0  0  0  0  0  0  0  0  0  0
  192.6930  175.0280  141.2590 O   0  0  0  0  0  1  0  0  0  0  0  0
  189.9800  172.5420  141.0390 C   0  0  0  0  0  0  0  0  0  0  0  0
  191.7680  171.0540  143.8980 O   0  0  0  0  0  1  0  0  0  0  0  0
  192.2620  173.0420  142.5900 C   0  0  0  0  0  0  0  0  0  0  0  0
  1 11  1  1  0  0  0
  2  1  1  0  0  0  0
  2 21  1  1  0  0  0
  3 26  1  6  0  0  0
  3  2  1  0  0  0  0
  3  1  1  0  0  0  0
  5  9  1  0  0  0  0
  5  6  1  0  0  0  0
  6  4  1  0  0  0  0
  7  9  1  0  0  0  0
  8  7  1  0  0  0  0
  8 11  1  0  0  0  0
  9 14  1  6  0  0  0
 10  6  2  0  0  0  0
 11  4  1  0  0  0  0
 11 12  1  1  0  0  0
 12 13  1  0  0  0  0
 14 20  1  0  0  0  0
 15 19  1  0  0  0  0
 16 15  2  0  0  0  0
 17 19  2  0  0  0  0
 18 20  2  0  0  0  0
 18 16  1  0  0  0  0
 20 17  1  0  0  0  0
 22 21  1  0  0  0  0
 23 22  1  0  0  0  0
 24 23  1  0  0  0  0
 25 24  1  0  0  0  0
 27 34  1  0  0  0  0
 28 35  2  0  0  0  0
 29 33  2  0  0  0  0
 29 28  1  0  0  0  0
 30 27  2  0  0  0  0
 31 33  1  0  0  0  0
 32 28  1  0  0  0  0
 33 30  1  0  0  0  0
 35 27  1  0  0  0  0
 35 26  1  0  0  0  0
M  END
>  <MODEL>
2

>  <REMARK>
 VINA RESULT:      -6.9      3.304      8.225
  Name = 
  10 active torsions:
  status: ('A' for Active; 'I' for Inactive)
    1  A    between atoms: C_4  and  C_33
    2  A    between atoms: C_5  and  O_8
    3  A    between atoms: C_5  and  O_24
    4  A    between atoms: N_6  and  C_33
    5  A    between atoms: O_8  and  C_11
    6  A    between atoms: N_9  and  C_25
    7  A    between atoms: N_9  and  C_35
    8  A    between atoms: C_23  and  O_24
    9  A    between atoms: C_27  and  C_31
   10  A    between atoms: C_28  and  C_31
                            x       y       z     vdW  Elec       q    Type
                         _______ _______ _______ _____ _____    ______ ____

>  <TORSDO>
F 10

$$$$
=
 OpenBabel11062420103D

 35 38  0  0  1  0  0  0  0  0999 V2000
  192.3340  174.5950  144.5230 N   0  0  2  0  0  0  0  0  0  0  0  0
  193.7730  174.9850  144.4980 C   0  0  1  0  0  3  0  0  0  0  0  0
  193.1390  174.4510  143.2930 C   0  0  1  0  0  3  0  0  0  0  0  0
  191.3680  176.4710  145.7890 C   0  0  0  0  0  2  0  0  0  0  0  0
  189.3150  175.4700  147.0650 C   0  0  0  0  0  2  0  0  0  0  0  0
  190.7960  175.6930  146.9430 C   0  0  0  0  0  0  0  0  0  0  0  0
  188.6900  175.7790  144.5590 C   0  0  0  0  0  2  0  0  0  0  0  0
  189.9610  174.9660  144.2710 C   0  0  0  0  0  2  0  0  0  0  0  0
  188.5270  176.2590  146.0120 C   0  0  1  0  0  3  0  0  0  0  0  0
  191.5470  175.2090  147.7740 O   0  0  0  0  0  0  0  0  0  0  0  0
  191.3170  175.6870  144.4570 C   0  0  2  0  0  0  0  0  0  0  0  0
  191.5070  176.6690  143.2650 C   0  0  0  0  0  2  0  0  0  0  0  0
  191.1610  178.1180  143.5840 C   0  0  0  0  0  1  0  0  0  0  0  0
  187.1150  176.3420  146.3720 N   0  0  0  0  0  2  0  0  0  0  0  0
  184.4740  179.3760  145.0400 C   0  0  0  0  0  3  0  0  0  0  0  0
  185.7640  179.2760  144.5100 C   0  0  0  0  0  3  0  0  0  0  0  0
  184.9100  177.4670  146.4620 C   0  0  0  0  0  3  0  0  0  0  0  0
  186.6280  178.2700  144.9570 C   0  0  0  0  0  3  0  0  0  0  0  0
  184.0470  178.4710  146.0160 C   0  0  0  0  0  3  0  0  0  0  0  0
  186.2070  177.3600  145.9330 C   0  0  0  0  0  0  0  0  0  0  0  0
  193.9670  176.3630  144.3620 O   0  0  0  0  0  0  0  0  0  0  0  0
  195.2700  176.5790  144.8090 C   0  0  0  0  0  2  0  0  0  0  0  0
  196.1580  175.8500  144.0200 O   0  0  0  0  0  0  0  0  0  0  0  0
  196.7550  176.8020  143.1950 C   0  0  0  0  0  2  0  0  0  0  0  0
  196.3480  176.5510  141.7570 C   0  0  0  0  0  1  0  0  0  0  0  0
  193.5140  172.9930  143.1160 C   0  0  0  0  0  2  0  0  0  0  0  0
  192.8380  172.4020  140.7640 C   0  0  0  0  0  0  0  0  0  0  0  0
  191.4660  171.6210  142.6110 C   0  0  0  0  0  0  0  0  0  0  0  0
  190.6140  170.9880  141.7030 C   0  0  0  0  0  3  0  0  0  0  0  0
  191.9810  171.7620  139.8640 C   0  0  0  0  0  3  0  0  0  0  0  0
  190.0410  170.4400  139.4560 F   0  0  0  0  0  0  0  0  0  0  0  0
  191.1990  171.5330  143.9720 O   0  0  0  0  0  1  0  0  0  0  0  0
  190.8700  171.0580  140.3320 C   0  0  0  0  0  0  0  0  0  0  0  0
  193.9380  173.0980  140.2770 O   0  0  0  0  0  1  0  0  0  0  0  0
  192.5830  172.3380  142.1450 C   0  0  0  0  0  0  0  0  0  0  0  0
  1 11  1  6  0  0  0
  2 21  1  6  0  0  0
  2  1  1  0  0  0  0
  3 26  1  1  0  0  0
  3  2  1  0  0  0  0
  3  1  1  0  0  0  0
  4  6  1  0  0  0  0
  6  5  1  0  0  0  0
  6 10  2  0  0  0  0
  7  9  1  0  0  0  0
  8 11  1  0  0  0  0
  8  7  1  0  0  0  0
  9 14  1  1  0  0  0
  9  5  1  0  0  0  0
 11 12  1  6  0  0  0
 11  4  1  0  0  0  0
 12 13  1  0  0  0  0
 15 19  1  0  0  0  0
 16 18  1  0  0  0  0
 16 15  2  0  0  0  0
 18 20  2  0  0  0  0
 19 17  2  0  0  0  0
 20 14  1  0  0  0  0
 20 17  1  0  0  0  0
 21 22  1  0  0  0  0
 23 22  1  0  0  0  0
 24 23  1  0  0  0  0
 25 24  1  0  0  0  0
 27 35  1  0  0  0  0
 28 32  1  0  0  0  0
 29 28  1  0  0  0  0
 30 33  1  0  0  0  0
 30 27  2  0  0  0  0
 31 33  1  0  0  0  0
 33 29  2  0  0  0  0
 34 27  1  0  0  0  0
 35 28  2  0  0  0  0
 35 26  1  0  0  0  0
M  END
>  <MODEL>
3

>  <REMARK>
 VINA RESULT:      -6.8      3.679      8.486
  Name = 
  10 active torsions:
  status: ('A' for Active; 'I' for Inactive)
    1  A    between atoms: C_4  and  C_33
    2  A    between atoms: C_5  and  O_8
    3  A    between atoms: C_5  and  O_24
    4  A    between atoms: N_6  and  C_33
    5  A    between atoms: O_8  and  C_11
    6  A    between atoms: N_9  and  C_25
    7  A    between atoms: N_9  and  C_35
    8  A    between atoms: C_23  and  O_24
    9  A    between atoms: C_27  and  C_31
   10  A    between atoms: C_28  and  C_31
                            x       y       z     vdW  Elec       q    Type
                         _______ _______ _______ _____ _____    ______ ____

>  <TORSDO>
F 10

$$$$
=
 OpenBabel11062420103D

 35 38  0  0  1  0  0  0  0  0999 V2000
  189.0290  177.3050  144.5620 N   0  0  2  0  0  0  0  0  0  0  0  0
  187.8940  177.3010  145.5300 C   0  0  1  0  0  3  0  0  0  0  0  0
  187.6320  177.1870  144.0960 C   0  0  1  0  0  3  0  0  0  0  0  0
  190.1660  175.5330  145.8370 C   0  0  0  0  0  2  0  0  0  0  0  0
  192.6390  176.3430  146.1040 C   0  0  0  0  0  2  0  0  0  0  0  0
  191.1980  176.3810  146.5280 C   0  0  0  0  0  0  0  0  0  0  0  0
  192.2840  175.4890  143.6740 C   0  0  0  0  0  2  0  0  0  0  0  0
  191.0950  176.4600  143.6390 C   0  0  0  0  0  2  0  0  0  0  0  0
  192.9020  175.2480  145.0620 C   0  0  1  0  0  3  0  0  0  0  0  0
  190.8560  177.1340  147.4250 O   0  0  0  0  0  0  0  0  0  0  0  0
  189.8240  176.0480  144.4190 C   0  0  2  0  0  0  0  0  0  0  0  0
  189.1080  174.9260  143.6140 C   0  0  0  0  0  2  0  0  0  0  0  0
  189.2350  175.0610  142.1010 C   0  0  0  0  0  1  0  0  0  0  0  0
  194.3300  174.9690  144.9490 N   0  0  0  0  0  2  0  0  0  0  0  0
  196.1430  171.2750  145.9600 C   0  0  0  0  0  3  0  0  0  0  0  0
  194.8110  171.3190  145.5350 C   0  0  0  0  0  3  0  0  0  0  0  0
  196.2980  173.6780  145.7220 C   0  0  0  0  0  3  0  0  0  0  0  0
  194.2230  172.5430  145.2030 C   0  0  0  0  0  3  0  0  0  0  0  0
  196.8860  172.4550  146.0530 C   0  0  0  0  0  3  0  0  0  0  0  0
  194.9610  173.7290  145.2930 C   0  0  0  0  0  0  0  0  0  0  0  0
  187.7030  176.0610  146.1480 O   0  0  0  0  0  0  0  0  0  0  0  0
  186.9100  176.3430  147.2600 C   0  0  0  0  0  2  0  0  0  0  0  0
  185.7690  177.0340  146.8540 O   0  0  0  0  0  0  0  0  0  0  0  0
  185.5110  177.9260  147.8940 C   0  0  0  0  0  2  0  0  0  0  0  0
  185.8500  179.3340  147.4470 C   0  0  0  0  0  1  0  0  0  0  0  0
  187.1810  178.5260  143.5460 C   0  0  0  0  0  2  0  0  0  0  0  0
  184.7200  178.4490  143.0150 C   0  0  0  0  0  0  0  0  0  0  0  0
  186.3200  178.0650  141.2270 C   0  0  0  0  0  0  0  0  0  0  0  0
  185.2650  177.9100  140.3250 C   0  0  0  0  0  3  0  0  0  0  0  0
  183.6730  178.2960  142.1040 C   0  0  0  0  0  3  0  0  0  0  0  0
  182.9240  177.8770  139.8810 F   0  0  0  0  0  0  0  0  0  0  0  0
  187.6290  177.9550  140.7710 O   0  0  0  0  0  1  0  0  0  0  0  0
  183.9430  178.0260  140.7610 C   0  0  0  0  0  0  0  0  0  0  0  0
  184.4290  178.7180  144.3480 O   0  0  0  0  0  1  0  0  0  0  0  0
  186.0530  178.3300  142.5820 C   0  0  0  0  0  0  0  0  0  0  0  0
  1 11  1  1  0  0  0
  1  2  1  0  0  0  0
  2 21  1  1  0  0  0
  3 26  1  6  0  0  0
  3  1  1  0  0  0  0
  3  2  1  0  0  0  0
  4  6  1  0  0  0  0
  5  6  1  0  0  0  0
  6 10  2  0  0  0  0
  7  9  1  0  0  0  0
  8  7  1  0  0  0  0
  8 11  1  0  0  0  0
  9 14  1  6  0  0  0
  9  5  1  0  0  0  0
 11 12  1  6  0  0  0
 11  4  1  0  0  0  0
 13 12  1  0  0  0  0
 14 20  1  0  0  0  0
 15 19  1  0  0  0  0
 16 15  2  0  0  0  0
 17 19  2  0  0  0  0
 18 20  2  0  0  0  0
 18 16  1  0  0  0  0
 20 17  1  0  0  0  0
 21 22  1  0  0  0  0
 23 22  1  0  0  0  0
 23 24  1  0  0  0  0
 25 24  1  0  0  0  0
 27 34  1  0  0  0  0
 28 35  2  0  0  0  0
 29 33  2  0  0  0  0
 29 28  1  0  0  0  0
 30 27  2  0  0  0  0
 31 33  1  0  0  0  0
 32 28  1  0  0  0  0
 33 30  1  0  0  0  0
 35 27  1  0  0  0  0
 35 26  1  0  0  0  0
M  END
>  <MODEL>
4

>  <REMARK>
 VINA RESULT:      -6.8      1.047      1.979
  Name = 
  10 active torsions:
  status: ('A' for Active; 'I' for Inactive)
    1  A    between atoms: C_4  and  C_33
    2  A    between atoms: C_5  and  O_8
    3  A    between atoms: C_5  and  O_24
    4  A    between atoms: N_6  and  C_33
    5  A    between atoms: O_8  and  C_11
    6  A    between atoms: N_9  and  C_25
    7  A    between atoms: N_9  and  C_35
    8  A    between atoms: C_23  and  O_24
    9  A    between atoms: C_27  and  C_31
   10  A    between atoms: C_28  and  C_31
                            x       y       z     vdW  Elec       q    Type
                         _______ _______ _______ _____ _____    ______ ____

>  <TORSDO>
F 10

$$$$
=
 OpenBabel11062420103D

 35 38  0  0  1  0  0  0  0  0999 V2000
  192.7760  174.4780  145.3240 N   0  0  2  0  0  0  0  0  0  0  0  0
  194.1640  174.8840  144.9610 C   0  0  1  0  0  3  0  0  0  0  0  0
  193.1620  174.6880  143.9140 C   0  0  1  0  0  3  0  0  0  0  0  0
  190.5650  174.8390  146.3410 C   0  0  0  0  0  2  0  0  0  0  0  0
  188.9490  175.3320  144.3440 C   0  0  0  0  0  2  0  0  0  0  0  0
  189.7110  174.3600  145.1990 C   0  0  0  0  0  0  0  0  0  0  0  0
  190.4030  177.4400  144.8000 C   0  0  0  0  0  2  0  0  0  0  0  0
  191.6010  176.4860  144.6790 C   0  0  0  0  0  2  0  0  0  0  0  0
  189.0240  176.7620  144.8940 C   0  0  1  0  0  3  0  0  0  0  0  0
  189.6610  173.1680  144.9440 O   0  0  0  0  0  0  0  0  0  0  0  0
  191.8640  175.5290  145.8660 C   0  0  2  0  0  0  0  0  0  0  0  0
  192.4690  176.3640  147.0310 C   0  0  0  0  0  2  0  0  0  0  0  0
  191.5140  176.6010  148.1940 C   0  0  0  0  0  1  0  0  0  0  0  0
  187.9940  177.6050  144.2950 N   0  0  0  0  0  2  0  0  0  0  0  0
  184.2020  178.4730  145.9760 C   0  0  0  0  0  3  0  0  0  0  0  0
  184.7510  179.3060  144.9960 C   0  0  0  0  0  3  0  0  0  0  0  0
  186.1550  177.0500  145.8590 C   0  0  0  0  0  3  0  0  0  0  0  0
  186.0030  179.0110  144.4480 C   0  0  0  0  0  3  0  0  0  0  0  0
  184.9050  177.3440  146.4070 C   0  0  0  0  0  3  0  0  0  0  0  0
  186.7120  177.8820  144.8740 C   0  0  0  0  0  0  0  0  0  0  0  0
  194.4020  176.2500  145.1410 O   0  0  0  0  0  0  0  0  0  0  0  0
  195.3320  176.5770  144.1550 C   0  0  0  0  0  2  0  0  0  0  0  0
  196.4570  175.7630  144.2880 O   0  0  0  0  0  0  0  0  0  0  0  0
  197.2640  176.1020  143.2030 C   0  0  0  0  0  2  0  0  0  0  0  0
  196.4070  176.6920  142.1010 C   0  0  0  0  0  1  0  0  0  0  0  0
  193.3660  173.3390  143.2510 C   0  0  0  0  0  2  0  0  0  0  0  0
  195.6250  172.9690  142.2020 C   0  0  0  0  0  0  0  0  0  0  0  0
  193.8900  174.0630  140.8990 C   0  0  0  0  0  0  0  0  0  0  0  0
  194.7710  174.1590  139.8190 C   0  0  0  0  0  3  0  0  0  0  0  0
  196.4960  173.0670  141.1140 C   0  0  0  0  0  3  0  0  0  0  0  0
  196.9200  173.7560  138.8730 F   0  0  0  0  0  0  0  0  0  0  0  0
  192.5970  174.5560  140.7700 O   0  0  0  0  0  1  0  0  0  0  0  0
  196.0710  173.6620  139.9250 C   0  0  0  0  0  0  0  0  0  0  0  0
  196.0680  172.3730  143.3770 O   0  0  0  0  0  1  0  0  0  0  0  0
  194.3150  173.4710  142.1020 C   0  0  0  0  0  0  0  0  0  0  0  0
  1 11  1  1  0  0  0
  2 21  1  1  0  0  0
  2  1  1  0  0  0  0
  3 26  1  6  0  0  0
  3  2  1  0  0  0  0
  3  1  1  0  0  0  0
  5  9  1  0  0  0  0
  5  6  1  0  0  0  0
  6  4  1  0  0  0  0
  7  9  1  0  0  0  0
  8  7  1  0  0  0  0
  8 11  1  0  0  0  0
  9 14  1  6  0  0  0
 10  6  2  0  0  0  0
 11  4  1  0  0  0  0
 11 12  1  1  0  0  0
 12 13  1  0  0  0  0
 14 20  1  0  0  0  0
 15 19  1  0  0  0  0
 16 15  2  0  0  0  0
 17 19  2  0  0  0  0
 18 20  2  0  0  0  0
 18 16  1  0  0  0  0
 20 17  1  0  0  0  0
 22 23  1  0  0  0  0
 22 21  1  0  0  0  0
 24 23  1  0  0  0  0
 25 24  1  0  0  0  0
 27 34  1  0  0  0  0
 28 35  2  0  0  0  0
 29 33  2  0  0  0  0
 29 28  1  0  0  0  0
 30 27  2  0  0  0  0
 31 33  1  0  0  0  0
 32 28  1  0  0  0  0
 33 30  1  0  0  0  0
 35 27  1  0  0  0  0
 35 26  1  0  0  0  0
M  END
>  <MODEL>
5

>  <REMARK>
 VINA RESULT:      -6.8      4.003      9.129
  Name = 
  10 active torsions:
  status: ('A' for Active; 'I' for Inactive)
    1  A    between atoms: C_4  and  C_33
    2  A    between atoms: C_5  and  O_8
    3  A    between atoms: C_5  and  O_24
    4  A    between atoms: N_6  and  C_33
    5  A    between atoms: O_8  and  C_11
    6  A    between atoms: N_9  and  C_25
    7  A    between atoms: N_9  and  C_35
    8  A    between atoms: C_23  and  O_24
    9  A    between atoms: C_27  and  C_31
   10  A    between atoms: C_28  and  C_31
                            x       y       z     vdW  Elec       q    Type
                         _______ _______ _______ _____ _____    ______ ____

>  <TORSDO>
F 10

$$$$
=
 OpenBabel11062420103D

 35 38  0  0  1  0  0  0  0  0999 V2000
  192.6390  174.2850  145.3220 N   0  0  2  0  0  0  0  0  0  0  0  0
  194.1190  174.4490  145.2340 C   0  0  1  0  0  3  0  0  0  0  0  0
  193.3020  174.5230  144.0240 C   0  0  1  0  0  3  0  0  0  0  0  0
  190.5120  174.9030  146.3940 C   0  0  0  0  0  2  0  0  0  0  0  0
  188.8520  175.3800  144.4290 C   0  0  0  0  0  2  0  0  0  0  0  0
  189.5720  174.4130  145.3270 C   0  0  0  0  0  0  0  0  0  0  0  0
  190.4890  177.3870  144.6640 C   0  0  0  0  0  2  0  0  0  0  0  0
  191.6000  176.3310  144.5700 C   0  0  0  0  0  2  0  0  0  0  0  0
  189.0660  176.8350  144.8640 C   0  0  1  0  0  3  0  0  0  0  0  0
  189.4150  173.2140  145.1670 O   0  0  0  0  0  0  0  0  0  0  0  0
  191.8400  175.4460  145.8160 C   0  0  2  0  0  0  0  0  0  0  0  0
  192.5620  176.3110  146.8890 C   0  0  0  0  0  2  0  0  0  0  0  0
  191.6630  176.7780  148.0270 C   0  0  0  0  0  1  0  0  0  0  0  0
  188.0810  177.7150  144.2430 N   0  0  0  0  0  2  0  0  0  0  0  0
  184.2620  178.6750  145.8070 C   0  0  0  0  0  3  0  0  0  0  0  0
  184.7840  179.3870  144.7220 C   0  0  0  0  0  3  0  0  0  0  0  0
  186.2610  177.3130  145.8740 C   0  0  0  0  0  3  0  0  0  0  0  0
  186.0450  179.0620  144.2140 C   0  0  0  0  0  3  0  0  0  0  0  0
  185.0010  177.6370  146.3820 C   0  0  0  0  0  3  0  0  0  0  0  0
  186.7910  178.0240  144.7840 C   0  0  0  0  0  0  0  0  0  0  0  0
  194.5520  175.7290  145.5930 O   0  0  0  0  0  0  0  0  0  0  0  0
  195.8010  175.8590  144.9880 C   0  0  0  0  0  2  0  0  0  0  0  0
  195.8050  176.9870  144.1670 O   0  0  0  0  0  0  0  0  0  0  0  0
  196.6870  176.6670  143.1360 C   0  0  0  0  0  2  0  0  0  0  0  0
  195.9030  176.3700  141.8740 C   0  0  0  0  0  1  0  0  0  0  0  0
  193.3850  173.2130  143.2640 C   0  0  0  0  0  2  0  0  0  0  0  0
  191.7910  173.8130  141.4100 C   0  0  0  0  0  0  0  0  0  0  0  0
  191.2750  171.9130  142.8340 C   0  0  0  0  0  0  0  0  0  0  0  0
  190.1090  171.6850  142.0970 C   0  0  0  0  0  3  0  0  0  0  0  0
  190.6250  173.5740  140.6780 C   0  0  0  0  0  3  0  0  0  0  0  0
  188.6540  172.2870  140.3090 F   0  0  0  0  0  0  0  0  0  0  0  0
  191.5850  171.0710  143.8960 O   0  0  0  0  0  1  0  0  0  0  0  0
  189.7840  172.5140  141.0210 C   0  0  0  0  0  0  0  0  0  0  0  0
  192.6140  174.8740  141.0520 O   0  0  0  0  0  1  0  0  0  0  0  0
  192.1210  172.9840  142.4970 C   0  0  0  0  0  0  0  0  0  0  0  0
  1 11  1  1  0  0  0
  2  1  1  0  0  0  0
  2 21  1  1  0  0  0
  3 26  1  6  0  0  0
  3  2  1  0  0  0  0
  3  1  1  0  0  0  0
  5  9  1  0  0  0  0
  5  6  1  0  0  0  0
  6  4  1  0  0  0  0
  7  9  1  0  0  0  0
  8  7  1  0  0  0  0
  8 11  1  0  0  0  0
  9 14  1  6  0  0  0
 10  6  2  0  0  0  0
 11  4  1  0  0  0  0
 11 12  1  1  0  0  0
 12 13  1  0  0  0  0
 14 20  1  0  0  0  0
 15 19  1  0  0  0  0
 16 15  2  0  0  0  0
 17 19  2  0  0  0  0
 18 16  1  0  0  0  0
 18 20  2  0  0  0  0
 20 17  1  0  0  0  0
 22 21  1  0  0  0  0
 23 22  1  0  0  0  0
 24 23  1  0  0  0  0
 25 24  1  0  0  0  0
 27 35  1  0  0  0  0
 28 32  1  0  0  0  0
 29 28  1  0  0  0  0
 30 33  1  0  0  0  0
 30 27  2  0  0  0  0
 31 33  1  0  0  0  0
 33 29  2  0  0  0  0
 34 27  1  0  0  0  0
 35 28  2  0  0  0  0
 35 26  1  0  0  0  0
M  END
>  <MODEL>
6

>  <REMARK>
 VINA RESULT:      -6.8      3.224      8.178
  Name = 
  10 active torsions:
  status: ('A' for Active; 'I' for Inactive)
    1  A    between atoms: C_4  and  C_33
    2  A    between atoms: C_5  and  O_8
    3  A    between atoms: C_5  and  O_24
    4  A    between atoms: N_6  and  C_33
    5  A    between atoms: O_8  and  C_11
    6  A    between atoms: N_9  and  C_25
    7  A    between atoms: N_9  and  C_35
    8  A    between atoms: C_23  and  O_24
    9  A    between atoms: C_27  and  C_31
   10  A    between atoms: C_28  and  C_31
                            x       y       z     vdW  Elec       q    Type
                         _______ _______ _______ _____ _____    ______ ____

>  <TORSDO>
F 10

$$$$
=
 OpenBabel11062420103D

 35 38  0  0  1  0  0  0  0  0999 V2000
  189.6370  176.9360  145.4560 N   0  0  2  0  0  0  0  0  0  0  0  0
  188.3730  177.2870  146.1650 C   0  0  1  0  0  3  0  0  0  0  0  0
  188.3500  176.9900  144.7340 C   0  0  1  0  0  3  0  0  0  0  0  0
  191.6430  175.5430  145.1560 C   0  0  0  0  0  2  0  0  0  0  0  0
  191.4080  174.4840  142.7750 C   0  0  0  0  0  2  0  0  0  0  0  0
  191.7650  175.6440  143.6600 C   0  0  0  0  0  0  0  0  0  0  0  0
  189.8070  173.2530  144.4140 C   0  0  0  0  0  2  0  0  0  0  0  0
  189.2760  174.6540  144.7520 C   0  0  0  0  0  2  0  0  0  0  0  0
  191.1030  173.2170  143.5850 C   0  0  1  0  0  3  0  0  0  0  0  0
  192.1300  176.6940  143.1560 O   0  0  0  0  0  0  0  0  0  0  0  0
  190.1730  175.5540  145.6360 C   0  0  2  0  0  0  0  0  0  0  0  0
  190.0960  175.0210  147.0960 C   0  0  0  0  0  2  0  0  0  0  0  0
  191.1940  175.5440  148.0130 C   0  0  0  0  0  1  0  0  0  0  0  0
  191.1360  172.0330  142.7330 N   0  0  0  0  0  2  0  0  0  0  0  0
  189.9870  171.8940  138.6570 C   0  0  0  0  0  3  0  0  0  0  0  0
  191.2860  171.5440  139.0400 C   0  0  0  0  0  3  0  0  0  0  0  0
  189.4260  172.3410  140.9670 C   0  0  0  0  0  3  0  0  0  0  0  0
  191.6550  171.5930  140.3880 C   0  0  0  0  0  3  0  0  0  0  0  0
  189.0580  172.2920  139.6210 C   0  0  0  0  0  3  0  0  0  0  0  0
  190.7290  171.9900  141.3590 C   0  0  0  0  0  0  0  0  0  0  0  0
  187.8280  176.2170  146.8810 O   0  0  0  0  0  0  0  0  0  0  0  0
  186.5800  176.6740  147.3010 C   0  0  0  0  0  2  0  0  0  0  0  0
  186.6510  178.0430  147.5610 O   0  0  0  0  0  0  0  0  0  0  0  0
  185.3400  178.4950  147.4110 C   0  0  0  0  0  2  0  0  0  0  0  0
  184.5790  177.5470  146.5060 C   0  0  0  0  0  1  0  0  0  0  0  0
  188.2830  178.2810  143.9400 C   0  0  0  0  0  2  0  0  0  0  0  0
  187.5800  177.3170  141.7220 C   0  0  0  0  0  0  0  0  0  0  0  0
  186.0620  178.8150  142.8850 C   0  0  0  0  0  0  0  0  0  0  0  0
  185.1320  178.6640  141.8540 C   0  0  0  0  0  3  0  0  0  0  0  0
  186.6420  177.1700  140.6980 C   0  0  0  0  0  3  0  0  0  0  0  0
  184.5140  177.6990  139.7650 F   0  0  0  0  0  0  0  0  0  0  0  0
  185.7520  179.6300  143.9680 O   0  0  0  0  0  1  0  0  0  0  0  0
  185.4200  177.8430  140.7620 C   0  0  0  0  0  0  0  0  0  0  0  0
  188.7900  176.6380  141.6390 O   0  0  0  0  0  1  0  0  0  0  0  0
  187.2970  178.1460  142.8230 C   0  0  0  0  0  0  0  0  0  0  0  0
  1 11  1  1  0  0  0
  1  2  1  0  0  0  0
  2 21  1  1  0  0  0
  3 26  1  6  0  0  0
  3  1  1  0  0  0  0
  3  2  1  0  0  0  0
  4 11  1  0  0  0  0
  5  9  1  0  0  0  0
  5  6  1  0  0  0  0
  6  4  1  0  0  0  0
  7  8  1  0  0  0  0
  8 11  1  0  0  0  0
  9 14  1  6  0  0  0
  9  7  1  0  0  0  0
 10  6  2  0  0  0  0
 11 12  1  1  0  0  0
 12 13  1  0  0  0  0
 15 16  2  0  0  0  0
 15 19  1  0  0  0  0
 16 18  1  0  0  0  0
 17 20  1  0  0  0  0
 18 20  2  0  0  0  0
 19 17  2  0  0  0  0
 20 14  1  0  0  0  0
 21 22  1  0  0  0  0
 22 23  1  0  0  0  0
 24 23  1  0  0  0  0
 25 24  1  0  0  0  0
 27 35  1  0  0  0  0
 28 32  1  0  0  0  0
 29 28  1  0  0  0  0
 30 33  1  0  0  0  0
 30 27  2  0  0  0  0
 31 33  1  0  0  0  0
 33 29  2  0  0  0  0
 34 27  1  0  0  0  0
 35 28  2  0  0  0  0
 35 26  1  0  0  0  0
M  END
>  <MODEL>
7

>  <REMARK>
 VINA RESULT:      -6.7      2.779      3.973
  Name = 
  10 active torsions:
  status: ('A' for Active; 'I' for Inactive)
    1  A    between atoms: C_4  and  C_33
    2  A    between atoms: C_5  and  O_8
    3  A    between atoms: C_5  and  O_24
    4  A    between atoms: N_6  and  C_33
    5  A    between atoms: O_8  and  C_11
    6  A    between atoms: N_9  and  C_25
    7  A    between atoms: N_9  and  C_35
    8  A    between atoms: C_23  and  O_24
    9  A    between atoms: C_27  and  C_31
   10  A    between atoms: C_28  and  C_31
                            x       y       z     vdW  Elec       q    Type
                         _______ _______ _______ _____ _____    ______ ____

>  <TORSDO>
F 10

$$$$
=
 OpenBabel11062420103D

 35 38  0  0  1  0  0  0  0  0999 V2000
  191.8630  174.9400  142.7750 N   0  0  2  0  0  0  0  0  0  0  0  0
  191.9330  174.5450  141.3380 C   0  0  1  0  0  3  0  0  0  0  0  0
  192.8190  173.9110  142.3140 C   0  0  1  0  0  3  0  0  0  0  0  0
  189.4140  174.9480  143.0070 C   0  0  0  0  0  2  0  0  0  0  0  0
  188.8760  176.8910  144.6740 C   0  0  0  0  0  2  0  0  0  0  0  0
  189.2200  176.4120  143.2920 C   0  0  0  0  0  0  0  0  0  0  0  0
  189.8080  174.8620  146.0070 C   0  0  0  0  0  2  0  0  0  0  0  0
  190.9880  174.9170  145.0250 C   0  0  0  0  0  2  0  0  0  0  0  0
  188.5920  175.7270  145.6310 C   0  0  1  0  0  3  0  0  0  0  0  0
  189.3740  177.2250  142.3950 O   0  0  0  0  0  0  0  0  0  0  0  0
  190.7360  174.3970  143.5900 C   0  0  2  0  0  0  0  0  0  0  0  0
  190.6760  172.8430  143.6460 C   0  0  0  0  0  2  0  0  0  0  0  0
  189.2720  172.2650  143.5190 C   0  0  0  0  0  1  0  0  0  0  0  0
  187.9020  176.1940  146.8290 N   0  0  0  0  0  2  0  0  0  0  0  0
  184.4930  178.7110  146.9010 C   0  0  0  0  0  3  0  0  0  0  0  0
  185.6350  179.0410  147.6380 C   0  0  0  0  0  3  0  0  0  0  0  0
  185.5900  176.7070  146.1030 C   0  0  0  0  0  3  0  0  0  0  0  0
  186.7550  178.2040  147.6070 C   0  0  0  0  0  3  0  0  0  0  0  0
  184.4710  177.5430  146.1340 C   0  0  0  0  0  3  0  0  0  0  0  0
  186.7400  177.0340  146.8400 C   0  0  0  0  0  0  0  0  0  0  0  0
  190.9230  173.6530  140.9640 O   0  0  0  0  0  0  0  0  0  0  0  0
  191.1630  173.4000  139.6140 C   0  0  0  0  0  2  0  0  0  0  0  0
  190.2840  172.4150  139.1630 O   0  0  0  0  0  0  0  0  0  0  0  0
  189.0580  172.7520  139.7360 C   0  0  0  0  0  2  0  0  0  0  0  0
  188.2060  173.4800  138.7160 C   0  0  0  0  0  1  0  0  0  0  0  0
  194.2020  174.5260  142.2290 C   0  0  0  0  0  2  0  0  0  0  0  0
  195.7110  173.0310  143.5820 C   0  0  0  0  0  0  0  0  0  0  0  0
  194.9990  175.1500  144.5330 C   0  0  0  0  0  0  0  0  0  0  0  0
  195.7430  174.8770  145.6830 C   0  0  0  0  0  3  0  0  0  0  0  0
  196.4550  172.7690  144.7350 C   0  0  0  0  0  3  0  0  0  0  0  0
  197.1920  173.4310  146.9020 F   0  0  0  0  0  0  0  0  0  0  0  0
  194.2890  176.3420  144.4470 O   0  0  0  0  0  1  0  0  0  0  0  0
  196.4710  173.6890  145.7850 C   0  0  0  0  0  0  0  0  0  0  0  0
  195.7100  172.1010  142.5480 O   0  0  0  0  0  1  0  0  0  0  0  0
  194.9740  174.2240  143.4750 C   0  0  0  0  0  0  0  0  0  0  0  0
  1 11  1  1  0  0  0
  2 21  1  1  0  0  0
  2  3  1  0  0  0  0
  2  1  1  0  0  0  0
  3 26  1  6  0  0  0
  3  1  1  0  0  0  0
  4  6  1  0  0  0  0
  4 11  1  0  0  0  0
  5  9  1  0  0  0  0
  6  5  1  0  0  0  0
  8  7  1  0  0  0  0
  9  7  1  0  0  0  0
  9 14  1  1  0  0  0
 10  6  2  0  0  0  0
 11 12  1  6  0  0  0
 11  8  1  0  0  0  0
 13 12  1  0  0  0  0
 14 20  1  0  0  0  0
 15 16  1  0  0  0  0
 17 19  1  0  0  0  0
 17 20  2  0  0  0  0
 18 16  2  0  0  0  0
 19 15  2  0  0  0  0
 20 18  1  0  0  0  0
 22 21  1  0  0  0  0
 23 22  1  0  0  0  0
 23 24  1  0  0  0  0
 25 24  1  0  0  0  0
 26 35  1  0  0  0  0
 27 30  1  0  0  0  0
 28 29  2  0  0  0  0
 29 33  1  0  0  0  0
 30 33  2  0  0  0  0
 32 28  1  0  0  0  0
 33 31  1  0  0  0  0
 34 27  1  0  0  0  0
 35 27  2  0  0  0  0
 35 28  1  0  0  0  0
M  END
>  <MODEL>
8

>  <REMARK>
 VINA RESULT:      -6.7      3.947      9.026
  Name = 
  10 active torsions:
  status: ('A' for Active; 'I' for Inactive)
    1  A    between atoms: C_4  and  C_33
    2  A    between atoms: C_5  and  O_8
    3  A    between atoms: C_5  and  O_24
    4  A    between atoms: N_6  and  C_33
    5  A    between atoms: O_8  and  C_11
    6  A    between atoms: N_9  and  C_25
    7  A    between atoms: N_9  and  C_35
    8  A    between atoms: C_23  and  O_24
    9  A    between atoms: C_27  and  C_31
   10  A    between atoms: C_28  and  C_31
                            x       y       z     vdW  Elec       q    Type
                         _______ _______ _______ _____ _____    ______ ____

>  <TORSDO>
F 10

$$$$
=
 OpenBabel11062420103D

 35 38  0  0  1  0  0  0  0  0999 V2000
  191.8240  173.9390  143.6940 N   0  0  2  0  0  0  0  0  0  0  0  0
  192.0590  172.5060  143.3520 C   0  0  1  0  0  3  0  0  0  0  0  0
  192.0910  172.9390  144.7480 C   0  0  1  0  0  3  0  0  0  0  0  0
  190.4030  175.8150  142.9750 C   0  0  0  0  0  2  0  0  0  0  0  0
  190.2980  177.4360  145.0260 C   0  0  0  0  0  2  0  0  0  0  0  0
  191.0160  176.8970  143.8220 C   0  0  0  0  0  0  0  0  0  0  0  0
  188.7610  175.3880  145.4830 C   0  0  0  0  0  2  0  0  0  0  0  0
  190.0020  174.5430  145.1600 C   0  0  0  0  0  2  0  0  0  0  0  0
  188.8710  176.8840  145.1380 C   0  0  1  0  0  3  0  0  0  0  0  0
  192.1260  177.3220  143.5440 O   0  0  0  0  0  0  0  0  0  0  0  0
  190.4150  174.4350  143.6730 C   0  0  2  0  0  0  0  0  0  0  0  0
  189.4110  173.4820  142.9630 C   0  0  0  0  0  2  0  0  0  0  0  0
  188.4810  174.1740  141.9740 C   0  0  0  0  0  1  0  0  0  0  0  0
  188.0730  177.6850  146.0610 N   0  0  0  0  0  2  0  0  0  0  0  0
  184.0250  178.8030  145.5000 C   0  0  0  0  0  3  0  0  0  0  0  0
  184.4330  178.1890  146.6880 C   0  0  0  0  0  3  0  0  0  0  0  0
  186.2920  178.6870  144.6620 C   0  0  0  0  0  3  0  0  0  0  0  0
  185.7710  177.8250  146.8640 C   0  0  0  0  0  3  0  0  0  0  0  0
  184.9540  179.0520  144.4870 C   0  0  0  0  0  3  0  0  0  0  0  0
  186.7080  178.0710  145.8540 C   0  0  0  0  0  0  0  0  0  0  0  0
  190.8790  171.8000  143.1000 O   0  0  0  0  0  0  0  0  0  0  0  0
  191.3040  170.5970  142.5370 C   0  0  0  0  0  2  0  0  0  0  0  0
  190.3960  170.1960  141.5570 O   0  0  0  0  0  0  0  0  0  0  0  0
  191.0080  170.5370  140.3520 C   0  0  0  0  0  2  0  0  0  0  0  0
  190.1870  171.6010  139.6520 C   0  0  0  0  0  1  0  0  0  0  0  0
  193.5280  173.0820  145.2110 C   0  0  0  0  0  2  0  0  0  0  0  0
  193.3450  175.3050  146.3790 C   0  0  0  0  0  0  0  0  0  0  0  0
  194.7910  175.1150  144.4360 C   0  0  0  0  0  0  0  0  0  0  0  0
  195.1430  176.4600  144.5730 C   0  0  0  0  0  3  0  0  0  0  0  0
  193.7060  176.6490  146.5090 C   0  0  0  0  0  3  0  0  0  0  0  0
  194.9480  178.5300  145.7370 F   0  0  0  0  0  0  0  0  0  0  0  0
  195.3480  174.3660  143.4050 O   0  0  0  0  0  1  0  0  0  0  0  0
  194.6020  177.2260  145.6080 C   0  0  0  0  0  0  0  0  0  0  0  0
  192.4510  174.7500  147.2870 O   0  0  0  0  0  1  0  0  0  0  0  0
  193.8840  174.5300  145.3370 C   0  0  0  0  0  0  0  0  0  0  0  0
  1 11  1  1  0  0  0
  1  3  1  0  0  0  0
  2 21  1  1  0  0  0
  2  1  1  0  0  0  0
  2  3  1  0  0  0  0
  3 26  1  6  0  0  0
  4 11  1  0  0  0  0
  4  6  1  0  0  0  0
  5  9  1  0  0  0  0
  6  5  1  0  0  0  0
  8  7  1  0  0  0  0
  9  7  1  0  0  0  0
  9 14  1  1  0  0  0
 10  6  2  0  0  0  0
 11 12  1  6  0  0  0
 11  8  1  0  0  0  0
 13 12  1  0  0  0  0
 15 16  1  0  0  0  0
 16 18  2  0  0  0  0
 17 20  2  0  0  0  0
 19 17  1  0  0  0  0
 19 15  2  0  0  0  0
 20 14  1  0  0  0  0
 20 18  1  0  0  0  0
 22 21  1  0  0  0  0
 23 22  1  0  0  0  0
 24 23  1  0  0  0  0
 25 24  1  0  0  0  0
 26 35  1  0  0  0  0
 27 30  1  0  0  0  0
 27 34  1  0  0  0  0
 28 29  2  0  0  0  0
 28 35  1  0  0  0  0
 29 33  1  0  0  0  0
 32 28  1  0  0  0  0
 33 31  1  0  0  0  0
 33 30  2  0  0  0  0
 35 27  2  0  0  0  0
M  END
>  <MODEL>
9

>  <REMARK>
 VINA RESULT:      -6.7      3.613      8.750
  Name = 
  10 active torsions:
  status: ('A' for Active; 'I' for Inactive)
    1  A    between atoms: C_4  and  C_33
    2  A    between atoms: C_5  and  O_8
    3  A    between atoms: C_5  and  O_24
    4  A    between atoms: N_6  and  C_33
    5  A    between atoms: O_8  and  C_11
    6  A    between atoms: N_9  and  C_25
    7  A    between atoms: N_9  and  C_35
    8  A    between atoms: C_23  and  O_24
    9  A    between atoms: C_27  and  C_31
   10  A    between atoms: C_28  and  C_31
                            x       y       z     vdW  Elec       q    Type
                         _______ _______ _______ _____ _____    ______ ____

>  <TORSDO>
F 10

$$$$
