=
 OpenBabel11062422413D

 44 50  0  0  1  0  0  0  0  0999 V2000
  192.0390  175.5070  144.9730 C   0  0  0  0  0  0  0  0  0  0  0  0
  194.1060  175.4490  145.7740 C   0  0  0  0  0  0  0  0  0  0  0  0
  192.4140  172.4380  144.5550 N   0  0  0  0  0  0  0  0  0  0  0  0
  190.8210  175.1660  144.4040 C   0  0  0  0  0  0  0  0  0  0  0  0
  195.7960  173.6470  145.6630 C   0  0  0  0  0  2  0  0  0  0  0  0
  193.6190  176.7340  145.8680 C   0  0  0  0  0  3  0  0  0  0  0  0
  192.3570  176.7610  145.3770 N   0  0  0  0  0  0  0  0  0  0  0  0
  195.3950  174.9700  146.1470 N   0  0  0  0  0  2  0  0  0  0  0  0
  190.4870  173.8740  143.9900 C   0  0  0  0  0  3  0  0  0  0  0  0
  191.1760  172.6600  144.0370 C   0  0  0  0  0  0  0  0  0  0  0  0
  194.6050  172.6630  145.6550 C   0  0  0  0  0  2  0  0  0  0  0  0
  193.1560  174.6360  145.2310 C   0  0  0  0  0  0  0  0  0  0  0  0
  193.3400  173.2710  145.0840 C   0  0  0  0  0  0  0  0  0  0  0  0
  188.9610  177.8820  142.5570 O   0  0  0  0  0  0  0  0  0  0  0  0
  189.5350  176.5900  142.7360 C   0  0  2  0  0  3  0  0  0  0  0  0
  184.8090  177.5230  146.2870 C   0  0  0  0  0  2  0  0  0  0  0  0
  187.8280  177.3530  145.2790 C   0  0  2  0  0  3  0  0  0  0  0  0
  186.8580  178.8310  147.1520 C   0  0  1  0  0  3  0  0  0  0  0  0
  185.4520  178.8950  146.5300 C   0  0  0  0  0  2  0  0  0  0  0  0
  187.2710  177.7220  140.8050 C   0  0  0  0  0  1  0  0  0  0  0  0
  188.5440  176.0250  145.0490 C   0  0  0  0  0  2  0  0  0  0  0  0
  188.9790  175.4440  141.8800 C   0  0  0  0  0  1  0  0  0  0  0  0
  186.7430  178.9180  148.6590 C   0  0  0  0  0  1  0  0  0  0  0  0
  187.5610  177.8950  142.2880 C   0  0  1  0  0  3  0  0  0  0  0  0
  187.6570  177.5750  146.7900 C   0  0  0  0  0  2  0  0  0  0  0  0
  186.6970  176.9710  143.1520 C   0  0  0  0  0  2  0  0  0  0  0  0
  189.8010  176.2590  144.2160 C   0  0  1  0  0  3  0  0  0  0  0  0
  186.5630  177.4770  144.5160 N   0  0  1  0  0  0  0  0  0  0  0  0
  185.4800  176.7230  145.1550 C   0  0  0  0  0  2  0  0  0  0  0  0
  190.4340  171.4830  143.5050 C   0  0  0  0  0  2  0  0  0  0  0  0
  190.6340  170.4460  141.4030 C   0  0  0  0  0  2  0  0  0  0  0  0
  191.4760  171.6360  141.4240 C   0  0  2  0  0  3  0  0  0  0  0  0
  190.1630  171.6610  142.0890 N   0  0  0  0  0  0  0  0  0  0  0  0
  191.3840  172.3560  140.0870 C   0  0  0  0  0  2  0  0  0  0  0  0
  192.8980  173.9790  141.1360 C   0  0  0  0  0  3  0  0  0  0  0  0
  192.3680  173.4820  140.0040 C   0  0  0  0  0  0  0  0  0  0  0  0
  193.9300  175.0680  141.1680 C   0  0  1  0  0  3  0  0  0  0  0  0
  193.3440  176.2690  141.8850 C   0  0  0  0  0  1  0  0  0  0  0  0
  197.2040  175.5430  142.9490 C   0  0  0  0  0  1  0  0  0  0  0  0
  195.1690  174.6030  141.9210 C   0  0  2  0  0  3  0  0  0  0  0  0
  196.2530  175.6520  141.7780 C   0  0  2  0  0  3  0  0  0  0  0  0
  196.3250  174.3790  140.9640 C   0  0  0  0  0  2  0  0  0  0  0  0
  192.7710  173.9710  138.6410 C   0  0  0  0  0  2  0  0  0  0  0  0
  193.9650  173.1910  138.1250 C   0  0  0  0  0  1  0  0  0  0  0  0
  1 12  1  0  0  0  0
  1  7  1  0  0  0  0
  2  6  1  0  0  0  0
  2  8  1  0  0  0  0
  3 13  2  0  0  0  0
  4  1  2  0  0  0  0
  5  8  1  0  0  0  0
  7  6  2  0  0  0  0
  9 10  2  0  0  0  0
  9  4  1  0  0  0  0
 10  3  1  0  0  0  0
 11  5  1  0  0  0  0
 12  2  2  0  0  0  0
 13 12  1  0  0  0  0
 13 11  1  0  0  0  0
 14 15  1  0  0  0  0
 15 22  1  1  0  0  0
 15 27  1  0  0  0  0
 16 19  1  0  0  0  0
 17 21  1  1  0  0  0
 17 25  1  0  0  0  0
 18 23  1  1  0  0  0
 19 18  1  0  0  0  0
 24 20  1  6  0  0  0
 24 14  1  0  0  0  0
 24 26  1  0  0  0  0
 25 18  1  0  0  0  0
 27  4  1  6  0  0  0
 27 21  1  0  0  0  0
 28 26  1  6  0  0  0
 28 29  1  0  0  0  0
 28 17  1  0  0  0  0
 29 16  1  0  0  0  0
 30 10  1  0  0  0  0
 31 32  1  0  0  0  0
 31 33  1  0  0  0  0
 32 34  1  6  0  0  0
 32 33  1  0  0  0  0
 33 30  1  0  0  0  0
 35 37  1  0  0  0  0
 36 34  1  0  0  0  0
 36 35  2  0  0  0  0
 37 38  1  1  0  0  0
 40 37  1  6  0  0  0
 41 40  1  0  0  0  0
 41 39  1  1  0  0  0
 42 41  1  0  0  0  0
 42 40  1  0  0  0  0
 43 36  1  0  0  0  0
 44 43  1  0  0  0  0
M  END
>  <MODEL>
1

>  <REMARK>
 VINA RESULT:      -7.3      0.000      0.000
  Name = 
  8 active torsions:
  status: ('A' for Active; 'I' for Inactive)
    1  A    between atoms: C_7  and  C_38
    2  A    between atoms: C_13  and  C_18
    3  A    between atoms: C_17  and  C_25
    4  A    between atoms: C_17  and  N_37
    5  A    between atoms: C_18  and  C_19
    6  A    between atoms: C_22  and  C_44
    7  A    between atoms: C_26  and  C_35
    8  A    between atoms: C_26  and  C_44
                            x       y       z     vdW  Elec       q    Type
                         _______ _______ _______ _____ _____    ______ ____

>  <TORSDO>
F 8

$$$$
=
 OpenBabel11062422413D

 44 50  0  0  1  0  0  0  0  0999 V2000
  193.6910  174.5220  139.2610 C   0  0  0  0  0  0  0  0  0  0  0  0
  193.8490  174.9170  137.0860 C   0  0  0  0  0  0  0  0  0  0  0  0
  190.7820  173.6060  138.5990 N   0  0  0  0  0  0  0  0  0  0  0  0
  193.2240  174.1880  140.5240 C   0  0  0  0  0  0  0  0  0  0  0  0
  192.0800  175.0020  135.3590 C   0  0  0  0  0  2  0  0  0  0  0  0
  195.0560  175.1980  137.6870 C   0  0  0  0  0  3  0  0  0  0  0  0
  194.9510  174.9550  139.0150 N   0  0  0  0  0  0  0  0  0  0  0  0
  193.5010  175.0550  135.7100 N   0  0  0  0  0  2  0  0  0  0  0  0
  191.9260  173.7370  140.7820 C   0  0  0  0  0  3  0  0  0  0  0  0
  190.8320  173.4830  139.9520 C   0  0  0  0  0  0  0  0  0  0  0  0
  191.3210  173.9710  136.2250 C   0  0  0  0  0  2  0  0  0  0  0  0
  192.9610  174.4790  138.0210 C   0  0  0  0  0  0  0  0  0  0  0  0
  191.6840  174.0520  137.6930 C   0  0  0  0  0  0  0  0  0  0  0  0
  195.1890  176.0030  143.1860 O   0  0  0  0  0  0  0  0  0  0  0  0
  194.0320  175.6720  142.4230 C   0  0  2  0  0  3  0  0  0  0  0  0
  195.8290  171.1820  145.9480 C   0  0  0  0  0  2  0  0  0  0  0  0
  195.4670  173.0270  143.3740 C   0  0  2  0  0  3  0  0  0  0  0  0
  197.4070  171.4230  143.9210 C   0  0  1  0  0  3  0  0  0  0  0  0
  197.2320  171.5470  145.4450 C   0  0  0  0  0  2  0  0  0  0  0  0
  194.4500  176.9970  145.2880 C   0  0  0  0  0  1  0  0  0  0  0  0
  194.1570  173.1020  142.5940 C   0  0  0  0  0  2  0  0  0  0  0  0
  192.6630  175.9510  143.0560 C   0  0  0  0  0  1  0  0  0  0  0  0
  197.9410  170.0450  143.5900 C   0  0  0  0  0  1  0  0  0  0  0  0
  195.0720  175.7960  144.5920 C   0  0  1  0  0  3  0  0  0  0  0  0
  196.1290  171.6640  143.1120 C   0  0  0  0  0  2  0  0  0  0  0  0
  194.4220  174.4800  145.0310 C   0  0  0  0  0  2  0  0  0  0  0  0
  194.1720  174.3270  141.6860 C   0  0  1  0  0  3  0  0  0  0  0  0
  195.3110  173.3420  144.8140 N   0  0  1  0  0  0  0  0  0  0  0  0
  194.7490  172.2040  145.5490 C   0  0  0  0  0  2  0  0  0  0  0  0
  189.6130  172.9720  140.6400 C   0  0  0  0  0  2  0  0  0  0  0  0
  188.6270  172.3310  142.6770 C   0  0  0  0  0  2  0  0  0  0  0  0
  189.0930  173.7090  142.7900 C   0  0  2  0  0  3  0  0  0  0  0  0
  189.8960  172.7270  142.0430 N   0  0  0  0  0  0  0  0  0  0  0  0
  189.7090  173.9320  144.1630 C   0  0  0  0  0  2  0  0  0  0  0  0
  188.2450  175.9030  144.1730 C   0  0  0  0  0  3  0  0  0  0  0  0
  189.2320  175.2150  144.7730 C   0  0  0  0  0  0  0  0  0  0  0  0
  187.6540  177.1680  144.7230 C   0  0  1  0  0  3  0  0  0  0  0  0
  187.2990  178.0800  143.5630 C   0  0  0  0  0  1  0  0  0  0  0  0
  184.3600  178.0080  146.3230 C   0  0  0  0  0  1  0  0  0  0  0  0
  186.3890  176.8630  145.5130 C   0  0  2  0  0  3  0  0  0  0  0  0
  185.8470  178.1560  146.0900 C   0  0  2  0  0  3  0  0  0  0  0  0
  186.5850  177.1830  146.9830 C   0  0  0  0  0  2  0  0  0  0  0  0
  189.8410  175.6470  146.0770 C   0  0  0  0  0  2  0  0  0  0  0  0
  189.3840  174.7440  147.2070 C   0  0  0  0  0  1  0  0  0  0  0  0
  1  4  1  0  0  0  0
  2  6  2  0  0  0  0
  2 12  1  0  0  0  0
  3 10  2  0  0  0  0
  4  9  2  0  0  0  0
  5  8  1  0  0  0  0
  5 11  1  0  0  0  0
  6  7  1  0  0  0  0
  7  1  2  0  0  0  0
  8  2  1  0  0  0  0
 10 30  1  0  0  0  0
 10  9  1  0  0  0  0
 11 13  1  0  0  0  0
 12  1  1  0  0  0  0
 13 12  2  0  0  0  0
 13  3  1  0  0  0  0
 14 24  1  0  0  0  0
 15 22  1  1  0  0  0
 15 14  1  0  0  0  0
 17 21  1  6  0  0  0
 17 28  1  0  0  0  0
 18 23  1  1  0  0  0
 18 19  1  0  0  0  0
 19 16  1  0  0  0  0
 24 26  1  0  0  0  0
 24 20  1  6  0  0  0
 25 17  1  0  0  0  0
 25 18  1  0  0  0  0
 27  4  1  6  0  0  0
 27 15  1  0  0  0  0
 27 21  1  0  0  0  0
 28 26  1  6  0  0  0
 28 29  1  0  0  0  0
 29 16  1  0  0  0  0
 30 33  1  0  0  0  0
 31 32  1  0  0  0  0
 32 34  1  1  0  0  0
 33 31  1  0  0  0  0
 33 32  1  0  0  0  0
 34 36  1  0  0  0  0
 35 37  1  0  0  0  0
 35 36  2  0  0  0  0
 36 43  1  0  0  0  0
 37 38  1  6  0  0  0
 40 37  1  6  0  0  0
 40 41  1  0  0  0  0
 40 42  1  0  0  0  0
 41 39  1  1  0  0  0
 41 42  1  0  0  0  0
 43 44  1  0  0  0  0
M  END
>  <MODEL>
2

>  <REMARK>
 VINA RESULT:      -7.0      2.649      8.585
  Name = 
  8 active torsions:
  status: ('A' for Active; 'I' for Inactive)
    1  A    between atoms: C_7  and  C_38
    2  A    between atoms: C_13  and  C_18
    3  A    between atoms: C_17  and  C_25
    4  A    between atoms: C_17  and  N_37
    5  A    between atoms: C_18  and  C_19
    6  A    between atoms: C_22  and  C_44
    7  A    between atoms: C_26  and  C_35
    8  A    between atoms: C_26  and  C_44
                            x       y       z     vdW  Elec       q    Type
                         _______ _______ _______ _____ _____    ______ ____

>  <TORSDO>
F 8

$$$$
=
 OpenBabel11062422413D

 44 50  0  0  1  0  0  0  0  0999 V2000
  193.6300  170.3680  143.7370 C   0  0  0  0  0  0  0  0  0  0  0  0
  194.4740  169.1420  145.3790 C   0  0  0  0  0  0  0  0  0  0  0  0
  196.3210  171.9370  143.9020 N   0  0  0  0  0  0  0  0  0  0  0  0
  193.4340  171.3350  142.7610 C   0  0  0  0  0  0  0  0  0  0  0  0
  196.4570  169.5480  146.8000 C   0  0  0  0  0  2  0  0  0  0  0  0
  193.2380  168.6440  145.0300 C   0  0  0  0  0  3  0  0  0  0  0  0
  192.7290  169.3980  144.0270 N   0  0  0  0  0  0  0  0  0  0  0  0
  195.3510  168.6740  146.4010 N   0  0  0  0  0  2  0  0  0  0  0  0
  194.3620  172.3350  142.4550 C   0  0  0  0  0  3  0  0  0  0  0  0
  195.6350  172.6250  142.9510 C   0  0  0  0  0  0  0  0  0  0  0  0
  197.0510  170.2980  145.5870 C   0  0  0  0  0  2  0  0  0  0  0  0
  194.7750  170.2140  144.5950 C   0  0  0  0  0  0  0  0  0  0  0  0
  195.9910  170.8740  144.6710 C   0  0  0  0  0  0  0  0  0  0  0  0
  189.7220  171.7560  142.2210 O   0  0  0  0  0  0  0  0  0  0  0  0
  191.0240  172.1390  142.6540 C   0  0  2  0  0  3  0  0  0  0  0  0
  190.5750  171.8420  136.6940 C   0  0  0  0  0  2  0  0  0  0  0  0
  191.1760  171.0090  139.7110 C   0  0  2  0  0  3  0  0  0  0  0  0
  190.6580  169.4720  137.7110 C   0  0  1  0  0  3  0  0  0  0  0  0
  189.8260  170.5310  136.9660 C   0  0  0  0  0  2  0  0  0  0  0  0
  188.3900  173.7820  141.9490 C   0  0  0  0  0  1  0  0  0  0  0  0
  192.3430  171.5890  140.5070 C   0  0  0  0  0  2  0  0  0  0  0  0
  191.3070  173.6400  142.8070 C   0  0  0  0  0  1  0  0  0  0  0  0
  191.3300  168.5640  136.7020 C   0  0  0  0  0  1  0  0  0  0  0  0
  189.1140  172.6290  141.2710 C   0  0  1  0  0  3  0  0  0  0  0  0
  191.7260  170.0460  138.6470 C   0  0  0  0  0  2  0  0  0  0  0  0
  190.0090  173.1100  140.1250 C   0  0  0  0  0  2  0  0  0  0  0  0
  192.1390  171.3070  141.9920 C   0  0  1  0  0  3  0  0  0  0  0  0
  190.2700  172.0440  139.1600 N   0  0  1  0  0  0  0  0  0  0  0  0
  190.8420  172.6700  137.9640 C   0  0  0  0  0  2  0  0  0  0  0  0
  196.3170  173.7870  142.3170 C   0  0  0  0  0  2  0  0  0  0  0  0
  196.3180  176.1390  142.3820 C   0  0  0  0  0  2  0  0  0  0  0  0
  195.7270  175.6330  143.6150 C   0  0  2  0  0  3  0  0  0  0  0  0
  195.4480  174.9510  142.3400 N   0  0  0  0  0  0  0  0  0  0  0  0
  194.5330  176.4930  144.0040 C   0  0  0  0  0  2  0  0  0  0  0  0
  192.5030  176.2990  145.3710 C   0  0  0  0  0  3  0  0  0  0  0  0
  193.7520  175.8690  145.1200 C   0  0  0  0  0  0  0  0  0  0  0  0
  191.6120  175.7100  146.4250 C   0  0  1  0  0  3  0  0  0  0  0  0
  191.6920  176.5800  147.6660 C   0  0  0  0  0  1  0  0  0  0  0  0
  187.8830  175.9180  146.8370 C   0  0  0  0  0  1  0  0  0  0  0  0
  190.1690  175.6740  145.9430 C   0  0  2  0  0  3  0  0  0  0  0  0
  189.2650  175.3710  147.1200 C   0  0  2  0  0  3  0  0  0  0  0  0
  189.5810  174.2860  146.1140 C   0  0  0  0  0  2  0  0  0  0  0  0
  194.3830  174.7340  145.8770 C   0  0  0  0  0  2  0  0  0  0  0  0
  193.5410  173.4770  145.7570 C   0  0  0  0  0  1  0  0  0  0  0  0
  1  7  1  0  0  0  0
  1 12  1  0  0  0  0
  2  8  1  0  0  0  0
  3 13  2  0  0  0  0
  4  1  2  0  0  0  0
  6  2  1  0  0  0  0
  7  6  2  0  0  0  0
  8  5  1  0  0  0  0
  9  4  1  0  0  0  0
  9 10  2  0  0  0  0
 10  3  1  0  0  0  0
 11  5  1  0  0  0  0
 12 13  1  0  0  0  0
 12  2  2  0  0  0  0
 13 11  1  0  0  0  0
 14 15  1  0  0  0  0
 15 22  1  6  0  0  0
 16 19  1  0  0  0  0
 16 29  1  0  0  0  0
 17 25  1  6  0  0  0
 17 21  1  0  0  0  0
 18 23  1  6  0  0  0
 18 25  1  0  0  0  0
 19 18  1  0  0  0  0
 21 27  1  0  0  0  0
 24 20  1  1  0  0  0
 24 14  1  0  0  0  0
 26 24  1  0  0  0  0
 27 15  1  0  0  0  0
 27  4  1  1  0  0  0
 28 29  1  6  0  0  0
 28 17  1  0  0  0  0
 28 26  1  0  0  0  0
 30 33  1  0  0  0  0
 30 10  1  0  0  0  0
 31 32  1  0  0  0  0
 32 34  1  6  0  0  0
 33 31  1  0  0  0  0
 33 32  1  0  0  0  0
 34 36  1  0  0  0  0
 35 37  1  0  0  0  0
 36 35  2  0  0  0  0
 36 43  1  0  0  0  0
 37 38  1  1  0  0  0
 40 42  1  0  0  0  0
 40 37  1  1  0  0  0
 40 41  1  0  0  0  0
 41 39  1  6  0  0  0
 42 41  1  0  0  0  0
 44 43  1  0  0  0  0
M  END
>  <MODEL>
3

>  <REMARK>
 VINA RESULT:      -6.9      2.912      7.652
  Name = 
  8 active torsions:
  status: ('A' for Active; 'I' for Inactive)
    1  A    between atoms: C_7  and  C_38
    2  A    between atoms: C_13  and  C_18
    3  A    between atoms: C_17  and  C_25
    4  A    between atoms: C_17  and  N_37
    5  A    between atoms: C_18  and  C_19
    6  A    between atoms: C_22  and  C_44
    7  A    between atoms: C_26  and  C_35
    8  A    between atoms: C_26  and  C_44
                            x       y       z     vdW  Elec       q    Type
                         _______ _______ _______ _____ _____    ______ ____

>  <TORSDO>
F 8

$$$$
=
 OpenBabel11062422413D

 44 50  0  0  1  0  0  0  0  0999 V2000
  190.7000  175.8770  144.6930 C   0  0  0  0  0  0  0  0  0  0  0  0
  189.6880  176.9120  146.3720 C   0  0  0  0  0  0  0  0  0  0  0  0
  187.8770  175.8690  143.3650 N   0  0  0  0  0  0  0  0  0  0  0  0
  190.9680  175.2150  143.5040 C   0  0  0  0  0  0  0  0  0  0  0  0
  187.2750  177.2110  146.8240 C   0  0  0  0  0  2  0  0  0  0  0  0
  191.0320  176.7970  146.6530 C   0  0  0  0  0  3  0  0  0  0  0  0
  191.6430  176.1640  145.6240 N   0  0  0  0  0  0  0  0  0  0  0  0
  188.6680  177.4860  147.1850 N   0  0  0  0  0  2  0  0  0  0  0  0
  190.0000  174.9190  142.5400 C   0  0  0  0  0  3  0  0  0  0  0  0
  188.6320  175.1890  142.4620 C   0  0  0  0  0  0  0  0  0  0  0  0
  187.0840  177.1810  145.2920 C   0  0  0  0  0  2  0  0  0  0  0  0
  189.4250  176.3630  145.1540 C   0  0  0  0  0  0  0  0  0  0  0  0
  188.1660  176.4000  144.5760 C   0  0  0  0  0  0  0  0  0  0  0  0
  194.2170  174.9810  141.5970 O   0  0  0  0  0  0  0  0  0  0  0  0
  193.0930  175.6400  142.1750 C   0  0  2  0  0  3  0  0  0  0  0  0
  196.8120  173.3890  146.2890 C   0  0  0  0  0  2  0  0  0  0  0  0
  194.3530  173.6510  144.2780 C   0  0  2  0  0  3  0  0  0  0  0  0
  195.4510  171.5010  145.1750 C   0  0  1  0  0  3  0  0  0  0  0  0
  196.8290  172.1530  145.3790 C   0  0  0  0  0  2  0  0  0  0  0  0
  195.9870  176.6320  141.2940 C   0  0  0  0  0  1  0  0  0  0  0  0
  193.1800  174.5940  144.5310 C   0  0  0  0  0  2  0  0  0  0  0  0
  193.2380  177.1320  142.5010 C   0  0  0  0  0  1  0  0  0  0  0  0
  195.2580  170.4070  146.2040 C   0  0  0  0  0  1  0  0  0  0  0  0
  195.4890  175.4210  142.0670 C   0  0  1  0  0  3  0  0  0  0  0  0
  194.2690  172.4720  145.2600 C   0  0  0  0  0  2  0  0  0  0  0  0
  195.6230  175.6140  143.5810 C   0  0  0  0  0  2  0  0  0  0  0  0
  192.3870  174.7820  143.2420 C   0  0  1  0  0  3  0  0  0  0  0  0
  195.6680  174.3350  144.2850 N   0  0  1  0  0  0  0  0  0  0  0  0
  196.1180  174.6080  145.6540 C   0  0  0  0  0  2  0  0  0  0  0  0
  187.9570  174.7170  141.2210 C   0  0  0  0  0  2  0  0  0  0  0  0
  188.2670  174.1610  138.9560 C   0  0  0  0  0  2  0  0  0  0  0  0
  188.4390  172.9600  139.7650 C   0  0  2  0  0  3  0  0  0  0  0  0
  188.9430  174.2520  140.2620 N   0  0  0  0  0  0  0  0  0  0  0  0
  189.5980  172.1360  139.2220 C   0  0  0  0  0  2  0  0  0  0  0  0
  190.4000  171.5240  141.4610 C   0  0  0  0  0  3  0  0  0  0  0  0
  190.6910  171.9980  140.2370 C   0  0  0  0  0  0  0  0  0  0  0  0
  191.4230  171.2950  142.5340 C   0  0  1  0  0  3  0  0  0  0  0  0
  190.7780  171.5590  143.8810 C   0  0  0  0  0  1  0  0  0  0  0  0
  192.8960  168.1690  144.0090 C   0  0  0  0  0  1  0  0  0  0  0  0
  191.9160  169.8550  142.5000 C   0  0  2  0  0  3  0  0  0  0  0  0
  192.8790  169.6380  143.6490 C   0  0  2  0  0  3  0  0  0  0  0  0
  193.4100  169.8060  142.2420 C   0  0  0  0  0  2  0  0  0  0  0  0
  192.0930  172.3420  139.8160 C   0  0  0  0  0  2  0  0  0  0  0  0
  192.1200  173.6710  139.0840 C   0  0  0  0  0  1  0  0  0  0  0  0
  1 12  1  0  0  0  0
  1  7  1  0  0  0  0
  2  6  1  0  0  0  0
  2  8  1  0  0  0  0
  3 13  2  0  0  0  0
  4  1  2  0  0  0  0
  5  8  1  0  0  0  0
  7  6  2  0  0  0  0
  9  4  1  0  0  0  0
 10  9  2  0  0  0  0
 10  3  1  0  0  0  0
 11  5  1  0  0  0  0
 12  2  2  0  0  0  0
 13 12  1  0  0  0  0
 13 11  1  0  0  0  0
 14 24  1  0  0  0  0
 14 15  1  0  0  0  0
 15 22  1  1  0  0  0
 15 27  1  0  0  0  0
 17 28  1  0  0  0  0
 17 21  1  1  0  0  0
 17 25  1  0  0  0  0
 18 25  1  0  0  0  0
 18 19  1  0  0  0  0
 18 23  1  1  0  0  0
 19 16  1  0  0  0  0
 24 20  1  6  0  0  0
 24 26  1  0  0  0  0
 27  4  1  1  0  0  0
 27 21  1  0  0  0  0
 28 26  1  6  0  0  0
 28 29  1  0  0  0  0
 29 16  1  0  0  0  0
 30 10  1  0  0  0  0
 31 32  1  0  0  0  0
 31 33  1  0  0  0  0
 32 34  1  6  0  0  0
 32 33  1  0  0  0  0
 33 30  1  0  0  0  0
 34 36  1  0  0  0  0
 35 37  1  0  0  0  0
 36 35  2  0  0  0  0
 37 38  1  1  0  0  0
 40 37  1  1  0  0  0
 40 41  1  0  0  0  0
 41 39  1  6  0  0  0
 42 40  1  0  0  0  0
 42 41  1  0  0  0  0
 43 36  1  0  0  0  0
 44 43  1  0  0  0  0
M  END
>  <MODEL>
4

>  <REMARK>
 VINA RESULT:      -6.8      2.027      6.738
  Name = 
  8 active torsions:
  status: ('A' for Active; 'I' for Inactive)
    1  A    between atoms: C_7  and  C_38
    2  A    between atoms: C_13  and  C_18
    3  A    between atoms: C_17  and  C_25
    4  A    between atoms: C_17  and  N_37
    5  A    between atoms: C_18  and  C_19
    6  A    between atoms: C_22  and  C_44
    7  A    between atoms: C_26  and  C_35
    8  A    between atoms: C_26  and  C_44
                            x       y       z     vdW  Elec       q    Type
                         _______ _______ _______ _____ _____    ______ ____

>  <TORSDO>
F 8

$$$$
=
 OpenBabel11062422413D

 44 50  0  0  1  0  0  0  0  0999 V2000
  193.0880  170.2790  144.0490 C   0  0  0  0  0  0  0  0  0  0  0  0
  194.5240  168.7760  144.8200 C   0  0  0  0  0  0  0  0  0  0  0  0
  194.6870  172.2990  145.8090 N   0  0  0  0  0  0  0  0  0  0  0  0
  192.3850  171.4510  143.8120 C   0  0  0  0  0  0  0  0  0  0  0  0
  196.1500  168.9470  146.6760 C   0  0  0  0  0  2  0  0  0  0  0  0
  193.6640  168.1680  143.9320 C   0  0  0  0  0  3  0  0  0  0  0  0
  192.7900  169.0920  143.4660 N   0  0  0  0  0  0  0  0  0  0  0  0
  195.5820  168.1790  145.5650 N   0  0  0  0  0  2  0  0  0  0  0  0
  192.6910  172.6780  144.4080 C   0  0  0  0  0  3  0  0  0  0  0  0
  193.6930  173.0730  145.2970 C   0  0  0  0  0  0  0  0  0  0  0  0
  196.2270  170.4530  146.3410 C   0  0  0  0  0  2  0  0  0  0  0  0
  194.2170  170.1000  144.9240 C   0  0  0  0  0  0  0  0  0  0  0  0
  194.9630  170.9790  145.6920 C   0  0  0  0  0  0  0  0  0  0  0  0
  188.7930  171.8270  142.7170 O   0  0  0  0  0  0  0  0  0  0  0  0
  190.0140  172.2310  143.3290 C   0  0  2  0  0  3  0  0  0  0  0  0
  190.4560  171.7870  137.3770 C   0  0  0  0  0  2  0  0  0  0  0  0
  190.6070  171.0320  140.4700 C   0  0  2  0  0  3  0  0  0  0  0  0
  190.4000  169.4430  138.4540 C   0  0  1  0  0  3  0  0  0  0  0  0
  189.6820  170.4760  137.5680 C   0  0  0  0  0  2  0  0  0  0  0  0
  187.5050  173.8330  142.2000 C   0  0  0  0  0  1  0  0  0  0  0  0
  191.6400  171.6410  141.4160 C   0  0  0  0  0  2  0  0  0  0  0  0
  190.2630  173.7380  143.4840 C   0  0  0  0  0  1  0  0  0  0  0  0
  191.2190  168.5180  137.5790 C   0  0  0  0  0  1  0  0  0  0  0  0
  188.3280  172.6710  141.6660 C   0  0  1  0  0  3  0  0  0  0  0  0
  191.3140  170.0490  139.5240 C   0  0  0  0  0  2  0  0  0  0  0  0
  189.3800  173.1330  140.6530 C   0  0  0  0  0  2  0  0  0  0  0  0
  191.2190  171.3940  142.8610 C   0  0  1  0  0  3  0  0  0  0  0  0
  189.7870  172.0460  139.7650 N   0  0  1  0  0  0  0  0  0  0  0  0
  190.5270  172.6480  138.6520 C   0  0  0  0  0  2  0  0  0  0  0  0
  193.6840  174.5150  145.6710 C   0  0  0  0  0  2  0  0  0  0  0  0
  194.1780  176.5350  144.5710 C   0  0  0  0  0  2  0  0  0  0  0  0
  192.8070  176.5890  145.0660 C   0  0  2  0  0  3  0  0  0  0  0  0
  193.3350  175.3270  144.5190 N   0  0  0  0  0  0  0  0  0  0  0  0
  191.9130  177.2570  144.0310 C   0  0  0  0  0  2  0  0  0  0  0  0
  190.0150  176.6810  145.4780 C   0  0  0  0  0  3  0  0  0  0  0  0
  190.4760  176.8860  144.2310 C   0  0  0  0  0  0  0  0  0  0  0  0
  188.5850  176.3600  145.7970 C   0  0  1  0  0  3  0  0  0  0  0  0
  188.5590  175.3100  146.8930 C   0  0  0  0  0  1  0  0  0  0  0  0
  185.9230  178.2140  147.6930 C   0  0  0  0  0  1  0  0  0  0  0  0
  187.8580  177.6030  146.2910 C   0  0  2  0  0  3  0  0  0  0  0  0
  186.4410  177.2240  146.6730 C   0  0  2  0  0  3  0  0  0  0  0  0
  186.7020  177.9480  145.3710 C   0  0  0  0  0  2  0  0  0  0  0  0
  189.5880  176.8200  143.0200 C   0  0  0  0  0  2  0  0  0  0  0  0
  189.4010  178.2000  142.4170 C   0  0  0  0  0  1  0  0  0  0  0  0
  1 12  1  0  0  0  0
  2 12  1  0  0  0  0
  2  8  1  0  0  0  0
  4  1  1  0  0  0  0
  4  9  2  0  0  0  0
  6  2  2  0  0  0  0
  7  6  1  0  0  0  0
  7  1  2  0  0  0  0
  8  5  1  0  0  0  0
  9 10  1  0  0  0  0
 10 30  1  0  0  0  0
 10  3  2  0  0  0  0
 11  5  1  0  0  0  0
 12 13  2  0  0  0  0
 13  3  1  0  0  0  0
 13 11  1  0  0  0  0
 14 15  1  0  0  0  0
 15 22  1  6  0  0  0
 16 19  1  0  0  0  0
 16 29  1  0  0  0  0
 17 25  1  6  0  0  0
 17 21  1  0  0  0  0
 18 23  1  6  0  0  0
 18 25  1  0  0  0  0
 19 18  1  0  0  0  0
 21 27  1  0  0  0  0
 24 20  1  1  0  0  0
 24 14  1  0  0  0  0
 26 24  1  0  0  0  0
 27 15  1  0  0  0  0
 27  4  1  1  0  0  0
 28 29  1  6  0  0  0
 28 17  1  0  0  0  0
 28 26  1  0  0  0  0
 31 32  1  0  0  0  0
 32 34  1  6  0  0  0
 33 31  1  0  0  0  0
 33 32  1  0  0  0  0
 33 30  1  0  0  0  0
 34 36  1  0  0  0  0
 35 37  1  0  0  0  0
 36 35  2  0  0  0  0
 37 38  1  1  0  0  0
 40 37  1  6  0  0  0
 40 41  1  0  0  0  0
 41 39  1  1  0  0  0
 42 40  1  0  0  0  0
 42 41  1  0  0  0  0
 43 36  1  0  0  0  0
 44 43  1  0  0  0  0
M  END
>  <MODEL>
5

>  <REMARK>
 VINA RESULT:      -6.7      2.527      7.682
  Name = 
  8 active torsions:
  status: ('A' for Active; 'I' for Inactive)
    1  A    between atoms: C_7  and  C_38
    2  A    between atoms: C_13  and  C_18
    3  A    between atoms: C_17  and  C_25
    4  A    between atoms: C_17  and  N_37
    5  A    between atoms: C_18  and  C_19
    6  A    between atoms: C_22  and  C_44
    7  A    between atoms: C_26  and  C_35
    8  A    between atoms: C_26  and  C_44
                            x       y       z     vdW  Elec       q    Type
                         _______ _______ _______ _____ _____    ______ ____

>  <TORSDO>
F 8

$$$$
=
 OpenBabel11062422413D

 44 50  0  0  1  0  0  0  0  0999 V2000
  194.4140  172.6010  144.7070 C   0  0  0  0  0  0  0  0  0  0  0  0
  195.4130  170.6290  144.8640 C   0  0  0  0  0  0  0  0  0  0  0  0
  197.1710  173.6000  143.6420 N   0  0  0  0  0  0  0  0  0  0  0  0
  194.1470  173.9470  144.5020 C   0  0  0  0  0  0  0  0  0  0  0  0
  197.8130  170.0530  144.7060 C   0  0  0  0  0  2  0  0  0  0  0  0
  194.0950  170.5010  145.2440 C   0  0  0  0  0  3  0  0  0  0  0  0
  193.4920  171.7100  145.1460 N   0  0  0  0  0  0  0  0  0  0  0  0
  196.4200  169.6210  144.8380 N   0  0  0  0  0  2  0  0  0  0  0  0
  195.0930  174.8700  144.0460 C   0  0  0  0  0  3  0  0  0  0  0  0
  196.4320  174.7420  143.6710 C   0  0  0  0  0  0  0  0  0  0  0  0
  197.9410  171.2650  143.7570 C   0  0  0  0  0  2  0  0  0  0  0  0
  195.6650  171.9190  144.5070 C   0  0  0  0  0  0  0  0  0  0  0  0
  196.8930  172.3280  144.0100 C   0  0  0  0  0  0  0  0  0  0  0  0
  191.2130  174.9430  146.6580 O   0  0  0  0  0  0  0  0  0  0  0  0
  192.5780  174.9220  146.2490 C   0  0  2  0  0  3  0  0  0  0  0  0
  189.0470  177.7640  142.3420 C   0  0  0  0  0  2  0  0  0  0  0  0
  190.7300  175.4500  143.7460 C   0  0  2  0  0  3  0  0  0  0  0  0
  188.6970  175.2120  142.1820 C   0  0  1  0  0  3  0  0  0  0  0  0
  188.0990  176.5780  142.5640 C   0  0  0  0  0  2  0  0  0  0  0  0
  190.8610  176.9400  148.0140 C   0  0  0  0  0  1  0  0  0  0  0  0
  192.2560  175.4240  143.7400 C   0  0  0  0  0  2  0  0  0  0  0  0
  193.4650  176.0970  146.6820 C   0  0  0  0  0  1  0  0  0  0  0  0
  188.3290  174.8890  140.7490 C   0  0  0  0  0  1  0  0  0  0  0  0
  190.6070  176.2330  146.6920 C   0  0  1  0  0  3  0  0  0  0  0  0
  190.2180  175.1190  142.3350 C   0  0  0  0  0  2  0  0  0  0  0  0
  190.8870  177.1440  145.4930 C   0  0  0  0  0  2  0  0  0  0  0  0
  192.7550  174.4430  144.7960 C   0  0  1  0  0  3  0  0  0  0  0  0
  190.1660  176.7030  144.3010 N   0  0  1  0  0  0  0  0  0  0  0  0
  190.2320  177.7950  143.3240 C   0  0  0  0  0  2  0  0  0  0  0  0
  197.0880  175.9950  143.2050 C   0  0  0  0  0  2  0  0  0  0  0  0
  196.4270  177.1650  141.2730 C   0  0  0  0  0  2  0  0  0  0  0  0
  195.8090  175.8440  141.2610 C   0  0  2  0  0  3  0  0  0  0  0  0
  197.1870  175.9980  141.7560 N   0  0  0  0  0  0  0  0  0  0  0  0
  195.8350  175.2780  139.8490 C   0  0  0  0  0  2  0  0  0  0  0  0
  194.7250  173.2400  140.6500 C   0  0  0  0  0  3  0  0  0  0  0  0
  194.8390  174.1710  139.6870 C   0  0  0  0  0  0  0  0  0  0  0  0
  193.7260  172.1200  140.6170 C   0  0  1  0  0  3  0  0  0  0  0  0
  194.3330  170.9100  141.3010 C   0  0  0  0  0  1  0  0  0  0  0  0
  190.7950  171.5400  142.8950 C   0  0  0  0  0  1  0  0  0  0  0  0
  192.4580  172.5180  141.3580 C   0  0  2  0  0  3  0  0  0  0  0  0
  191.6710  171.2670  141.6920 C   0  0  2  0  0  3  0  0  0  0  0  0
  191.2270  172.1530  140.5490 C   0  0  0  0  0  2  0  0  0  0  0  0
  193.9580  174.1860  138.4690 C   0  0  0  0  0  2  0  0  0  0  0  0
  194.6640  173.5440  137.2900 C   0  0  0  0  0  1  0  0  0  0  0  0
  1  7  1  0  0  0  0
  2  6  1  0  0  0  0
  3 10  1  0  0  0  0
  3 13  2  0  0  0  0
  4  1  2  0  0  0  0
  5  8  1  0  0  0  0
  7  6  2  0  0  0  0
  8  2  1  0  0  0  0
  9  4  1  0  0  0  0
 10  9  2  0  0  0  0
 11 13  1  0  0  0  0
 11  5  1  0  0  0  0
 12  1  1  0  0  0  0
 12  2  2  0  0  0  0
 13 12  1  0  0  0  0
 14 24  1  0  0  0  0
 15 14  1  0  0  0  0
 15 22  1  6  0  0  0
 16 19  1  0  0  0  0
 16 29  1  0  0  0  0
 17 25  1  6  0  0  0
 17 28  1  0  0  0  0
 18 23  1  6  0  0  0
 18 25  1  0  0  0  0
 18 19  1  0  0  0  0
 21 17  1  0  0  0  0
 21 27  1  0  0  0  0
 24 20  1  1  0  0  0
 26 24  1  0  0  0  0
 27  4  1  6  0  0  0
 27 15  1  0  0  0  0
 28 29  1  6  0  0  0
 28 26  1  0  0  0  0
 30 10  1  0  0  0  0
 31 33  1  0  0  0  0
 32 34  1  6  0  0  0
 32 31  1  0  0  0  0
 32 33  1  0  0  0  0
 33 30  1  0  0  0  0
 36 34  1  0  0  0  0
 36 35  2  0  0  0  0
 37 35  1  0  0  0  0
 37 38  1  1  0  0  0
 40 37  1  6  0  0  0
 40 41  1  0  0  0  0
 41 39  1  1  0  0  0
 42 40  1  0  0  0  0
 42 41  1  0  0  0  0
 43 36  1  0  0  0  0
 44 43  1  0  0  0  0
M  END
>  <MODEL>
6

>  <REMARK>
 VINA RESULT:      -6.6      2.493      5.396
  Name = 
  8 active torsions:
  status: ('A' for Active; 'I' for Inactive)
    1  A    between atoms: C_7  and  C_38
    2  A    between atoms: C_13  and  C_18
    3  A    between atoms: C_17  and  C_25
    4  A    between atoms: C_17  and  N_37
    5  A    between atoms: C_18  and  C_19
    6  A    between atoms: C_22  and  C_44
    7  A    between atoms: C_26  and  C_35
    8  A    between atoms: C_26  and  C_44
                            x       y       z     vdW  Elec       q    Type
                         _______ _______ _______ _____ _____    ______ ____

>  <TORSDO>
F 8

$$$$
=
 OpenBabel11062422413D

 44 50  0  0  1  0  0  0  0  0999 V2000
  191.8480  172.3380  140.4090 C   0  0  0  0  0  0  0  0  0  0  0  0
  192.3050  171.7660  138.3160 C   0  0  0  0  0  0  0  0  0  0  0  0
  192.6330  169.3960  141.0890 N   0  0  0  0  0  0  0  0  0  0  0  0
  191.6400  172.3180  141.7800 C   0  0  0  0  0  0  0  0  0  0  0  0
  192.6810  169.5280  137.3330 C   0  0  0  0  0  2  0  0  0  0  0  0
  191.9500  173.0960  138.3560 C   0  0  0  0  0  3  0  0  0  0  0  0
  191.6720  173.4380  139.6370 N   0  0  0  0  0  0  0  0  0  0  0  0
  192.6510  170.9840  137.1760 N   0  0  0  0  0  2  0  0  0  0  0  0
  191.8240  171.1880  142.5810 C   0  0  0  0  0  3  0  0  0  0  0  0
  192.2510  169.8880  142.2970 C   0  0  0  0  0  0  0  0  0  0  0  0
  193.2320  169.1200  138.7170 C   0  0  0  0  0  2  0  0  0  0  0  0
  192.2700  171.2440  139.5740 C   0  0  0  0  0  0  0  0  0  0  0  0
  192.6510  169.9400  139.8500 C   0  0  0  0  0  0  0  0  0  0  0  0
  189.5990  175.4680  142.1780 O   0  0  0  0  0  0  0  0  0  0  0  0
  189.8150  174.0820  141.9260 C   0  0  2  0  0  3  0  0  0  0  0  0
  190.9100  175.5860  147.6140 C   0  0  0  0  0  2  0  0  0  0  0  0
  191.3810  174.9430  144.5280 C   0  0  2  0  0  3  0  0  0  0  0  0
  192.8090  176.4210  146.0790 C   0  0  1  0  0  3  0  0  0  0  0  0
  191.6320  176.7920  146.9990 C   0  0  0  0  0  2  0  0  0  0  0  0
  187.2670  175.7610  142.8340 C   0  0  0  0  0  1  0  0  0  0  0  0
  191.2990  173.5280  143.9610 C   0  0  0  0  0  2  0  0  0  0  0  0
  188.6320  173.1300  142.1450 C   0  0  0  0  0  1  0  0  0  0  0  0
  194.0890  176.4080  146.8880 C   0  0  0  0  0  1  0  0  0  0  0  0
  188.7250  175.7600  143.2670 C   0  0  1  0  0  3  0  0  0  0  0  0
  192.6600  175.0720  145.3690 C   0  0  0  0  0  2  0  0  0  0  0  0
  188.9410  174.9450  144.5460 C   0  0  0  0  0  2  0  0  0  0  0  0
  191.1800  173.5910  142.4420 C   0  0  1  0  0  3  0  0  0  0  0  0
  190.1540  175.3580  145.2490 N   0  0  1  0  0  0  0  0  0  0  0  0
  190.1000  174.7680  146.5910 C   0  0  0  0  0  2  0  0  0  0  0  0
  192.3400  168.9750  143.4700 C   0  0  0  0  0  2  0  0  0  0  0  0
  193.8290  168.3770  145.1910 C   0  0  0  0  0  2  0  0  0  0  0  0
  194.2040  169.6900  144.6770 C   0  0  2  0  0  3  0  0  0  0  0  0
  193.7290  168.6510  143.7470 N   0  0  0  0  0  0  0  0  0  0  0  0
  195.7190  169.7950  144.5920 C   0  0  0  0  0  2  0  0  0  0  0  0
  195.4760  171.5440  142.8860 C   0  0  0  0  0  3  0  0  0  0  0  0
  196.1410  171.0870  143.9610 C   0  0  0  0  0  0  0  0  0  0  0  0
  195.7770  172.8480  142.2080 C   0  0  1  0  0  3  0  0  0  0  0  0
  195.5260  172.6900  140.7200 C   0  0  0  0  0  1  0  0  0  0  0  0
  193.8520  176.0680  142.0060 C   0  0  0  0  0  1  0  0  0  0  0  0
  194.8710  173.9480  142.7450 C   0  0  2  0  0  3  0  0  0  0  0  0
  195.0940  175.2070  141.9320 C   0  0  2  0  0  3  0  0  0  0  0  0
  195.6930  175.0880  143.3150 C   0  0  0  0  0  2  0  0  0  0  0  0
  197.2630  171.8540  144.6030 C   0  0  0  0  0  2  0  0  0  0  0  0
  196.8140  172.4530  145.9230 C   0  0  0  0  0  1  0  0  0  0  0  0
  1  4  1  0  0  0  0
  2  6  2  0  0  0  0
  2 12  1  0  0  0  0
  3 10  2  0  0  0  0
  4  9  2  0  0  0  0
  5 11  1  0  0  0  0
  6  7  1  0  0  0  0
  7  1  2  0  0  0  0
  8  5  1  0  0  0  0
  8  2  1  0  0  0  0
 10  9  1  0  0  0  0
 10 30  1  0  0  0  0
 11 13  1  0  0  0  0
 12 13  2  0  0  0  0
 12  1  1  0  0  0  0
 13  3  1  0  0  0  0
 14 24  1  0  0  0  0
 15 22  1  1  0  0  0
 15 14  1  0  0  0  0
 15 27  1  0  0  0  0
 17 21  1  1  0  0  0
 17 28  1  0  0  0  0
 17 25  1  0  0  0  0
 18 23  1  1  0  0  0
 18 19  1  0  0  0  0
 19 16  1  0  0  0  0
 24 20  1  6  0  0  0
 24 26  1  0  0  0  0
 25 18  1  0  0  0  0
 27  4  1  6  0  0  0
 27 21  1  0  0  0  0
 28 26  1  6  0  0  0
 28 29  1  0  0  0  0
 29 16  1  0  0  0  0
 30 33  1  0  0  0  0
 32 34  1  6  0  0  0
 32 31  1  0  0  0  0
 33 32  1  0  0  0  0
 33 31  1  0  0  0  0
 35 36  2  0  0  0  0
 36 34  1  0  0  0  0
 36 43  1  0  0  0  0
 37 38  1  6  0  0  0
 37 35  1  0  0  0  0
 40 37  1  6  0  0  0
 40 42  1  0  0  0  0
 41 39  1  1  0  0  0
 41 40  1  0  0  0  0
 41 42  1  0  0  0  0
 43 44  1  0  0  0  0
M  END
>  <MODEL>
7

>  <REMARK>
 VINA RESULT:      -6.5      2.557      5.536
  Name = 
  8 active torsions:
  status: ('A' for Active; 'I' for Inactive)
    1  A    between atoms: C_7  and  C_38
    2  A    between atoms: C_13  and  C_18
    3  A    between atoms: C_17  and  C_25
    4  A    between atoms: C_17  and  N_37
    5  A    between atoms: C_18  and  C_19
    6  A    between atoms: C_22  and  C_44
    7  A    between atoms: C_26  and  C_35
    8  A    between atoms: C_26  and  C_44
                            x       y       z     vdW  Elec       q    Type
                         _______ _______ _______ _____ _____    ______ ____

>  <TORSDO>
F 8

$$$$
=
 OpenBabel11062422413D

 44 50  0  0  1  0  0  0  0  0999 V2000
  188.2880  176.3210  142.4060 C   0  0  0  0  0  0  0  0  0  0  0  0
  186.4260  177.4550  142.0040 C   0  0  0  0  0  0  0  0  0  0  0  0
  187.9270  177.3150  145.3410 N   0  0  0  0  0  0  0  0  0  0  0  0
  189.4050  175.7660  143.0130 C   0  0  0  0  0  0  0  0  0  0  0  0
  185.2410  179.1040  143.4150 C   0  0  0  0  0  2  0  0  0  0  0  0
  186.8360  176.8310  140.8460 C   0  0  0  0  0  3  0  0  0  0  0  0
  187.9730  176.1410  141.1000 N   0  0  0  0  0  0  0  0  0  0  0  0
  185.2970  178.3040  142.1890 N   0  0  0  0  0  2  0  0  0  0  0  0
  189.7310  175.9460  144.3600 C   0  0  0  0  0  3  0  0  0  0  0  0
  189.1010  176.6320  145.4010 C   0  0  0  0  0  0  0  0  0  0  0  0
  185.7980  178.3230  144.6260 C   0  0  0  0  0  2  0  0  0  0  0  0
  187.2910  177.1630  143.0150 C   0  0  0  0  0  0  0  0  0  0  0  0
  187.0890  177.5950  144.3160 C   0  0  0  0  0  0  0  0  0  0  0  0
  192.5840  173.9350  142.1260 O   0  0  0  0  0  0  0  0  0  0  0  0
  191.4950  174.3190  142.9600 C   0  0  2  0  0  3  0  0  0  0  0  0
  189.7680  170.9720  138.3100 C   0  0  0  0  0  2  0  0  0  0  0  0
  190.4140  173.5270  140.1030 C   0  0  2  0  0  3  0  0  0  0  0  0
  190.3450  173.3640  137.5330 C   0  0  1  0  0  3  0  0  0  0  0  0
  190.7150  171.8710  137.5030 C   0  0  0  0  0  2  0  0  0  0  0  0
  193.4730  171.8250  142.9670 C   0  0  0  0  0  1  0  0  0  0  0  0
  189.5590  173.9260  141.3020 C   0  0  0  0  0  2  0  0  0  0  0  0
  191.1110  173.3700  144.1040 C   0  0  0  0  0  1  0  0  0  0  0  0
  189.4650  173.6840  136.3440 C   0  0  0  0  0  1  0  0  0  0  0  0
  192.6950  172.5370  141.8720 C   0  0  1  0  0  3  0  0  0  0  0  0
  189.6330  173.8170  138.8120 C   0  0  0  0  0  2  0  0  0  0  0  0
  191.3930  171.8060  141.5290 C   0  0  0  0  0  2  0  0  0  0  0  0
  190.3230  174.9250  142.1650 C   0  0  1  0  0  3  0  0  0  0  0  0
  190.9270  172.1380  140.1850 N   0  0  1  0  0  0  0  0  0  0  0  0
  189.8870  171.1660  139.8320 C   0  0  0  0  0  2  0  0  0  0  0  0
  189.7790  176.5480  146.7250 C   0  0  0  0  0  2  0  0  0  0  0  0
  191.2040  175.3160  148.1350 C   0  0  0  0  0  2  0  0  0  0  0  0
  191.9630  175.7690  146.9740 C   0  0  2  0  0  3  0  0  0  0  0  0
  190.5670  175.3310  146.8060 N   0  0  0  0  0  0  0  0  0  0  0  0
  192.9030  174.6650  146.5120 C   0  0  0  0  0  2  0  0  0  0  0  0
  195.0860  174.4530  145.4100 C   0  0  0  0  0  3  0  0  0  0  0  0
  194.2420  175.2160  146.1270 C   0  0  0  0  0  0  0  0  0  0  0  0
  196.4270  174.9210  144.9250 C   0  0  1  0  0  3  0  0  0  0  0  0
  197.4420  173.8210  145.1750 C   0  0  0  0  0  1  0  0  0  0  0  0
  197.8190  175.0420  141.4370 C   0  0  0  0  0  1  0  0  0  0  0  0
  196.3790  175.2150  143.4320 C   0  0  2  0  0  3  0  0  0  0  0  0
  197.7960  175.3630  142.9150 C   0  0  2  0  0  3  0  0  0  0  0  0
  196.9440  176.5920  143.1390 C   0  0  0  0  0  2  0  0  0  0  0  0
  194.5610  176.6330  146.5110 C   0  0  0  0  0  2  0  0  0  0  0  0
  194.2840  177.5760  145.3540 C   0  0  0  0  0  1  0  0  0  0  0  0
  1  4  1  0  0  0  0
  1 12  1  0  0  0  0
  2  8  1  0  0  0  0
  2 12  1  0  0  0  0
  3 10  2  0  0  0  0
  4  9  2  0  0  0  0
  5 11  1  0  0  0  0
  6  7  1  0  0  0  0
  6  2  2  0  0  0  0
  7  1  2  0  0  0  0
  8  5  1  0  0  0  0
  9 10  1  0  0  0  0
 10 30  1  0  0  0  0
 12 13  2  0  0  0  0
 13 11  1  0  0  0  0
 13  3  1  0  0  0  0
 14 15  1  0  0  0  0
 15 22  1  6  0  0  0
 16 29  1  0  0  0  0
 17 25  1  6  0  0  0
 17 28  1  0  0  0  0
 17 21  1  0  0  0  0
 18 23  1  6  0  0  0
 18 25  1  0  0  0  0
 19 18  1  0  0  0  0
 19 16  1  0  0  0  0
 21 27  1  0  0  0  0
 24 14  1  0  0  0  0
 24 20  1  1  0  0  0
 26 24  1  0  0  0  0
 27 15  1  0  0  0  0
 27  4  1  1  0  0  0
 28 29  1  1  0  0  0
 28 26  1  0  0  0  0
 30 33  1  0  0  0  0
 32 34  1  6  0  0  0
 32 31  1  0  0  0  0
 33 32  1  0  0  0  0
 33 31  1  0  0  0  0
 35 36  2  0  0  0  0
 36 43  1  0  0  0  0
 36 34  1  0  0  0  0
 37 38  1  6  0  0  0
 37 35  1  0  0  0  0
 40 37  1  1  0  0  0
 41 39  1  6  0  0  0
 41 42  1  0  0  0  0
 41 40  1  0  0  0  0
 42 40  1  0  0  0  0
 44 43  1  0  0  0  0
M  END
>  <MODEL>
8

>  <REMARK>
 VINA RESULT:      -6.5      2.209      7.455
  Name = 
  8 active torsions:
  status: ('A' for Active; 'I' for Inactive)
    1  A    between atoms: C_7  and  C_38
    2  A    between atoms: C_13  and  C_18
    3  A    between atoms: C_17  and  C_25
    4  A    between atoms: C_17  and  N_37
    5  A    between atoms: C_18  and  C_19
    6  A    between atoms: C_22  and  C_44
    7  A    between atoms: C_26  and  C_35
    8  A    between atoms: C_26  and  C_44
                            x       y       z     vdW  Elec       q    Type
                         _______ _______ _______ _____ _____    ______ ____

>  <TORSDO>
F 8

$$$$
=
 OpenBabel11062422413D

 44 50  0  0  1  0  0  0  0  0999 V2000
  193.0680  171.5850  139.1930 C   0  0  0  0  0  0  0  0  0  0  0  0
  192.4780  170.6010  137.2970 C   0  0  0  0  0  0  0  0  0  0  0  0
  190.0120  171.5840  139.8200 N   0  0  0  0  0  0  0  0  0  0  0  0
  193.0510  172.2150  140.4290 C   0  0  0  0  0  0  0  0  0  0  0  0
  190.2380  170.3330  136.2830 C   0  0  0  0  0  2  0  0  0  0  0  0
  193.8500  170.7110  137.3430 C   0  0  0  0  0  3  0  0  0  0  0  0
  194.2030  171.3130  138.5030 N   0  0  0  0  0  0  0  0  0  0  0  0
  191.6760  170.0560  136.2520 N   0  0  0  0  0  2  0  0  0  0  0  0
  191.8840  172.4940  141.1460 C   0  0  0  0  0  3  0  0  0  0  0  0
  190.5350  172.2350  140.8930 C   0  0  0  0  0  0  0  0  0  0  0  0
  189.6920  170.3270  137.7280 C   0  0  0  0  0  2  0  0  0  0  0  0
  191.9370  171.1210  138.4340 C   0  0  0  0  0  0  0  0  0  0  0  0
  190.5770  171.0810  138.6980 C   0  0  0  0  0  0  0  0  0  0  0  0
  196.5180  173.7070  140.4660 O   0  0  0  0  0  0  0  0  0  0  0  0
  195.1240  173.6650  140.1750 C   0  0  2  0  0  3  0  0  0  0  0  0
  196.2410  174.1190  146.0360 C   0  0  0  0  0  2  0  0  0  0  0  0
  195.6030  172.8460  143.1850 C   0  0  2  0  0  3  0  0  0  0  0  0
  196.7430  171.7280  145.2050 C   0  0  1  0  0  3  0  0  0  0  0  0
  197.3050  173.0470  145.7640 C   0  0  0  0  0  2  0  0  0  0  0  0
  197.2290  176.0400  140.4250 C   0  0  0  0  0  1  0  0  0  0  0  0
  194.2450  172.9930  142.5040 C   0  0  0  0  0  2  0  0  0  0  0  0
  194.4060  175.0040  139.9550 C   0  0  0  0  0  1  0  0  0  0  0  0
  196.4670  170.7780  146.3520 C   0  0  0  0  0  1  0  0  0  0  0  0
  196.9410  174.8070  141.2670 C   0  0  1  0  0  3  0  0  0  0  0  0
  195.4660  171.8830  144.3740 C   0  0  0  0  0  2  0  0  0  0  0  0
  196.0660  175.1350  142.4820 C   0  0  0  0  0  2  0  0  0  0  0  0
  194.3700  172.6280  141.0280 C   0  0  1  0  0  3  0  0  0  0  0  0
  196.2240  174.1440  143.5430 N   0  0  1  0  0  0  0  0  0  0  0  0
  195.6190  174.7050  144.7560 C   0  0  0  0  0  2  0  0  0  0  0  0
  189.5890  172.6810  141.9530 C   0  0  0  0  0  2  0  0  0  0  0  0
  189.6580  172.6500  144.3050 C   0  0  0  0  0  2  0  0  0  0  0  0
  189.3700  174.0080  143.8580 C   0  0  2  0  0  3  0  0  0  0  0  0
  190.3240  173.1800  143.1020 N   0  0  0  0  0  0  0  0  0  0  0  0
  190.1310  175.0050  144.7190 C   0  0  0  0  0  2  0  0  0  0  0  0
  188.1200  176.3990  144.5240 C   0  0  0  0  0  3  0  0  0  0  0  0
  189.4430  176.3360  144.7510 C   0  0  0  0  0  0  0  0  0  0  0  0
  187.3210  177.6680  144.5830 C   0  0  1  0  0  3  0  0  0  0  0  0
  186.7900  177.9710  143.1950 C   0  0  0  0  0  1  0  0  0  0  0  0
  184.0520  178.6680  146.1420 C   0  0  0  0  0  1  0  0  0  0  0  0
  186.1440  177.5110  145.5360 C   0  0  2  0  0  3  0  0  0  0  0  0
  185.4990  178.8660  145.7450 C   0  0  2  0  0  3  0  0  0  0  0  0
  186.3880  178.2810  146.8200 C   0  0  0  0  0  2  0  0  0  0  0  0
  190.2630  177.5460  145.0990 C   0  0  0  0  0  2  0  0  0  0  0  0
  190.8560  178.1690  143.8490 C   0  0  0  0  0  1  0  0  0  0  0  0
  1  4  1  0  0  0  0
  2  6  2  0  0  0  0
  2 12  1  0  0  0  0
  3 10  2  0  0  0  0
  4  9  2  0  0  0  0
  5 11  1  0  0  0  0
  6  7  1  0  0  0  0
  7  1  2  0  0  0  0
  8  5  1  0  0  0  0
  8  2  1  0  0  0  0
 10  9  1  0  0  0  0
 10 30  1  0  0  0  0
 11 13  1  0  0  0  0
 12 13  2  0  0  0  0
 12  1  1  0  0  0  0
 13  3  1  0  0  0  0
 14 24  1  0  0  0  0
 15 22  1  1  0  0  0
 15 14  1  0  0  0  0
 15 27  1  0  0  0  0
 17 21  1  1  0  0  0
 17 28  1  0  0  0  0
 17 25  1  0  0  0  0
 18 19  1  0  0  0  0
 18 23  1  1  0  0  0
 19 16  1  0  0  0  0
 24 20  1  6  0  0  0
 24 26  1  0  0  0  0
 25 18  1  0  0  0  0
 27  4  1  6  0  0  0
 27 21  1  0  0  0  0
 28 26  1  6  0  0  0
 28 29  1  0  0  0  0
 29 16  1  0  0  0  0
 30 33  1  0  0  0  0
 32 31  1  0  0  0  0
 32 34  1  1  0  0  0
 33 32  1  0  0  0  0
 33 31  1  0  0  0  0
 34 36  1  0  0  0  0
 35 37  1  0  0  0  0
 35 36  2  0  0  0  0
 36 43  1  0  0  0  0
 37 38  1  6  0  0  0
 40 37  1  6  0  0  0
 40 41  1  0  0  0  0
 40 42  1  0  0  0  0
 41 39  1  1  0  0  0
 41 42  1  0  0  0  0
 44 43  1  0  0  0  0
M  END
>  <MODEL>
9

>  <REMARK>
 VINA RESULT:      -6.5      2.592      8.838
  Name = 
  8 active torsions:
  status: ('A' for Active; 'I' for Inactive)
    1  A    between atoms: C_7  and  C_38
    2  A    between atoms: C_13  and  C_18
    3  A    between atoms: C_17  and  C_25
    4  A    between atoms: C_17  and  N_37
    5  A    between atoms: C_18  and  C_19
    6  A    between atoms: C_22  and  C_44
    7  A    between atoms: C_26  and  C_35
    8  A    between atoms: C_26  and  C_44
                            x       y       z     vdW  Elec       q    Type
                         _______ _______ _______ _____ _____    ______ ____

>  <TORSDO>
F 8

$$$$
