=
 OpenBabel11062419433D

 30 34  0  0  1  0  0  0  0  0999 V2000
  192.1250  172.8560  143.9260 C   0  0  0  0  0  2  0  0  0  0  0  0
  190.3840  174.6600  143.7530 C   0  0  0  0  0  0  0  0  0  0  0  0
  189.4240  175.0640  142.8190 C   0  0  0  0  0  0  0  0  0  0  0  0
  186.4220  178.4710  143.6350 C   0  0  0  0  0  2  0  0  0  0  0  0
  188.7780  174.3960  140.5670 C   0  0  0  0  0  0  0  0  0  0  0  0
  187.6280  177.9990  144.3720 C   0  0  0  0  0  3  0  0  0  0  0  0
  191.1300  173.6660  143.2210 N   0  0  0  0  0  0  0  0  0  0  0  0
  186.3630  177.0650  141.6660 C   0  0  0  0  0  2  0  0  0  0  0  0
  192.9250  171.9960  142.9470 C   0  0  0  0  0  2  0  0  0  0  0  0
  188.4300  176.9810  144.0460 C   0  0  0  0  0  3  0  0  0  0  0  0
  188.4260  176.0640  142.8760 C   0  0  0  0  0  0  0  0  0  0  0  0
  190.6450  173.3960  141.9890 C   0  0  0  0  0  0  0  0  0  0  0  0
  189.6050  174.2690  141.6960 C   0  0  0  0  0  0  0  0  0  0  0  0
  187.5570  176.1690  141.7480 C   0  0  0  0  0  0  0  0  0  0  0  0
  191.9970  171.2810  141.9600 C   0  0  2  0  0  3  0  0  0  0  0  0
  187.7430  175.3360  140.6330 C   0  0  0  0  0  3  0  0  0  0  0  0
  191.1970  172.2930  141.1340 C   0  0  0  0  0  2  0  0  0  0  0  0
  186.6460  178.4670  142.1450 C   0  0  0  0  0  2  0  0  0  0  0  0
  190.5280  175.1110  145.1480 C   0  0  0  0  0  0  0  0  0  0  0  0
  189.5570  174.6620  146.1680 C   0  0  0  0  0  3  0  0  0  0  0  0
  189.7990  174.8690  147.4660 C   0  0  0  0  0  3  0  0  0  0  0  0
  191.1010  175.4830  147.9050 C   0  0  0  0  0  2  0  0  0  0  0  0
  191.4980  175.9710  145.4880 C   0  0  0  0  0  3  0  0  0  0  0  0
  191.5770  176.5230  146.8860 C   0  0  0  0  0  2  0  0  0  0  0  0
  190.8630  169.3930  141.7350 C   0  0  0  0  0  1  0  0  0  0  0  0
  191.1300  170.4200  142.6410 O   0  0  0  0  0  0  0  0  0  0  0  0
  188.2310  172.6150  139.1110 O   0  0  0  0  0  0  0  0  0  0  0  0
  188.9530  173.6280  139.3220 C   0  0  0  0  0  0  0  0  0  0  0  0
  189.5190  174.0550  136.9650 C   0  0  0  0  0  1  0  0  0  0  0  0
  189.8480  174.0680  138.3460 O   0  0  0  0  0  0  0  0  0  0  0  0
  2 19  1  0  0  0  0
  3 11  1  0  0  0  0
  3  2  2  0  0  0  0
  4  6  1  0  0  0  0
  5 16  2  0  0  0  0
  5 13  1  0  0  0  0
  7  2  1  0  0  0  0
  7  1  1  0  0  0  0
  8 14  1  0  0  0  0
  8 18  1  0  0  0  0
  9  1  1  0  0  0  0
 10  6  2  0  0  0  0
 11 10  1  0  0  0  0
 12  7  1  0  0  0  0
 13 12  2  0  0  0  0
 13  3  1  0  0  0  0
 14 11  2  0  0  0  0
 15 26  1  1  0  0  0
 15  9  1  0  0  0  0
 16 14  1  0  0  0  0
 17 15  1  0  0  0  0
 17 12  1  0  0  0  0
 18  4  1  0  0  0  0
 19 23  2  0  0  0  0
 19 20  1  0  0  0  0
 20 21  2  0  0  0  0
 21 22  1  0  0  0  0
 23 24  1  0  0  0  0
 24 22  1  0  0  0  0
 25 26  1  0  0  0  0
 27 28  2  0  0  0  0
 28  5  1  0  0  0  0
 29 30  1  0  0  0  0
 30 28  1  0  0  0  0
M  END
>  <MODEL>
1

>  <REMARK>
 VINA RESULT:      -6.9      0.000      0.000
  Name = 
  4 active torsions:
  status: ('A' for Active; 'I' for Inactive)
    1  A    between atoms: C_4  and  C_5
    2  A    between atoms: C_11  and  C_21
    3  A    between atoms: O_20  and  C_21
    4  A    between atoms: C_23  and  O_30
                            x       y       z     vdW  Elec       q    Type
                         _______ _______ _______ _____ _____    ______ ____

>  <TORSDO>
F 4

$$$$
=
 OpenBabel11062419433D

 30 34  0  0  1  0  0  0  0  0999 V2000
  188.2200  174.3380  140.3140 C   0  0  0  0  0  2  0  0  0  0  0  0
  188.9120  175.0500  142.6220 C   0  0  0  0  0  0  0  0  0  0  0  0
  189.9150  174.7090  143.5370 C   0  0  0  0  0  0  0  0  0  0  0  0
  190.4880  176.9100  147.5510 C   0  0  0  0  0  2  0  0  0  0  0  0
  191.7060  173.0620  143.6410 C   0  0  0  0  0  0  0  0  0  0  0  0
  189.4070  176.9570  146.5270 C   0  0  0  0  0  3  0  0  0  0  0  0
  188.9780  174.2150  141.5600 N   0  0  0  0  0  0  0  0  0  0  0  0
  192.0020  175.2180  146.7130 C   0  0  0  0  0  2  0  0  0  0  0  0
  188.3850  173.0880  139.4480 C   0  0  0  0  0  2  0  0  0  0  0  0
  189.3470  176.2750  145.3800 C   0  0  0  0  0  3  0  0  0  0  0  0
  190.2560  175.2540  144.7960 C   0  0  0  0  0  0  0  0  0  0  0  0
  190.0210  173.3800  141.7520 C   0  0  0  0  0  0  0  0  0  0  0  0
  190.6050  173.6390  142.9860 C   0  0  0  0  0  0  0  0  0  0  0  0
  191.4000  174.6990  145.4470 C   0  0  0  0  0  0  0  0  0  0  0  0
  189.8580  172.6810  139.3480 C   0  0  2  0  0  3  0  0  0  0  0  0
  192.0980  173.6320  144.8580 C   0  0  0  0  0  3  0  0  0  0  0  0
  190.4300  172.3590  140.7310 C   0  0  0  0  0  2  0  0  0  0  0  0
  190.9740  175.5020  147.7800 C   0  0  0  0  0  2  0  0  0  0  0  0
  187.9890  176.1960  142.6850 C   0  0  0  0  0  0  0  0  0  0  0  0
  186.6020  175.9970  143.1520 C   0  0  0  0  0  3  0  0  0  0  0  0
  185.8270  177.0500  143.4330 C   0  0  0  0  0  3  0  0  0  0  0  0
  186.3890  178.4440  143.3580 C   0  0  0  0  0  2  0  0  0  0  0  0
  188.3820  177.4080  142.2660 C   0  0  0  0  0  3  0  0  0  0  0  0
  187.4070  178.5540  142.2190 C   0  0  0  0  0  2  0  0  0  0  0  0
  190.3520  173.5570  137.3750 C   0  0  0  0  0  1  0  0  0  0  0  0
  190.6050  173.6960  138.7400 O   0  0  0  0  0  0  0  0  0  0  0  0
  193.4940  172.0580  142.4660 O   0  0  0  0  0  0  0  0  0  0  0  0
  192.4450  171.8890  143.1440 C   0  0  0  0  0  0  0  0  0  0  0  0
  192.8940  169.6990  144.1730 C   0  0  0  0  0  1  0  0  0  0  0  0
  192.0340  170.6020  143.4950 O   0  0  0  0  0  0  0  0  0  0  0  0
  1  7  1  0  0  0  0
  2 19  1  0  0  0  0
  2  3  2  0  0  0  0
  3 11  1  0  0  0  0
  4 18  1  0  0  0  0
  5 16  2  0  0  0  0
  6  4  1  0  0  0  0
  7 12  1  0  0  0  0
  7  2  1  0  0  0  0
  8 18  1  0  0  0  0
  9  1  1  0  0  0  0
 10  6  2  0  0  0  0
 11 10  1  0  0  0  0
 11 14  2  0  0  0  0
 12 13  2  0  0  0  0
 13  3  1  0  0  0  0
 13  5  1  0  0  0  0
 14  8  1  0  0  0  0
 15 26  1  1  0  0  0
 15  9  1  0  0  0  0
 15 17  1  0  0  0  0
 16 14  1  0  0  0  0
 17 12  1  0  0  0  0
 19 20  1  0  0  0  0
 20 21  2  0  0  0  0
 22 21  1  0  0  0  0
 23 19  2  0  0  0  0
 24 23  1  0  0  0  0
 24 22  1  0  0  0  0
 25 26  1  0  0  0  0
 27 28  2  0  0  0  0
 28 30  1  0  0  0  0
 28  5  1  0  0  0  0
 30 29  1  0  0  0  0
M  END
>  <MODEL>
2

>  <REMARK>
 VINA RESULT:      -6.8      1.356      5.174
  Name = 
  4 active torsions:
  status: ('A' for Active; 'I' for Inactive)
    1  A    between atoms: C_4  and  C_5
    2  A    between atoms: C_11  and  C_21
    3  A    between atoms: O_20  and  C_21
    4  A    between atoms: C_23  and  O_30
                            x       y       z     vdW  Elec       q    Type
                         _______ _______ _______ _____ _____    ______ ____

>  <TORSDO>
F 4

$$$$
=
 OpenBabel11062419433D

 30 34  0  0  1  0  0  0  0  0999 V2000
  189.2160  177.3630  144.3510 C   0  0  0  0  0  2  0  0  0  0  0  0
  190.6670  175.3120  144.4030 C   0  0  0  0  0  0  0  0  0  0  0  0
  190.6650  174.0460  143.8070 C   0  0  0  0  0  0  0  0  0  0  0  0
  194.0860  171.0050  144.3880 C   0  0  0  0  0  2  0  0  0  0  0  0
  189.1730  172.8020  142.3390 C   0  0  0  0  0  0  0  0  0  0  0  0
  193.7740  172.3020  145.0520 C   0  0  0  0  0  3  0  0  0  0  0  0
  189.5270  175.9600  144.0730 N   0  0  0  0  0  0  0  0  0  0  0  0
  192.2330  170.6750  142.8670 C   0  0  0  0  0  2  0  0  0  0  0  0
  187.7520  177.6710  144.0360 C   0  0  0  0  0  2  0  0  0  0  0  0
  192.7480  173.1180  144.7940 C   0  0  0  0  0  3  0  0  0  0  0  0
  191.6040  172.9890  143.8540 C   0  0  0  0  0  0  0  0  0  0  0  0
  188.8180  175.1590  143.2480 C   0  0  0  0  0  0  0  0  0  0  0  0
  189.4820  173.9490  143.0890 C   0  0  0  0  0  0  0  0  0  0  0  0
  191.3130  171.8380  143.0600 C   0  0  0  0  0  0  0  0  0  0  0  0
  187.3550  177.1130  142.6660 C   0  0  2  0  0  3  0  0  0  0  0  0
  190.1210  171.7730  142.3200 C   0  0  0  0  0  3  0  0  0  0  0  0
  187.5210  175.5910  142.6290 C   0  0  0  0  0  2  0  0  0  0  0  0
  192.8420  170.1870  144.1580 C   0  0  0  0  0  2  0  0  0  0  0  0
  191.7560  175.9450  145.1680 C   0  0  0  0  0  0  0  0  0  0  0  0
  191.6550  176.0490  146.6390 C   0  0  0  0  0  3  0  0  0  0  0  0
  192.7210  176.4050  147.3630 C   0  0  0  0  0  3  0  0  0  0  0  0
  194.0530  176.6200  146.6960 C   0  0  0  0  0  2  0  0  0  0  0  0
  192.8100  176.4780  144.5350 C   0  0  0  0  0  3  0  0  0  0  0  0
  193.8660  177.2270  145.3030 C   0  0  0  0  0  2  0  0  0  0  0  0
  187.3280  177.6210  140.5110 C   0  0  0  0  0  1  0  0  0  0  0  0
  188.1200  177.7070  141.6570 O   0  0  0  0  0  0  0  0  0  0  0  0
  186.8600  172.3210  142.2390 O   0  0  0  0  0  0  0  0  0  0  0  0
  187.9110  172.6080  141.6040 C   0  0  0  0  0  0  0  0  0  0  0  0
  188.6020  173.8650  139.6030 C   0  0  0  0  0  1  0  0  0  0  0  0
  187.8620  172.8260  140.2260 O   0  0  0  0  0  0  0  0  0  0  0  0
  2 19  1  0  0  0  0
  3 11  1  0  0  0  0
  3  2  2  0  0  0  0
  4  6  1  0  0  0  0
  5 13  1  0  0  0  0
  7  1  1  0  0  0  0
  7  2  1  0  0  0  0
  8 14  1  0  0  0  0
  8 18  1  0  0  0  0
  9  1  1  0  0  0  0
 10  6  2  0  0  0  0
 11 10  1  0  0  0  0
 12  7  1  0  0  0  0
 13 12  2  0  0  0  0
 13  3  1  0  0  0  0
 14 11  2  0  0  0  0
 15 26  1  6  0  0  0
 15  9  1  0  0  0  0
 16  5  2  0  0  0  0
 16 14  1  0  0  0  0
 17 15  1  0  0  0  0
 17 12  1  0  0  0  0
 18  4  1  0  0  0  0
 19 20  1  0  0  0  0
 20 21  2  0  0  0  0
 22 21  1  0  0  0  0
 23 19  2  0  0  0  0
 23 24  1  0  0  0  0
 24 22  1  0  0  0  0
 25 26  1  0  0  0  0
 28 27  2  0  0  0  0
 28  5  1  0  0  0  0
 29 30  1  0  0  0  0
 30 28  1  0  0  0  0
M  END
>  <MODEL>
3

>  <REMARK>
 VINA RESULT:      -6.7      1.877      5.501
  Name = 
  4 active torsions:
  status: ('A' for Active; 'I' for Inactive)
    1  A    between atoms: C_4  and  C_5
    2  A    between atoms: C_11  and  C_21
    3  A    between atoms: O_20  and  C_21
    4  A    between atoms: C_23  and  O_30
                            x       y       z     vdW  Elec       q    Type
                         _______ _______ _______ _____ _____    ______ ____

>  <TORSDO>
F 4

$$$$
=
 OpenBabel11062419433D

 30 34  0  0  1  0  0  0  0  0999 V2000
  188.1760  173.9430  142.4030 C   0  0  0  0  0  2  0  0  0  0  0  0
  190.1980  174.7740  143.6430 C   0  0  0  0  0  0  0  0  0  0  0  0
  191.5710  174.8870  143.3950 C   0  0  0  0  0  0  0  0  0  0  0  0
  194.4850  176.8970  146.3540 C   0  0  0  0  0  2  0  0  0  0  0  0
  193.0870  174.2450  141.6010 C   0  0  0  0  0  0  0  0  0  0  0  0
  193.0560  176.4940  146.4720 C   0  0  0  0  0  3  0  0  0  0  0  0
  189.6140  174.1190  142.6140 N   0  0  0  0  0  0  0  0  0  0  0  0
  195.1180  176.1350  144.1450 C   0  0  0  0  0  2  0  0  0  0  0  0
  187.9070  172.9550  141.2670 C   0  0  0  0  0  2  0  0  0  0  0  0
  192.2960  175.9200  145.5350 C   0  0  0  0  0  3  0  0  0  0  0  0
  192.6130  175.4630  144.1570 C   0  0  0  0  0  0  0  0  0  0  0  0
  190.5690  173.8480  141.6980 C   0  0  0  0  0  0  0  0  0  0  0  0
  191.8020  174.2830  142.1680 C   0  0  0  0  0  0  0  0  0  0  0  0
  193.9140  175.4630  143.5670 C   0  0  0  0  0  0  0  0  0  0  0  0
  188.7700  173.2760  140.0440 C   0  0  2  0  0  3  0  0  0  0  0  0
  194.1200  174.8690  142.3110 C   0  0  0  0  0  3  0  0  0  0  0  0
  190.2600  173.1830  140.3890 C   0  0  0  0  0  2  0  0  0  0  0  0
  195.2950  175.8600  145.6180 C   0  0  0  0  0  2  0  0  0  0  0  0
  189.4330  175.3630  144.7550 C   0  0  0  0  0  0  0  0  0  0  0  0
  188.9130  176.7420  144.6390 C   0  0  0  0  0  3  0  0  0  0  0  0
  188.0300  177.2060  145.5300 C   0  0  0  0  0  3  0  0  0  0  0  0
  187.4940  176.3020  146.6070 C   0  0  0  0  0  2  0  0  0  0  0  0
  189.2530  174.6790  145.8940 C   0  0  0  0  0  3  0  0  0  0  0  0
  188.5730  175.3210  147.0740 C   0  0  0  0  0  2  0  0  0  0  0  0
  188.1080  174.3440  138.2210 C   0  0  0  0  0  1  0  0  0  0  0  0
  188.4670  174.5510  139.5540 O   0  0  0  0  0  0  0  0  0  0  0  0
  193.7090  172.3430  140.3420 O   0  0  0  0  0  0  0  0  0  0  0  0
  193.4140  173.5700  140.3340 C   0  0  0  0  0  0  0  0  0  0  0  0
  194.3460  175.1190  138.6640 C   0  0  0  0  0  1  0  0  0  0  0  0
  193.3140  174.2600  139.1250 O   0  0  0  0  0  0  0  0  0  0  0  0
  1  7  1  0  0  0  0
  2 19  1  0  0  0  0
  3  2  2  0  0  0  0
  3 11  1  0  0  0  0
  4  6  1  0  0  0  0
  5 13  1  0  0  0  0
  5 16  2  0  0  0  0
  7  2  1  0  0  0  0
  8 18  1  0  0  0  0
  9  1  1  0  0  0  0
 10  6  2  0  0  0  0
 11 10  1  0  0  0  0
 12 13  2  0  0  0  0
 12  7  1  0  0  0  0
 13  3  1  0  0  0  0
 14  8  1  0  0  0  0
 14 11  2  0  0  0  0
 15 26  1  1  0  0  0
 15 17  1  0  0  0  0
 15  9  1  0  0  0  0
 16 14  1  0  0  0  0
 17 12  1  0  0  0  0
 18  4  1  0  0  0  0
 19 23  2  0  0  0  0
 20 19  1  0  0  0  0
 20 21  2  0  0  0  0
 21 22  1  0  0  0  0
 22 24  1  0  0  0  0
 23 24  1  0  0  0  0
 25 26  1  0  0  0  0
 28 27  2  0  0  0  0
 28  5  1  0  0  0  0
 29 30  1  0  0  0  0
 30 28  1  0  0  0  0
M  END
>  <MODEL>
4

>  <REMARK>
 VINA RESULT:      -6.7      2.352      4.965
  Name = 
  4 active torsions:
  status: ('A' for Active; 'I' for Inactive)
    1  A    between atoms: C_4  and  C_5
    2  A    between atoms: C_11  and  C_21
    3  A    between atoms: O_20  and  C_21
    4  A    between atoms: C_23  and  O_30
                            x       y       z     vdW  Elec       q    Type
                         _______ _______ _______ _____ _____    ______ ____

>  <TORSDO>
F 4

$$$$
=
 OpenBabel11062419433D

 30 34  0  0  1  0  0  0  0  0999 V2000
  193.1330  176.6060  146.1260 C   0  0  0  0  0  2  0  0  0  0  0  0
  191.4840  175.7210  144.4500 C   0  0  0  0  0  0  0  0  0  0  0  0
  191.5370  175.0890  143.2020 C   0  0  0  0  0  0  0  0  0  0  0  0
  187.7740  173.5640  141.0110 C   0  0  0  0  0  2  0  0  0  0  0  0
  193.2860  174.4660  141.6260 C   0  0  0  0  0  0  0  0  0  0  0  0
  187.9540  174.4150  142.2210 C   0  0  0  0  0  3  0  0  0  0  0  0
  192.7340  176.0760  144.8210 N   0  0  0  0  0  0  0  0  0  0  0  0
  190.0350  173.1660  140.2440 C   0  0  0  0  0  2  0  0  0  0  0  0
  194.5780  177.1080  146.0940 C   0  0  0  0  0  2  0  0  0  0  0  0
  189.1070  174.7910  142.7820 C   0  0  0  0  0  3  0  0  0  0  0  0
  190.5180  174.5530  142.3820 C   0  0  0  0  0  0  0  0  0  0  0  0
  193.5880  175.6510  143.8650 C   0  0  0  0  0  0  0  0  0  0  0  0
  192.8730  175.0630  142.8300 C   0  0  0  0  0  0  0  0  0  0  0  0
  190.9360  173.9090  141.1780 C   0  0  0  0  0  0  0  0  0  0  0  0
  195.5010  176.0800  145.4320 C   0  0  2  0  0  3  0  0  0  0  0  0
  192.2970  173.8710  140.8330 C   0  0  0  0  0  3  0  0  0  0  0  0
  195.0750  175.8190  143.9840 C   0  0  0  0  0  2  0  0  0  0  0  0
  188.7640  173.9170  139.9320 C   0  0  0  0  0  2  0  0  0  0  0  0
  190.3110  175.8860  145.3250 C   0  0  0  0  0  0  0  0  0  0  0  0
  189.6010  177.1810  145.3650 C   0  0  0  0  0  3  0  0  0  0  0  0
  188.4120  177.2800  145.9680 C   0  0  0  0  0  3  0  0  0  0  0  0
  187.7470  176.0560  146.5380 C   0  0  0  0  0  2  0  0  0  0  0  0
  189.9170  174.8880  146.1290 C   0  0  0  0  0  3  0  0  0  0  0  0
  188.7920  175.0920  147.1090 C   0  0  0  0  0  2  0  0  0  0  0  0
  196.5450  174.1370  145.6130 C   0  0  0  0  0  1  0  0  0  0  0  0
  195.5020  174.8850  146.1590 O   0  0  0  0  0  0  0  0  0  0  0  0
  195.3900  173.4310  141.3230 O   0  0  0  0  0  0  0  0  0  0  0  0
  194.6760  174.4560  141.1410 C   0  0  0  0  0  0  0  0  0  0  0  0
  196.5080  175.9950  140.5640 C   0  0  0  0  0  1  0  0  0  0  0  0
  195.1730  175.5370  140.4110 O   0  0  0  0  0  0  0  0  0  0  0  0
  2  7  1  0  0  0  0
  2 19  1  0  0  0  0
  3  2  2  0  0  0  0
  4  6  1  0  0  0  0
  5 13  1  0  0  0  0
  6 10  2  0  0  0  0
  7  1  1  0  0  0  0
  8 14  1  0  0  0  0
  9  1  1  0  0  0  0
 11 10  1  0  0  0  0
 11  3  1  0  0  0  0
 12 17  1  0  0  0  0
 12  7  1  0  0  0  0
 13  3  1  0  0  0  0
 13 12  2  0  0  0  0
 14 11  2  0  0  0  0
 15  9  1  0  0  0  0
 15 26  1  1  0  0  0
 16 14  1  0  0  0  0
 16  5  2  0  0  0  0
 17 15  1  0  0  0  0
 18  8  1  0  0  0  0
 18  4  1  0  0  0  0
 19 20  1  0  0  0  0
 19 23  2  0  0  0  0
 20 21  2  0  0  0  0
 21 22  1  0  0  0  0
 22 24  1  0  0  0  0
 23 24  1  0  0  0  0
 25 26  1  0  0  0  0
 28 27  2  0  0  0  0
 28  5  1  0  0  0  0
 30 29  1  0  0  0  0
 30 28  1  0  0  0  0
M  END
>  <MODEL>
5

>  <REMARK>
 VINA RESULT:      -6.6      3.130      4.954
  Name = 
  4 active torsions:
  status: ('A' for Active; 'I' for Inactive)
    1  A    between atoms: C_4  and  C_5
    2  A    between atoms: C_11  and  C_21
    3  A    between atoms: O_20  and  C_21
    4  A    between atoms: C_23  and  O_30
                            x       y       z     vdW  Elec       q    Type
                         _______ _______ _______ _____ _____    ______ ____

>  <TORSDO>
F 4

$$$$
=
 OpenBabel11062419433D

 30 34  0  0  1  0  0  0  0  0999 V2000
  187.6960  174.5270  142.2850 C   0  0  0  0  0  2  0  0  0  0  0  0
  188.6450  175.6510  144.3220 C   0  0  0  0  0  0  0  0  0  0  0  0
  189.8480  175.6210  145.0350 C   0  0  0  0  0  0  0  0  0  0  0  0
  190.6980  178.4000  148.6190 C   0  0  0  0  0  2  0  0  0  0  0  0
  191.9250  174.3540  144.9180 C   0  0  0  0  0  0  0  0  0  0  0  0
  189.4580  178.1150  147.8430 C   0  0  0  0  0  3  0  0  0  0  0  0
  188.6800  174.7100  143.3520 N   0  0  0  0  0  0  0  0  0  0  0  0
  192.3420  176.9140  147.6460 C   0  0  0  0  0  2  0  0  0  0  0  0
  187.9480  173.2240  141.5240 C   0  0  0  0  0  2  0  0  0  0  0  0
  189.3270  177.2880  146.8020 C   0  0  0  0  0  3  0  0  0  0  0  0
  190.2990  176.3800  146.1390 C   0  0  0  0  0  0  0  0  0  0  0  0
  189.8900  174.1090  143.3990 C   0  0  0  0  0  0  0  0  0  0  0  0
  190.6270  174.6300  144.4550 C   0  0  0  0  0  0  0  0  0  0  0  0
  191.6330  176.1320  146.5870 C   0  0  0  0  0  0  0  0  0  0  0  0
  189.4280  173.0810  141.1570 C   0  0  2  0  0  3  0  0  0  0  0  0
  192.4120  175.1410  145.9680 C   0  0  0  0  0  3  0  0  0  0  0  0
  190.3010  173.0530  142.4150 C   0  0  0  0  0  2  0  0  0  0  0  0
  191.4940  177.1460  148.8720 C   0  0  0  0  0  2  0  0  0  0  0  0
  187.5360  176.6100  144.4680 C   0  0  0  0  0  0  0  0  0  0  0  0
  187.5360  177.8570  143.6750 C   0  0  0  0  0  3  0  0  0  0  0  0
  186.4390  178.6200  143.6200 C   0  0  0  0  0  3  0  0  0  0  0  0
  185.1700  178.1720  144.2950 C   0  0  0  0  0  2  0  0  0  0  0  0
  186.5570  176.3860  145.3550 C   0  0  0  0  0  3  0  0  0  0  0  0
  185.4860  177.4180  145.5900 C   0  0  0  0  0  2  0  0  0  0  0  0
  189.7380  173.5990  139.0270 C   0  0  0  0  0  1  0  0  0  0  0  0
  189.8260  174.1260  140.3160 O   0  0  0  0  0  0  0  0  0  0  0  0
  192.6980  172.1200  144.8820 O   0  0  0  0  0  0  0  0  0  0  0  0
  192.7810  173.2790  144.3900 C   0  0  0  0  0  0  0  0  0  0  0  0
  194.8190  174.2610  143.4200 C   0  0  0  0  0  1  0  0  0  0  0  0
  193.6150  173.5190  143.2960 O   0  0  0  0  0  0  0  0  0  0  0  0
  1  7  1  0  0  0  0
  2 19  1  0  0  0  0
  2  3  2  0  0  0  0
  3 11  1  0  0  0  0
  4 18  1  0  0  0  0
  5 16  2  0  0  0  0
  6  4  1  0  0  0  0
  7 12  1  0  0  0  0
  7  2  1  0  0  0  0
  8 18  1  0  0  0  0
  9  1  1  0  0  0  0
 10  6  2  0  0  0  0
 11 14  2  0  0  0  0
 11 10  1  0  0  0  0
 12 13  2  0  0  0  0
 13  5  1  0  0  0  0
 13  3  1  0  0  0  0
 14  8  1  0  0  0  0
 15 26  1  6  0  0  0
 15  9  1  0  0  0  0
 15 17  1  0  0  0  0
 16 14  1  0  0  0  0
 17 12  1  0  0  0  0
 19 23  2  0  0  0  0
 20 19  1  0  0  0  0
 21 20  2  0  0  0  0
 21 22  1  0  0  0  0
 22 24  1  0  0  0  0
 23 24  1  0  0  0  0
 25 26  1  0  0  0  0
 28 27  2  0  0  0  0
 28  5  1  0  0  0  0
 30 29  1  0  0  0  0
 30 28  1  0  0  0  0
M  END
>  <MODEL>
6

>  <REMARK>
 VINA RESULT:      -6.4      1.888      5.416
  Name = 
  4 active torsions:
  status: ('A' for Active; 'I' for Inactive)
    1  A    between atoms: C_4  and  C_5
    2  A    between atoms: C_11  and  C_21
    3  A    between atoms: O_20  and  C_21
    4  A    between atoms: C_23  and  O_30
                            x       y       z     vdW  Elec       q    Type
                         _______ _______ _______ _____ _____    ______ ____

>  <TORSDO>
F 4

$$$$
=
 OpenBabel11062419433D

 30 34  0  0  1  0  0  0  0  0999 V2000
  193.4800  173.0880  141.2800 C   0  0  0  0  0  2  0  0  0  0  0  0
  192.7210  174.2990  143.3470 C   0  0  0  0  0  0  0  0  0  0  0  0
  191.5170  174.8090  143.8460 C   0  0  0  0  0  0  0  0  0  0  0  0
  191.1470  176.6800  148.0470 C   0  0  0  0  0  2  0  0  0  0  0  0
  189.2330  175.0240  143.0310 C   0  0  0  0  0  0  0  0  0  0  0  0
  192.3240  176.2560  147.2390 C   0  0  0  0  0  3  0  0  0  0  0  0
  192.5230  173.8450  142.0890 N   0  0  0  0  0  0  0  0  0  0  0  0
  189.2650  176.2790  146.5790 C   0  0  0  0  0  2  0  0  0  0  0  0
  192.9920  172.9560  139.8370 C   0  0  0  0  0  2  0  0  0  0  0  0
  192.3150  175.7080  146.0200 C   0  0  0  0  0  3  0  0  0  0  0  0
  191.1980  175.4060  145.0870 C   0  0  0  0  0  0  0  0  0  0  0  0
  191.2170  174.0140  141.7870 C   0  0  0  0  0  0  0  0  0  0  0  0
  190.5710  174.6400  142.8450 C   0  0  0  0  0  0  0  0  0  0  0  0
  189.8310  175.7620  145.2960 C   0  0  0  0  0  0  0  0  0  0  0  0
  191.5230  172.5230  139.7920 C   0  0  2  0  0  3  0  0  0  0  0  0
  188.8850  175.5570  144.2780 C   0  0  0  0  0  3  0  0  0  0  0  0
  190.6290  173.5550  140.4850 C   0  0  0  0  0  2  0  0  0  0  0  0
  190.1090  177.3660  147.1980 C   0  0  0  0  0  2  0  0  0  0  0  0
  193.9950  174.1330  144.0670 C   0  0  0  0  0  0  0  0  0  0  0  0
  195.0940  175.0960  143.8440 C   0  0  0  0  0  3  0  0  0  0  0  0
  196.1610  175.0990  144.6500 C   0  0  0  0  0  3  0  0  0  0  0  0
  196.2130  174.1810  145.8410 C   0  0  0  0  0  2  0  0  0  0  0  0
  194.1860  173.0840  144.8800 C   0  0  0  0  0  3  0  0  0  0  0  0
  195.5250  172.8490  145.5260 C   0  0  0  0  0  2  0  0  0  0  0  0
  191.4190  170.3590  139.3320 C   0  0  0  0  0  1  0  0  0  0  0  0
  191.3660  171.2680  140.3900 O   0  0  0  0  0  0  0  0  0  0  0  0
  187.4310  173.9240  141.9670 O   0  0  0  0  0  0  0  0  0  0  0  0
  188.1920  174.9300  141.9920 C   0  0  0  0  0  0  0  0  0  0  0  0
  186.9690  176.9450  141.2870 C   0  0  0  0  0  1  0  0  0  0  0  0
  187.9950  175.9830  141.0980 O   0  0  0  0  0  0  0  0  0  0  0  0
  1  7  1  0  0  0  0
  2  3  2  0  0  0  0
  2 19  1  0  0  0  0
  3 11  1  0  0  0  0
  5 16  2  0  0  0  0
  6  4  1  0  0  0  0
  7  2  1  0  0  0  0
  8 18  1  0  0  0  0
  9  1  1  0  0  0  0
 10  6  2  0  0  0  0
 11 14  2  0  0  0  0
 11 10  1  0  0  0  0
 12  7  1  0  0  0  0
 12 13  2  0  0  0  0
 13  5  1  0  0  0  0
 13  3  1  0  0  0  0
 14  8  1  0  0  0  0
 15  9  1  0  0  0  0
 15 26  1  1  0  0  0
 15 17  1  0  0  0  0
 16 14  1  0  0  0  0
 17 12  1  0  0  0  0
 18  4  1  0  0  0  0
 19 23  2  0  0  0  0
 20 19  1  0  0  0  0
 20 21  2  0  0  0  0
 21 22  1  0  0  0  0
 23 24  1  0  0  0  0
 24 22  1  0  0  0  0
 25 26  1  0  0  0  0
 27 28  2  0  0  0  0
 28  5  1  0  0  0  0
 30 29  1  0  0  0  0
 30 28  1  0  0  0  0
M  END
>  <MODEL>
7

>  <REMARK>
 VINA RESULT:      -6.4      2.299      4.194
  Name = 
  4 active torsions:
  status: ('A' for Active; 'I' for Inactive)
    1  A    between atoms: C_4  and  C_5
    2  A    between atoms: C_11  and  C_21
    3  A    between atoms: O_20  and  C_21
    4  A    between atoms: C_23  and  O_30
                            x       y       z     vdW  Elec       q    Type
                         _______ _______ _______ _____ _____    ______ ____

>  <TORSDO>
F 4

$$$$
=
 OpenBabel11062419433D

 30 34  0  0  1  0  0  0  0  0999 V2000
  193.1590  172.8060  140.6020 C   0  0  0  0  0  2  0  0  0  0  0  0
  192.1930  173.6730  142.7530 C   0  0  0  0  0  0  0  0  0  0  0  0
  192.6800  174.2590  143.9270 C   0  0  0  0  0  0  0  0  0  0  0  0
  189.9160  175.7990  147.2840 C   0  0  0  0  0  2  0  0  0  0  0  0
  194.8740  174.7820  144.8450 C   0  0  0  0  0  0  0  0  0  0  0  0
  189.6540  174.9870  146.0630 C   0  0  0  0  0  3  0  0  0  0  0  0
  193.2360  173.3000  141.9770 N   0  0  0  0  0  0  0  0  0  0  0  0
  192.3150  176.1130  147.2640 C   0  0  0  0  0  2  0  0  0  0  0  0
  194.5140  172.2680  140.1370 C   0  0  0  0  0  2  0  0  0  0  0  0
  190.5400  174.6020  145.1400 C   0  0  0  0  0  3  0  0  0  0  0  0
  192.0120  174.7910  145.0530 C   0  0  0  0  0  0  0  0  0  0  0  0
  194.3730  173.6700  142.6050 C   0  0  0  0  0  0  0  0  0  0  0  0
  194.0650  174.2390  143.8330 C   0  0  0  0  0  0  0  0  0  0  0  0
  192.8290  175.3810  146.0650 C   0  0  0  0  0  0  0  0  0  0  0  0
  195.6400  173.2480  140.4790 C   0  0  2  0  0  3  0  0  0  0  0  0
  194.2270  175.3730  145.9370 C   0  0  0  0  0  3  0  0  0  0  0  0
  195.7290  173.4690  141.9920 C   0  0  0  0  0  2  0  0  0  0  0  0
  191.1950  175.3830  147.9620 C   0  0  0  0  0  2  0  0  0  0  0  0
  190.7910  173.5680  142.3150 C   0  0  0  0  0  0  0  0  0  0  0  0
  190.0370  172.3210  142.5600 C   0  0  0  0  0  3  0  0  0  0  0  0
  188.7120  172.2890  142.3820 C   0  0  0  0  0  3  0  0  0  0  0  0
  187.9660  173.5430  142.0120 C   0  0  0  0  0  2  0  0  0  0  0  0
  190.2110  174.5740  141.6440 C   0  0  0  0  0  3  0  0  0  0  0  0
  188.8180  174.4250  141.0940 C   0  0  0  0  0  2  0  0  0  0  0  0
  196.6310  175.1730  140.0140 C   0  0  0  0  0  1  0  0  0  0  0  0
  195.4420  174.4680  139.8230 O   0  0  0  0  0  0  0  0  0  0  0  0
  196.9480  173.9320  145.5980 O   0  0  0  0  0  0  0  0  0  0  0  0
  196.3470  174.7410  144.8390 C   0  0  0  0  0  0  0  0  0  0  0  0
  196.5980  176.7970  143.5100 C   0  0  0  0  0  1  0  0  0  0  0  0
  197.0670  175.5280  143.9390 O   0  0  0  0  0  0  0  0  0  0  0  0
  1  7  1  0  0  0  0
  2  3  2  0  0  0  0
  3 11  1  0  0  0  0
  4 18  1  0  0  0  0
  5 16  2  0  0  0  0
  6  4  1  0  0  0  0
  7 12  1  0  0  0  0
  7  2  1  0  0  0  0
  8 18  1  0  0  0  0
  9 15  1  0  0  0  0
  9  1  1  0  0  0  0
 10  6  2  0  0  0  0
 11 10  1  0  0  0  0
 11 14  2  0  0  0  0
 12 13  2  0  0  0  0
 13  3  1  0  0  0  0
 13  5  1  0  0  0  0
 14  8  1  0  0  0  0
 15 26  1  6  0  0  0
 15 17  1  0  0  0  0
 16 14  1  0  0  0  0
 17 12  1  0  0  0  0
 19 20  1  0  0  0  0
 19  2  1  0  0  0  0
 21 20  2  0  0  0  0
 22 21  1  0  0  0  0
 23 19  2  0  0  0  0
 24 23  1  0  0  0  0
 24 22  1  0  0  0  0
 26 25  1  0  0  0  0
 28  5  1  0  0  0  0
 28 27  2  0  0  0  0
 29 30  1  0  0  0  0
 30 28  1  0  0  0  0
M  END
>  <MODEL>
8

>  <REMARK>
 VINA RESULT:      -6.2      3.350      6.301
  Name = 
  4 active torsions:
  status: ('A' for Active; 'I' for Inactive)
    1  A    between atoms: C_4  and  C_5
    2  A    between atoms: C_11  and  C_21
    3  A    between atoms: O_20  and  C_21
    4  A    between atoms: C_23  and  O_30
                            x       y       z     vdW  Elec       q    Type
                         _______ _______ _______ _____ _____    ______ ____

>  <TORSDO>
F 4

$$$$
=
 OpenBabel11062419433D

 30 34  0  0  1  0  0  0  0  0999 V2000
  189.3190  174.8450  145.0240 C   0  0  0  0  0  2  0  0  0  0  0  0
  188.7830  174.8880  142.5690 C   0  0  0  0  0  0  0  0  0  0  0  0
  187.9680  175.6400  141.7160 C   0  0  0  0  0  0  0  0  0  0  0  0
  187.9290  175.0580  137.1400 C   0  0  0  0  0  2  0  0  0  0  0  0
  186.3340  177.4270  141.9790 C   0  0  0  0  0  0  0  0  0  0  0  0
  188.5460  174.2730  138.2460 C   0  0  0  0  0  3  0  0  0  0  0  0
  188.5560  175.2650  143.8480 N   0  0  0  0  0  0  0  0  0  0  0  0
  186.7270  176.8190  138.2850 C   0  0  0  0  0  2  0  0  0  0  0  0
  188.6260  175.2890  146.3130 C   0  0  0  0  0  2  0  0  0  0  0  0
  188.5030  174.5420  139.5530 C   0  0  0  0  0  3  0  0  0  0  0  0
  187.8160  175.6210  140.3110 C   0  0  0  0  0  0  0  0  0  0  0  0
  187.6490  176.2660  143.8310 C   0  0  0  0  0  0  0  0  0  0  0  0
  187.2390  176.5020  142.5250 C   0  0  0  0  0  0  0  0  0  0  0  0
  186.9270  176.5870  139.7480 C   0  0  0  0  0  0  0  0  0  0  0  0
  188.2000  176.7570  146.2290 C   0  0  2  0  0  3  0  0  0  0  0  0
  186.2190  177.4660  140.5840 C   0  0  0  0  0  3  0  0  0  0  0  0
  187.2110  176.9730  145.0800 C   0  0  0  0  0  2  0  0  0  0  0  0
  186.5490  175.5400  137.5060 C   0  0  0  0  0  2  0  0  0  0  0  0
  189.8310  173.9230  142.1930 C   0  0  0  0  0  0  0  0  0  0  0  0
  189.5340  172.4750  142.2090 C   0  0  0  0  0  3  0  0  0  0  0  0
  190.3870  171.6070  141.6550 C   0  0  0  0  0  3  0  0  0  0  0  0
  191.6130  172.1030  140.9360 C   0  0  0  0  0  2  0  0  0  0  0  0
  191.0670  174.3450  141.8910 C   0  0  0  0  0  3  0  0  0  0  0  0
  192.1690  173.3550  141.6200 C   0  0  0  0  0  2  0  0  0  0  0  0
  189.9760  177.5380  147.2960 C   0  0  0  0  0  1  0  0  0  0  0  0
  189.3180  177.5820  146.0660 O   0  0  0  0  0  0  0  0  0  0  0  0
  184.3460  177.9350  143.1540 O   0  0  0  0  0  0  0  0  0  0  0  0
  185.4850  178.3260  142.7790 C   0  0  0  0  0  0  0  0  0  0  0  0
  185.5640  180.1650  144.4130 C   0  0  0  0  0  1  0  0  0  0  0  0
  185.9730  179.5670  143.1920 O   0  0  0  0  0  0  0  0  0  0  0  0
  1  9  1  0  0  0  0
  2  7  1  0  0  0  0
  3 13  1  0  0  0  0
  3  2  2  0  0  0  0
  4 18  1  0  0  0  0
  4  6  1  0  0  0  0
  5 13  1  0  0  0  0
  5 28  1  0  0  0  0
  6 10  2  0  0  0  0
  7  1  1  0  0  0  0
  8 14  1  0  0  0  0
 10 11  1  0  0  0  0
 11  3  1  0  0  0  0
 12  7  1  0  0  0  0
 12 17  1  0  0  0  0
 13 12  2  0  0  0  0
 14 11  2  0  0  0  0
 14 16  1  0  0  0  0
 15 26  1  6  0  0  0
 15  9  1  0  0  0  0
 16  5  2  0  0  0  0
 17 15  1  0  0  0  0
 18  8  1  0  0  0  0
 19 20  1  0  0  0  0
 19  2  1  0  0  0  0
 21 20  2  0  0  0  0
 22 24  1  0  0  0  0
 22 21  1  0  0  0  0
 23 19  2  0  0  0  0
 24 23  1  0  0  0  0
 26 25  1  0  0  0  0
 28 27  2  0  0  0  0
 28 30  1  0  0  0  0
 30 29  1  0  0  0  0
M  END
>  <MODEL>
9

>  <REMARK>
 VINA RESULT:      -6.2      2.972      5.967
  Name = 
  4 active torsions:
  status: ('A' for Active; 'I' for Inactive)
    1  A    between atoms: C_4  and  C_5
    2  A    between atoms: C_11  and  C_21
    3  A    between atoms: O_20  and  C_21
    4  A    between atoms: C_23  and  O_30
                            x       y       z     vdW  Elec       q    Type
                         _______ _______ _______ _____ _____    ______ ____

>  <TORSDO>
F 4

$$$$
