=
 OpenBabel11062421473D

 48 53  0  0  1  0  0  0  0  0999 V2000
  189.5430  174.7540  141.3920 O   0  0  0  0  0  0  0  0  0  0  0  0
  188.9070  173.6060  141.8840 C   0  0  0  0  0  2  0  0  0  0  0  0
  190.9360  174.5940  141.5670 C   0  0  2  0  0  3  0  0  0  0  0  0
  191.5250  173.2990  140.9450 C   0  0  1  0  0  3  0  0  0  0  0  0
  189.0080  171.6110  138.8120 O   0  0  0  0  0  0  0  0  0  0  0  0
  188.5500  172.7410  140.7740 N   0  0  0  0  0  2  0  0  0  0  0  0
  189.4460  172.3710  139.7170 C   0  0  0  0  0  0  0  0  0  0  0  0
  190.8520  172.9440  139.5910 C   0  0  2  0  0  3  0  0  0  0  0  0
  194.5080  175.2660  141.3900 O   0  0  0  0  0  0  0  0  0  0  0  0
  195.0600  172.9230  141.8010 C   0  0  2  0  0  3  0  0  0  0  0  0
  196.5760  174.8030  142.2720 O   0  0  0  0  0  1  0  0  0  0  0  0
  195.5720  174.3410  141.4160 C   0  0  2  0  0  3  0  0  0  0  0  0
  193.0600  173.3840  140.8410 C   0  0  1  0  0  3  0  0  0  0  0  0
  193.5600  174.7960  140.4570 C   0  0  0  0  0  2  0  0  0  0  0  0
  193.6700  172.9320  142.0270 O   0  0  0  0  0  0  0  0  0  0  0  0
  195.7670  172.2770  142.9630 C   0  0  0  0  0  0  0  0  0  0  0  0
  196.7930  171.6420  142.7680 O   0  0  0  0  0  0  0  0  0  0  0  0
  195.1740  172.3550  144.3510 C   0  0  1  0  0  3  0  0  0  0  0  0
  194.4090  170.1880  145.1800 C   0  0  0  0  0  3  0  0  0  0  0  0
  196.5400  170.9600  146.0690 C   0  0  0  0  0  3  0  0  0  0  0  0
  194.4800  168.9870  146.0830 C   0  0  0  0  0  2  0  0  0  0  0  0
  195.3570  171.1280  145.2030 C   0  0  0  0  0  0  0  0  0  0  0  0
  196.7340  169.8100  146.7130 C   0  0  0  0  0  3  0  0  0  0  0  0
  195.8030  168.7720  146.5900 O   0  0  0  0  0  0  0  0  0  0  0  0
  195.5070  173.5580  145.0560 O   0  0  0  0  0  0  0  0  0  0  0  0
  192.8410  176.2800  146.8470 C   0  0  0  0  0  3  0  0  0  0  0  0
  194.5950  174.4450  145.6490 C   0  0  0  0  0  0  0  0  0  0  0  0
  192.4320  174.9610  146.6340 C   0  0  0  0  0  3  0  0  0  0  0  0
  193.3050  174.0480  146.0360 C   0  0  0  0  0  3  0  0  0  0  0  0
  194.1210  176.6830  146.4640 C   0  0  0  0  0  3  0  0  0  0  0  0
  194.9940  175.7670  145.8680 C   0  0  0  0  0  3  0  0  0  0  0  0
  191.7290  172.0720  138.6750 C   0  0  0  0  0  2  0  0  0  0  0  0
  192.0120  172.7460  137.3390 C   0  0  0  0  0  1  0  0  0  0  0  0
  191.3530  174.7950  143.0290 C   0  0  0  0  0  2  0  0  0  0  0  0
  192.3780  176.9550  143.0960 O   0  0  0  0  0  0  0  0  0  0  0  0
  191.3950  176.2380  143.4200 C   0  0  0  0  0  0  0  0  0  0  0  0
  190.2890  176.7720  144.2340 C   0  0  0  0  0  3  0  0  0  0  0  0
  189.2630  177.5080  143.7960 C   0  0  0  0  0  3  0  0  0  0  0  0
  189.0630  177.9360  142.3790 C   0  0  0  0  0  2  0  0  0  0  0  0
  187.6980  178.0580  142.1040 O   0  0  0  0  0  0  0  0  0  0  0  0
  187.0950  178.0480  143.3190 N   0  0  0  0  0  2  0  0  0  0  0  0
  184.9770  178.4750  147.4370 C   0  0  0  0  0  2  0  0  0  0  0  0
  185.7480  178.4950  143.4850 C   0  0  0  0  0  0  0  0  0  0  0  0
  186.2510  178.4590  146.7420 C   0  0  0  0  0  2  0  0  0  0  0  0
  185.1330  178.4280  144.7670 N   0  0  0  0  0  0  0  0  0  0  0  0
  184.0110  178.3330  145.5590 O   0  0  0  0  0  0  0  0  0  0  0  0
  185.1000  178.9430  142.5040 O   0  0  0  0  0  0  0  0  0  0  0  0
  185.0550  177.7360  146.0850 C   0  0  0  0  0  0  0  0  0  0  0  0
  1  3  1  0  0  0  0
  1  2  1  0  0  0  0
  3 34  1  1  0  0  0
  4 13  1  6  0  0  0
  4  3  1  0  0  0  0
  5  7  2  0  0  0  0
  6  2  1  0  0  0  0
  7  6  1  0  0  0  0
  8 32  1  1  0  0  0
  8  7  1  0  0  0  0
  8  4  1  0  0  0  0
  9 12  1  0  0  0  0
 10 15  1  0  0  0  0
 10 16  1  1  0  0  0
 12 10  1  0  0  0  0
 12 11  1  1  0  0  0
 13 14  1  1  0  0  0
 13 15  1  0  0  0  0
 14  9  1  0  0  0  0
 17 16  2  0  0  0  0
 18 16  1  6  0  0  0
 18 25  1  0  0  0  0
 18 22  1  0  0  0  0
 19 22  2  0  0  0  0
 19 21  1  0  0  0  0
 20 23  2  0  0  0  0
 21 24  1  0  0  0  0
 22 20  1  0  0  0  0
 24 23  1  0  0  0  0
 25 27  1  0  0  0  0
 27 31  2  0  0  0  0
 27 29  1  0  0  0  0
 28 26  1  0  0  0  0
 29 28  2  0  0  0  0
 30 26  2  0  0  0  0
 31 30  1  0  0  0  0
 33 32  1  0  0  0  0
 34 36  1  0  0  0  0
 35 36  2  0  0  0  0
 36 37  1  0  0  0  0
 38 37  2  0  0  0  0
 39 38  1  0  0  0  0
 40 39  1  0  0  0  0
 40 41  1  0  0  0  0
 41 43  1  0  0  0  0
 43 45  1  0  0  0  0
 44 42  1  0  0  0  0
 45 46  1  0  0  0  0
 45 48  1  0  0  0  0
 46 48  1  0  0  0  0
 47 43  2  0  0  0  0
 48 44  1  0  0  0  0
 48 42  1  0  0  0  0
M  END
>  <MODEL>
1

>  <REMARK>
 VINA RESULT:      -7.3      0.000      0.000
  Name = 
  13 active torsions:
  status: ('A' for Active; 'I' for Inactive)
    1  A    between atoms: C_1  and  C_13
    2  A    between atoms: C_5  and  O_7
    3  A    between atoms: N_6  and  O_12
    4  A    between atoms: O_7  and  C_46
    5  A    between atoms: O_12  and  C_27
    6  A    between atoms: C_13  and  C_14
    7  A    between atoms: C_14  and  C_17
    8  A    between atoms: C_16  and  C_45
    9  A    between atoms: C_19  and  C_43
   10  A    between atoms: C_24  and  C_28
   11  A    between atoms: C_25  and  C_27
   12  A    between atoms: C_28  and  C_46
   13  A    between atoms: C_31  and  C_46
                            x       y       z     vdW  Elec       q    Type
                         _______ _______ _______ _____ _____    ______ ____

>  <TORSDO>
F 13

$$$$
=
 OpenBabel11062421473D

 48 53  0  0  1  0  0  0  0  0999 V2000
  187.3830  177.4660  147.2150 O   0  0  0  0  0  0  0  0  0  0  0  0
  186.2860  176.6000  147.1130 C   0  0  0  0  0  2  0  0  0  0  0  0
  188.3550  177.0580  146.2740 C   0  0  2  0  0  3  0  0  0  0  0  0
  187.8400  176.9510  144.8120 C   0  0  1  0  0  3  0  0  0  0  0  0
  184.4470  178.4100  144.5110 O   0  0  0  0  0  0  0  0  0  0  0  0
  185.2370  177.2400  146.3390 N   0  0  0  0  0  2  0  0  0  0  0  0
  185.4450  177.8920  145.0800 C   0  0  0  0  0  0  0  0  0  0  0  0
  186.8280  178.0770  144.4670 C   0  0  2  0  0  3  0  0  0  0  0  0
  191.3480  177.4710  144.1930 O   0  0  0  0  0  0  0  0  0  0  0  0
  190.5930  175.5930  142.8260 C   0  0  2  0  0  3  0  0  0  0  0  0
  192.9510  176.2330  143.1140 O   0  0  0  0  0  1  0  0  0  0  0  0
  191.6450  176.7210  143.0350 C   0  0  2  0  0  3  0  0  0  0  0  0
  189.0140  176.8810  143.8170 C   0  0  1  0  0  3  0  0  0  0  0  0
  190.0520  178.0060  144.0320 C   0  0  0  0  0  2  0  0  0  0  0  0
  189.6230  175.6120  143.8460 O   0  0  0  0  0  0  0  0  0  0  0  0
  191.1590  174.2070  142.6770 C   0  0  0  0  0  0  0  0  0  0  0  0
  191.3910  173.5390  143.6740 O   0  0  0  0  0  0  0  0  0  0  0  0
  191.5020  173.6690  141.3070 C   0  0  1  0  0  3  0  0  0  0  0  0
  190.5120  173.6490  139.0740 C   0  0  0  0  0  3  0  0  0  0  0  0
  189.0060  173.0640  140.8940 C   0  0  0  0  0  3  0  0  0  0  0  0
  189.3630  173.5540  138.1070 C   0  0  0  0  0  2  0  0  0  0  0  0
  190.3340  173.4570  140.3820 C   0  0  0  0  0  0  0  0  0  0  0  0
  188.0280  172.7630  140.0430 C   0  0  0  0  0  3  0  0  0  0  0  0
  188.2510  172.8420  138.6630 O   0  0  0  0  0  0  0  0  0  0  0  0
  192.5800  174.3640  140.6660 O   0  0  0  0  0  0  0  0  0  0  0  0
  196.7020  173.6240  141.0990 C   0  0  0  0  0  3  0  0  0  0  0  0
  193.9470  174.0940  140.8300 C   0  0  0  0  0  0  0  0  0  0  0  0
  195.7840  172.6870  141.5810 C   0  0  0  0  0  3  0  0  0  0  0  0
  194.4120  172.9220  141.4480 C   0  0  0  0  0  3  0  0  0  0  0  0
  196.2480  174.7920  140.4840 C   0  0  0  0  0  3  0  0  0  0  0  0
  194.8750  175.0240  140.3500 C   0  0  0  0  0  3  0  0  0  0  0  0
  186.7330  178.3820  142.9610 C   0  0  0  0  0  2  0  0  0  0  0  0
  186.0600  177.2570  142.1890 C   0  0  0  0  0  1  0  0  0  0  0  0
  189.1010  175.8010  146.7360 C   0  0  0  0  0  2  0  0  0  0  0  0
  190.7420  177.1600  147.8240 O   0  0  0  0  0  0  0  0  0  0  0  0
  190.4930  176.0960  147.1960 C   0  0  0  0  0  0  0  0  0  0  0  0
  191.5590  175.1410  146.8490 C   0  0  0  0  0  3  0  0  0  0  0  0
  192.8540  175.4240  146.6720 C   0  0  0  0  0  3  0  0  0  0  0  0
  193.4530  176.7880  146.7870 C   0  0  0  0  0  2  0  0  0  0  0  0
  194.4830  176.9380  145.8540 O   0  0  0  0  0  0  0  0  0  0  0  0
  195.0800  175.7220  145.7930 N   0  0  0  0  0  2  0  0  0  0  0  0
  196.9370  171.5050  145.1630 C   0  0  0  0  0  2  0  0  0  0  0  0
  196.0300  175.4080  144.7740 C   0  0  0  0  0  0  0  0  0  0  0  0
  195.8030  172.2480  145.6820 C   0  0  0  0  0  2  0  0  0  0  0  0
  196.6690  174.1370  144.7690 N   0  0  0  0  0  0  0  0  0  0  0  0
  197.7330  173.3270  144.4380 O   0  0  0  0  0  0  0  0  0  0  0  0
  196.3090  176.2510  143.8810 O   0  0  0  0  0  0  0  0  0  0  0  0
  197.1590  172.9770  145.5660 C   0  0  0  0  0  0  0  0  0  0  0  0
  2  1  1  0  0  0  0
  3 34  1  1  0  0  0
  3  1  1  0  0  0  0
  4 13  1  6  0  0  0
  4  3  1  0  0  0  0
  5  7  2  0  0  0  0
  6  2  1  0  0  0  0
  7  6  1  0  0  0  0
  8 32  1  6  0  0  0
  8  4  1  0  0  0  0
  8  7  1  0  0  0  0
 10 16  1  1  0  0  0
 10 12  1  0  0  0  0
 10 15  1  0  0  0  0
 12 11  1  1  0  0  0
 12  9  1  0  0  0  0
 13 15  1  0  0  0  0
 13 14  1  1  0  0  0
 14  9  1  0  0  0  0
 16 17  2  0  0  0  0
 18 25  1  6  0  0  0
 18 16  1  0  0  0  0
 19 22  2  0  0  0  0
 21 24  1  0  0  0  0
 21 19  1  0  0  0  0
 22 20  1  0  0  0  0
 22 18  1  0  0  0  0
 23 20  2  0  0  0  0
 24 23  1  0  0  0  0
 25 27  1  0  0  0  0
 26 28  1  0  0  0  0
 27 29  1  0  0  0  0
 29 28  2  0  0  0  0
 30 26  2  0  0  0  0
 31 30  1  0  0  0  0
 31 27  2  0  0  0  0
 33 32  1  0  0  0  0
 34 36  1  0  0  0  0
 36 35  2  0  0  0  0
 37 36  1  0  0  0  0
 38 39  1  0  0  0  0
 38 37  2  0  0  0  0
 40 39  1  0  0  0  0
 41 40  1  0  0  0  0
 42 48  1  0  0  0  0
 42 44  1  0  0  0  0
 43 41  1  0  0  0  0
 45 43  1  0  0  0  0
 45 48  1  0  0  0  0
 46 45  1  0  0  0  0
 46 48  1  0  0  0  0
 47 43  2  0  0  0  0
 48 44  1  0  0  0  0
M  END
>  <MODEL>
2

>  <REMARK>
 VINA RESULT:      -7.2      2.582      8.066
  Name = 
  13 active torsions:
  status: ('A' for Active; 'I' for Inactive)
    1  A    between atoms: C_1  and  C_13
    2  A    between atoms: C_5  and  O_7
    3  A    between atoms: N_6  and  O_12
    4  A    between atoms: O_7  and  C_46
    5  A    between atoms: O_12  and  C_27
    6  A    between atoms: C_13  and  C_14
    7  A    between atoms: C_14  and  C_17
    8  A    between atoms: C_16  and  C_45
    9  A    between atoms: C_19  and  C_43
   10  A    between atoms: C_24  and  C_28
   11  A    between atoms: C_25  and  C_27
   12  A    between atoms: C_28  and  C_46
   13  A    between atoms: C_31  and  C_46
                            x       y       z     vdW  Elec       q    Type
                         _______ _______ _______ _____ _____    ______ ____

>  <TORSDO>
F 13

$$$$
=
 OpenBabel11062421473D

 48 53  0  0  1  0  0  0  0  0999 V2000
  194.6500  175.6950  145.2300 O   0  0  0  0  0  0  0  0  0  0  0  0
  195.3140  176.2590  144.1320 C   0  0  0  0  0  2  0  0  0  0  0  0
  193.5950  174.8930  144.7420 C   0  0  2  0  0  3  0  0  0  0  0  0
  194.0220  173.8130  143.7110 C   0  0  1  0  0  3  0  0  0  0  0  0
  197.7150  173.5540  143.5430 O   0  0  0  0  0  0  0  0  0  0  0  0
  196.5290  175.5090  143.8670 N   0  0  0  0  0  2  0  0  0  0  0  0
  196.5940  174.0800  143.7780 C   0  0  0  0  0  0  0  0  0  0  0  0
  195.3960  173.1830  144.0640 C   0  0  2  0  0  3  0  0  0  0  0  0
  190.6610  172.7560  144.4530 O   0  0  0  0  0  0  0  0  0  0  0  0
  191.2420  171.9660  142.2170 C   0  0  2  0  0  3  0  0  0  0  0  0
  188.9780  171.8640  143.1720 O   0  0  0  0  0  1  0  0  0  0  0  0
  190.3400  171.7930  143.4730 C   0  0  2  0  0  3  0  0  0  0  0  0
  192.9140  172.7570  143.5250 C   0  0  1  0  0  3  0  0  0  0  0  0
  192.0240  172.5930  144.7780 C   0  0  0  0  0  2  0  0  0  0  0  0
  192.1400  173.0380  142.3820 O   0  0  0  0  0  0  0  0  0  0  0  0
  190.5070  172.1060  140.9110 C   0  0  0  0  0  0  0  0  0  0  0  0
  190.2280  171.1070  140.2650 O   0  0  0  0  0  0  0  0  0  0  0  0
  190.1770  173.4780  140.3690 C   0  0  1  0  0  3  0  0  0  0  0  0
  189.2900  173.7420  138.1080 C   0  0  0  0  0  3  0  0  0  0  0  0
  191.7180  173.7070  138.2860 C   0  0  0  0  0  3  0  0  0  0  0  0
  189.4120  173.8150  136.6100 C   0  0  0  0  0  2  0  0  0  0  0  0
  190.3710  173.6530  138.8870 C   0  0  0  0  0  0  0  0  0  0  0  0
  191.8580  173.9880  136.9920 C   0  0  0  0  0  3  0  0  0  0  0  0
  190.7260  174.2070  136.1960 O   0  0  0  0  0  0  0  0  0  0  0  0
  188.9130  173.9870  140.8140 O   0  0  0  0  0  0  0  0  0  0  0  0
  188.1370  177.8870  142.1970 C   0  0  0  0  0  3  0  0  0  0  0  0
  188.6710  175.2810  141.3010 C   0  0  0  0  0  0  0  0  0  0  0  0
  189.1210  177.1200  142.8280 C   0  0  0  0  0  3  0  0  0  0  0  0
  189.3850  175.8220  142.3820 C   0  0  0  0  0  3  0  0  0  0  0  0
  187.4220  177.3560  141.1220 C   0  0  0  0  0  3  0  0  0  0  0  0
  187.6900  176.0580  140.6760 C   0  0  0  0  0  3  0  0  0  0  0  0
  195.6010  171.7760  143.4720 C   0  0  0  0  0  2  0  0  0  0  0  0
  195.8420  170.7290  144.5510 C   0  0  0  0  0  1  0  0  0  0  0  0
  192.4120  175.7410  144.2590 C   0  0  0  0  0  2  0  0  0  0  0  0
  191.4100  177.6120  145.3630 O   0  0  0  0  0  0  0  0  0  0  0  0
  191.6650  176.3790  145.3870 C   0  0  0  0  0  0  0  0  0  0  0  0
  191.2900  175.5380  146.5380 C   0  0  0  0  0  3  0  0  0  0  0  0
  190.0510  175.3050  146.9820 C   0  0  0  0  0  3  0  0  0  0  0  0
  188.8070  175.8770  146.3840 C   0  0  0  0  0  2  0  0  0  0  0  0
  188.5450  177.1340  146.9350 O   0  0  0  0  0  0  0  0  0  0  0  0
  187.4880  177.6110  146.2330 N   0  0  0  0  0  2  0  0  0  0  0  0
  183.6650  178.8270  143.8820 C   0  0  0  0  0  2  0  0  0  0  0  0
  186.1810  177.6770  146.8060 C   0  0  0  0  0  0  0  0  0  0  0  0
  185.0020  178.2710  143.7870 C   0  0  0  0  0  2  0  0  0  0  0  0
  185.1050  178.2250  146.0530 N   0  0  0  0  0  0  0  0  0  0  0  0
  183.8830  178.8550  145.9870 O   0  0  0  0  0  0  0  0  0  0  0  0
  185.9760  177.2580  147.9760 O   0  0  0  0  0  0  0  0  0  0  0  0
  184.6760  179.1790  144.9920 C   0  0  0  0  0  0  0  0  0  0  0  0
  2  1  1  0  0  0  0
  3 34  1  6  0  0  0
  3  1  1  0  0  0  0
  4 13  1  1  0  0  0
  4  8  1  0  0  0  0
  4  3  1  0  0  0  0
  5  7  2  0  0  0  0
  6  2  1  0  0  0  0
  7  6  1  0  0  0  0
  7  8  1  0  0  0  0
  8 32  1  6  0  0  0
  9 14  1  0  0  0  0
 10 16  1  6  0  0  0
 10 15  1  0  0  0  0
 10 12  1  0  0  0  0
 12 11  1  6  0  0  0
 12  9  1  0  0  0  0
 13 14  1  1  0  0  0
 15 13  1  0  0  0  0
 17 16  2  0  0  0  0
 18 25  1  6  0  0  0
 18 16  1  0  0  0  0
 19 22  2  0  0  0  0
 20 22  1  0  0  0  0
 21 19  1  0  0  0  0
 22 18  1  0  0  0  0
 23 20  2  0  0  0  0
 24 21  1  0  0  0  0
 24 23  1  0  0  0  0
 25 27  1  0  0  0  0
 26 28  1  0  0  0  0
 27 29  1  0  0  0  0
 29 28  2  0  0  0  0
 30 26  2  0  0  0  0
 31 30  1  0  0  0  0
 31 27  2  0  0  0  0
 32 33  1  0  0  0  0
 34 36  1  0  0  0  0
 35 36  2  0  0  0  0
 36 37  1  0  0  0  0
 37 38  2  0  0  0  0
 39 40  1  0  0  0  0
 39 38  1  0  0  0  0
 41 43  1  0  0  0  0
 41 40  1  0  0  0  0
 42 48  1  0  0  0  0
 43 47  2  0  0  0  0
 44 42  1  0  0  0  0
 44 48  1  0  0  0  0
 45 43  1  0  0  0  0
 46 45  1  0  0  0  0
 48 46  1  0  0  0  0
 48 45  1  0  0  0  0
M  END
>  <MODEL>
3

>  <REMARK>
 VINA RESULT:      -7.0      2.524      6.576
  Name = 
  13 active torsions:
  status: ('A' for Active; 'I' for Inactive)
    1  A    between atoms: C_1  and  C_13
    2  A    between atoms: C_5  and  O_7
    3  A    between atoms: N_6  and  O_12
    4  A    between atoms: O_7  and  C_46
    5  A    between atoms: O_12  and  C_27
    6  A    between atoms: C_13  and  C_14
    7  A    between atoms: C_14  and  C_17
    8  A    between atoms: C_16  and  C_45
    9  A    between atoms: C_19  and  C_43
   10  A    between atoms: C_24  and  C_28
   11  A    between atoms: C_25  and  C_27
   12  A    between atoms: C_28  and  C_46
   13  A    between atoms: C_31  and  C_46
                            x       y       z     vdW  Elec       q    Type
                         _______ _______ _______ _____ _____    ______ ____

>  <TORSDO>
F 13

$$$$
=
 OpenBabel11062421473D

 48 53  0  0  1  0  0  0  0  0999 V2000
  187.5930  177.4770  147.1130 O   0  0  0  0  0  0  0  0  0  0  0  0
  186.4640  176.6690  147.3010 C   0  0  0  0  0  2  0  0  0  0  0  0
  188.4770  176.8020  146.2410 C   0  0  2  0  0  3  0  0  0  0  0  0
  187.8500  176.3660  144.8890 C   0  0  1  0  0  3  0  0  0  0  0  0
  184.4940  177.8780  144.4570 O   0  0  0  0  0  0  0  0  0  0  0  0
  185.3810  177.1530  146.4630 N   0  0  0  0  0  2  0  0  0  0  0  0
  185.5150  177.4650  145.0700 C   0  0  0  0  0  0  0  0  0  0  0  0
  186.8530  177.4240  144.3420 C   0  0  2  0  0  3  0  0  0  0  0  0
  191.3100  176.5680  143.9150 O   0  0  0  0  0  0  0  0  0  0  0  0
  190.4140  174.4330  143.1400 C   0  0  2  0  0  3  0  0  0  0  0  0
  192.8000  175.0300  143.0880 O   0  0  0  0  0  1  0  0  0  0  0  0
  191.5020  175.5340  142.9760 C   0  0  2  0  0  3  0  0  0  0  0  0
  188.9420  175.9950  143.8670 C   0  0  1  0  0  3  0  0  0  0  0  0
  190.0170  177.0950  143.7100 C   0  0  0  0  0  2  0  0  0  0  0  0
  189.5250  174.7530  144.1840 O   0  0  0  0  0  0  0  0  0  0  0  0
  190.9370  173.0330  143.3180 C   0  0  0  0  0  0  0  0  0  0  0  0
  190.9740  172.5410  144.4360 O   0  0  0  0  0  0  0  0  0  0  0  0
  191.4780  172.2680  142.1330 C   0  0  1  0  0  3  0  0  0  0  0  0
  193.8260  171.5990  142.0620 C   0  0  0  0  0  3  0  0  0  0  0  0
  192.3140  170.0130  143.1220 C   0  0  0  0  0  3  0  0  0  0  0  0
  194.9590  170.6260  142.2460 C   0  0  0  0  0  2  0  0  0  0  0  0
  192.5820  171.2930  142.4390 C   0  0  0  0  0  0  0  0  0  0  0  0
  193.3270  169.2310  143.4910 C   0  0  0  0  0  3  0  0  0  0  0  0
  194.6450  169.6110  143.2080 O   0  0  0  0  0  0  0  0  0  0  0  0
  190.4600  171.6890  141.3050 O   0  0  0  0  0  0  0  0  0  0  0  0
  189.6700  172.6170  137.2740 C   0  0  0  0  0  3  0  0  0  0  0  0
  190.1930  172.0290  139.9690 C   0  0  0  0  0  0  0  0  0  0  0  0
  189.8970  173.6540  138.1840 C   0  0  0  0  0  3  0  0  0  0  0  0
  190.1560  173.3600  139.5260 C   0  0  0  0  0  3  0  0  0  0  0  0
  189.7040  171.2900  137.7080 C   0  0  0  0  0  3  0  0  0  0  0  0
  189.9650  170.9990  139.0500 C   0  0  0  0  0  3  0  0  0  0  0  0
  186.6550  177.3550  142.8170 C   0  0  0  0  0  2  0  0  0  0  0  0
  186.9440  178.6880  142.1400 C   0  0  0  0  0  1  0  0  0  0  0  0
  189.2150  175.6600  146.9510 C   0  0  0  0  0  2  0  0  0  0  0  0
  190.8570  177.1560  147.8380 O   0  0  0  0  0  0  0  0  0  0  0  0
  190.6130  176.0290  147.3320 C   0  0  0  0  0  0  0  0  0  0  0  0
  191.6890  175.0640  147.0510 C   0  0  0  0  0  3  0  0  0  0  0  0
  192.9450  175.3540  146.6970 C   0  0  0  0  0  3  0  0  0  0  0  0
  193.4820  176.7350  146.5100 C   0  0  0  0  0  2  0  0  0  0  0  0
  194.4800  176.7320  145.5330 O   0  0  0  0  0  0  0  0  0  0  0  0
  195.0410  175.5000  145.6090 N   0  0  0  0  0  2  0  0  0  0  0  0
  196.8400  171.2150  145.4250 C   0  0  0  0  0  2  0  0  0  0  0  0
  196.1260  175.1210  144.7600 C   0  0  0  0  0  0  0  0  0  0  0  0
  195.6640  172.0080  145.7350 C   0  0  0  0  0  2  0  0  0  0  0  0
  196.7190  173.8350  144.8990 N   0  0  0  0  0  0  0  0  0  0  0  0
  197.7940  172.9860  144.7670 O   0  0  0  0  0  0  0  0  0  0  0  0
  196.5650  175.9210  143.8920 O   0  0  0  0  0  0  0  0  0  0  0  0
  197.0440  172.6970  145.8040 C   0  0  0  0  0  0  0  0  0  0  0  0
  1  2  1  0  0  0  0
  3 34  1  1  0  0  0
  3  1  1  0  0  0  0
  4 13  1  6  0  0  0
  4  3  1  0  0  0  0
  5  7  2  0  0  0  0
  6  2  1  0  0  0  0
  7  6  1  0  0  0  0
  8 32  1  6  0  0  0
  8  4  1  0  0  0  0
  8  7  1  0  0  0  0
 10 16  1  1  0  0  0
 10 15  1  0  0  0  0
 12 11  1  1  0  0  0
 12 10  1  0  0  0  0
 12  9  1  0  0  0  0
 13 14  1  1  0  0  0
 13 15  1  0  0  0  0
 14  9  1  0  0  0  0
 16 17  2  0  0  0  0
 18 25  1  1  0  0  0
 18 22  1  0  0  0  0
 18 16  1  0  0  0  0
 19 21  1  0  0  0  0
 19 22  2  0  0  0  0
 20 23  2  0  0  0  0
 21 24  1  0  0  0  0
 22 20  1  0  0  0  0
 24 23  1  0  0  0  0
 26 30  2  0  0  0  0
 26 28  1  0  0  0  0
 27 25  1  0  0  0  0
 28 29  2  0  0  0  0
 29 27  1  0  0  0  0
 30 31  1  0  0  0  0
 31 27  2  0  0  0  0
 33 32  1  0  0  0  0
 34 36  1  0  0  0  0
 36 35  2  0  0  0  0
 37 36  1  0  0  0  0
 38 37  2  0  0  0  0
 39 38  1  0  0  0  0
 40 41  1  0  0  0  0
 40 39  1  0  0  0  0
 42 44  1  0  0  0  0
 42 48  1  0  0  0  0
 43 45  1  0  0  0  0
 43 41  1  0  0  0  0
 44 48  1  0  0  0  0
 45 48  1  0  0  0  0
 46 45  1  0  0  0  0
 46 48  1  0  0  0  0
 47 43  2  0  0  0  0
M  END
>  <MODEL>
4

>  <REMARK>
 VINA RESULT:      -6.8      2.796      7.810
  Name = 
  13 active torsions:
  status: ('A' for Active; 'I' for Inactive)
    1  A    between atoms: C_1  and  C_13
    2  A    between atoms: C_5  and  O_7
    3  A    between atoms: N_6  and  O_12
    4  A    between atoms: O_7  and  C_46
    5  A    between atoms: O_12  and  C_27
    6  A    between atoms: C_13  and  C_14
    7  A    between atoms: C_14  and  C_17
    8  A    between atoms: C_16  and  C_45
    9  A    between atoms: C_19  and  C_43
   10  A    between atoms: C_24  and  C_28
   11  A    between atoms: C_25  and  C_27
   12  A    between atoms: C_28  and  C_46
   13  A    between atoms: C_31  and  C_46
                            x       y       z     vdW  Elec       q    Type
                         _______ _______ _______ _____ _____    ______ ____

>  <TORSDO>
F 13

$$$$
=
 OpenBabel11062421473D

 48 53  0  0  1  0  0  0  0  0999 V2000
  196.3140  172.5490  144.1810 O   0  0  0  0  0  0  0  0  0  0  0  0
  196.8210  173.3610  145.2040 C   0  0  0  0  0  2  0  0  0  0  0  0
  194.9180  172.7570  144.1050 C   0  0  2  0  0  3  0  0  0  0  0  0
  194.4910  174.2400  143.9280 C   0  0  1  0  0  3  0  0  0  0  0  0
  197.4350  176.3710  143.2060 O   0  0  0  0  0  0  0  0  0  0  0  0
  197.4260  174.5460  144.6220 N   0  0  0  0  0  2  0  0  0  0  0  0
  196.7990  175.3680  143.6290 C   0  0  0  0  0  0  0  0  0  0  0  0
  195.4590  175.0170  142.9950 C   0  0  2  0  0  3  0  0  0  0  0  0
  191.4880  172.5320  142.9130 O   0  0  0  0  0  0  0  0  0  0  0  0
  190.8530  174.5750  144.0930 C   0  0  2  0  0  3  0  0  0  0  0  0
  189.2720  172.8050  143.4470 O   0  0  0  0  0  1  0  0  0  0  0  0
  190.4450  173.4680  143.0780 C   0  0  2  0  0  3  0  0  0  0  0  0
  193.0210  174.3410  143.4750 C   0  0  1  0  0  3  0  0  0  0  0  0
  192.6250  173.2380  142.4670 C   0  0  0  0  0  2  0  0  0  0  0  0
  192.1540  174.3540  144.5850 O   0  0  0  0  0  0  0  0  0  0  0  0
  189.8980  174.7840  145.2360 C   0  0  0  0  0  0  0  0  0  0  0  0
  189.8480  173.9620  146.1390 O   0  0  0  0  0  0  0  0  0  0  0  0
  188.9560  175.9660  145.2330 C   0  0  1  0  0  3  0  0  0  0  0  0
  189.1600  177.5920  143.4220 C   0  0  0  0  0  3  0  0  0  0  0  0
  187.5480  175.8060  143.0530 C   0  0  0  0  0  3  0  0  0  0  0  0
  188.7470  178.2200  142.1180 C   0  0  0  0  0  2  0  0  0  0  0  0
  188.5700  176.4840  143.8740 C   0  0  0  0  0  0  0  0  0  0  0  0
  187.3190  176.2150  141.8060 C   0  0  0  0  0  3  0  0  0  0  0  0
  188.0290  177.3030  141.2840 O   0  0  0  0  0  0  0  0  0  0  0  0
  187.8210  175.8030  146.0930 O   0  0  0  0  0  0  0  0  0  0  0  0
  185.1690  178.8580  147.2610 C   0  0  0  0  0  3  0  0  0  0  0  0
  186.9150  176.8110  146.4620 C   0  0  0  0  0  0  0  0  0  0  0  0
  184.6980  177.8090  146.4670 C   0  0  0  0  0  3  0  0  0  0  0  0
  185.5680  176.7910  146.0680 C   0  0  0  0  0  3  0  0  0  0  0  0
  186.5070  178.8850  147.6570 C   0  0  0  0  0  3  0  0  0  0  0  0
  187.3760  177.8640  147.2590 C   0  0  0  0  0  3  0  0  0  0  0  0
  194.8190  176.2470  142.3270 C   0  0  0  0  0  2  0  0  0  0  0  0
  194.6840  176.0780  140.8200 C   0  0  0  0  0  1  0  0  0  0  0  0
  194.1750  172.0570  145.2490 C   0  0  0  0  0  2  0  0  0  0  0  0
  195.3670  170.0030  145.5340 O   0  0  0  0  0  0  0  0  0  0  0  0
  194.2960  170.5680  145.1860 C   0  0  0  0  0  0  0  0  0  0  0  0
  193.1570  169.7970  144.6590 C   0  0  0  0  0  3  0  0  0  0  0  0
  192.9670  169.4270  143.3890 C   0  0  0  0  0  3  0  0  0  0  0  0
  193.8890  169.7470  142.2590 C   0  0  0  0  0  2  0  0  0  0  0  0
  193.3960  169.2010  141.0700 O   0  0  0  0  0  0  0  0  0  0  0  0
  192.7500  170.2240  140.4570 N   0  0  0  0  0  2  0  0  0  0  0  0
  190.4050  173.4220  138.0290 C   0  0  0  0  0  2  0  0  0  0  0  0
  191.3390  170.1890  140.2390 C   0  0  0  0  0  0  0  0  0  0  0  0
  191.6910  172.7830  138.2380 C   0  0  0  0  0  2  0  0  0  0  0  0
  190.6890  171.3000  139.6320 N   0  0  0  0  0  0  0  0  0  0  0  0
  189.5670  172.0710  139.4270 O   0  0  0  0  0  0  0  0  0  0  0  0
  190.6650  169.1830  140.5840 O   0  0  0  0  0  0  0  0  0  0  0  0
  190.6770  172.7720  139.4020 C   0  0  0  0  0  0  0  0  0  0  0  0
  1  2  1  0  0  0  0
  3  1  1  0  0  0  0
  3 34  1  1  0  0  0
  4 13  1  6  0  0  0
  4  3  1  0  0  0  0
  5  7  2  0  0  0  0
  6  2  1  0  0  0  0
  7  6  1  0  0  0  0
  8 32  1  1  0  0  0
  8  7  1  0  0  0  0
  8  4  1  0  0  0  0
  9 12  1  0  0  0  0
 10 15  1  0  0  0  0
 10 16  1  1  0  0  0
 12 11  1  1  0  0  0
 12 10  1  0  0  0  0
 13 14  1  6  0  0  0
 13 15  1  0  0  0  0
 14  9  1  0  0  0  0
 16 17  2  0  0  0  0
 18 16  1  6  0  0  0
 18 25  1  0  0  0  0
 19 22  2  0  0  0  0
 20 22  1  0  0  0  0
 21 19  1  0  0  0  0
 22 18  1  0  0  0  0
 23 20  2  0  0  0  0
 24 23  1  0  0  0  0
 24 21  1  0  0  0  0
 25 27  1  0  0  0  0
 26 30  1  0  0  0  0
 27 31  1  0  0  0  0
 28 26  2  0  0  0  0
 29 27  2  0  0  0  0
 29 28  1  0  0  0  0
 31 30  2  0  0  0  0
 33 32  1  0  0  0  0
 36 34  1  0  0  0  0
 36 35  2  0  0  0  0
 37 36  1  0  0  0  0
 38 37  2  0  0  0  0
 39 38  1  0  0  0  0
 40 39  1  0  0  0  0
 41 40  1  0  0  0  0
 42 44  1  0  0  0  0
 42 48  1  0  0  0  0
 43 41  1  0  0  0  0
 43 47  2  0  0  0  0
 44 48  1  0  0  0  0
 45 43  1  0  0  0  0
 46 45  1  0  0  0  0
 48 46  1  0  0  0  0
 48 45  1  0  0  0  0
M  END
>  <MODEL>
5

>  <REMARK>
 VINA RESULT:      -6.7      2.857      8.517
  Name = 
  13 active torsions:
  status: ('A' for Active; 'I' for Inactive)
    1  A    between atoms: C_1  and  C_13
    2  A    between atoms: C_5  and  O_7
    3  A    between atoms: N_6  and  O_12
    4  A    between atoms: O_7  and  C_46
    5  A    between atoms: O_12  and  C_27
    6  A    between atoms: C_13  and  C_14
    7  A    between atoms: C_14  and  C_17
    8  A    between atoms: C_16  and  C_45
    9  A    between atoms: C_19  and  C_43
   10  A    between atoms: C_24  and  C_28
   11  A    between atoms: C_25  and  C_27
   12  A    between atoms: C_28  and  C_46
   13  A    between atoms: C_31  and  C_46
                            x       y       z     vdW  Elec       q    Type
                         _______ _______ _______ _____ _____    ______ ____

>  <TORSDO>
F 13

$$$$
=
 OpenBabel11062421473D

 48 53  0  0  1  0  0  0  0  0999 V2000
  186.9180  177.7690  147.1100 O   0  0  0  0  0  0  0  0  0  0  0  0
  185.6160  177.2510  147.0690 C   0  0  0  0  0  2  0  0  0  0  0  0
  187.6790  177.1270  146.1070 C   0  0  2  0  0  3  0  0  0  0  0  0
  187.0720  177.2070  144.6800 C   0  0  1  0  0  3  0  0  0  0  0  0
  184.2210  179.5730  144.6010 O   0  0  0  0  0  0  0  0  0  0  0  0
  184.7500  178.1810  146.3670 N   0  0  0  0  0  2  0  0  0  0  0  0
  185.0630  178.7800  145.1030 C   0  0  0  0  0  0  0  0  0  0  0  0
  186.4040  178.5820  144.4080 C   0  0  2  0  0  3  0  0  0  0  0  0
  190.5350  177.1460  143.6950 O   0  0  0  0  0  0  0  0  0  0  0  0
  189.4180  175.2110  142.7080 C   0  0  2  0  0  3  0  0  0  0  0  0
  191.8540  175.5560  142.6940 O   0  0  0  0  0  1  0  0  0  0  0  0
  190.6160  176.2030  142.6490 C   0  0  2  0  0  3  0  0  0  0  0  0
  188.1190  176.8330  143.6130 C   0  0  1  0  0  3  0  0  0  0  0  0
  189.3050  177.8240  143.5610 C   0  0  0  0  0  2  0  0  0  0  0  0
  188.5670  175.5100  143.7900 O   0  0  0  0  0  0  0  0  0  0  0  0
  189.7890  173.7530  142.7310 C   0  0  0  0  0  0  0  0  0  0  0  0
  189.7410  173.1350  143.7850 O   0  0  0  0  0  0  0  0  0  0  0  0
  190.2860  173.0760  141.4750 C   0  0  1  0  0  3  0  0  0  0  0  0
  192.4020  171.9430  141.9280 C   0  0  0  0  0  3  0  0  0  0  0  0
  190.4760  170.4860  141.6190 C   0  0  0  0  0  3  0  0  0  0  0  0
  193.2860  170.7310  142.0490 C   0  0  0  0  0  2  0  0  0  0  0  0
  191.0940  171.8250  141.6890 C   0  0  0  0  0  0  0  0  0  0  0  0
  191.1900  169.4070  141.9370 C   0  0  0  0  0  3  0  0  0  0  0  0
  192.5330  169.5400  142.3110 O   0  0  0  0  0  0  0  0  0  0  0  0
  189.2750  172.9020  140.4730 O   0  0  0  0  0  0  0  0  0  0  0  0
  189.3180  174.4080  136.5410 C   0  0  0  0  0  3  0  0  0  0  0  0
  189.3210  173.4000  139.1620 C   0  0  0  0  0  0  0  0  0  0  0  0
  190.4570  173.7720  137.0440 C   0  0  0  0  0  3  0  0  0  0  0  0
  190.4580  173.2720  138.3490 C   0  0  0  0  0  3  0  0  0  0  0  0
  188.1830  174.5390  137.3430 C   0  0  0  0  0  3  0  0  0  0  0  0
  188.1850  174.0360  138.6480 C   0  0  0  0  0  3  0  0  0  0  0  0
  186.3140  178.9390  142.9130 C   0  0  0  0  0  2  0  0  0  0  0  0
  185.3510  178.0300  142.1620 C   0  0  0  0  0  1  0  0  0  0  0  0
  188.0630  175.6990  146.5120 C   0  0  0  0  0  2  0  0  0  0  0  0
  189.6710  174.6360  147.9280 O   0  0  0  0  0  0  0  0  0  0  0  0
  189.3770  175.6370  147.2230 C   0  0  0  0  0  0  0  0  0  0  0  0
  190.2810  176.7950  147.1180 C   0  0  0  0  0  3  0  0  0  0  0  0
  191.5470  176.7800  146.6880 C   0  0  0  0  0  3  0  0  0  0  0  0
  192.2830  175.5580  146.2420 C   0  0  0  0  0  2  0  0  0  0  0  0
  193.5970  175.5930  146.7140 O   0  0  0  0  0  0  0  0  0  0  0  0
  194.3700  175.5760  145.6000 N   0  0  0  0  0  2  0  0  0  0  0  0
  196.7310  175.8400  141.6020 C   0  0  0  0  0  2  0  0  0  0  0  0
  195.0460  176.7480  145.1440 C   0  0  0  0  0  0  0  0  0  0  0  0
  195.6650  175.1650  142.3210 C   0  0  0  0  0  2  0  0  0  0  0  0
  195.8830  176.6810  143.9950 N   0  0  0  0  0  0  0  0  0  0  0  0
  196.9470  177.1450  143.2540 O   0  0  0  0  0  0  0  0  0  0  0  0
  194.9090  177.8410  145.7550 O   0  0  0  0  0  0  0  0  0  0  0  0
  196.7790  175.8470  143.1440 C   0  0  0  0  0  0  0  0  0  0  0  0
  2  1  1  0  0  0  0
  3 34  1  1  0  0  0
  3  1  1  0  0  0  0
  4 13  1  6  0  0  0
  4  3  1  0  0  0  0
  5  7  2  0  0  0  0
  6  2  1  0  0  0  0
  7  6  1  0  0  0  0
  8 32  1  6  0  0  0
  8  4  1  0  0  0  0
  8  7  1  0  0  0  0
 10 16  1  1  0  0  0
 10 15  1  0  0  0  0
 12 11  1  1  0  0  0
 12 10  1  0  0  0  0
 12  9  1  0  0  0  0
 13 14  1  1  0  0  0
 13 15  1  0  0  0  0
 14  9  1  0  0  0  0
 16 17  2  0  0  0  0
 18 25  1  6  0  0  0
 18 22  1  0  0  0  0
 18 16  1  0  0  0  0
 19 21  1  0  0  0  0
 20 22  1  0  0  0  0
 20 23  2  0  0  0  0
 21 24  1  0  0  0  0
 22 19  2  0  0  0  0
 23 24  1  0  0  0  0
 26 28  2  0  0  0  0
 26 30  1  0  0  0  0
 27 25  1  0  0  0  0
 28 29  1  0  0  0  0
 29 27  2  0  0  0  0
 30 31  2  0  0  0  0
 31 27  1  0  0  0  0
 33 32  1  0  0  0  0
 34 36  1  0  0  0  0
 36 35  2  0  0  0  0
 37 36  1  0  0  0  0
 38 37  2  0  0  0  0
 39 38  1  0  0  0  0
 39 40  1  0  0  0  0
 41 40  1  0  0  0  0
 42 44  1  0  0  0  0
 42 48  1  0  0  0  0
 43 41  1  0  0  0  0
 43 47  2  0  0  0  0
 44 48  1  0  0  0  0
 45 43  1  0  0  0  0
 46 45  1  0  0  0  0
 48 46  1  0  0  0  0
 48 45  1  0  0  0  0
M  END
>  <MODEL>
6

>  <REMARK>
 VINA RESULT:      -6.7      2.927      8.092
  Name = 
  13 active torsions:
  status: ('A' for Active; 'I' for Inactive)
    1  A    between atoms: C_1  and  C_13
    2  A    between atoms: C_5  and  O_7
    3  A    between atoms: N_6  and  O_12
    4  A    between atoms: O_7  and  C_46
    5  A    between atoms: O_12  and  C_27
    6  A    between atoms: C_13  and  C_14
    7  A    between atoms: C_14  and  C_17
    8  A    between atoms: C_16  and  C_45
    9  A    between atoms: C_19  and  C_43
   10  A    between atoms: C_24  and  C_28
   11  A    between atoms: C_25  and  C_27
   12  A    between atoms: C_28  and  C_46
   13  A    between atoms: C_31  and  C_46
                            x       y       z     vdW  Elec       q    Type
                         _______ _______ _______ _____ _____    ______ ____

>  <TORSDO>
F 13

$$$$
=
 OpenBabel11062421473D

 48 53  0  0  1  0  0  0  0  0999 V2000
  189.8400  174.5400  141.6200 O   0  0  0  0  0  0  0  0  0  0  0  0
  189.4120  173.3730  142.2680 C   0  0  0  0  0  2  0  0  0  0  0  0
  191.2080  174.7330  141.9200 C   0  0  2  0  0  3  0  0  0  0  0  0
  192.1230  173.5230  141.5910 C   0  0  1  0  0  3  0  0  0  0  0  0
  190.2740  170.9800  139.6300 O   0  0  0  0  0  0  0  0  0  0  0  0
  189.3730  172.2790  141.3130 N   0  0  0  0  0  2  0  0  0  0  0  0
  190.4370  171.9570  140.4090 C   0  0  0  0  0  0  0  0  0  0  0  0
  191.6940  172.8080  140.2800 C   0  0  2  0  0  3  0  0  0  0  0  0
  194.5460  176.1820  141.7390 O   0  0  0  0  0  0  0  0  0  0  0  0
  195.5170  174.1950  142.7740 C   0  0  2  0  0  3  0  0  0  0  0  0
  196.5330  176.4340  142.8610 O   0  0  0  0  0  1  0  0  0  0  0  0
  195.7680  175.5650  142.0790 C   0  0  2  0  0  3  0  0  0  0  0  0
  193.6070  173.9390  141.5820 C   0  0  1  0  0  3  0  0  0  0  0  0
  193.8460  175.3000  140.8890 C   0  0  0  0  0  2  0  0  0  0  0  0
  194.1390  173.9300  142.8860 O   0  0  0  0  0  0  0  0  0  0  0  0
  196.1860  174.0200  144.1110 C   0  0  0  0  0  0  0  0  0  0  0  0
  197.4020  174.1170  144.1950 O   0  0  0  0  0  0  0  0  0  0  0  0
  195.3680  173.6570  145.3280 C   0  0  1  0  0  3  0  0  0  0  0  0
  194.9470  176.0080  145.8400 C   0  0  0  0  0  3  0  0  0  0  0  0
  193.1650  174.4660  146.4500 C   0  0  0  0  0  3  0  0  0  0  0  0
  194.1670  177.1370  146.4580 C   0  0  0  0  0  2  0  0  0  0  0  0
  194.4920  174.7540  145.8710 C   0  0  0  0  0  0  0  0  0  0  0  0
  192.3640  175.4690  146.8060 C   0  0  0  0  0  3  0  0  0  0  0  0
  192.7900  176.7940  146.6560 O   0  0  0  0  0  0  0  0  0  0  0  0
  194.6640  172.4140  145.2030 O   0  0  0  0  0  0  0  0  0  0  0  0
  195.9120  168.6360  146.5790 C   0  0  0  0  0  3  0  0  0  0  0  0
  195.1100  171.1650  145.6610 C   0  0  0  0  0  0  0  0  0  0  0  0
  196.8150  169.7030  146.5940 C   0  0  0  0  0  3  0  0  0  0  0  0
  196.4150  170.9610  146.1360 C   0  0  0  0  0  3  0  0  0  0  0  0
  194.6120  168.8300  146.1080 C   0  0  0  0  0  3  0  0  0  0  0  0
  194.2130  170.0910  145.6520 C   0  0  0  0  0  3  0  0  0  0  0  0
  192.8330  172.0220  139.6050 C   0  0  0  0  0  2  0  0  0  0  0  0
  193.1980  172.5970  138.2430 C   0  0  0  0  0  1  0  0  0  0  0  0
  191.4080  175.2600  143.3460 C   0  0  0  0  0  2  0  0  0  0  0  0
  191.9370  177.5530  142.9150 O   0  0  0  0  0  0  0  0  0  0  0  0
  191.1520  176.7290  143.4560 C   0  0  0  0  0  0  0  0  0  0  0  0
  189.9990  177.1780  144.2550 C   0  0  0  0  0  3  0  0  0  0  0  0
  188.8050  177.5550  143.7850 C   0  0  0  0  0  3  0  0  0  0  0  0
  188.4310  177.5990  142.3400 C   0  0  0  0  0  2  0  0  0  0  0  0
  187.0600  177.3710  142.1940 O   0  0  0  0  0  0  0  0  0  0  0  0
  186.5400  177.5590  143.4320 N   0  0  0  0  0  2  0  0  0  0  0  0
  184.8130  178.6630  147.6060 C   0  0  0  0  0  2  0  0  0  0  0  0
  185.3460  178.3180  143.6300 C   0  0  0  0  0  0  0  0  0  0  0  0
  186.0080  178.3150  146.8590 C   0  0  0  0  0  2  0  0  0  0  0  0
  184.8050  178.4570  144.9390 N   0  0  0  0  0  0  0  0  0  0  0  0
  183.7380  178.6660  145.7830 O   0  0  0  0  0  0  0  0  0  0  0  0
  184.7660  178.8610  142.6540 O   0  0  0  0  0  0  0  0  0  0  0  0
  184.6420  177.8650  146.2970 C   0  0  0  0  0  0  0  0  0  0  0  0
  1  3  1  0  0  0  0
  1  2  1  0  0  0  0
  3 34  1  1  0  0  0
  4 13  1  6  0  0  0
  4  3  1  0  0  0  0
  5  7  2  0  0  0  0
  6  2  1  0  0  0  0
  7  6  1  0  0  0  0
  8 32  1  1  0  0  0
  8  7  1  0  0  0  0
  8  4  1  0  0  0  0
  9 12  1  0  0  0  0
 10 15  1  0  0  0  0
 10 16  1  1  0  0  0
 12 10  1  0  0  0  0
 12 11  1  1  0  0  0
 13 14  1  1  0  0  0
 13 15  1  0  0  0  0
 14  9  1  0  0  0  0
 16 17  2  0  0  0  0
 18 16  1  6  0  0  0
 18 22  1  0  0  0  0
 19 22  2  0  0  0  0
 19 21  1  0  0  0  0
 20 23  2  0  0  0  0
 21 24  1  0  0  0  0
 22 20  1  0  0  0  0
 24 23  1  0  0  0  0
 25 18  1  0  0  0  0
 25 27  1  0  0  0  0
 26 28  1  0  0  0  0
 27 29  1  0  0  0  0
 29 28  2  0  0  0  0
 30 26  2  0  0  0  0
 31 27  2  0  0  0  0
 31 30  1  0  0  0  0
 33 32  1  0  0  0  0
 34 36  1  0  0  0  0
 35 36  2  0  0  0  0
 36 37  1  0  0  0  0
 38 37  2  0  0  0  0
 39 38  1  0  0  0  0
 40 39  1  0  0  0  0
 40 41  1  0  0  0  0
 41 43  1  0  0  0  0
 43 45  1  0  0  0  0
 44 42  1  0  0  0  0
 45 46  1  0  0  0  0
 45 48  1  0  0  0  0
 46 48  1  0  0  0  0
 47 43  2  0  0  0  0
 48 44  1  0  0  0  0
 48 42  1  0  0  0  0
M  END
>  <MODEL>
7

>  <REMARK>
 VINA RESULT:      -6.7      1.170      3.390
  Name = 
  13 active torsions:
  status: ('A' for Active; 'I' for Inactive)
    1  A    between atoms: C_1  and  C_13
    2  A    between atoms: C_5  and  O_7
    3  A    between atoms: N_6  and  O_12
    4  A    between atoms: O_7  and  C_46
    5  A    between atoms: O_12  and  C_27
    6  A    between atoms: C_13  and  C_14
    7  A    between atoms: C_14  and  C_17
    8  A    between atoms: C_16  and  C_45
    9  A    between atoms: C_19  and  C_43
   10  A    between atoms: C_24  and  C_28
   11  A    between atoms: C_25  and  C_27
   12  A    between atoms: C_28  and  C_46
   13  A    between atoms: C_31  and  C_46
                            x       y       z     vdW  Elec       q    Type
                         _______ _______ _______ _____ _____    ______ ____

>  <TORSDO>
F 13

$$$$
=
 OpenBabel11062421473D

 48 53  0  0  1  0  0  0  0  0999 V2000
  192.3380  175.4160  147.0360 O   0  0  0  0  0  0  0  0  0  0  0  0
  193.1260  176.4600  146.5310 C   0  0  0  0  0  2  0  0  0  0  0  0
  191.6240  174.8430  145.9590 C   0  0  2  0  0  3  0  0  0  0  0  0
  192.5070  174.3750  144.7700 C   0  0  1  0  0  3  0  0  0  0  0  0
  196.0970  174.4910  145.6810 O   0  0  0  0  0  0  0  0  0  0  0  0
  194.4950  176.0010  146.3810 N   0  0  0  0  0  2  0  0  0  0  0  0
  194.8700  174.7720  145.7450 C   0  0  0  0  0  0  0  0  0  0  0  0
  193.8480  173.7570  145.2490 C   0  0  2  0  0  3  0  0  0  0  0  0
  189.4540  172.5840  144.1090 O   0  0  0  0  0  0  0  0  0  0  0  0
  190.4400  173.2420  141.9740 C   0  0  2  0  0  3  0  0  0  0  0  0
  188.1850  172.2900  142.2190 O   0  0  0  0  0  1  0  0  0  0  0  0
  189.4840  172.2770  142.7330 C   0  0  2  0  0  3  0  0  0  0  0  0
  191.7200  173.4380  143.8340 C   0  0  1  0  0  3  0  0  0  0  0  0
  190.7740  172.4810  144.5960 C   0  0  0  0  0  2  0  0  0  0  0  0
  191.0230  174.1730  142.8560 O   0  0  0  0  0  0  0  0  0  0  0  0
  189.8320  173.9580  140.7980 C   0  0  0  0  0  0  0  0  0  0  0  0
  189.1430  174.9500  140.9850 O   0  0  0  0  0  0  0  0  0  0  0  0
  190.0140  173.4130  139.4000 C   0  0  1  0  0  3  0  0  0  0  0  0
  190.0610  170.9750  139.2550 C   0  0  0  0  0  3  0  0  0  0  0  0
  192.2360  172.0670  139.2840 C   0  0  0  0  0  3  0  0  0  0  0  0
  190.7450  169.6350  139.2620 C   0  0  0  0  0  2  0  0  0  0  0  0
  190.7610  172.1100  139.3040 C   0  0  0  0  0  0  0  0  0  0  0  0
  192.8650  170.9120  139.0720 C   0  0  0  0  0  3  0  0  0  0  0  0
  192.1270  169.7350  138.8940 O   0  0  0  0  0  0  0  0  0  0  0  0
  188.8100  173.4050  138.6210 O   0  0  0  0  0  0  0  0  0  0  0  0
  187.9440  176.0700  135.4780 C   0  0  0  0  0  3  0  0  0  0  0  0
  188.4930  174.2990  137.5870 C   0  0  0  0  0  0  0  0  0  0  0  0
  187.1310  176.0650  136.6150 C   0  0  0  0  0  3  0  0  0  0  0  0
  187.4040  175.1820  137.6640 C   0  0  0  0  0  3  0  0  0  0  0  0
  189.0290  175.1950  135.3930 C   0  0  0  0  0  3  0  0  0  0  0  0
  189.3020  174.3140  136.4450 C   0  0  0  0  0  3  0  0  0  0  0  0
  194.4770  172.7850  144.2340 C   0  0  0  0  0  2  0  0  0  0  0  0
  194.7190  171.4060  144.8330 C   0  0  0  0  0  1  0  0  0  0  0  0
  190.4520  175.7290  145.5180 C   0  0  0  0  0  2  0  0  0  0  0  0
  189.0400  174.9250  147.2740 O   0  0  0  0  0  0  0  0  0  0  0  0
  189.4340  175.9120  146.5980 C   0  0  0  0  0  0  0  0  0  0  0  0
  188.8730  177.2580  146.8050 C   0  0  0  0  0  3  0  0  0  0  0  0
  187.6020  177.5550  147.0940 C   0  0  0  0  0  3  0  0  0  0  0  0
  186.5050  176.5530  147.2480 C   0  0  0  0  0  2  0  0  0  0  0  0
  185.3520  177.0020  146.5990 O   0  0  0  0  0  0  0  0  0  0  0  0
  185.7260  177.1850  145.3090 N   0  0  0  0  0  2  0  0  0  0  0  0
  186.5880  177.6480  140.7620 C   0  0  0  0  0  2  0  0  0  0  0  0
  185.0070  178.0630  144.4420 C   0  0  0  0  0  0  0  0  0  0  0  0
  186.6840  176.7720  141.9160 C   0  0  0  0  0  2  0  0  0  0  0  0
  185.4560  178.2640  143.1060 N   0  0  0  0  0  0  0  0  0  0  0  0
  185.5430  179.0370  141.9710 O   0  0  0  0  0  0  0  0  0  0  0  0
  183.9810  178.6660  144.8530 O   0  0  0  0  0  0  0  0  0  0  0  0
  186.6090  178.2950  142.1630 C   0  0  0  0  0  0  0  0  0  0  0  0
  2  1  1  0  0  0  0
  3 34  1  6  0  0  0
  3  1  1  0  0  0  0
  4 13  1  1  0  0  0
  4  8  1  0  0  0  0
  4  3  1  0  0  0  0
  5  7  2  0  0  0  0
  6  2  1  0  0  0  0
  7  6  1  0  0  0  0
  8 32  1  6  0  0  0
  8  7  1  0  0  0  0
  9 14  1  0  0  0  0
 10 16  1  6  0  0  0
 10 12  1  0  0  0  0
 10 15  1  0  0  0  0
 12 11  1  6  0  0  0
 12  9  1  0  0  0  0
 13 14  1  1  0  0  0
 15 13  1  0  0  0  0
 16 17  2  0  0  0  0
 18 25  1  1  0  0  0
 18 16  1  0  0  0  0
 19 21  1  0  0  0  0
 19 22  2  0  0  0  0
 20 22  1  0  0  0  0
 22 18  1  0  0  0  0
 23 20  2  0  0  0  0
 24 23  1  0  0  0  0
 24 21  1  0  0  0  0
 26 28  1  0  0  0  0
 27 29  1  0  0  0  0
 27 25  1  0  0  0  0
 28 29  2  0  0  0  0
 30 26  2  0  0  0  0
 30 31  1  0  0  0  0
 31 27  2  0  0  0  0
 32 33  1  0  0  0  0
 34 36  1  0  0  0  0
 36 37  1  0  0  0  0
 36 35  2  0  0  0  0
 37 38  2  0  0  0  0
 38 39  1  0  0  0  0
 40 39  1  0  0  0  0
 41 40  1  0  0  0  0
 42 44  1  0  0  0  0
 42 48  1  0  0  0  0
 43 47  2  0  0  0  0
 43 41  1  0  0  0  0
 44 48  1  0  0  0  0
 45 43  1  0  0  0  0
 46 48  1  0  0  0  0
 46 45  1  0  0  0  0
 48 45  1  0  0  0  0
M  END
>  <MODEL>
8

>  <REMARK>
 VINA RESULT:      -6.6      2.779      7.107
  Name = 
  13 active torsions:
  status: ('A' for Active; 'I' for Inactive)
    1  A    between atoms: C_1  and  C_13
    2  A    between atoms: C_5  and  O_7
    3  A    between atoms: N_6  and  O_12
    4  A    between atoms: O_7  and  C_46
    5  A    between atoms: O_12  and  C_27
    6  A    between atoms: C_13  and  C_14
    7  A    between atoms: C_14  and  C_17
    8  A    between atoms: C_16  and  C_45
    9  A    between atoms: C_19  and  C_43
   10  A    between atoms: C_24  and  C_28
   11  A    between atoms: C_25  and  C_27
   12  A    between atoms: C_28  and  C_46
   13  A    between atoms: C_31  and  C_46
                            x       y       z     vdW  Elec       q    Type
                         _______ _______ _______ _____ _____    ______ ____

>  <TORSDO>
F 13

$$$$
=
 OpenBabel11062421473D

 48 53  0  0  1  0  0  0  0  0999 V2000
  194.5110  173.9250  145.5190 O   0  0  0  0  0  0  0  0  0  0  0  0
  195.4340  174.2850  144.5280 C   0  0  0  0  0  2  0  0  0  0  0  0
  193.3120  173.5310  144.8820 C   0  0  2  0  0  3  0  0  0  0  0  0
  193.4790  172.4130  143.8180 C   0  0  1  0  0  3  0  0  0  0  0  0
  196.8900  170.9710  143.9600 O   0  0  0  0  0  0  0  0  0  0  0  0
  196.3660  173.1920  144.3190 N   0  0  0  0  0  2  0  0  0  0  0  0
  195.9780  171.8240  144.1330 C   0  0  0  0  0  0  0  0  0  0  0  0
  194.5330  171.3560  144.2450 C   0  0  2  0  0  3  0  0  0  0  0  0
  189.8920  172.5310  144.1130 O   0  0  0  0  0  0  0  0  0  0  0  0
  190.4570  171.5920  141.9300 C   0  0  2  0  0  3  0  0  0  0  0  0
  188.1840  172.2480  142.6050 O   0  0  0  0  0  1  0  0  0  0  0  0
  189.3990  171.7290  143.0620 C   0  0  2  0  0  3  0  0  0  0  0  0
  192.1190  171.7850  143.4590 C   0  0  1  0  0  3  0  0  0  0  0  0
  191.0740  171.9250  144.5900 C   0  0  0  0  0  2  0  0  0  0  0  0
  191.6300  172.3050  142.2450 O   0  0  0  0  0  0  0  0  0  0  0  0
  189.9790  171.9680  140.5530 C   0  0  0  0  0  0  0  0  0  0  0  0
  189.7190  171.0900  139.7440 O   0  0  0  0  0  0  0  0  0  0  0  0
  189.8890  173.4230  140.1520 C   0  0  1  0  0  3  0  0  0  0  0  0
  191.4220  173.7620  138.2810 C   0  0  0  0  0  3  0  0  0  0  0  0
  189.0550  173.9590  137.7470 C   0  0  0  0  0  3  0  0  0  0  0  0
  191.7620  174.1470  136.8670 C   0  0  0  0  0  2  0  0  0  0  0  0
  190.1560  173.7120  138.7000 C   0  0  0  0  0  0  0  0  0  0  0  0
  189.3170  174.0880  136.4480 C   0  0  0  0  0  3  0  0  0  0  0  0
  190.6380  174.0140  135.9880 O   0  0  0  0  0  0  0  0  0  0  0  0
  188.7070  174.0810  140.6270 O   0  0  0  0  0  0  0  0  0  0  0  0
  188.5990  177.8920  142.4140 C   0  0  0  0  0  3  0  0  0  0  0  0
  188.6510  175.3620  141.1990 C   0  0  0  0  0  0  0  0  0  0  0  0
  187.6800  177.5810  141.4080 C   0  0  0  0  0  3  0  0  0  0  0  0
  187.7070  176.3220  140.8030 C   0  0  0  0  0  3  0  0  0  0  0  0
  189.5420  176.9430  142.8130 C   0  0  0  0  0  3  0  0  0  0  0  0
  189.5660  175.6820  142.2080 C   0  0  0  0  0  3  0  0  0  0  0  0
  194.3390  169.9840  143.5730 C   0  0  0  0  0  2  0  0  0  0  0  0
  194.1460  168.8680  144.5920 C   0  0  0  0  0  1  0  0  0  0  0  0
  192.5230  174.7380  144.3600 C   0  0  0  0  0  2  0  0  0  0  0  0
  192.6780  176.9800  145.1770 O   0  0  0  0  0  0  0  0  0  0  0  0
  192.3280  175.7920  145.4020 C   0  0  0  0  0  0  0  0  0  0  0  0
  191.7700  175.3890  146.7050 C   0  0  0  0  0  3  0  0  0  0  0  0
  190.4780  175.3710  147.0450 C   0  0  0  0  0  3  0  0  0  0  0  0
  189.3530  175.7770  146.1500 C   0  0  0  0  0  2  0  0  0  0  0  0
  188.1350  175.6390  146.8200 O   0  0  0  0  0  0  0  0  0  0  0  0
  187.2770  176.4560  146.1600 N   0  0  0  0  0  2  0  0  0  0  0  0
  183.9990  178.9580  144.0110 C   0  0  0  0  0  2  0  0  0  0  0  0
  186.1770  177.0770  146.8260 C   0  0  0  0  0  0  0  0  0  0  0  0
  184.9900  177.9070  143.8660 C   0  0  0  0  0  2  0  0  0  0  0  0
  185.3250  177.9630  146.1100 N   0  0  0  0  0  0  0  0  0  0  0  0
  184.4500  179.0260  146.0780 O   0  0  0  0  0  0  0  0  0  0  0  0
  185.9590  176.8480  148.0450 O   0  0  0  0  0  0  0  0  0  0  0  0
  185.1870  178.9420  144.9950 C   0  0  0  0  0  0  0  0  0  0  0  0
  2  1  1  0  0  0  0
  3 34  1  6  0  0  0
  3  1  1  0  0  0  0
  4 13  1  1  0  0  0
  4  8  1  0  0  0  0
  4  3  1  0  0  0  0
  5  7  2  0  0  0  0
  6  2  1  0  0  0  0
  7  8  1  0  0  0  0
  7  6  1  0  0  0  0
  8 32  1  6  0  0  0
  9 14  1  0  0  0  0
 10 16  1  6  0  0  0
 10 15  1  0  0  0  0
 10 12  1  0  0  0  0
 12 11  1  6  0  0  0
 12  9  1  0  0  0  0
 13 14  1  1  0  0  0
 15 13  1  0  0  0  0
 17 16  2  0  0  0  0
 18 16  1  6  0  0  0
 18 25  1  0  0  0  0
 19 22  2  0  0  0  0
 20 22  1  0  0  0  0
 21 19  1  0  0  0  0
 22 18  1  0  0  0  0
 23 20  2  0  0  0  0
 24 23  1  0  0  0  0
 24 21  1  0  0  0  0
 25 27  1  0  0  0  0
 26 30  1  0  0  0  0
 27 31  1  0  0  0  0
 28 26  2  0  0  0  0
 29 27  2  0  0  0  0
 29 28  1  0  0  0  0
 31 30  2  0  0  0  0
 32 33  1  0  0  0  0
 34 36  1  0  0  0  0
 35 36  2  0  0  0  0
 36 37  1  0  0  0  0
 37 38  2  0  0  0  0
 39 40  1  0  0  0  0
 39 38  1  0  0  0  0
 41 40  1  0  0  0  0
 41 43  1  0  0  0  0
 42 48  1  0  0  0  0
 43 47  2  0  0  0  0
 44 42  1  0  0  0  0
 44 48  1  0  0  0  0
 45 43  1  0  0  0  0
 46 45  1  0  0  0  0
 48 46  1  0  0  0  0
 48 45  1  0  0  0  0
M  END
>  <MODEL>
9

>  <REMARK>
 VINA RESULT:      -6.5      2.467      6.690
  Name = 
  13 active torsions:
  status: ('A' for Active; 'I' for Inactive)
    1  A    between atoms: C_1  and  C_13
    2  A    between atoms: C_5  and  O_7
    3  A    between atoms: N_6  and  O_12
    4  A    between atoms: O_7  and  C_46
    5  A    between atoms: O_12  and  C_27
    6  A    between atoms: C_13  and  C_14
    7  A    between atoms: C_14  and  C_17
    8  A    between atoms: C_16  and  C_45
    9  A    between atoms: C_19  and  C_43
   10  A    between atoms: C_24  and  C_28
   11  A    between atoms: C_25  and  C_27
   12  A    between atoms: C_28  and  C_46
   13  A    between atoms: C_31  and  C_46
                            x       y       z     vdW  Elec       q    Type
                         _______ _______ _______ _____ _____    ______ ____

>  <TORSDO>
F 13

$$$$
