=
 OpenBabel11062422093D

 27 30  0  0  1  0  0  0  0  0999 V2000
  189.1870  173.4640  141.6020 C   0  0  2  0  0  3  0  0  0  0  0  0
  187.8290  174.1160  141.8330 C   0  0  0  0  0  2  0  0  0  0  0  0
  189.1930  172.1780  142.1380 O   0  0  0  0  0  1  0  0  0  0  0  0
  192.5280  176.2540  143.0360 C   0  0  0  0  0  3  0  0  0  0  0  0
  191.3940  177.2250  142.8140 C   0  0  0  0  0  2  0  0  0  0  0  0
  188.0620  175.6150  142.0050 C   0  0  2  0  0  0  0  0  0  0  0  0
  189.5790  175.7110  142.2320 C   0  0  2  0  0  3  0  0  0  0  0  0
  192.5860  175.0040  142.5370 C   0  0  0  0  0  3  0  0  0  0  0  0
  186.7770  177.1290  140.3470 C   0  0  0  0  0  3  0  0  0  0  0  0
  186.4060  178.3050  142.4740 C   0  0  0  0  0  0  0  0  0  0  0  0
  187.0940  177.5680  143.3480 C   0  0  0  0  0  3  0  0  0  0  0  0
  185.7430  177.6490  141.2990 C   0  0  1  0  0  3  0  0  0  0  0  0
  187.1980  176.0770  143.1950 C   0  0  0  0  0  2  0  0  0  0  0  0
  190.1750  174.3360  142.3370 C   0  0  2  0  0  3  0  0  0  0  0  0
  190.1270  176.6310  143.2300 N   0  0  0  0  0  0  0  0  0  0  0  0
  191.5400  174.3580  141.6610 C   0  0  0  0  0  2  0  0  0  0  0  0
  184.9220  178.5610  140.6350 O   0  0  0  0  0  1  0  0  0  0  0  0
  186.3340  179.6510  142.6480 F   0  0  0  0  0  0  0  0  0  0  0  0
  187.7600  176.2680  140.6670 C   0  0  0  0  0  3  0  0  0  0  0  0
  188.2110  177.0220  147.2160 C   0  0  0  0  0  0  0  0  0  0  0  0
  187.2390  177.6870  147.8840 F   0  0  0  0  0  0  0  0  0  0  0  0
  189.8330  176.5500  144.6400 C   0  0  0  0  0  0  0  0  0  0  0  0
  188.1120  175.7010  147.0760 C   0  0  0  0  0  3  0  0  0  0  0  0
  189.8250  175.2210  145.3050 C   0  0  0  0  0  3  0  0  0  0  0  0
  189.4310  177.7700  146.7900 C   0  0  0  0  0  2  0  0  0  0  0  0
  189.6350  177.6900  145.3130 C   0  0  0  0  0  3  0  0  0  0  0  0
  189.0810  174.8520  146.3550 C   0  0  0  0  0  3  0  0  0  0  0  0
  1  2  1  0  0  0  0
  1  3  1  1  0  0  0
  1 14  1  0  0  0  0
  2  6  1  0  0  0  0
  5  4  1  0  0  0  0
  5 15  1  0  0  0  0
  6 19  1  6  0  0  0
  6  7  1  0  0  0  0
  6 13  1  0  0  0  0
  7 14  1  0  0  0  0
  7 15  1  1  0  0  0
  8  4  2  0  0  0  0
  9 19  2  0  0  0  0
  9 12  1  0  0  0  0
 10 18  1  0  0  0  0
 10 11  2  0  0  0  0
 12 17  1  6  0  0  0
 12 10  1  0  0  0  0
 13 11  1  0  0  0  0
 14 16  1  6  0  0  0
 15 22  1  0  0  0  0
 16  8  1  0  0  0  0
 20 21  1  0  0  0  0
 22 24  1  0  0  0  0
 22 26  2  0  0  0  0
 23 20  2  0  0  0  0
 24 27  2  0  0  0  0
 25 20  1  0  0  0  0
 26 25  1  0  0  0  0
 27 23  1  0  0  0  0
M  END
>  <MODEL>
1

>  <REMARK>
 VINA RESULT:      -7.6      0.000      0.000
  Name = 
  1 active torsions:
  status: ('A' for Active; 'I' for Inactive)
    1  A    between atoms: C_7  and  N_21
                            x       y       z     vdW  Elec       q    Type
                         _______ _______ _______ _____ _____    ______ ____

>  <TORSDO>
F 1

$$$$
=
 OpenBabel11062422093D

 27 30  0  0  1  0  0  0  0  0999 V2000
  187.9480  176.9850  142.2220 C   0  0  2  0  0  3  0  0  0  0  0  0
  188.9590  175.9370  141.7730 C   0  0  0  0  0  2  0  0  0  0  0  0
  188.2180  178.2020  141.6010 O   0  0  0  0  0  1  0  0  0  0  0  0
  187.7120  177.0730  146.7980 C   0  0  0  0  0  3  0  0  0  0  0  0
  188.2690  175.6930  146.5480 C   0  0  0  0  0  2  0  0  0  0  0  0
  189.1770  174.9780  142.9410 C   0  0  2  0  0  0  0  0  0  0  0  0
  188.5610  175.7290  144.1320 C   0  0  2  0  0  3  0  0  0  0  0  0
  187.0980  177.8400  145.8750 C   0  0  0  0  0  3  0  0  0  0  0  0
  188.6940  172.4890  142.4300 C   0  0  0  0  0  3  0  0  0  0  0  0
  190.8200  172.3340  143.6550 C   0  0  0  0  0  0  0  0  0  0  0  0
  191.0770  173.6050  143.9710 C   0  0  0  0  0  3  0  0  0  0  0  0
  190.1130  172.0080  142.3730 C   0  0  1  0  0  3  0  0  0  0  0  0
  190.6940  174.7270  143.0480 C   0  0  0  0  0  2  0  0  0  0  0  0
  188.1420  177.1100  143.7130 C   0  0  2  0  0  3  0  0  0  0  0  0
  189.2180  175.7200  145.4400 N   0  0  0  0  0  0  0  0  0  0  0  0
  186.8470  177.4530  144.4380 C   0  0  0  0  0  2  0  0  0  0  0  0
  190.1250  170.6320  142.1480 O   0  0  0  0  0  1  0  0  0  0  0  0
  191.1830  171.3470  144.5160 F   0  0  0  0  0  0  0  0  0  0  0  0
  188.3150  173.7550  142.6790 C   0  0  0  0  0  3  0  0  0  0  0  0
  193.5840  176.1490  146.1160 C   0  0  0  0  0  0  0  0  0  0  0  0
  194.7020  175.4480  146.4240 F   0  0  0  0  0  0  0  0  0  0  0  0
  190.5380  176.2520  145.6750 C   0  0  0  0  0  0  0  0  0  0  0  0
  193.5060  176.7540  144.9320 C   0  0  0  0  0  3  0  0  0  0  0  0
  191.0640  177.3130  144.7780 C   0  0  0  0  0  3  0  0  0  0  0  0
  192.5460  176.3430  147.1700 C   0  0  0  0  0  2  0  0  0  0  0  0
  191.2200  175.8090  146.7390 C   0  0  0  0  0  3  0  0  0  0  0  0
  192.3450  177.5290  144.4530 C   0  0  0  0  0  3  0  0  0  0  0  0
  1  3  1  6  0  0  0
  1 14  1  0  0  0  0
  2  1  1  0  0  0  0
  5  4  1  0  0  0  0
  6  2  1  6  0  0  0
  6 13  1  0  0  0  0
  6  7  1  0  0  0  0
  7 15  1  1  0  0  0
  8  4  2  0  0  0  0
  9 19  2  0  0  0  0
 10 11  2  0  0  0  0
 10 18  1  0  0  0  0
 12 17  1  1  0  0  0
 12  9  1  0  0  0  0
 12 10  1  0  0  0  0
 13 11  1  0  0  0  0
 14  7  1  0  0  0  0
 14 16  1  1  0  0  0
 15 22  1  0  0  0  0
 15  5  1  0  0  0  0
 16  8  1  0  0  0  0
 19  6  1  0  0  0  0
 20 21  1  0  0  0  0
 20 25  1  0  0  0  0
 22 26  2  0  0  0  0
 23 20  2  0  0  0  0
 24 22  1  0  0  0  0
 26 25  1  0  0  0  0
 27 24  2  0  0  0  0
 27 23  1  0  0  0  0
M  END
>  <MODEL>
2

>  <REMARK>
 VINA RESULT:      -7.5      2.938      5.434
  Name = 
  1 active torsions:
  status: ('A' for Active; 'I' for Inactive)
    1  A    between atoms: C_7  and  N_21
                            x       y       z     vdW  Elec       q    Type
                         _______ _______ _______ _____ _____    ______ ____

>  <TORSDO>
F 1

$$$$
=
 OpenBabel11062422093D

 27 30  0  0  1  0  0  0  0  0999 V2000
  193.1670  172.6970  144.3060 C   0  0  2  0  0  3  0  0  0  0  0  0
  191.7640  172.4670  143.7560 C   0  0  0  0  0  2  0  0  0  0  0  0
  193.3980  171.8510  145.3880 O   0  0  0  0  0  1  0  0  0  0  0  0
  193.8340  177.1660  145.0720 C   0  0  0  0  0  3  0  0  0  0  0  0
  192.7120  177.1940  144.0640 C   0  0  0  0  0  2  0  0  0  0  0  0
  191.2590  173.8010  143.2130 C   0  0  2  0  0  0  0  0  0  0  0  0
  192.2460  174.8180  143.8060 C   0  0  2  0  0  3  0  0  0  0  0  0
  194.6330  176.1080  145.3130 C   0  0  0  0  0  3  0  0  0  0  0  0
  190.5620  173.7850  140.7220 C   0  0  0  0  0  3  0  0  0  0  0  0
  188.7020  175.0270  141.7430 C   0  0  0  0  0  0  0  0  0  0  0  0
  189.0530  175.0880  143.0290 C   0  0  0  0  0  3  0  0  0  0  0  0
  189.0770  173.8300  140.9200 C   0  0  1  0  0  3  0  0  0  0  0  0
  189.8000  173.9620  143.6860 C   0  0  0  0  0  2  0  0  0  0  0  0
  193.1830  174.1350  144.7610 C   0  0  2  0  0  3  0  0  0  0  0  0
  191.7730  176.1060  144.3170 N   0  0  0  0  0  0  0  0  0  0  0  0
  194.5590  174.7730  144.6130 C   0  0  0  0  0  2  0  0  0  0  0  0
  188.4460  173.8800  139.6770 O   0  0  0  0  0  1  0  0  0  0  0  0
  188.0250  176.0660  141.1870 F   0  0  0  0  0  0  0  0  0  0  0  0
  191.4750  173.7790  141.7090 C   0  0  0  0  0  3  0  0  0  0  0  0
  188.0810  176.3730  146.7680 C   0  0  0  0  0  0  0  0  0  0  0  0
  186.7390  176.5310  146.6820 F   0  0  0  0  0  0  0  0  0  0  0  0
  190.8430  176.2380  145.4120 C   0  0  0  0  0  0  0  0  0  0  0  0
  188.5660  175.2350  147.2630 C   0  0  0  0  0  3  0  0  0  0  0  0
  190.9830  175.3520  146.5960 C   0  0  0  0  0  3  0  0  0  0  0  0
  188.9640  177.5320  146.4450 C   0  0  0  0  0  2  0  0  0  0  0  0
  189.9190  177.2050  145.3460 C   0  0  0  0  0  3  0  0  0  0  0  0
  190.0010  174.9140  147.3940 C   0  0  0  0  0  3  0  0  0  0  0  0
  1 14  1  0  0  0  0
  1  3  1  1  0  0  0
  2  1  1  0  0  0  0
  4  8  2  0  0  0  0
  5 15  1  0  0  0  0
  5  4  1  0  0  0  0
  6 19  1  6  0  0  0
  6 13  1  0  0  0  0
  6  2  1  0  0  0  0
  6  7  1  0  0  0  0
  7 15  1  1  0  0  0
  7 14  1  0  0  0  0
  9 12  1  0  0  0  0
  9 19  2  0  0  0  0
 10 11  2  0  0  0  0
 11 13  1  0  0  0  0
 12 17  1  6  0  0  0
 12 10  1  0  0  0  0
 14 16  1  6  0  0  0
 15 22  1  0  0  0  0
 16  8  1  0  0  0  0
 18 10  1  0  0  0  0
 20 23  2  0  0  0  0
 21 20  1  0  0  0  0
 22 24  1  0  0  0  0
 23 27  1  0  0  0  0
 24 27  2  0  0  0  0
 25 20  1  0  0  0  0
 26 22  2  0  0  0  0
 26 25  1  0  0  0  0
M  END
>  <MODEL>
3

>  <REMARK>
 VINA RESULT:      -7.1      2.359      3.522
  Name = 
  1 active torsions:
  status: ('A' for Active; 'I' for Inactive)
    1  A    between atoms: C_7  and  N_21
                            x       y       z     vdW  Elec       q    Type
                         _______ _______ _______ _____ _____    ______ ____

>  <TORSDO>
F 1

$$$$
=
 OpenBabel11062422093D

 27 30  0  0  1  0  0  0  0  0999 V2000
  191.4680  176.0680  147.3950 C   0  0  2  0  0  3  0  0  0  0  0  0
  192.6740  175.3380  146.8150 C   0  0  0  0  0  2  0  0  0  0  0  0
  190.8750  175.2910  148.3880 O   0  0  0  0  0  1  0  0  0  0  0  0
  188.7060  177.4620  144.0150 C   0  0  0  0  0  3  0  0  0  0  0  0
  190.0190  177.3010  143.2890 C   0  0  0  0  0  2  0  0  0  0  0  0
  192.7870  175.7340  145.3460 C   0  0  2  0  0  0  0  0  0  0  0  0
  191.4270  176.3870  145.0510 C   0  0  2  0  0  3  0  0  0  0  0  0
  188.5660  177.5510  145.3530 C   0  0  0  0  0  3  0  0  0  0  0  0
  195.0460  176.7910  144.6590 C   0  0  0  0  0  3  0  0  0  0  0  0
  194.6630  175.2110  142.8140 C   0  0  0  0  0  0  0  0  0  0  0  0
  193.4790  174.6760  143.1190 C   0  0  0  0  0  3  0  0  0  0  0  0
  195.6050  175.6200  143.9080 C   0  0  1  0  0  3  0  0  0  0  0  0
  193.0750  174.4470  144.5480 C   0  0  0  0  0  2  0  0  0  0  0  0
  190.5170  176.2450  146.2380 C   0  0  2  0  0  3  0  0  0  0  0  0
  190.7350  176.1310  143.7870 N   0  0  0  0  0  0  0  0  0  0  0  0
  189.6910  177.5200  146.3570 C   0  0  0  0  0  2  0  0  0  0  0  0
  196.8470  175.9630  143.3750 O   0  0  0  0  0  1  0  0  0  0  0  0
  194.9930  175.4010  141.5090 F   0  0  0  0  0  0  0  0  0  0  0  0
  193.8430  176.8230  145.2590 C   0  0  0  0  0  3  0  0  0  0  0  0
  190.5250  172.0830  141.9770 C   0  0  0  0  0  0  0  0  0  0  0  0
  191.1410  171.2640  141.0910 F   0  0  0  0  0  0  0  0  0  0  0  0
  190.2970  174.8230  143.3650 C   0  0  0  0  0  0  0  0  0  0  0  0
  190.4820  171.7290  143.2610 C   0  0  0  0  0  3  0  0  0  0  0  0
  189.7860  173.8660  144.3800 C   0  0  0  0  0  3  0  0  0  0  0  0
  189.7880  173.2750  141.4630 C   0  0  0  0  0  2  0  0  0  0  0  0
  190.3120  174.5410  142.0560 C   0  0  0  0  0  3  0  0  0  0  0  0
  189.8680  172.5300  144.3380 C   0  0  0  0  0  3  0  0  0  0  0  0
  1  3  1  1  0  0  0
  2  1  1  0  0  0  0
  4  8  2  0  0  0  0
  5 15  1  0  0  0  0
  5  4  1  0  0  0  0
  6 13  1  6  0  0  0
  6  2  1  0  0  0  0
  7 15  1  6  0  0  0
  7  6  1  0  0  0  0
  7 14  1  0  0  0  0
  8 16  1  0  0  0  0
  9 19  2  0  0  0  0
 10 11  2  0  0  0  0
 10 12  1  0  0  0  0
 11 13  1  0  0  0  0
 12 17  1  6  0  0  0
 12  9  1  0  0  0  0
 14 16  1  1  0  0  0
 14  1  1  0  0  0  0
 18 10  1  0  0  0  0
 19  6  1  0  0  0  0
 20 23  2  0  0  0  0
 21 20  1  0  0  0  0
 22 15  1  0  0  0  0
 22 24  1  0  0  0  0
 23 27  1  0  0  0  0
 25 20  1  0  0  0  0
 25 26  1  0  0  0  0
 26 22  2  0  0  0  0
 27 24  2  0  0  0  0
M  END
>  <MODEL>
4

>  <REMARK>
 VINA RESULT:      -7.1      4.121      6.807
  Name = 
  1 active torsions:
  status: ('A' for Active; 'I' for Inactive)
    1  A    between atoms: C_7  and  N_21
                            x       y       z     vdW  Elec       q    Type
                         _______ _______ _______ _____ _____    ______ ____

>  <TORSDO>
F 1

$$$$
=
 OpenBabel11062422093D

 27 30  0  0  1  0  0  0  0  0999 V2000
  186.7510  176.9460  145.8560 C   0  0  2  0  0  3  0  0  0  0  0  0
  187.8600  176.0210  146.3450 C   0  0  0  0  0  2  0  0  0  0  0  0
  185.5110  176.3380  146.0390 O   0  0  0  0  0  1  0  0  0  0  0  0
  187.6740  178.3900  141.6060 C   0  0  0  0  0  3  0  0  0  0  0  0
  189.0460  178.0010  142.1010 C   0  0  0  0  0  2  0  0  0  0  0  0
  189.0860  176.2730  145.4710 C   0  0  2  0  0  0  0  0  0  0  0  0
  188.5160  177.0670  144.2850 C   0  0  2  0  0  3  0  0  0  0  0  0
  186.6010  178.6090  142.3910 C   0  0  0  0  0  3  0  0  0  0  0  0
  191.2250  176.9700  146.7480 C   0  0  0  0  0  3  0  0  0  0  0  0
  192.1140  175.3010  145.1760 C   0  0  0  0  0  0  0  0  0  0  0  0
  191.0370  174.9500  144.4710 C   0  0  0  0  0  3  0  0  0  0  0  0
  191.9740  175.6770  146.6220 C   0  0  1  0  0  3  0  0  0  0  0  0
  189.6760  174.8960  145.1060 C   0  0  0  0  0  2  0  0  0  0  0  0
  187.0190  177.1440  144.3850 C   0  0  2  0  0  3  0  0  0  0  0  0
  188.9690  176.7960  142.9190 N   0  0  0  0  0  0  0  0  0  0  0  0
  186.5820  178.5190  143.8980 C   0  0  0  0  0  2  0  0  0  0  0  0
  193.2310  175.8130  147.2110 O   0  0  0  0  0  1  0  0  0  0  0  0
  193.3280  175.3360  144.5650 F   0  0  0  0  0  0  0  0  0  0  0  0
  190.0000  177.2070  146.2470 C   0  0  0  0  0  3  0  0  0  0  0  0
  189.4960  172.6120  141.5300 C   0  0  0  0  0  0  0  0  0  0  0  0
  190.3870  171.5930  141.4930 F   0  0  0  0  0  0  0  0  0  0  0  0
  188.8030  175.5230  142.2610 C   0  0  0  0  0  0  0  0  0  0  0  0
  188.3630  172.4540  142.2120 C   0  0  0  0  0  3  0  0  0  0  0  0
  187.5060  174.8080  142.3770 C   0  0  0  0  0  3  0  0  0  0  0  0
  189.7470  173.8180  140.6870 C   0  0  0  0  0  2  0  0  0  0  0  0
  189.8130  175.0600  141.5130 C   0  0  0  0  0  3  0  0  0  0  0  0
  187.3140  173.4820  142.3600 C   0  0  0  0  0  3  0  0  0  0  0  0
  1  3  1  6  0  0  0
  1  2  1  0  0  0  0
  4  5  1  0  0  0  0
  4  8  2  0  0  0  0
  5 15  1  0  0  0  0
  6 13  1  6  0  0  0
  6 19  1  0  0  0  0
  6  2  1  0  0  0  0
  7 15  1  6  0  0  0
  7 14  1  0  0  0  0
  7  6  1  0  0  0  0
  8 16  1  0  0  0  0
 10 12  1  0  0  0  0
 11 13  1  0  0  0  0
 11 10  2  0  0  0  0
 12  9  1  0  0  0  0
 12 17  1  6  0  0  0
 14 16  1  1  0  0  0
 14  1  1  0  0  0  0
 18 10  1  0  0  0  0
 19  9  2  0  0  0  0
 20 23  2  0  0  0  0
 21 20  1  0  0  0  0
 22 24  1  0  0  0  0
 22 15  1  0  0  0  0
 23 27  1  0  0  0  0
 25 26  1  0  0  0  0
 25 20  1  0  0  0  0
 26 22  2  0  0  0  0
 27 24  2  0  0  0  0
M  END
>  <MODEL>
5

>  <REMARK>
 VINA RESULT:      -7.0      3.180      6.145
  Name = 
  1 active torsions:
  status: ('A' for Active; 'I' for Inactive)
    1  A    between atoms: C_7  and  N_21
                            x       y       z     vdW  Elec       q    Type
                         _______ _______ _______ _____ _____    ______ ____

>  <TORSDO>
F 1

$$$$
=
 OpenBabel11062422093D

 27 30  0  0  1  0  0  0  0  0999 V2000
  186.5880  177.0710  145.7510 C   0  0  2  0  0  3  0  0  0  0  0  0
  187.4960  176.5630  146.8650 C   0  0  0  0  0  2  0  0  0  0  0  0
  185.5140  176.2000  145.5790 O   0  0  0  0  0  1  0  0  0  0  0  0
  189.0650  177.9710  142.0010 C   0  0  0  0  0  3  0  0  0  0  0  0
  190.1140  178.0430  143.0840 C   0  0  0  0  0  2  0  0  0  0  0  0
  188.9230  176.9770  146.5180 C   0  0  2  0  0  0  0  0  0  0  0  0
  188.8230  177.3830  145.0400 C   0  0  2  0  0  3  0  0  0  0  0  0
  187.7340  178.0320  142.2070 C   0  0  0  0  0  3  0  0  0  0  0  0
  190.1210  178.4110  148.3060 C   0  0  0  0  0  3  0  0  0  0  0  0
  191.8770  176.7940  147.7200 C   0  0  0  0  0  0  0  0  0  0  0  0
  191.3020  176.0600  146.7650 C   0  0  0  0  0  3  0  0  0  0  0  0
  191.0460  177.3570  148.8350 C   0  0  1  0  0  3  0  0  0  0  0  0
  189.8300  175.7610  146.7960 C   0  0  0  0  0  2  0  0  0  0  0  0
  187.4490  177.0820  144.5120 C   0  0  2  0  0  3  0  0  0  0  0  0
  189.8760  177.0140  144.0910 N   0  0  0  0  0  0  0  0  0  0  0  0
  187.0580  178.1940  143.5460 C   0  0  0  0  0  2  0  0  0  0  0  0
  191.8660  177.9130  149.8170 O   0  0  0  0  0  1  0  0  0  0  0  0
  193.2120  177.0410  147.6570 F   0  0  0  0  0  0  0  0  0  0  0  0
  189.2290  178.2330  147.3160 C   0  0  0  0  0  3  0  0  0  0  0  0
  191.6950  172.9650  144.1470 C   0  0  0  0  0  0  0  0  0  0  0  0
  192.7010  172.2420  144.6940 F   0  0  0  0  0  0  0  0  0  0  0  0
  190.2310  175.6510  143.7830 C   0  0  0  0  0  0  0  0  0  0  0  0
  190.4350  172.6210  144.4100 C   0  0  0  0  0  3  0  0  0  0  0  0
  189.1570  174.6360  143.6310 C   0  0  0  0  0  3  0  0  0  0  0  0
  192.0310  174.0260  143.1520 C   0  0  0  0  0  2  0  0  0  0  0  0
  191.5240  175.3620  143.5840 C   0  0  0  0  0  3  0  0  0  0  0  0
  189.2420  173.3280  143.9040 C   0  0  0  0  0  3  0  0  0  0  0  0
  1  3  1  6  0  0  0
  1  2  1  0  0  0  0
  4  8  2  0  0  0  0
  4  5  1  0  0  0  0
  5 15  1  0  0  0  0
  6 13  1  1  0  0  0
  6  2  1  0  0  0  0
  6 19  1  0  0  0  0
  7 15  1  6  0  0  0
  7  6  1  0  0  0  0
  8 16  1  0  0  0  0
  9 12  1  0  0  0  0
 10 12  1  0  0  0  0
 11 13  1  0  0  0  0
 11 10  2  0  0  0  0
 12 17  1  1  0  0  0
 14 16  1  6  0  0  0
 14  7  1  0  0  0  0
 14  1  1  0  0  0  0
 18 10  1  0  0  0  0
 19  9  2  0  0  0  0
 20 23  2  0  0  0  0
 20 21  1  0  0  0  0
 22 15  1  0  0  0  0
 24 22  1  0  0  0  0
 24 27  2  0  0  0  0
 25 26  1  0  0  0  0
 25 20  1  0  0  0  0
 26 22  2  0  0  0  0
 27 23  1  0  0  0  0
M  END
>  <MODEL>
6

>  <REMARK>
 VINA RESULT:      -7.0      3.377      6.020
  Name = 
  1 active torsions:
  status: ('A' for Active; 'I' for Inactive)
    1  A    between atoms: C_7  and  N_21
                            x       y       z     vdW  Elec       q    Type
                         _______ _______ _______ _____ _____    ______ ____

>  <TORSDO>
F 1

$$$$
=
 OpenBabel11062422093D

 27 30  0  0  1  0  0  0  0  0999 V2000
  187.9970  176.8830  143.0380 C   0  0  2  0  0  3  0  0  0  0  0  0
  188.8660  176.1800  142.0030 C   0  0  0  0  0  2  0  0  0  0  0  0
  188.0970  178.2640  142.8830 O   0  0  0  0  0  1  0  0  0  0  0  0
  188.9220  175.2600  147.2230 C   0  0  0  0  0  3  0  0  0  0  0  0
  189.4030  174.1310  146.3450 C   0  0  0  0  0  2  0  0  0  0  0  0
  189.3740  174.8860  142.6330 C   0  0  2  0  0  0  0  0  0  0  0  0
  189.0760  175.0810  144.1270 C   0  0  2  0  0  3  0  0  0  0  0  0
  188.0930  176.2470  146.8310 C   0  0  0  0  0  3  0  0  0  0  0  0
  188.7870  172.7240  141.3390 C   0  0  0  0  0  3  0  0  0  0  0  0
  191.1530  172.3410  141.8840 C   0  0  0  0  0  0  0  0  0  0  0  0
  191.4770  173.4250  142.5910 C   0  0  0  0  0  3  0  0  0  0  0  0
  190.1470  172.4410  140.7760 C   0  0  1  0  0  3  0  0  0  0  0  0
  190.8700  174.7650  142.2810 C   0  0  0  0  0  2  0  0  0  0  0  0
  188.5600  176.4700  144.3750 C   0  0  2  0  0  3  0  0  0  0  0  0
  190.0420  174.6570  145.1430 N   0  0  0  0  0  0  0  0  0  0  0  0
  187.4890  176.3930  145.4560 C   0  0  0  0  0  2  0  0  0  0  0  0
  190.1070  171.2520  140.0490 O   0  0  0  0  0  1  0  0  0  0  0  0
  191.7260  171.1480  142.1950 F   0  0  0  0  0  0  0  0  0  0  0  0
  188.4780  173.7650  142.1320 C   0  0  0  0  0  3  0  0  0  0  0  0
  194.4100  175.3360  144.7350 C   0  0  0  0  0  0  0  0  0  0  0  0
  195.5590  174.7470  144.3280 F   0  0  0  0  0  0  0  0  0  0  0  0
  191.3770  175.1940  145.2490 C   0  0  0  0  0  0  0  0  0  0  0  0
  193.9790  176.4230  144.0960 C   0  0  0  0  0  3  0  0  0  0  0  0
  191.6150  176.6210  144.9150 C   0  0  0  0  0  3  0  0  0  0  0  0
  193.7470  174.8370  145.9760 C   0  0  0  0  0  2  0  0  0  0  0  0
  192.3470  174.3930  145.7090 C   0  0  0  0  0  3  0  0  0  0  0  0
  192.7370  177.1530  144.4130 C   0  0  0  0  0  3  0  0  0  0  0  0
  1  3  1  6  0  0  0
  1 14  1  0  0  0  0
  2  1  1  0  0  0  0
  5  4  1  0  0  0  0
  6  2  1  6  0  0  0
  6  7  1  0  0  0  0
  7 14  1  0  0  0  0
  7 15  1  1  0  0  0
  8  4  2  0  0  0  0
  9 19  2  0  0  0  0
 10 18  1  0  0  0  0
 10 11  2  0  0  0  0
 12 17  1  1  0  0  0
 12  9  1  0  0  0  0
 12 10  1  0  0  0  0
 13 11  1  0  0  0  0
 13  6  1  0  0  0  0
 14 16  1  1  0  0  0
 15 22  1  0  0  0  0
 15  5  1  0  0  0  0
 16  8  1  0  0  0  0
 19  6  1  0  0  0  0
 20 25  1  0  0  0  0
 21 20  1  0  0  0  0
 22 26  2  0  0  0  0
 23 27  1  0  0  0  0
 23 20  2  0  0  0  0
 24 22  1  0  0  0  0
 26 25  1  0  0  0  0
 27 24  2  0  0  0  0
M  END
>  <MODEL>
7

>  <REMARK>
 VINA RESULT:      -7.0      3.199      5.617
  Name = 
  1 active torsions:
  status: ('A' for Active; 'I' for Inactive)
    1  A    between atoms: C_7  and  N_21
                            x       y       z     vdW  Elec       q    Type
                         _______ _______ _______ _____ _____    ______ ____

>  <TORSDO>
F 1

$$$$
=
 OpenBabel11062422093D

 27 30  0  0  1  0  0  0  0  0999 V2000
  191.4980  176.0700  147.0760 C   0  0  2  0  0  3  0  0  0  0  0  0
  192.7450  175.3380  146.5940 C   0  0  0  0  0  2  0  0  0  0  0  0
  190.8220  175.2910  148.0130 O   0  0  0  0  0  1  0  0  0  0  0  0
  189.0280  177.4870  143.4850 C   0  0  0  0  0  3  0  0  0  0  0  0
  190.3960  177.3240  142.8690 C   0  0  0  0  0  2  0  0  0  0  0  0
  192.9800  175.7390  145.1410 C   0  0  2  0  0  0  0  0  0  0  0  0
  191.6510  176.3980  144.7380 C   0  0  2  0  0  3  0  0  0  0  0  0
  188.7780  177.5710  144.8070 C   0  0  0  0  0  3  0  0  0  0  0  0
  195.2910  176.7910  144.6470 C   0  0  0  0  0  3  0  0  0  0  0  0
  195.0570  175.2200  142.7710 C   0  0  0  0  0  0  0  0  0  0  0  0
  193.8500  174.6880  142.9740 C   0  0  0  0  0  3  0  0  0  0  0  0
  195.9060  175.6210  143.9400 C   0  0  1  0  0  3  0  0  0  0  0  0
  193.3280  174.4540  144.3640 C   0  0  0  0  0  2  0  0  0  0  0  0
  190.6450  176.2540  145.8450 C   0  0  2  0  0  3  0  0  0  0  0  0
  191.0650  176.1500  143.4190 N   0  0  0  0  0  0  0  0  0  0  0  0
  189.8170  177.5310  145.9010 C   0  0  0  0  0  2  0  0  0  0  0  0
  197.1890  175.9620  143.5130 O   0  0  0  0  0  1  0  0  0  0  0  0
  195.4930  175.4140  141.4980 F   0  0  0  0  0  0  0  0  0  0  0  0
  194.0430  176.8250  145.1460 C   0  0  0  0  0  3  0  0  0  0  0  0
  188.7070  172.5250  142.4120 C   0  0  0  0  0  0  0  0  0  0  0  0
  187.5170  171.9170  142.6330 F   0  0  0  0  0  0  0  0  0  0  0  0
  190.6590  174.8440  142.9580 C   0  0  0  0  0  0  0  0  0  0  0  0
  189.0150  172.9120  141.1750 C   0  0  0  0  0  3  0  0  0  0  0  0
  190.9710  174.4370  141.5640 C   0  0  0  0  0  3  0  0  0  0  0  0
  189.6920  172.6060  143.5310 C   0  0  0  0  0  2  0  0  0  0  0  0
  190.0660  174.0200  143.8310 C   0  0  0  0  0  3  0  0  0  0  0  0
  190.2600  173.6050  140.7910 C   0  0  0  0  0  3  0  0  0  0  0  0
  1  3  1  1  0  0  0
  2  1  1  0  0  0  0
  4  8  2  0  0  0  0
  5 15  1  0  0  0  0
  5  4  1  0  0  0  0
  6 13  1  6  0  0  0
  6 19  1  0  0  0  0
  6  2  1  0  0  0  0
  7 15  1  6  0  0  0
  7  6  1  0  0  0  0
  7 14  1  0  0  0  0
  8 16  1  0  0  0  0
  9 19  2  0  0  0  0
 10 11  2  0  0  0  0
 10 12  1  0  0  0  0
 11 13  1  0  0  0  0
 12 17  1  6  0  0  0
 12  9  1  0  0  0  0
 14 16  1  1  0  0  0
 14  1  1  0  0  0  0
 18 10  1  0  0  0  0
 20 21  1  0  0  0  0
 20 25  1  0  0  0  0
 22 15  1  0  0  0  0
 22 26  2  0  0  0  0
 23 20  2  0  0  0  0
 24 22  1  0  0  0  0
 25 26  1  0  0  0  0
 27 23  1  0  0  0  0
 27 24  2  0  0  0  0
M  END
>  <MODEL>
8

>  <REMARK>
 VINA RESULT:      -6.9      3.749      6.786
  Name = 
  1 active torsions:
  status: ('A' for Active; 'I' for Inactive)
    1  A    between atoms: C_7  and  N_21
                            x       y       z     vdW  Elec       q    Type
                         _______ _______ _______ _____ _____    ______ ____

>  <TORSDO>
F 1

$$$$
=
 OpenBabel11062422093D

 27 30  0  0  1  0  0  0  0  0999 V2000
  187.4320  177.6230  146.7190 C   0  0  2  0  0  3  0  0  0  0  0  0
  187.1950  178.3710  145.4120 C   0  0  0  0  0  2  0  0  0  0  0  0
  187.9930  178.4810  147.6620 O   0  0  0  0  0  1  0  0  0  0  0  0
  189.7380  173.7460  145.9100 C   0  0  0  0  0  3  0  0  0  0  0  0
  189.1310  174.0280  144.5570 C   0  0  0  0  0  2  0  0  0  0  0  0
  187.3730  177.3710  144.2730 C   0  0  2  0  0  0  0  0  0  0  0  0
  188.0650  176.1800  144.9540 C   0  0  2  0  0  3  0  0  0  0  0  0
  189.3320  174.2970  147.0710 C   0  0  0  0  0  3  0  0  0  0  0  0
  185.3360  177.1190  142.6980 C   0  0  0  0  0  3  0  0  0  0  0  0
  187.1880  177.2440  141.0870 C   0  0  0  0  0  0  0  0  0  0  0  0
  188.2630  177.3330  141.8720 C   0  0  0  0  0  3  0  0  0  0  0  0
  185.8900  177.8590  141.5190 C   0  0  1  0  0  3  0  0  0  0  0  0
  188.2100  178.0680  143.1810 C   0  0  0  0  0  2  0  0  0  0  0  0
  188.4060  176.5230  146.3760 C   0  0  2  0  0  3  0  0  0  0  0  0
  189.1470  175.4600  144.2800 N   0  0  0  0  0  0  0  0  0  0  0  0
  188.1970  175.2780  147.2280 C   0  0  0  0  0  2  0  0  0  0  0  0
  184.9660  177.8240  140.4750 O   0  0  0  0  0  1  0  0  0  0  0  0
  187.2780  176.5710  139.9080 F   0  0  0  0  0  0  0  0  0  0  0  0
  185.9840  176.9160  143.8600 C   0  0  0  0  0  3  0  0  0  0  0  0
  193.3210  176.9730  144.2240 C   0  0  0  0  0  0  0  0  0  0  0  0
  194.3870  177.2270  145.0210 F   0  0  0  0  0  0  0  0  0  0  0  0
  190.3940  176.0740  143.8920 C   0  0  0  0  0  0  0  0  0  0  0  0
  193.4320  176.0480  143.2730 C   0  0  0  0  0  3  0  0  0  0  0  0
  191.0390  175.6660  142.6180 C   0  0  0  0  0  3  0  0  0  0  0  0
  192.1120  177.8400  144.3430 C   0  0  0  0  0  2  0  0  0  0  0  0
  190.8940  177.0410  144.6710 C   0  0  0  0  0  3  0  0  0  0  0  0
  192.3510  175.6500  142.3500 C   0  0  0  0  0  3  0  0  0  0  0  0
  1  3  1  1  0  0  0
  2  1  1  0  0  0  0
  4  8  2  0  0  0  0
  5  4  1  0  0  0  0
  6 13  1  6  0  0  0
  6  7  1  0  0  0  0
  6  2  1  0  0  0  0
  7 15  1  6  0  0  0
  7 14  1  0  0  0  0
  8 16  1  0  0  0  0
  9 19  2  0  0  0  0
 10 12  1  0  0  0  0
 10 11  2  0  0  0  0
 11 13  1  0  0  0  0
 12 17  1  6  0  0  0
 12  9  1  0  0  0  0
 14  1  1  0  0  0  0
 14 16  1  1  0  0  0
 15  5  1  0  0  0  0
 18 10  1  0  0  0  0
 19  6  1  0  0  0  0
 20 25  1  0  0  0  0
 20 21  1  0  0  0  0
 22 15  1  0  0  0  0
 22 26  2  0  0  0  0
 23 20  2  0  0  0  0
 24 22  1  0  0  0  0
 25 26  1  0  0  0  0
 27 24  2  0  0  0  0
 27 23  1  0  0  0  0
M  END
>  <MODEL>
9

>  <REMARK>
 VINA RESULT:      -6.7      2.617      4.529
  Name = 
  1 active torsions:
  status: ('A' for Active; 'I' for Inactive)
    1  A    between atoms: C_7  and  N_21
                            x       y       z     vdW  Elec       q    Type
                         _______ _______ _______ _____ _____    ______ ____

>  <TORSDO>
F 1

$$$$
