=
 OpenBabel11062420123D

 52 55  0  0  1  0  0  0  0  0999 V2000
  193.9030  172.2990  145.3050 C   0  0  0  0  0  2  0  0  0  0  0  0
  193.0820  172.6090  144.2060 O   0  0  0  0  0  0  0  0  0  0  0  0
  193.3640  173.8990  143.8350 N   0  0  0  0  0  0  0  0  0  0  0  0
  195.1750  173.0640  145.1460 C   0  0  0  0  0  2  0  0  0  0  0  0
  194.7170  174.2100  144.3000 C   0  0  1  0  0  3  0  0  0  0  0  0
  194.6470  175.4220  139.6260 C   0  0  0  0  0  3  0  0  0  0  0  0
  195.9830  176.3190  141.5400 C   0  0  0  0  0  2  0  0  0  0  0  0
  196.0890  175.9450  143.0060 C   0  0  2  0  0  3  0  0  0  0  0  0
  193.8410  174.5730  139.1630 O   0  0  0  0  0  0  0  0  0  0  0  0
  194.9830  174.1200  141.7940 C   0  0  1  0  0  3  0  0  0  0  0  0
  197.4120  176.0640  143.4290 O   0  0  0  0  0  1  0  0  0  0  0  0
  195.6400  174.4890  143.1110 C   0  0  2  0  0  3  0  0  0  0  0  0
  195.2520  175.2410  140.9090 N   0  0  0  0  0  0  0  0  0  0  0  0
  195.6540  172.8530  141.2700 C   0  0  0  0  0  2  0  0  0  0  0  0
  194.6830  171.7200  141.2050 C   0  0  0  0  0  0  0  0  0  0  0  0
  195.0500  170.5840  141.4620 O   0  0  0  0  0  0  0  0  0  0  0  0
  193.2660  171.9830  140.8180 C   0  0  0  0  0  2  0  0  0  0  0  0
  191.3090  170.5440  139.9730 C   0  0  1  0  0  0  0  0  0  0  0  0
  190.8590  169.2460  139.8210 F   0  0  0  0  0  0  0  0  0  0  0  0
  190.9820  171.1900  141.3100 C   0  0  2  0  0  3  0  0  0  0  0  0
  192.4090  170.7390  141.0200 C   0  0  2  0  0  3  0  0  0  0  0  0
  190.3710  170.2710  142.1640 O   0  0  0  0  0  1  0  0  0  0  0  0
  192.0550  171.2330  137.6230 N   0  0  0  0  0  2  0  0  0  0  0  0
  190.5980  172.5720  138.8760 N   0  0  0  0  0  2  0  0  0  0  0  0
  191.2340  171.4530  138.7750 C   0  0  0  0  0  0  0  0  0  0  0  0
  194.3130  170.5130  137.7370 N   0  0  0  0  0  1  0  0  0  0  0  0
  192.9480  170.0930  137.4820 C   0  0  0  0  0  2  0  0  0  0  0  0
  192.3640  174.7960  144.4610 C   0  0  1  0  0  3  0  0  0  0  0  0
  192.9810  176.0630  145.0910 C   0  0  1  0  0  3  0  0  0  0  0  0
  192.5830  177.2170  144.4180 O   0  0  0  0  0  1  0  0  0  0  0  0
  192.6970  176.1910  146.5790 C   0  0  0  0  0  1  0  0  0  0  0  0
  191.5710  174.8950  142.1370 O   0  0  0  0  0  1  0  0  0  0  0  0
  191.2930  175.2630  143.4560 C   0  0  1  0  0  3  0  0  0  0  0  0
  189.8850  174.8060  143.9020 C   0  0  1  0  0  3  0  0  0  0  0  0
  189.9050  174.0190  145.0770 O   0  0  0  0  0  0  0  0  0  0  0  0
  189.6430  172.6820  144.7290 C   0  0  0  0  0  1  0  0  0  0  0  0
  188.7380  175.8490  143.8310 C   0  0  1  0  0  3  0  0  0  0  0  0
  189.3510  177.3870  145.7910 C   0  0  0  0  0  1  0  0  0  0  0  0
  188.3420  176.4150  145.2040 C   0  0  1  0  0  3  0  0  0  0  0  0
  186.8770  176.8560  145.3450 C   0  0  0  0  0  2  0  0  0  0  0  0
  186.6330  177.8290  146.4990 C   0  0  2  0  0  3  0  0  0  0  0  0
  186.0840  177.0430  147.6820 C   0  0  0  0  0  1  0  0  0  0  0  0
  185.8320  179.2820  144.6040 C   0  0  0  0  0  1  0  0  0  0  0  0
  184.2200  178.4610  146.2670 C   0  0  0  0  0  1  0  0  0  0  0  0
  185.6520  178.9250  146.0700 C   0  0  0  0  0  3  0  0  0  0  0  0
  189.0590  177.0260  142.9130 C   0  0  0  0  0  2  0  0  0  0  0  0
  188.4180  174.9390  140.6920 C   0  0  0  0  0  1  0  0  0  0  0  0
  188.0450  177.1500  141.8240 C   0  0  0  0  0  0  0  0  0  0  0  0
  187.7840  176.2350  140.8780 N   0  0  0  0  0  0  0  0  0  0  0  0
  186.8050  176.6970  140.1220 N   0  0  0  0  0  0  0  0  0  0  0  0
  187.1750  178.2050  141.6350 C   0  0  0  0  0  3  0  0  0  0  0  0
  186.4210  177.8890  140.5580 N   0  0  0  0  0  0  0  0  0  0  0  0
  2  1  1  0  0  0  0
  3  2  1  0  0  0  0
  3  5  1  0  0  0  0
  3 28  1  0  0  0  0
  4  1  1  0  0  0  0
  5  4  1  6  0  0  0
  6 13  1  0  0  0  0
  7  8  1  0  0  0  0
  8 12  1  0  0  0  0
  8 11  1  6  0  0  0
  9  6  2  0  0  0  0
 10 14  1  6  0  0  0
 10 12  1  0  0  0  0
 12  5  1  1  0  0  0
 13  7  1  0  0  0  0
 13 10  1  0  0  0  0
 15 14  1  0  0  0  0
 15 16  2  0  0  0  0
 17 15  1  0  0  0  0
 18 19  1  6  0  0  0
 18 21  1  0  0  0  0
 18 20  1  0  0  0  0
 20 22  1  1  0  0  0
 21 17  1  6  0  0  0
 21 20  1  0  0  0  0
 23 25  1  0  0  0  0
 25 24  2  0  0  0  0
 25 18  1  0  0  0  0
 27 23  1  0  0  0  0
 27 26  1  0  0  0  0
 28 33  1  6  0  0  0
 28 29  1  0  0  0  0
 29 31  1  1  0  0  0
 30 29  1  0  0  0  0
 33 32  1  6  0  0  0
 33 34  1  0  0  0  0
 34 35  1  1  0  0  0
 36 35  1  0  0  0  0
 37 46  1  6  0  0  0
 37 34  1  0  0  0  0
 37 39  1  0  0  0  0
 39 40  1  0  0  0  0
 39 38  1  6  0  0  0
 40 41  1  0  0  0  0
 41 42  1  1  0  0  0
 43 45  1  0  0  0  0
 45 44  1  0  0  0  0
 45 41  1  0  0  0  0
 47 49  1  0  0  0  0
 48 46  1  0  0  0  0
 49 48  1  0  0  0  0
 50 52  2  0  0  0  0
 50 49  1  0  0  0  0
 51 48  2  0  0  0  0
 52 51  1  0  0  0  0
M  END
>  <MODEL>
1

>  <REMARK>
 VINA RESULT:      -6.4      0.000      0.000
  Name = 
  19 active torsions:
  status: ('A' for Active; 'I' for Inactive)
    1  A    between atoms: C_3  and  C_48
    2  A    between atoms: C_4  and  C_7
    3  A    between atoms: C_4  and  C_33
    4  A    between atoms: C_4  and  N_43
    5  A    between atoms: C_5  and  C_15
    6  A    between atoms: C_5  and  C_25
    7  A    between atoms: C_8  and  C_28
    8  A    between atoms: C_8  and  C_45
    9  A    between atoms: O_12  and  C_17
   10  A    between atoms: C_15  and  C_17
   11  A    between atoms: C_15  and  C_45
   12  A    between atoms: C_17  and  C_33
   13  A    between atoms: C_18  and  C_30
   14  A    between atoms: C_18  and  C_38
   15  A    between atoms: C_23  and  C_38
   16  A    between atoms: C_28  and  C_47
   17  A    between atoms: C_29  and  C_30
   18  A    between atoms: N_31  and  C_36
   19  A    between atoms: C_40  and  C_51
                            x       y       z     vdW  Elec       q    Type
                         _______ _______ _______ _____ _____    ______ ____

>  <TORSDO>
F 19

$$$$
=
 OpenBabel11062420123D

 52 55  0  0  1  0  0  0  0  0999 V2000
  192.1000  171.3390  144.0840 C   0  0  0  0  0  2  0  0  0  0  0  0
  191.8580  172.3100  143.0970 O   0  0  0  0  0  0  0  0  0  0  0  0
  192.2980  173.5130  143.5880 N   0  0  0  0  0  0  0  0  0  0  0  0
  193.3220  171.7550  144.8340 C   0  0  0  0  0  2  0  0  0  0  0  0
  193.3070  173.2330  144.6110 C   0  0  1  0  0  3  0  0  0  0  0  0
  195.3500  176.3690  141.5580 C   0  0  0  0  0  3  0  0  0  0  0  0
  195.6840  176.0000  144.0080 C   0  0  0  0  0  2  0  0  0  0  0  0
  195.1180  175.0040  145.0020 C   0  0  2  0  0  3  0  0  0  0  0  0
  194.8360  176.0170  140.4630 O   0  0  0  0  0  0  0  0  0  0  0  0
  194.6720  174.2040  142.7240 C   0  0  1  0  0  3  0  0  0  0  0  0
  196.1100  174.6220  145.9040 O   0  0  0  0  0  1  0  0  0  0  0  0
  194.6670  173.7940  144.1860 C   0  0  2  0  0  3  0  0  0  0  0  0
  195.3130  175.5080  142.6990 N   0  0  0  0  0  0  0  0  0  0  0  0
  195.5030  173.1850  141.9510 C   0  0  0  0  0  2  0  0  0  0  0  0
  194.6270  172.2160  141.2260 C   0  0  0  0  0  0  0  0  0  0  0  0
  194.6620  171.0290  141.5090 O   0  0  0  0  0  0  0  0  0  0  0  0
  193.7130  172.7080  140.1530 C   0  0  0  0  0  2  0  0  0  0  0  0
  192.1010  171.8350  138.3480 C   0  0  1  0  0  0  0  0  0  0  0  0
  191.6420  170.6950  137.7160 F   0  0  0  0  0  0  0  0  0  0  0  0
  191.3550  172.2180  139.6170 C   0  0  2  0  0  3  0  0  0  0  0  0
  192.7500  171.6100  139.7170 C   0  0  2  0  0  3  0  0  0  0  0  0
  190.4040  171.2490  139.9390 O   0  0  0  0  0  1  0  0  0  0  0  0
  193.7240  172.8960  136.6760 N   0  0  0  0  0  2  0  0  0  0  0  0
  191.9880  174.1390  137.6400 N   0  0  0  0  0  2  0  0  0  0  0  0
  192.5430  172.9840  137.4820 C   0  0  0  0  0  0  0  0  0  0  0  0
  195.7650  171.8630  137.3080 N   0  0  0  0  0  1  0  0  0  0  0  0
  194.5300  171.6900  136.5670 C   0  0  0  0  0  2  0  0  0  0  0  0
  191.1380  174.2340  144.1640 C   0  0  1  0  0  3  0  0  0  0  0  0
  191.4010  174.7940  145.5780 C   0  0  1  0  0  3  0  0  0  0  0  0
  191.8220  176.1230  145.5340 O   0  0  0  0  0  1  0  0  0  0  0  0
  190.2100  174.6450  146.5120 C   0  0  0  0  0  1  0  0  0  0  0  0
  191.6090  175.7350  142.2750 O   0  0  0  0  0  1  0  0  0  0  0  0
  190.6930  175.4170  143.2810 C   0  0  1  0  0  3  0  0  0  0  0  0
  189.2730  175.1790  142.7190 C   0  0  1  0  0  3  0  0  0  0  0  0
  188.8490  173.8350  142.8370 O   0  0  0  0  0  0  0  0  0  0  0  0
  188.2130  173.4560  141.6420 C   0  0  0  0  0  1  0  0  0  0  0  0
  188.1870  176.2400  143.0450 C   0  0  1  0  0  3  0  0  0  0  0  0
  189.0410  177.9230  144.7840 C   0  0  0  0  0  1  0  0  0  0  0  0
  188.1940  176.6900  144.5140 C   0  0  1  0  0  3  0  0  0  0  0  0
  186.8280  176.6900  145.2170 C   0  0  0  0  0  2  0  0  0  0  0  0
  186.8080  177.4750  146.5290 C   0  0  2  0  0  3  0  0  0  0  0  0
  186.4130  176.5250  147.6520 C   0  0  0  0  0  1  0  0  0  0  0  0
  184.3930  178.1490  146.3000 C   0  0  0  0  0  1  0  0  0  0  0  0
  185.9050  179.5100  147.6770 C   0  0  0  0  0  1  0  0  0  0  0  0
  185.8230  178.6450  146.4330 C   0  0  0  0  0  3  0  0  0  0  0  0
  188.2930  177.4880  142.1710 C   0  0  0  0  0  2  0  0  0  0  0  0
  185.7870  179.1820  142.9070 C   0  0  0  0  0  1  0  0  0  0  0  0
  187.0590  177.6760  141.3520 C   0  0  0  0  0  0  0  0  0  0  0  0
  185.9900  178.4140  141.6890 N   0  0  0  0  0  0  0  0  0  0  0  0
  185.1240  178.3560  140.6940 N   0  0  0  0  0  0  0  0  0  0  0  0
  186.8280  177.1600  140.0920 C   0  0  0  0  0  3  0  0  0  0  0  0
  185.6070  177.6010  139.7180 N   0  0  0  0  0  0  0  0  0  0  0  0
  1  4  1  0  0  0  0
  2  3  1  0  0  0  0
  2  1  1  0  0  0  0
  3 28  1  0  0  0  0
  3  5  1  0  0  0  0
  5  4  1  6  0  0  0
  6 13  1  0  0  0  0
  7  8  1  0  0  0  0
  8 11  1  1  0  0  0
  9  6  2  0  0  0  0
 10 14  1  6  0  0  0
 10 12  1  0  0  0  0
 12  5  1  1  0  0  0
 12  8  1  0  0  0  0
 13 10  1  0  0  0  0
 13  7  1  0  0  0  0
 15 16  2  0  0  0  0
 15 14  1  0  0  0  0
 17 15  1  0  0  0  0
 18 19  1  6  0  0  0
 18 20  1  0  0  0  0
 18 21  1  0  0  0  0
 20 21  1  0  0  0  0
 20 22  1  1  0  0  0
 21 17  1  6  0  0  0
 23 25  1  0  0  0  0
 25 24  2  0  0  0  0
 25 18  1  0  0  0  0
 27 23  1  0  0  0  0
 27 26  1  0  0  0  0
 28 33  1  6  0  0  0
 28 29  1  0  0  0  0
 29 31  1  1  0  0  0
 30 29  1  0  0  0  0
 33 32  1  6  0  0  0
 34 35  1  1  0  0  0
 34 37  1  0  0  0  0
 34 33  1  0  0  0  0
 36 35  1  0  0  0  0
 37 46  1  6  0  0  0
 37 39  1  0  0  0  0
 39 38  1  6  0  0  0
 39 40  1  0  0  0  0
 40 41  1  0  0  0  0
 41 42  1  1  0  0  0
 43 45  1  0  0  0  0
 45 41  1  0  0  0  0
 45 44  1  0  0  0  0
 48 49  1  0  0  0  0
 48 46  1  0  0  0  0
 49 47  1  0  0  0  0
 50 49  1  0  0  0  0
 51 48  2  0  0  0  0
 52 51  1  0  0  0  0
 52 50  2  0  0  0  0
M  END
>  <MODEL>
2

>  <REMARK>
 VINA RESULT:      -6.2      1.594      2.054
  Name = 
  19 active torsions:
  status: ('A' for Active; 'I' for Inactive)
    1  A    between atoms: C_3  and  C_48
    2  A    between atoms: C_4  and  C_7
    3  A    between atoms: C_4  and  C_33
    4  A    between atoms: C_4  and  N_43
    5  A    between atoms: C_5  and  C_15
    6  A    between atoms: C_5  and  C_25
    7  A    between atoms: C_8  and  C_28
    8  A    between atoms: C_8  and  C_45
    9  A    between atoms: O_12  and  C_17
   10  A    between atoms: C_15  and  C_17
   11  A    between atoms: C_15  and  C_45
   12  A    between atoms: C_17  and  C_33
   13  A    between atoms: C_18  and  C_30
   14  A    between atoms: C_18  and  C_38
   15  A    between atoms: C_23  and  C_38
   16  A    between atoms: C_28  and  C_47
   17  A    between atoms: C_29  and  C_30
   18  A    between atoms: N_31  and  C_36
   19  A    between atoms: C_40  and  C_51
                            x       y       z     vdW  Elec       q    Type
                         _______ _______ _______ _____ _____    ______ ____

>  <TORSDO>
F 19

$$$$
=
 OpenBabel11062420123D

 52 55  0  0  1  0  0  0  0  0999 V2000
  192.7300  175.1220  141.3800 C   0  0  0  0  0  2  0  0  0  0  0  0
  192.0600  174.4040  142.3870 O   0  0  0  0  0  0  0  0  0  0  0  0
  192.8540  174.4280  143.5060 N   0  0  0  0  0  0  0  0  0  0  0  0
  193.5290  176.1920  142.0470 C   0  0  0  0  0  2  0  0  0  0  0  0
  193.7270  175.5990  143.4050 C   0  0  1  0  0  3  0  0  0  0  0  0
  191.4620  175.9420  147.6570 C   0  0  0  0  0  3  0  0  0  0  0  0
  193.7610  176.6300  146.9560 C   0  0  0  0  0  2  0  0  0  0  0  0
  194.5040  176.5990  145.6340 C   0  0  2  0  0  3  0  0  0  0  0  0
  190.3190  175.5040  147.3630 O   0  0  0  0  0  0  0  0  0  0  0  0
  192.1060  176.2840  145.2120 C   0  0  1  0  0  3  0  0  0  0  0  0
  195.2900  177.7430  145.5080 O   0  0  0  0  0  1  0  0  0  0  0  0
  193.4350  176.5820  144.5430 C   0  0  2  0  0  3  0  0  0  0  0  0
  192.3760  176.3560  146.6390 N   0  0  0  0  0  0  0  0  0  0  0  0
  191.1160  177.3690  144.8000 C   0  0  0  0  0  2  0  0  0  0  0  0
  189.7670  176.7890  144.5250 C   0  0  0  0  0  0  0  0  0  0  0  0
  189.6690  175.7030  143.9730 O   0  0  0  0  0  0  0  0  0  0  0  0
  188.5430  177.5450  144.9220 C   0  0  0  0  0  2  0  0  0  0  0  0
  186.1790  177.2350  143.9590 C   0  0  1  0  0  0  0  0  0  0  0  0
  185.2910  176.3050  143.4490 F   0  0  0  0  0  0  0  0  0  0  0  0
  186.1410  177.4060  145.4690 C   0  0  2  0  0  3  0  0  0  0  0  0
  187.3050  176.6620  144.8230 C   0  0  2  0  0  3  0  0  0  0  0  0
  185.2670  176.4840  146.0470 O   0  0  0  0  0  1  0  0  0  0  0  0
  187.1890  178.4940  141.9710 N   0  0  0  0  0  2  0  0  0  0  0  0
  186.0720  179.6300  143.6890 N   0  0  0  0  0  2  0  0  0  0  0  0
  186.4000  178.4960  143.1660 C   0  0  0  0  0  0  0  0  0  0  0  0
  186.9370  176.8480  140.2800 N   0  0  0  0  0  1  0  0  0  0  0  0
  187.7600  177.2870  141.3910 C   0  0  0  0  0  2  0  0  0  0  0  0
  193.6430  173.1740  143.5460 C   0  0  1  0  0  3  0  0  0  0  0  0
  194.9780  173.3110  144.3090 C   0  0  1  0  0  3  0  0  0  0  0  0
  194.8250  173.0240  145.6660 O   0  0  0  0  0  1  0  0  0  0  0  0
  196.0970  172.4720  143.7120 C   0  0  0  0  0  1  0  0  0  0  0  0
  191.6210  172.4040  144.7120 O   0  0  0  0  0  1  0  0  0  0  0  0
  192.8610  172.0170  144.1990 C   0  0  1  0  0  3  0  0  0  0  0  0
  192.7400  170.8200  143.2280 C   0  0  1  0  0  3  0  0  0  0  0  0
  192.2560  169.6470  143.8530 O   0  0  0  0  0  0  0  0  0  0  0  0
  193.3010  169.0660  144.5920 C   0  0  0  0  0  1  0  0  0  0  0  0
  192.1570  171.0990  141.8160 C   0  0  1  0  0  3  0  0  0  0  0  0
  194.4140  170.1610  141.0330 C   0  0  0  0  0  1  0  0  0  0  0  0
  192.9620  170.4440  140.6830 C   0  0  1  0  0  3  0  0  0  0  0  0
  192.2540  169.3020  139.9370 C   0  0  0  0  0  2  0  0  0  0  0  0
  192.5550  169.2630  138.4390 C   0  0  2  0  0  3  0  0  0  0  0  0
  192.7760  170.6910  137.9560 C   0  0  0  0  0  1  0  0  0  0  0  0
  190.0810  169.3140  137.9670 C   0  0  0  0  0  1  0  0  0  0  0  0
  191.6420  168.6590  136.1860 C   0  0  0  0  0  1  0  0  0  0  0  0
  191.3950  168.6060  137.6820 C   0  0  0  0  0  3  0  0  0  0  0  0
  190.7020  170.6560  141.6760 C   0  0  0  0  0  2  0  0  0  0  0  0
  190.2980  172.7300  139.3880 C   0  0  0  0  0  1  0  0  0  0  0  0
  189.7810  171.8310  141.6760 C   0  0  0  0  0  0  0  0  0  0  0  0
  189.6220  172.7120  140.6750 N   0  0  0  0  0  0  0  0  0  0  0  0
  188.7000  173.5830  141.0420 N   0  0  0  0  0  0  0  0  0  0  0  0
  188.9070  172.1830  142.6840 C   0  0  0  0  0  3  0  0  0  0  0  0
  188.2540  173.2860  142.2550 N   0  0  0  0  0  0  0  0  0  0  0  0
  1  4  1  0  0  0  0
  1  2  1  0  0  0  0
  2  3  1  0  0  0  0
  3 28  1  0  0  0  0
  5  4  1  6  0  0  0
  5  3  1  0  0  0  0
  8 11  1  6  0  0  0
  8  7  1  0  0  0  0
  9  6  2  0  0  0  0
 10 14  1  6  0  0  0
 10 13  1  0  0  0  0
 12  5  1  6  0  0  0
 12 10  1  0  0  0  0
 12  8  1  0  0  0  0
 13  7  1  0  0  0  0
 13  6  1  0  0  0  0
 15 14  1  0  0  0  0
 15 17  1  0  0  0  0
 16 15  2  0  0  0  0
 18 19  1  6  0  0  0
 18 21  1  0  0  0  0
 18 20  1  0  0  0  0
 20 22  1  1  0  0  0
 21 17  1  6  0  0  0
 21 20  1  0  0  0  0
 23 25  1  0  0  0  0
 25 24  2  0  0  0  0
 25 18  1  0  0  0  0
 26 27  1  0  0  0  0
 27 23  1  0  0  0  0
 28 33  1  1  0  0  0
 28 29  1  0  0  0  0
 29 31  1  6  0  0  0
 29 30  1  0  0  0  0
 33 32  1  6  0  0  0
 34 35  1  1  0  0  0
 34 33  1  0  0  0  0
 35 36  1  0  0  0  0
 37 46  1  1  0  0  0
 37 34  1  0  0  0  0
 39 38  1  1  0  0  0
 39 37  1  0  0  0  0
 40 39  1  0  0  0  0
 41 42  1  6  0  0  0
 41 40  1  0  0  0  0
 44 45  1  0  0  0  0
 45 43  1  0  0  0  0
 45 41  1  0  0  0  0
 46 48  1  0  0  0  0
 47 49  1  0  0  0  0
 48 51  2  0  0  0  0
 49 50  1  0  0  0  0
 49 48  1  0  0  0  0
 50 52  2  0  0  0  0
 52 51  1  0  0  0  0
M  END
>  <MODEL>
3

>  <REMARK>
 VINA RESULT:      -5.9      2.536      7.792
  Name = 
  19 active torsions:
  status: ('A' for Active; 'I' for Inactive)
    1  A    between atoms: C_3  and  C_48
    2  A    between atoms: C_4  and  C_7
    3  A    between atoms: C_4  and  C_33
    4  A    between atoms: C_4  and  N_43
    5  A    between atoms: C_5  and  C_15
    6  A    between atoms: C_5  and  C_25
    7  A    between atoms: C_8  and  C_28
    8  A    between atoms: C_8  and  C_45
    9  A    between atoms: O_12  and  C_17
   10  A    between atoms: C_15  and  C_17
   11  A    between atoms: C_15  and  C_45
   12  A    between atoms: C_17  and  C_33
   13  A    between atoms: C_18  and  C_30
   14  A    between atoms: C_18  and  C_38
   15  A    between atoms: C_23  and  C_38
   16  A    between atoms: C_28  and  C_47
   17  A    between atoms: C_29  and  C_30
   18  A    between atoms: N_31  and  C_36
   19  A    between atoms: C_40  and  C_51
                            x       y       z     vdW  Elec       q    Type
                         _______ _______ _______ _____ _____    ______ ____

>  <TORSDO>
F 19

$$$$
=
 OpenBabel11062420123D

 52 55  0  0  1  0  0  0  0  0999 V2000
  193.0320  175.1970  141.3860 C   0  0  0  0  0  2  0  0  0  0  0  0
  192.3040  174.4540  142.3310 O   0  0  0  0  0  0  0  0  0  0  0  0
  193.0030  174.4920  143.5100 N   0  0  0  0  0  0  0  0  0  0  0  0
  193.7430  176.2860  142.1210 C   0  0  0  0  0  2  0  0  0  0  0  0
  193.8480  175.6880  143.4870 C   0  0  1  0  0  3  0  0  0  0  0  0
  191.3090  175.9110  147.5890 C   0  0  0  0  0  3  0  0  0  0  0  0
  193.6080  176.7150  147.0310 C   0  0  0  0  0  2  0  0  0  0  0  0
  194.4320  176.7240  145.7580 C   0  0  2  0  0  3  0  0  0  0  0  0
  190.2090  175.4150  147.2260 O   0  0  0  0  0  0  0  0  0  0  0  0
  192.0840  176.2870  145.1890 C   0  0  1  0  0  3  0  0  0  0  0  0
  195.1660  177.9070  145.6780 O   0  0  0  0  0  1  0  0  0  0  0  0
  193.4360  176.6530  144.6020 C   0  0  2  0  0  3  0  0  0  0  0  0
  192.2610  176.3720  146.6290 N   0  0  0  0  0  0  0  0  0  0  0  0
  191.0680  177.3210  144.7140 C   0  0  0  0  0  2  0  0  0  0  0  0
  189.7770  176.6710  144.3390 C   0  0  0  0  0  0  0  0  0  0  0  0
  189.7700  175.5350  143.8900 O   0  0  0  0  0  0  0  0  0  0  0  0
  188.4960  177.4200  144.5110 C   0  0  0  0  0  2  0  0  0  0  0  0
  186.0950  177.2160  145.4090 C   0  0  1  0  0  0  0  0  0  0  0  0
  185.0710  176.3250  145.6720 F   0  0  0  0  0  0  0  0  0  0  0  0
  187.0930  177.4070  146.5400 C   0  0  2  0  0  3  0  0  0  0  0  0
  187.4930  176.5980  145.3110 C   0  0  2  0  0  3  0  0  0  0  0  0
  186.8130  176.5370  147.5950 O   0  0  0  0  0  1  0  0  0  0  0  0
  185.5440  178.4000  143.2070 N   0  0  0  0  0  2  0  0  0  0  0  0
  185.8920  179.6090  145.1840 N   0  0  0  0  0  2  0  0  0  0  0  0
  185.7580  178.4540  144.6220 C   0  0  0  0  0  0  0  0  0  0  0  0
  186.4640  177.2910  141.3220 N   0  0  0  0  0  1  0  0  0  0  0  0
  185.5510  177.1620  142.4440 C   0  0  0  0  0  2  0  0  0  0  0  0
  193.8230  173.2610  143.6080 C   0  0  1  0  0  3  0  0  0  0  0  0
  195.1540  173.4650  144.3620 C   0  0  1  0  0  3  0  0  0  0  0  0
  195.0180  173.2000  145.7250 O   0  0  0  0  0  1  0  0  0  0  0  0
  196.3030  172.6600  143.7760 C   0  0  0  0  0  1  0  0  0  0  0  0
  191.7680  172.4570  144.6920 O   0  0  0  0  0  1  0  0  0  0  0  0
  193.0700  172.1170  144.3150 C   0  0  1  0  0  3  0  0  0  0  0  0
  193.1100  170.8260  143.4660 C   0  0  1  0  0  3  0  0  0  0  0  0
  192.5020  169.7210  144.1090 O   0  0  0  0  0  0  0  0  0  0  0  0
  193.4740  169.0570  144.8780 C   0  0  0  0  0  1  0  0  0  0  0  0
  192.7970  170.9550  141.9510 C   0  0  1  0  0  3  0  0  0  0  0  0
  193.0160  169.2410  140.0530 C   0  0  0  0  0  1  0  0  0  0  0  0
  193.7340  170.1230  141.0610 C   0  0  1  0  0  3  0  0  0  0  0  0
  194.9530  170.8690  140.4980 C   0  0  0  0  0  2  0  0  0  0  0  0
  194.6460  172.2930  140.0350 C   0  0  2  0  0  3  0  0  0  0  0  0
  194.1850  172.2380  138.5840 C   0  0  0  0  0  1  0  0  0  0  0  0
  197.1600  172.3430  140.1800 C   0  0  0  0  0  1  0  0  0  0  0  0
  195.9770  174.1590  139.0230 C   0  0  0  0  0  1  0  0  0  0  0  0
  195.8900  173.1770  140.1770 C   0  0  0  0  0  3  0  0  0  0  0  0
  191.3590  170.5730  141.6050 C   0  0  0  0  0  2  0  0  0  0  0  0
  188.9900  172.0680  142.9640 C   0  0  0  0  0  1  0  0  0  0  0  0
  190.6070  171.7450  141.0690 C   0  0  0  0  0  0  0  0  0  0  0  0
  189.5880  172.3760  141.6740 N   0  0  0  0  0  0  0  0  0  0  0  0
  189.2110  173.3770  140.9010 N   0  0  0  0  0  0  0  0  0  0  0  0
  190.8590  172.4050  139.8830 C   0  0  0  0  0  3  0  0  0  0  0  0
  189.9630  173.4140  139.8090 N   0  0  0  0  0  0  0  0  0  0  0  0
  1  4  1  0  0  0  0
  1  2  1  0  0  0  0
  2  3  1  0  0  0  0
  3 28  1  0  0  0  0
  5  4  1  6  0  0  0
  5  3  1  0  0  0  0
  8 11  1  6  0  0  0
  8  7  1  0  0  0  0
  9  6  2  0  0  0  0
 10 14  1  6  0  0  0
 10 13  1  0  0  0  0
 12  5  1  6  0  0  0
 12 10  1  0  0  0  0
 12  8  1  0  0  0  0
 13  7  1  0  0  0  0
 13  6  1  0  0  0  0
 15 17  1  0  0  0  0
 15 14  1  0  0  0  0
 16 15  2  0  0  0  0
 18 19  1  1  0  0  0
 18 20  1  0  0  0  0
 20 22  1  1  0  0  0
 21 17  1  6  0  0  0
 21 18  1  0  0  0  0
 21 20  1  0  0  0  0
 23 25  1  0  0  0  0
 25 24  2  0  0  0  0
 25 18  1  0  0  0  0
 26 27  1  0  0  0  0
 27 23  1  0  0  0  0
 28 33  1  1  0  0  0
 28 29  1  0  0  0  0
 29 31  1  6  0  0  0
 29 30  1  0  0  0  0
 33 32  1  6  0  0  0
 34 35  1  1  0  0  0
 34 33  1  0  0  0  0
 35 36  1  0  0  0  0
 37 46  1  1  0  0  0
 37 34  1  0  0  0  0
 39 38  1  6  0  0  0
 39 37  1  0  0  0  0
 40 39  1  0  0  0  0
 41 42  1  6  0  0  0
 41 45  1  0  0  0  0
 41 40  1  0  0  0  0
 44 45  1  0  0  0  0
 45 43  1  0  0  0  0
 48 46  1  0  0  0  0
 48 49  1  0  0  0  0
 49 47  1  0  0  0  0
 50 49  1  0  0  0  0
 51 48  2  0  0  0  0
 52 51  1  0  0  0  0
 52 50  2  0  0  0  0
M  END
>  <MODEL>
4

>  <REMARK>
 VINA RESULT:      -5.9      2.604      7.963
  Name = 
  19 active torsions:
  status: ('A' for Active; 'I' for Inactive)
    1  A    between atoms: C_3  and  C_48
    2  A    between atoms: C_4  and  C_7
    3  A    between atoms: C_4  and  C_33
    4  A    between atoms: C_4  and  N_43
    5  A    between atoms: C_5  and  C_15
    6  A    between atoms: C_5  and  C_25
    7  A    between atoms: C_8  and  C_28
    8  A    between atoms: C_8  and  C_45
    9  A    between atoms: O_12  and  C_17
   10  A    between atoms: C_15  and  C_17
   11  A    between atoms: C_15  and  C_45
   12  A    between atoms: C_17  and  C_33
   13  A    between atoms: C_18  and  C_30
   14  A    between atoms: C_18  and  C_38
   15  A    between atoms: C_23  and  C_38
   16  A    between atoms: C_28  and  C_47
   17  A    between atoms: C_29  and  C_30
   18  A    between atoms: N_31  and  C_36
   19  A    between atoms: C_40  and  C_51
                            x       y       z     vdW  Elec       q    Type
                         _______ _______ _______ _____ _____    ______ ____

>  <TORSDO>
F 19

$$$$
=
 OpenBabel11062420123D

 52 55  0  0  1  0  0  0  0  0999 V2000
  192.0390  175.2200  141.8020 C   0  0  0  0  0  2  0  0  0  0  0  0
  191.9430  174.2910  142.8530 O   0  0  0  0  0  0  0  0  0  0  0  0
  192.9440  174.5780  143.7460 N   0  0  0  0  0  0  0  0  0  0  0  0
  192.5680  176.4940  142.3740 C   0  0  0  0  0  2  0  0  0  0  0  0
  193.3060  175.9860  143.5710 C   0  0  1  0  0  3  0  0  0  0  0  0
  191.3510  175.5300  147.9630 C   0  0  0  0  0  3  0  0  0  0  0  0
  193.5080  176.5500  147.2190 C   0  0  0  0  0  2  0  0  0  0  0  0
  194.1460  176.7720  145.8610 C   0  0  2  0  0  3  0  0  0  0  0  0
  190.2380  175.0100  147.6850 O   0  0  0  0  0  0  0  0  0  0  0  0
  191.7670  176.2510  145.5520 C   0  0  1  0  0  3  0  0  0  0  0  0
  194.8010  178.0020  145.8420 O   0  0  0  0  0  1  0  0  0  0  0  0
  193.0040  176.7760  144.8470 C   0  0  2  0  0  3  0  0  0  0  0  0
  192.1370  176.1690  146.9550 N   0  0  0  0  0  0  0  0  0  0  0  0
  190.6440  177.2640  145.3540 C   0  0  0  0  0  2  0  0  0  0  0  0
  189.3810  176.5890  144.9270 C   0  0  0  0  0  0  0  0  0  0  0  0
  189.4130  175.7090  144.0810 O   0  0  0  0  0  0  0  0  0  0  0  0
  188.0830  177.0000  145.5380 C   0  0  0  0  0  2  0  0  0  0  0  0
  185.9620  178.3880  145.0970 C   0  0  1  0  0  0  0  0  0  0  0  0
  185.5000  179.6390  144.7330 F   0  0  0  0  0  0  0  0  0  0  0  0
  186.2550  177.4450  143.9410 C   0  0  2  0  0  3  0  0  0  0  0  0
  187.4100  178.0830  144.7030 C   0  0  2  0  0  3  0  0  0  0  0  0
  186.0890  178.0980  142.7190 O   0  0  0  0  0  1  0  0  0  0  0  0
  185.5370  178.3260  147.6210 N   0  0  0  0  0  2  0  0  0  0  0  0
  184.8830  176.5550  146.2350 N   0  0  0  0  0  2  0  0  0  0  0  0
  185.3620  177.7510  146.3220 C   0  0  0  0  0  0  0  0  0  0  0  0
  187.3770  179.3640  148.7010 N   0  0  0  0  0  1  0  0  0  0  0  0
  186.2230  179.5880  147.8510 C   0  0  0  0  0  2  0  0  0  0  0  0
  194.0960  173.6900  143.4580 C   0  0  1  0  0  3  0  0  0  0  0  0
  195.4520  174.4270  143.4350 C   0  0  1  0  0  3  0  0  0  0  0  0
  196.2070  174.1480  144.5740 O   0  0  0  0  0  1  0  0  0  0  0  0
  196.2630  174.1510  142.1790 C   0  0  0  0  0  1  0  0  0  0  0  0
  193.5000  172.7740  145.6590 O   0  0  0  0  0  1  0  0  0  0  0  0
  194.2170  172.5450  144.4820 C   0  0  1  0  0  3  0  0  0  0  0  0
  193.8530  171.1890  143.8360 C   0  0  1  0  0  3  0  0  0  0  0  0
  193.4770  170.2070  144.7820 O   0  0  0  0  0  0  0  0  0  0  0  0
  194.5160  169.2670  144.8940 C   0  0  0  0  0  1  0  0  0  0  0  0
  192.9910  171.2180  142.5450 C   0  0  1  0  0  3  0  0  0  0  0  0
  193.3520  169.2310  140.9620 C   0  0  0  0  0  1  0  0  0  0  0  0
  193.7200  170.6640  141.3110 C   0  0  1  0  0  3  0  0  0  0  0  0
  193.8020  171.6110  140.1050 C   0  0  0  0  0  2  0  0  0  0  0  0
  193.4400  170.9510  138.7750 C   0  0  2  0  0  3  0  0  0  0  0  0
  194.6900  170.9060  137.9040 C   0  0  0  0  0  1  0  0  0  0  0  0
  192.3060  173.1870  138.5290 C   0  0  0  0  0  1  0  0  0  0  0  0
  192.5140  171.7120  136.5750 C   0  0  0  0  0  1  0  0  0  0  0  0
  192.3210  171.7350  138.0800 C   0  0  0  0  0  3  0  0  0  0  0  0
  191.6740  170.4600  142.6920 C   0  0  0  0  0  2  0  0  0  0  0  0
  189.8430  172.0600  144.6370 C   0  0  0  0  0  1  0  0  0  0  0  0
  190.5130  171.3260  142.3310 C   0  0  0  0  0  0  0  0  0  0  0  0
  189.7380  172.0090  143.1880 N   0  0  0  0  0  0  0  0  0  0  0  0
  188.8430  172.6770  142.4840 N   0  0  0  0  0  0  0  0  0  0  0  0
  190.0690  171.6060  141.0540 C   0  0  0  0  0  3  0  0  0  0  0  0
  189.0200  172.4480  141.1910 N   0  0  0  0  0  0  0  0  0  0  0  0
  1  4  1  0  0  0  0
  1  2  1  0  0  0  0
  2  3  1  0  0  0  0
  5  4  1  6  0  0  0
  5  3  1  0  0  0  0
  8 11  1  1  0  0  0
  8  7  1  0  0  0  0
  9  6  2  0  0  0  0
 10 14  1  1  0  0  0
 10 13  1  0  0  0  0
 12  5  1  6  0  0  0
 12 10  1  0  0  0  0
 12  8  1  0  0  0  0
 13  7  1  0  0  0  0
 13  6  1  0  0  0  0
 15 14  1  0  0  0  0
 15 17  1  0  0  0  0
 16 15  2  0  0  0  0
 18 19  1  6  0  0  0
 18 25  1  0  0  0  0
 20 22  1  6  0  0  0
 20 21  1  0  0  0  0
 20 18  1  0  0  0  0
 21 18  1  0  0  0  0
 21 17  1  1  0  0  0
 23 27  1  0  0  0  0
 24 25  2  0  0  0  0
 25 23  1  0  0  0  0
 27 26  1  0  0  0  0
 28 29  1  1  0  0  0
 28  3  1  0  0  0  0
 28 33  1  0  0  0  0
 29 31  1  6  0  0  0
 29 30  1  0  0  0  0
 33 32  1  1  0  0  0
 34 33  1  0  0  0  0
 34 35  1  1  0  0  0
 35 36  1  0  0  0  0
 37 46  1  1  0  0  0
 37 34  1  0  0  0  0
 39 38  1  6  0  0  0
 39 37  1  0  0  0  0
 40 39  1  0  0  0  0
 41 42  1  6  0  0  0
 41 40  1  0  0  0  0
 44 45  1  0  0  0  0
 45 43  1  0  0  0  0
 45 41  1  0  0  0  0
 48 46  1  0  0  0  0
 48 49  1  0  0  0  0
 49 47  1  0  0  0  0
 50 49  1  0  0  0  0
 51 52  1  0  0  0  0
 51 48  2  0  0  0  0
 52 50  2  0  0  0  0
M  END
>  <MODEL>
5

>  <REMARK>
 VINA RESULT:      -5.7      3.194      8.461
  Name = 
  19 active torsions:
  status: ('A' for Active; 'I' for Inactive)
    1  A    between atoms: C_3  and  C_48
    2  A    between atoms: C_4  and  C_7
    3  A    between atoms: C_4  and  C_33
    4  A    between atoms: C_4  and  N_43
    5  A    between atoms: C_5  and  C_15
    6  A    between atoms: C_5  and  C_25
    7  A    between atoms: C_8  and  C_28
    8  A    between atoms: C_8  and  C_45
    9  A    between atoms: O_12  and  C_17
   10  A    between atoms: C_15  and  C_17
   11  A    between atoms: C_15  and  C_45
   12  A    between atoms: C_17  and  C_33
   13  A    between atoms: C_18  and  C_30
   14  A    between atoms: C_18  and  C_38
   15  A    between atoms: C_23  and  C_38
   16  A    between atoms: C_28  and  C_47
   17  A    between atoms: C_29  and  C_30
   18  A    between atoms: N_31  and  C_36
   19  A    between atoms: C_40  and  C_51
                            x       y       z     vdW  Elec       q    Type
                         _______ _______ _______ _____ _____    ______ ____

>  <TORSDO>
F 19

$$$$
=
 OpenBabel11062420123D

 52 55  0  0  1  0  0  0  0  0999 V2000
  188.2610  173.1120  139.6170 C   0  0  0  0  0  2  0  0  0  0  0  0
  189.0430  174.2160  140.0000 O   0  0  0  0  0  0  0  0  0  0  0  0
  190.1930  173.7280  140.5660 N   0  0  0  0  0  0  0  0  0  0  0  0
  189.1950  172.0070  139.2490 C   0  0  0  0  0  2  0  0  0  0  0  0
  190.4060  172.3770  140.0440 C   0  0  1  0  0  3  0  0  0  0  0  0
  192.9710  169.4640  137.1710 C   0  0  0  0  0  3  0  0  0  0  0  0
  192.3160  171.8630  136.9200 C   0  0  0  0  0  2  0  0  0  0  0  0
  191.5650  172.8390  137.8060 C   0  0  2  0  0  3  0  0  0  0  0  0
  193.0250  168.4160  137.8670 O   0  0  0  0  0  0  0  0  0  0  0  0
  192.2460  170.9010  139.1490 C   0  0  1  0  0  3  0  0  0  0  0  0
  192.1420  174.1050  137.7070 O   0  0  0  0  0  1  0  0  0  0  0  0
  191.7040  172.3160  139.2340 C   0  0  2  0  0  3  0  0  0  0  0  0
  192.6100  170.7170  137.7540 N   0  0  0  0  0  0  0  0  0  0  0  0
  193.4810  170.8140  140.0400 C   0  0  0  0  0  2  0  0  0  0  0  0
  194.5510  171.7420  139.5660 C   0  0  0  0  0  0  0  0  0  0  0  0
  195.3250  171.3880  138.6900 O   0  0  0  0  0  0  0  0  0  0  0  0
  194.6710  173.1010  140.1720 C   0  0  0  0  0  2  0  0  0  0  0  0
  196.2020  173.5500  142.1890 C   0  0  1  0  0  0  0  0  0  0  0  0
  196.2190  173.9350  143.5170 F   0  0  0  0  0  0  0  0  0  0  0  0
  196.0270  172.0590  141.9500 C   0  0  2  0  0  3  0  0  0  0  0  0
  194.8640  173.0070  141.6810 C   0  0  2  0  0  3  0  0  0  0  0  0
  195.8100  171.3900  143.1550 O   0  0  0  0  0  1  0  0  0  0  0  0
  197.0510  175.6680  141.0270 N   0  0  0  0  0  2  0  0  0  0  0  0
  197.8770  173.5520  140.4530 N   0  0  0  0  0  2  0  0  0  0  0  0
  197.1400  174.2550  141.2460 C   0  0  0  0  0  0  0  0  0  0  0  0
  194.9220  176.7140  140.9490 N   0  0  0  0  0  1  0  0  0  0  0  0
  196.1230  176.5310  141.7420 C   0  0  0  0  0  2  0  0  0  0  0  0
  190.0200  173.7120  142.0380 C   0  0  1  0  0  3  0  0  0  0  0  0
  190.3540  172.3500  142.6830 C   0  0  1  0  0  3  0  0  0  0  0  0
  191.6600  172.3200  143.1710 O   0  0  0  0  0  1  0  0  0  0  0  0
  189.3710  171.9450  143.7700 C   0  0  0  0  0  1  0  0  0  0  0  0
  191.8600  175.3360  141.9010 O   0  0  0  0  0  1  0  0  0  0  0  0
  190.8930  174.7730  142.7370 C   0  0  1  0  0  3  0  0  0  0  0  0
  190.0120  175.8490  143.4130 C   0  0  1  0  0  3  0  0  0  0  0  0
  188.6960  175.8930  142.8960 O   0  0  0  0  0  0  0  0  0  0  0  0
  188.5770  177.0170  142.0600 C   0  0  0  0  0  1  0  0  0  0  0  0
  190.1150  175.9940  144.9550 C   0  0  1  0  0  3  0  0  0  0  0  0
  188.6930  175.2660  146.9640 C   0  0  0  0  0  1  0  0  0  0  0  0
  188.7480  176.0400  145.6560 C   0  0  1  0  0  3  0  0  0  0  0  0
  188.0700  177.4170  145.7040 C   0  0  0  0  0  2  0  0  0  0  0  0
  186.5510  177.3530  145.8660 C   0  0  2  0  0  3  0  0  0  0  0  0
  185.9550  176.7760  144.5880 C   0  0  0  0  0  1  0  0  0  0  0  0
  185.5380  179.4300  144.8650 C   0  0  0  0  0  1  0  0  0  0  0  0
  184.7910  178.6620  147.0750 C   0  0  0  0  0  1  0  0  0  0  0  0
  185.9880  178.7500  146.1470 C   0  0  0  0  0  3  0  0  0  0  0  0
  190.9390  174.8840  145.6040 C   0  0  0  0  0  2  0  0  0  0  0  0
  193.6420  173.3390  145.5680 C   0  0  0  0  0  1  0  0  0  0  0  0
  192.2730  175.3910  146.0410 C   0  0  0  0  0  0  0  0  0  0  0  0
  193.4270  174.7060  146.0140 N   0  0  0  0  0  0  0  0  0  0  0  0
  194.3850  175.5040  146.4490 N   0  0  0  0  0  0  0  0  0  0  0  0
  192.5530  176.6610  146.5020 C   0  0  0  0  0  3  0  0  0  0  0  0
  193.8800  176.6920  146.7540 N   0  0  0  0  0  0  0  0  0  0  0  0
  1  2  1  0  0  0  0
  2  3  1  0  0  0  0
  3 28  1  0  0  0  0
  4  1  1  0  0  0  0
  5  4  1  6  0  0  0
  5  3  1  0  0  0  0
  6 13  1  0  0  0  0
  6  9  2  0  0  0  0
  7 13  1  0  0  0  0
  7  8  1  0  0  0  0
  8 11  1  1  0  0  0
  8 12  1  0  0  0  0
 10 12  1  0  0  0  0
 10 14  1  1  0  0  0
 12  5  1  6  0  0  0
 13 10  1  0  0  0  0
 15 14  1  0  0  0  0
 15 17  1  0  0  0  0
 16 15  2  0  0  0  0
 18 19  1  1  0  0  0
 20 18  1  0  0  0  0
 20 22  1  1  0  0  0
 21 17  1  6  0  0  0
 21 20  1  0  0  0  0
 21 18  1  0  0  0  0
 23 25  1  0  0  0  0
 23 27  1  0  0  0  0
 24 25  2  0  0  0  0
 25 18  1  0  0  0  0
 26 27  1  0  0  0  0
 28 29  1  1  0  0  0
 28 33  1  0  0  0  0
 29 30  1  0  0  0  0
 29 31  1  1  0  0  0
 33 32  1  6  0  0  0
 33 34  1  0  0  0  0
 34 35  1  1  0  0  0
 34 37  1  0  0  0  0
 36 35  1  0  0  0  0
 37 46  1  1  0  0  0
 37 39  1  0  0  0  0
 39 40  1  0  0  0  0
 39 38  1  1  0  0  0
 40 41  1  0  0  0  0
 41 42  1  6  0  0  0
 41 45  1  0  0  0  0
 43 45  1  0  0  0  0
 45 44  1  0  0  0  0
 46 48  1  0  0  0  0
 47 49  1  0  0  0  0
 48 51  2  0  0  0  0
 49 48  1  0  0  0  0
 49 50  1  0  0  0  0
 50 52  2  0  0  0  0
 51 52  1  0  0  0  0
M  END
>  <MODEL>
6

>  <REMARK>
 VINA RESULT:      -5.5      2.273      5.638
  Name = 
  19 active torsions:
  status: ('A' for Active; 'I' for Inactive)
    1  A    between atoms: C_3  and  C_48
    2  A    between atoms: C_4  and  C_7
    3  A    between atoms: C_4  and  C_33
    4  A    between atoms: C_4  and  N_43
    5  A    between atoms: C_5  and  C_15
    6  A    between atoms: C_5  and  C_25
    7  A    between atoms: C_8  and  C_28
    8  A    between atoms: C_8  and  C_45
    9  A    between atoms: O_12  and  C_17
   10  A    between atoms: C_15  and  C_17
   11  A    between atoms: C_15  and  C_45
   12  A    between atoms: C_17  and  C_33
   13  A    between atoms: C_18  and  C_30
   14  A    between atoms: C_18  and  C_38
   15  A    between atoms: C_23  and  C_38
   16  A    between atoms: C_28  and  C_47
   17  A    between atoms: C_29  and  C_30
   18  A    between atoms: N_31  and  C_36
   19  A    between atoms: C_40  and  C_51
                            x       y       z     vdW  Elec       q    Type
                         _______ _______ _______ _____ _____    ______ ____

>  <TORSDO>
F 19

$$$$
=
 OpenBabel11062420123D

 52 55  0  0  1  0  0  0  0  0999 V2000
  192.5820  174.9520  141.9300 C   0  0  0  0  0  2  0  0  0  0  0  0
  192.8370  174.0870  143.0080 O   0  0  0  0  0  0  0  0  0  0  0  0
  193.7410  174.7120  143.8300 N   0  0  0  0  0  0  0  0  0  0  0  0
  192.7110  176.3520  142.4350 C   0  0  0  0  0  2  0  0  0  0  0  0
  193.6310  176.1530  143.5970 C   0  0  1  0  0  3  0  0  0  0  0  0
  190.9510  175.4980  147.5600 C   0  0  0  0  0  3  0  0  0  0  0  0
  193.2500  176.4320  147.2640 C   0  0  0  0  0  2  0  0  0  0  0  0
  194.1160  176.7130  146.0510 C   0  0  2  0  0  3  0  0  0  0  0  0
  189.8750  175.0720  147.0630 O   0  0  0  0  0  0  0  0  0  0  0  0
  191.7990  176.3680  145.3170 C   0  0  1  0  0  3  0  0  0  0  0  0
  194.8260  177.8970  146.2410 O   0  0  0  0  0  1  0  0  0  0  0  0
  193.1610  176.8650  144.8690 C   0  0  2  0  0  3  0  0  0  0  0  0
  191.9250  176.1590  146.7500 N   0  0  0  0  0  0  0  0  0  0  0  0
  190.7770  177.4620  145.0250 C   0  0  0  0  0  2  0  0  0  0  0  0
  189.5460  176.8930  144.4000 C   0  0  0  0  0  0  0  0  0  0  0  0
  189.6050  175.8480  143.7710 O   0  0  0  0  0  0  0  0  0  0  0  0
  188.2450  177.6110  144.5450 C   0  0  0  0  0  2  0  0  0  0  0  0
  185.8550  177.3860  145.4680 C   0  0  1  0  0  0  0  0  0  0  0  0
  184.8520  176.4820  145.7650 F   0  0  0  0  0  0  0  0  0  0  0  0
  186.8570  177.6300  146.5850 C   0  0  2  0  0  3  0  0  0  0  0  0
  187.2640  176.7940  145.3770 C   0  0  2  0  0  3  0  0  0  0  0  0
  186.6030  176.7870  147.6670 O   0  0  0  0  0  1  0  0  0  0  0  0
  185.2150  178.4840  143.2460 N   0  0  0  0  0  2  0  0  0  0  0  0
  185.6440  179.7690  145.1570 N   0  0  0  0  0  2  0  0  0  0  0  0
  185.4870  178.5930  144.6470 C   0  0  0  0  0  0  0  0  0  0  0  0
  186.3290  177.1450  141.6340 N   0  0  0  0  0  1  0  0  0  0  0  0
  185.1900  177.2170  142.5310 C   0  0  0  0  0  2  0  0  0  0  0  0
  195.0970  174.2170  143.4940 C   0  0  1  0  0  3  0  0  0  0  0  0
  196.2190  175.2280  143.8160 C   0  0  1  0  0  3  0  0  0  0  0  0
  196.8990  174.8850  144.9850 O   0  0  0  0  0  1  0  0  0  0  0  0
  197.1980  175.4210  142.6690 C   0  0  0  0  0  1  0  0  0  0  0  0
  194.3920  172.4280  145.0230 O   0  0  0  0  0  1  0  0  0  0  0  0
  195.4380  172.9080  144.2320 C   0  0  1  0  0  3  0  0  0  0  0  0
  195.9560  171.8390  143.2430 C   0  0  1  0  0  3  0  0  0  0  0  0
  196.0280  170.5460  143.8130 O   0  0  0  0  0  0  0  0  0  0  0  0
  197.1470  170.4890  144.6620 C   0  0  0  0  0  1  0  0  0  0  0  0
  195.4130  171.8850  141.7890 C   0  0  1  0  0  3  0  0  0  0  0  0
  197.3390  170.7970  140.4870 C   0  0  0  0  0  1  0  0  0  0  0  0
  196.5160  172.0510  140.7320 C   0  0  1  0  0  3  0  0  0  0  0  0
  196.1060  172.8010  139.4550 C   0  0  0  0  0  2  0  0  0  0  0  0
  196.5920  174.2490  139.4060 C   0  0  2  0  0  3  0  0  0  0  0  0
  195.3740  175.1650  139.4070 C   0  0  0  0  0  1  0  0  0  0  0  0
  197.8400  173.1640  137.5070 C   0  0  0  0  0  1  0  0  0  0  0  0
  196.6770  175.2950  137.1310 C   0  0  0  0  0  1  0  0  0  0  0  0
  197.4460  174.4810  138.1550 C   0  0  0  0  0  3  0  0  0  0  0  0
  194.5920  170.6510  141.4220 C   0  0  0  0  0  2  0  0  0  0  0  0
  192.4170  170.0640  143.5710 C   0  0  0  0  0  1  0  0  0  0  0  0
  193.1380  170.9780  141.3450 C   0  0  0  0  0  0  0  0  0  0  0  0
  192.2170  170.7160  142.2870 N   0  0  0  0  0  0  0  0  0  0  0  0
  191.0570  171.1840  141.8630 N   0  0  0  0  0  0  0  0  0  0  0  0
  192.5030  171.6420  140.3150 C   0  0  0  0  0  3  0  0  0  0  0  0
  191.2040  171.7470  140.6720 N   0  0  0  0  0  0  0  0  0  0  0  0
  1  4  1  0  0  0  0
  1  2  1  0  0  0  0
  2  3  1  0  0  0  0
  5  4  1  6  0  0  0
  5  3  1  0  0  0  0
  8 11  1  1  0  0  0
  8  7  1  0  0  0  0
  9  6  2  0  0  0  0
 10 14  1  1  0  0  0
 10 13  1  0  0  0  0
 12  5  1  6  0  0  0
 12 10  1  0  0  0  0
 12  8  1  0  0  0  0
 13  7  1  0  0  0  0
 13  6  1  0  0  0  0
 15 17  1  0  0  0  0
 15 14  1  0  0  0  0
 16 15  2  0  0  0  0
 18 19  1  1  0  0  0
 18 20  1  0  0  0  0
 20 22  1  1  0  0  0
 21 17  1  6  0  0  0
 21 18  1  0  0  0  0
 21 20  1  0  0  0  0
 23 25  1  0  0  0  0
 25 24  2  0  0  0  0
 25 18  1  0  0  0  0
 26 27  1  0  0  0  0
 27 23  1  0  0  0  0
 28 29  1  1  0  0  0
 28  3  1  0  0  0  0
 28 33  1  0  0  0  0
 29 31  1  6  0  0  0
 29 30  1  0  0  0  0
 33 32  1  6  0  0  0
 34 35  1  1  0  0  0
 34 33  1  0  0  0  0
 35 36  1  0  0  0  0
 37 46  1  6  0  0  0
 37 34  1  0  0  0  0
 39 38  1  6  0  0  0
 39 37  1  0  0  0  0
 40 39  1  0  0  0  0
 41 42  1  6  0  0  0
 41 40  1  0  0  0  0
 43 45  1  0  0  0  0
 44 45  1  0  0  0  0
 45 41  1  0  0  0  0
 48 46  1  0  0  0  0
 48 49  1  0  0  0  0
 49 47  1  0  0  0  0
 50 49  1  0  0  0  0
 51 52  1  0  0  0  0
 51 48  2  0  0  0  0
 52 50  2  0  0  0  0
M  END
>  <MODEL>
7

>  <REMARK>
 VINA RESULT:      -5.5      2.742      8.672
  Name = 
  19 active torsions:
  status: ('A' for Active; 'I' for Inactive)
    1  A    between atoms: C_3  and  C_48
    2  A    between atoms: C_4  and  C_7
    3  A    between atoms: C_4  and  C_33
    4  A    between atoms: C_4  and  N_43
    5  A    between atoms: C_5  and  C_15
    6  A    between atoms: C_5  and  C_25
    7  A    between atoms: C_8  and  C_28
    8  A    between atoms: C_8  and  C_45
    9  A    between atoms: O_12  and  C_17
   10  A    between atoms: C_15  and  C_17
   11  A    between atoms: C_15  and  C_45
   12  A    between atoms: C_17  and  C_33
   13  A    between atoms: C_18  and  C_30
   14  A    between atoms: C_18  and  C_38
   15  A    between atoms: C_23  and  C_38
   16  A    between atoms: C_28  and  C_47
   17  A    between atoms: C_29  and  C_30
   18  A    between atoms: N_31  and  C_36
   19  A    between atoms: C_40  and  C_51
                            x       y       z     vdW  Elec       q    Type
                         _______ _______ _______ _____ _____    ______ ____

>  <TORSDO>
F 19

$$$$
=
 OpenBabel11062420123D

 52 55  0  0  1  0  0  0  0  0999 V2000
  188.7380  172.7450  142.6650 C   0  0  0  0  0  2  0  0  0  0  0  0
  189.7230  172.5210  143.6430 O   0  0  0  0  0  0  0  0  0  0  0  0
  190.6660  173.5080  143.5090 N   0  0  0  0  0  0  0  0  0  0  0  0
  188.6540  174.2190  142.4410 C   0  0  0  0  0  2  0  0  0  0  0  0
  190.0230  174.6510  142.8580 C   0  0  1  0  0  3  0  0  0  0  0  0
  192.0590  176.3670  146.8880 C   0  0  0  0  0  3  0  0  0  0  0  0
  191.6670  177.4300  144.6600 C   0  0  0  0  0  2  0  0  0  0  0  0
  190.9890  176.9660  143.3840 C   0  0  2  0  0  3  0  0  0  0  0  0
  191.8940  175.4010  147.6780 O   0  0  0  0  0  0  0  0  0  0  0  0
  190.3480  175.4700  145.2220 C   0  0  1  0  0  3  0  0  0  0  0  0
  190.2890  178.0250  142.8090 O   0  0  0  0  0  1  0  0  0  0  0  0
  190.0150  175.8630  143.7940 C   0  0  2  0  0  3  0  0  0  0  0  0
  191.3110  176.4600  145.6730 N   0  0  0  0  0  0  0  0  0  0  0  0
  189.0670  175.5570  146.0460 C   0  0  0  0  0  2  0  0  0  0  0  0
  188.6670  176.9790  146.2690 C   0  0  0  0  0  0  0  0  0  0  0  0
  189.0370  177.5690  147.2720 O   0  0  0  0  0  0  0  0  0  0  0  0
  187.8100  177.6710  145.2610 C   0  0  0  0  0  2  0  0  0  0  0  0
  185.4110  177.7730  144.3400 C   0  0  1  0  0  0  0  0  0  0  0  0
  184.3850  177.0160  143.8050 F   0  0  0  0  0  0  0  0  0  0  0  0
  185.4240  177.8650  145.8580 C   0  0  2  0  0  3  0  0  0  0  0  0
  186.4510  176.9910  145.1470 C   0  0  2  0  0  3  0  0  0  0  0  0
  184.4300  177.0560  146.4080 O   0  0  0  0  0  1  0  0  0  0  0  0
  186.5230  178.9700  142.3690 N   0  0  0  0  0  2  0  0  0  0  0  0
  185.7100  180.1640  144.2130 N   0  0  0  0  0  2  0  0  0  0  0  0
  185.8080  179.0280  143.6080 C   0  0  0  0  0  0  0  0  0  0  0  0
  185.9220  177.5230  140.5870 N   0  0  0  0  0  1  0  0  0  0  0  0
  186.8450  177.7260  141.6880 C   0  0  0  0  0  2  0  0  0  0  0  0
  191.7810  172.9810  142.6870 C   0  0  1  0  0  3  0  0  0  0  0  0
  191.8630  173.6150  141.2820 C   0  0  1  0  0  3  0  0  0  0  0  0
  193.0780  174.2720  141.0860 O   0  0  0  0  0  1  0  0  0  0  0  0
  191.6100  172.6210  140.1600 C   0  0  0  0  0  1  0  0  0  0  0  0
  193.0570  173.6490  144.6790 O   0  0  0  0  0  1  0  0  0  0  0  0
  193.1500  173.1910  143.3620 C   0  0  1  0  0  3  0  0  0  0  0  0
  194.0180  171.9160  143.2520 C   0  0  1  0  0  3  0  0  0  0  0  0
  193.2730  170.7700  142.8850 O   0  0  0  0  0  0  0  0  0  0  0  0
  193.5560  169.7380  143.7970 C   0  0  0  0  0  1  0  0  0  0  0  0
  195.4010  172.0480  142.5600 C   0  0  1  0  0  3  0  0  0  0  0  0
  197.3520  170.8170  143.6850 C   0  0  0  0  0  1  0  0  0  0  0  0
  196.5740  172.1160  143.5500 C   0  0  1  0  0  3  0  0  0  0  0  0
  197.4510  173.3740  143.4570 C   0  0  0  0  0  2  0  0  0  0  0  0
  197.1250  174.4340  144.5100 C   0  0  2  0  0  3  0  0  0  0  0  0
  196.4740  173.7430  145.7020 C   0  0  0  0  0  1  0  0  0  0  0  0
  195.3890  176.1880  145.0100 C   0  0  0  0  0  1  0  0  0  0  0  0
  196.9940  176.5570  143.1870 C   0  0  0  0  0  1  0  0  0  0  0  0
  196.1930  175.4980  143.9210 C   0  0  0  0  0  3  0  0  0  0  0  0
  195.6830  170.9160  141.5740 C   0  0  0  0  0  2  0  0  0  0  0  0
  193.8640  169.3910  139.5590 C   0  0  0  0  0  1  0  0  0  0  0  0
  195.3450  171.3230  140.1790 C   0  0  0  0  0  0  0  0  0  0  0  0
  194.5550  170.6500  139.3270 N   0  0  0  0  0  0  0  0  0  0  0  0
  194.4770  171.3450  138.2080 N   0  0  0  0  0  0  0  0  0  0  0  0
  195.7490  172.4810  139.5440 C   0  0  0  0  0  3  0  0  0  0  0  0
  195.1930  172.4560  138.3130 N   0  0  0  0  0  0  0  0  0  0  0  0
  1  2  1  0  0  0  0
  3  2  1  0  0  0  0
  4  1  1  0  0  0  0
  5  4  1  1  0  0  0
  5  3  1  0  0  0  0
  6  9  2  0  0  0  0
  7 13  1  0  0  0  0
  8 11  1  1  0  0  0
  8 12  1  0  0  0  0
  8  7  1  0  0  0  0
 10 13  1  0  0  0  0
 10 14  1  1  0  0  0
 12  5  1  6  0  0  0
 12 10  1  0  0  0  0
 13  6  1  0  0  0  0
 14 15  1  0  0  0  0
 15 16  2  0  0  0  0
 17 15  1  0  0  0  0
 18 19  1  6  0  0  0
 18 21  1  0  0  0  0
 18 20  1  0  0  0  0
 20 22  1  1  0  0  0
 21 17  1  6  0  0  0
 21 20  1  0  0  0  0
 23 25  1  0  0  0  0
 25 24  2  0  0  0  0
 25 18  1  0  0  0  0
 26 27  1  0  0  0  0
 27 23  1  0  0  0  0
 28 29  1  6  0  0  0
 28 33  1  0  0  0  0
 28  3  1  0  0  0  0
 29 31  1  6  0  0  0
 30 29  1  0  0  0  0
 33 32  1  1  0  0  0
 34 35  1  6  0  0  0
 34 33  1  0  0  0  0
 35 36  1  0  0  0  0
 37 46  1  6  0  0  0
 37 34  1  0  0  0  0
 37 39  1  0  0  0  0
 39 38  1  6  0  0  0
 40 39  1  0  0  0  0
 40 41  1  0  0  0  0
 41 42  1  1  0  0  0
 44 45  1  0  0  0  0
 45 41  1  0  0  0  0
 45 43  1  0  0  0  0
 48 46  1  0  0  0  0
 49 47  1  0  0  0  0
 49 48  1  0  0  0  0
 50 52  2  0  0  0  0
 50 49  1  0  0  0  0
 51 48  2  0  0  0  0
 52 51  1  0  0  0  0
M  END
>  <MODEL>
8

>  <REMARK>
 VINA RESULT:      -5.4      2.700      8.552
  Name = 
  19 active torsions:
  status: ('A' for Active; 'I' for Inactive)
    1  A    between atoms: C_3  and  C_48
    2  A    between atoms: C_4  and  C_7
    3  A    between atoms: C_4  and  C_33
    4  A    between atoms: C_4  and  N_43
    5  A    between atoms: C_5  and  C_15
    6  A    between atoms: C_5  and  C_25
    7  A    between atoms: C_8  and  C_28
    8  A    between atoms: C_8  and  C_45
    9  A    between atoms: O_12  and  C_17
   10  A    between atoms: C_15  and  C_17
   11  A    between atoms: C_15  and  C_45
   12  A    between atoms: C_17  and  C_33
   13  A    between atoms: C_18  and  C_30
   14  A    between atoms: C_18  and  C_38
   15  A    between atoms: C_23  and  C_38
   16  A    between atoms: C_28  and  C_47
   17  A    between atoms: C_29  and  C_30
   18  A    between atoms: N_31  and  C_36
   19  A    between atoms: C_40  and  C_51
                            x       y       z     vdW  Elec       q    Type
                         _______ _______ _______ _____ _____    ______ ____

>  <TORSDO>
F 19

$$$$
=
 OpenBabel11062420123D

 52 55  0  0  1  0  0  0  0  0999 V2000
  190.4880  172.1310  144.6300 C   0  0  0  0  0  2  0  0  0  0  0  0
  191.5560  172.3590  143.7460 O   0  0  0  0  0  0  0  0  0  0  0  0
  191.2440  173.4670  143.0010 N   0  0  0  0  0  0  0  0  0  0  0  0
  189.8930  173.4590  144.9680 C   0  0  0  0  0  2  0  0  0  0  0  0
  190.2820  174.2610  143.7680 C   0  0  1  0  0  3  0  0  0  0  0  0
  192.0980  176.7850  147.4630 C   0  0  0  0  0  3  0  0  0  0  0  0
  192.9380  176.4390  145.1350 C   0  0  0  0  0  2  0  0  0  0  0  0
  192.3900  175.7100  143.9230 C   0  0  2  0  0  3  0  0  0  0  0  0
  191.1930  176.6410  148.3280 O   0  0  0  0  0  0  0  0  0  0  0  0
  190.5860  176.0100  145.5610 C   0  0  1  0  0  3  0  0  0  0  0  0
  192.6770  176.4340  142.7670 O   0  0  0  0  0  1  0  0  0  0  0  0
  190.8780  175.6270  144.1210 C   0  0  2  0  0  3  0  0  0  0  0  0
  191.8480  176.5050  146.0840 N   0  0  0  0  0  0  0  0  0  0  0  0
  189.5390  177.1190  145.5510 C   0  0  0  0  0  2  0  0  0  0  0  0
  188.1980  176.5960  145.9500 C   0  0  0  0  0  0  0  0  0  0  0  0
  188.0590  176.0210  147.0190 O   0  0  0  0  0  0  0  0  0  0  0  0
  187.0330  176.7760  145.0350 C   0  0  0  0  0  2  0  0  0  0  0  0
  186.5570  178.2420  142.9760 C   0  0  1  0  0  0  0  0  0  0  0  0
  187.1450  179.0370  142.0090 F   0  0  0  0  0  0  0  0  0  0  0  0
  186.4700  176.7640  142.6320 C   0  0  2  0  0  3  0  0  0  0  0  0
  187.4930  177.2400  143.6580 C   0  0  2  0  0  3  0  0  0  0  0  0
  187.1150  176.5010  141.4230 O   0  0  0  0  0  1  0  0  0  0  0  0
  184.0450  178.6690  143.2230 N   0  0  0  0  0  2  0  0  0  0  0  0
  185.5910  179.6240  144.7010 N   0  0  0  0  0  2  0  0  0  0  0  0
  185.3790  178.8080  143.7230 C   0  0  0  0  0  0  0  0  0  0  0  0
  182.4810  178.4270  141.4550 N   0  0  0  0  0  1  0  0  0  0  0  0
  183.7150  177.9170  142.0210 C   0  0  0  0  0  2  0  0  0  0  0  0
  190.6600  173.0170  141.7140 C   0  0  1  0  0  3  0  0  0  0  0  0
  189.3280  173.7140  141.3650 C   0  0  1  0  0  3  0  0  0  0  0  0
  189.3220  174.1780  140.0490 O   0  0  0  0  0  1  0  0  0  0  0  0
  188.1100  172.8420  141.6260 C   0  0  0  0  0  1  0  0  0  0  0  0
  192.2280  174.5050  140.5430 O   0  0  0  0  0  1  0  0  0  0  0  0
  191.6190  173.2470  140.5300 C   0  0  1  0  0  3  0  0  0  0  0  0
  192.6540  172.1030  140.4320 C   0  0  1  0  0  3  0  0  0  0  0  0
  192.5270  171.3420  139.2450 O   0  0  0  0  0  0  0  0  0  0  0  0
  191.7880  170.1810  139.5320 C   0  0  0  0  0  1  0  0  0  0  0  0
  194.1140  172.4190  140.8540 C   0  0  1  0  0  3  0  0  0  0  0  0
  194.5440  170.1970  142.0640 C   0  0  0  0  0  1  0  0  0  0  0  0
  194.5400  171.7150  142.1520 C   0  0  1  0  0  3  0  0  0  0  0  0
  195.7620  172.3130  142.8640 C   0  0  0  0  0  2  0  0  0  0  0  0
  195.4550  173.5820  143.6590 C   0  0  2  0  0  3  0  0  0  0  0  0
  196.4270  174.6710  143.2230 C   0  0  0  0  0  1  0  0  0  0  0  0
  194.2410  172.9180  145.7630 C   0  0  0  0  0  1  0  0  0  0  0  0
  196.5580  172.1790  145.4160 C   0  0  0  0  0  1  0  0  0  0  0  0
  195.5800  173.3110  145.1620 C   0  0  0  0  0  3  0  0  0  0  0  0
  195.1350  172.0700  139.7730 C   0  0  0  0  0  2  0  0  0  0  0  0
  194.8630  172.5120  136.7030 C   0  0  0  0  0  1  0  0  0  0  0  0
  195.5320  173.2820  138.9980 C   0  0  0  0  0  0  0  0  0  0  0  0
  195.4030  173.4510  137.6730 N   0  0  0  0  0  0  0  0  0  0  0  0
  195.8350  174.6620  137.3720 N   0  0  0  0  0  0  0  0  0  0  0  0
  196.0560  174.4490  139.5180 C   0  0  0  0  0  3  0  0  0  0  0  0
  196.2390  175.2840  138.4710 N   0  0  0  0  0  0  0  0  0  0  0  0
  1  4  1  0  0  0  0
  2  1  1  0  0  0  0
  3  2  1  0  0  0  0
  3  5  1  0  0  0  0
  5  4  1  1  0  0  0
  6  9  2  0  0  0  0
  7 13  1  0  0  0  0
  8 11  1  6  0  0  0
  8 12  1  0  0  0  0
  8  7  1  0  0  0  0
 10 14  1  6  0  0  0
 10 13  1  0  0  0  0
 12  5  1  1  0  0  0
 12 10  1  0  0  0  0
 13  6  1  0  0  0  0
 14 15  1  0  0  0  0
 15 16  2  0  0  0  0
 17 15  1  0  0  0  0
 18 19  1  6  0  0  0
 18 21  1  0  0  0  0
 18 25  1  0  0  0  0
 20 22  1  6  0  0  0
 20 18  1  0  0  0  0
 20 21  1  0  0  0  0
 21 17  1  1  0  0  0
 23 25  1  0  0  0  0
 25 24  2  0  0  0  0
 26 27  1  0  0  0  0
 27 23  1  0  0  0  0
 28 33  1  6  0  0  0
 28  3  1  0  0  0  0
 29 31  1  6  0  0  0
 29 28  1  0  0  0  0
 30 29  1  0  0  0  0
 33 32  1  1  0  0  0
 34 35  1  6  0  0  0
 34 33  1  0  0  0  0
 34 37  1  0  0  0  0
 35 36  1  0  0  0  0
 37 46  1  6  0  0  0
 37 39  1  0  0  0  0
 39 38  1  6  0  0  0
 39 40  1  0  0  0  0
 40 41  1  0  0  0  0
 41 42  1  6  0  0  0
 41 45  1  0  0  0  0
 45 44  1  0  0  0  0
 45 43  1  0  0  0  0
 47 49  1  0  0  0  0
 48 51  2  0  0  0  0
 48 46  1  0  0  0  0
 49 48  1  0  0  0  0
 50 49  1  0  0  0  0
 50 52  2  0  0  0  0
 52 51  1  0  0  0  0
M  END
>  <MODEL>
9

>  <REMARK>
 VINA RESULT:      -5.4      2.706      8.473
  Name = 
  19 active torsions:
  status: ('A' for Active; 'I' for Inactive)
    1  A    between atoms: C_3  and  C_48
    2  A    between atoms: C_4  and  C_7
    3  A    between atoms: C_4  and  C_33
    4  A    between atoms: C_4  and  N_43
    5  A    between atoms: C_5  and  C_15
    6  A    between atoms: C_5  and  C_25
    7  A    between atoms: C_8  and  C_28
    8  A    between atoms: C_8  and  C_45
    9  A    between atoms: O_12  and  C_17
   10  A    between atoms: C_15  and  C_17
   11  A    between atoms: C_15  and  C_45
   12  A    between atoms: C_17  and  C_33
   13  A    between atoms: C_18  and  C_30
   14  A    between atoms: C_18  and  C_38
   15  A    between atoms: C_23  and  C_38
   16  A    between atoms: C_28  and  C_47
   17  A    between atoms: C_29  and  C_30
   18  A    between atoms: N_31  and  C_36
   19  A    between atoms: C_40  and  C_51
                            x       y       z     vdW  Elec       q    Type
                         _______ _______ _______ _____ _____    ______ ____

>  <TORSDO>
F 19

$$$$
