=
 OpenBabel11072409343D

 63 67  0  0  1  0  0  0  0  0999 V2000
  191.9900  174.4130  145.2450 C   0  0  2  0  0  3  0  0  0  0  0  0
  190.3620  169.9400  140.9760 C   0  0  0  0  0  1  0  0  0  0  0  0
  191.2640  172.3050  140.5300 C   0  0  2  0  0  3  0  0  0  0  0  0
  190.4370  176.1100  146.1880 N   0  0  0  0  0  2  0  0  0  0  0  0
  192.1140  170.9440  142.4610 C   0  0  0  0  0  2  0  0  0  0  0  0
  188.7950  178.3960  141.3860 C   0  0  0  0  0  1  0  0  0  0  0  0
  193.4850  171.8740  144.1650 O   0  0  0  0  0  1  0  0  0  0  0  0
  190.9160  171.2290  141.5660 C   0  0  2  0  0  3  0  0  0  0  0  0
  187.1530  177.2530  147.0290 C   0  0  0  0  0  0  0  0  0  0  0  0
  188.3590  176.9450  143.3270 C   0  0  0  0  0  3  0  0  0  0  0  0
  192.2840  172.0610  143.4800 C   0  0  2  0  0  3  0  0  0  0  0  0
  190.0770  173.3190  146.1220 O   0  0  0  0  0  0  0  0  0  0  0  0
  190.6620  176.0200  143.7780 C   0  0  0  0  0  2  0  0  0  0  0  0
  188.9020  173.1500  140.6260 O   0  0  0  0  0  0  0  0  0  0  0  0
  187.8330  175.3200  140.3510 C   0  0  0  0  0  2  0  0  0  0  0  0
  190.2700  173.4240  140.5170 C   0  0  0  0  0  0  0  0  0  0  0  0
  189.2160  176.5220  145.6060 C   0  0  0  0  0  0  0  0  0  0  0  0
  191.3940  175.8210  145.1220 C   0  0  2  0  0  3  0  0  0  0  0  0
  191.1190  172.0350  144.4660 C   0  0  0  0  0  2  0  0  0  0  0  0
  185.8340  176.9590  147.7360 C   0  0  0  0  0  2  0  0  0  0  0  0
  187.3850  176.4270  141.1820 N   0  0  0  0  0  2  0  0  0  0  0  0
  187.9840  174.0670  141.2050 C   0  0  0  0  0  2  0  0  0  0  0  0
  186.3480  178.2880  147.8040 C   0  0  0  0  0  2  0  0  0  0  0  0
  188.5580  176.9710  141.8480 C   0  0  1  0  0  3  0  0  0  0  0  0
  190.9980  173.2660  145.3240 C   0  0  0  0  0  0  0  0  0  0  0  0
  188.1810  176.8920  146.3150 C   0  0  0  0  0  0  0  0  0  0  0  0
  190.6830  174.6080  140.4130 O   0  0  0  0  0  0  0  0  0  0  0  0
  189.3130  176.5310  144.1670 C   0  0  0  0  0  0  0  0  0  0  0  0
  190.8410  170.1940  136.3240 C   0  0  0  0  0  1  0  0  0  0  0  0
  192.9400  171.0570  137.3780 C   0  0  0  0  0  2  0  0  0  0  0  0
  191.5250  171.4130  136.9120 C   0  0  2  0  0  0  0  0  0  0  0  0
  192.8870  171.3620  138.8380 C   0  0  0  0  0  0  0  0  0  0  0  0
  190.8470  171.8370  138.0850 O   0  0  0  0  0  0  0  0  0  0  0  0
  191.6890  171.7940  139.1810 C   0  0  0  0  0  0  0  0  0  0  0  0
  190.3990  172.5140  134.5130 O   0  0  0  0  0  0  0  0  0  0  0  0
  192.9410  172.8200  135.0510 O   0  0  0  0  0  1  0  0  0  0  0  0
  191.5770  172.7700  135.7010 P   0  0  0  0  0  0  0  0  0  0  0  0
  191.2750  174.2450  136.4780 O   0  0  0  0  0  1  0  0  0  0  0  0
  193.9590  171.2260  139.7180 O   0  0  0  0  0  0  0  0  0  0  0  0
  195.1740  171.7020  139.4070 O   0  0  0  0  0  0  0  0  0  0  0  0
  196.2380  173.3800  140.8200 C   0  0  0  0  0  0  0  0  0  0  0  0
  195.2030  172.9540  139.9300 N   0  0  0  0  0  2  0  0  0  0  0  0
  197.2120  172.6200  141.0700 O   0  0  0  0  0  0  0  0  0  0  0  0
  196.1620  174.7530  141.4230 C   0  0  2  0  0  3  0  0  0  0  0  0
  194.8330  176.8100  141.1490 N   0  0  0  0  0  1  0  0  0  0  0  0
  193.9390  174.9890  142.2960 O   0  0  0  0  0  1  0  0  0  0  0  0
  194.7710  175.3590  141.2400 C   0  0  2  0  0  3  0  0  0  0  0  0
  197.2640  175.6820  140.9180 C   0  0  0  0  0  2  0  0  0  0  0  0
  197.4630  175.4980  139.4250 C   0  0  0  0  0  1  0  0  0  0  0  0
  193.1990  174.3470  146.2030 C   0  0  0  0  0  2  0  0  0  0  0  0
  194.4770  175.1030  145.8030 C   0  0  2  0  0  3  0  0  0  0  0  0
  195.7100  174.2430  146.0480 C   0  0  0  0  0  2  0  0  0  0  0  0
  196.2260  173.7030  144.8020 N   0  0  0  0  0  2  0  0  0  0  0  0
  197.3180  172.8190  145.1710 C   0  0  0  0  0  2  0  0  0  0  0  0
  196.5580  170.7090  146.2850 C   0  0  0  0  0  3  0  0  0  0  0  0
  196.1400  169.3760  146.2210 C   0  0  0  0  0  3  0  0  0  0  0  0
  196.7600  170.7600  143.8670 C   0  0  0  0  0  3  0  0  0  0  0  0
  196.8720  171.4010  145.1090 C   0  0  0  0  0  0  0  0  0  0  0  0
  196.0340  168.7360  144.9820 C   0  0  0  0  0  3  0  0  0  0  0  0
  196.3460  169.4270  143.8040 C   0  0  0  0  0  3  0  0  0  0  0  0
  194.5800  176.4760  146.4660 C   0  0  0  0  0  2  0  0  0  0  0  0
  194.7390  177.5640  145.4180 C   0  0  0  0  0  2  0  0  0  0  0  0
  195.6060  177.1340  144.4150 O   0  0  0  0  0  1  0  0  0  0  0  0
  1 25  1  0  0  0  0
  1 50  1  1  0  0  0
  3 34  1  6  0  0  0
  3  8  1  0  0  0  0
  5 11  1  0  0  0  0
  8  2  1  6  0  0  0
  8  5  1  0  0  0  0
  9 20  1  0  0  0  0
  9 23  1  0  0  0  0
 10 28  2  0  0  0  0
 11  7  1  1  0  0  0
 11 19  1  0  0  0  0
 13 28  1  0  0  0  0
 14 22  1  0  0  0  0
 15 21  1  0  0  0  0
 15 22  1  0  0  0  0
 16  3  1  0  0  0  0
 16 14  1  0  0  0  0
 17  4  1  0  0  0  0
 17 26  2  0  0  0  0
 18 13  1  6  0  0  0
 18  1  1  0  0  0  0
 18  4  1  0  0  0  0
 19 25  1  0  0  0  0
 20 23  1  0  0  0  0
 21 24  1  0  0  0  0
 24  6  1  6  0  0  0
 24 10  1  0  0  0  0
 25 12  2  0  0  0  0
 26  9  2  0  0  0  0
 27 16  2  0  0  0  0
 28 17  1  0  0  0  0
 30 32  1  0  0  0  0
 31 29  1  6  0  0  0
 31 30  1  0  0  0  0
 31 33  1  0  0  0  0
 32 34  2  0  0  0  0
 32 39  1  0  0  0  0
 33 34  1  0  0  0  0
 35 37  2  0  0  0  0
 36 37  1  0  0  0  0
 37 38  1  0  0  0  0
 37 31  1  0  0  0  0
 40 39  1  0  0  0  0
 40 42  1  0  0  0  0
 41 43  2  0  0  0  0
 41 44  1  0  0  0  0
 42 41  1  0  0  0  0
 44 48  1  6  0  0  0
 47 45  1  1  0  0  0
 47 44  1  0  0  0  0
 47 46  1  0  0  0  0
 49 48  1  0  0  0  0
 51 52  1  1  0  0  0
 51 50  1  0  0  0  0
 51 61  1  0  0  0  0
 53 54  1  0  0  0  0
 53 52  1  0  0  0  0
 56 55  1  0  0  0  0
 57 58  1  0  0  0  0
 58 54  1  0  0  0  0
 58 55  2  0  0  0  0
 59 56  2  0  0  0  0
 60 57  2  0  0  0  0
 60 59  1  0  0  0  0
 62 61  1  0  0  0  0
 63 62  1  0  0  0  0
M  END
>  <MODEL>
1

>  <REMARK>
 VINA RESULT:      -6.1      0.000      0.000
  Name = 
  16 active torsions:
  status: ('A' for Active; 'I' for Inactive)
    1  A    between atoms: C_1  and  C_37
    2  A    between atoms: O_3  and  O_12
    3  A    between atoms: O_3  and  C_44
    4  A    between atoms: C_5  and  C_55
    5  A    between atoms: C_9  and  C_23
    6  A    between atoms: O_12  and  N_41
    7  A    between atoms: C_13  and  C_23
    8  A    between atoms: C_13  and  C_37
    9  A    between atoms: C_13  and  C_59
   10  A    between atoms: C_22  and  C_40
   11  A    between atoms: C_29  and  C_40
   12  A    between atoms: C_32  and  C_40
   13  A    between atoms: C_35  and  P_42
   14  A    between atoms: N_50  and  C_59
   15  A    between atoms: N_50  and  C_61
   16  A    between atoms: C_56  and  C_61
                            x       y       z     vdW  Elec       q    Type
                         _______ _______ _______ _____ _____    ______ ____

>  <TORSDO>
F 16

$$$$
=
 OpenBabel11072409343D

 63 67  0  0  1  0  0  0  0  0999 V2000
  191.8960  173.3990  137.9900 C   0  0  2  0  0  3  0  0  0  0  0  0
  189.3130  172.4830  143.7660 C   0  0  0  0  0  1  0  0  0  0  0  0
  190.8840  174.3710  143.0130 C   0  0  2  0  0  3  0  0  0  0  0  0
  194.0680  172.4520  137.2380 N   0  0  0  0  0  2  0  0  0  0  0  0
  189.1230  173.4670  141.4700 C   0  0  0  0  0  2  0  0  0  0  0  0
  197.2700  174.6000  141.2520 C   0  0  0  0  0  1  0  0  0  0  0  0
  189.0510  174.0220  139.1600 O   0  0  0  0  0  1  0  0  0  0  0  0
  190.0660  173.1360  142.6170 C   0  0  2  0  0  3  0  0  0  0  0  0
  196.6840  170.0200  137.4420 C   0  0  0  0  0  0  0  0  0  0  0  0
  196.1040  172.6830  140.2390 C   0  0  0  0  0  3  0  0  0  0  0  0
  189.8960  173.5420  140.1610 C   0  0  2  0  0  3  0  0  0  0  0  0
  191.8950  171.0550  138.3560 O   0  0  0  0  0  0  0  0  0  0  0  0
  194.0770  173.8090  139.2440 C   0  0  0  0  0  2  0  0  0  0  0  0
  192.8280  172.8910  143.5880 O   0  0  0  0  0  0  0  0  0  0  0  0
  195.2500  173.1240  143.5330 C   0  0  0  0  0  2  0  0  0  0  0  0
  192.3540  174.0920  143.0500 C   0  0  0  0  0  0  0  0  0  0  0  0
  195.1050  171.9970  138.0850 C   0  0  0  0  0  0  0  0  0  0  0  0
  193.4120  173.5960  137.8680 C   0  0  2  0  0  3  0  0  0  0  0  0
  190.4000  172.1500  139.7850 C   0  0  0  0  0  2  0  0  0  0  0  0
  197.0650  168.5440  137.4550 C   0  0  0  0  0  2  0  0  0  0  0  0
  196.3540  172.8230  142.6340 N   0  0  0  0  0  2  0  0  0  0  0  0
  194.0370  172.2850  143.1530 C   0  0  0  0  0  2  0  0  0  0  0  0
  197.9170  169.4490  136.7550 C   0  0  0  0  0  2  0  0  0  0  0  0
  196.1460  173.5960  141.4190 C   0  0  1  0  0  3  0  0  0  0  0  0
  191.4350  172.1340  138.6930 C   0  0  0  0  0  0  0  0  0  0  0  0
  195.9000  171.0090  137.7650 C   0  0  0  0  0  0  0  0  0  0  0  0
  193.1520  174.9480  142.5850 O   0  0  0  0  0  0  0  0  0  0  0  0
  195.1830  172.8050  139.2770 C   0  0  0  0  0  0  0  0  0  0  0  0
  188.7620  175.1620  147.1610 C   0  0  0  0  0  1  0  0  0  0  0  0
  189.5290  176.8730  145.5050 C   0  0  0  0  0  2  0  0  0  0  0  0
  189.9500  175.6900  146.3820 C   0  0  2  0  0  0  0  0  0  0  0  0
  189.8490  176.3880  144.1300 C   0  0  0  0  0  0  0  0  0  0  0  0
  190.4170  174.7060  145.4710 O   0  0  0  0  0  0  0  0  0  0  0  0
  190.3420  175.1660  144.1690 C   0  0  0  0  0  0  0  0  0  0  0  0
  192.6820  176.5370  146.6090 O   0  0  0  0  0  0  0  0  0  0  0  0
  191.5930  175.0490  148.4650 O   0  0  0  0  0  1  0  0  0  0  0  0
  191.2940  176.1800  147.5080 P   0  0  0  0  0  0  0  0  0  0  0  0
  190.8320  177.5500  148.3910 O   0  0  0  0  0  1  0  0  0  0  0  0
  189.6670  177.1290  142.9630 O   0  0  0  0  0  0  0  0  0  0  0  0
  188.6730  176.8430  142.1100 O   0  0  0  0  0  0  0  0  0  0  0  0
  186.6040  177.6550  143.1140 C   0  0  0  0  0  0  0  0  0  0  0  0
  187.5850  176.6390  142.8970 N   0  0  0  0  0  2  0  0  0  0  0  0
  186.6800  178.7520  142.4960 O   0  0  0  0  0  0  0  0  0  0  0  0
  185.4710  177.3850  144.0600 C   0  0  2  0  0  3  0  0  0  0  0  0
  183.6010  178.6120  143.0250 N   0  0  0  0  0  1  0  0  0  0  0  0
  185.2570  179.7720  144.1850 O   0  0  0  0  0  1  0  0  0  0  0  0
  184.5280  178.5840  144.1470 C   0  0  2  0  0  3  0  0  0  0  0  0
  185.9470  176.9280  145.4370 C   0  0  0  0  0  2  0  0  0  0  0  0
  184.8640  177.1670  146.4730 C   0  0  0  0  0  1  0  0  0  0  0  0
  191.1280  173.7970  136.7120 C   0  0  0  0  0  2  0  0  0  0  0  0
  191.4710  173.0620  135.4060 C   0  0  2  0  0  3  0  0  0  0  0  0
  192.4080  173.9010  134.5450 C   0  0  0  0  0  2  0  0  0  0  0  0
  192.7720  175.1340  135.2210 N   0  0  0  0  0  2  0  0  0  0  0  0
  193.9430  175.6400  134.5250 C   0  0  0  0  0  2  0  0  0  0  0  0
  195.6910  175.7430  136.3140 C   0  0  0  0  0  3  0  0  0  0  0  0
  196.8580  175.2540  136.9130 C   0  0  0  0  0  3  0  0  0  0  0  0
  195.8350  174.0090  134.6220 C   0  0  0  0  0  3  0  0  0  0  0  0
  195.1820  175.1240  135.1660 C   0  0  0  0  0  0  0  0  0  0  0  0
  197.5120  174.1460  136.3650 C   0  0  0  0  0  3  0  0  0  0  0  0
  197.0020  173.5240  135.2180 C   0  0  0  0  0  3  0  0  0  0  0  0
  190.2270  172.6060  134.6430 C   0  0  0  0  0  2  0  0  0  0  0  0
  189.4840  171.5370  135.4250 C   0  0  0  0  0  2  0  0  0  0  0  0
  190.3510  170.4930  135.7430 O   0  0  0  0  0  1  0  0  0  0  0  0
  1 50  1  6  0  0  0
  1 25  1  0  0  0  0
  3 16  1  0  0  0  0
  3 34  1  1  0  0  0
  4 18  1  0  0  0  0
  4 17  1  0  0  0  0
  5  8  1  0  0  0  0
  8  3  1  0  0  0  0
  8  2  1  1  0  0  0
  9 20  1  0  0  0  0
  9 26  2  0  0  0  0
 10 24  1  0  0  0  0
 11  7  1  6  0  0  0
 11  5  1  0  0  0  0
 12 25  2  0  0  0  0
 13 28  1  0  0  0  0
 16 14  1  0  0  0  0
 17 28  1  0  0  0  0
 18  1  1  0  0  0  0
 18 13  1  1  0  0  0
 19 11  1  0  0  0  0
 21 15  1  0  0  0  0
 22 15  1  0  0  0  0
 22 14  1  0  0  0  0
 23  9  1  0  0  0  0
 23 20  1  0  0  0  0
 24  6  1  6  0  0  0
 24 21  1  0  0  0  0
 25 19  1  0  0  0  0
 26 17  2  0  0  0  0
 27 16  2  0  0  0  0
 28 10  2  0  0  0  0
 30 31  1  0  0  0  0
 31 29  1  1  0  0  0
 31 37  1  0  0  0  0
 32 34  2  0  0  0  0
 32 30  1  0  0  0  0
 33 31  1  0  0  0  0
 34 33  1  0  0  0  0
 35 37  2  0  0  0  0
 37 38  1  0  0  0  0
 37 36  1  0  0  0  0
 39 32  1  0  0  0  0
 40 42  1  0  0  0  0
 40 39  1  0  0  0  0
 41 44  1  0  0  0  0
 42 41  1  0  0  0  0
 43 41  2  0  0  0  0
 44 47  1  0  0  0  0
 44 48  1  1  0  0  0
 47 45  1  6  0  0  0
 47 46  1  0  0  0  0
 48 49  1  0  0  0  0
 51 52  1  6  0  0  0
 51 50  1  0  0  0  0
 52 53  1  0  0  0  0
 54 58  1  0  0  0  0
 54 53  1  0  0  0  0
 55 56  1  0  0  0  0
 57 58  1  0  0  0  0
 57 60  2  0  0  0  0
 58 55  2  0  0  0  0
 59 56  2  0  0  0  0
 60 59  1  0  0  0  0
 61 51  1  0  0  0  0
 61 62  1  0  0  0  0
 62 63  1  0  0  0  0
M  END
>  <MODEL>
2

>  <REMARK>
 VINA RESULT:      -6.0      3.482     10.155
  Name = 
  16 active torsions:
  status: ('A' for Active; 'I' for Inactive)
    1  A    between atoms: C_1  and  C_37
    2  A    between atoms: O_3  and  O_12
    3  A    between atoms: O_3  and  C_44
    4  A    between atoms: C_5  and  C_55
    5  A    between atoms: C_9  and  C_23
    6  A    between atoms: O_12  and  N_41
    7  A    between atoms: C_13  and  C_23
    8  A    between atoms: C_13  and  C_37
    9  A    between atoms: C_13  and  C_59
   10  A    between atoms: C_22  and  C_40
   11  A    between atoms: C_29  and  C_40
   12  A    between atoms: C_32  and  C_40
   13  A    between atoms: C_35  and  P_42
   14  A    between atoms: N_50  and  C_59
   15  A    between atoms: N_50  and  C_61
   16  A    between atoms: C_56  and  C_61
                            x       y       z     vdW  Elec       q    Type
                         _______ _______ _______ _____ _____    ______ ____

>  <TORSDO>
F 16

$$$$
=
 OpenBabel11072409343D

 63 67  0  0  1  0  0  0  0  0999 V2000
  191.3010  175.1740  145.5830 C   0  0  2  0  0  3  0  0  0  0  0  0
  190.4930  170.1180  141.7530 C   0  0  0  0  0  1  0  0  0  0  0  0
  191.3080  172.4720  141.1220 C   0  0  2  0  0  3  0  0  0  0  0  0
  189.5460  176.8540  146.1090 N   0  0  0  0  0  2  0  0  0  0  0  0
  191.9790  171.4160  143.2980 C   0  0  0  0  0  2  0  0  0  0  0  0
  188.4060  178.4260  140.8930 C   0  0  0  0  0  1  0  0  0  0  0  0
  193.0650  172.6390  145.0230 O   0  0  0  0  0  1  0  0  0  0  0  0
  190.8920  171.5050  142.2370 C   0  0  2  0  0  3  0  0  0  0  0  0
  186.1210  177.8480  146.3960 C   0  0  0  0  0  0  0  0  0  0  0  0
  187.8080  177.1890  142.9350 C   0  0  0  0  0  3  0  0  0  0  0  0
  191.9540  172.6560  144.1800 C   0  0  2  0  0  3  0  0  0  0  0  0
  189.3570  174.0560  146.3550 O   0  0  0  0  0  0  0  0  0  0  0  0
  190.0830  176.4940  143.7750 C   0  0  0  0  0  2  0  0  0  0  0  0
  188.9100  173.1490  140.8240 O   0  0  0  0  0  0  0  0  0  0  0  0
  187.7630  175.1870  140.1490 C   0  0  0  0  0  2  0  0  0  0  0  0
  190.2620  173.5060  140.8470 C   0  0  0  0  0  0  0  0  0  0  0  0
  188.3890  177.1040  145.3360 C   0  0  0  0  0  0  0  0  0  0  0  0
  190.6470  176.5100  145.2110 C   0  0  2  0  0  3  0  0  0  0  0  0
  190.6740  172.6630  145.0140 C   0  0  0  0  0  2  0  0  0  0  0  0
  184.7420  177.5450  146.9700 C   0  0  0  0  0  2  0  0  0  0  0  0
  187.1490  176.3500  140.7720 N   0  0  0  0  0  2  0  0  0  0  0  0
  187.8740  174.0600  141.1670 C   0  0  0  0  0  2  0  0  0  0  0  0
  185.1660  178.9070  146.9310 C   0  0  0  0  0  2  0  0  0  0  0  0
  188.1940  177.0540  141.5000 C   0  0  1  0  0  3  0  0  0  0  0  0
  190.3750  173.9760  145.6870 C   0  0  0  0  0  0  0  0  0  0  0  0
  187.2520  177.4800  145.8620 C   0  0  0  0  0  0  0  0  0  0  0  0
  190.6170  174.6970  140.6440 O   0  0  0  0  0  0  0  0  0  0  0  0
  188.6680  176.9480  143.9300 C   0  0  0  0  0  0  0  0  0  0  0  0
  191.7030  169.5320  137.4440 C   0  0  0  0  0  1  0  0  0  0  0  0
  193.4370  171.1180  138.3040 C   0  0  0  0  0  2  0  0  0  0  0  0
  192.0080  170.9810  137.7680 C   0  0  2  0  0  0  0  0  0  0  0  0
  193.2190  171.6820  139.6690 C   0  0  0  0  0  0  0  0  0  0  0  0
  191.1740  171.4320  138.8250 O   0  0  0  0  0  0  0  0  0  0  0  0
  191.9320  171.8370  139.9100 C   0  0  0  0  0  0  0  0  0  0  0  0
  192.6800  171.4170  135.0130 O   0  0  0  0  0  0  0  0  0  0  0  0
  192.2340  173.4420  136.6090 O   0  0  0  0  0  1  0  0  0  0  0  0
  191.7750  172.0340  136.3020 P   0  0  0  0  0  0  0  0  0  0  0  0
  190.1370  172.0640  135.8710 O   0  0  0  0  0  1  0  0  0  0  0  0
  194.2360  172.0160  140.5620 O   0  0  0  0  0  0  0  0  0  0  0  0
  195.3600  171.2890  140.6340 O   0  0  0  0  0  0  0  0  0  0  0  0
  195.6660  170.0250  142.6960 C   0  0  0  0  0  0  0  0  0  0  0  0
  195.6650  171.2480  141.9560 N   0  0  0  0  0  2  0  0  0  0  0  0
  195.4700  168.9270  142.1080 O   0  0  0  0  0  0  0  0  0  0  0  0
  195.9350  170.0660  144.1730 C   0  0  2  0  0  3  0  0  0  0  0  0
  197.9400  169.4140  145.4470 N   0  0  0  0  0  1  0  0  0  0  0  0
  197.5830  171.6510  144.8980 O   0  0  0  0  0  1  0  0  0  0  0  0
  197.4110  170.3400  144.4570 C   0  0  2  0  0  3  0  0  0  0  0  0
  195.4310  168.8210  144.9000 C   0  0  0  0  0  2  0  0  0  0  0  0
  194.1960  169.1530  145.7160 C   0  0  0  0  0  1  0  0  0  0  0  0
  192.3790  175.3100  146.6800 C   0  0  0  0  0  2  0  0  0  0  0  0
  193.1560  176.6350  146.7660 C   0  0  2  0  0  3  0  0  0  0  0  0
  194.6270  176.4180  146.4300 C   0  0  0  0  0  2  0  0  0  0  0  0
  194.8300  175.1360  145.7800 N   0  0  0  0  0  2  0  0  0  0  0  0
  195.9840  175.3050  144.9130 C   0  0  0  0  0  2  0  0  0  0  0  0
  196.3140  176.4640  142.7190 C   0  0  0  0  0  3  0  0  0  0  0  0
  195.8940  176.7610  141.4180 C   0  0  0  0  0  3  0  0  0  0  0  0
  194.3530  175.0710  143.0330 C   0  0  0  0  0  3  0  0  0  0  0  0
  195.5420  175.6230  143.5290 C   0  0  0  0  0  0  0  0  0  0  0  0
  194.7040  176.2150  140.9270 C   0  0  0  0  0  3  0  0  0  0  0  0
  193.9310  175.3710  141.7350 C   0  0  0  0  0  3  0  0  0  0  0  0
  192.9600  177.3460  148.1040 C   0  0  0  0  0  2  0  0  0  0  0  0
  191.5680  177.0800  148.6510 C   0  0  0  0  0  2  0  0  0  0  0  0
  191.1020  178.2060  149.3270 O   0  0  0  0  0  1  0  0  0  0  0  0
  1 25  1  0  0  0  0
  1 50  1  1  0  0  0
  3 34  1  6  0  0  0
  3  8  1  0  0  0  0
  5 11  1  0  0  0  0
  8  2  1  6  0  0  0
  8  5  1  0  0  0  0
  9 23  1  0  0  0  0
  9 20  1  0  0  0  0
 10 28  2  0  0  0  0
 11 19  1  0  0  0  0
 11  7  1  1  0  0  0
 13 28  1  0  0  0  0
 14 16  1  0  0  0  0
 14 22  1  0  0  0  0
 15 21  1  0  0  0  0
 15 22  1  0  0  0  0
 16  3  1  0  0  0  0
 17 26  2  0  0  0  0
 17  4  1  0  0  0  0
 18 13  1  6  0  0  0
 18  1  1  0  0  0  0
 18  4  1  0  0  0  0
 19 25  1  0  0  0  0
 21 24  1  0  0  0  0
 23 20  1  0  0  0  0
 24  6  1  6  0  0  0
 24 10  1  0  0  0  0
 25 12  2  0  0  0  0
 26  9  2  0  0  0  0
 27 16  2  0  0  0  0
 28 17  1  0  0  0  0
 30 32  1  0  0  0  0
 31 29  1  6  0  0  0
 31 30  1  0  0  0  0
 31 33  1  0  0  0  0
 32 34  2  0  0  0  0
 32 39  1  0  0  0  0
 33 34  1  0  0  0  0
 35 37  2  0  0  0  0
 37 36  1  0  0  0  0
 37 31  1  0  0  0  0
 38 37  1  0  0  0  0
 39 40  1  0  0  0  0
 40 42  1  0  0  0  0
 41 44  1  0  0  0  0
 42 41  1  0  0  0  0
 43 41  2  0  0  0  0
 44 47  1  0  0  0  0
 44 48  1  6  0  0  0
 47 46  1  1  0  0  0
 47 45  1  0  0  0  0
 48 49  1  0  0  0  0
 50 51  1  0  0  0  0
 51 52  1  1  0  0  0
 51 61  1  0  0  0  0
 53 52  1  0  0  0  0
 54 53  1  0  0  0  0
 55 58  1  0  0  0  0
 56 55  2  0  0  0  0
 57 58  2  0  0  0  0
 58 54  1  0  0  0  0
 59 56  1  0  0  0  0
 59 60  2  0  0  0  0
 60 57  1  0  0  0  0
 61 62  1  0  0  0  0
 62 63  1  0  0  0  0
M  END
>  <MODEL>
3

>  <REMARK>
 VINA RESULT:      -5.8      1.736      3.613
  Name = 
  16 active torsions:
  status: ('A' for Active; 'I' for Inactive)
    1  A    between atoms: C_1  and  C_37
    2  A    between atoms: O_3  and  O_12
    3  A    between atoms: O_3  and  C_44
    4  A    between atoms: C_5  and  C_55
    5  A    between atoms: C_9  and  C_23
    6  A    between atoms: O_12  and  N_41
    7  A    between atoms: C_13  and  C_23
    8  A    between atoms: C_13  and  C_37
    9  A    between atoms: C_13  and  C_59
   10  A    between atoms: C_22  and  C_40
   11  A    between atoms: C_29  and  C_40
   12  A    between atoms: C_32  and  C_40
   13  A    between atoms: C_35  and  P_42
   14  A    between atoms: N_50  and  C_59
   15  A    between atoms: N_50  and  C_61
   16  A    between atoms: C_56  and  C_61
                            x       y       z     vdW  Elec       q    Type
                         _______ _______ _______ _____ _____    ______ ____

>  <TORSDO>
F 16

$$$$
=
 OpenBabel11072409343D

 63 67  0  0  1  0  0  0  0  0999 V2000
  192.2580  175.0630  145.0410 C   0  0  2  0  0  3  0  0  0  0  0  0
  190.5800  169.9920  141.5270 C   0  0  0  0  0  1  0  0  0  0  0  0
  191.1750  172.3570  140.7160 C   0  0  2  0  0  3  0  0  0  0  0  0
  190.6700  176.7190  145.9980 N   0  0  0  0  0  2  0  0  0  0  0  0
  192.3900  171.3130  142.6490 C   0  0  0  0  0  2  0  0  0  0  0  0
  188.2260  178.2690  141.2430 C   0  0  0  0  0  1  0  0  0  0  0  0
  193.8590  172.5530  144.0470 O   0  0  0  0  0  1  0  0  0  0  0  0
  191.0680  171.3850  141.8980 C   0  0  2  0  0  3  0  0  0  0  0  0
  187.4150  177.6640  147.1440 C   0  0  0  0  0  0  0  0  0  0  0  0
  188.1810  177.0260  143.3670 C   0  0  0  0  0  3  0  0  0  0  0  0
  192.5700  172.5540  143.5120 C   0  0  2  0  0  3  0  0  0  0  0  0
  190.5880  173.9190  146.2770 O   0  0  0  0  0  0  0  0  0  0  0  0
  190.6040  176.3640  143.6030 C   0  0  0  0  0  2  0  0  0  0  0  0
  188.7700  172.9990  141.0370 O   0  0  0  0  0  0  0  0  0  0  0  0
  187.4610  175.0200  140.6780 C   0  0  0  0  0  2  0  0  0  0  0  0
  190.0790  173.3760  140.7170 C   0  0  0  0  0  0  0  0  0  0  0  0
  189.3510  176.9520  145.5430 C   0  0  0  0  0  0  0  0  0  0  0  0
  191.5120  176.3900  144.8500 C   0  0  2  0  0  3  0  0  0  0  0  0
  191.5430  172.5440  144.6430 C   0  0  0  0  0  2  0  0  0  0  0  0
  186.2300  177.3430  148.0470 C   0  0  0  0  0  2  0  0  0  0  0  0
  187.0080  176.1750  141.4390 N   0  0  0  0  0  2  0  0  0  0  0  0
  187.8420  173.8960  141.6330 C   0  0  0  0  0  2  0  0  0  0  0  0
  186.6110  178.7100  147.9050 C   0  0  0  0  0  2  0  0  0  0  0  0
  188.1940  176.8940  141.8810 C   0  0  1  0  0  3  0  0  0  0  0  0
  191.4050  173.8520  145.3730 C   0  0  0  0  0  0  0  0  0  0  0  0
  188.3790  177.3120  146.3410 C   0  0  0  0  0  0  0  0  0  0  0  0
  190.3540  174.5710  140.4340 O   0  0  0  0  0  0  0  0  0  0  0  0
  189.2680  176.7980  144.1120 C   0  0  0  0  0  0  0  0  0  0  0  0
  190.5260  169.6070  136.9290 C   0  0  0  0  0  1  0  0  0  0  0  0
  192.5620  170.9480  137.4930 C   0  0  0  0  0  2  0  0  0  0  0  0
  191.0520  170.9940  137.2400 C   0  0  2  0  0  0  0  0  0  0  0  0
  192.6730  171.4530  138.8920 C   0  0  0  0  0  0  0  0  0  0  0  0
  190.4910  171.4700  138.4540 O   0  0  0  0  0  0  0  0  0  0  0  0
  191.4810  171.7290  139.3840 C   0  0  0  0  0  0  0  0  0  0  0  0
  190.1150  173.6110  136.5290 O   0  0  0  0  0  1  0  0  0  0  0  0
  189.5990  171.5530  134.9980 O   0  0  0  0  0  1  0  0  0  0  0  0
  190.6690  172.1480  135.8850 P   0  0  0  0  0  0  0  0  0  0  0  0
  192.0610  172.4340  134.9640 O   0  0  0  0  0  0  0  0  0  0  0  0
  193.8720  171.6260  139.5830 O   0  0  0  0  0  0  0  0  0  0  0  0
  194.3340  172.8510  139.8700 O   0  0  0  0  0  0  0  0  0  0  0  0
  195.1200  174.4010  138.1600 C   0  0  0  0  0  0  0  0  0  0  0  0
  195.1810  173.1520  138.8530 N   0  0  0  0  0  2  0  0  0  0  0  0
  194.3240  175.3010  138.5430 O   0  0  0  0  0  0  0  0  0  0  0  0
  196.0360  174.6320  136.9930 C   0  0  2  0  0  3  0  0  0  0  0  0
  197.7480  173.4990  135.6320 N   0  0  0  0  0  1  0  0  0  0  0  0
  195.5480  172.7280  135.6170 O   0  0  0  0  0  1  0  0  0  0  0  0
  196.5340  173.3100  136.4120 C   0  0  2  0  0  3  0  0  0  0  0  0
  197.1830  175.5840  137.3230 C   0  0  0  0  0  2  0  0  0  0  0  0
  197.8000  175.2200  138.6600 C   0  0  0  0  0  1  0  0  0  0  0  0
  193.5760  175.2170  145.8300 C   0  0  0  0  0  2  0  0  0  0  0  0
  194.8970  175.1520  145.0460 C   0  0  2  0  0  3  0  0  0  0  0  0
  196.0720  174.9160  145.9880 C   0  0  0  0  0  2  0  0  0  0  0  0
  196.3570  173.4990  146.1220 N   0  0  0  0  0  2  0  0  0  0  0  0
  197.5790  173.2640  145.3720 C   0  0  0  0  0  2  0  0  0  0  0  0
  197.1650  170.9430  144.5280 C   0  0  0  0  0  3  0  0  0  0  0  0
  196.9240  170.0490  143.4790 C   0  0  0  0  0  3  0  0  0  0  0  0
  197.2290  172.7800  142.9440 C   0  0  0  0  0  3  0  0  0  0  0  0
  197.3220  172.3080  144.2610 C   0  0  0  0  0  0  0  0  0  0  0  0
  196.8380  170.5200  142.1660 C   0  0  0  0  0  3  0  0  0  0  0  0
  196.9920  171.8860  141.8970 C   0  0  0  0  0  3  0  0  0  0  0  0
  195.1060  176.3670  144.1440 C   0  0  0  0  0  2  0  0  0  0  0  0
  195.6490  175.9400  142.7900 C   0  0  0  0  0  2  0  0  0  0  0  0
  194.7010  176.1900  141.8000 O   0  0  0  0  0  1  0  0  0  0  0  0
  1 25  1  0  0  0  0
  1 50  1  1  0  0  0
  3 34  1  6  0  0  0
  3 16  1  0  0  0  0
  3  8  1  0  0  0  0
  5 11  1  0  0  0  0
  8  2  1  6  0  0  0
  8  5  1  0  0  0  0
  9 23  1  0  0  0  0
  9 20  1  0  0  0  0
 10 28  2  0  0  0  0
 11  7  1  1  0  0  0
 11 19  1  0  0  0  0
 13 28  1  0  0  0  0
 14 22  1  0  0  0  0
 15 21  1  0  0  0  0
 15 22  1  0  0  0  0
 16 14  1  0  0  0  0
 17  4  1  0  0  0  0
 17 26  2  0  0  0  0
 18 13  1  6  0  0  0
 18  1  1  0  0  0  0
 18  4  1  0  0  0  0
 19 25  1  0  0  0  0
 21 24  1  0  0  0  0
 23 20  1  0  0  0  0
 24  6  1  6  0  0  0
 24 10  1  0  0  0  0
 25 12  2  0  0  0  0
 26  9  2  0  0  0  0
 27 16  2  0  0  0  0
 28 17  1  0  0  0  0
 30 32  1  0  0  0  0
 31 29  1  6  0  0  0
 31 30  1  0  0  0  0
 31 33  1  0  0  0  0
 32 34  2  0  0  0  0
 32 39  1  0  0  0  0
 33 34  1  0  0  0  0
 36 37  1  0  0  0  0
 37 35  1  0  0  0  0
 37 31  1  0  0  0  0
 38 37  2  0  0  0  0
 39 40  1  0  0  0  0
 41 43  2  0  0  0  0
 41 42  1  0  0  0  0
 42 40  1  0  0  0  0
 44 48  1  1  0  0  0
 44 41  1  0  0  0  0
 45 47  1  0  0  0  0
 47 46  1  6  0  0  0
 47 44  1  0  0  0  0
 48 49  1  0  0  0  0
 51 61  1  1  0  0  0
 51 50  1  0  0  0  0
 51 52  1  0  0  0  0
 52 53  1  0  0  0  0
 54 53  1  0  0  0  0
 56 55  2  0  0  0  0
 57 58  2  0  0  0  0
 58 55  1  0  0  0  0
 58 54  1  0  0  0  0
 59 56  1  0  0  0  0
 60 59  2  0  0  0  0
 60 57  1  0  0  0  0
 62 61  1  0  0  0  0
 63 62  1  0  0  0  0
M  END
>  <MODEL>
4

>  <REMARK>
 VINA RESULT:      -5.4      1.441      2.207
  Name = 
  16 active torsions:
  status: ('A' for Active; 'I' for Inactive)
    1  A    between atoms: C_1  and  C_37
    2  A    between atoms: O_3  and  O_12
    3  A    between atoms: O_3  and  C_44
    4  A    between atoms: C_5  and  C_55
    5  A    between atoms: C_9  and  C_23
    6  A    between atoms: O_12  and  N_41
    7  A    between atoms: C_13  and  C_23
    8  A    between atoms: C_13  and  C_37
    9  A    between atoms: C_13  and  C_59
   10  A    between atoms: C_22  and  C_40
   11  A    between atoms: C_29  and  C_40
   12  A    between atoms: C_32  and  C_40
   13  A    between atoms: C_35  and  P_42
   14  A    between atoms: N_50  and  C_59
   15  A    between atoms: N_50  and  C_61
   16  A    between atoms: C_56  and  C_61
                            x       y       z     vdW  Elec       q    Type
                         _______ _______ _______ _____ _____    ______ ____

>  <TORSDO>
F 16

$$$$
=
 OpenBabel11072409343D

 63 67  0  0  1  0  0  0  0  0999 V2000
  191.7390  175.0190  145.4860 C   0  0  2  0  0  3  0  0  0  0  0  0
  190.1050  170.2010  141.6130 C   0  0  0  0  0  1  0  0  0  0  0  0
  191.0100  172.5180  140.9670 C   0  0  2  0  0  3  0  0  0  0  0  0
  190.1890  176.7920  146.2810 N   0  0  0  0  0  2  0  0  0  0  0  0
  191.8580  171.3250  143.0070 C   0  0  0  0  0  2  0  0  0  0  0  0
  188.5500  178.6620  141.3010 C   0  0  0  0  0  1  0  0  0  0  0  0
  193.2310  172.3940  144.6260 O   0  0  0  0  0  1  0  0  0  0  0  0
  190.6610  171.5340  142.0910 C   0  0  2  0  0  3  0  0  0  0  0  0
  186.9070  178.0070  147.0200 C   0  0  0  0  0  0  0  0  0  0  0  0
  188.1120  177.3830  143.3580 C   0  0  0  0  0  3  0  0  0  0  0  0
  192.0310  172.5250  143.9270 C   0  0  2  0  0  3  0  0  0  0  0  0
  189.8250  174.0060  146.4520 O   0  0  0  0  0  0  0  0  0  0  0  0
  190.4140  176.4970  143.8870 C   0  0  0  0  0  2  0  0  0  0  0  0
  188.6500  173.3710  140.9900 O   0  0  0  0  0  0  0  0  0  0  0  0
  187.5840  175.5110  140.5310 C   0  0  0  0  0  2  0  0  0  0  0  0
  190.0180  173.6330  140.8590 C   0  0  0  0  0  0  0  0  0  0  0  0
  188.9690  177.1550  145.6650 C   0  0  0  0  0  0  0  0  0  0  0  0
  191.1460  176.4120  145.2430 C   0  0  2  0  0  3  0  0  0  0  0  0
  190.8650  172.5850  144.9120 C   0  0  0  0  0  2  0  0  0  0  0  0
  185.5880  177.7760  147.7490 C   0  0  0  0  0  2  0  0  0  0  0  0
  187.1370  176.6860  141.2650 N   0  0  0  0  0  2  0  0  0  0  0  0
  187.7330  174.3360  141.4890 C   0  0  0  0  0  2  0  0  0  0  0  0
  186.1040  179.1060  147.7050 C   0  0  0  0  0  2  0  0  0  0  0  0
  188.3120  177.2830  141.8830 C   0  0  1  0  0  3  0  0  0  0  0  0
  190.7460  173.8840  145.6620 C   0  0  0  0  0  0  0  0  0  0  0  0
  187.9340  177.5850  146.3400 C   0  0  0  0  0  0  0  0  0  0  0  0
  190.4330  174.8030  140.6540 O   0  0  0  0  0  0  0  0  0  0  0  0
  189.0650  177.0400  144.2310 C   0  0  0  0  0  0  0  0  0  0  0  0
  190.5280  170.3390  136.8020 C   0  0  0  0  0  1  0  0  0  0  0  0
  192.6650  170.8950  137.9790 C   0  0  0  0  0  2  0  0  0  0  0  0
  191.3600  171.4550  137.4030 C   0  0  2  0  0  0  0  0  0  0  0  0
  192.5660  171.2620  139.4220 C   0  0  0  0  0  0  0  0  0  0  0  0
  190.6850  172.0270  138.5120 O   0  0  0  0  0  0  0  0  0  0  0  0
  191.4350  171.8930  139.6670 C   0  0  0  0  0  0  0  0  0  0  0  0
  192.9570  172.2130  135.1430 O   0  0  0  0  0  0  0  0  0  0  0  0
  192.1360  174.0130  136.8540 O   0  0  0  0  0  1  0  0  0  0  0  0
  191.7120  172.7380  136.1610 P   0  0  0  0  0  0  0  0  0  0  0  0
  190.3240  173.0400  135.2380 O   0  0  0  0  0  1  0  0  0  0  0  0
  193.5420  170.9890  140.3800 O   0  0  0  0  0  0  0  0  0  0  0  0
  194.4590  171.9090  140.7130 O   0  0  0  0  0  0  0  0  0  0  0  0
  195.7650  170.2140  141.8820 C   0  0  0  0  0  0  0  0  0  0  0  0
  195.0280  171.4380  141.8520 N   0  0  0  0  0  2  0  0  0  0  0  0
  195.9860  169.5800  140.8140 O   0  0  0  0  0  0  0  0  0  0  0  0
  196.2980  169.7150  143.1940 C   0  0  2  0  0  3  0  0  0  0  0  0
  195.9750  170.0870  145.6080 N   0  0  0  0  0  1  0  0  0  0  0  0
  194.3640  168.9330  144.3810 O   0  0  0  0  0  1  0  0  0  0  0  0
  195.3000  169.9650  144.3240 C   0  0  2  0  0  3  0  0  0  0  0  0
  197.6840  170.2670  143.5180 C   0  0  0  0  0  2  0  0  0  0  0  0
  197.7990  171.7050  143.0480 C   0  0  0  0  0  1  0  0  0  0  0  0
  192.9480  175.0330  146.4460 C   0  0  0  0  0  2  0  0  0  0  0  0
  194.2940  175.5400  145.9020 C   0  0  2  0  0  3  0  0  0  0  0  0
  194.3370  175.4310  144.3820 C   0  0  0  0  0  2  0  0  0  0  0  0
  194.5900  176.7250  143.7730 N   0  0  0  0  0  2  0  0  0  0  0  0
  196.0280  176.8000  143.5770 C   0  0  0  0  0  2  0  0  0  0  0  0
  197.5860  175.3860  142.2200 C   0  0  0  0  0  3  0  0  0  0  0  0
  197.9370  174.7620  141.0180 C   0  0  0  0  0  3  0  0  0  0  0  0
  195.5700  176.2480  141.1820 C   0  0  0  0  0  3  0  0  0  0  0  0
  196.4060  176.1330  142.3020 C   0  0  0  0  0  0  0  0  0  0  0  0
  197.1060  174.8820  139.9000 C   0  0  0  0  0  3  0  0  0  0  0  0
  195.9230  175.6280  139.9810 C   0  0  0  0  0  3  0  0  0  0  0  0
  195.4910  174.8640  146.5700 C   0  0  0  0  0  2  0  0  0  0  0  0
  196.0530  173.7710  145.6780 C   0  0  0  0  0  2  0  0  0  0  0  0
  197.4370  173.7010  145.8280 O   0  0  0  0  0  1  0  0  0  0  0  0
  1 25  1  0  0  0  0
  1 50  1  1  0  0  0
  3 34  1  6  0  0  0
  3  8  1  0  0  0  0
  5 11  1  0  0  0  0
  8  2  1  6  0  0  0
  8  5  1  0  0  0  0
  9 23  1  0  0  0  0
  9 20  1  0  0  0  0
 10 28  2  0  0  0  0
 11  7  1  1  0  0  0
 11 19  1  0  0  0  0
 13 28  1  0  0  0  0
 14 22  1  0  0  0  0
 15 21  1  0  0  0  0
 15 22  1  0  0  0  0
 16  3  1  0  0  0  0
 16 14  1  0  0  0  0
 17  4  1  0  0  0  0
 17 26  2  0  0  0  0
 18 13  1  6  0  0  0
 18  1  1  0  0  0  0
 18  4  1  0  0  0  0
 19 25  1  0  0  0  0
 21 24  1  0  0  0  0
 23 20  1  0  0  0  0
 24  6  1  6  0  0  0
 24 10  1  0  0  0  0
 25 12  2  0  0  0  0
 26  9  2  0  0  0  0
 27 16  2  0  0  0  0
 28 17  1  0  0  0  0
 30 32  1  0  0  0  0
 31 29  1  6  0  0  0
 31 30  1  0  0  0  0
 31 33  1  0  0  0  0
 32 34  2  0  0  0  0
 32 39  1  0  0  0  0
 33 34  1  0  0  0  0
 35 37  2  0  0  0  0
 37 36  1  0  0  0  0
 37 31  1  0  0  0  0
 38 37  1  0  0  0  0
 39 40  1  0  0  0  0
 40 42  1  0  0  0  0
 41 44  1  0  0  0  0
 42 41  1  0  0  0  0
 43 41  2  0  0  0  0
 44 48  1  1  0  0  0
 44 47  1  0  0  0  0
 47 46  1  1  0  0  0
 47 45  1  0  0  0  0
 49 48  1  0  0  0  0
 51 52  1  6  0  0  0
 51 50  1  0  0  0  0
 51 61  1  0  0  0  0
 53 52  1  0  0  0  0
 54 53  1  0  0  0  0
 55 58  1  0  0  0  0
 56 55  2  0  0  0  0
 57 58  2  0  0  0  0
 58 54  1  0  0  0  0
 59 60  2  0  0  0  0
 59 56  1  0  0  0  0
 60 57  1  0  0  0  0
 62 63  1  0  0  0  0
 62 61  1  0  0  0  0
M  END
>  <MODEL>
5

>  <REMARK>
 VINA RESULT:      -5.2      1.388      3.243
  Name = 
  16 active torsions:
  status: ('A' for Active; 'I' for Inactive)
    1  A    between atoms: C_1  and  C_37
    2  A    between atoms: O_3  and  O_12
    3  A    between atoms: O_3  and  C_44
    4  A    between atoms: C_5  and  C_55
    5  A    between atoms: C_9  and  C_23
    6  A    between atoms: O_12  and  N_41
    7  A    between atoms: C_13  and  C_23
    8  A    between atoms: C_13  and  C_37
    9  A    between atoms: C_13  and  C_59
   10  A    between atoms: C_22  and  C_40
   11  A    between atoms: C_29  and  C_40
   12  A    between atoms: C_32  and  C_40
   13  A    between atoms: C_35  and  P_42
   14  A    between atoms: N_50  and  C_59
   15  A    between atoms: N_50  and  C_61
   16  A    between atoms: C_56  and  C_61
                            x       y       z     vdW  Elec       q    Type
                         _______ _______ _______ _____ _____    ______ ____

>  <TORSDO>
F 16

$$$$
=
 OpenBabel11072409343D

 63 67  0  0  1  0  0  0  0  0999 V2000
  196.5380  173.3880  141.7440 C   0  0  2  0  0  3  0  0  0  0  0  0
  191.4340  177.1630  142.5000 C   0  0  0  0  0  1  0  0  0  0  0  0
  191.6700  174.6750  143.1000 C   0  0  2  0  0  3  0  0  0  0  0  0
  197.0350  172.0610  139.7010 N   0  0  0  0  0  2  0  0  0  0  0  0
  193.5860  176.2650  143.4180 C   0  0  0  0  0  2  0  0  0  0  0  0
  192.3060  169.1310  139.5240 C   0  0  0  0  0  1  0  0  0  0  0  0
  195.7860  175.5200  143.9200 O   0  0  0  0  0  1  0  0  0  0  0  0
  192.3500  175.9510  142.5880 C   0  0  2  0  0  3  0  0  0  0  0  0
  196.7130  171.4380  136.1930 C   0  0  0  0  0  0  0  0  0  0  0  0
  193.7340  170.9460  138.6700 C   0  0  0  0  0  3  0  0  0  0  0  0
  194.7280  175.3390  143.0290 C   0  0  2  0  0  3  0  0  0  0  0  0
  196.4790  174.8160  139.8510 O   0  0  0  0  0  0  0  0  0  0  0  0
  194.8990  171.6900  140.7800 C   0  0  0  0  0  2  0  0  0  0  0  0
  190.9740  174.1130  140.7550 O   0  0  0  0  0  0  0  0  0  0  0  0
  190.5970  172.0540  139.5130 C   0  0  0  0  0  2  0  0  0  0  0  0
  191.4260  173.6830  142.0070 C   0  0  0  0  0  0  0  0  0  0  0  0
  196.0930  171.6800  138.7180 C   0  0  0  0  0  0  0  0  0  0  0  0
  196.3820  172.0510  141.0080 C   0  0  2  0  0  3  0  0  0  0  0  0
  195.1890  175.6640  141.6090 C   0  0  0  0  0  2  0  0  0  0  0  0
  196.8250  171.9910  134.7770 C   0  0  0  0  0  2  0  0  0  0  0  0
  191.3320  171.1670  138.6230 N   0  0  0  0  0  2  0  0  0  0  0  0
  191.2770  173.4170  139.5530 C   0  0  0  0  0  2  0  0  0  0  0  0
  197.2530  170.6500  135.0070 C   0  0  0  0  0  2  0  0  0  0  0  0
  192.4570  170.6320  139.3760 C   0  0  1  0  0  3  0  0  0  0  0  0
  196.0890  174.6270  140.9920 C   0  0  0  0  0  0  0  0  0  0  0  0
  196.4000  171.5550  137.4520 C   0  0  0  0  0  0  0  0  0  0  0  0
  191.6390  172.4620  142.2290 O   0  0  0  0  0  0  0  0  0  0  0  0
  194.8110  171.4030  139.3170 C   0  0  0  0  0  0  0  0  0  0  0  0
  189.3010  174.5090  147.1850 C   0  0  0  0  0  1  0  0  0  0  0  0
  188.4320  175.2640  144.9640 C   0  0  0  0  0  2  0  0  0  0  0  0
  189.5040  175.4770  146.0370 C   0  0  2  0  0  0  0  0  0  0  0  0
  189.2410  174.9030  143.7630 C   0  0  0  0  0  0  0  0  0  0  0  0
  190.7360  175.2110  145.3830 O   0  0  0  0  0  0  0  0  0  0  0  0
  190.5270  174.8870  144.0550 C   0  0  0  0  0  0  0  0  0  0  0  0
  189.7860  178.2460  145.3390 O   0  0  0  0  0  0  0  0  0  0  0  0
  190.5350  177.3860  147.6930 O   0  0  0  0  0  1  0  0  0  0  0  0
  189.4760  177.1980  146.6300 P   0  0  0  0  0  0  0  0  0  0  0  0
  187.9560  177.5540  147.2880 O   0  0  0  0  0  1  0  0  0  0  0  0
  188.7150  174.6360  142.5000 O   0  0  0  0  0  0  0  0  0  0  0  0
  188.4110  175.6300  141.6530 O   0  0  0  0  0  0  0  0  0  0  0  0
  186.7620  177.2950  142.3270 C   0  0  0  0  0  0  0  0  0  0  0  0
  187.1300  175.9650  141.9530 N   0  0  0  0  0  2  0  0  0  0  0  0
  187.6170  178.2220  142.2970 O   0  0  0  0  0  0  0  0  0  0  0  0
  185.3410  177.5740  142.7230 C   0  0  2  0  0  3  0  0  0  0  0  0
  183.1580  178.0910  141.7050 N   0  0  0  0  0  1  0  0  0  0  0  0
  185.0530  177.8940  140.3620 O   0  0  0  0  0  1  0  0  0  0  0  0
  184.5930  178.3100  141.6120 C   0  0  2  0  0  3  0  0  0  0  0  0
  185.2330  178.2970  144.0640 C   0  0  0  0  0  2  0  0  0  0  0  0
  185.2750  179.7990  143.8550 C   0  0  0  0  0  1  0  0  0  0  0  0
  197.8650  173.4980  142.5260 C   0  0  0  0  0  2  0  0  0  0  0  0
  197.9410  172.8360  143.9120 C   0  0  2  0  0  3  0  0  0  0  0  0
  196.9120  171.7190  144.0330 C   0  0  0  0  0  2  0  0  0  0  0  0
  197.5420  170.4150  143.9260 N   0  0  0  0  0  2  0  0  0  0  0  0
  196.7990  169.5370  144.8130 C   0  0  0  0  0  2  0  0  0  0  0  0
  194.3380  169.9490  145.0280 C   0  0  0  0  0  3  0  0  0  0  0  0
  193.0280  169.7940  144.5630 C   0  0  0  0  0  3  0  0  0  0  0  0
  195.1580  168.6550  143.1460 C   0  0  0  0  0  3  0  0  0  0  0  0
  195.4030  169.3760  144.3230 C   0  0  0  0  0  0  0  0  0  0  0  0
  192.7840  169.0690  143.3920 C   0  0  0  0  0  3  0  0  0  0  0  0
  193.8490  168.4970  142.6840 C   0  0  0  0  0  3  0  0  0  0  0  0
  197.8430  173.8480  145.0530 C   0  0  0  0  0  2  0  0  0  0  0  0
  197.0210  173.2810  146.1980 C   0  0  0  0  0  2  0  0  0  0  0  0
  195.6730  173.2580  145.8470 O   0  0  0  0  0  1  0  0  0  0  0  0
  1 50  1  6  0  0  0
  3 34  1  6  0  0  0
  4 18  1  0  0  0  0
  8  2  1  1  0  0  0
  8  3  1  0  0  0  0
  8  5  1  0  0  0  0
  9 26  2  0  0  0  0
 10 28  2  0  0  0  0
 10 24  1  0  0  0  0
 11  5  1  0  0  0  0
 11  7  1  1  0  0  0
 12 25  2  0  0  0  0
 14 16  1  0  0  0  0
 15 22  1  0  0  0  0
 16 27  2  0  0  0  0
 16  3  1  0  0  0  0
 17 28  1  0  0  0  0
 17  4  1  0  0  0  0
 18 13  1  6  0  0  0
 18  1  1  0  0  0  0
 19 11  1  0  0  0  0
 20 23  1  0  0  0  0
 20  9  1  0  0  0  0
 21 24  1  0  0  0  0
 21 15  1  0  0  0  0
 22 14  1  0  0  0  0
 23  9  1  0  0  0  0
 24  6  1  6  0  0  0
 25 19  1  0  0  0  0
 25  1  1  0  0  0  0
 26 17  2  0  0  0  0
 28 13  1  0  0  0  0
 30 31  1  0  0  0  0
 31 37  1  0  0  0  0
 31 29  1  1  0  0  0
 32 34  2  0  0  0  0
 32 30  1  0  0  0  0
 33 31  1  0  0  0  0
 34 33  1  0  0  0  0
 35 37  2  0  0  0  0
 37 38  1  0  0  0  0
 37 36  1  0  0  0  0
 39 32  1  0  0  0  0
 40 42  1  0  0  0  0
 40 39  1  0  0  0  0
 41 44  1  0  0  0  0
 42 41  1  0  0  0  0
 43 41  2  0  0  0  0
 44 48  1  1  0  0  0
 47 46  1  6  0  0  0
 47 45  1  0  0  0  0
 47 44  1  0  0  0  0
 49 48  1  0  0  0  0
 51 50  1  6  0  0  0
 51 52  1  0  0  0  0
 51 61  1  0  0  0  0
 53 52  1  0  0  0  0
 53 54  1  0  0  0  0
 56 55  1  0  0  0  0
 57 58  1  0  0  0  0
 58 54  1  0  0  0  0
 58 55  2  0  0  0  0
 59 56  2  0  0  0  0
 60 57  2  0  0  0  0
 60 59  1  0  0  0  0
 61 62  1  0  0  0  0
 63 62  1  0  0  0  0
M  END
>  <MODEL>
6

>  <REMARK>
 VINA RESULT:      -5.1      3.151      8.676
  Name = 
  16 active torsions:
  status: ('A' for Active; 'I' for Inactive)
    1  A    between atoms: C_1  and  C_37
    2  A    between atoms: O_3  and  O_12
    3  A    between atoms: O_3  and  C_44
    4  A    between atoms: C_5  and  C_55
    5  A    between atoms: C_9  and  C_23
    6  A    between atoms: O_12  and  N_41
    7  A    between atoms: C_13  and  C_23
    8  A    between atoms: C_13  and  C_37
    9  A    between atoms: C_13  and  C_59
   10  A    between atoms: C_22  and  C_40
   11  A    between atoms: C_29  and  C_40
   12  A    between atoms: C_32  and  C_40
   13  A    between atoms: C_35  and  P_42
   14  A    between atoms: N_50  and  C_59
   15  A    between atoms: N_50  and  C_61
   16  A    between atoms: C_56  and  C_61
                            x       y       z     vdW  Elec       q    Type
                         _______ _______ _______ _____ _____    ______ ____

>  <TORSDO>
F 16

$$$$
=
 OpenBabel11072409343D

 63 67  0  0  1  0  0  0  0  0999 V2000
  191.6990  174.5550  145.3350 C   0  0  2  0  0  3  0  0  0  0  0  0
  190.3260  169.9620  141.1040 C   0  0  0  0  0  1  0  0  0  0  0  0
  191.2090  172.3300  140.6430 C   0  0  2  0  0  3  0  0  0  0  0  0
  190.0810  176.2470  146.1710 N   0  0  0  0  0  2  0  0  0  0  0  0
  191.9960  171.0270  142.6390 C   0  0  0  0  0  2  0  0  0  0  0  0
  188.6130  178.3970  141.2520 C   0  0  0  0  0  1  0  0  0  0  0  0
  193.2770  172.0160  144.3790 O   0  0  0  0  0  1  0  0  0  0  0  0
  190.8340  171.2720  141.6880 C   0  0  2  0  0  3  0  0  0  0  0  0
  186.7470  177.3550  146.8440 C   0  0  0  0  0  0  0  0  0  0  0  0
  188.1160  176.9840  143.2050 C   0  0  0  0  0  3  0  0  0  0  0  0
  192.1050  172.1690  143.6380 C   0  0  2  0  0  3  0  0  0  0  0  0
  189.7670  173.4500  146.1540 O   0  0  0  0  0  0  0  0  0  0  0  0
  190.4110  176.1070  143.7760 C   0  0  0  0  0  2  0  0  0  0  0  0
  188.8330  173.1380  140.6180 O   0  0  0  0  0  0  0  0  0  0  0  0
  187.7440  175.2840  140.2470 C   0  0  0  0  0  2  0  0  0  0  0  0
  190.2000  173.4320  140.5610 C   0  0  0  0  0  0  0  0  0  0  0  0
  188.8810  176.6260  145.5280 C   0  0  0  0  0  0  0  0  0  0  0  0
  191.0870  175.9500  145.1540 C   0  0  2  0  0  3  0  0  0  0  0  0
  190.8980  172.1460  144.5750 C   0  0  0  0  0  2  0  0  0  0  0  0
  185.4030  177.0560  147.5000 C   0  0  0  0  0  2  0  0  0  0  0  0
  187.2440  176.4020  141.0320 N   0  0  0  0  0  2  0  0  0  0  0  0
  187.8770  174.0540  141.1360 C   0  0  0  0  0  2  0  0  0  0  0  0
  185.8940  178.3940  147.5600 C   0  0  0  0  0  2  0  0  0  0  0  0
  188.3790  176.9800  141.7360 C   0  0  1  0  0  3  0  0  0  0  0  0
  190.7220  173.3940  145.3980 C   0  0  0  0  0  0  0  0  0  0  0  0
  187.8100  176.9950  146.1830 C   0  0  0  0  0  0  0  0  0  0  0  0
  190.5990  174.6210  140.4480 O   0  0  0  0  0  0  0  0  0  0  0  0
  189.0390  176.6040  144.0940 C   0  0  0  0  0  0  0  0  0  0  0  0
  191.0670  169.9390  136.5700 C   0  0  0  0  0  1  0  0  0  0  0  0
  193.0400  171.1110  137.5660 C   0  0  0  0  0  2  0  0  0  0  0  0
  191.5950  171.2640  137.0830 C   0  0  2  0  0  0  0  0  0  0  0  0
  192.9430  171.4930  139.0060 C   0  0  0  0  0  0  0  0  0  0  0  0
  190.8640  171.6710  138.2300 O   0  0  0  0  0  0  0  0  0  0  0  0
  191.7000  171.7960  139.3250 C   0  0  0  0  0  0  0  0  0  0  0  0
  191.9330  174.0410  136.4450 O   0  0  0  0  0  1  0  0  0  0  0  0
  190.0710  172.6260  135.2730 O   0  0  0  0  0  1  0  0  0  0  0  0
  191.4880  172.5450  135.7940 P   0  0  0  0  0  0  0  0  0  0  0  0
  192.5300  172.1600  134.5150 O   0  0  0  0  0  0  0  0  0  0  0  0
  194.0200  171.5400  139.8900 O   0  0  0  0  0  0  0  0  0  0  0  0
  194.8090  172.6220  139.9620 O   0  0  0  0  0  0  0  0  0  0  0  0
  196.7640  172.9440  138.5410 C   0  0  0  0  0  0  0  0  0  0  0  0
  195.3630  172.7330  138.7280 N   0  0  0  0  0  2  0  0  0  0  0  0
  197.5440  172.9400  139.5330 O   0  0  0  0  0  0  0  0  0  0  0  0
  197.2940  173.1380  137.1500 C   0  0  2  0  0  3  0  0  0  0  0  0
  196.8930  175.5350  137.5540 N   0  0  0  0  0  1  0  0  0  0  0  0
  195.5280  174.3570  136.0760 O   0  0  0  0  0  1  0  0  0  0  0  0
  196.8300  174.4700  136.5640 C   0  0  2  0  0  3  0  0  0  0  0  0
  196.9760  171.9630  136.2280 C   0  0  0  0  0  2  0  0  0  0  0  0
  197.3080  170.6510  136.9150 C   0  0  0  0  0  1  0  0  0  0  0  0
  192.8660  174.5300  146.3450 C   0  0  0  0  0  2  0  0  0  0  0  0
  194.2300  175.0680  145.8820 C   0  0  2  0  0  3  0  0  0  0  0  0
  195.3270  174.0390  146.1300 C   0  0  0  0  0  2  0  0  0  0  0  0
  196.5240  174.3600  145.3720 N   0  0  0  0  0  2  0  0  0  0  0  0
  196.4160  173.6240  144.1240 C   0  0  0  0  0  2  0  0  0  0  0  0
  197.2440  175.1820  142.3470 C   0  0  0  0  0  3  0  0  0  0  0  0
  197.0060  176.0640  141.2870 C   0  0  0  0  0  3  0  0  0  0  0  0
  194.8560  174.8190  142.5780 C   0  0  0  0  0  3  0  0  0  0  0  0
  196.1690  174.5620  142.9960 C   0  0  0  0  0  0  0  0  0  0  0  0
  195.6960  176.3240  140.8760 C   0  0  0  0  0  3  0  0  0  0  0  0
  194.6190  175.7030  141.5220 C   0  0  0  0  0  3  0  0  0  0  0  0
  194.5610  176.4320  146.4880 C   0  0  0  0  0  2  0  0  0  0  0  0
  194.9130  177.4290  145.3970 C   0  0  0  0  0  2  0  0  0  0  0  0
  193.9580  178.4430  145.3550 O   0  0  0  0  0  1  0  0  0  0  0  0
  1 25  1  0  0  0  0
  1 50  1  1  0  0  0
  3 34  1  6  0  0  0
  3  8  1  0  0  0  0
  5 11  1  0  0  0  0
  8  2  1  6  0  0  0
  8  5  1  0  0  0  0
  9 20  1  0  0  0  0
  9 23  1  0  0  0  0
 10 28  2  0  0  0  0
 11  7  1  1  0  0  0
 11 19  1  0  0  0  0
 13 28  1  0  0  0  0
 14 22  1  0  0  0  0
 15 21  1  0  0  0  0
 15 22  1  0  0  0  0
 16 14  1  0  0  0  0
 16  3  1  0  0  0  0
 17  4  1  0  0  0  0
 17 26  2  0  0  0  0
 18 13  1  6  0  0  0
 18  1  1  0  0  0  0
 18  4  1  0  0  0  0
 19 25  1  0  0  0  0
 20 23  1  0  0  0  0
 21 24  1  0  0  0  0
 24  6  1  6  0  0  0
 24 10  1  0  0  0  0
 25 12  2  0  0  0  0
 26  9  2  0  0  0  0
 27 16  2  0  0  0  0
 28 17  1  0  0  0  0
 30 32  1  0  0  0  0
 31 29  1  6  0  0  0
 31 30  1  0  0  0  0
 31 33  1  0  0  0  0
 32 34  2  0  0  0  0
 32 39  1  0  0  0  0
 33 34  1  0  0  0  0
 36 37  1  0  0  0  0
 37 35  1  0  0  0  0
 37 31  1  0  0  0  0
 38 37  2  0  0  0  0
 39 40  1  0  0  0  0
 41 42  1  0  0  0  0
 41 43  2  0  0  0  0
 42 40  1  0  0  0  0
 44 48  1  6  0  0  0
 44 41  1  0  0  0  0
 47 46  1  1  0  0  0
 47 44  1  0  0  0  0
 47 45  1  0  0  0  0
 48 49  1  0  0  0  0
 51 52  1  1  0  0  0
 51 50  1  0  0  0  0
 51 61  1  0  0  0  0
 53 52  1  0  0  0  0
 54 53  1  0  0  0  0
 55 58  1  0  0  0  0
 56 55  2  0  0  0  0
 57 58  2  0  0  0  0
 58 54  1  0  0  0  0
 59 56  1  0  0  0  0
 59 60  2  0  0  0  0
 60 57  1  0  0  0  0
 62 61  1  0  0  0  0
 63 62  1  0  0  0  0
M  END
>  <MODEL>
7

>  <REMARK>
 VINA RESULT:      -5.0      1.567      2.788
  Name = 
  16 active torsions:
  status: ('A' for Active; 'I' for Inactive)
    1  A    between atoms: C_1  and  C_37
    2  A    between atoms: O_3  and  O_12
    3  A    between atoms: O_3  and  C_44
    4  A    between atoms: C_5  and  C_55
    5  A    between atoms: C_9  and  C_23
    6  A    between atoms: O_12  and  N_41
    7  A    between atoms: C_13  and  C_23
    8  A    between atoms: C_13  and  C_37
    9  A    between atoms: C_13  and  C_59
   10  A    between atoms: C_22  and  C_40
   11  A    between atoms: C_29  and  C_40
   12  A    between atoms: C_32  and  C_40
   13  A    between atoms: C_35  and  P_42
   14  A    between atoms: N_50  and  C_59
   15  A    between atoms: N_50  and  C_61
   16  A    between atoms: C_56  and  C_61
                            x       y       z     vdW  Elec       q    Type
                         _______ _______ _______ _____ _____    ______ ____

>  <TORSDO>
F 16

$$$$
=
 OpenBabel11072409343D

 63 67  0  0  1  0  0  0  0  0999 V2000
  193.5920  175.3190  143.0360 C   0  0  2  0  0  3  0  0  0  0  0  0
  188.2200  178.6930  142.2370 C   0  0  0  0  0  1  0  0  0  0  0  0
  188.4870  176.3590  143.2770 C   0  0  2  0  0  3  0  0  0  0  0  0
  194.5430  173.7440  141.3660 N   0  0  0  0  0  2  0  0  0  0  0  0
  190.2100  178.1440  143.6580 C   0  0  0  0  0  2  0  0  0  0  0  0
  190.1150  170.4110  140.8500 C   0  0  0  0  0  1  0  0  0  0  0  0
  192.3170  177.6840  144.6580 O   0  0  0  0  0  1  0  0  0  0  0  0
  189.1740  177.5960  142.6870 C   0  0  2  0  0  3  0  0  0  0  0  0
  194.9250  172.5630  138.0100 C   0  0  0  0  0  0  0  0  0  0  0  0
  191.5680  172.1920  139.9700 C   0  0  0  0  0  3  0  0  0  0  0  0
  191.4590  177.2740  143.6370 C   0  0  2  0  0  3  0  0  0  0  0  0
  193.8050  176.4280  140.9510 O   0  0  0  0  0  0  0  0  0  0  0  0
  192.2670  173.3540  142.0970 C   0  0  0  0  0  2  0  0  0  0  0  0
  188.2810  175.3830  140.9740 O   0  0  0  0  0  0  0  0  0  0  0  0
  188.2680  173.1320  140.0490 C   0  0  0  0  0  2  0  0  0  0  0  0
  188.5130  175.1920  142.3410 C   0  0  0  0  0  0  0  0  0  0  0  0
  193.8280  173.1330  140.3090 C   0  0  0  0  0  0  0  0  0  0  0  0
  193.6570  173.8760  142.5190 C   0  0  2  0  0  3  0  0  0  0  0  0
  192.1590  177.4170  142.2870 C   0  0  0  0  0  2  0  0  0  0  0  0
  195.2690  172.8990  136.5630 C   0  0  0  0  0  2  0  0  0  0  0  0
  189.2090  172.1890  139.4630 N   0  0  0  0  0  2  0  0  0  0  0  0
  188.8450  174.5400  139.9790 C   0  0  0  0  0  2  0  0  0  0  0  0
  195.7250  171.6530  137.0870 C   0  0  0  0  0  2  0  0  0  0  0  0
  190.2010  171.8780  140.4820 C   0  0  1  0  0  3  0  0  0  0  0  0
  193.2190  176.3830  142.0200 C   0  0  0  0  0  0  0  0  0  0  0  0
  194.3740  172.8430  139.1570 C   0  0  0  0  0  0  0  0  0  0  0  0
  188.7530  174.0450  142.7980 O   0  0  0  0  0  0  0  0  0  0  0  0
  192.4750  172.8380  140.7110 C   0  0  0  0  0  0  0  0  0  0  0  0
  185.1860  176.0410  146.6440 C   0  0  0  0  0  1  0  0  0  0  0  0
  184.9720  177.1650  144.4190 C   0  0  0  0  0  2  0  0  0  0  0  0
  185.7660  177.1000  145.7280 C   0  0  2  0  0  0  0  0  0  0  0  0
  186.0080  176.8400  143.3950 C   0  0  0  0  0  0  0  0  0  0  0  0
  187.0850  176.7450  145.3410 O   0  0  0  0  0  0  0  0  0  0  0  0
  187.1740  176.6120  143.9670 C   0  0  0  0  0  0  0  0  0  0  0  0
  187.0710  178.8050  147.6310 O   0  0  0  0  0  1  0  0  0  0  0  0
  184.4790  178.9240  147.2980 O   0  0  0  0  0  1  0  0  0  0  0  0
  185.7750  178.7260  146.5460 P   0  0  0  0  0  0  0  0  0  0  0  0
  185.9410  179.9510  145.3880 O   0  0  0  0  0  0  0  0  0  0  0  0
  185.7820  176.7980  142.0200 O   0  0  0  0  0  0  0  0  0  0  0  0
  185.3260  177.8740  141.3620 O   0  0  0  0  0  0  0  0  0  0  0  0
  182.9200  177.9440  140.9680 C   0  0  0  0  0  0  0  0  0  0  0  0
  184.0620  178.0550  141.8220 N   0  0  0  0  0  2  0  0  0  0  0  0
  183.0590  177.5790  139.7690 O   0  0  0  0  0  0  0  0  0  0  0  0
  181.5590  178.2370  141.5290 C   0  0  2  0  0  3  0  0  0  0  0  0
  180.3280  180.1120  140.5100 N   0  0  0  0  0  1  0  0  0  0  0  0
  179.3980  177.9740  140.5200 O   0  0  0  0  0  1  0  0  0  0  0  0
  180.5950  178.6830  140.4310 C   0  0  2  0  0  3  0  0  0  0  0  0
  181.5990  179.2230  142.6940 C   0  0  0  0  0  2  0  0  0  0  0  0
  180.3800  179.0420  143.5780 C   0  0  0  0  0  1  0  0  0  0  0  0
  194.7380  175.6660  144.0100 C   0  0  0  0  0  2  0  0  0  0  0  0
  195.7330  174.5530  144.3790 C   0  0  2  0  0  3  0  0  0  0  0  0
  195.5590  174.1350  145.8340 C   0  0  0  0  0  2  0  0  0  0  0  0
  194.1700  173.8260  146.1250 N   0  0  0  0  0  2  0  0  0  0  0  0
  193.6140  175.0200  146.7370 C   0  0  0  0  0  2  0  0  0  0  0  0
  191.3770  175.7130  147.6230 C   0  0  0  0  0  3  0  0  0  0  0  0
  189.9790  175.6580  147.5910 C   0  0  0  0  0  3  0  0  0  0  0  0
  191.4790  174.1710  145.7520 C   0  0  0  0  0  3  0  0  0  0  0  0
  192.1270  174.9670  146.7070 C   0  0  0  0  0  0  0  0  0  0  0  0
  189.3330  174.8600  146.6420 C   0  0  0  0  0  3  0  0  0  0  0  0
  190.0830  174.1140  145.7230 C   0  0  0  0  0  3  0  0  0  0  0  0
  197.1780  174.9220  144.0460 C   0  0  0  0  0  2  0  0  0  0  0  0
  197.2220  176.1350  143.1330 C   0  0  0  0  0  2  0  0  0  0  0  0
  197.3580  175.7270  141.8080 O   0  0  0  0  0  1  0  0  0  0  0  0
  1 50  1  6  0  0  0
  3 34  1  6  0  0  0
  4 18  1  0  0  0  0
  8  2  1  1  0  0  0
  8  3  1  0  0  0  0
  8  5  1  0  0  0  0
  9 26  2  0  0  0  0
 10 24  1  0  0  0  0
 10 28  2  0  0  0  0
 11  5  1  0  0  0  0
 11  7  1  1  0  0  0
 12 25  2  0  0  0  0
 14 16  1  0  0  0  0
 16 27  2  0  0  0  0
 16  3  1  0  0  0  0
 17 28  1  0  0  0  0
 17  4  1  0  0  0  0
 18 13  1  6  0  0  0
 18  1  1  0  0  0  0
 19 11  1  0  0  0  0
 20 23  1  0  0  0  0
 20  9  1  0  0  0  0
 21 15  1  0  0  0  0
 21 24  1  0  0  0  0
 22 15  1  0  0  0  0
 22 14  1  0  0  0  0
 23  9  1  0  0  0  0
 24  6  1  6  0  0  0
 25 19  1  0  0  0  0
 25  1  1  0  0  0  0
 26 17  2  0  0  0  0
 28 13  1  0  0  0  0
 30 31  1  0  0  0  0
 31 37  1  0  0  0  0
 31 29  1  1  0  0  0
 32 34  2  0  0  0  0
 32 30  1  0  0  0  0
 33 31  1  0  0  0  0
 34 33  1  0  0  0  0
 37 36  1  0  0  0  0
 37 35  1  0  0  0  0
 38 37  2  0  0  0  0
 39 32  1  0  0  0  0
 40 42  1  0  0  0  0
 40 39  1  0  0  0  0
 41 44  1  0  0  0  0
 41 42  1  0  0  0  0
 43 41  2  0  0  0  0
 44 48  1  1  0  0  0
 47 45  1  1  0  0  0
 47 46  1  0  0  0  0
 47 44  1  0  0  0  0
 48 49  1  0  0  0  0
 51 50  1  1  0  0  0
 51 52  1  0  0  0  0
 52 53  1  0  0  0  0
 53 54  1  0  0  0  0
 56 55  1  0  0  0  0
 57 58  1  0  0  0  0
 58 54  1  0  0  0  0
 58 55  2  0  0  0  0
 59 56  2  0  0  0  0
 60 57  2  0  0  0  0
 60 59  1  0  0  0  0
 61 51  1  0  0  0  0
 62 61  1  0  0  0  0
 63 62  1  0  0  0  0
M  END
>  <MODEL>
8

>  <REMARK>
 VINA RESULT:      -5.0      4.248      9.573
  Name = 
  16 active torsions:
  status: ('A' for Active; 'I' for Inactive)
    1  A    between atoms: C_1  and  C_37
    2  A    between atoms: O_3  and  O_12
    3  A    between atoms: O_3  and  C_44
    4  A    between atoms: C_5  and  C_55
    5  A    between atoms: C_9  and  C_23
    6  A    between atoms: O_12  and  N_41
    7  A    between atoms: C_13  and  C_23
    8  A    between atoms: C_13  and  C_37
    9  A    between atoms: C_13  and  C_59
   10  A    between atoms: C_22  and  C_40
   11  A    between atoms: C_29  and  C_40
   12  A    between atoms: C_32  and  C_40
   13  A    between atoms: C_35  and  P_42
   14  A    between atoms: N_50  and  C_59
   15  A    between atoms: N_50  and  C_61
   16  A    between atoms: C_56  and  C_61
                            x       y       z     vdW  Elec       q    Type
                         _______ _______ _______ _____ _____    ______ ____

>  <TORSDO>
F 16

$$$$
=
 OpenBabel11072409343D

 63 67  0  0  1  0  0  0  0  0999 V2000
  193.9130  175.2360  143.3360 C   0  0  2  0  0  3  0  0  0  0  0  0
  188.6310  178.4020  141.6180 C   0  0  0  0  0  1  0  0  0  0  0  0
  188.8040  176.2120  142.9500 C   0  0  2  0  0  3  0  0  0  0  0  0
  195.0330  173.4900  141.9670 N   0  0  0  0  0  2  0  0  0  0  0  0
  190.4730  178.0580  143.2810 C   0  0  0  0  0  2  0  0  0  0  0  0
  190.6940  170.0460  141.4230 C   0  0  0  0  0  1  0  0  0  0  0  0
  192.4720  177.7560  144.5310 O   0  0  0  0  0  1  0  0  0  0  0  0
  189.5410  177.3820  142.2860 C   0  0  2  0  0  3  0  0  0  0  0  0
  195.7530  171.9270  138.8300 C   0  0  0  0  0  0  0  0  0  0  0  0
  192.2190  171.7350  140.4820 C   0  0  0  0  0  3  0  0  0  0  0  0
  191.7220  177.2130  143.4870 C   0  0  2  0  0  3  0  0  0  0  0  0
  194.3270  176.0940  141.1650 O   0  0  0  0  0  0  0  0  0  0  0  0
  192.6980  173.1520  142.5140 C   0  0  0  0  0  2  0  0  0  0  0  0
  188.8330  174.9670  140.7710 O   0  0  0  0  0  0  0  0  0  0  0  0
  188.9230  172.6220  140.1240 C   0  0  0  0  0  2  0  0  0  0  0  0
  188.9300  174.9430  142.1670 C   0  0  0  0  0  0  0  0  0  0  0  0
  194.4290  172.7470  140.9260 C   0  0  0  0  0  0  0  0  0  0  0  0
  194.0360  173.7440  143.0050 C   0  0  2  0  0  3  0  0  0  0  0  0
  192.5520  177.2070  142.2050 C   0  0  0  0  0  2  0  0  0  0  0  0
  196.2370  172.0950  137.3940 C   0  0  0  0  0  2  0  0  0  0  0  0
  189.9220  171.6320  139.7510 N   0  0  0  0  0  2  0  0  0  0  0  0
  189.4970  174.0220  139.9440 C   0  0  0  0  0  2  0  0  0  0  0  0
  196.6450  170.9280  138.1050 C   0  0  0  0  0  2  0  0  0  0  0  0
  190.8100  171.4610  140.8910 C   0  0  1  0  0  3  0  0  0  0  0  0
  193.6380  176.1660  142.1690 C   0  0  0  0  0  0  0  0  0  0  0  0
  195.0890  172.3320  139.8760 C   0  0  0  0  0  0  0  0  0  0  0  0
  189.1280  173.8620  142.7790 O   0  0  0  0  0  0  0  0  0  0  0  0
  193.0440  172.4790  141.2260 C   0  0  0  0  0  0  0  0  0  0  0  0
  185.2420  176.3810  146.0500 C   0  0  0  0  0  1  0  0  0  0  0  0
  185.1760  177.0310  143.6350 C   0  0  0  0  0  2  0  0  0  0  0  0
  185.8560  177.2700  144.9870 C   0  0  2  0  0  0  0  0  0  0  0  0
  186.3080  176.5690  142.7790 C   0  0  0  0  0  0  0  0  0  0  0  0
  187.2160  176.9190  144.7810 O   0  0  0  0  0  0  0  0  0  0  0  0
  187.4290  176.5230  143.4730 C   0  0  0  0  0  0  0  0  0  0  0  0
  184.1170  179.4080  145.7840 O   0  0  0  0  0  1  0  0  0  0  0  0
  186.2390  179.8920  144.3320 O   0  0  0  0  0  0  0  0  0  0  0  0
  185.7320  179.0230  145.4610 P   0  0  0  0  0  0  0  0  0  0  0  0
  186.6630  179.3100  146.8460 O   0  0  0  0  0  1  0  0  0  0  0  0
  186.2020  176.2460  141.4270 O   0  0  0  0  0  0  0  0  0  0  0  0
  185.8790  177.1750  140.5170 O   0  0  0  0  0  0  0  0  0  0  0  0
  186.3330  176.5380  138.2070 C   0  0  0  0  0  0  0  0  0  0  0  0
  186.7550  176.9860  139.4980 N   0  0  0  0  0  2  0  0  0  0  0  0
  185.1050  176.3950  137.9570 O   0  0  0  0  0  0  0  0  0  0  0  0
  187.3670  176.2730  137.1520 C   0  0  2  0  0  3  0  0  0  0  0  0
  186.3360  176.0710  134.9240 N   0  0  0  0  0  1  0  0  0  0  0  0
  188.1590  177.4880  135.2400 O   0  0  0  0  0  1  0  0  0  0  0  0
  187.0110  176.9750  135.8430 C   0  0  2  0  0  3  0  0  0  0  0  0
  187.6370  174.7840  136.9510 C   0  0  0  0  0  2  0  0  0  0  0  0
  189.0460  174.5720  136.4300 C   0  0  0  0  0  1  0  0  0  0  0  0
  194.9550  175.7160  144.3700 C   0  0  0  0  0  2  0  0  0  0  0  0
  195.1470  174.8750  145.6440 C   0  0  2  0  0  3  0  0  0  0  0  0
  194.9320  175.7280  146.8880 C   0  0  0  0  0  2  0  0  0  0  0  0
  193.5750  176.2420  146.9400 N   0  0  0  0  0  2  0  0  0  0  0  0
  192.7050  175.0960  146.7310 C   0  0  0  0  0  2  0  0  0  0  0  0
  190.9570  176.8120  147.2480 C   0  0  0  0  0  3  0  0  0  0  0  0
  189.6170  177.1810  147.4110 C   0  0  0  0  0  3  0  0  0  0  0  0
  190.2660  174.5480  146.7160 C   0  0  0  0  0  3  0  0  0  0  0  0
  191.2820  175.4950  146.9050 C   0  0  0  0  0  0  0  0  0  0  0  0
  188.6050  176.2350  147.2280 C   0  0  0  0  0  3  0  0  0  0  0  0
  188.9290  174.9160  146.8820 C   0  0  0  0  0  3  0  0  0  0  0  0
  196.4840  174.1360  145.6650 C   0  0  0  0  0  2  0  0  0  0  0  0
  196.2620  172.6370  145.7770 C   0  0  0  0  0  2  0  0  0  0  0  0
  197.1980  171.9600  144.9970 O   0  0  0  0  0  1  0  0  0  0  0  0
  1 50  1  6  0  0  0
  3 34  1  6  0  0  0
  4 18  1  0  0  0  0
  5 11  1  0  0  0  0
  8  2  1  1  0  0  0
  8  3  1  0  0  0  0
  8  5  1  0  0  0  0
  9 26  2  0  0  0  0
 10 24  1  0  0  0  0
 10 28  2  0  0  0  0
 11  7  1  1  0  0  0
 12 25  2  0  0  0  0
 14 16  1  0  0  0  0
 16 27  2  0  0  0  0
 16  3  1  0  0  0  0
 17 28  1  0  0  0  0
 17  4  1  0  0  0  0
 18 13  1  6  0  0  0
 18  1  1  0  0  0  0
 19 11  1  0  0  0  0
 20 23  1  0  0  0  0
 20  9  1  0  0  0  0
 21 15  1  0  0  0  0
 21 24  1  0  0  0  0
 22 15  1  0  0  0  0
 22 14  1  0  0  0  0
 23  9  1  0  0  0  0
 24  6  1  6  0  0  0
 25 19  1  0  0  0  0
 25  1  1  0  0  0  0
 26 17  2  0  0  0  0
 28 13  1  0  0  0  0
 30 31  1  0  0  0  0
 31 37  1  0  0  0  0
 31 29  1  1  0  0  0
 32 34  2  0  0  0  0
 32 30  1  0  0  0  0
 33 31  1  0  0  0  0
 34 33  1  0  0  0  0
 36 37  2  0  0  0  0
 37 35  1  0  0  0  0
 37 38  1  0  0  0  0
 39 32  1  0  0  0  0
 40 39  1  0  0  0  0
 41 42  1  0  0  0  0
 42 40  1  0  0  0  0
 43 41  2  0  0  0  0
 44 48  1  6  0  0  0
 44 41  1  0  0  0  0
 46 47  1  0  0  0  0
 47 45  1  6  0  0  0
 47 44  1  0  0  0  0
 49 48  1  0  0  0  0
 51 50  1  6  0  0  0
 51 61  1  0  0  0  0
 51 52  1  0  0  0  0
 52 53  1  0  0  0  0
 54 58  1  0  0  0  0
 54 53  1  0  0  0  0
 55 56  1  0  0  0  0
 57 60  2  0  0  0  0
 57 58  1  0  0  0  0
 58 55  2  0  0  0  0
 59 56  2  0  0  0  0
 60 59  1  0  0  0  0
 61 62  1  0  0  0  0
 63 62  1  0  0  0  0
M  END
>  <MODEL>
9

>  <REMARK>
 VINA RESULT:      -4.9      3.575      8.650
  Name = 
  16 active torsions:
  status: ('A' for Active; 'I' for Inactive)
    1  A    between atoms: C_1  and  C_37
    2  A    between atoms: O_3  and  O_12
    3  A    between atoms: O_3  and  C_44
    4  A    between atoms: C_5  and  C_55
    5  A    between atoms: C_9  and  C_23
    6  A    between atoms: O_12  and  N_41
    7  A    between atoms: C_13  and  C_23
    8  A    between atoms: C_13  and  C_37
    9  A    between atoms: C_13  and  C_59
   10  A    between atoms: C_22  and  C_40
   11  A    between atoms: C_29  and  C_40
   12  A    between atoms: C_32  and  C_40
   13  A    between atoms: C_35  and  P_42
   14  A    between atoms: N_50  and  C_59
   15  A    between atoms: N_50  and  C_61
   16  A    between atoms: C_56  and  C_61
                            x       y       z     vdW  Elec       q    Type
                         _______ _______ _______ _____ _____    ______ ____

>  <TORSDO>
F 16

$$$$
