=
 OpenBabel11062418353D

 55 62  0  0  1  0  0  0  0  0999 V2000
  188.3830  176.6590  145.4310 C   0  0  1  0  0  3  0  0  0  0  0  0
  186.8650  176.8630  145.5160 C   0  0  1  0  0  3  0  0  0  0  0  0
  187.4410  178.0660  147.5090 O   0  0  0  0  0  1  0  0  0  0  0  0
  186.4010  177.6330  146.6840 C   0  0  1  0  0  3  0  0  0  0  0  0
  186.5190  178.2880  145.3660 N   0  0  2  0  0  0  0  0  0  0  0  0
  185.2050  178.3170  144.7310 C   0  0  1  0  0  3  0  0  0  0  0  0
  184.8510  179.7140  144.2440 C   0  0  0  0  0  2  0  0  0  0  0  0
  185.3770  178.6890  143.2690 C   0  0  2  0  0  3  0  0  0  0  0  0
  184.2170  178.1080  142.4770 C   0  0  0  0  0  2  0  0  0  0  0  0
  184.4800  178.2580  140.9880 C   0  0  0  0  0  1  0  0  0  0  0  0
  188.9060  175.4570  146.2450 C   0  0  0  0  0  2  0  0  0  0  0  0
  190.2030  175.0690  145.8870 O   0  0  0  0  0  0  0  0  0  0  0  0
  190.9180  177.3160  147.3550 O   0  0  0  0  0  0  0  0  0  0  0  0
  191.2190  175.6700  147.1110 P   0  0  1  0  0  0  0  0  0  0  0  0
  190.9330  174.9330  148.4010 O   0  0  0  0  0  1  0  0  0  0  0  0
  192.8660  175.4700  146.6320 O   0  0  0  0  0  0  0  0  0  0  0  0
  194.3110  177.2370  146.8550 O   0  0  0  0  0  0  0  0  0  0  0  0
  193.6440  176.4950  146.0850 C   0  0  0  0  0  0  0  0  0  0  0  0
  193.7280  176.7100  144.6010 C   0  0  0  0  0  2  0  0  0  0  0  0
  194.6330  175.9110  142.4000 C   0  0  0  0  0  1  0  0  0  0  0  0
  194.5000  175.5980  143.8810 C   0  0  1  0  0  3  0  0  0  0  0  0
  195.9040  175.5280  144.4640 C   0  0  0  0  0  2  0  0  0  0  0  0
  196.1810  174.2390  145.1800 C   0  0  0  0  0  0  0  0  0  0  0  0
  196.4130  174.2210  146.3790 O   0  0  0  0  0  0  0  0  0  0  0  0
  196.2510  172.7170  144.2290 S   0  0  0  0  0  0  0  0  0  0  0  0
  194.9530  170.8680  145.6390 O   0  0  0  0  0  0  0  0  0  0  0  0
  197.2460  170.7310  145.7340 O   0  0  0  0  0  0  0  0  0  0  0  0
  196.7510  169.6530  146.4680 C   0  0  0  0  0  2  0  0  0  0  0  0
  196.1470  171.5990  145.6660 C   0  0  0  0  0  3  0  0  0  0  0  0
  195.2500  169.7330  146.3890 C   0  0  0  0  0  2  0  0  0  0  0  0
  188.8190  176.5280  143.9700 C   0  0  0  0  0  2  0  0  0  0  0  0
  188.2360  174.5370  142.4430 C   0  0  2  0  0  3  0  0  0  0  0  0
  188.1480  175.8320  141.6640 C   0  0  0  0  0  2  0  0  0  0  0  0
  187.7580  175.8270  143.1260 C   0  0  2  0  0  3  0  0  0  0  0  0
  190.9270  172.0900  142.2860 C   0  0  2  0  0  3  0  0  0  0  0  0
  189.7520  172.6750  143.0380 C   0  0  0  0  0  2  0  0  0  0  0  0
  191.8730  174.2450  141.6670 O   0  0  0  0  0  0  0  0  0  0  0  0
  189.6910  174.1570  142.6830 C   0  0  1  0  0  3  0  0  0  0  0  0
  191.2280  173.0940  141.1810 C   0  0  2  0  0  0  0  0  0  0  0  0
  190.4870  174.3500  141.3950 C   0  0  2  0  0  3  0  0  0  0  0  0
  190.5080  170.4540  141.7260 Cl  0  0  0  0  0  0  0  0  0  0  0  0
  191.5900  171.5630  139.3820 O   0  0  0  0  0  0  0  0  0  0  0  0
  191.5620  172.7650  139.7530 C   0  0  0  0  0  0  0  0  0  0  0  0
  191.9190  173.7830  138.8610 O   0  0  0  0  0  0  0  0  0  0  0  0
  193.9930  173.7170  137.6150 C   0  0  1  0  0  3  0  0  0  0  0  0
  193.2400  174.3130  138.7970 C   0  0  1  0  0  3  0  0  0  0  0  0
  192.3270  175.1610  136.7240 O   0  0  0  0  0  1  0  0  0  0  0  0
  193.4660  175.1390  137.5280 C   0  0  2  0  0  3  0  0  0  0  0  0
  195.4290  173.6860  137.8960 N   0  0  0  0  0  0  0  0  0  0  0  0
  195.4530  171.4010  138.4500 O   0  0  0  0  0  0  0  0  0  0  0  0
  197.8180  174.0470  139.2130 N   0  0  0  0  0  2  0  0  0  0  0  0
  196.2340  174.7610  137.6560 O   0  0  0  0  0  0  0  0  0  0  0  0
  196.8240  175.0780  138.8900 C   0  0  0  0  0  2  0  0  0  0  0  0
  197.1580  172.7570  139.4600 C   0  0  0  0  0  2  0  0  0  0  0  0
  195.9930  172.5370  138.5440 C   0  0  0  0  0  0  0  0  0  0  0  0
  1 31  1  6  0  0  0
  1 11  1  0  0  0  0
  2  1  1  1  0  0  0
  2  4  1  0  0  0  0
  4  3  1  1  0  0  0
  5  6  1  6  0  0  0
  5  2  1  0  0  0  0
  5  4  1  0  0  0  0
  6  7  1  1  0  0  0
  8  9  1  6  0  0  0
  8  7  1  0  0  0  0
  8  6  1  0  0  0  0
 10  9  1  0  0  0  0
 12 11  1  0  0  0  0
 12 14  1  0  0  0  0
 14 13  2  1  0  0  0
 14 15  1  0  0  0  0
 16 14  1  0  0  0  0
 18 16  1  0  0  0  0
 18 17  2  0  0  0  0
 19 18  1  0  0  0  0
 21 20  1  6  0  0  0
 21 22  1  0  0  0  0
 21 19  1  0  0  0  0
 22 23  1  0  0  0  0
 23 24  2  0  0  0  0
 25 23  1  0  0  0  0
 25 29  1  0  0  0  0
 26 29  1  0  0  0  0
 26 30  1  0  0  0  0
 27 28  1  0  0  0  0
 29 27  1  0  0  0  0
 30 28  1  0  0  0  0
 32 33  1  6  0  0  0
 32 38  1  0  0  0  0
 32 34  1  0  0  0  0
 33 34  1  0  0  0  0
 34 31  1  1  0  0  0
 35 41  1  6  0  0  0
 35 36  1  0  0  0  0
 38 36  1  6  0  0  0
 39 43  1  6  0  0  0
 39 40  1  0  0  0  0
 39 37  1  0  0  0  0
 39 35  1  0  0  0  0
 40 37  1  1  0  0  0
 40 38  1  0  0  0  0
 42 43  2  0  0  0  0
 44 43  1  0  0  0  0
 45 49  1  1  0  0  0
 45 46  1  0  0  0  0
 46 44  1  6  0  0  0
 48 47  1  6  0  0  0
 48 45  1  0  0  0  0
 48 46  1  0  0  0  0
 49 55  1  0  0  0  0
 50 55  2  0  0  0  0
 51 54  1  0  0  0  0
 52 49  1  0  0  0  0
 52 53  1  0  0  0  0
 53 51  1  0  0  0  0
 55 54  1  0  0  0  0
M  END
>  <MODEL>
1

>  <REMARK>
 VINA RESULT:      -6.2      0.000      0.000
  Name = 
  21 active torsions:
  status: ('A' for Active; 'I' for Inactive)
    1  A    between atoms: C_2  and  C_15
    2  A    between atoms: C_2  and  C_37
    3  A    between atoms: C_4  and  N_6
    4  A    between atoms: O_7  and  C_18
    5  A    between atoms: O_7  and  C_20
    6  A    between atoms: CA_9  and  C_41
    7  A    between atoms: C_11  and  S_17
    8  A    between atoms: C_11  and  C_53
    9  A    between atoms: C_15  and  C_53
   10  A    between atoms: C_16  and  O_39
   11  A    between atoms: C_16  and  C_41
   12  A    between atoms: S_17  and  C_35
   13  A    between atoms: C_20  and  C_36
   14  A    between atoms: C_22  and  C_26
   15  A    between atoms: P_23  and  O_25
   16  A    between atoms: P_23  and  O_39
   17  A    between atoms: O_25  and  C_37
   18  A    between atoms: C_29  and  C_41
   19  A    between atoms: C_29  and  C_45
   20  A    between atoms: C_30  and  N_50
   21  A    between atoms: C_42  and  C_43
                            x       y       z     vdW  Elec       q    Type
                         _______ _______ _______ _____ _____    ______ ____

>  <TORSDO>
F 21

$$$$
=
 OpenBabel11062418353D

 55 62  0  0  1  0  0  0  0  0999 V2000
  188.3930  177.8130  145.8350 C   0  0  1  0  0  3  0  0  0  0  0  0
  186.9320  177.3470  145.7970 C   0  0  1  0  0  3  0  0  0  0  0  0
  186.8620  178.3800  147.9610 O   0  0  0  0  0  1  0  0  0  0  0  0
  186.1400  177.6750  146.9960 C   0  0  1  0  0  3  0  0  0  0  0  0
  186.0150  178.5010  145.7800 N   0  0  2  0  0  0  0  0  0  0  0  0
  184.8400  178.0680  145.0300 C   0  0  1  0  0  3  0  0  0  0  0  0
  183.6620  179.0070  145.2460 C   0  0  0  0  0  2  0  0  0  0  0  0
  184.5010  179.1280  143.9970 C   0  0  2  0  0  3  0  0  0  0  0  0
  183.7740  178.4650  142.8380 C   0  0  0  0  0  2  0  0  0  0  0  0
  184.7790  177.8300  141.8910 C   0  0  0  0  0  1  0  0  0  0  0  0
  189.2910  177.0010  146.7930 C   0  0  0  0  0  2  0  0  0  0  0  0
  190.6420  177.0180  146.4300 O   0  0  0  0  0  0  0  0  0  0  0  0
  191.6680  177.3290  148.9930 O   0  0  0  0  0  1  0  0  0  0  0  0
  191.4720  176.2530  147.7030 P   0  0  1  0  0  0  0  0  0  0  0  0
  190.6610  175.0690  148.1830 O   0  0  0  0  0  0  0  0  0  0  0  0
  193.0300  175.7560  147.1490 O   0  0  0  0  0  0  0  0  0  0  0  0
  193.2490  173.8690  145.8650 O   0  0  0  0  0  0  0  0  0  0  0  0
  193.2510  175.1270  145.9200 C   0  0  0  0  0  0  0  0  0  0  0  0
  193.4580  175.9190  144.6600 C   0  0  0  0  0  2  0  0  0  0  0  0
  194.9100  177.6730  145.7200 C   0  0  0  0  0  1  0  0  0  0  0  0
  194.8160  176.6290  144.6190 C   0  0  1  0  0  3  0  0  0  0  0  0
  195.9080  175.5980  144.8700 C   0  0  0  0  0  2  0  0  0  0  0  0
  196.7210  175.2900  143.6470 C   0  0  0  0  0  0  0  0  0  0  0  0
  197.4290  176.1410  143.1300 O   0  0  0  0  0  0  0  0  0  0  0  0
  196.5750  173.6650  142.8950 S   0  0  0  0  0  0  0  0  0  0  0  0
  195.8930  172.2870  145.0700 O   0  0  0  0  0  0  0  0  0  0  0  0
  197.8750  171.6480  144.0950 O   0  0  0  0  0  0  0  0  0  0  0  0
  197.6570  170.7780  145.1630 C   0  0  0  0  0  2  0  0  0  0  0  0
  197.0350  172.7300  144.3920 C   0  0  0  0  0  3  0  0  0  0  0  0
  196.3490  171.1850  145.7890 C   0  0  0  0  0  2  0  0  0  0  0  0
  188.9890  177.7980  144.4250 C   0  0  0  0  0  2  0  0  0  0  0  0
  188.5010  175.8990  142.7550 C   0  0  2  0  0  3  0  0  0  0  0  0
  188.6230  177.2170  142.0210 C   0  0  0  0  0  2  0  0  0  0  0  0
  188.0190  177.2020  143.4090 C   0  0  2  0  0  3  0  0  0  0  0  0
  190.6600  173.2180  143.9430 C   0  0  2  0  0  3  0  0  0  0  0  0
  189.6840  174.3310  144.2590 C   0  0  0  0  0  2  0  0  0  0  0  0
  191.9380  174.5130  142.3270 O   0  0  0  0  0  0  0  0  0  0  0  0
  189.8730  175.4040  143.1920 C   0  0  1  0  0  3  0  0  0  0  0  0
  191.0490  173.4360  142.4870 C   0  0  2  0  0  0  0  0  0  0  0  0
  190.5790  174.7480  142.0070 C   0  0  2  0  0  3  0  0  0  0  0  0
  189.8940  171.6510  144.2950 Cl  0  0  0  0  0  0  0  0  0  0  0  0
  192.3010  171.7940  141.2840 O   0  0  0  0  0  0  0  0  0  0  0  0
  191.1910  172.3680  141.4400 C   0  0  0  0  0  0  0  0  0  0  0  0
  190.1220  172.0690  140.5880 O   0  0  0  0  0  0  0  0  0  0  0  0
  189.3430  171.4340  138.3860 C   0  0  1  0  0  3  0  0  0  0  0  0
  190.1070  172.4570  139.2170 C   0  0  1  0  0  3  0  0  0  0  0  0
  187.7460  172.5730  139.7310 O   0  0  0  0  0  1  0  0  0  0  0  0
  188.6910  172.7640  138.7230 C   0  0  2  0  0  3  0  0  0  0  0  0
  189.8570  171.4130  137.0160 N   0  0  0  0  0  0  0  0  0  0  0  0
  191.3660  169.6560  137.4190 O   0  0  0  0  0  0  0  0  0  0  0  0
  191.2740  172.1360  134.7700 N   0  0  0  0  0  2  0  0  0  0  0  0
  189.3100  172.1780  136.0280 O   0  0  0  0  0  0  0  0  0  0  0  0
  190.3550  172.9810  135.5430 C   0  0  0  0  0  2  0  0  0  0  0  0
  191.9500  171.1720  135.6500 C   0  0  0  0  0  2  0  0  0  0  0  0
  191.0370  170.6530  136.7210 C   0  0  0  0  0  0  0  0  0  0  0  0
  1 31  1  6  0  0  0
  1 11  1  0  0  0  0
  2  1  1  1  0  0  0
  2  4  1  0  0  0  0
  4  3  1  1  0  0  0
  5  6  1  6  0  0  0
  5  2  1  0  0  0  0
  5  4  1  0  0  0  0
  6  7  1  1  0  0  0
  8  9  1  6  0  0  0
  8  6  1  0  0  0  0
  8  7  1  0  0  0  0
 10  9  1  0  0  0  0
 12 11  1  0  0  0  0
 12 14  1  0  0  0  0
 14 15  2  1  0  0  0
 14 13  1  0  0  0  0
 16 14  1  0  0  0  0
 17 18  2  0  0  0  0
 18 16  1  0  0  0  0
 19 18  1  0  0  0  0
 21 19  1  0  0  0  0
 21 22  1  0  0  0  0
 21 20  1  1  0  0  0
 23 22  1  0  0  0  0
 24 23  2  0  0  0  0
 25 23  1  0  0  0  0
 25 29  1  0  0  0  0
 26 30  1  0  0  0  0
 27 29  1  0  0  0  0
 27 28  1  0  0  0  0
 28 30  1  0  0  0  0
 29 26  1  0  0  0  0
 32 33  1  6  0  0  0
 32 38  1  0  0  0  0
 32 34  1  0  0  0  0
 33 34  1  0  0  0  0
 34 31  1  1  0  0  0
 35 36  1  0  0  0  0
 35 41  1  6  0  0  0
 37 39  1  0  0  0  0
 38 36  1  1  0  0  0
 39 43  1  6  0  0  0
 39 35  1  0  0  0  0
 40 37  1  1  0  0  0
 40 39  1  0  0  0  0
 40 38  1  0  0  0  0
 42 43  2  0  0  0  0
 44 43  1  0  0  0  0
 45 49  1  6  0  0  0
 45 48  1  0  0  0  0
 45 46  1  0  0  0  0
 46 44  1  1  0  0  0
 48 46  1  0  0  0  0
 48 47  1  1  0  0  0
 51 53  1  0  0  0  0
 51 54  1  0  0  0  0
 52 49  1  0  0  0  0
 53 52  1  0  0  0  0
 54 55  1  0  0  0  0
 55 49  1  0  0  0  0
 55 50  2  0  0  0  0
M  END
>  <MODEL>
2

>  <REMARK>
 VINA RESULT:      -6.2      2.613      3.194
  Name = 
  21 active torsions:
  status: ('A' for Active; 'I' for Inactive)
    1  A    between atoms: C_2  and  C_15
    2  A    between atoms: C_2  and  C_37
    3  A    between atoms: C_4  and  N_6
    4  A    between atoms: O_7  and  C_18
    5  A    between atoms: O_7  and  C_20
    6  A    between atoms: CA_9  and  C_41
    7  A    between atoms: C_11  and  S_17
    8  A    between atoms: C_11  and  C_53
    9  A    between atoms: C_15  and  C_53
   10  A    between atoms: C_16  and  O_39
   11  A    between atoms: C_16  and  C_41
   12  A    between atoms: S_17  and  C_35
   13  A    between atoms: C_20  and  C_36
   14  A    between atoms: C_22  and  C_26
   15  A    between atoms: P_23  and  O_25
   16  A    between atoms: P_23  and  O_39
   17  A    between atoms: O_25  and  C_37
   18  A    between atoms: C_29  and  C_41
   19  A    between atoms: C_29  and  C_45
   20  A    between atoms: C_30  and  N_50
   21  A    between atoms: C_42  and  C_43
                            x       y       z     vdW  Elec       q    Type
                         _______ _______ _______ _____ _____    ______ ____

>  <TORSDO>
F 21

$$$$
=
 OpenBabel11062418353D

 55 62  0  0  1  0  0  0  0  0999 V2000
  192.6390  175.6420  145.1200 C   0  0  1  0  0  3  0  0  0  0  0  0
  193.7790  176.5040  144.5610 C   0  0  1  0  0  3  0  0  0  0  0  0
  194.1260  177.0130  146.8790 O   0  0  0  0  0  1  0  0  0  0  0  0
  194.5560  177.2450  145.5710 C   0  0  1  0  0  3  0  0  0  0  0  0
  195.0880  175.9910  145.0030 N   0  0  2  0  0  0  0  0  0  0  0  0
  196.0270  176.3150  143.9340 C   0  0  1  0  0  3  0  0  0  0  0  0
  197.0820  175.2310  143.7690 C   0  0  0  0  0  2  0  0  0  0  0  0
  195.8970  175.2730  142.8370 C   0  0  2  0  0  3  0  0  0  0  0  0
  196.3190  175.8980  141.5170 C   0  0  0  0  0  2  0  0  0  0  0  0
  195.1680  175.8410  140.5260 C   0  0  0  0  0  1  0  0  0  0  0  0
  191.2270  176.1850  144.8150 C   0  0  0  0  0  2  0  0  0  0  0  0
  190.7770  177.1150  145.7610 O   0  0  0  0  0  0  0  0  0  0  0  0
  188.6410  175.3600  145.4860 O   0  0  0  0  0  0  0  0  0  0  0  0
  189.4730  176.3680  146.5580 P   0  0  1  0  0  0  0  0  0  0  0  0
  190.0060  175.5240  147.6960 O   0  0  0  0  0  1  0  0  0  0  0  0
  188.3900  177.5820  147.1380 O   0  0  0  0  0  0  0  0  0  0  0  0
  186.6670  176.2810  147.9090 O   0  0  0  0  0  0  0  0  0  0  0  0
  187.0290  177.3600  147.3680 C   0  0  0  0  0  0  0  0  0  0  0  0
  185.9960  178.3900  147.0150 C   0  0  0  0  0  2  0  0  0  0  0  0
  184.0720  178.9580  145.5030 C   0  0  0  0  0  1  0  0  0  0  0  0
  185.3390  178.1330  145.6530 C   0  0  1  0  0  3  0  0  0  0  0  0
  186.3050  178.5710  144.5600 C   0  0  0  0  0  2  0  0  0  0  0  0
  186.7320  177.4450  143.6650 C   0  0  0  0  0  0  0  0  0  0  0  0
  186.0900  176.4080  143.6060 O   0  0  0  0  0  0  0  0  0  0  0  0
  188.2590  177.6110  142.7330 S   0  0  0  0  0  0  0  0  0  0  0  0
  187.4350  176.7460  140.3520 O   0  0  0  0  0  0  0  0  0  0  0  0
  186.1610  178.4240  141.2720 O   0  0  0  0  0  0  0  0  0  0  0  0
  185.5410  178.0620  140.0760 C   0  0  0  0  0  2  0  0  0  0  0  0
  187.4580  177.9150  141.1230 C   0  0  0  0  0  3  0  0  0  0  0  0
  186.3650  176.9500  139.4850 C   0  0  0  0  0  2  0  0  0  0  0  0
  192.7650  174.2040  144.6110 C   0  0  0  0  0  2  0  0  0  0  0  0
  191.8760  172.6510  142.7590 C   0  0  2  0  0  3  0  0  0  0  0  0
  191.9220  174.0800  142.2610 C   0  0  0  0  0  2  0  0  0  0  0  0
  191.5920  173.8190  143.7150 C   0  0  2  0  0  3  0  0  0  0  0  0
  194.2040  169.9460  142.0380 C   0  0  2  0  0  3  0  0  0  0  0  0
  193.1650  170.5500  142.9580 C   0  0  0  0  0  2  0  0  0  0  0  0
  195.3870  172.0390  141.6570 O   0  0  0  0  0  0  0  0  0  0  0  0
  193.2790  172.0640  142.8240 C   0  0  1  0  0  3  0  0  0  0  0  0
  194.5670  171.0620  141.0670 C   0  0  2  0  0  0  0  0  0  0  0  0
  194.0130  172.3520  141.5170 C   0  0  2  0  0  3  0  0  0  0  0  0
  193.5380  168.4770  141.2870 Cl  0  0  0  0  0  0  0  0  0  0  0  0
  195.6530  170.1350  139.1500 O   0  0  0  0  0  0  0  0  0  0  0  0
  194.7650  170.9150  139.5840 C   0  0  0  0  0  0  0  0  0  0  0  0
  194.0240  171.7010  138.6930 O   0  0  0  0  0  0  0  0  0  0  0  0
  192.0510  172.5360  137.5680 C   0  0  1  0  0  3  0  0  0  0  0  0
  192.6930  171.3710  138.3100 C   0  0  1  0  0  3  0  0  0  0  0  0
  193.7230  171.6340  136.1370 O   0  0  0  0  0  1  0  0  0  0  0  0
  192.5290  171.3230  136.7880 C   0  0  2  0  0  3  0  0  0  0  0  0
  190.6000  172.5190  137.7620 N   0  0  0  0  0  0  0  0  0  0  0  0
  190.2150  174.3950  136.3980 O   0  0  0  0  0  0  0  0  0  0  0  0
  188.1430  172.8590  138.9520 N   0  0  0  0  0  2  0  0  0  0  0  0
  189.9750  171.5110  138.4360 O   0  0  0  0  0  0  0  0  0  0  0  0
  189.2930  172.1270  139.4970 C   0  0  0  0  0  2  0  0  0  0  0  0
  188.5960  173.9860  138.1240 C   0  0  0  0  0  2  0  0  0  0  0  0
  189.8210  173.6430  137.3310 C   0  0  0  0  0  0  0  0  0  0  0  0
  1 31  1  6  0  0  0
  2  5  1  0  0  0  0
  2  1  1  1  0  0  0
  2  4  1  0  0  0  0
  4  3  1  1  0  0  0
  5  6  1  6  0  0  0
  5  4  1  0  0  0  0
  6  7  1  1  0  0  0
  8  9  1  6  0  0  0
  8  7  1  0  0  0  0
  8  6  1  0  0  0  0
 10  9  1  0  0  0  0
 11  1  1  0  0  0  0
 11 12  1  0  0  0  0
 12 14  1  0  0  0  0
 14 13  2  6  0  0  0
 14 16  1  0  0  0  0
 14 15  1  0  0  0  0
 16 18  1  0  0  0  0
 18 17  2  0  0  0  0
 19 18  1  0  0  0  0
 21 20  1  1  0  0  0
 21 19  1  0  0  0  0
 22 21  1  0  0  0  0
 23 22  1  0  0  0  0
 24 23  2  0  0  0  0
 25 23  1  0  0  0  0
 26 29  1  0  0  0  0
 28 27  1  0  0  0  0
 29 27  1  0  0  0  0
 29 25  1  0  0  0  0
 30 28  1  0  0  0  0
 30 26  1  0  0  0  0
 32 33  1  6  0  0  0
 32 38  1  0  0  0  0
 32 34  1  0  0  0  0
 33 34  1  0  0  0  0
 34 31  1  1  0  0  0
 35 41  1  6  0  0  0
 35 36  1  0  0  0  0
 38 36  1  6  0  0  0
 39 43  1  6  0  0  0
 39 40  1  0  0  0  0
 39 37  1  0  0  0  0
 39 35  1  0  0  0  0
 40 37  1  1  0  0  0
 40 38  1  0  0  0  0
 42 43  2  0  0  0  0
 44 43  1  0  0  0  0
 45 49  1  1  0  0  0
 45 46  1  0  0  0  0
 46 44  1  6  0  0  0
 48 47  1  6  0  0  0
 48 45  1  0  0  0  0
 48 46  1  0  0  0  0
 49 52  1  0  0  0  0
 50 55  2  0  0  0  0
 51 53  1  0  0  0  0
 52 53  1  0  0  0  0
 54 51  1  0  0  0  0
 55 49  1  0  0  0  0
 55 54  1  0  0  0  0
M  END
>  <MODEL>
3

>  <REMARK>
 VINA RESULT:      -6.2      3.189      7.809
  Name = 
  21 active torsions:
  status: ('A' for Active; 'I' for Inactive)
    1  A    between atoms: C_2  and  C_15
    2  A    between atoms: C_2  and  C_37
    3  A    between atoms: C_4  and  N_6
    4  A    between atoms: O_7  and  C_18
    5  A    between atoms: O_7  and  C_20
    6  A    between atoms: CA_9  and  C_41
    7  A    between atoms: C_11  and  S_17
    8  A    between atoms: C_11  and  C_53
    9  A    between atoms: C_15  and  C_53
   10  A    between atoms: C_16  and  O_39
   11  A    between atoms: C_16  and  C_41
   12  A    between atoms: S_17  and  C_35
   13  A    between atoms: C_20  and  C_36
   14  A    between atoms: C_22  and  C_26
   15  A    between atoms: P_23  and  O_25
   16  A    between atoms: P_23  and  O_39
   17  A    between atoms: O_25  and  C_37
   18  A    between atoms: C_29  and  C_41
   19  A    between atoms: C_29  and  C_45
   20  A    between atoms: C_30  and  N_50
   21  A    between atoms: C_42  and  C_43
                            x       y       z     vdW  Elec       q    Type
                         _______ _______ _______ _____ _____    ______ ____

>  <TORSDO>
F 21

$$$$
=
 OpenBabel11062418353D

 55 62  0  0  1  0  0  0  0  0999 V2000
  188.7610  174.6010  141.7350 C   0  0  1  0  0  3  0  0  0  0  0  0
  189.9510  174.4480  142.6910 C   0  0  1  0  0  3  0  0  0  0  0  0
  188.9010  172.3470  143.1780 O   0  0  0  0  0  1  0  0  0  0  0  0
  189.9710  173.1950  143.4680 C   0  0  1  0  0  3  0  0  0  0  0  0
  190.8210  173.3350  142.2690 N   0  0  2  0  0  0  0  0  0  0  0  0
  192.1710  173.7030  142.6840 C   0  0  1  0  0  3  0  0  0  0  0  0
  193.2180  173.1640  141.7200 C   0  0  0  0  0  2  0  0  0  0  0  0
  192.7800  174.6040  141.6240 C   0  0  2  0  0  3  0  0  0  0  0  0
  193.8260  175.4920  142.2810 C   0  0  0  0  0  2  0  0  0  0  0  0
  194.9070  175.8490  141.2740 C   0  0  0  0  0  1  0  0  0  0  0  0
  188.1070  175.9990  141.7600 C   0  0  0  0  0  2  0  0  0  0  0  0
  186.7440  175.9660  142.0800 O   0  0  0  0  0  0  0  0  0  0  0  0
  187.4080  178.6550  142.2860 O   0  0  0  0  0  1  0  0  0  0  0  0
  186.1840  177.5600  141.8850 P   0  0  1  0  0  0  0  0  0  0  0  0
  185.8010  177.7760  140.4370 O   0  0  0  0  0  0  0  0  0  0  0  0
  184.8360  177.8220  142.9310 O   0  0  0  0  0  0  0  0  0  0  0  0
  184.9410  179.6600  144.2970 O   0  0  0  0  0  0  0  0  0  0  0  0
  184.9400  178.4040  144.1980 C   0  0  0  0  0  0  0  0  0  0  0  0
  185.0160  177.5670  145.4420 C   0  0  0  0  0  2  0  0  0  0  0  0
  186.0990  177.2900  147.6910 C   0  0  0  0  0  1  0  0  0  0  0  0
  186.2450  177.8880  146.3010 C   0  0  1  0  0  3  0  0  0  0  0  0
  187.4670  177.2520  145.6540 C   0  0  0  0  0  2  0  0  0  0  0  0
  188.5450  176.9090  146.6400 C   0  0  0  0  0  0  0  0  0  0  0  0
  189.1700  177.7830  147.2210 O   0  0  0  0  0  0  0  0  0  0  0  0
  188.9680  175.1820  146.8950 S   0  0  0  0  0  0  0  0  0  0  0  0
  190.8050  176.2550  145.2930 O   0  0  0  0  0  0  0  0  0  0  0  0
  191.5540  175.6960  147.3930 O   0  0  0  0  0  0  0  0  0  0  0  0
  192.6250  176.2990  146.7350 C   0  0  0  0  0  2  0  0  0  0  0  0
  190.6990  175.3340  146.3430 C   0  0  0  0  0  3  0  0  0  0  0  0
  192.1280  176.6820  145.3670 C   0  0  0  0  0  2  0  0  0  0  0  0
  189.1810  174.2480  140.3070 C   0  0  0  0  0  2  0  0  0  0  0  0
  189.1470  172.0240  139.0080 C   0  0  2  0  0  3  0  0  0  0  0  0
  188.4160  173.0940  138.2250 C   0  0  0  0  0  2  0  0  0  0  0  0
  188.3410  173.1100  139.7360 C   0  0  2  0  0  3  0  0  0  0  0  0
  192.5000  170.7550  138.3750 C   0  0  2  0  0  3  0  0  0  0  0  0
  191.3510  170.9540  139.3400 C   0  0  0  0  0  2  0  0  0  0  0  0
  192.3950  173.0090  137.4610 O   0  0  0  0  0  0  0  0  0  0  0  0
  190.6510  172.2470  138.9380 C   0  0  1  0  0  3  0  0  0  0  0  0
  192.1740  171.6470  137.1850 C   0  0  2  0  0  0  0  0  0  0  0  0
  191.0550  172.5540  137.4980 C   0  0  2  0  0  3  0  0  0  0  0  0
  192.6580  169.0240  138.0010 Cl  0  0  0  0  0  0  0  0  0  0  0  0
  191.3200  171.1700  135.0050 O   0  0  0  0  0  0  0  0  0  0  0  0
  192.3380  171.2850  135.7360 C   0  0  0  0  0  0  0  0  0  0  0  0
  193.6080  170.9960  135.2210 O   0  0  0  0  0  0  0  0  0  0  0  0
  195.7250  171.7080  136.1540 C   0  0  1  0  0  3  0  0  0  0  0  0
  194.6340  171.9800  135.1260 C   0  0  1  0  0  3  0  0  0  0  0  0
  195.8710  169.9930  134.5130 O   0  0  0  0  0  1  0  0  0  0  0  0
  195.9710  171.3720  134.6930 C   0  0  2  0  0  3  0  0  0  0  0  0
  196.3750  172.9620  136.5400 N   0  0  0  0  0  0  0  0  0  0  0  0
  195.5320  172.9310  138.7350 O   0  0  0  0  0  0  0  0  0  0  0  0
  196.8810  175.6580  136.7540 N   0  0  0  0  0  2  0  0  0  0  0  0
  197.2520  173.6030  135.7160 O   0  0  0  0  0  0  0  0  0  0  0  0
  196.7190  174.8870  135.5160 C   0  0  0  0  0  2  0  0  0  0  0  0
  196.0450  175.0930  137.8240 C   0  0  0  0  0  2  0  0  0  0  0  0
  196.0020  173.5950  137.7710 C   0  0  0  0  0  0  0  0  0  0  0  0
  1 31  1  6  0  0  0
  1 11  1  0  0  0  0
  2  1  1  6  0  0  0
  2  4  1  0  0  0  0
  4  3  1  6  0  0  0
  5  6  1  1  0  0  0
  5  2  1  0  0  0  0
  5  4  1  0  0  0  0
  6  7  1  6  0  0  0
  8  7  1  0  0  0  0
  8  9  1  1  0  0  0
  8  6  1  0  0  0  0
 10  9  1  0  0  0  0
 11 12  1  0  0  0  0
 14 15  2  6  0  0  0
 14 12  1  0  0  0  0
 14 13  1  0  0  0  0
 14 16  1  0  0  0  0
 16 18  1  0  0  0  0
 18 17  2  0  0  0  0
 18 19  1  0  0  0  0
 19 21  1  0  0  0  0
 21 20  1  1  0  0  0
 22 21  1  0  0  0  0
 22 23  1  0  0  0  0
 23 25  1  0  0  0  0
 23 24  2  0  0  0  0
 26 30  1  0  0  0  0
 26 29  1  0  0  0  0
 28 27  1  0  0  0  0
 29 25  1  0  0  0  0
 29 27  1  0  0  0  0
 30 28  1  0  0  0  0
 32 33  1  6  0  0  0
 32 34  1  0  0  0  0
 33 34  1  0  0  0  0
 34 31  1  1  0  0  0
 35 41  1  6  0  0  0
 35 36  1  0  0  0  0
 38 32  1  0  0  0  0
 38 36  1  6  0  0  0
 39 43  1  6  0  0  0
 39 37  1  0  0  0  0
 39 40  1  0  0  0  0
 39 35  1  0  0  0  0
 40 37  1  1  0  0  0
 40 38  1  0  0  0  0
 42 43  2  0  0  0  0
 44 43  1  0  0  0  0
 45 49  1  6  0  0  0
 46 44  1  1  0  0  0
 46 45  1  0  0  0  0
 48 47  1  1  0  0  0
 48 46  1  0  0  0  0
 48 45  1  0  0  0  0
 49 55  1  0  0  0  0
 51 54  1  0  0  0  0
 52 49  1  0  0  0  0
 53 52  1  0  0  0  0
 53 51  1  0  0  0  0
 55 54  1  0  0  0  0
 55 50  2  0  0  0  0
M  END
>  <MODEL>
4

>  <REMARK>
 VINA RESULT:      -6.0      3.311      6.614
  Name = 
  21 active torsions:
  status: ('A' for Active; 'I' for Inactive)
    1  A    between atoms: C_2  and  C_15
    2  A    between atoms: C_2  and  C_37
    3  A    between atoms: C_4  and  N_6
    4  A    between atoms: O_7  and  C_18
    5  A    between atoms: O_7  and  C_20
    6  A    between atoms: CA_9  and  C_41
    7  A    between atoms: C_11  and  S_17
    8  A    between atoms: C_11  and  C_53
    9  A    between atoms: C_15  and  C_53
   10  A    between atoms: C_16  and  O_39
   11  A    between atoms: C_16  and  C_41
   12  A    between atoms: S_17  and  C_35
   13  A    between atoms: C_20  and  C_36
   14  A    between atoms: C_22  and  C_26
   15  A    between atoms: P_23  and  O_25
   16  A    between atoms: P_23  and  O_39
   17  A    between atoms: O_25  and  C_37
   18  A    between atoms: C_29  and  C_41
   19  A    between atoms: C_29  and  C_45
   20  A    between atoms: C_30  and  N_50
   21  A    between atoms: C_42  and  C_43
                            x       y       z     vdW  Elec       q    Type
                         _______ _______ _______ _____ _____    ______ ____

>  <TORSDO>
F 21

$$$$
=
 OpenBabel11062418353D

 55 62  0  0  1  0  0  0  0  0999 V2000
  196.7560  174.0160  143.0680 C   0  0  1  0  0  3  0  0  0  0  0  0
  196.8760  172.7020  143.8500 C   0  0  1  0  0  3  0  0  0  0  0  0
  197.5580  174.1690  145.6210 O   0  0  0  0  0  1  0  0  0  0  0  0
  197.3320  172.8430  145.2450 C   0  0  1  0  0  3  0  0  0  0  0  0
  195.8970  172.6580  144.9510 N   0  0  2  0  0  0  0  0  0  0  0  0
  195.5550  171.2500  145.1270 C   0  0  1  0  0  3  0  0  0  0  0  0
  194.1800  171.0840  145.7570 C   0  0  0  0  0  2  0  0  0  0  0  0
  194.3460  170.9290  144.2660 C   0  0  2  0  0  3  0  0  0  0  0  0
  194.3760  169.4500  143.9140 C   0  0  0  0  0  2  0  0  0  0  0  0
  195.6260  168.8060  144.4900 C   0  0  0  0  0  1  0  0  0  0  0  0
  197.4450  173.9940  141.6860 C   0  0  0  0  0  2  0  0  0  0  0  0
  197.3460  175.2100  141.0010 O   0  0  0  0  0  0  0  0  0  0  0  0
  197.9400  175.6740  138.3270 O   0  0  0  0  0  0  0  0  0  0  0  0
  196.9580  174.8060  139.3950 P   0  0  1  0  0  0  0  0  0  0  0  0
  197.2050  173.3280  139.1830 O   0  0  0  0  0  1  0  0  0  0  0  0
  195.3070  175.2110  139.0890 O   0  0  0  0  0  0  0  0  0  0  0  0
  194.2750  173.6080  137.8160 O   0  0  0  0  0  0  0  0  0  0  0  0
  194.3000  174.2610  138.8930 C   0  0  0  0  0  0  0  0  0  0  0  0
  193.2700  173.9810  139.9490 C   0  0  0  0  0  2  0  0  0  0  0  0
  194.4590  171.8520  140.5490 C   0  0  0  0  0  1  0  0  0  0  0  0
  193.1110  172.4840  140.2430 C   0  0  1  0  0  3  0  0  0  0  0  0
  192.2370  172.3240  141.4780 C   0  0  0  0  0  2  0  0  0  0  0  0
  190.9010  171.7100  141.1800 C   0  0  0  0  0  0  0  0  0  0  0  0
  190.0850  171.5120  142.0680 O   0  0  0  0  0  0  0  0  0  0  0  0
  190.5430  171.1870  139.4990 S   0  0  0  0  0  0  0  0  0  0  0  0
  190.4580  173.1980  137.7550 O   0  0  0  0  0  0  0  0  0  0  0  0
  188.4660  172.7370  138.8060 O   0  0  0  0  0  0  0  0  0  0  0  0
  188.2080  173.7600  137.8930 C   0  0  0  0  0  2  0  0  0  0  0  0
  189.8590  172.7860  138.9520 C   0  0  0  0  0  3  0  0  0  0  0  0
  189.5090  174.0470  137.1920 C   0  0  0  0  0  2  0  0  0  0  0  0
  195.2850  174.4060  142.9110 C   0  0  0  0  0  2  0  0  0  0  0  0
  194.0420  176.1420  144.3510 C   0  0  2  0  0  3  0  0  0  0  0  0
  193.6340  176.2830  142.9000 C   0  0  0  0  0  2  0  0  0  0  0  0
  195.0560  175.8810  143.2280 C   0  0  2  0  0  3  0  0  0  0  0  0
  191.7320  174.6390  146.7310 C   0  0  2  0  0  3  0  0  0  0  0  0
  193.1090  175.1950  146.4360 C   0  0  0  0  0  2  0  0  0  0  0  0
  191.5780  173.3590  144.6670 O   0  0  0  0  0  0  0  0  0  0  0  0
  193.3990  174.9070  144.9670 C   0  0  1  0  0  3  0  0  0  0  0  0
  191.0750  174.4700  145.3680 C   0  0  2  0  0  0  0  0  0  0  0  0
  192.0610  174.6330  144.2840 C   0  0  2  0  0  3  0  0  0  0  0  0
  190.8850  175.7350  147.8470 Cl  0  0  0  0  0  0  0  0  0  0  0  0
  189.0720  174.1960  144.0930 O   0  0  0  0  0  0  0  0  0  0  0  0
  189.6550  174.8180  145.0190 C   0  0  0  0  0  0  0  0  0  0  0  0
  189.0130  175.8820  145.6640 O   0  0  0  0  0  0  0  0  0  0  0  0
  186.7270  176.6750  145.6240 C   0  0  1  0  0  3  0  0  0  0  0  0
  188.1090  176.7500  144.9870 C   0  0  1  0  0  3  0  0  0  0  0  0
  188.1510  177.7810  147.1750 O   0  0  0  0  0  1  0  0  0  0  0  0
  187.6120  177.8800  145.8920 C   0  0  2  0  0  3  0  0  0  0  0  0
  185.6970  176.9710  144.6270 N   0  0  0  0  0  0  0  0  0  0  0  0
  186.6780  175.6370  142.9570 O   0  0  0  0  0  0  0  0  0  0  0  0
  184.2540  178.3280  142.7170 N   0  0  0  0  0  2  0  0  0  0  0  0
  184.5770  177.6860  144.9360 O   0  0  0  0  0  0  0  0  0  0  0  0
  184.5800  178.7920  144.0710 C   0  0  0  0  0  2  0  0  0  0  0  0
  185.3280  177.4710  142.1950 C   0  0  0  0  0  2  0  0  0  0  0  0
  185.9150  176.5940  143.2600 C   0  0  0  0  0  0  0  0  0  0  0  0
  1 11  1  6  0  0  0
  2  1  1  6  0  0  0
  2  5  1  0  0  0  0
  2  4  1  0  0  0  0
  4  3  1  6  0  0  0
  5  6  1  1  0  0  0
  5  4  1  0  0  0  0
  6  7  1  1  0  0  0
  8  9  1  1  0  0  0
  8  6  1  0  0  0  0
  8  7  1  0  0  0  0
  9 10  1  0  0  0  0
 12 11  1  0  0  0  0
 14 13  2  6  0  0  0
 14 12  1  0  0  0  0
 15 14  1  0  0  0  0
 16 14  1  0  0  0  0
 17 18  2  0  0  0  0
 18 16  1  0  0  0  0
 18 19  1  0  0  0  0
 19 21  1  0  0  0  0
 21 20  1  1  0  0  0
 21 22  1  0  0  0  0
 23 22  1  0  0  0  0
 23 24  2  0  0  0  0
 25 23  1  0  0  0  0
 26 29  1  0  0  0  0
 27 29  1  0  0  0  0
 28 27  1  0  0  0  0
 29 25  1  0  0  0  0
 30 26  1  0  0  0  0
 30 28  1  0  0  0  0
 31  1  1  0  0  0  0
 32 33  1  6  0  0  0
 32 38  1  0  0  0  0
 33 34  1  0  0  0  0
 34 31  1  6  0  0  0
 34 32  1  0  0  0  0
 35 41  1  1  0  0  0
 36 35  1  0  0  0  0
 37 39  1  0  0  0  0
 38 36  1  1  0  0  0
 39 43  1  6  0  0  0
 39 35  1  0  0  0  0
 40 37  1  1  0  0  0
 40 38  1  0  0  0  0
 40 39  1  0  0  0  0
 42 43  2  0  0  0  0
 43 44  1  0  0  0  0
 45 49  1  6  0  0  0
 45 48  1  0  0  0  0
 46 45  1  0  0  0  0
 46 44  1  1  0  0  0
 46 48  1  0  0  0  0
 48 47  1  1  0  0  0
 49 52  1  0  0  0  0
 50 55  2  0  0  0  0
 51 53  1  0  0  0  0
 53 52  1  0  0  0  0
 54 51  1  0  0  0  0
 54 55  1  0  0  0  0
 55 49  1  0  0  0  0
M  END
>  <MODEL>
5

>  <REMARK>
 VINA RESULT:      -5.9      3.125      9.708
  Name = 
  21 active torsions:
  status: ('A' for Active; 'I' for Inactive)
    1  A    between atoms: C_2  and  C_15
    2  A    between atoms: C_2  and  C_37
    3  A    between atoms: C_4  and  N_6
    4  A    between atoms: O_7  and  C_18
    5  A    between atoms: O_7  and  C_20
    6  A    between atoms: CA_9  and  C_41
    7  A    between atoms: C_11  and  S_17
    8  A    between atoms: C_11  and  C_53
    9  A    between atoms: C_15  and  C_53
   10  A    between atoms: C_16  and  O_39
   11  A    between atoms: C_16  and  C_41
   12  A    between atoms: S_17  and  C_35
   13  A    between atoms: C_20  and  C_36
   14  A    between atoms: C_22  and  C_26
   15  A    between atoms: P_23  and  O_25
   16  A    between atoms: P_23  and  O_39
   17  A    between atoms: O_25  and  C_37
   18  A    between atoms: C_29  and  C_41
   19  A    between atoms: C_29  and  C_45
   20  A    between atoms: C_30  and  N_50
   21  A    between atoms: C_42  and  C_43
                            x       y       z     vdW  Elec       q    Type
                         _______ _______ _______ _____ _____    ______ ____

>  <TORSDO>
F 21

$$$$
=
 OpenBabel11062418353D

 55 62  0  0  1  0  0  0  0  0999 V2000
  194.6910  174.2340  142.4820 C   0  0  1  0  0  3  0  0  0  0  0  0
  195.7860  173.2500  142.9140 C   0  0  1  0  0  3  0  0  0  0  0  0
  197.2170  174.8210  141.8010 O   0  0  0  0  0  1  0  0  0  0  0  0
  197.1530  173.6160  142.5030 C   0  0  1  0  0  3  0  0  0  0  0  0
  196.7010  173.8780  143.8830 N   0  0  2  0  0  0  0  0  0  0  0  0
  197.1690  172.8000  144.7490 C   0  0  1  0  0  3  0  0  0  0  0  0
  196.8970  173.1030  146.2160 C   0  0  0  0  0  2  0  0  0  0  0  0
  195.9730  172.1850  145.4540 C   0  0  2  0  0  3  0  0  0  0  0  0
  196.3000  170.7420  145.8020 C   0  0  0  0  0  2  0  0  0  0  0  0
  195.0300  170.0010  146.1860 C   0  0  0  0  0  1  0  0  0  0  0  0
  193.6170  173.6200  141.5600 C   0  0  0  0  0  2  0  0  0  0  0  0
  193.1920  172.3520  141.9750 O   0  0  0  0  0  0  0  0  0  0  0  0
  191.0570  170.6050  141.6530 O   0  0  0  0  0  0  0  0  0  0  0  0
  191.6040  172.1830  141.3910 P   0  0  1  0  0  0  0  0  0  0  0  0
  190.6960  173.1370  142.1380 O   0  0  0  0  0  1  0  0  0  0  0  0
  191.5840  172.5060  139.6940 O   0  0  0  0  0  0  0  0  0  0  0  0
  192.2430  170.4960  138.8070 O   0  0  0  0  0  0  0  0  0  0  0  0
  191.4990  171.5090  138.7170 C   0  0  0  0  0  0  0  0  0  0  0  0
  190.5180  171.6030  137.5840 C   0  0  0  0  0  2  0  0  0  0  0  0
  190.2860  171.5960  135.0840 C   0  0  0  0  0  1  0  0  0  0  0  0
  191.1800  171.9750  136.2520 C   0  0  1  0  0  3  0  0  0  0  0  0
  191.3720  173.4850  136.2130 C   0  0  0  0  0  2  0  0  0  0  0  0
  192.8120  173.8940  136.1130 C   0  0  0  0  0  0  0  0  0  0  0  0
  193.6030  173.2570  135.4340 O   0  0  0  0  0  0  0  0  0  0  0  0
  193.3840  175.2970  137.0790 S   0  0  0  0  0  0  0  0  0  0  0  0
  195.8700  175.7780  136.2530 O   0  0  0  0  0  0  0  0  0  0  0  0
  195.7080  174.7440  138.3000 O   0  0  0  0  0  0  0  0  0  0  0  0
  197.0650  174.9720  138.0740 C   0  0  0  0  0  2  0  0  0  0  0  0
  195.1510  174.8510  137.0180 C   0  0  0  0  0  3  0  0  0  0  0  0
  197.1690  175.6660  136.7430 C   0  0  0  0  0  2  0  0  0  0  0  0
  194.0280  174.8600  143.7110 C   0  0  0  0  0  2  0  0  0  0  0  0
  192.6550  176.8930  144.4950 C   0  0  2  0  0  3  0  0  0  0  0  0
  192.1480  176.4110  143.1520 C   0  0  0  0  0  2  0  0  0  0  0  0
  193.6270  176.3100  143.4590 C   0  0  2  0  0  3  0  0  0  0  0  0
  191.2220  176.3430  147.7960 C   0  0  2  0  0  3  0  0  0  0  0  0
  192.4390  176.6330  146.9450 C   0  0  0  0  0  2  0  0  0  0  0  0
  190.3510  174.6050  146.3310 O   0  0  0  0  0  0  0  0  0  0  0  0
  192.2160  175.9450  145.6020 C   0  0  1  0  0  3  0  0  0  0  0  0
  190.1450  175.9110  146.8100 C   0  0  2  0  0  0  0  0  0  0  0  0
  190.7190  175.6700  145.4750 C   0  0  2  0  0  3  0  0  0  0  0  0
  190.8270  177.7830  148.7630 Cl  0  0  0  0  0  0  0  0  0  0  0  0
  187.8180  175.4920  147.1590 O   0  0  0  0  0  0  0  0  0  0  0  0
  188.7010  176.3290  146.8370 C   0  0  0  0  0  0  0  0  0  0  0  0
  188.3320  177.6150  146.4280 O   0  0  0  0  0  0  0  0  0  0  0  0
  186.6080  176.9850  144.8510 C   0  0  1  0  0  3  0  0  0  0  0  0
  187.8070  177.8820  145.1310 C   0  0  1  0  0  3  0  0  0  0  0  0
  185.9340  178.5500  146.5090 O   0  0  0  0  0  1  0  0  0  0  0  0
  186.3850  178.4480  145.1940 C   0  0  2  0  0  3  0  0  0  0  0  0
  186.4890  176.7400  143.4120 N   0  0  0  0  0  0  0  0  0  0  0  0
  188.1810  175.1080  143.3680 O   0  0  0  0  0  0  0  0  0  0  0  0
  186.7390  177.0970  140.6950 N   0  0  0  0  0  2  0  0  0  0  0  0
  185.5040  177.3140  142.6620 O   0  0  0  0  0  0  0  0  0  0  0  0
  186.1640  178.0430  141.6600 C   0  0  0  0  0  2  0  0  0  0  0  0
  187.8120  176.3110  141.3230 C   0  0  0  0  0  2  0  0  0  0  0  0
  187.4950  175.9650  142.7470 C   0  0  0  0  0  0  0  0  0  0  0  0
  1 11  1  1  0  0  0
  1 31  1  0  0  0  0
  2  1  1  6  0  0  0
  2  5  1  0  0  0  0
  4  3  1  6  0  0  0
  4  2  1  0  0  0  0
  4  5  1  0  0  0  0
  5  6  1  1  0  0  0
  6  8  1  0  0  0  0
  6  7  1  1  0  0  0
  8  9  1  1  0  0  0
  8  7  1  0  0  0  0
  9 10  1  0  0  0  0
 11 12  1  0  0  0  0
 14 13  2  1  0  0  0
 14 12  1  0  0  0  0
 14 15  1  0  0  0  0
 16 14  1  0  0  0  0
 18 17  2  0  0  0  0
 18 16  1  0  0  0  0
 19 18  1  0  0  0  0
 21 20  1  6  0  0  0
 21 19  1  0  0  0  0
 22 21  1  0  0  0  0
 23 22  1  0  0  0  0
 23 25  1  0  0  0  0
 24 23  2  0  0  0  0
 26 30  1  0  0  0  0
 26 29  1  0  0  0  0
 28 27  1  0  0  0  0
 29 25  1  0  0  0  0
 29 27  1  0  0  0  0
 30 28  1  0  0  0  0
 32 33  1  6  0  0  0
 32 38  1  0  0  0  0
 33 34  1  0  0  0  0
 34 31  1  1  0  0  0
 34 32  1  0  0  0  0
 35 41  1  6  0  0  0
 36 35  1  0  0  0  0
 37 39  1  0  0  0  0
 38 36  1  1  0  0  0
 39 43  1  1  0  0  0
 39 35  1  0  0  0  0
 40 38  1  0  0  0  0
 40 37  1  1  0  0  0
 40 39  1  0  0  0  0
 43 42  2  0  0  0  0
 44 43  1  0  0  0  0
 45 49  1  6  0  0  0
 45 46  1  0  0  0  0
 45 48  1  0  0  0  0
 46 48  1  0  0  0  0
 46 44  1  1  0  0  0
 48 47  1  1  0  0  0
 51 54  1  0  0  0  0
 51 53  1  0  0  0  0
 52 49  1  0  0  0  0
 53 52  1  0  0  0  0
 54 55  1  0  0  0  0
 55 50  2  0  0  0  0
 55 49  1  0  0  0  0
M  END
>  <MODEL>
6

>  <REMARK>
 VINA RESULT:      -5.8      3.171      9.630
  Name = 
  21 active torsions:
  status: ('A' for Active; 'I' for Inactive)
    1  A    between atoms: C_2  and  C_15
    2  A    between atoms: C_2  and  C_37
    3  A    between atoms: C_4  and  N_6
    4  A    between atoms: O_7  and  C_18
    5  A    between atoms: O_7  and  C_20
    6  A    between atoms: CA_9  and  C_41
    7  A    between atoms: C_11  and  S_17
    8  A    between atoms: C_11  and  C_53
    9  A    between atoms: C_15  and  C_53
   10  A    between atoms: C_16  and  O_39
   11  A    between atoms: C_16  and  C_41
   12  A    between atoms: S_17  and  C_35
   13  A    between atoms: C_20  and  C_36
   14  A    between atoms: C_22  and  C_26
   15  A    between atoms: P_23  and  O_25
   16  A    between atoms: P_23  and  O_39
   17  A    between atoms: O_25  and  C_37
   18  A    between atoms: C_29  and  C_41
   19  A    between atoms: C_29  and  C_45
   20  A    between atoms: C_30  and  N_50
   21  A    between atoms: C_42  and  C_43
                            x       y       z     vdW  Elec       q    Type
                         _______ _______ _______ _____ _____    ______ ____

>  <TORSDO>
F 21

$$$$
=
 OpenBabel11062418353D

 55 62  0  0  1  0  0  0  0  0999 V2000
  188.4560  177.3250  144.8680 C   0  0  1  0  0  3  0  0  0  0  0  0
  186.9510  177.1250  145.0930 C   0  0  1  0  0  3  0  0  0  0  0  0
  187.4740  177.9580  147.2810 O   0  0  0  0  0  1  0  0  0  0  0  0
  186.4680  177.4770  146.4400 C   0  0  1  0  0  3  0  0  0  0  0  0
  186.2800  178.4170  145.3180 N   0  0  2  0  0  0  0  0  0  0  0  0
  184.9270  178.2630  144.7910 C   0  0  1  0  0  3  0  0  0  0  0  0
  184.2240  179.6060  144.6540 C   0  0  0  0  0  2  0  0  0  0  0  0
  184.8460  178.9560  143.4430 C   0  0  2  0  0  3  0  0  0  0  0  0
  183.7570  178.2890  142.6160 C   0  0  0  0  0  2  0  0  0  0  0  0
  184.2060  178.1670  141.1700 C   0  0  0  0  0  1  0  0  0  0  0  0
  189.3520  176.5150  145.8280 C   0  0  0  0  0  2  0  0  0  0  0  0
  190.5610  177.1540  146.1270 O   0  0  0  0  0  0  0  0  0  0  0  0
  191.0620  174.9430  147.7330 O   0  0  0  0  0  1  0  0  0  0  0  0
  191.6650  175.9100  146.4840 P   0  0  1  0  0  0  0  0  0  0  0  0
  191.8530  175.0470  145.2550 O   0  0  0  0  0  0  0  0  0  0  0  0
  193.1620  176.6070  146.9900 O   0  0  0  0  0  0  0  0  0  0  0  0
  194.8790  177.5170  145.7720 O   0  0  0  0  0  0  0  0  0  0  0  0
  194.3560  176.4850  146.2710 C   0  0  0  0  0  0  0  0  0  0  0  0
  195.0430  175.1600  146.1100 C   0  0  0  0  0  2  0  0  0  0  0  0
  195.8090  173.5350  144.3560 C   0  0  0  0  0  1  0  0  0  0  0  0
  195.7170  175.0020  144.7420 C   0  0  1  0  0  3  0  0  0  0  0  0
  194.8580  175.6990  143.6960 C   0  0  0  0  0  2  0  0  0  0  0  0
  195.6650  176.4100  142.6500 C   0  0  0  0  0  0  0  0  0  0  0  0
  196.6700  177.0380  142.9470 O   0  0  0  0  0  0  0  0  0  0  0  0
  195.0830  176.3980  140.9500 S   0  0  0  0  0  0  0  0  0  0  0  0
  197.1720  174.7660  141.2110 O   0  0  0  0  0  0  0  0  0  0  0  0
  196.2680  174.8590  139.0990 O   0  0  0  0  0  0  0  0  0  0  0  0
  197.2920  173.9130  139.0540 C   0  0  0  0  0  2  0  0  0  0  0  0
  196.5640  175.5920  140.2570 C   0  0  0  0  0  3  0  0  0  0  0  0
  197.8700  173.8390  140.4420 C   0  0  0  0  0  2  0  0  0  0  0  0
  188.8210  177.0030  143.4170 C   0  0  0  0  0  2  0  0  0  0  0  0
  188.1890  174.7790  142.2820 C   0  0  2  0  0  3  0  0  0  0  0  0
  188.0960  175.9150  141.2860 C   0  0  0  0  0  2  0  0  0  0  0  0
  187.7370  176.1750  142.7330 C   0  0  2  0  0  3  0  0  0  0  0  0
  190.8620  172.3150  142.4780 C   0  0  2  0  0  3  0  0  0  0  0  0
  189.7030  173.0240  143.1440 C   0  0  0  0  0  2  0  0  0  0  0  0
  191.8100  174.3350  141.5060 O   0  0  0  0  0  0  0  0  0  0  0  0
  189.6450  174.4300  142.5570 C   0  0  1  0  0  3  0  0  0  0  0  0
  191.1510  173.1260  141.2220 C   0  0  2  0  0  0  0  0  0  0  0  0
  190.4210  174.4060  141.2430 C   0  0  2  0  0  3  0  0  0  0  0  0
  190.4240  170.6140  142.1960 Cl  0  0  0  0  0  0  0  0  0  0  0  0
  192.5290  171.9340  139.6760 O   0  0  0  0  0  0  0  0  0  0  0  0
  191.4580  172.5690  139.8600 C   0  0  0  0  0  0  0  0  0  0  0  0
  190.6010  172.8250  138.7840 O   0  0  0  0  0  0  0  0  0  0  0  0
  191.7460  172.9960  136.6580 C   0  0  1  0  0  3  0  0  0  0  0  0
  190.9440  173.7220  137.7320 C   0  0  1  0  0  3  0  0  0  0  0  0
  189.5180  172.1720  136.5410 O   0  0  0  0  0  1  0  0  0  0  0  0
  190.2850  173.3290  136.4060 C   0  0  2  0  0  3  0  0  0  0  0  0
  192.6410  173.9330  135.9790 N   0  0  0  0  0  0  0  0  0  0  0  0
  194.1460  172.2670  135.2790 O   0  0  0  0  0  0  0  0  0  0  0  0
  194.5710  175.8580  135.5990 N   0  0  0  0  0  2  0  0  0  0  0  0
  192.3310  175.2540  135.8370 O   0  0  0  0  0  0  0  0  0  0  0  0
  193.3790  175.9600  136.4500 C   0  0  0  0  0  2  0  0  0  0  0  0
  195.0570  174.4710  135.5600 C   0  0  0  0  0  2  0  0  0  0  0  0
  193.9310  173.4810  135.5440 C   0  0  0  0  0  0  0  0  0  0  0  0
  1 31  1  6  0  0  0
  1 11  1  0  0  0  0
  2  1  1  1  0  0  0
  2  5  1  0  0  0  0
  2  4  1  0  0  0  0
  4  3  1  1  0  0  0
  5  6  1  6  0  0  0
  5  4  1  0  0  0  0
  6  7  1  1  0  0  0
  8  9  1  6  0  0  0
  8  7  1  0  0  0  0
  8  6  1  0  0  0  0
 10  9  1  0  0  0  0
 11 12  1  0  0  0  0
 12 14  1  0  0  0  0
 14 15  2  6  0  0  0
 14 16  1  0  0  0  0
 14 13  1  0  0  0  0
 17 18  2  0  0  0  0
 18 16  1  0  0  0  0
 19 18  1  0  0  0  0
 21 20  1  6  0  0  0
 21 19  1  0  0  0  0
 22 21  1  0  0  0  0
 23 24  2  0  0  0  0
 23 22  1  0  0  0  0
 25 23  1  0  0  0  0
 27 29  1  0  0  0  0
 28 27  1  0  0  0  0
 28 30  1  0  0  0  0
 29 25  1  0  0  0  0
 29 26  1  0  0  0  0
 30 26  1  0  0  0  0
 32 33  1  6  0  0  0
 32 38  1  0  0  0  0
 32 34  1  0  0  0  0
 33 34  1  0  0  0  0
 34 31  1  1  0  0  0
 35 41  1  6  0  0  0
 35 36  1  0  0  0  0
 38 36  1  6  0  0  0
 39 43  1  6  0  0  0
 39 40  1  0  0  0  0
 39 37  1  0  0  0  0
 39 35  1  0  0  0  0
 40 37  1  1  0  0  0
 40 38  1  0  0  0  0
 42 43  2  0  0  0  0
 44 43  1  0  0  0  0
 45 49  1  6  0  0  0
 45 46  1  0  0  0  0
 46 44  1  1  0  0  0
 48 47  1  1  0  0  0
 48 45  1  0  0  0  0
 48 46  1  0  0  0  0
 50 55  2  0  0  0  0
 51 53  1  0  0  0  0
 52 49  1  0  0  0  0
 52 53  1  0  0  0  0
 54 51  1  0  0  0  0
 55 54  1  0  0  0  0
 55 49  1  0  0  0  0
M  END
>  <MODEL>
7

>  <REMARK>
 VINA RESULT:      -5.8      2.107      3.199
  Name = 
  21 active torsions:
  status: ('A' for Active; 'I' for Inactive)
    1  A    between atoms: C_2  and  C_15
    2  A    between atoms: C_2  and  C_37
    3  A    between atoms: C_4  and  N_6
    4  A    between atoms: O_7  and  C_18
    5  A    between atoms: O_7  and  C_20
    6  A    between atoms: CA_9  and  C_41
    7  A    between atoms: C_11  and  S_17
    8  A    between atoms: C_11  and  C_53
    9  A    between atoms: C_15  and  C_53
   10  A    between atoms: C_16  and  O_39
   11  A    between atoms: C_16  and  C_41
   12  A    between atoms: S_17  and  C_35
   13  A    between atoms: C_20  and  C_36
   14  A    between atoms: C_22  and  C_26
   15  A    between atoms: P_23  and  O_25
   16  A    between atoms: P_23  and  O_39
   17  A    between atoms: O_25  and  C_37
   18  A    between atoms: C_29  and  C_41
   19  A    between atoms: C_29  and  C_45
   20  A    between atoms: C_30  and  N_50
   21  A    between atoms: C_42  and  C_43
                            x       y       z     vdW  Elec       q    Type
                         _______ _______ _______ _____ _____    ______ ____

>  <TORSDO>
F 21

$$$$
=
 OpenBabel11062418353D

 55 62  0  0  1  0  0  0  0  0999 V2000
  194.9800  174.8210  141.7710 C   0  0  1  0  0  3  0  0  0  0  0  0
  195.8090  173.5680  142.0840 C   0  0  1  0  0  3  0  0  0  0  0  0
  197.6300  174.9680  141.3900 O   0  0  0  0  0  1  0  0  0  0  0  0
  197.2570  173.7010  141.8460 C   0  0  1  0  0  3  0  0  0  0  0  0
  196.7200  173.8140  143.2160 N   0  0  2  0  0  0  0  0  0  0  0  0
  196.8730  172.5300  143.8930 C   0  0  1  0  0  3  0  0  0  0  0  0
  197.2320  172.7110  145.3600 C   0  0  0  0  0  2  0  0  0  0  0  0
  195.8060  172.4130  144.9670 C   0  0  2  0  0  3  0  0  0  0  0  0
  195.5160  170.9410  145.2090 C   0  0  0  0  0  2  0  0  0  0  0  0
  194.0220  170.6820  145.0970 C   0  0  0  0  0  1  0  0  0  0  0  0
  194.2170  174.7550  140.4310 C   0  0  0  0  0  2  0  0  0  0  0  0
  194.4330  173.5630  139.7300 O   0  0  0  0  0  0  0  0  0  0  0  0
  193.9180  175.3530  137.6690 O   0  0  0  0  0  0  0  0  0  0  0  0
  194.8510  174.0260  138.1480 P   0  0  1  0  0  0  0  0  0  0  0  0
  196.3100  174.4280  138.1190 O   0  0  0  0  0  1  0  0  0  0  0  0
  194.5460  172.7110  137.0710 O   0  0  0  0  0  0  0  0  0  0  0  0
  193.9160  173.2810  134.9410 O   0  0  0  0  0  0  0  0  0  0  0  0
  193.6000  172.7560  136.0420 C   0  0  0  0  0  0  0  0  0  0  0  0
  192.2310  172.1640  136.2100 C   0  0  0  0  0  2  0  0  0  0  0  0
  190.7990  174.2240  136.1000 C   0  0  0  0  0  1  0  0  0  0  0  0
  191.2760  173.0820  136.9820 C   0  0  1  0  0  3  0  0  0  0  0  0
  190.0510  172.2740  137.3880 C   0  0  0  0  0  2  0  0  0  0  0  0
  189.5500  172.6130  138.7610 C   0  0  0  0  0  0  0  0  0  0  0  0
  188.3760  172.4530  139.0610 O   0  0  0  0  0  0  0  0  0  0  0  0
  190.6880  173.3420  139.9440 S   0  0  0  0  0  0  0  0  0  0  0  0
  190.7500  171.5470  141.9110 O   0  0  0  0  0  0  0  0  0  0  0  0
  190.9660  170.6790  139.7930 O   0  0  0  0  0  0  0  0  0  0  0  0
  190.9530  169.5940  140.6710 C   0  0  0  0  0  2  0  0  0  0  0  0
  191.2770  171.7590  140.6300 C   0  0  0  0  0  3  0  0  0  0  0  0
  190.7920  170.1630  142.0540 C   0  0  0  0  0  2  0  0  0  0  0  0
  194.0040  175.1080  142.9130 C   0  0  0  0  0  2  0  0  0  0  0  0
  192.7230  176.9680  144.1530 C   0  0  2  0  0  3  0  0  0  0  0  0
  192.1010  176.7260  142.7940 C   0  0  0  0  0  2  0  0  0  0  0  0
  193.5990  176.5790  142.9530 C   0  0  2  0  0  3  0  0  0  0  0  0
  191.6410  175.8400  147.4410 C   0  0  2  0  0  3  0  0  0  0  0  0
  192.7680  176.2570  146.5210 C   0  0  0  0  0  2  0  0  0  0  0  0
  190.5380  174.4280  145.7940 O   0  0  0  0  0  0  0  0  0  0  0  0
  192.3680  175.8390  145.1110 C   0  0  1  0  0  3  0  0  0  0  0  0
  190.4440  175.6260  146.5260 C   0  0  2  0  0  0  0  0  0  0  0  0
  190.8560  175.6270  145.1110 C   0  0  2  0  0  3  0  0  0  0  0  0
  191.4200  177.0820  148.6960 Cl  0  0  0  0  0  0  0  0  0  0  0  0
  188.1920  175.2260  147.2190 O   0  0  0  0  0  0  0  0  0  0  0  0
  189.0310  176.0630  146.7970 C   0  0  0  0  0  0  0  0  0  0  0  0
  188.6310  177.3720  146.5050 O   0  0  0  0  0  0  0  0  0  0  0  0
  186.8280  176.8370  144.9820 C   0  0  1  0  0  3  0  0  0  0  0  0
  188.0320  177.7280  145.2630 C   0  0  1  0  0  3  0  0  0  0  0  0
  186.2320  178.2640  146.7880 O   0  0  0  0  0  1  0  0  0  0  0  0
  186.6100  178.2670  145.4460 C   0  0  2  0  0  3  0  0  0  0  0  0
  186.6310  176.6990  143.5380 N   0  0  0  0  0  0  0  0  0  0  0  0
  188.1030  174.8760  143.3310 O   0  0  0  0  0  0  0  0  0  0  0  0
  186.8330  177.1890  140.8370 N   0  0  0  0  0  2  0  0  0  0  0  0
  185.7020  177.4340  142.8630 O   0  0  0  0  0  0  0  0  0  0  0  0
  186.4140  178.1370  141.8770 C   0  0  0  0  0  2  0  0  0  0  0  0
  187.8190  176.2400  141.3750 C   0  0  0  0  0  2  0  0  0  0  0  0
  187.5100  175.8480  142.7880 C   0  0  0  0  0  0  0  0  0  0  0  0
  1 11  1  6  0  0  0
  1 31  1  0  0  0  0
  2  1  1  6  0  0  0
  2  5  1  0  0  0  0
  4  3  1  6  0  0  0
  4  2  1  0  0  0  0
  4  5  1  0  0  0  0
  5  6  1  1  0  0  0
  6  8  1  0  0  0  0
  6  7  1  1  0  0  0
  8  9  1  1  0  0  0
  8  7  1  0  0  0  0
 10  9  1  0  0  0  0
 12 11  1  0  0  0  0
 14 13  2  6  0  0  0
 14 12  1  0  0  0  0
 15 14  1  0  0  0  0
 16 14  1  0  0  0  0
 17 18  2  0  0  0  0
 18 19  1  0  0  0  0
 18 16  1  0  0  0  0
 19 21  1  0  0  0  0
 21 20  1  6  0  0  0
 21 22  1  0  0  0  0
 22 23  1  0  0  0  0
 23 24  2  0  0  0  0
 23 25  1  0  0  0  0
 25 29  1  0  0  0  0
 26 30  1  0  0  0  0
 27 29  1  0  0  0  0
 27 28  1  0  0  0  0
 28 30  1  0  0  0  0
 29 26  1  0  0  0  0
 32 33  1  6  0  0  0
 32 38  1  0  0  0  0
 33 34  1  0  0  0  0
 34 31  1  1  0  0  0
 34 32  1  0  0  0  0
 35 41  1  1  0  0  0
 36 35  1  0  0  0  0
 37 39  1  0  0  0  0
 38 40  1  0  0  0  0
 38 36  1  1  0  0  0
 39 43  1  1  0  0  0
 39 35  1  0  0  0  0
 40 37  1  1  0  0  0
 40 39  1  0  0  0  0
 43 42  2  0  0  0  0
 44 43  1  0  0  0  0
 45 49  1  6  0  0  0
 45 46  1  0  0  0  0
 45 48  1  0  0  0  0
 46 48  1  0  0  0  0
 46 44  1  1  0  0  0
 48 47  1  1  0  0  0
 51 54  1  0  0  0  0
 51 53  1  0  0  0  0
 52 49  1  0  0  0  0
 53 52  1  0  0  0  0
 54 55  1  0  0  0  0
 55 50  2  0  0  0  0
 55 49  1  0  0  0  0
M  END
>  <MODEL>
8

>  <REMARK>
 VINA RESULT:      -5.8      3.274      9.555
  Name = 
  21 active torsions:
  status: ('A' for Active; 'I' for Inactive)
    1  A    between atoms: C_2  and  C_15
    2  A    between atoms: C_2  and  C_37
    3  A    between atoms: C_4  and  N_6
    4  A    between atoms: O_7  and  C_18
    5  A    between atoms: O_7  and  C_20
    6  A    between atoms: CA_9  and  C_41
    7  A    between atoms: C_11  and  S_17
    8  A    between atoms: C_11  and  C_53
    9  A    between atoms: C_15  and  C_53
   10  A    between atoms: C_16  and  O_39
   11  A    between atoms: C_16  and  C_41
   12  A    between atoms: S_17  and  C_35
   13  A    between atoms: C_20  and  C_36
   14  A    between atoms: C_22  and  C_26
   15  A    between atoms: P_23  and  O_25
   16  A    between atoms: P_23  and  O_39
   17  A    between atoms: O_25  and  C_37
   18  A    between atoms: C_29  and  C_41
   19  A    between atoms: C_29  and  C_45
   20  A    between atoms: C_30  and  N_50
   21  A    between atoms: C_42  and  C_43
                            x       y       z     vdW  Elec       q    Type
                         _______ _______ _______ _____ _____    ______ ____

>  <TORSDO>
F 21

$$$$
=
 OpenBabel11062418353D

 55 62  0  0  1  0  0  0  0  0999 V2000
  188.5190  177.0780  144.9140 C   0  0  1  0  0  3  0  0  0  0  0  0
  187.0180  176.8570  145.1470 C   0  0  1  0  0  3  0  0  0  0  0  0
  187.5030  177.8850  147.2600 O   0  0  0  0  0  1  0  0  0  0  0  0
  186.5170  177.3090  146.4580 C   0  0  1  0  0  3  0  0  0  0  0  0
  186.3110  178.1460  145.2600 N   0  0  2  0  0  0  0  0  0  0  0  0
  184.9670  177.9110  144.7410 C   0  0  1  0  0  3  0  0  0  0  0  0
  184.0300  179.0630  145.0760 C   0  0  0  0  0  2  0  0  0  0  0  0
  184.6510  178.9740  143.7030 C   0  0  2  0  0  3  0  0  0  0  0  0
  183.6300  178.4130  142.7260 C   0  0  0  0  0  2  0  0  0  0  0  0
  184.3260  177.9600  141.4530 C   0  0  0  0  0  1  0  0  0  0  0  0
  189.4320  176.2440  145.8370 C   0  0  0  0  0  2  0  0  0  0  0  0
  190.5770  176.9340  146.2510 O   0  0  0  0  0  0  0  0  0  0  0  0
  191.1970  175.2170  148.3450 O   0  0  0  0  0  1  0  0  0  0  0  0
  191.6580  175.7440  146.8060 P   0  0  1  0  0  0  0  0  0  0  0  0
  191.6220  174.5620  145.8610 O   0  0  0  0  0  0  0  0  0  0  0  0
  193.2460  176.4170  146.8990 O   0  0  0  0  0  0  0  0  0  0  0  0
  194.1070  177.1720  144.9120 O   0  0  0  0  0  0  0  0  0  0  0  0
  194.1800  176.3460  145.8600 C   0  0  0  0  0  0  0  0  0  0  0  0
  195.2850  175.3290  145.8680 C   0  0  0  0  0  2  0  0  0  0  0  0
  195.0660  174.0230  143.7350 C   0  0  0  0  0  1  0  0  0  0  0  0
  194.8700  173.9930  145.2410 C   0  0  1  0  0  3  0  0  0  0  0  0
  195.7670  172.8970  145.8000 C   0  0  0  0  0  2  0  0  0  0  0  0
  195.3110  171.5160  145.4310 C   0  0  0  0  0  0  0  0  0  0  0  0
  194.2390  171.0810  145.8220 O   0  0  0  0  0  0  0  0  0  0  0  0
  196.4080  170.4700  144.4670 S   0  0  0  0  0  0  0  0  0  0  0  0
  196.0830  170.7570  141.8390 O   0  0  0  0  0  0  0  0  0  0  0  0
  194.7470  169.1630  142.8150 O   0  0  0  0  0  0  0  0  0  0  0  0
  194.4860  169.1180  141.4460 C   0  0  0  0  0  2  0  0  0  0  0  0
  195.3500  170.4160  142.9820 C   0  0  0  0  0  3  0  0  0  0  0  0
  195.3760  170.1490  140.8050 C   0  0  0  0  0  2  0  0  0  0  0  0
  188.8710  176.8070  143.4500 C   0  0  0  0  0  2  0  0  0  0  0  0
  188.2310  174.5910  142.3030 C   0  0  2  0  0  3  0  0  0  0  0  0
  188.1630  175.7290  141.3080 C   0  0  0  0  0  2  0  0  0  0  0  0
  187.7880  175.9920  142.7500 C   0  0  2  0  0  3  0  0  0  0  0  0
  190.8820  172.1040  142.5080 C   0  0  2  0  0  3  0  0  0  0  0  0
  189.7170  172.8120  143.1650 C   0  0  0  0  0  2  0  0  0  0  0  0
  191.8620  174.1300  141.5800 O   0  0  0  0  0  0  0  0  0  0  0  0
  189.6800  174.2270  142.5970 C   0  0  1  0  0  3  0  0  0  0  0  0
  191.1980  172.9300  141.2680 C   0  0  2  0  0  0  0  0  0  0  0  0
  190.4780  174.2160  141.2950 C   0  0  2  0  0  3  0  0  0  0  0  0
  190.4360  170.4110  142.1930 Cl  0  0  0  0  0  0  0  0  0  0  0  0
  192.7040  172.4620  139.4730 O   0  0  0  0  0  0  0  0  0  0  0  0
  191.5240  172.3910  139.9030 C   0  0  0  0  0  0  0  0  0  0  0  0
  190.5070  171.8880  139.0840 O   0  0  0  0  0  0  0  0  0  0  0  0
  190.7010  172.3290  136.7120 C   0  0  1  0  0  3  0  0  0  0  0  0
  189.9560  172.6360  138.0050 C   0  0  1  0  0  3  0  0  0  0  0  0
  189.4530  170.3840  137.2770 O   0  0  0  0  0  1  0  0  0  0  0  0
  189.3230  171.7320  136.9430 C   0  0  2  0  0  3  0  0  0  0  0  0
  190.6480  173.4840  135.8140 N   0  0  0  0  0  0  0  0  0  0  0  0
  192.9730  173.8350  135.8400 O   0  0  0  0  0  0  0  0  0  0  0  0
  190.2520  176.0580  134.9260 N   0  0  0  0  0  2  0  0  0  0  0  0
  189.4910  173.8700  135.2030 O   0  0  0  0  0  0  0  0  0  0  0  0
  189.2730  175.1980  135.6040 C   0  0  0  0  0  2  0  0  0  0  0  0
  191.6110  175.7650  135.4040 C   0  0  0  0  0  2  0  0  0  0  0  0
  191.8160  174.3010  135.6530 C   0  0  0  0  0  0  0  0  0  0  0  0
  1 31  1  6  0  0  0
  1 11  1  0  0  0  0
  2  1  1  1  0  0  0
  2  5  1  0  0  0  0
  2  4  1  0  0  0  0
  4  3  1  1  0  0  0
  5  6  1  6  0  0  0
  5  4  1  0  0  0  0
  6  7  1  1  0  0  0
  8  9  1  6  0  0  0
  8  6  1  0  0  0  0
  8  7  1  0  0  0  0
 10  9  1  0  0  0  0
 11 12  1  0  0  0  0
 12 14  1  0  0  0  0
 14 15  2  6  0  0  0
 14 16  1  0  0  0  0
 14 13  1  0  0  0  0
 17 18  2  0  0  0  0
 18 19  1  0  0  0  0
 18 16  1  0  0  0  0
 21 20  1  6  0  0  0
 21 22  1  0  0  0  0
 21 19  1  0  0  0  0
 23 22  1  0  0  0  0
 23 24  2  0  0  0  0
 25 23  1  0  0  0  0
 26 29  1  0  0  0  0
 27 29  1  0  0  0  0
 28 27  1  0  0  0  0
 29 25  1  0  0  0  0
 30 28  1  0  0  0  0
 30 26  1  0  0  0  0
 32 33  1  6  0  0  0
 32 38  1  0  0  0  0
 32 34  1  0  0  0  0
 33 34  1  0  0  0  0
 34 31  1  1  0  0  0
 35 41  1  6  0  0  0
 35 36  1  0  0  0  0
 38 36  1  6  0  0  0
 39 43  1  6  0  0  0
 39 40  1  0  0  0  0
 39 37  1  0  0  0  0
 39 35  1  0  0  0  0
 40 37  1  1  0  0  0
 40 38  1  0  0  0  0
 42 43  2  0  0  0  0
 44 43  1  0  0  0  0
 45 49  1  6  0  0  0
 45 48  1  0  0  0  0
 45 46  1  0  0  0  0
 46 44  1  1  0  0  0
 48 47  1  1  0  0  0
 48 46  1  0  0  0  0
 51 54  1  0  0  0  0
 51 53  1  0  0  0  0
 52 53  1  0  0  0  0
 52 49  1  0  0  0  0
 54 55  1  0  0  0  0
 55 49  1  0  0  0  0
 55 50  2  0  0  0  0
M  END
>  <MODEL>
9

>  <REMARK>
 VINA RESULT:      -5.8      2.198      3.339
  Name = 
  21 active torsions:
  status: ('A' for Active; 'I' for Inactive)
    1  A    between atoms: C_2  and  C_15
    2  A    between atoms: C_2  and  C_37
    3  A    between atoms: C_4  and  N_6
    4  A    between atoms: O_7  and  C_18
    5  A    between atoms: O_7  and  C_20
    6  A    between atoms: CA_9  and  C_41
    7  A    between atoms: C_11  and  S_17
    8  A    between atoms: C_11  and  C_53
    9  A    between atoms: C_15  and  C_53
   10  A    between atoms: C_16  and  O_39
   11  A    between atoms: C_16  and  C_41
   12  A    between atoms: S_17  and  C_35
   13  A    between atoms: C_20  and  C_36
   14  A    between atoms: C_22  and  C_26
   15  A    between atoms: P_23  and  O_25
   16  A    between atoms: P_23  and  O_39
   17  A    between atoms: O_25  and  C_37
   18  A    between atoms: C_29  and  C_41
   19  A    between atoms: C_29  and  C_45
   20  A    between atoms: C_30  and  N_50
   21  A    between atoms: C_42  and  C_43
                            x       y       z     vdW  Elec       q    Type
                         _______ _______ _______ _____ _____    ______ ____

>  <TORSDO>
F 21

$$$$
