=
 OpenBabel11062420013D

 42 46  0  0  1  0  0  0  0  0999 V2000
  191.5410  173.6120  140.2180 C   0  0  0  0  0  0  0  0  0  0  0  0
  189.6680  173.6520  143.4120 C   0  0  0  0  0  2  0  0  0  0  0  0
  191.8990  173.8760  142.6220 N   0  0  1  0  0  0  0  0  0  0  0  0
  190.7730  173.3450  139.1940 N   0  0  0  0  0  0  0  0  0  0  0  0
  188.5730  174.3750  139.8540 C   0  0  0  0  0  3  0  0  0  0  0  0
  189.3020  173.2730  139.1300 C   0  0  0  0  0  2  0  0  0  0  0  0
  193.3260  173.7530  142.4560 C   0  0  1  0  0  3  0  0  0  0  0  0
  191.0320  174.2000  141.5070 C   0  0  2  0  0  3  0  0  0  0  0  0
  189.6740  173.6970  141.8920 C   0  0  2  0  0  3  0  0  0  0  0  0
  192.9580  173.4620  140.0860 N   0  0  0  0  0  0  0  0  0  0  0  0
  191.1350  173.4650  143.7890 C   0  0  0  0  0  2  0  0  0  0  0  0
  188.6580  174.5470  141.1800 C   0  0  0  0  0  0  0  0  0  0  0  0
  193.8220  173.5700  141.2260 C   0  0  0  0  0  3  0  0  0  0  0  0
  188.0770  175.9540  143.1830 C   0  0  0  0  0  3  0  0  0  0  0  0
  187.9490  175.6900  141.8120 C   0  0  0  0  0  0  0  0  0  0  0  0
  186.6200  177.8800  142.9830 C   0  0  0  0  0  0  0  0  0  0  0  0
  187.4170  177.0390  143.7630 C   0  0  0  0  0  3  0  0  0  0  0  0
  186.4910  177.6420  141.6040 C   0  0  0  0  0  0  0  0  0  0  0  0
  187.1590  176.5480  141.0310 C   0  0  0  0  0  3  0  0  0  0  0  0
  184.3960  178.1480  140.3820 C   0  0  0  0  0  1  0  0  0  0  0  0
  185.7000  178.4960  140.8250 O   0  0  0  0  0  0  0  0  0  0  0  0
  185.9340  179.0380  143.6270 C   0  0  0  0  0  2  0  0  0  0  0  0
  184.5260  178.6470  144.0430 C   0  0  0  0  0  2  0  0  0  0  0  0
  184.2770  179.0350  145.4900 C   0  0  0  0  0  2  0  0  0  0  0  0
  187.0400  177.1400  147.1850 O   0  0  0  0  0  1  0  0  0  0  0  0
  185.7360  177.5400  146.8930 C   0  0  0  0  0  0  0  0  0  0  0  0
  185.2130  178.6500  147.7630 C   0  0  0  0  0  2  0  0  0  0  0  0
  185.5610  178.9250  146.2980 C   0  0  2  0  0  3  0  0  0  0  0  0
  184.8090  176.5410  146.5870 O   0  0  0  0  0  1  0  0  0  0  0  0
  194.2560  173.8910  143.5430 N   0  0  0  0  0  2  0  0  0  0  0  0
  194.7240  175.1180  144.1890 C   0  0  1  0  0  3  0  0  0  0  0  0
  194.5410  175.0830  145.7140 C   0  0  1  0  0  3  0  0  0  0  0  0
  195.7390  174.7720  146.3590 O   0  0  0  0  0  1  0  0  0  0  0  0
  192.7220  176.4330  146.9380 N   0  0  0  0  0  2  0  0  0  0  0  0
  194.6560  177.4190  146.1190 O   0  0  0  0  0  0  0  0  0  0  0  0
  193.9840  176.3650  146.2610 C   0  0  0  0  0  0  0  0  0  0  0  0
  191.8260  175.3000  147.1290 C   0  0  0  0  0  2  0  0  0  0  0  0
  190.4430  175.6450  146.6910 C   0  0  0  0  0  0  0  0  0  0  0  0
  190.1920  176.8780  146.1040 O   0  0  0  0  0  0  0  0  0  0  0  0
  189.5100  174.8110  146.8210 O   0  0  0  0  0  1  0  0  0  0  0  0
  196.2270  176.7430  143.2790 O   0  0  0  0  0  1  0  0  0  0  0  0
  196.1500  175.4350  143.7600 C   0  0  0  0  0  2  0  0  0  0  0  0
  2 11  1  0  0  0  0
  3 11  1  6  0  0  0
  4  1  2  0  0  0  0
  5 12  2  0  0  0  0
  6  4  1  0  0  0  0
  6  5  1  0  0  0  0
  7  3  1  0  0  0  0
  7 30  1  6  0  0  0
  8  1  1  6  0  0  0
  8  9  1  0  0  0  0
  8  3  1  0  0  0  0
  9  2  1  1  0  0  0
 10  1  1  0  0  0  0
 10 13  2  0  0  0  0
 12 15  1  0  0  0  0
 12  9  1  0  0  0  0
 13  7  1  0  0  0  0
 14 17  1  0  0  0  0
 15 14  2  0  0  0  0
 16 22  1  0  0  0  0
 16 17  2  0  0  0  0
 18 16  1  0  0  0  0
 19 18  2  0  0  0  0
 19 15  1  0  0  0  0
 20 21  1  0  0  0  0
 21 18  1  0  0  0  0
 22 23  1  0  0  0  0
 23 24  1  0  0  0  0
 26 25  1  0  0  0  0
 26 27  1  0  0  0  0
 28 24  1  6  0  0  0
 28 26  1  0  0  0  0
 28 27  1  0  0  0  0
 29 26  1  0  0  0  0
 30 31  1  0  0  0  0
 31 42  1  1  0  0  0
 31 32  1  0  0  0  0
 32 36  1  0  0  0  0
 32 33  1  1  0  0  0
 34 37  1  0  0  0  0
 35 36  2  0  0  0  0
 36 34  1  0  0  0  0
 38 40  1  0  0  0  0
 38 37  1  0  0  0  0
 39 38  2  0  0  0  0
 41 42  1  0  0  0  0
M  END
>  <MODEL>
1

>  <REMARK>
 VINA RESULT:      -7.4      0.000      0.000
  Name = 
  13 active torsions:
  status: ('A' for Active; 'I' for Inactive)
    1  A    between atoms: N_3  and  C_7
    2  A    between atoms: C_4  and  C_19
    3  A    between atoms: C_4  and  C_33
    4  A    between atoms: C_7  and  C_11
    5  A    between atoms: CA_12  and  C_15
    6  A    between atoms: CA_12  and  C_20
    7  A    between atoms: CA_12  and  N_22
    8  A    between atoms: C_15  and  C_31
    9  A    between atoms: C_16  and  N_22
   10  A    between atoms: C_17  and  C_39
   11  A    between atoms: C_27  and  O_38
   12  A    between atoms: C_28  and  C_33
   13  A    between atoms: C_28  and  C_36
                            x       y       z     vdW  Elec       q    Type
                         _______ _______ _______ _____ _____    ______ ____

>  <TORSDO>
F 13

$$$$
=
 OpenBabel11062420013D

 42 46  0  0  1  0  0  0  0  0999 V2000
  191.5490  173.5260  140.3550 C   0  0  0  0  0  0  0  0  0  0  0  0
  189.5150  173.5570  143.4490 C   0  0  0  0  0  2  0  0  0  0  0  0
  191.7850  173.7620  142.7770 N   0  0  0  0  0  0  0  0  0  0  0  0
  190.8320  173.2780  139.2900 N   0  0  0  0  0  0  0  0  0  0  0  0
  188.6120  174.3270  139.8470 C   0  0  0  0  0  3  0  0  0  0  0  0
  189.3660  173.2240  139.1500 C   0  0  0  0  0  2  0  0  0  0  0  0
  193.2180  173.6240  142.6840 C   0  0  0  0  0  0  0  0  0  0  0  0
  190.9810  174.1070  141.6220 C   0  0  2  0  0  3  0  0  0  0  0  0
  189.5990  173.6170  141.9320 C   0  0  2  0  0  3  0  0  0  0  0  0
  192.9690  173.3600  140.2950 N   0  0  0  0  0  0  0  0  0  0  0  0
  190.9580  173.3490  143.8990 C   0  0  0  0  0  2  0  0  0  0  0  0
  188.6320  174.4860  141.1770 C   0  0  0  0  0  0  0  0  0  0  0  0
  193.7740  173.4470  141.4790 C   0  0  0  0  0  3  0  0  0  0  0  0
  187.9720  175.8870  143.1600 C   0  0  0  0  0  3  0  0  0  0  0  0
  187.9040  175.6300  141.7840 C   0  0  0  0  0  0  0  0  0  0  0  0
  186.5410  177.8250  142.9070 C   0  0  0  0  0  0  0  0  0  0  0  0
  187.2960  176.9740  143.7170 C   0  0  0  0  0  3  0  0  0  0  0  0
  186.4710  177.5960  141.5220 C   0  0  0  0  0  0  0  0  0  0  0  0
  187.1560  176.4990  140.9730 C   0  0  0  0  0  3  0  0  0  0  0  0
  184.3690  178.2090  140.3640 C   0  0  0  0  0  1  0  0  0  0  0  0
  185.7230  178.4600  140.7140 O   0  0  0  0  0  0  0  0  0  0  0  0
  185.8360  178.9850  143.5260 C   0  0  0  0  0  2  0  0  0  0  0  0
  184.4810  178.5500  144.0610 C   0  0  0  0  0  2  0  0  0  0  0  0
  184.3740  178.8630  145.5430 C   0  0  0  0  0  2  0  0  0  0  0  0
  187.6280  177.8040  147.0900 O   0  0  0  0  0  1  0  0  0  0  0  0
  186.2470  177.9380  146.9460 C   0  0  0  0  0  0  0  0  0  0  0  0
  185.6550  179.1220  147.6610 C   0  0  0  0  0  2  0  0  0  0  0  0
  185.7530  179.1190  146.1330 C   0  0  2  0  0  3  0  0  0  0  0  0
  185.4780  176.7720  146.9960 O   0  0  0  0  0  1  0  0  0  0  0  0
  194.0920  173.7400  143.8190 N   0  0  0  0  0  0  0  0  0  0  0  0
  195.5490  173.6090  143.8620 C   0  0  1  0  0  3  0  0  0  0  0  0
  196.2180  174.7620  144.6250 C   0  0  1  0  0  3  0  0  0  0  0  0
  197.6020  174.7470  144.4490 O   0  0  0  0  0  1  0  0  0  0  0  0
  194.7910  176.8530  145.0930 N   0  0  0  0  0  2  0  0  0  0  0  0
  195.9980  176.5930  143.1290 O   0  0  0  0  0  0  0  0  0  0  0  0
  195.6690  176.1060  144.2410 C   0  0  0  0  0  0  0  0  0  0  0  0
  194.2960  176.3860  146.3820 C   0  0  0  0  0  2  0  0  0  0  0  0
  192.8660  175.9790  146.2790 C   0  0  0  0  0  0  0  0  0  0  0  0
  192.0850  176.4560  145.2340 O   0  0  0  0  0  0  0  0  0  0  0  0
  192.3720  175.1790  147.1160 O   0  0  0  0  0  1  0  0  0  0  0  0
  195.8070  172.1830  145.7670 O   0  0  0  0  0  1  0  0  0  0  0  0
  195.9450  172.2320  144.3790 C   0  0  0  0  0  2  0  0  0  0  0  0
  2 11  1  0  0  0  0
  3 11  1  0  0  0  0
  4  1  2  0  0  0  0
  5 12  2  0  0  0  0
  6  4  1  0  0  0  0
  6  5  1  0  0  0  0
  7  3  1  0  0  0  0
  7 30  2  0  0  0  0
  8  1  1  6  0  0  0
  8  9  1  0  0  0  0
  8  3  1  0  0  0  0
  9  2  1  1  0  0  0
 10  1  1  0  0  0  0
 10 13  2  0  0  0  0
 12 15  1  0  0  0  0
 12  9  1  0  0  0  0
 13  7  1  0  0  0  0
 14 17  1  0  0  0  0
 15 14  2  0  0  0  0
 16 22  1  0  0  0  0
 16 17  2  0  0  0  0
 18 16  1  0  0  0  0
 19 18  2  0  0  0  0
 19 15  1  0  0  0  0
 20 21  1  0  0  0  0
 21 18  1  0  0  0  0
 22 23  1  0  0  0  0
 23 24  1  0  0  0  0
 26 29  1  0  0  0  0
 26 25  1  0  0  0  0
 26 27  1  0  0  0  0
 28 24  1  6  0  0  0
 28 26  1  0  0  0  0
 28 27  1  0  0  0  0
 30 31  1  0  0  0  0
 31 42  1  1  0  0  0
 31 32  1  0  0  0  0
 32 33  1  6  0  0  0
 34 37  1  0  0  0  0
 35 36  2  0  0  0  0
 36 32  1  0  0  0  0
 36 34  1  0  0  0  0
 38 37  1  0  0  0  0
 38 40  1  0  0  0  0
 39 38  2  0  0  0  0
 42 41  1  0  0  0  0
M  END
>  <MODEL>
2

>  <REMARK>
 VINA RESULT:      -7.2      1.142      1.607
  Name = 
  13 active torsions:
  status: ('A' for Active; 'I' for Inactive)
    1  A    between atoms: N_3  and  C_7
    2  A    between atoms: C_4  and  C_19
    3  A    between atoms: C_4  and  C_33
    4  A    between atoms: C_7  and  C_11
    5  A    between atoms: CA_12  and  C_15
    6  A    between atoms: CA_12  and  C_20
    7  A    between atoms: CA_12  and  N_22
    8  A    between atoms: C_15  and  C_31
    9  A    between atoms: C_16  and  N_22
   10  A    between atoms: C_17  and  C_39
   11  A    between atoms: C_27  and  O_38
   12  A    between atoms: C_28  and  C_33
   13  A    between atoms: C_28  and  C_36
                            x       y       z     vdW  Elec       q    Type
                         _______ _______ _______ _____ _____    ______ ____

>  <TORSDO>
F 13

$$$$
=
 OpenBabel11062420013D

 42 46  0  0  1  0  0  0  0  0999 V2000
  191.5700  172.1570  140.6770 C   0  0  0  0  0  0  0  0  0  0  0  0
  189.7210  172.7360  143.8330 C   0  0  0  0  0  2  0  0  0  0  0  0
  191.9590  172.5150  143.0640 N   0  0  1  0  0  0  0  0  0  0  0  0
  190.7710  171.9590  139.6610 N   0  0  0  0  0  0  0  0  0  0  0  0
  188.7820  173.3990  140.2180 C   0  0  0  0  0  3  0  0  0  0  0  0
  189.3110  172.1400  139.5790 C   0  0  0  0  0  2  0  0  0  0  0  0
  193.3440  172.1340  142.9280 C   0  0  1  0  0  3  0  0  0  0  0  0
  191.1670  172.9100  141.9170 C   0  0  2  0  0  3  0  0  0  0  0  0
  189.7400  172.6770  142.3130 C   0  0  2  0  0  3  0  0  0  0  0  0
  192.9390  171.7540  140.5770 N   0  0  0  0  0  0  0  0  0  0  0  0
  191.1310  172.3220  144.2440 C   0  0  0  0  0  2  0  0  0  0  0  0
  188.8920  173.6420  141.5310 C   0  0  0  0  0  0  0  0  0  0  0  0
  193.8050  171.7860  141.7210 C   0  0  0  0  0  3  0  0  0  0  0  0
  187.0490  175.0870  142.4500 C   0  0  0  0  0  3  0  0  0  0  0  0
  188.3910  174.9300  142.0770 C   0  0  0  0  0  0  0  0  0  0  0  0
  187.4710  177.3720  143.1380 C   0  0  0  0  0  0  0  0  0  0  0  0
  186.5930  176.2980  142.9750 C   0  0  0  0  0  3  0  0  0  0  0  0
  188.8230  177.2310  142.7840 C   0  0  0  0  0  0  0  0  0  0  0  0
  189.2710  176.0090  142.2570 C   0  0  0  0  0  3  0  0  0  0  0  0
  191.0440  178.1430  143.3960 C   0  0  0  0  0  1  0  0  0  0  0  0
  189.7020  178.3080  142.9610 O   0  0  0  0  0  0  0  0  0  0  0  0
  186.9590  178.6520  143.7100 C   0  0  0  0  0  2  0  0  0  0  0  0
  185.4460  178.7160  143.5780 C   0  0  0  0  0  2  0  0  0  0  0  0
  184.8060  178.9080  144.9420 C   0  0  0  0  0  2  0  0  0  0  0  0
  187.0310  177.0760  147.3490 O   0  0  0  0  0  1  0  0  0  0  0  0
  185.8470  177.4780  146.7310 C   0  0  0  0  0  0  0  0  0  0  0  0
  185.1620  178.6450  147.3900 C   0  0  0  0  0  2  0  0  0  0  0  0
  185.8570  178.8270  146.0390 C   0  0  2  0  0  3  0  0  0  0  0  0
  184.9910  176.4760  146.2670 O   0  0  0  0  0  1  0  0  0  0  0  0
  194.2800  172.1810  144.0190 N   0  0  0  0  0  2  0  0  0  0  0  0
  195.1960  173.2610  144.3850 C   0  0  1  0  0  3  0  0  0  0  0  0
  194.6010  174.1990  145.4460 C   0  0  1  0  0  3  0  0  0  0  0  0
  195.6040  174.8860  146.1310 O   0  0  0  0  0  1  0  0  0  0  0  0
  192.4830  175.6540  145.6060 N   0  0  0  0  0  2  0  0  0  0  0  0
  193.7970  175.5870  143.6950 O   0  0  0  0  0  0  0  0  0  0  0  0
  193.6160  175.1750  144.8700 C   0  0  0  0  0  0  0  0  0  0  0  0
  192.1330  175.2240  146.9530 C   0  0  0  0  0  2  0  0  0  0  0  0
  190.7400  175.6360  147.2890 C   0  0  0  0  0  0  0  0  0  0  0  0
  189.7090  174.7090  147.2220 O   0  0  0  0  0  0  0  0  0  0  0  0
  190.5000  176.8130  147.6660 O   0  0  0  0  0  1  0  0  0  0  0  0
  196.6290  171.3440  144.4370 O   0  0  0  0  0  1  0  0  0  0  0  0
  196.5570  172.6970  144.7720 C   0  0  0  0  0  2  0  0  0  0  0  0
  2 11  1  0  0  0  0
  3 11  1  6  0  0  0
  4  1  2  0  0  0  0
  5 12  2  0  0  0  0
  6  4  1  0  0  0  0
  6  5  1  0  0  0  0
  7  3  1  0  0  0  0
  7 30  1  6  0  0  0
  8  1  1  6  0  0  0
  8  9  1  0  0  0  0
  8  3  1  0  0  0  0
  9  2  1  1  0  0  0
 10  1  1  0  0  0  0
 10 13  2  0  0  0  0
 12 15  1  0  0  0  0
 12  9  1  0  0  0  0
 13  7  1  0  0  0  0
 14 17  1  0  0  0  0
 15 19  1  0  0  0  0
 15 14  2  0  0  0  0
 16 22  1  0  0  0  0
 17 16  2  0  0  0  0
 18 21  1  0  0  0  0
 18 16  1  0  0  0  0
 19 18  2  0  0  0  0
 21 20  1  0  0  0  0
 23 22  1  0  0  0  0
 23 24  1  0  0  0  0
 26 25  1  0  0  0  0
 26 27  1  0  0  0  0
 28 24  1  6  0  0  0
 28 26  1  0  0  0  0
 28 27  1  0  0  0  0
 29 26  1  0  0  0  0
 30 31  1  0  0  0  0
 31 42  1  1  0  0  0
 31 32  1  0  0  0  0
 32 33  1  6  0  0  0
 34 37  1  0  0  0  0
 35 36  2  0  0  0  0
 36 32  1  0  0  0  0
 36 34  1  0  0  0  0
 37 38  1  0  0  0  0
 38 40  1  0  0  0  0
 39 38  2  0  0  0  0
 41 42  1  0  0  0  0
M  END
>  <MODEL>
3

>  <REMARK>
 VINA RESULT:      -7.2      1.619      2.167
  Name = 
  13 active torsions:
  status: ('A' for Active; 'I' for Inactive)
    1  A    between atoms: N_3  and  C_7
    2  A    between atoms: C_4  and  C_19
    3  A    between atoms: C_4  and  C_33
    4  A    between atoms: C_7  and  C_11
    5  A    between atoms: CA_12  and  C_15
    6  A    between atoms: CA_12  and  C_20
    7  A    between atoms: CA_12  and  N_22
    8  A    between atoms: C_15  and  C_31
    9  A    between atoms: C_16  and  N_22
   10  A    between atoms: C_17  and  C_39
   11  A    between atoms: C_27  and  O_38
   12  A    between atoms: C_28  and  C_33
   13  A    between atoms: C_28  and  C_36
                            x       y       z     vdW  Elec       q    Type
                         _______ _______ _______ _____ _____    ______ ____

>  <TORSDO>
F 13

$$$$
=
 OpenBabel11062420013D

 42 46  0  0  1  0  0  0  0  0999 V2000
  194.7710  173.9610  144.4620 C   0  0  0  0  0  0  0  0  0  0  0  0
  192.2570  176.0890  142.7710 C   0  0  0  0  0  2  0  0  0  0  0  0
  193.3160  173.9790  142.4980 N   0  0  0  0  0  0  0  0  0  0  0  0
  195.2940  174.5440  145.5090 N   0  0  0  0  0  0  0  0  0  0  0  0
  193.3900  175.9390  146.3870 C   0  0  0  0  0  3  0  0  0  0  0  0
  194.8760  175.7850  146.1860 C   0  0  0  0  0  2  0  0  0  0  0  0
  193.9960  172.8330  141.9440 C   0  0  0  0  0  0  0  0  0  0  0  0
  193.4180  174.3120  143.9040 C   0  0  2  0  0  3  0  0  0  0  0  0
  193.1010  175.7730  143.9970 C   0  0  2  0  0  3  0  0  0  0  0  0
  195.4480  172.8460  143.8740 N   0  0  0  0  0  2  0  0  0  0  0  0
  192.6850  175.0480  141.7410 C   0  0  0  0  0  2  0  0  0  0  0  0
  192.5290  176.0260  145.3650 C   0  0  0  0  0  0  0  0  0  0  0  0
  195.0100  172.2890  142.6260 C   0  0  0  0  0  3  0  0  0  0  0  0
  190.4840  175.3930  146.6870 C   0  0  0  0  0  3  0  0  0  0  0  0
  191.0730  176.1250  145.6460 C   0  0  0  0  0  0  0  0  0  0  0  0
  188.3170  176.3510  146.1810 C   0  0  0  0  0  0  0  0  0  0  0  0
  189.1180  175.5040  146.9510 C   0  0  0  0  0  3  0  0  0  0  0  0
  188.8900  177.1050  145.1430 C   0  0  0  0  0  0  0  0  0  0  0  0
  190.2650  176.9850  144.8860 C   0  0  0  0  0  3  0  0  0  0  0  0
  188.1250  177.9990  142.9620 C   0  0  0  0  0  1  0  0  0  0  0  0
  188.0840  177.9620  144.3820 O   0  0  0  0  0  0  0  0  0  0  0  0
  186.8620  176.4590  146.4910 C   0  0  0  0  0  2  0  0  0  0  0  0
  186.6170  177.5980  147.4660 C   0  0  0  0  0  2  0  0  0  0  0  0
  185.7360  178.6580  146.8280 C   0  0  0  0  0  2  0  0  0  0  0  0
  184.3800  178.1980  143.3570 O   0  0  0  0  0  1  0  0  0  0  0  0
  184.7300  178.8640  144.5310 C   0  0  0  0  0  0  0  0  0  0  0  0
  183.6240  178.9630  145.5470 C   0  0  0  0  0  2  0  0  0  0  0  0
  184.8120  178.0300  145.7950 C   0  0  2  0  0  3  0  0  0  0  0  0
  185.5260  180.0060  144.4110 O   0  0  0  0  0  1  0  0  0  0  0  0
  193.5890  172.1970  140.7210 N   0  0  0  0  0  2  0  0  0  0  0  0
  192.8540  170.9430  140.5490 C   0  0  1  0  0  3  0  0  0  0  0  0
  191.3820  171.1740  140.1750 C   0  0  1  0  0  3  0  0  0  0  0  0
  190.9250  170.1910  139.2960 O   0  0  0  0  0  1  0  0  0  0  0  0
  189.5620  172.3200  141.5900 N   0  0  0  0  0  2  0  0  0  0  0  0
  190.5440  170.3160  142.2240 O   0  0  0  0  0  0  0  0  0  0  0  0
  190.4840  171.2430  141.3760 C   0  0  0  0  0  0  0  0  0  0  0  0
  189.4250  173.4750  140.7130 C   0  0  0  0  0  2  0  0  0  0  0  0
  188.6130  174.5390  141.3700 C   0  0  0  0  0  0  0  0  0  0  0  0
  188.4280  174.5160  142.7460 O   0  0  0  0  0  1  0  0  0  0  0  0
  188.1230  175.4760  140.6870 O   0  0  0  0  0  0  0  0  0  0  0  0
  194.2880  170.7810  138.6390 O   0  0  0  0  0  1  0  0  0  0  0  0
  193.5870  170.0250  139.5790 C   0  0  0  0  0  2  0  0  0  0  0  0
  1  4  2  0  0  0  0
  3  8  1  0  0  0  0
  4  6  1  0  0  0  0
  6  5  1  0  0  0  0
  7  3  1  0  0  0  0
  7 13  2  0  0  0  0
  8  9  1  0  0  0  0
  8  1  1  6  0  0  0
  9  2  1  6  0  0  0
  9 12  1  0  0  0  0
 10  1  1  0  0  0  0
 11  3  1  0  0  0  0
 11  2  1  0  0  0  0
 12 15  1  0  0  0  0
 12  5  2  0  0  0  0
 13 10  1  0  0  0  0
 14 17  1  0  0  0  0
 15 14  2  0  0  0  0
 16 22  1  0  0  0  0
 16 17  2  0  0  0  0
 18 16  1  0  0  0  0
 19 18  2  0  0  0  0
 19 15  1  0  0  0  0
 20 21  1  0  0  0  0
 21 18  1  0  0  0  0
 22 23  1  0  0  0  0
 24 23  1  0  0  0  0
 25 26  1  0  0  0  0
 26 27  1  0  0  0  0
 26 28  1  0  0  0  0
 27 28  1  0  0  0  0
 28 24  1  1  0  0  0
 29 26  1  0  0  0  0
 30  7  1  0  0  0  0
 31 42  1  6  0  0  0
 31 30  1  0  0  0  0
 32 33  1  6  0  0  0
 32 31  1  0  0  0  0
 32 36  1  0  0  0  0
 36 34  1  0  0  0  0
 36 35  2  0  0  0  0
 37 38  1  0  0  0  0
 37 34  1  0  0  0  0
 38 39  1  0  0  0  0
 40 38  2  0  0  0  0
 41 42  1  0  0  0  0
M  END
>  <MODEL>
4

>  <REMARK>
 VINA RESULT:      -7.0      2.927      5.495
  Name = 
  13 active torsions:
  status: ('A' for Active; 'I' for Inactive)
    1  A    between atoms: N_3  and  C_7
    2  A    between atoms: C_4  and  C_19
    3  A    between atoms: C_4  and  C_33
    4  A    between atoms: C_7  and  C_11
    5  A    between atoms: CA_12  and  C_15
    6  A    between atoms: CA_12  and  C_20
    7  A    between atoms: CA_12  and  N_22
    8  A    between atoms: C_15  and  C_31
    9  A    between atoms: C_16  and  N_22
   10  A    between atoms: C_17  and  C_39
   11  A    between atoms: C_27  and  O_38
   12  A    between atoms: C_28  and  C_33
   13  A    between atoms: C_28  and  C_36
                            x       y       z     vdW  Elec       q    Type
                         _______ _______ _______ _____ _____    ______ ____

>  <TORSDO>
F 13

$$$$
=
 OpenBabel11062420013D

 42 46  0  0  1  0  0  0  0  0999 V2000
  191.4380  173.2220  139.8150 C   0  0  0  0  0  0  0  0  0  0  0  0
  190.5250  173.8950  143.3400 C   0  0  0  0  0  2  0  0  0  0  0  0
  192.3860  174.1260  141.8790 N   0  0  1  0  0  0  0  0  0  0  0  0
  190.4780  172.6280  139.1560 N   0  0  0  0  0  0  0  0  0  0  0  0
  188.3980  173.5720  140.2160 C   0  0  0  0  0  3  0  0  0  0  0  0
  189.0790  172.3980  139.5600 C   0  0  0  0  0  2  0  0  0  0  0  0
  193.7150  174.1050  141.3170 C   0  0  1  0  0  3  0  0  0  0  0  0
  191.2080  174.0680  141.0380 C   0  0  2  0  0  3  0  0  0  0  0  0
  190.1100  173.5500  141.9180 C   0  0  2  0  0  3  0  0  0  0  0  0
  192.7710  173.1820  139.2940 N   0  0  0  0  0  0  0  0  0  0  0  0
  192.0490  173.9550  143.2830 C   0  0  0  0  0  2  0  0  0  0  0  0
  188.8110  174.0860  141.3820 C   0  0  0  0  0  0  0  0  0  0  0  0
  193.8810  173.6620  140.0650 C   0  0  0  0  0  3  0  0  0  0  0  0
  188.0990  175.5280  143.3170 C   0  0  0  0  0  3  0  0  0  0  0  0
  188.1180  175.2770  141.9380 C   0  0  0  0  0  0  0  0  0  0  0  0
  186.8260  177.5600  142.9650 C   0  0  0  0  0  0  0  0  0  0  0  0
  187.4570  176.6590  143.8260 C   0  0  0  0  0  3  0  0  0  0  0  0
  186.8460  177.3360  141.5780 C   0  0  0  0  0  0  0  0  0  0  0  0
  187.4950  176.1950  141.0770 C   0  0  0  0  0  3  0  0  0  0  0  0
  184.9170  178.0450  140.1960 C   0  0  0  0  0  1  0  0  0  0  0  0
  186.2220  178.2490  140.7200 O   0  0  0  0  0  0  0  0  0  0  0  0
  186.1560  178.7650  143.5350 C   0  0  0  0  0  2  0  0  0  0  0  0
  184.7170  178.4400  143.9020 C   0  0  0  0  0  2  0  0  0  0  0  0
  184.4560  178.7730  145.3600 C   0  0  0  0  0  2  0  0  0  0  0  0
  187.5710  177.8090  147.2220 O   0  0  0  0  0  1  0  0  0  0  0  0
  186.2080  177.9040  146.9430 C   0  0  0  0  0  0  0  0  0  0  0  0
  185.5170  179.0740  147.5910 C   0  0  0  0  0  2  0  0  0  0  0  0
  185.7630  179.0690  146.0800 C   0  0  2  0  0  3  0  0  0  0  0  0
  185.4700  176.7180  146.9250 O   0  0  0  0  0  1  0  0  0  0  0  0
  194.8680  174.6060  142.0130 N   0  0  0  0  0  2  0  0  0  0  0  0
  195.1770  175.9880  142.3820 C   0  0  1  0  0  3  0  0  0  0  0  0
  196.0350  176.0760  143.6530 C   0  0  1  0  0  3  0  0  0  0  0  0
  196.8450  177.2130  143.6370 O   0  0  0  0  0  1  0  0  0  0  0  0
  195.4110  175.0790  145.9430 N   0  0  0  0  0  2  0  0  0  0  0  0
  194.3190  176.9240  145.0580 O   0  0  0  0  0  0  0  0  0  0  0  0
  195.2130  176.0520  144.9100 C   0  0  0  0  0  0  0  0  0  0  0  0
  196.3780  173.9910  145.8780 C   0  0  0  0  0  2  0  0  0  0  0  0
  195.6990  172.7050  145.5450 C   0  0  0  0  0  0  0  0  0  0  0  0
  194.3250  172.5880  145.7060 O   0  0  0  0  0  1  0  0  0  0  0  0
  196.3620  171.7380  145.0870 O   0  0  0  0  0  0  0  0  0  0  0  0
  196.7160  175.9330  140.5500 O   0  0  0  0  0  1  0  0  0  0  0  0
  195.7750  176.7350  141.1970 C   0  0  0  0  0  2  0  0  0  0  0  0
  3 11  1  1  0  0  0
  4  6  1  0  0  0  0
  4  1  2  0  0  0  0
  5 12  2  0  0  0  0
  6  5  1  0  0  0  0
  7  3  1  0  0  0  0
  7 30  1  6  0  0  0
  8  1  1  6  0  0  0
  8  3  1  0  0  0  0
  8  9  1  0  0  0  0
  9  2  1  1  0  0  0
 10  1  1  0  0  0  0
 10 13  2  0  0  0  0
 11  2  1  0  0  0  0
 12  9  1  0  0  0  0
 12 15  1  0  0  0  0
 13  7  1  0  0  0  0
 14 17  1  0  0  0  0
 15 14  2  0  0  0  0
 16 22  1  0  0  0  0
 16 17  2  0  0  0  0
 18 16  1  0  0  0  0
 19 18  2  0  0  0  0
 19 15  1  0  0  0  0
 20 21  1  0  0  0  0
 21 18  1  0  0  0  0
 22 23  1  0  0  0  0
 23 24  1  0  0  0  0
 26 25  1  0  0  0  0
 26 27  1  0  0  0  0
 28 24  1  6  0  0  0
 28 26  1  0  0  0  0
 28 27  1  0  0  0  0
 29 26  1  0  0  0  0
 30 31  1  0  0  0  0
 31 42  1  6  0  0  0
 31 32  1  0  0  0  0
 32 33  1  6  0  0  0
 32 36  1  0  0  0  0
 36 35  2  0  0  0  0
 36 34  1  0  0  0  0
 37 34  1  0  0  0  0
 38 39  1  0  0  0  0
 38 37  1  0  0  0  0
 40 38  2  0  0  0  0
 41 42  1  0  0  0  0
M  END
>  <MODEL>
5

>  <REMARK>
 VINA RESULT:      -6.9      1.511      2.352
  Name = 
  13 active torsions:
  status: ('A' for Active; 'I' for Inactive)
    1  A    between atoms: N_3  and  C_7
    2  A    between atoms: C_4  and  C_19
    3  A    between atoms: C_4  and  C_33
    4  A    between atoms: C_7  and  C_11
    5  A    between atoms: CA_12  and  C_15
    6  A    between atoms: CA_12  and  C_20
    7  A    between atoms: CA_12  and  N_22
    8  A    between atoms: C_15  and  C_31
    9  A    between atoms: C_16  and  N_22
   10  A    between atoms: C_17  and  C_39
   11  A    between atoms: C_27  and  O_38
   12  A    between atoms: C_28  and  C_33
   13  A    between atoms: C_28  and  C_36
                            x       y       z     vdW  Elec       q    Type
                         _______ _______ _______ _____ _____    ______ ____

>  <TORSDO>
F 13

$$$$
=
 OpenBabel11062420013D

 42 46  0  0  1  0  0  0  0  0999 V2000
  191.3730  176.8470  143.5240 C   0  0  0  0  0  0  0  0  0  0  0  0
  190.3580  173.3230  144.0350 C   0  0  0  0  0  2  0  0  0  0  0  0
  189.4940  175.5160  144.3440 N   0  0  0  0  0  0  0  0  0  0  0  0
  192.6000  176.9540  143.0850 N   0  0  0  0  0  0  0  0  0  0  0  0
  192.8750  174.8900  141.6690 C   0  0  0  0  0  3  0  0  0  0  0  0
  193.5060  175.8990  142.5940 C   0  0  0  0  0  2  0  0  0  0  0  0
  188.8630  176.6880  144.8980 C   0  0  0  0  0  0  0  0  0  0  0  0
  190.5250  175.6190  143.3310 C   0  0  2  0  0  3  0  0  0  0  0  0
  191.3050  174.3420  143.4190 C   0  0  2  0  0  3  0  0  0  0  0  0
  190.7400  177.9890  144.1100 N   0  0  0  0  0  0  0  0  0  0  0  0
  189.3910  174.1620  144.8650 C   0  0  0  0  0  2  0  0  0  0  0  0
  191.8870  174.0730  142.0590 C   0  0  0  0  0  0  0  0  0  0  0  0
  189.4670  177.8740  144.7630 C   0  0  0  0  0  3  0  0  0  0  0  0
  191.8740  171.9030  140.7850 C   0  0  0  0  0  3  0  0  0  0  0  0
  191.2820  173.1410  141.0720 C   0  0  0  0  0  0  0  0  0  0  0  0
  190.1000  171.3770  139.2210 C   0  0  0  0  0  0  0  0  0  0  0  0
  191.2890  171.0300  139.8670 C   0  0  0  0  0  3  0  0  0  0  0  0
  189.4810  172.6060  139.5050 C   0  0  0  0  0  0  0  0  0  0  0  0
  190.0790  173.4770  140.4300 C   0  0  0  0  0  3  0  0  0  0  0  0
  188.1920  173.9830  137.8990 C   0  0  0  0  0  1  0  0  0  0  0  0
  188.2830  172.9440  138.8640 O   0  0  0  0  0  0  0  0  0  0  0  0
  189.4910  170.4210  138.2510 C   0  0  0  0  0  2  0  0  0  0  0  0
  190.4730  170.1120  137.1330 C   0  0  0  0  0  2  0  0  0  0  0  0
  190.6860  171.3400  136.2650 C   0  0  0  0  0  2  0  0  0  0  0  0
  193.9160  173.1490  136.8930 O   0  0  0  0  0  1  0  0  0  0  0  0
  192.5800  172.9750  136.5330 C   0  0  0  0  0  0  0  0  0  0  0  0
  192.3540  172.7420  135.0630 C   0  0  0  0  0  2  0  0  0  0  0  0
  192.1720  171.5930  136.0580 C   0  0  2  0  0  3  0  0  0  0  0  0
  191.6330  173.7930  137.1540 O   0  0  0  0  0  1  0  0  0  0  0  0
  187.5720  176.6590  145.5300 N   0  0  0  0  0  0  0  0  0  0  0  0
  186.6880  177.7820  145.8450 C   0  0  1  0  0  3  0  0  0  0  0  0
  185.4900  177.8710  144.8870 C   0  0  1  0  0  3  0  0  0  0  0  0
  184.2970  178.0510  145.5880 O   0  0  0  0  0  1  0  0  0  0  0  0
  185.8880  178.6760  142.4750 N   0  0  0  0  0  2  0  0  0  0  0  0
  185.5660  180.1520  144.2350 O   0  0  0  0  0  0  0  0  0  0  0  0
  185.6490  178.9540  143.8600 C   0  0  0  0  0  0  0  0  0  0  0  0
  186.0500  177.3390  141.9170 C   0  0  0  0  0  2  0  0  0  0  0  0
  187.4540  177.1280  141.4620 C   0  0  0  0  0  0  0  0  0  0  0  0
  187.8180  175.9210  140.8800 O   0  0  0  0  0  0  0  0  0  0  0  0
  188.3030  178.0520  141.5730 O   0  0  0  0  0  1  0  0  0  0  0  0
  187.0380  178.6700  148.0400 O   0  0  0  0  0  1  0  0  0  0  0  0
  186.2850  177.7460  147.3130 C   0  0  0  0  0  2  0  0  0  0  0  0
  1 10  1  0  0  0  0
  2 11  1  0  0  0  0
  3 11  1  0  0  0  0
  3  7  1  0  0  0  0
  4  1  2  0  0  0  0
  5 12  2  0  0  0  0
  5  6  1  0  0  0  0
  6  4  1  0  0  0  0
  7 30  2  0  0  0  0
  8  9  1  0  0  0  0
  8  1  1  1  0  0  0
  8  3  1  0  0  0  0
  9  2  1  6  0  0  0
 10 13  2  0  0  0  0
 12  9  1  0  0  0  0
 13  7  1  0  0  0  0
 14 15  1  0  0  0  0
 15 12  1  0  0  0  0
 16 18  2  0  0  0  0
 16 17  1  0  0  0  0
 17 14  2  0  0  0  0
 18 19  1  0  0  0  0
 19 15  2  0  0  0  0
 20 21  1  0  0  0  0
 21 18  1  0  0  0  0
 22 16  1  0  0  0  0
 23 22  1  0  0  0  0
 24 23  1  0  0  0  0
 26 25  1  0  0  0  0
 26 29  1  0  0  0  0
 27 28  1  0  0  0  0
 27 26  1  0  0  0  0
 28 24  1  1  0  0  0
 28 26  1  0  0  0  0
 30 31  1  0  0  0  0
 31 42  1  1  0  0  0
 32 33  1  1  0  0  0
 32 31  1  0  0  0  0
 34 36  1  0  0  0  0
 36 35  2  0  0  0  0
 36 32  1  0  0  0  0
 37 34  1  0  0  0  0
 38 40  1  0  0  0  0
 38 37  1  0  0  0  0
 39 38  2  0  0  0  0
 42 41  1  0  0  0  0
M  END
>  <MODEL>
6

>  <REMARK>
 VINA RESULT:      -6.7      3.435      8.466
  Name = 
  13 active torsions:
  status: ('A' for Active; 'I' for Inactive)
    1  A    between atoms: N_3  and  C_7
    2  A    between atoms: C_4  and  C_19
    3  A    between atoms: C_4  and  C_33
    4  A    between atoms: C_7  and  C_11
    5  A    between atoms: CA_12  and  C_15
    6  A    between atoms: CA_12  and  C_20
    7  A    between atoms: CA_12  and  N_22
    8  A    between atoms: C_15  and  C_31
    9  A    between atoms: C_16  and  N_22
   10  A    between atoms: C_17  and  C_39
   11  A    between atoms: C_27  and  O_38
   12  A    between atoms: C_28  and  C_33
   13  A    between atoms: C_28  and  C_36
                            x       y       z     vdW  Elec       q    Type
                         _______ _______ _______ _____ _____    ______ ____

>  <TORSDO>
F 13

$$$$
=
 OpenBabel11062420013D

 42 46  0  0  1  0  0  0  0  0999 V2000
  188.9760  175.7830  146.1900 C   0  0  0  0  0  0  0  0  0  0  0  0
  189.0840  178.0010  143.2270 C   0  0  0  0  0  2  0  0  0  0  0  0
  189.9020  175.8820  143.9300 N   0  0  0  0  0  0  0  0  0  0  0  0
  188.3410  176.3260  147.1960 N   0  0  0  0  0  0  0  0  0  0  0  0
  186.5810  177.7250  146.0630 C   0  0  0  0  0  3  0  0  0  0  0  0
  187.5250  177.5530  147.2260 C   0  0  0  0  0  2  0  0  0  0  0  0
  190.7470  174.7430  144.1910 C   0  0  0  0  0  0  0  0  0  0  0  0
  188.7460  176.1720  144.7540 C   0  0  2  0  0  3  0  0  0  0  0  0
  188.4780  177.6350  144.5730 C   0  0  2  0  0  3  0  0  0  0  0  0
  189.8480  174.6740  146.4320 N   0  0  0  0  0  2  0  0  0  0  0  0
  190.2040  176.9830  143.0300 C   0  0  0  0  0  2  0  0  0  0  0  0
  187.0080  177.8570  144.8000 C   0  0  0  0  0  0  0  0  0  0  0  0
  190.6970  174.1620  145.3950 C   0  0  0  0  0  3  0  0  0  0  0  0
  184.6520  178.1790  143.9760 C   0  0  0  0  0  3  0  0  0  0  0  0
  186.0120  177.9710  143.7030 C   0  0  0  0  0  0  0  0  0  0  0  0
  184.1460  178.2140  141.6070 C   0  0  0  0  0  0  0  0  0  0  0  0
  183.7280  178.2980  142.9370 C   0  0  0  0  0  3  0  0  0  0  0  0
  185.5060  178.0220  141.3110 C   0  0  0  0  0  0  0  0  0  0  0  0
  186.4270  177.9030  142.3640 C   0  0  0  0  0  3  0  0  0  0  0  0
  187.0140  177.1490  139.5500 C   0  0  0  0  0  1  0  0  0  0  0  0
  185.9210  177.9510  139.9750 O   0  0  0  0  0  0  0  0  0  0  0  0
  183.1380  178.3560  140.5160 C   0  0  0  0  0  2  0  0  0  0  0  0
  181.7920  177.8170  140.9740 C   0  0  0  0  0  2  0  0  0  0  0  0
  180.7390  178.9100  140.9150 C   0  0  0  0  0  2  0  0  0  0  0  0
  177.9440  177.2580  142.8020 O   0  0  0  0  0  1  0  0  0  0  0  0
  178.5950  177.8810  141.7370 C   0  0  0  0  0  0  0  0  0  0  0  0
  178.4180  179.3740  141.6830 C   0  0  0  0  0  2  0  0  0  0  0  0
  179.7700  178.7760  142.0800 C   0  0  2  0  0  3  0  0  0  0  0  0
  178.5650  177.2360  140.4980 O   0  0  0  0  0  1  0  0  0  0  0  0
  191.5930  174.1490  143.1910 N   0  0  0  0  0  2  0  0  0  0  0  0
  191.3820  172.9110  142.4410 C   0  0  1  0  0  3  0  0  0  0  0  0
  191.3500  173.1450  140.9230 C   0  0  1  0  0  3  0  0  0  0  0  0
  192.6350  173.1040  140.3790 O   0  0  0  0  0  1  0  0  0  0  0  0
  189.0920  172.4610  139.8940 N   0  0  0  0  0  2  0  0  0  0  0  0
  190.9400  171.0600  139.8640 O   0  0  0  0  0  0  0  0  0  0  0  0
  190.4600  172.1710  140.2050 C   0  0  0  0  0  0  0  0  0  0  0  0
  188.4010  173.6880  140.2700 C   0  0  0  0  0  2  0  0  0  0  0  0
  187.8120  173.5590  141.6340 C   0  0  0  0  0  0  0  0  0  0  0  0
  187.8600  172.3400  142.2960 O   0  0  0  0  0  1  0  0  0  0  0  0
  187.3010  174.5600  142.2010 O   0  0  0  0  0  0  0  0  0  0  0  0
  191.7290  170.7510  143.4130 O   0  0  0  0  0  1  0  0  0  0  0  0
  192.3900  171.8520  142.8670 C   0  0  0  0  0  2  0  0  0  0  0  0
  1 10  1  0  0  0  0
  1  4  2  0  0  0  0
  3  7  1  0  0  0  0
  3  8  1  0  0  0  0
  4  6  1  0  0  0  0
  5  6  1  0  0  0  0
  7 13  2  0  0  0  0
  8  1  1  1  0  0  0
  9  2  1  6  0  0  0
  9  8  1  0  0  0  0
  9 12  1  0  0  0  0
 11  2  1  0  0  0  0
 11  3  1  0  0  0  0
 12  5  2  0  0  0  0
 13 10  1  0  0  0  0
 15 14  1  0  0  0  0
 15 12  1  0  0  0  0
 16 17  1  0  0  0  0
 17 14  2  0  0  0  0
 18 16  2  0  0  0  0
 18 19  1  0  0  0  0
 19 15  2  0  0  0  0
 20 21  1  0  0  0  0
 21 18  1  0  0  0  0
 22 23  1  0  0  0  0
 22 16  1  0  0  0  0
 24 23  1  0  0  0  0
 26 28  1  0  0  0  0
 26 25  1  0  0  0  0
 27 26  1  0  0  0  0
 27 28  1  0  0  0  0
 28 24  1  6  0  0  0
 29 26  1  0  0  0  0
 30  7  1  0  0  0  0
 31 42  1  6  0  0  0
 31 30  1  0  0  0  0
 32 33  1  6  0  0  0
 32 31  1  0  0  0  0
 34 36  1  0  0  0  0
 34 37  1  0  0  0  0
 35 36  2  0  0  0  0
 36 32  1  0  0  0  0
 37 38  1  0  0  0  0
 38 40  2  0  0  0  0
 38 39  1  0  0  0  0
 42 41  1  0  0  0  0
M  END
>  <MODEL>
7

>  <REMARK>
 VINA RESULT:      -6.7      3.504      6.167
  Name = 
  13 active torsions:
  status: ('A' for Active; 'I' for Inactive)
    1  A    between atoms: N_3  and  C_7
    2  A    between atoms: C_4  and  C_19
    3  A    between atoms: C_4  and  C_33
    4  A    between atoms: C_7  and  C_11
    5  A    between atoms: CA_12  and  C_15
    6  A    between atoms: CA_12  and  C_20
    7  A    between atoms: CA_12  and  N_22
    8  A    between atoms: C_15  and  C_31
    9  A    between atoms: C_16  and  N_22
   10  A    between atoms: C_17  and  C_39
   11  A    between atoms: C_27  and  O_38
   12  A    between atoms: C_28  and  C_33
   13  A    between atoms: C_28  and  C_36
                            x       y       z     vdW  Elec       q    Type
                         _______ _______ _______ _____ _____    ______ ____

>  <TORSDO>
F 13

$$$$
=
 OpenBabel11062420013D

 42 46  0  0  1  0  0  0  0  0999 V2000
  189.8100  176.8020  146.5710 C   0  0  0  0  0  0  0  0  0  0  0  0
  191.6300  173.8620  145.2450 C   0  0  0  0  0  2  0  0  0  0  0  0
  189.7400  175.2040  144.7210 N   0  0  0  0  0  0  0  0  0  0  0  0
  190.3060  177.2250  147.7030 N   0  0  0  0  0  0  0  0  0  0  0  0
  192.7610  176.7180  147.4700 C   0  0  0  0  0  3  0  0  0  0  0  0
  191.5600  176.8340  148.3730 C   0  0  0  0  0  2  0  0  0  0  0  0
  188.4200  175.6480  144.3450 C   0  0  0  0  0  0  0  0  0  0  0  0
  190.6000  176.0140  145.5600 C   0  0  2  0  0  3  0  0  0  0  0  0
  191.5710  175.0580  146.1830 C   0  0  2  0  0  3  0  0  0  0  0  0
  188.4880  177.2010  146.1950 N   0  0  0  0  0  2  0  0  0  0  0  0
  190.2710  173.8620  144.5500 C   0  0  0  0  0  2  0  0  0  0  0  0
  192.8330  175.8220  146.4760 C   0  0  0  0  0  0  0  0  0  0  0  0
  187.8370  176.6220  145.0550 C   0  0  0  0  0  3  0  0  0  0  0  0
  194.2350  176.7990  144.6290 C   0  0  0  0  0  3  0  0  0  0  0  0
  194.0310  175.8050  145.5970 C   0  0  0  0  0  0  0  0  0  0  0  0
  196.3260  175.7700  143.9630 C   0  0  0  0  0  0  0  0  0  0  0  0
  195.3720  176.7810  143.8190 C   0  0  0  0  0  3  0  0  0  0  0  0
  196.1480  174.7740  144.9370 C   0  0  0  0  0  0  0  0  0  0  0  0
  195.0010  174.8010  145.7470 C   0  0  0  0  0  3  0  0  0  0  0  0
  197.0740  172.8120  146.1340 C   0  0  0  0  0  1  0  0  0  0  0  0
  197.1140  173.7710  145.0860 O   0  0  0  0  0  0  0  0  0  0  0  0
  197.5360  175.7810  143.0910 C   0  0  0  0  0  2  0  0  0  0  0  0
  197.1300  175.9350  141.6340 C   0  0  0  0  0  2  0  0  0  0  0  0
  196.4250  174.6810  141.1480 C   0  0  0  0  0  2  0  0  0  0  0  0
  192.6850  174.7730  141.4810 O   0  0  0  0  0  1  0  0  0  0  0  0
  193.9660  174.2230  141.4220 C   0  0  0  0  0  0  0  0  0  0  0  0
  194.3870  173.7630  140.0530 C   0  0  0  0  0  2  0  0  0  0  0  0
  195.0190  175.0140  140.6700 C   0  0  2  0  0  3  0  0  0  0  0  0
  194.3570  173.3880  142.4720 O   0  0  0  0  0  1  0  0  0  0  0  0
  187.7220  175.1450  143.1930 N   0  0  0  0  0  2  0  0  0  0  0  0
  187.3250  175.8670  141.9840 C   0  0  1  0  0  3  0  0  0  0  0  0
  187.2950  177.3880  142.1940 C   0  0  1  0  0  3  0  0  0  0  0  0
  188.4220  177.9960  141.6400 O   0  0  0  0  0  1  0  0  0  0  0  0
  184.9150  178.3310  142.4650 N   0  0  0  0  0  2  0  0  0  0  0  0
  186.0060  178.2980  140.4190 O   0  0  0  0  0  0  0  0  0  0  0  0
  186.0490  178.0240  141.6460 C   0  0  0  0  0  0  0  0  0  0  0  0
  184.8160  178.0250  143.8870 C   0  0  0  0  0  2  0  0  0  0  0  0
  185.2270  179.2000  144.7060 C   0  0  0  0  0  0  0  0  0  0  0  0
  185.5660  180.3930  144.0820 O   0  0  0  0  0  0  0  0  0  0  0  0
  185.2370  179.1260  145.9630 O   0  0  0  0  0  1  0  0  0  0  0  0
  189.3280  174.7790  141.2530 O   0  0  0  0  0  1  0  0  0  0  0  0
  188.1840  175.4380  140.8010 C   0  0  0  0  0  2  0  0  0  0  0  0
  1  4  2  0  0  0  0
  3  8  1  0  0  0  0
  4  6  1  0  0  0  0
  5  6  1  0  0  0  0
  7  3  1  0  0  0  0
  7 13  2  0  0  0  0
  8  9  1  0  0  0  0
  8  1  1  1  0  0  0
  9  2  1  6  0  0  0
  9 12  1  0  0  0  0
 10  1  1  0  0  0  0
 11  3  1  0  0  0  0
 11  2  1  0  0  0  0
 12  5  2  0  0  0  0
 13 10  1  0  0  0  0
 14 15  1  0  0  0  0
 15 19  2  0  0  0  0
 15 12  1  0  0  0  0
 16 18  2  0  0  0  0
 17 16  1  0  0  0  0
 17 14  2  0  0  0  0
 18 21  1  0  0  0  0
 18 19  1  0  0  0  0
 21 20  1  0  0  0  0
 22 16  1  0  0  0  0
 23 22  1  0  0  0  0
 24 23  1  0  0  0  0
 26 25  1  0  0  0  0
 26 29  1  0  0  0  0
 27 28  1  0  0  0  0
 27 26  1  0  0  0  0
 28 24  1  1  0  0  0
 28 26  1  0  0  0  0
 30  7  1  0  0  0  0
 31 42  1  6  0  0  0
 31 32  1  0  0  0  0
 31 30  1  0  0  0  0
 32 33  1  6  0  0  0
 34 37  1  0  0  0  0
 35 36  2  0  0  0  0
 36 32  1  0  0  0  0
 36 34  1  0  0  0  0
 37 38  1  0  0  0  0
 38 40  1  0  0  0  0
 39 38  2  0  0  0  0
 42 41  1  0  0  0  0
M  END
>  <MODEL>
8

>  <REMARK>
 VINA RESULT:      -6.7      2.655      9.003
  Name = 
  13 active torsions:
  status: ('A' for Active; 'I' for Inactive)
    1  A    between atoms: N_3  and  C_7
    2  A    between atoms: C_4  and  C_19
    3  A    between atoms: C_4  and  C_33
    4  A    between atoms: C_7  and  C_11
    5  A    between atoms: CA_12  and  C_15
    6  A    between atoms: CA_12  and  C_20
    7  A    between atoms: CA_12  and  N_22
    8  A    between atoms: C_15  and  C_31
    9  A    between atoms: C_16  and  N_22
   10  A    between atoms: C_17  and  C_39
   11  A    between atoms: C_27  and  O_38
   12  A    between atoms: C_28  and  C_33
   13  A    between atoms: C_28  and  C_36
                            x       y       z     vdW  Elec       q    Type
                         _______ _______ _______ _____ _____    ______ ____

>  <TORSDO>
F 13

$$$$
=
 OpenBabel11062420013D

 42 46  0  0  1  0  0  0  0  0999 V2000
  189.0120  175.3620  145.8770 C   0  0  0  0  0  0  0  0  0  0  0  0
  189.0390  177.2790  142.7080 C   0  0  0  0  0  2  0  0  0  0  0  0
  189.5910  175.1120  143.5140 N   0  0  0  0  0  0  0  0  0  0  0  0
  188.6350  176.0890  146.8950 N   0  0  0  0  0  0  0  0  0  0  0  0
  186.9800  177.6850  145.8680 C   0  0  0  0  0  3  0  0  0  0  0  0
  188.0470  177.4410  146.9050 C   0  0  0  0  0  2  0  0  0  0  0  0
  190.2660  173.8650  143.7790 C   0  0  0  0  0  0  0  0  0  0  0  0
  188.6370  175.6690  144.4520 C   0  0  2  0  0  3  0  0  0  0  0  0
  188.5910  177.1370  144.1550 C   0  0  2  0  0  3  0  0  0  0  0  0
  189.7160  174.1390  146.1150 N   0  0  0  0  0  2  0  0  0  0  0  0
  189.9330  176.0650  142.4710 C   0  0  0  0  0  2  0  0  0  0  0  0
  187.2280  177.6360  144.5520 C   0  0  0  0  0  0  0  0  0  0  0  0
  190.3030  173.4010  145.0330 C   0  0  0  0  0  3  0  0  0  0  0  0
  184.8240  178.1700  144.0380 C   0  0  0  0  0  3  0  0  0  0  0  0
  186.1110  177.8370  143.5930 C   0  0  0  0  0  0  0  0  0  0  0  0
  184.0160  178.2440  141.7540 C   0  0  0  0  0  0  0  0  0  0  0  0
  183.7850  178.3700  143.1270 C   0  0  0  0  0  3  0  0  0  0  0  0
  185.3020  177.9270  141.2860 C   0  0  0  0  0  0  0  0  0  0  0  0
  186.3390  177.7270  142.2120 C   0  0  0  0  0  3  0  0  0  0  0  0
  186.6720  177.1650  139.3680 C   0  0  0  0  0  1  0  0  0  0  0  0
  185.5300  177.8150  139.9090 O   0  0  0  0  0  0  0  0  0  0  0  0
  182.8910  178.4740  140.8020 C   0  0  0  0  0  2  0  0  0  0  0  0
  181.5720  178.5350  141.5560 C   0  0  0  0  0  2  0  0  0  0  0  0
  180.4130  178.2660  140.6120 C   0  0  0  0  0  2  0  0  0  0  0  0
  177.6920  180.8050  141.1140 O   0  0  0  0  0  1  0  0  0  0  0  0
  178.2700  179.5610  140.8640 C   0  0  0  0  0  0  0  0  0  0  0  0
  178.4690  179.2460  139.4060 C   0  0  0  0  0  2  0  0  0  0  0  0
  179.6750  179.5590  140.2940 C   0  0  2  0  0  3  0  0  0  0  0  0
  177.8480  178.4850  141.6480 O   0  0  0  0  0  1  0  0  0  0  0  0
  190.8420  173.0510  142.7430 N   0  0  0  0  0  2  0  0  0  0  0  0
  192.0850  173.2690  142.0020 C   0  0  1  0  0  3  0  0  0  0  0  0
  193.3310  173.0910  142.8840 C   0  0  1  0  0  3  0  0  0  0  0  0
  194.0680  171.9720  142.4950 O   0  0  0  0  0  1  0  0  0  0  0  0
  194.2990  175.1890  144.0170 N   0  0  0  0  0  2  0  0  0  0  0  0
  194.9030  174.5530  141.8700 O   0  0  0  0  0  0  0  0  0  0  0  0
  194.2130  174.3060  142.8920 C   0  0  0  0  0  0  0  0  0  0  0  0
  193.5210  175.0460  145.2410 C   0  0  0  0  0  2  0  0  0  0  0  0
  192.7050  176.2690  145.4910 C   0  0  0  0  0  0  0  0  0  0  0  0
  192.1340  176.4750  146.7390 O   0  0  0  0  0  1  0  0  0  0  0  0
  192.5610  177.1310  144.5850 O   0  0  0  0  0  0  0  0  0  0  0  0
  190.8640  172.4450  140.1150 O   0  0  0  0  0  1  0  0  0  0  0  0
  192.1110  172.4140  140.7420 C   0  0  0  0  0  2  0  0  0  0  0  0
  1 10  1  0  0  0  0
  1  4  2  0  0  0  0
  3  7  1  0  0  0  0
  3  8  1  0  0  0  0
  4  6  1  0  0  0  0
  5  6  1  0  0  0  0
  7 13  2  0  0  0  0
  8  1  1  1  0  0  0
  9  2  1  6  0  0  0
  9  8  1  0  0  0  0
  9 12  1  0  0  0  0
 11  2  1  0  0  0  0
 11  3  1  0  0  0  0
 12  5  2  0  0  0  0
 13 10  1  0  0  0  0
 15 14  1  0  0  0  0
 15 12  1  0  0  0  0
 16 17  1  0  0  0  0
 17 14  2  0  0  0  0
 18 16  2  0  0  0  0
 18 19  1  0  0  0  0
 19 15  2  0  0  0  0
 20 21  1  0  0  0  0
 21 18  1  0  0  0  0
 22 23  1  0  0  0  0
 22 16  1  0  0  0  0
 24 23  1  0  0  0  0
 26 25  1  0  0  0  0
 26 29  1  0  0  0  0
 27 28  1  0  0  0  0
 27 26  1  0  0  0  0
 28 24  1  1  0  0  0
 28 26  1  0  0  0  0
 30  7  1  0  0  0  0
 31 42  1  6  0  0  0
 31 30  1  0  0  0  0
 31 32  1  0  0  0  0
 32 33  1  6  0  0  0
 32 36  1  0  0  0  0
 34 37  1  0  0  0  0
 35 36  2  0  0  0  0
 36 34  1  0  0  0  0
 37 38  1  0  0  0  0
 38 39  1  0  0  0  0
 40 38  2  0  0  0  0
 41 42  1  0  0  0  0
M  END
>  <MODEL>
9

>  <REMARK>
 VINA RESULT:      -6.6      3.264      5.566
  Name = 
  13 active torsions:
  status: ('A' for Active; 'I' for Inactive)
    1  A    between atoms: N_3  and  C_7
    2  A    between atoms: C_4  and  C_19
    3  A    between atoms: C_4  and  C_33
    4  A    between atoms: C_7  and  C_11
    5  A    between atoms: CA_12  and  C_15
    6  A    between atoms: CA_12  and  C_20
    7  A    between atoms: CA_12  and  N_22
    8  A    between atoms: C_15  and  C_31
    9  A    between atoms: C_16  and  N_22
   10  A    between atoms: C_17  and  C_39
   11  A    between atoms: C_27  and  O_38
   12  A    between atoms: C_28  and  C_33
   13  A    between atoms: C_28  and  C_36
                            x       y       z     vdW  Elec       q    Type
                         _______ _______ _______ _____ _____    ______ ____

>  <TORSDO>
F 13

$$$$
