=
 OpenBabel11062422073D

 27 33  0  0  1  0  0  0  0  0999 V2000
  185.5660  177.3640  144.5840 C   0  0  0  0  0  0  0  0  0  0  0  0
  185.7670  177.8470  146.9650 C   0  0  0  0  0  0  0  0  0  0  0  0
  186.5440  175.8480  143.0010 O   0  0  0  0  0  0  0  0  0  0  0  0
  185.7780  176.8120  143.2650 C   0  0  0  0  0  0  0  0  0  0  0  0
  187.5160  176.7010  146.0780 C   0  0  0  0  0  0  0  0  0  0  0  0
  186.0390  176.8190  145.9080 C   0  0  2  0  0  3  0  0  0  0  0  0
  185.7650  178.2710  141.2790 C   0  0  0  0  0  1  0  0  0  0  0  0
  186.8160  178.1700  147.6440 N   0  0  0  0  0  0  0  0  0  0  0  0
  187.9040  177.4140  147.1250 C   0  0  0  0  0  3  0  0  0  0  0  0
  184.9120  177.4940  142.2640 C   0  0  2  0  0  3  0  0  0  0  0  0
  184.0940  178.4760  143.1190 C   0  0  0  0  0  2  0  0  0  0  0  0
  184.5920  178.2600  144.5120 C   0  0  0  0  0  0  0  0  0  0  0  0
  184.0550  178.9140  145.7260 C   0  0  0  0  0  3  0  0  0  0  0  0
  184.6300  178.7180  146.8790 N   0  0  0  0  0  0  0  0  0  0  0  0
  188.3990  175.7270  145.3730 C   0  0  0  0  0  2  0  0  0  0  0  0
  190.9460  175.5730  146.7680 C   0  0  0  0  0  3  0  0  0  0  0  0
  193.3610  175.4710  146.6210 C   0  0  0  0  0  3  0  0  0  0  0  0
  191.7950  175.9560  142.3900 N   0  0  2  0  0  0  0  0  0  0  0  0
  190.7070  176.8520  142.7010 N   0  0  1  0  0  0  0  0  0  0  0  0
  192.1820  175.2690  147.3450 C   0  0  0  0  0  3  0  0  0  0  0  0
  192.0670  176.2690  144.7310 C   0  0  0  0  0  0  0  0  0  0  0  0
  189.6080  176.4330  144.7670 C   0  0  2  0  0  3  0  0  0  0  0  0
  189.7390  176.0520  143.3580 N   0  0  0  0  0  2  0  0  0  0  0  0
  191.9680  176.9450  143.3830 C   0  0  1  0  0  0  0  0  0  0  0  0
  190.8870  176.0650  145.4540 C   0  0  0  0  0  0  0  0  0  0  0  0
  193.3060  175.9820  145.3200 C   0  0  0  0  0  3  0  0  0  0  0  0
  193.0400  176.6680  142.5030 N   0  0  0  0  0  2  0  0  0  0  0  0
  2  8  2  0  0  0  0
  3  4  2  0  0  0  0
  4  1  1  0  0  0  0
  5  9  2  0  0  0  0
  6  1  1  6  0  0  0
  6  5  1  0  0  0  0
  6  2  1  0  0  0  0
  9  8  1  0  0  0  0
 10  7  1  6  0  0  0
 10 11  1  0  0  0  0
 10  4  1  0  0  0  0
 11 12  1  0  0  0  0
 12  1  2  0  0  0  0
 12 13  1  0  0  0  0
 13 14  2  0  0  0  0
 14  2  1  0  0  0  0
 15  5  1  0  0  0  0
 16 20  1  0  0  0  0
 17 20  2  0  0  0  0
 18 27  1  6  0  0  0
 18 19  1  0  0  0  0
 18 24  1  0  0  0  0
 19 23  1  1  0  0  0
 19 24  1  0  0  0  0
 21 26  2  0  0  0  0
 21 25  1  0  0  0  0
 22 15  1  1  0  0  0
 22 25  1  0  0  0  0
 23 22  1  0  0  0  0
 24 27  1  6  0  0  0
 24 21  1  0  0  0  0
 25 16  2  0  0  0  0
 26 17  1  0  0  0  0
M  END
>  <MODEL>
1

>  <REMARK>
 VINA RESULT:      -8.7      0.000      0.000
  Name = 
  2 active torsions:
  status: ('A' for Active; 'I' for Inactive)
    1  A    between atoms: C_8  and  C_14
    2  A    between atoms: C_13  and  C_14
                            x       y       z     vdW  Elec       q    Type
                         _______ _______ _______ _____ _____    ______ ____

>  <TORSDO>
F 2

$$$$
=
 OpenBabel11062422073D

 27 33  0  0  1  0  0  0  0  0999 V2000
  191.5720  174.6780  145.3010 C   0  0  0  0  0  0  0  0  0  0  0  0
  190.2590  173.0700  144.0230 C   0  0  0  0  0  0  0  0  0  0  0  0
  191.2080  176.7830  146.3940 O   0  0  0  0  0  0  0  0  0  0  0  0
  191.9800  175.8560  146.0320 C   0  0  0  0  0  0  0  0  0  0  0  0
  189.3440  175.1450  144.1630 C   0  0  0  0  0  0  0  0  0  0  0  0
  190.1720  174.2160  144.9860 C   0  0  2  0  0  3  0  0  0  0  0  0
  194.1810  176.8860  145.6250 C   0  0  0  0  0  1  0  0  0  0  0  0
  189.5690  173.2540  142.9480 N   0  0  0  0  0  0  0  0  0  0  0  0
  188.9520  174.5310  143.0550 C   0  0  0  0  0  3  0  0  0  0  0  0
  193.4300  175.7940  146.3640 C   0  0  2  0  0  3  0  0  0  0  0  0
  193.8550  174.4210  145.8190 C   0  0  0  0  0  2  0  0  0  0  0  0
  192.6070  173.8540  145.2220 C   0  0  0  0  0  0  0  0  0  0  0  0
  192.4730  172.5010  144.6380 C   0  0  0  0  0  3  0  0  0  0  0  0
  191.3580  172.1490  144.0630 N   0  0  0  0  0  0  0  0  0  0  0  0
  188.7990  176.4580  144.6140 C   0  0  0  0  0  2  0  0  0  0  0  0
  186.8640  177.1420  146.6740 C   0  0  0  0  0  3  0  0  0  0  0  0
  184.8160  178.2910  147.2630 C   0  0  0  0  0  3  0  0  0  0  0  0
  185.3700  178.7780  142.7860 N   0  0  2  0  0  0  0  0  0  0  0  0
  185.9080  177.4640  142.5260 N   0  0  1  0  0  0  0  0  0  0  0  0
  186.0260  177.7010  147.6420 C   0  0  0  0  0  3  0  0  0  0  0  0
  185.2890  177.7760  144.9400 C   0  0  0  0  0  0  0  0  0  0  0  0
  187.3310  176.5980  144.2210 C   0  0  2  0  0  3  0  0  0  0  0  0
  187.2210  177.4840  143.0600 N   0  0  0  0  0  2  0  0  0  0  0  0
  184.8660  177.6650  143.4950 C   0  0  1  0  0  0  0  0  0  0  0  0
  186.5000  177.1880  145.3190 C   0  0  0  0  0  0  0  0  0  0  0  0
  184.4410  178.3180  145.9160 C   0  0  0  0  0  3  0  0  0  0  0  0
  183.9630  178.6660  143.0650 N   0  0  0  0  0  2  0  0  0  0  0  0
  1  4  1  0  0  0  0
  2 14  1  0  0  0  0
  4 10  1  0  0  0  0
  4  3  2  0  0  0  0
  5 15  1  0  0  0  0
  5  6  1  0  0  0  0
  6  2  1  6  0  0  0
  6  1  1  0  0  0  0
  8  9  1  0  0  0  0
  8  2  2  0  0  0  0
  9  5  2  0  0  0  0
 10  7  1  6  0  0  0
 11 10  1  0  0  0  0
 12  1  2  0  0  0  0
 12 11  1  0  0  0  0
 13 12  1  0  0  0  0
 14 13  2  0  0  0  0
 16 20  1  0  0  0  0
 17 20  2  0  0  0  0
 18 27  1  6  0  0  0
 18 24  1  0  0  0  0
 19 18  1  0  0  0  0
 19 23  1  1  0  0  0
 19 24  1  0  0  0  0
 21 25  1  0  0  0  0
 21 26  2  0  0  0  0
 22 15  1  1  0  0  0
 22 25  1  0  0  0  0
 23 22  1  0  0  0  0
 24 27  1  6  0  0  0
 24 21  1  0  0  0  0
 25 16  2  0  0  0  0
 26 17  1  0  0  0  0
M  END
>  <MODEL>
2

>  <REMARK>
 VINA RESULT:      -8.6      2.569      7.228
  Name = 
  2 active torsions:
  status: ('A' for Active; 'I' for Inactive)
    1  A    between atoms: C_8  and  C_14
    2  A    between atoms: C_13  and  C_14
                            x       y       z     vdW  Elec       q    Type
                         _______ _______ _______ _____ _____    ______ ____

>  <TORSDO>
F 2

$$$$
=
 OpenBabel11062422073D

 27 33  0  0  1  0  0  0  0  0999 V2000
  192.2420  176.2530  144.5690 C   0  0  0  0  0  0  0  0  0  0  0  0
  192.2330  176.3230  147.0050 C   0  0  0  0  0  0  0  0  0  0  0  0
  190.6370  176.4200  142.7920 O   0  0  0  0  0  0  0  0  0  0  0  0
  191.8170  176.2270  143.1870 C   0  0  0  0  0  0  0  0  0  0  0  0
  190.2100  175.9010  146.0610 C   0  0  0  0  0  0  0  0  0  0  0  0
  191.4500  176.6810  145.7780 C   0  0  2  0  0  3  0  0  0  0  0  0
  192.8570  174.6720  141.5840 C   0  0  0  0  0  1  0  0  0  0  0  0
  191.5690  175.5930  147.8380 N   0  0  0  0  0  0  0  0  0  0  0  0
  190.2830  175.3710  147.2730 C   0  0  0  0  0  3  0  0  0  0  0  0
  192.9810  176.0130  142.2830 C   0  0  2  0  0  3  0  0  0  0  0  0
  194.1750  175.9780  143.2510 C   0  0  0  0  0  2  0  0  0  0  0  0
  193.5630  176.1600  144.6040 C   0  0  0  0  0  0  0  0  0  0  0  0
  194.3120  176.2830  145.8740 C   0  0  0  0  0  3  0  0  0  0  0  0
  193.6670  176.3470  147.0050 N   0  0  0  0  0  0  0  0  0  0  0  0
  188.9610  175.9260  145.2460 C   0  0  0  0  0  2  0  0  0  0  0  0
  187.7670  177.7620  143.3320 C   0  0  0  0  0  3  0  0  0  0  0  0
  185.8500  179.0950  142.6920 C   0  0  0  0  0  3  0  0  0  0  0  0
  184.8920  177.2470  146.7240 N   0  0  2  0  0  0  0  0  0  0  0  0
  186.2160  177.3490  147.2890 N   0  0  1  0  0  0  0  0  0  0  0  0
  187.0460  178.4520  142.3560 C   0  0  0  0  0  3  0  0  0  0  0  0
  186.0880  178.3430  144.9860 C   0  0  0  0  0  0  0  0  0  0  0  0
  188.0010  176.9960  145.7600 C   0  0  2  0  0  3  0  0  0  0  0  0
  186.9880  176.3710  146.6140 N   0  0  0  0  0  2  0  0  0  0  0  0
  185.6850  178.3810  146.4410 C   0  0  1  0  0  0  0  0  0  0  0  0
  187.2830  177.6990  144.6490 C   0  0  0  0  0  0  0  0  0  0  0  0
  185.3770  179.0520  144.0070 C   0  0  0  0  0  3  0  0  0  0  0  0
  184.3000  178.5580  146.6670 N   0  0  0  0  0  2  0  0  0  0  0  0
  1 12  2  0  0  0  0
  2  8  2  0  0  0  0
  3  4  2  0  0  0  0
  4  1  1  0  0  0  0
  5  9  2  0  0  0  0
  6  1  1  6  0  0  0
  6  5  1  0  0  0  0
  6  2  1  0  0  0  0
  9  8  1  0  0  0  0
 10  7  1  1  0  0  0
 10  4  1  0  0  0  0
 10 11  1  0  0  0  0
 11 12  1  0  0  0  0
 12 13  1  0  0  0  0
 13 14  2  0  0  0  0
 14  2  1  0  0  0  0
 15  5  1  0  0  0  0
 16 25  1  0  0  0  0
 17 26  2  0  0  0  0
 18 27  1  1  0  0  0
 18 19  1  0  0  0  0
 19 23  1  6  0  0  0
 20 17  1  0  0  0  0
 20 16  2  0  0  0  0
 22 15  1  6  0  0  0
 22 23  1  0  0  0  0
 24 21  1  6  0  0  0
 24 27  1  0  0  0  0
 24 18  1  0  0  0  0
 24 19  1  0  0  0  0
 25 21  2  0  0  0  0
 25 22  1  0  0  0  0
 26 21  1  0  0  0  0
M  END
>  <MODEL>
3

>  <REMARK>
 VINA RESULT:      -8.5      2.306      7.010
  Name = 
  2 active torsions:
  status: ('A' for Active; 'I' for Inactive)
    1  A    between atoms: C_8  and  C_14
    2  A    between atoms: C_13  and  C_14
                            x       y       z     vdW  Elec       q    Type
                         _______ _______ _______ _____ _____    ______ ____

>  <TORSDO>
F 2

$$$$
=
 OpenBabel11062422073D

 27 33  0  0  1  0  0  0  0  0999 V2000
  185.6870  177.3480  144.5620 C   0  0  0  0  0  0  0  0  0  0  0  0
  186.0730  177.6920  146.9440 C   0  0  0  0  0  0  0  0  0  0  0  0
  186.5970  175.9910  142.8040 O   0  0  0  0  0  0  0  0  0  0  0  0
  185.8100  176.8930  143.1950 C   0  0  0  0  0  0  0  0  0  0  0  0
  187.7920  176.7010  145.8380 C   0  0  0  0  0  0  0  0  0  0  0  0
  186.3010  176.7490  145.8010 C   0  0  2  0  0  3  0  0  0  0  0  0
  185.5510  178.4700  141.3200 C   0  0  0  0  0  1  0  0  0  0  0  0
  187.1610  178.0290  147.5520 N   0  0  0  0  0  0  0  0  0  0  0  0
  188.2350  177.3680  146.8940 C   0  0  0  0  0  3  0  0  0  0  0  0
  184.8270  177.5880  142.3190 C   0  0  2  0  0  3  0  0  0  0  0  0
  184.0400  178.4670  143.3040 C   0  0  0  0  0  2  0  0  0  0  0  0
  184.6680  178.1920  144.6330 C   0  0  0  0  0  0  0  0  0  0  0  0
  184.2080  178.7390  145.9290 C   0  0  0  0  0  3  0  0  0  0  0  0
  184.8910  178.5020  147.0130 N   0  0  0  0  0  0  0  0  0  0  0  0
  188.6560  175.8230  144.9970 C   0  0  0  0  0  2  0  0  0  0  0  0
  189.9400  173.2420  144.6110 C   0  0  0  0  0  3  0  0  0  0  0  0
  192.0010  171.9890  144.3980 C   0  0  0  0  0  3  0  0  0  0  0  0
  193.1490  176.2900  145.2750 N   0  0  2  0  0  0  0  0  0  0  0  0
  192.0780  176.5790  146.2000 N   0  0  1  0  0  0  0  0  0  0  0  0
  190.6200  172.0920  144.2030 C   0  0  0  0  0  3  0  0  0  0  0  0
  192.0270  174.1980  145.3990 C   0  0  0  0  0  0  0  0  0  0  0  0
  189.9930  175.5610  145.6840 C   0  0  2  0  0  3  0  0  0  0  0  0
  190.9100  176.6690  145.4020 N   0  0  0  0  0  2  0  0  0  0  0  0
  192.7190  175.2930  146.1770 C   0  0  1  0  0  0  0  0  0  0  0  0
  190.6460  174.3020  145.2020 C   0  0  0  0  0  0  0  0  0  0  0  0
  192.7020  173.0350  145.0060 C   0  0  0  0  0  3  0  0  0  0  0  0
  194.1030  175.4210  145.9120 N   0  0  0  0  0  2  0  0  0  0  0  0
  1 12  2  0  0  0  0
  2 14  1  0  0  0  0
  2  8  2  0  0  0  0
  3  4  2  0  0  0  0
  4  1  1  0  0  0  0
  5  9  2  0  0  0  0
  6  1  1  6  0  0  0
  6  5  1  0  0  0  0
  6  2  1  0  0  0  0
  9  8  1  0  0  0  0
 10  7  1  6  0  0  0
 10  4  1  0  0  0  0
 10 11  1  0  0  0  0
 11 12  1  0  0  0  0
 12 13  1  0  0  0  0
 13 14  2  0  0  0  0
 15  5  1  0  0  0  0
 16 25  1  0  0  0  0
 17 26  2  0  0  0  0
 18 27  1  1  0  0  0
 18 24  1  0  0  0  0
 18 19  1  0  0  0  0
 19 23  1  6  0  0  0
 20 17  1  0  0  0  0
 20 16  2  0  0  0  0
 22 15  1  6  0  0  0
 23 22  1  0  0  0  0
 24 21  1  6  0  0  0
 24 19  1  0  0  0  0
 25 21  2  0  0  0  0
 25 22  1  0  0  0  0
 26 21  1  0  0  0  0
 27 24  1  0  0  0  0
M  END
>  <MODEL>
4

>  <REMARK>
 VINA RESULT:      -8.4      1.990      2.181
  Name = 
  2 active torsions:
  status: ('A' for Active; 'I' for Inactive)
    1  A    between atoms: C_8  and  C_14
    2  A    between atoms: C_13  and  C_14
                            x       y       z     vdW  Elec       q    Type
                         _______ _______ _______ _____ _____    ______ ____

>  <TORSDO>
F 2

$$$$
=
 OpenBabel11062422073D

 27 33  0  0  1  0  0  0  0  0999 V2000
  187.2870  177.9130  144.5670 C   0  0  0  0  0  0  0  0  0  0  0  0
  187.2860  177.8290  142.1310 C   0  0  0  0  0  0  0  0  0  0  0  0
  188.7360  177.2370  146.3560 O   0  0  0  0  0  0  0  0  0  0  0  0
  187.6490  177.7290  145.9540 C   0  0  0  0  0  0  0  0  0  0  0  0
  188.7280  176.3860  143.1290 C   0  0  0  0  0  0  0  0  0  0  0  0
  188.1580  177.7470  143.3470 C   0  0  2  0  0  3  0  0  0  0  0  0
  185.9410  177.1350  147.6270 C   0  0  0  0  0  1  0  0  0  0  0  0
  187.4000  176.8060  141.3520 N   0  0  0  0  0  0  0  0  0  0  0  0
  188.3430  175.9240  141.9480 C   0  0  0  0  0  3  0  0  0  0  0  0
  186.5880  178.2650  146.8500 C   0  0  2  0  0  3  0  0  0  0  0  0
  185.5670  178.8620  145.8680 C   0  0  0  0  0  2  0  0  0  0  0  0
  186.1470  178.5880  144.5170 C   0  0  0  0  0  0  0  0  0  0  0  0
  185.5760  179.0430  143.2290 C   0  0  0  0  0  3  0  0  0  0  0  0
  186.1210  178.6660  142.1070 N   0  0  0  0  0  0  0  0  0  0  0  0
  189.7850  175.7410  143.9600 C   0  0  0  0  0  2  0  0  0  0  0  0
  191.8460  176.3630  145.9170 C   0  0  0  0  0  3  0  0  0  0  0  0
  194.1910  176.2990  146.5150 C   0  0  0  0  0  3  0  0  0  0  0  0
  193.8550  174.6710  142.2930 N   0  0  2  0  0  0  0  0  0  0  0  0
  192.8170  175.5640  141.8360 N   0  0  1  0  0  0  0  0  0  0  0  0
  192.8490  176.4160  146.8880 C   0  0  0  0  0  3  0  0  0  0  0  0
  193.5280  176.0610  144.1930 C   0  0  0  0  0  0  0  0  0  0  0  0
  191.1750  176.1260  143.4610 C   0  0  2  0  0  3  0  0  0  0  0  0
  191.6350  175.1310  142.4890 N   0  0  0  0  0  2  0  0  0  0  0  0
  193.8560  176.0170  142.7200 C   0  0  1  0  0  0  0  0  0  0  0  0
  192.1850  176.1760  144.5670 C   0  0  0  0  0  0  0  0  0  0  0  0
  194.5320  176.1340  145.1690 C   0  0  0  0  0  3  0  0  0  0  0  0
  195.0900  175.4000  142.4070 N   0  0  0  0  0  2  0  0  0  0  0  0
  1  4  1  0  0  0  0
  4  3  2  0  0  0  0
  4 10  1  0  0  0  0
  5  6  1  0  0  0  0
  5 15  1  0  0  0  0
  6  2  1  6  0  0  0
  6  1  1  0  0  0  0
  8  9  1  0  0  0  0
  8  2  2  0  0  0  0
  9  5  2  0  0  0  0
 10  7  1  6  0  0  0
 11 10  1  0  0  0  0
 12  1  2  0  0  0  0
 12 11  1  0  0  0  0
 13 12  1  0  0  0  0
 14  2  1  0  0  0  0
 14 13  2  0  0  0  0
 16 20  1  0  0  0  0
 17 20  2  0  0  0  0
 18 27  1  6  0  0  0
 18 24  1  0  0  0  0
 19 18  1  0  0  0  0
 19 23  1  1  0  0  0
 19 24  1  0  0  0  0
 21 25  1  0  0  0  0
 21 26  2  0  0  0  0
 22 15  1  1  0  0  0
 22 25  1  0  0  0  0
 23 22  1  0  0  0  0
 24 27  1  6  0  0  0
 24 21  1  0  0  0  0
 25 16  2  0  0  0  0
 26 17  1  0  0  0  0
M  END
>  <MODEL>
5

>  <REMARK>
 VINA RESULT:      -8.2      2.174      3.402
  Name = 
  2 active torsions:
  status: ('A' for Active; 'I' for Inactive)
    1  A    between atoms: C_8  and  C_14
    2  A    between atoms: C_13  and  C_14
                            x       y       z     vdW  Elec       q    Type
                         _______ _______ _______ _____ _____    ______ ____

>  <TORSDO>
F 2

$$$$
=
 OpenBabel11062422073D

 27 33  0  0  1  0  0  0  0  0999 V2000
  187.2130  177.8290  144.8010 C   0  0  0  0  0  0  0  0  0  0  0  0
  187.5850  177.4370  142.4240 C   0  0  0  0  0  0  0  0  0  0  0  0
  188.2120  177.1610  146.8780 O   0  0  0  0  0  0  0  0  0  0  0  0
  187.3090  177.7660  146.2420 C   0  0  0  0  0  0  0  0  0  0  0  0
  188.5650  175.9190  143.8010 C   0  0  0  0  0  0  0  0  0  0  0  0
  188.2220  177.3710  143.7790 C   0  0  2  0  0  3  0  0  0  0  0  0
  185.2780  177.6720  147.6320 C   0  0  0  0  0  1  0  0  0  0  0  0
  187.6360  176.3190  141.7820 N   0  0  0  0  0  0  0  0  0  0  0  0
  188.2960  175.3790  142.6200 C   0  0  0  0  0  3  0  0  0  0  0  0
  186.2330  178.5760  146.8770 C   0  0  2  0  0  3  0  0  0  0  0  0
  185.5070  179.1990  145.6740 C   0  0  0  0  0  2  0  0  0  0  0  0
  186.2360  178.6660  144.4820 C   0  0  0  0  0  0  0  0  0  0  0  0
  185.9690  179.0400  143.0760 C   0  0  0  0  0  3  0  0  0  0  0  0
  186.6090  178.4400  142.1110 N   0  0  0  0  0  0  0  0  0  0  0  0
  189.3420  175.2230  144.8670 C   0  0  0  0  0  2  0  0  0  0  0  0
  191.8370  176.2800  145.9240 C   0  0  0  0  0  3  0  0  0  0  0  0
  194.1500  175.8730  146.5130 C   0  0  0  0  0  3  0  0  0  0  0  0
  192.5680  172.0560  144.6380 N   0  0  2  0  0  0  0  0  0  0  0  0
  191.7370  172.6780  143.6340 N   0  0  1  0  0  0  0  0  0  0  0  0
  192.9880  176.6420  146.6280 C   0  0  0  0  0  3  0  0  0  0  0  0
  193.0050  174.3650  144.9960 C   0  0  0  0  0  0  0  0  0  0  0  0
  190.6580  174.6850  144.3120 C   0  0  2  0  0  3  0  0  0  0  0  0
  190.6350  173.2200  144.3430 N   0  0  0  0  0  2  0  0  0  0  0  0
  193.0120  173.2330  143.9960 C   0  0  1  0  0  0  0  0  0  0  0  0
  191.8420  175.1340  145.1140 C   0  0  0  0  0  0  0  0  0  0  0  0
  194.1630  174.7430  145.6890 C   0  0  0  0  0  3  0  0  0  0  0  0
  193.9500  172.2100  144.2690 N   0  0  0  0  0  2  0  0  0  0  0  0
  1  4  1  0  0  0  0
  4 10  1  0  0  0  0
  4  3  2  0  0  0  0
  5 15  1  0  0  0  0
  6  2  1  6  0  0  0
  6  5  1  0  0  0  0
  6  1  1  0  0  0  0
  8  2  2  0  0  0  0
  8  9  1  0  0  0  0
  9  5  2  0  0  0  0
 10  7  1  6  0  0  0
 11 10  1  0  0  0  0
 12  1  2  0  0  0  0
 12 11  1  0  0  0  0
 13 12  1  0  0  0  0
 14  2  1  0  0  0  0
 14 13  2  0  0  0  0
 16 20  1  0  0  0  0
 17 20  2  0  0  0  0
 18 27  1  6  0  0  0
 19 24  1  0  0  0  0
 19 23  1  1  0  0  0
 19 18  1  0  0  0  0
 21 25  1  0  0  0  0
 21 26  2  0  0  0  0
 22 23  1  0  0  0  0
 22 15  1  1  0  0  0
 22 25  1  0  0  0  0
 24 27  1  6  0  0  0
 24 18  1  0  0  0  0
 24 21  1  0  0  0  0
 25 16  2  0  0  0  0
 26 17  1  0  0  0  0
M  END
>  <MODEL>
6

>  <REMARK>
 VINA RESULT:      -8.0      2.545      3.663
  Name = 
  2 active torsions:
  status: ('A' for Active; 'I' for Inactive)
    1  A    between atoms: C_8  and  C_14
    2  A    between atoms: C_13  and  C_14
                            x       y       z     vdW  Elec       q    Type
                         _______ _______ _______ _____ _____    ______ ____

>  <TORSDO>
F 2

$$$$
=
 OpenBabel11062422073D

 27 33  0  0  1  0  0  0  0  0999 V2000
  186.3690  178.1330  144.0070 C   0  0  0  0  0  0  0  0  0  0  0  0
  185.8400  178.2770  141.6320 C   0  0  0  0  0  0  0  0  0  0  0  0
  188.3340  178.1760  145.3840 O   0  0  0  0  0  0  0  0  0  0  0  0
  187.0880  178.0480  145.2580 C   0  0  0  0  0  0  0  0  0  0  0  0
  187.9980  177.7400  142.0920 C   0  0  0  0  0  0  0  0  0  0  0  0
  186.8920  178.5640  142.6600 C   0  0  2  0  0  3  0  0  0  0  0  0
  186.3550  176.4920  147.0220 C   0  0  0  0  0  1  0  0  0  0  0  0
  186.2650  177.5450  140.6580 N   0  0  0  0  0  0  0  0  0  0  0  0
  187.6320  177.2500  140.9160 C   0  0  0  0  0  3  0  0  0  0  0  0
  186.1450  177.8570  146.3950 C   0  0  2  0  0  3  0  0  0  0  0  0
  184.7660  177.9030  145.7170 C   0  0  0  0  0  2  0  0  0  0  0  0
  185.0700  178.1000  144.2660 C   0  0  0  0  0  0  0  0  0  0  0  0
  184.0650  178.2940  143.1980 C   0  0  0  0  0  3  0  0  0  0  0  0
  184.4450  178.3640  141.9530 N   0  0  0  0  0  0  0  0  0  0  0  0
  189.3970  177.6850  142.6080 C   0  0  0  0  0  2  0  0  0  0  0  0
  191.9820  177.1660  143.8360 C   0  0  0  0  0  3  0  0  0  0  0  0
  193.3520  175.6950  145.1860 C   0  0  0  0  0  3  0  0  0  0  0  0
  189.3540  173.6270  144.6120 N   0  0  2  0  0  0  0  0  0  0  0  0
  189.1280  174.0450  143.2490 N   0  0  1  0  0  0  0  0  0  0  0  0
  193.1050  176.9590  144.6410 C   0  0  0  0  0  3  0  0  0  0  0  0
  191.3390  174.8450  144.1330 C   0  0  0  0  0  0  0  0  0  0  0  0
  189.8740  176.2400  142.7250 C   0  0  2  0  0  3  0  0  0  0  0  0
  188.8160  175.4260  143.3270 N   0  0  0  0  0  2  0  0  0  0  0  0
  190.4430  173.7020  143.7160 C   0  0  1  0  0  0  0  0  0  0  0  0
  191.0910  176.1090  143.5890 C   0  0  0  0  0  0  0  0  0  0  0  0
  192.4780  174.6360  144.9230 C   0  0  0  0  0  3  0  0  0  0  0  0
  190.3890  172.6280  144.6340 N   0  0  0  0  0  2  0  0  0  0  0  0
  1 12  2  0  0  0  0
  1  4  1  0  0  0  0
  2 14  1  0  0  0  0
  4  3  2  0  0  0  0
  4 10  1  0  0  0  0
  5 15  1  0  0  0  0
  5  6  1  0  0  0  0
  6  2  1  6  0  0  0
  6  1  1  0  0  0  0
  8  9  1  0  0  0  0
  8  2  2  0  0  0  0
  9  5  2  0  0  0  0
 10  7  1  6  0  0  0
 11 10  1  0  0  0  0
 12 11  1  0  0  0  0
 13 12  1  0  0  0  0
 14 13  2  0  0  0  0
 16 20  1  0  0  0  0
 18 27  1  6  0  0  0
 19 23  1  1  0  0  0
 19 24  1  0  0  0  0
 19 18  1  0  0  0  0
 20 17  2  0  0  0  0
 21 26  2  0  0  0  0
 22 15  1  1  0  0  0
 22 23  1  0  0  0  0
 22 25  1  0  0  0  0
 24 21  1  1  0  0  0
 24 18  1  0  0  0  0
 24 27  1  0  0  0  0
 25 16  2  0  0  0  0
 25 21  1  0  0  0  0
 26 17  1  0  0  0  0
M  END
>  <MODEL>
7

>  <REMARK>
 VINA RESULT:      -8.0      2.373      3.781
  Name = 
  2 active torsions:
  status: ('A' for Active; 'I' for Inactive)
    1  A    between atoms: C_8  and  C_14
    2  A    between atoms: C_13  and  C_14
                            x       y       z     vdW  Elec       q    Type
                         _______ _______ _______ _____ _____    ______ ____

>  <TORSDO>
F 2

$$$$
=
 OpenBabel11062422073D

 27 33  0  0  1  0  0  0  0  0999 V2000
  187.6080  176.5810  144.2450 C   0  0  0  0  0  0  0  0  0  0  0  0
  187.8250  176.7440  146.6680 C   0  0  0  0  0  0  0  0  0  0  0  0
  189.0310  176.1030  142.3730 O   0  0  0  0  0  0  0  0  0  0  0  0
  187.9090  176.4360  142.8390 C   0  0  0  0  0  0  0  0  0  0  0  0
  189.7840  176.8920  145.5270 C   0  0  0  0  0  0  0  0  0  0  0  0
  188.4660  176.2020  145.4260 C   0  0  2  0  0  3  0  0  0  0  0  0
  186.8600  177.9160  141.1720 C   0  0  0  0  0  1  0  0  0  0  0  0
  188.6160  177.4890  147.3650 N   0  0  0  0  0  0  0  0  0  0  0  0
  189.8610  177.5410  146.6800 C   0  0  0  0  0  3  0  0  0  0  0  0
  186.6910  176.6650  142.0140 C   0  0  2  0  0  3  0  0  0  0  0  0
  185.5940  176.8980  143.0650 C   0  0  0  0  0  2  0  0  0  0  0  0
  186.3060  176.7930  144.3760 C   0  0  0  0  0  0  0  0  0  0  0  0
  185.6650  176.8590  145.7080 C   0  0  0  0  0  3  0  0  0  0  0  0
  186.3990  176.8470  146.7840 N   0  0  0  0  0  0  0  0  0  0  0  0
  190.9510  176.6790  144.6220 C   0  0  0  0  0  2  0  0  0  0  0  0
  191.3260  173.7950  144.6100 C   0  0  0  0  0  3  0  0  0  0  0  0
  192.8680  171.9280  144.6380 C   0  0  0  0  0  3  0  0  0  0  0  0
  195.3520  175.7050  145.0250 N   0  0  2  0  0  0  0  0  0  0  0  0
  194.4350  176.4400  145.8620 N   0  0  1  0  0  0  0  0  0  0  0  0
  191.5950  172.4440  144.3750 C   0  0  0  0  0  3  0  0  0  0  0  0
  193.6110  174.1210  145.3600 C   0  0  0  0  0  0  0  0  0  0  0  0
  192.1310  176.0920  145.3910 C   0  0  2  0  0  3  0  0  0  0  0  0
  193.3580  176.7980  145.0130 N   0  0  0  0  0  2  0  0  0  0  0  0
  194.6220  175.0250  146.0250 C   0  0  1  0  0  0  0  0  0  0  0  0
  192.3390  174.6380  145.0950 C   0  0  0  0  0  0  0  0  0  0  0  0
  193.8710  172.7610  145.1410 C   0  0  0  0  0  3  0  0  0  0  0  0
  195.9720  174.6650  145.8030 N   0  0  0  0  0  2  0  0  0  0  0  0
  1 12  2  0  0  0  0
  2 14  1  0  0  0  0
  2  8  2  0  0  0  0
  3  4  2  0  0  0  0
  4  1  1  0  0  0  0
  5  9  2  0  0  0  0
  6  1  1  6  0  0  0
  6  5  1  0  0  0  0
  6  2  1  0  0  0  0
  9  8  1  0  0  0  0
 10  7  1  6  0  0  0
 10  4  1  0  0  0  0
 10 11  1  0  0  0  0
 11 12  1  0  0  0  0
 12 13  1  0  0  0  0
 13 14  2  0  0  0  0
 15  5  1  0  0  0  0
 16 25  1  0  0  0  0
 17 26  2  0  0  0  0
 18 27  1  1  0  0  0
 18 19  1  0  0  0  0
 18 24  1  0  0  0  0
 19 23  1  6  0  0  0
 19 24  1  0  0  0  0
 20 16  2  0  0  0  0
 20 17  1  0  0  0  0
 22 15  1  6  0  0  0
 23 22  1  0  0  0  0
 24 21  1  6  0  0  0
 25 21  2  0  0  0  0
 25 22  1  0  0  0  0
 26 21  1  0  0  0  0
 27 24  1  0  0  0  0
M  END
>  <MODEL>
8

>  <REMARK>
 VINA RESULT:      -7.8      2.311      3.047
  Name = 
  2 active torsions:
  status: ('A' for Active; 'I' for Inactive)
    1  A    between atoms: C_8  and  C_14
    2  A    between atoms: C_13  and  C_14
                            x       y       z     vdW  Elec       q    Type
                         _______ _______ _______ _____ _____    ______ ____

>  <TORSDO>
F 2

$$$$
=
 OpenBabel11062422073D

 27 33  0  0  1  0  0  0  0  0999 V2000
  190.9440  174.3980  142.9200 C   0  0  0  0  0  0  0  0  0  0  0  0
  189.2360  173.3370  141.5420 C   0  0  0  0  0  0  0  0  0  0  0  0
  191.1300  176.3400  144.3170 O   0  0  0  0  0  0  0  0  0  0  0  0
  191.6480  175.3300  143.7710 C   0  0  0  0  0  0  0  0  0  0  0  0
  188.8360  175.5180  142.0370 C   0  0  0  0  0  0  0  0  0  0  0  0
  189.4620  174.3140  142.6560 C   0  0  2  0  0  3  0  0  0  0  0  0
  194.0070  175.8920  143.3350 C   0  0  0  0  0  1  0  0  0  0  0  0
  188.5590  173.8320  140.5600 N   0  0  0  0  0  0  0  0  0  0  0  0
  188.2610  175.1830  140.8910 C   0  0  0  0  0  3  0  0  0  0  0  0
  193.0580  174.8960  143.9740 C   0  0  2  0  0  3  0  0  0  0  0  0
  193.1260  173.5620  143.2140 C   0  0  0  0  0  2  0  0  0  0  0  0
  191.7540  173.3860  142.6460 C   0  0  0  0  0  0  0  0  0  0  0  0
  191.2820  172.2010  141.8940 C   0  0  0  0  0  3  0  0  0  0  0  0
  190.0900  172.1990  141.3670 N   0  0  0  0  0  0  0  0  0  0  0  0
  188.6330  176.8350  142.7060 C   0  0  0  0  0  2  0  0  0  0  0  0
  187.8400  176.3330  145.4590 C   0  0  0  0  0  3  0  0  0  0  0  0
  186.3980  176.9150  147.3160 C   0  0  0  0  0  3  0  0  0  0  0  0
  185.1100  179.4630  143.7890 N   0  0  2  0  0  0  0  0  0  0  0  0
  185.3050  178.4650  142.7640 N   0  0  1  0  0  0  0  0  0  0  0  0
  187.5620  176.3130  146.8280 C   0  0  0  0  0  3  0  0  0  0  0  0
  185.7910  177.5740  145.0610 C   0  0  0  0  0  0  0  0  0  0  0  0
  187.1690  177.0260  143.0920 C   0  0  2  0  0  3  0  0  0  0  0  0
  186.7110  178.3380  142.6280 N   0  0  0  0  0  2  0  0  0  0  0  0
  184.7970  178.1130  144.0610 C   0  0  1  0  0  0  0  0  0  0  0  0
  186.9570  176.9730  144.5740 C   0  0  0  0  0  0  0  0  0  0  0  0
  185.5070  177.5340  146.4330 C   0  0  0  0  0  3  0  0  0  0  0  0
  183.9440  179.1240  144.5610 N   0  0  0  0  0  2  0  0  0  0  0  0
  1  4  1  0  0  0  0
  4 10  1  0  0  0  0
  4  3  2  0  0  0  0
  5  6  1  0  0  0  0
  5 15  1  0  0  0  0
  6  2  1  6  0  0  0
  6  1  1  0  0  0  0
  8  9  1  0  0  0  0
  8  2  2  0  0  0  0
  9  5  2  0  0  0  0
 10  7  1  6  0  0  0
 11 10  1  0  0  0  0
 12  1  2  0  0  0  0
 12 11  1  0  0  0  0
 13 12  1  0  0  0  0
 14  2  1  0  0  0  0
 14 13  2  0  0  0  0
 16 20  1  0  0  0  0
 18 24  1  0  0  0  0
 18 27  1  6  0  0  0
 19 23  1  1  0  0  0
 19 18  1  0  0  0  0
 19 24  1  0  0  0  0
 20 17  2  0  0  0  0
 21 26  2  0  0  0  0
 22 15  1  1  0  0  0
 22 25  1  0  0  0  0
 23 22  1  0  0  0  0
 24 27  1  1  0  0  0
 24 21  1  0  0  0  0
 25 21  1  0  0  0  0
 25 16  2  0  0  0  0
 26 17  1  0  0  0  0
M  END
>  <MODEL>
9

>  <REMARK>
 VINA RESULT:      -7.8      2.951      7.089
  Name = 
  2 active torsions:
  status: ('A' for Active; 'I' for Inactive)
    1  A    between atoms: C_8  and  C_14
    2  A    between atoms: C_13  and  C_14
                            x       y       z     vdW  Elec       q    Type
                         _______ _______ _______ _____ _____    ______ ____

>  <TORSDO>
F 2

$$$$
