=
 OpenBabel11062418253D

 48 50  0  0  1  0  0  0  0  0999 V2000
  190.7800  171.6140  142.8230 C   0  0  0  0  0  0  0  0  0  0  0  0
  189.4850  171.6070  143.5750 C   0  0  0  0  0  1  0  0  0  0  0  0
  190.9650  172.4760  141.8120 C   0  0  0  0  0  3  0  0  0  0  0  0
  191.0660  168.8690  141.8600 O   0  0  0  0  0  0  0  0  0  0  0  0
  191.8620  170.6740  143.2050 C   0  0  0  0  0  0  0  0  0  0  0  0
  193.2300  168.5110  142.7850 C   0  0  0  0  0  2  0  0  0  0  0  0
  193.8170  170.1230  144.5980 C   0  0  0  0  0  0  0  0  0  0  0  0
  194.0280  168.9520  143.9810 C   0  0  0  0  0  3  0  0  0  0  0  0
  192.7330  171.0190  144.1630 C   0  0  0  0  0  3  0  0  0  0  0  0
  191.9920  169.3370  142.5740 C   0  0  0  0  0  0  0  0  0  0  0  0
  194.6780  170.5530  145.7590 C   0  0  2  0  0  3  0  0  0  0  0  0
  194.3130  173.0480  145.5170 C   0  0  0  0  0  2  0  0  0  0  0  0
  196.6860  173.3530  143.9230 C   0  0  0  0  0  3  0  0  0  0  0  0
  196.0910  171.9890  144.1680 C   0  0  0  0  0  2  0  0  0  0  0  0
  195.0120  174.4080  145.4530 C   0  0  1  0  0  3  0  0  0  0  0  0
  195.3510  171.9250  145.5120 C   0  0  2  0  0  3  0  0  0  0  0  0
  196.1630  174.4620  144.4720 C   0  0  0  0  0  3  0  0  0  0  0  0
  194.0780  175.4640  145.2280 O   0  0  0  0  0  0  0  0  0  0  0  0
  193.0430  176.5230  147.0150 O   0  0  0  0  0  0  0  0  0  0  0  0
  194.7630  177.7550  145.9330 C   0  0  0  0  0  1  0  0  0  0  0  0
  193.9030  176.5530  146.0930 C   0  0  0  0  0  0  0  0  0  0  0  0
  195.7010  169.4570  146.1220 C   0  0  1  0  0  3  0  0  0  0  0  0
  196.9640  170.0100  146.3500 O   0  0  0  0  0  1  0  0  0  0  0  0
  194.2200  168.9710  147.9010 O   0  0  0  0  0  0  0  0  0  0  0  0
  195.2770  168.7070  147.3510 C   0  0  0  0  0  3  0  0  0  0  0  0
  189.9290  173.4490  141.3510 C   0  0  0  0  0  2  0  0  0  0  0  0
  191.8110  174.8600  141.7740 O   0  0  0  0  0  1  0  0  0  0  0  0
  190.4240  174.8700  141.5880 C   0  0  2  0  0  3  0  0  0  0  0  0
  189.7360  175.5310  142.7880 C   0  0  1  0  0  3  0  0  0  0  0  0
  190.4070  177.1360  144.6590 C   0  0  0  0  0  2  0  0  0  0  0  0
  190.7100  174.6780  144.9550 C   0  0  0  0  0  3  0  0  0  0  0  0
  189.7380  174.6100  145.8750 C   0  0  0  0  0  3  0  0  0  0  0  0
  189.2540  177.0640  145.6870 C   0  0  1  0  0  3  0  0  0  0  0  0
  190.7220  175.8050  143.9460 C   0  0  1  0  0  3  0  0  0  0  0  0
  188.2500  177.9490  145.3340 F   0  0  0  0  0  0  0  0  0  0  0  0
  188.6620  175.6570  145.8830 C   0  0  2  0  0  3  0  0  0  0  0  0
  187.9560  175.5900  147.0730 F   0  0  0  0  0  0  0  0  0  0  0  0
  189.0610  176.7620  142.3760 N   0  0  0  0  0  2  0  0  0  0  0  0
  187.8780  176.3610  141.6290 C   0  0  0  0  0  2  0  0  0  0  0  0
  186.7030  176.1940  142.5740 C   0  0  0  0  0  2  0  0  0  0  0  0
  185.7410  177.3610  142.4130 C   0  0  0  0  0  2  0  0  0  0  0  0
  184.9670  177.5460  143.6330 N   0  0  0  0  0  2  0  0  0  0  0  0
  185.8200  179.6750  144.0980 O   0  0  0  0  0  0  0  0  0  0  0  0
  185.0640  178.7260  144.4360 C   0  0  0  0  0  0  0  0  0  0  0  0
  184.2490  178.8470  145.6750 C   0  0  0  0  0  2  0  0  0  0  0  0
  184.5430  177.6830  146.6050 C   0  0  0  0  0  2  0  0  0  0  0  0
  185.8960  179.4010  147.6790 N   0  0  0  0  0  1  0  0  0  0  0  0
  185.7640  177.9760  147.4570 C   0  0  0  0  0  2  0  0  0  0  0  0
  1  5  1  0  0  0  0
  1  2  1  0  0  0  0
  3  1  2  0  0  0  0
  4 10  2  0  0  0  0
  5  9  2  0  0  0  0
  6  8  1  0  0  0  0
  7 11  1  0  0  0  0
  8  7  2  0  0  0  0
  9  7  1  0  0  0  0
 10  6  1  0  0  0  0
 10  5  1  0  0  0  0
 11 22  1  6  0  0  0
 13 14  1  0  0  0  0
 13 17  2  0  0  0  0
 14 16  1  0  0  0  0
 15 18  1  6  0  0  0
 15 12  1  0  0  0  0
 16 12  1  0  0  0  0
 16 11  1  6  0  0  0
 17 15  1  0  0  0  0
 18 21  1  0  0  0  0
 20 21  1  0  0  0  0
 21 19  2  0  0  0  0
 22 23  1  1  0  0  0
 22 25  1  0  0  0  0
 25 24  2  0  0  0  0
 26 28  1  0  0  0  0
 26  3  1  0  0  0  0
 28 27  1  1  0  0  0
 28 29  1  0  0  0  0
 29 38  1  6  0  0  0
 30 33  1  0  0  0  0
 31 32  2  0  0  0  0
 32 36  1  0  0  0  0
 33 35  1  6  0  0  0
 33 36  1  0  0  0  0
 34 29  1  6  0  0  0
 34 30  1  0  0  0  0
 34 31  1  0  0  0  0
 36 37  1  1  0  0  0
 39 38  1  0  0  0  0
 39 40  1  0  0  0  0
 41 40  1  0  0  0  0
 41 42  1  0  0  0  0
 42 44  1  0  0  0  0
 43 44  2  0  0  0  0
 44 45  1  0  0  0  0
 45 46  1  0  0  0  0
 46 48  1  0  0  0  0
 48 47  1  0  0  0  0
M  END
>  <MODEL>
1

>  <REMARK>
 VINA RESULT:      -6.6      0.000      0.000
  Name = 
  19 active torsions:
  status: ('A' for Active; 'I' for Inactive)
    1  A    between atoms: C_3  and  C_12
    2  A    between atoms: C_5  and  C_29
    3  A    between atoms: C_5  and  C_33
    4  A    between atoms: C_5  and  C_34
    5  A    between atoms: N_6  and  C_7
    6  A    between atoms: N_6  and  C_9
    7  A    between atoms: C_7  and  C_40
    8  A    between atoms: C_9  and  C_22
    9  A    between atoms: C_9  and  C_27
   10  A    between atoms: C_13  and  C_32
   11  A    between atoms: C_13  and  C_47
   12  A    between atoms: N_16  and  C_23
   13  A    between atoms: O_19  and  C_28
   14  A    between atoms: O_19  and  C_31
   15  A    between atoms: C_23  and  C_40
   16  A    between atoms: C_27  and  C_44
   17  A    between atoms: C_34  and  C_35
   18  A    between atoms: C_39  and  C_47
   19  A    between atoms: C_41  and  C_44
                            x       y       z     vdW  Elec       q    Type
                         _______ _______ _______ _____ _____    ______ ____

>  <TORSDO>
F 19

$$$$
=
 OpenBabel11062418253D

 48 50  0  0  1  0  0  0  0  0999 V2000
  190.4240  171.9710  143.4020 C   0  0  0  0  0  0  0  0  0  0  0  0
  189.5260  171.9030  144.5980 C   0  0  0  0  0  1  0  0  0  0  0  0
  190.1130  172.7710  142.3720 C   0  0  0  0  0  3  0  0  0  0  0  0
  190.8650  169.6180  141.7230 O   0  0  0  0  0  0  0  0  0  0  0  0
  191.6660  171.1580  143.3630 C   0  0  0  0  0  0  0  0  0  0  0  0
  193.1890  169.4140  142.1970 C   0  0  0  0  0  2  0  0  0  0  0  0
  193.8950  170.6230  144.2620 C   0  0  0  0  0  0  0  0  0  0  0  0
  194.1320  169.6830  143.3360 C   0  0  0  0  0  3  0  0  0  0  0  0
  192.6480  171.4050  144.2400 C   0  0  0  0  0  3  0  0  0  0  0  0
  191.8410  170.0500  142.3920 C   0  0  0  0  0  0  0  0  0  0  0  0
  194.8950  170.9020  145.3560 C   0  0  2  0  0  3  0  0  0  0  0  0
  194.9550  173.4030  145.7560 C   0  0  0  0  0  2  0  0  0  0  0  0
  196.5600  173.8510  143.4150 C   0  0  0  0  0  3  0  0  0  0  0  0
  195.8510  172.5370  143.6240 C   0  0  0  0  0  2  0  0  0  0  0  0
  195.8260  174.6580  145.6660 C   0  0  1  0  0  3  0  0  0  0  0  0
  195.6760  172.2160  145.1150 C   0  0  2  0  0  3  0  0  0  0  0  0
  196.5090  174.8360  144.3270 C   0  0  0  0  0  3  0  0  0  0  0  0
  195.0990  175.8260  146.0460 O   0  0  0  0  0  0  0  0  0  0  0  0
  192.9000  175.7940  146.7870 O   0  0  0  0  0  0  0  0  0  0  0  0
  193.2230  176.4260  144.5200 C   0  0  0  0  0  1  0  0  0  0  0  0
  193.7220  175.9900  145.8500 C   0  0  0  0  0  0  0  0  0  0  0  0
  195.8310  169.6960  145.5680 C   0  0  1  0  0  3  0  0  0  0  0  0
  197.1140  170.1180  145.9300 O   0  0  0  0  0  1  0  0  0  0  0  0
  194.5740  169.2160  147.5130 O   0  0  0  0  0  0  0  0  0  0  0  0
  195.3070  168.7830  146.6370 C   0  0  0  0  0  3  0  0  0  0  0  0
  188.8810  173.6140  142.3200 C   0  0  0  0  0  2  0  0  0  0  0  0
  190.6640  175.2030  142.2470 O   0  0  0  0  0  1  0  0  0  0  0  0
  189.2710  175.0800  142.1800 C   0  0  2  0  0  3  0  0  0  0  0  0
  188.6120  175.9600  143.2480 C   0  0  1  0  0  3  0  0  0  0  0  0
  189.2160  177.7420  144.9770 C   0  0  0  0  0  2  0  0  0  0  0  0
  189.7210  175.3420  145.4300 C   0  0  0  0  0  3  0  0  0  0  0  0
  188.7890  175.2660  146.3890 C   0  0  0  0  0  3  0  0  0  0  0  0
  188.1070  177.6560  146.0500 C   0  0  1  0  0  3  0  0  0  0  0  0
  189.6110  176.3910  144.3450 C   0  0  1  0  0  3  0  0  0  0  0  0
  187.0260  178.4340  145.6760 F   0  0  0  0  0  0  0  0  0  0  0  0
  187.6350  176.2260  146.3660 C   0  0  2  0  0  3  0  0  0  0  0  0
  186.9760  176.1910  147.5840 F   0  0  0  0  0  0  0  0  0  0  0  0
  187.9810  177.1270  142.6300 N   0  0  0  0  0  2  0  0  0  0  0  0
  186.7020  176.6790  142.0990 C   0  0  0  0  0  2  0  0  0  0  0  0
  185.6060  176.9230  143.1180 C   0  0  0  0  0  2  0  0  0  0  0  0
  185.0480  178.3270  142.9510 C   0  0  0  0  0  2  0  0  0  0  0  0
  183.6640  178.2690  142.5010 N   0  0  0  0  0  2  0  0  0  0  0  0
  184.1850  178.3280  140.2210 O   0  0  0  0  0  0  0  0  0  0  0  0
  183.3010  178.2840  141.1170 C   0  0  0  0  0  0  0  0  0  0  0  0
  181.8670  178.2280  140.7270 C   0  0  0  0  0  2  0  0  0  0  0  0
  181.0070  178.8330  141.8240 C   0  0  0  0  0  2  0  0  0  0  0  0
  179.5530  179.7590  140.1020 N   0  0  0  0  0  1  0  0  0  0  0  0
  179.5790  179.0140  141.3430 C   0  0  0  0  0  2  0  0  0  0  0  0
  1  2  1  0  0  0  0
  3  1  2  0  0  0  0
  4 10  2  0  0  0  0
  5  1  1  0  0  0  0
  5  9  2  0  0  0  0
  6 10  1  0  0  0  0
  6  8  1  0  0  0  0
  7 11  1  0  0  0  0
  8  7  2  0  0  0  0
  9  7  1  0  0  0  0
 10  5  1  0  0  0  0
 11 22  1  6  0  0  0
 13 14  1  0  0  0  0
 13 17  2  0  0  0  0
 14 16  1  0  0  0  0
 15 12  1  0  0  0  0
 15 18  1  6  0  0  0
 16 11  1  6  0  0  0
 16 12  1  0  0  0  0
 17 15  1  0  0  0  0
 20 21  1  0  0  0  0
 21 18  1  0  0  0  0
 21 19  2  0  0  0  0
 22 23  1  1  0  0  0
 22 25  1  0  0  0  0
 25 24  2  0  0  0  0
 26  3  1  0  0  0  0
 28 27  1  1  0  0  0
 28 26  1  0  0  0  0
 28 29  1  0  0  0  0
 29 38  1  6  0  0  0
 30 33  1  0  0  0  0
 31 32  2  0  0  0  0
 33 35  1  6  0  0  0
 33 36  1  0  0  0  0
 34 29  1  6  0  0  0
 34 30  1  0  0  0  0
 34 31  1  0  0  0  0
 36 32  1  0  0  0  0
 36 37  1  1  0  0  0
 39 38  1  0  0  0  0
 39 40  1  0  0  0  0
 41 40  1  0  0  0  0
 42 41  1  0  0  0  0
 43 44  2  0  0  0  0
 44 42  1  0  0  0  0
 45 44  1  0  0  0  0
 45 46  1  0  0  0  0
 47 48  1  0  0  0  0
 48 46  1  0  0  0  0
M  END
>  <MODEL>
2

>  <REMARK>
 VINA RESULT:      -6.4      2.032      2.612
  Name = 
  19 active torsions:
  status: ('A' for Active; 'I' for Inactive)
    1  A    between atoms: C_3  and  C_12
    2  A    between atoms: C_5  and  C_29
    3  A    between atoms: C_5  and  C_33
    4  A    between atoms: C_5  and  C_34
    5  A    between atoms: N_6  and  C_7
    6  A    between atoms: N_6  and  C_9
    7  A    between atoms: C_7  and  C_40
    8  A    between atoms: C_9  and  C_22
    9  A    between atoms: C_9  and  C_27
   10  A    between atoms: C_13  and  C_32
   11  A    between atoms: C_13  and  C_47
   12  A    between atoms: N_16  and  C_23
   13  A    between atoms: O_19  and  C_28
   14  A    between atoms: O_19  and  C_31
   15  A    between atoms: C_23  and  C_40
   16  A    between atoms: C_27  and  C_44
   17  A    between atoms: C_34  and  C_35
   18  A    between atoms: C_39  and  C_47
   19  A    between atoms: C_41  and  C_44
                            x       y       z     vdW  Elec       q    Type
                         _______ _______ _______ _____ _____    ______ ____

>  <TORSDO>
F 19

$$$$
=
 OpenBabel11062418253D

 48 50  0  0  1  0  0  0  0  0999 V2000
  188.9620  173.5310  141.4430 C   0  0  0  0  0  0  0  0  0  0  0  0
  187.8080  172.7790  142.0290 C   0  0  0  0  0  1  0  0  0  0  0  0
  188.8610  174.8500  141.2220 C   0  0  0  0  0  3  0  0  0  0  0  0
  189.3800  171.7930  139.1300 O   0  0  0  0  0  0  0  0  0  0  0  0
  190.2210  172.8170  141.1160 C   0  0  0  0  0  0  0  0  0  0  0  0
  191.7290  171.5530  139.4280 C   0  0  0  0  0  2  0  0  0  0  0  0
  192.5070  172.1330  141.7270 C   0  0  0  0  0  0  0  0  0  0  0  0
  192.7210  171.5160  140.5570 C   0  0  0  0  0  3  0  0  0  0  0  0
  191.2390  172.8360  141.9870 C   0  0  0  0  0  3  0  0  0  0  0  0
  190.3770  172.0490  139.8560 C   0  0  0  0  0  0  0  0  0  0  0  0
  193.5520  172.1200  142.8130 C   0  0  2  0  0  3  0  0  0  0  0  0
  193.7420  174.4410  143.8090 C   0  0  0  0  0  2  0  0  0  0  0  0
  195.2310  175.4100  141.5500 C   0  0  0  0  0  3  0  0  0  0  0  0
  194.4790  174.1050  141.4760 C   0  0  0  0  0  2  0  0  0  0  0  0
  194.6600  175.6550  143.9720 C   0  0  1  0  0  3  0  0  0  0  0  0
  194.3750  173.4310  142.8520 C   0  0  2  0  0  3  0  0  0  0  0  0
  195.2730  176.1400  142.6760 C   0  0  0  0  0  3  0  0  0  0  0  0
  194.0060  176.7130  144.6740 O   0  0  0  0  0  0  0  0  0  0  0  0
  194.6800  177.5700  146.7220 O   0  0  0  0  0  0  0  0  0  0  0  0
  192.9240  175.9710  146.7930 C   0  0  0  0  0  1  0  0  0  0  0  0
  193.9280  176.7950  146.0700 C   0  0  0  0  0  0  0  0  0  0  0  0
  194.4490  170.8710  142.7000 C   0  0  1  0  0  3  0  0  0  0  0  0
  195.7900  171.2320  142.5400 O   0  0  0  0  0  1  0  0  0  0  0  0
  193.6610  170.3720  144.8740 O   0  0  0  0  0  0  0  0  0  0  0  0
  194.3290  170.0050  143.9200 C   0  0  0  0  0  3  0  0  0  0  0  0
  187.6310  175.6480  141.5090 C   0  0  0  0  0  2  0  0  0  0  0  0
  189.2530  177.3750  141.8260 O   0  0  0  0  0  1  0  0  0  0  0  0
  188.0100  176.9110  142.2720 C   0  0  2  0  0  3  0  0  0  0  0  0
  188.0450  176.6850  143.7880 C   0  0  1  0  0  3  0  0  0  0  0  0
  189.5350  177.4950  145.6980 C   0  0  0  0  0  2  0  0  0  0  0  0
  190.0580  175.3550  144.5280 C   0  0  0  0  0  3  0  0  0  0  0  0
  189.7290  174.6210  145.5990 C   0  0  0  0  0  3  0  0  0  0  0  0
  189.1100  176.6580  146.9260 C   0  0  1  0  0  3  0  0  0  0  0  0
  189.4820  176.7430  144.3520 C   0  0  1  0  0  3  0  0  0  0  0  0
  188.0340  177.2570  147.5570 F   0  0  0  0  0  0  0  0  0  0  0  0
  188.7760  175.1890  146.6110 C   0  0  2  0  0  3  0  0  0  0  0  0
  188.8140  174.4250  147.7670 F   0  0  0  0  0  0  0  0  0  0  0  0
  187.1780  177.6480  144.4690 N   0  0  0  0  0  2  0  0  0  0  0  0
  185.9980  176.9160  144.9030 C   0  0  0  0  0  2  0  0  0  0  0  0
  184.8720  177.8850  145.2070 C   0  0  0  0  0  2  0  0  0  0  0  0
  184.8400  178.9850  144.1570 C   0  0  0  0  0  2  0  0  0  0  0  0
  183.6790  178.8220  143.2930 N   0  0  0  0  0  2  0  0  0  0  0  0
  184.8650  177.8300  141.5370 O   0  0  0  0  0  0  0  0  0  0  0  0
  183.7640  178.2450  141.9860 C   0  0  0  0  0  0  0  0  0  0  0  0
  182.5390  178.1150  141.1540 C   0  0  0  0  0  2  0  0  0  0  0  0
  181.3740  178.8160  141.8310 C   0  0  0  0  0  2  0  0  0  0  0  0
  179.3170  177.8890  140.9100 N   0  0  0  0  0  1  0  0  0  0  0  0
  180.2280  179.0130  140.8550 C   0  0  0  0  0  2  0  0  0  0  0  0
  1  2  1  0  0  0  0
  3  1  2  0  0  0  0
  3 26  1  0  0  0  0
  4 10  2  0  0  0  0
  5  1  1  0  0  0  0
  5  9  2  0  0  0  0
  6 10  1  0  0  0  0
  6  8  1  0  0  0  0
  7  9  1  0  0  0  0
  7 11  1  0  0  0  0
  8  7  2  0  0  0  0
 10  5  1  0  0  0  0
 11 22  1  6  0  0  0
 12 15  1  0  0  0  0
 13 17  2  0  0  0  0
 14 13  1  0  0  0  0
 14 16  1  0  0  0  0
 15 18  1  6  0  0  0
 16 11  1  6  0  0  0
 16 12  1  0  0  0  0
 17 15  1  0  0  0  0
 18 21  1  0  0  0  0
 21 19  2  0  0  0  0
 21 20  1  0  0  0  0
 22 23  1  1  0  0  0
 22 25  1  0  0  0  0
 25 24  2  0  0  0  0
 26 28  1  0  0  0  0
 28 27  1  6  0  0  0
 28 29  1  0  0  0  0
 29 38  1  1  0  0  0
 30 33  1  0  0  0  0
 31 32  2  0  0  0  0
 32 36  1  0  0  0  0
 33 35  1  6  0  0  0
 34 29  1  1  0  0  0
 34 31  1  0  0  0  0
 34 30  1  0  0  0  0
 36 33  1  0  0  0  0
 36 37  1  1  0  0  0
 38 39  1  0  0  0  0
 39 40  1  0  0  0  0
 41 40  1  0  0  0  0
 42 41  1  0  0  0  0
 43 44  2  0  0  0  0
 44 42  1  0  0  0  0
 45 46  1  0  0  0  0
 45 44  1  0  0  0  0
 48 47  1  0  0  0  0
 48 46  1  0  0  0  0
M  END
>  <MODEL>
3

>  <REMARK>
 VINA RESULT:      -6.3      2.514      3.600
  Name = 
  19 active torsions:
  status: ('A' for Active; 'I' for Inactive)
    1  A    between atoms: C_3  and  C_12
    2  A    between atoms: C_5  and  C_29
    3  A    between atoms: C_5  and  C_33
    4  A    between atoms: C_5  and  C_34
    5  A    between atoms: N_6  and  C_7
    6  A    between atoms: N_6  and  C_9
    7  A    between atoms: C_7  and  C_40
    8  A    between atoms: C_9  and  C_22
    9  A    between atoms: C_9  and  C_27
   10  A    between atoms: C_13  and  C_32
   11  A    between atoms: C_13  and  C_47
   12  A    between atoms: N_16  and  C_23
   13  A    between atoms: O_19  and  C_28
   14  A    between atoms: O_19  and  C_31
   15  A    between atoms: C_23  and  C_40
   16  A    between atoms: C_27  and  C_44
   17  A    between atoms: C_34  and  C_35
   18  A    between atoms: C_39  and  C_47
   19  A    between atoms: C_41  and  C_44
                            x       y       z     vdW  Elec       q    Type
                         _______ _______ _______ _____ _____    ______ ____

>  <TORSDO>
F 19

$$$$
=
 OpenBabel11062418253D

 48 50  0  0  1  0  0  0  0  0999 V2000
  191.9600  172.4460  142.4940 C   0  0  0  0  0  0  0  0  0  0  0  0
  191.9510  171.0070  142.9070 C   0  0  0  0  0  1  0  0  0  0  0  0
  193.1030  173.0230  142.0960 C   0  0  0  0  0  3  0  0  0  0  0  0
  189.8390  172.3100  140.4870 O   0  0  0  0  0  0  0  0  0  0  0  0
  190.7000  173.2290  142.5160 C   0  0  0  0  0  0  0  0  0  0  0  0
  188.2690  173.6210  141.7050 C   0  0  0  0  0  2  0  0  0  0  0  0
  189.3070  175.0040  143.5040 C   0  0  0  0  0  0  0  0  0  0  0  0
  188.2760  174.7640  142.6820 C   0  0  0  0  0  3  0  0  0  0  0  0
  190.5280  174.1820  143.4410 C   0  0  0  0  0  3  0  0  0  0  0  0
  189.6270  173.0070  141.5150 C   0  0  0  0  0  0  0  0  0  0  0  0
  189.2510  176.1260  144.5100 C   0  0  2  0  0  3  0  0  0  0  0  0
  186.9230  177.1230  144.5380 C   0  0  0  0  0  2  0  0  0  0  0  0
  186.6880  176.7780  147.3810 C   0  0  0  0  0  3  0  0  0  0  0  0
  188.0290  176.6740  146.6990 C   0  0  0  0  0  2  0  0  0  0  0  0
  185.5350  177.0270  145.1760 C   0  0  1  0  0  3  0  0  0  0  0  0
  187.8940  176.1810  145.2510 C   0  0  2  0  0  3  0  0  0  0  0  0
  185.5570  176.9870  146.6890 C   0  0  0  0  0  3  0  0  0  0  0  0
  184.6650  178.0490  144.6890 O   0  0  0  0  0  0  0  0  0  0  0  0
  185.5170  180.0380  143.8490 O   0  0  0  0  0  0  0  0  0  0  0  0
  184.7160  178.4880  142.2360 C   0  0  0  0  0  1  0  0  0  0  0  0
  184.9860  178.9140  143.6340 C   0  0  0  0  0  0  0  0  0  0  0  0
  189.6140  177.4730  143.8540 C   0  0  1  0  0  3  0  0  0  0  0  0
  190.1840  178.3450  144.7860 O   0  0  0  0  0  1  0  0  0  0  0  0
  191.7800  177.4190  142.9060 O   0  0  0  0  0  0  0  0  0  0  0  0
  190.5810  177.2830  142.7220 C   0  0  0  0  0  3  0  0  0  0  0  0
  194.4190  172.3170  142.0540 C   0  0  0  0  0  2  0  0  0  0  0  0
  196.2060  172.2580  143.6390 O   0  0  0  0  0  1  0  0  0  0  0  0
  195.4540  173.1190  142.8320 C   0  0  2  0  0  3  0  0  0  0  0  0
  194.8120  174.2170  143.6890 C   0  0  1  0  0  3  0  0  0  0  0  0
  195.3990  175.1700  145.9860 C   0  0  0  0  0  2  0  0  0  0  0  0
  193.6300  173.4240  145.7740 C   0  0  0  0  0  3  0  0  0  0  0  0
  192.6560  174.2910  146.0820 C   0  0  0  0  0  3  0  0  0  0  0  0
  194.2800  176.1900  146.2990 C   0  0  1  0  0  3  0  0  0  0  0  0
  194.9380  173.9240  145.2010 C   0  0  1  0  0  3  0  0  0  0  0  0
  194.5940  177.4190  145.7470 F   0  0  0  0  0  0  0  0  0  0  0  0
  192.8760  175.7560  145.8410 C   0  0  2  0  0  3  0  0  0  0  0  0
  191.9040  176.4880  146.5030 F   0  0  0  0  0  0  0  0  0  0  0  0
  195.3860  175.5230  143.3610 N   0  0  0  0  0  2  0  0  0  0  0  0
  196.3930  175.2920  142.3370 C   0  0  0  0  0  2  0  0  0  0  0  0
  196.2110  176.2820  141.2020 C   0  0  0  0  0  2  0  0  0  0  0  0
  194.9150  175.9870  140.4630 C   0  0  0  0  0  2  0  0  0  0  0  0
  195.1720  175.1130  139.3260 N   0  0  0  0  0  2  0  0  0  0  0  0
  192.9380  174.4780  139.0430 O   0  0  0  0  0  0  0  0  0  0  0  0
  194.1360  174.3770  138.6680 C   0  0  0  0  0  0  0  0  0  0  0  0
  194.4700  173.4970  137.5170 C   0  0  0  0  0  2  0  0  0  0  0  0
  193.2860  173.4100  136.5690 C   0  0  0  0  0  2  0  0  0  0  0  0
  191.3740  171.9480  136.9510 N   0  0  0  0  0  1  0  0  0  0  0  0
  192.7530  171.9900  136.5100 C   0  0  0  0  0  2  0  0  0  0  0  0
  1  5  1  0  0  0  0
  1  2  1  0  0  0  0
  3  1  2  0  0  0  0
  4 10  2  0  0  0  0
  5  9  2  0  0  0  0
  6  8  1  0  0  0  0
  7 11  1  0  0  0  0
  8  7  2  0  0  0  0
  9  7  1  0  0  0  0
 10  6  1  0  0  0  0
 10  5  1  0  0  0  0
 11 22  1  6  0  0  0
 12 15  1  0  0  0  0
 12 16  1  0  0  0  0
 14 13  1  0  0  0  0
 15 18  1  1  0  0  0
 15 17  1  0  0  0  0
 16 11  1  6  0  0  0
 16 14  1  0  0  0  0
 17 13  2  0  0  0  0
 20 21  1  0  0  0  0
 21 19  2  0  0  0  0
 21 18  1  0  0  0  0
 22 23  1  1  0  0  0
 25 24  2  0  0  0  0
 25 22  1  0  0  0  0
 26  3  1  0  0  0  0
 26 28  1  0  0  0  0
 28 27  1  1  0  0  0
 28 29  1  0  0  0  0
 29 38  1  1  0  0  0
 30 33  1  0  0  0  0
 31 32  2  0  0  0  0
 33 35  1  6  0  0  0
 34 29  1  6  0  0  0
 34 31  1  0  0  0  0
 34 30  1  0  0  0  0
 36 32  1  0  0  0  0
 36 33  1  0  0  0  0
 36 37  1  1  0  0  0
 39 38  1  0  0  0  0
 40 39  1  0  0  0  0
 41 40  1  0  0  0  0
 42 41  1  0  0  0  0
 44 43  2  0  0  0  0
 44 42  1  0  0  0  0
 45 44  1  0  0  0  0
 46 45  1  0  0  0  0
 48 46  1  0  0  0  0
 48 47  1  0  0  0  0
M  END
>  <MODEL>
4

>  <REMARK>
 VINA RESULT:      -6.1      3.426      8.488
  Name = 
  19 active torsions:
  status: ('A' for Active; 'I' for Inactive)
    1  A    between atoms: C_3  and  C_12
    2  A    between atoms: C_5  and  C_29
    3  A    between atoms: C_5  and  C_33
    4  A    between atoms: C_5  and  C_34
    5  A    between atoms: N_6  and  C_7
    6  A    between atoms: N_6  and  C_9
    7  A    between atoms: C_7  and  C_40
    8  A    between atoms: C_9  and  C_22
    9  A    between atoms: C_9  and  C_27
   10  A    between atoms: C_13  and  C_32
   11  A    between atoms: C_13  and  C_47
   12  A    between atoms: N_16  and  C_23
   13  A    between atoms: O_19  and  C_28
   14  A    between atoms: O_19  and  C_31
   15  A    between atoms: C_23  and  C_40
   16  A    between atoms: C_27  and  C_44
   17  A    between atoms: C_34  and  C_35
   18  A    between atoms: C_39  and  C_47
   19  A    between atoms: C_41  and  C_44
                            x       y       z     vdW  Elec       q    Type
                         _______ _______ _______ _____ _____    ______ ____

>  <TORSDO>
F 19

$$$$
=
 OpenBabel11062418253D

 48 50  0  0  1  0  0  0  0  0999 V2000
  189.2800  174.0020  141.5170 C   0  0  0  0  0  0  0  0  0  0  0  0
  188.2990  172.9370  141.8950 C   0  0  0  0  0  1  0  0  0  0  0  0
  189.1340  175.2490  141.9910 C   0  0  0  0  0  3  0  0  0  0  0  0
  189.1440  173.7240  138.6100 O   0  0  0  0  0  0  0  0  0  0  0  0
  190.4220  173.6750  140.6270 C   0  0  0  0  0  0  0  0  0  0  0  0
  191.4960  173.5900  138.2690 C   0  0  0  0  0  2  0  0  0  0  0  0
  192.7700  172.9960  140.3300 C   0  0  0  0  0  0  0  0  0  0  0  0
  192.7100  173.0800  138.9940 C   0  0  0  0  0  3  0  0  0  0  0  0
  191.6060  173.3470  141.1600 C   0  0  0  0  0  3  0  0  0  0  0  0
  190.2810  173.6700  139.1500 C   0  0  0  0  0  0  0  0  0  0  0  0
  194.0280  172.5330  141.0210 C   0  0  2  0  0  3  0  0  0  0  0  0
  195.7210  173.6360  142.5500 C   0  0  0  0  0  2  0  0  0  0  0  0
  195.4740  176.1550  141.1900 C   0  0  0  0  0  3  0  0  0  0  0  0
  194.4540  175.0640  140.9830 C   0  0  0  0  0  2  0  0  0  0  0  0
  196.8690  174.6450  142.6130 C   0  0  1  0  0  3  0  0  0  0  0  0
  195.0690  173.6690  141.1660 C   0  0  2  0  0  3  0  0  0  0  0  0
  196.5510  175.9790  141.9720 C   0  0  0  0  0  3  0  0  0  0  0  0
  197.3510  174.8040  143.9470 O   0  0  0  0  0  0  0  0  0  0  0  0
  195.6250  175.4810  145.3430 O   0  0  0  0  0  0  0  0  0  0  0  0
  196.7910  173.5200  146.0090 C   0  0  0  0  0  1  0  0  0  0  0  0
  196.5530  174.6640  145.0900 C   0  0  0  0  0  0  0  0  0  0  0  0
  194.6140  171.2890  140.3240 C   0  0  1  0  0  3  0  0  0  0  0  0
  195.8470  170.9390  140.8820 O   0  0  0  0  0  1  0  0  0  0  0  0
  193.5930  169.3110  139.5260 O   0  0  0  0  0  0  0  0  0  0  0  0
  193.6860  170.1150  140.4390 C   0  0  0  0  0  3  0  0  0  0  0  0
  188.0120  175.6710  142.8820 C   0  0  0  0  0  2  0  0  0  0  0  0
  189.1280  177.7550  143.2290 O   0  0  0  0  0  1  0  0  0  0  0  0
  188.5210  176.6850  143.8980 C   0  0  2  0  0  3  0  0  0  0  0  0
  189.5040  176.0630  144.8960 C   0  0  1  0  0  3  0  0  0  0  0  0
  191.5710  176.7500  146.2310 C   0  0  0  0  0  2  0  0  0  0  0  0
  191.8000  176.0530  143.8480 C   0  0  0  0  0  3  0  0  0  0  0  0
  192.4290  174.9170  144.1790 C   0  0  0  0  0  3  0  0  0  0  0  0
  192.2550  175.4230  146.6300 C   0  0  1  0  0  3  0  0  0  0  0  0
  190.8930  176.7380  144.8460 C   0  0  1  0  0  3  0  0  0  0  0  0
  191.7020  174.9390  147.8020 F   0  0  0  0  0  0  0  0  0  0  0  0
  192.2120  174.3320  145.5450 C   0  0  2  0  0  3  0  0  0  0  0  0
  193.1700  173.3630  145.7930 F   0  0  0  0  0  0  0  0  0  0  0  0
  188.9520  176.1060  146.2510 N   0  0  0  0  0  2  0  0  0  0  0  0
  187.8280  177.0290  146.2160 C   0  0  0  0  0  2  0  0  0  0  0  0
  186.8300  176.6680  147.2990 C   0  0  0  0  0  2  0  0  0  0  0  0
  185.4190  176.6930  146.7300 C   0  0  0  0  0  2  0  0  0  0  0  0
  185.3880  177.4660  145.4960 N   0  0  0  0  0  2  0  0  0  0  0  0
  183.5940  178.8200  146.1450 O   0  0  0  0  0  0  0  0  0  0  0  0
  184.4390  178.5120  145.2640 C   0  0  0  0  0  0  0  0  0  0  0  0
  184.4600  179.2570  143.9770 C   0  0  0  0  0  2  0  0  0  0  0  0
  185.8720  179.2900  143.4190 C   0  0  0  0  0  2  0  0  0  0  0  0
  185.0800  177.5720  141.8820 N   0  0  0  0  0  1  0  0  0  0  0  0
  185.8950  178.7640  141.9950 C   0  0  0  0  0  2  0  0  0  0  0  0
  1  2  1  0  0  0  0
  1  3  2  0  0  0  0
  3 26  1  0  0  0  0
  4 10  2  0  0  0  0
  5  9  2  0  0  0  0
  5  1  1  0  0  0  0
  6  8  1  0  0  0  0
  6 10  1  0  0  0  0
  7 11  1  0  0  0  0
  7  9  1  0  0  0  0
  8  7  2  0  0  0  0
 10  5  1  0  0  0  0
 11 22  1  6  0  0  0
 12 15  1  0  0  0  0
 13 17  2  0  0  0  0
 14 16  1  0  0  0  0
 14 13  1  0  0  0  0
 15 18  1  1  0  0  0
 16 11  1  1  0  0  0
 16 12  1  0  0  0  0
 17 15  1  0  0  0  0
 18 21  1  0  0  0  0
 21 19  2  0  0  0  0
 21 20  1  0  0  0  0
 22 25  1  0  0  0  0
 22 23  1  1  0  0  0
 24 25  2  0  0  0  0
 26 28  1  0  0  0  0
 28 27  1  6  0  0  0
 28 29  1  0  0  0  0
 29 38  1  1  0  0  0
 30 33  1  0  0  0  0
 31 32  2  0  0  0  0
 31 34  1  0  0  0  0
 32 36  1  0  0  0  0
 33 35  1  1  0  0  0
 34 29  1  1  0  0  0
 34 30  1  0  0  0  0
 36 37  1  1  0  0  0
 36 33  1  0  0  0  0
 39 38  1  0  0  0  0
 39 40  1  0  0  0  0
 41 40  1  0  0  0  0
 42 41  1  0  0  0  0
 44 42  1  0  0  0  0
 44 43  2  0  0  0  0
 45 44  1  0  0  0  0
 46 45  1  0  0  0  0
 47 48  1  0  0  0  0
 48 46  1  0  0  0  0
M  END
>  <MODEL>
5

>  <REMARK>
 VINA RESULT:      -6.0      2.925      4.458
  Name = 
  19 active torsions:
  status: ('A' for Active; 'I' for Inactive)
    1  A    between atoms: C_3  and  C_12
    2  A    between atoms: C_5  and  C_29
    3  A    between atoms: C_5  and  C_33
    4  A    between atoms: C_5  and  C_34
    5  A    between atoms: N_6  and  C_7
    6  A    between atoms: N_6  and  C_9
    7  A    between atoms: C_7  and  C_40
    8  A    between atoms: C_9  and  C_22
    9  A    between atoms: C_9  and  C_27
   10  A    between atoms: C_13  and  C_32
   11  A    between atoms: C_13  and  C_47
   12  A    between atoms: N_16  and  C_23
   13  A    between atoms: O_19  and  C_28
   14  A    between atoms: O_19  and  C_31
   15  A    between atoms: C_23  and  C_40
   16  A    between atoms: C_27  and  C_44
   17  A    between atoms: C_34  and  C_35
   18  A    between atoms: C_39  and  C_47
   19  A    between atoms: C_41  and  C_44
                            x       y       z     vdW  Elec       q    Type
                         _______ _______ _______ _____ _____    ______ ____

>  <TORSDO>
F 19

$$$$
=
 OpenBabel11062418253D

 48 50  0  0  1  0  0  0  0  0999 V2000
  190.8690  177.2170  143.8060 C   0  0  0  0  0  0  0  0  0  0  0  0
  191.2100  178.6610  143.6100 C   0  0  0  0  0  1  0  0  0  0  0  0
  189.7910  176.6930  143.2060 C   0  0  0  0  0  3  0  0  0  0  0  0
  190.7480  177.0460  146.7220 O   0  0  0  0  0  0  0  0  0  0  0  0
  191.7340  176.3620  144.6580 C   0  0  0  0  0  0  0  0  0  0  0  0
  192.2340  175.1970  146.9190 C   0  0  0  0  0  2  0  0  0  0  0  0
  193.6550  174.8410  144.9000 C   0  0  0  0  0  0  0  0  0  0  0  0
  193.4320  174.6370  146.2050 C   0  0  0  0  0  3  0  0  0  0  0  0
  192.7530  175.6910  144.1050 C   0  0  0  0  0  3  0  0  0  0  0  0
  191.5210  176.2530  146.1220 C   0  0  0  0  0  0  0  0  0  0  0  0
  194.8390  174.2130  144.2080 C   0  0  2  0  0  3  0  0  0  0  0  0
  193.4630  172.1890  143.5550 C   0  0  0  0  0  2  0  0  0  0  0  0
  194.6820  170.5650  145.5880 C   0  0  0  0  0  3  0  0  0  0  0  0
  194.8200  172.0660  145.6150 C   0  0  0  0  0  2  0  0  0  0  0  0
  193.4850  170.6680  143.3950 C   0  0  1  0  0  3  0  0  0  0  0  0
  194.7630  172.6670  144.2030 C   0  0  2  0  0  3  0  0  0  0  0  0
  194.0310  169.9310  144.5990 C   0  0  0  0  0  3  0  0  0  0  0  0
  192.2060  170.1650  143.0060 O   0  0  0  0  0  0  0  0  0  0  0  0
  191.6800  170.7990  140.8360 O   0  0  0  0  0  0  0  0  0  0  0  0
  190.1050  171.4100  142.5070 C   0  0  0  0  0  1  0  0  0  0  0  0
  191.3770  170.7830  142.0610 C   0  0  0  0  0  0  0  0  0  0  0  0
  196.1640  174.7300  144.8050 C   0  0  1  0  0  3  0  0  0  0  0  0
  197.2040  173.8290  144.5650 O   0  0  0  0  0  1  0  0  0  0  0  0
  196.2980  176.3090  143.0490 O   0  0  0  0  0  0  0  0  0  0  0  0
  196.5380  176.0600  144.2190 C   0  0  0  0  0  3  0  0  0  0  0  0
  188.8590  177.4790  142.3420 C   0  0  0  0  0  2  0  0  0  0  0  0
  187.3070  176.4010  140.8790 O   0  0  0  0  0  1  0  0  0  0  0  0
  187.5330  176.7390  142.2180 C   0  0  2  0  0  3  0  0  0  0  0  0
  186.3570  177.5590  142.7610 C   0  0  1  0  0  3  0  0  0  0  0  0
  185.7140  179.6400  144.0970 C   0  0  0  0  0  2  0  0  0  0  0  0
  187.1730  177.8980  145.1260 C   0  0  0  0  0  3  0  0  0  0  0  0
  186.2130  177.5150  145.9800 C   0  0  0  0  0  3  0  0  0  0  0  0
  184.5840  179.1780  145.0460 C   0  0  1  0  0  3  0  0  0  0  0  0
  186.8050  178.5830  143.8280 C   0  0  1  0  0  3  0  0  0  0  0  0
  183.3630  179.2570  144.4000 F   0  0  0  0  0  0  0  0  0  0  0  0
  184.7760  177.7660  145.6260 C   0  0  2  0  0  3  0  0  0  0  0  0
  183.9830  177.5910  146.7480 F   0  0  0  0  0  0  0  0  0  0  0  0
  185.6480  178.2230  141.6670 N   0  0  0  0  0  2  0  0  0  0  0  0
  184.3340  177.6030  141.5810 C   0  0  0  0  0  2  0  0  0  0  0  0
  183.3890  178.5010  140.8070 C   0  0  0  0  0  2  0  0  0  0  0  0
  181.9570  178.2480  141.2510 C   0  0  0  0  0  2  0  0  0  0  0  0
  181.0390  179.0810  140.4860 N   0  0  0  0  0  2  0  0  0  0  0  0
  179.1420  177.8020  140.9770 O   0  0  0  0  0  0  0  0  0  0  0  0
  179.6410  178.7930  140.3810 C   0  0  0  0  0  0  0  0  0  0  0  0
  178.7610  179.6810  139.5760 C   0  0  0  0  0  2  0  0  0  0  0  0
  178.7000  181.0610  140.2070 C   0  0  0  0  0  2  0  0  0  0  0  0
  178.6980  181.6020  137.8320 N   0  0  0  0  0  1  0  0  0  0  0  0
  178.9140  182.1380  139.1590 C   0  0  0  0  0  2  0  0  0  0  0  0
  1  5  1  0  0  0  0
  2  1  1  0  0  0  0
  3  1  2  0  0  0  0
  5 10  1  0  0  0  0
  7  8  2  0  0  0  0
  8  6  1  0  0  0  0
  9  5  2  0  0  0  0
  9  7  1  0  0  0  0
 10  4  2  0  0  0  0
 10  6  1  0  0  0  0
 11 22  1  1  0  0  0
 11  7  1  0  0  0  0
 12 16  1  0  0  0  0
 13 14  1  0  0  0  0
 15 18  1  1  0  0  0
 15 12  1  0  0  0  0
 15 17  1  0  0  0  0
 16 11  1  1  0  0  0
 16 14  1  0  0  0  0
 17 13  2  0  0  0  0
 19 21  2  0  0  0  0
 21 20  1  0  0  0  0
 21 18  1  0  0  0  0
 22 23  1  6  0  0  0
 24 25  2  0  0  0  0
 25 22  1  0  0  0  0
 26  3  1  0  0  0  0
 28 27  1  6  0  0  0
 28 26  1  0  0  0  0
 28 29  1  0  0  0  0
 29 38  1  6  0  0  0
 30 33  1  0  0  0  0
 31 32  2  0  0  0  0
 33 35  1  6  0  0  0
 33 36  1  0  0  0  0
 34 29  1  6  0  0  0
 34 30  1  0  0  0  0
 34 31  1  0  0  0  0
 36 32  1  0  0  0  0
 36 37  1  1  0  0  0
 39 38  1  0  0  0  0
 40 41  1  0  0  0  0
 40 39  1  0  0  0  0
 42 41  1  0  0  0  0
 44 42  1  0  0  0  0
 44 43  2  0  0  0  0
 45 46  1  0  0  0  0
 45 44  1  0  0  0  0
 47 48  1  0  0  0  0
 48 46  1  0  0  0  0
M  END
>  <MODEL>
6

>  <REMARK>
 VINA RESULT:      -5.9      3.598      6.213
  Name = 
  19 active torsions:
  status: ('A' for Active; 'I' for Inactive)
    1  A    between atoms: C_3  and  C_12
    2  A    between atoms: C_5  and  C_29
    3  A    between atoms: C_5  and  C_33
    4  A    between atoms: C_5  and  C_34
    5  A    between atoms: N_6  and  C_7
    6  A    between atoms: N_6  and  C_9
    7  A    between atoms: C_7  and  C_40
    8  A    between atoms: C_9  and  C_22
    9  A    between atoms: C_9  and  C_27
   10  A    between atoms: C_13  and  C_32
   11  A    between atoms: C_13  and  C_47
   12  A    between atoms: N_16  and  C_23
   13  A    between atoms: O_19  and  C_28
   14  A    between atoms: O_19  and  C_31
   15  A    between atoms: C_23  and  C_40
   16  A    between atoms: C_27  and  C_44
   17  A    between atoms: C_34  and  C_35
   18  A    between atoms: C_39  and  C_47
   19  A    between atoms: C_41  and  C_44
                            x       y       z     vdW  Elec       q    Type
                         _______ _______ _______ _____ _____    ______ ____

>  <TORSDO>
F 19

$$$$
=
 OpenBabel11062418253D

 48 50  0  0  1  0  0  0  0  0999 V2000
  193.4970  172.0310  144.0050 C   0  0  0  0  0  0  0  0  0  0  0  0
  193.7420  170.8260  144.8590 C   0  0  0  0  0  1  0  0  0  0  0  0
  193.0650  171.8840  142.7440 C   0  0  0  0  0  3  0  0  0  0  0  0
  195.6920  172.8020  145.7740 O   0  0  0  0  0  0  0  0  0  0  0  0
  193.7230  173.3890  144.5590 C   0  0  0  0  0  0  0  0  0  0  0  0
  195.2650  175.1420  145.6860 C   0  0  0  0  0  2  0  0  0  0  0  0
  192.9630  175.7060  144.9050 C   0  0  0  0  0  0  0  0  0  0  0  0
  194.0880  176.0650  145.5400 C   0  0  0  0  0  3  0  0  0  0  0  0
  192.8040  174.3450  144.3660 C   0  0  0  0  0  3  0  0  0  0  0  0
  194.9320  173.7140  145.3560 C   0  0  0  0  0  0  0  0  0  0  0  0
  191.8270  176.6820  144.7310 C   0  0  2  0  0  3  0  0  0  0  0  0
  189.6070  177.3380  145.7590 C   0  0  0  0  0  2  0  0  0  0  0  0
  189.4560  174.8960  147.2670 C   0  0  0  0  0  3  0  0  0  0  0  0
  190.7520  175.3320  146.6310 C   0  0  0  0  0  2  0  0  0  0  0  0
  188.2440  176.8150  146.2170 C   0  0  1  0  0  3  0  0  0  0  0  0
  190.5120  176.1700  145.3670 C   0  0  2  0  0  3  0  0  0  0  0  0
  188.3230  175.6000  147.1160 C   0  0  0  0  0  3  0  0  0  0  0  0
  187.4570  177.8530  146.8020 O   0  0  0  0  0  0  0  0  0  0  0  0
  185.5010  178.4930  147.8750 O   0  0  0  0  0  0  0  0  0  0  0  0
  185.2760  176.7870  146.2360 C   0  0  0  0  0  1  0  0  0  0  0  0
  186.0770  177.7580  147.0270 C   0  0  0  0  0  0  0  0  0  0  0  0
  191.6490  177.0610  143.2470 C   0  0  1  0  0  3  0  0  0  0  0  0
  190.7140  176.2270  142.6280 O   0  0  0  0  0  1  0  0  0  0  0  0
  191.5670  179.3350  143.8920 O   0  0  0  0  0  0  0  0  0  0  0  0
  191.1920  178.4830  143.1020 C   0  0  0  0  0  3  0  0  0  0  0  0
  192.8220  170.5580  142.0990 C   0  0  0  0  0  2  0  0  0  0  0  0
  191.0940  169.0990  141.3280 O   0  0  0  0  0  1  0  0  0  0  0  0
  191.3250  170.3560  141.8980 C   0  0  2  0  0  3  0  0  0  0  0  0
  190.7040  171.4530  141.0260 C   0  0  1  0  0  3  0  0  0  0  0  0
  189.3350  171.7830  138.8940 C   0  0  0  0  0  2  0  0  0  0  0  0
  191.7210  171.0690  138.7470 C   0  0  0  0  0  3  0  0  0  0  0  0
  192.1030  172.2470  138.2340 C   0  0  0  0  0  3  0  0  0  0  0  0
  189.7690  173.1610  138.3440 C   0  0  1  0  0  3  0  0  0  0  0  0
  190.4590  170.9760  139.5770 C   0  0  1  0  0  3  0  0  0  0  0  0
  189.0230  174.1630  138.9370 F   0  0  0  0  0  0  0  0  0  0  0  0
  191.2700  173.4670  138.5010 C   0  0  2  0  0  3  0  0  0  0  0  0
  191.6490  174.4860  137.6440 F   0  0  0  0  0  0  0  0  0  0  0  0
  189.4650  171.9460  141.6290 N   0  0  0  0  0  2  0  0  0  0  0  0
  189.8130  172.4460  142.9510 C   0  0  0  0  0  2  0  0  0  0  0  0
  188.8650  173.5610  143.3470 C   0  0  0  0  0  2  0  0  0  0  0  0
  188.1290  174.0730  142.1180 C   0  0  0  0  0  2  0  0  0  0  0  0
  187.1240  175.0530  142.5070 N   0  0  0  0  0  2  0  0  0  0  0  0
  187.8200  176.6820  140.9790 O   0  0  0  0  0  0  0  0  0  0  0  0
  187.0320  176.3470  141.9020 C   0  0  0  0  0  0  0  0  0  0  0  0
  185.9850  177.3020  142.3520 C   0  0  0  0  0  2  0  0  0  0  0  0
  186.6150  178.4150  143.1710 C   0  0  0  0  0  2  0  0  0  0  0  0
  184.2430  178.8190  143.5580 N   0  0  0  0  0  1  0  0  0  0  0  0
  185.5610  179.4150  143.6120 C   0  0  0  0  0  2  0  0  0  0  0  0
  1  5  1  0  0  0  0
  1  2  1  0  0  0  0
  3  1  2  0  0  0  0
  5 10  1  0  0  0  0
  7  8  2  0  0  0  0
  8  6  1  0  0  0  0
  9  5  2  0  0  0  0
  9  7  1  0  0  0  0
 10  6  1  0  0  0  0
 10  4  2  0  0  0  0
 11 22  1  6  0  0  0
 11  7  1  0  0  0  0
 12 15  1  0  0  0  0
 14 13  1  0  0  0  0
 15 18  1  1  0  0  0
 15 17  1  0  0  0  0
 16 11  1  1  0  0  0
 16 12  1  0  0  0  0
 16 14  1  0  0  0  0
 17 13  2  0  0  0  0
 18 21  1  0  0  0  0
 20 21  1  0  0  0  0
 21 19  2  0  0  0  0
 22 23  1  1  0  0  0
 25 22  1  0  0  0  0
 25 24  2  0  0  0  0
 26  3  1  0  0  0  0
 28 27  1  6  0  0  0
 28 26  1  0  0  0  0
 29 38  1  1  0  0  0
 29 28  1  0  0  0  0
 30 34  1  0  0  0  0
 31 34  1  0  0  0  0
 32 36  1  0  0  0  0
 32 31  2  0  0  0  0
 33 36  1  0  0  0  0
 33 30  1  0  0  0  0
 33 35  1  1  0  0  0
 34 29  1  1  0  0  0
 36 37  1  6  0  0  0
 38 39  1  0  0  0  0
 39 40  1  0  0  0  0
 41 42  1  0  0  0  0
 41 40  1  0  0  0  0
 43 44  2  0  0  0  0
 44 45  1  0  0  0  0
 44 42  1  0  0  0  0
 45 46  1  0  0  0  0
 46 48  1  0  0  0  0
 47 48  1  0  0  0  0
M  END
>  <MODEL>
7

>  <REMARK>
 VINA RESULT:      -5.9      2.786      6.714
  Name = 
  19 active torsions:
  status: ('A' for Active; 'I' for Inactive)
    1  A    between atoms: C_3  and  C_12
    2  A    between atoms: C_5  and  C_29
    3  A    between atoms: C_5  and  C_33
    4  A    between atoms: C_5  and  C_34
    5  A    between atoms: N_6  and  C_7
    6  A    between atoms: N_6  and  C_9
    7  A    between atoms: C_7  and  C_40
    8  A    between atoms: C_9  and  C_22
    9  A    between atoms: C_9  and  C_27
   10  A    between atoms: C_13  and  C_32
   11  A    between atoms: C_13  and  C_47
   12  A    between atoms: N_16  and  C_23
   13  A    between atoms: O_19  and  C_28
   14  A    between atoms: O_19  and  C_31
   15  A    between atoms: C_23  and  C_40
   16  A    between atoms: C_27  and  C_44
   17  A    between atoms: C_34  and  C_35
   18  A    between atoms: C_39  and  C_47
   19  A    between atoms: C_41  and  C_44
                            x       y       z     vdW  Elec       q    Type
                         _______ _______ _______ _____ _____    ______ ____

>  <TORSDO>
F 19

$$$$
=
 OpenBabel11062418253D

 48 50  0  0  1  0  0  0  0  0999 V2000
  192.5970  175.9070  144.3310 C   0  0  0  0  0  0  0  0  0  0  0  0
  192.5220  176.7390  143.0890 C   0  0  0  0  0  1  0  0  0  0  0  0
  191.5510  175.8550  145.1690 C   0  0  0  0  0  3  0  0  0  0  0  0
  194.6120  176.6150  146.3270 O   0  0  0  0  0  0  0  0  0  0  0  0
  193.8260  175.1310  144.6290 C   0  0  0  0  0  0  0  0  0  0  0  0
  195.8220  174.5690  146.1860 C   0  0  0  0  0  2  0  0  0  0  0  0
  195.3650  173.2830  144.0970 C   0  0  0  0  0  0  0  0  0  0  0  0
  196.1520  173.5280  145.1540 C   0  0  0  0  0  3  0  0  0  0  0  0
  194.1500  174.0810  143.8620 C   0  0  0  0  0  3  0  0  0  0  0  0
  194.7330  175.5050  145.7420 C   0  0  0  0  0  0  0  0  0  0  0  0
  195.7020  172.1900  143.1150 C   0  0  2  0  0  3  0  0  0  0  0  0
  194.4370  171.1190  141.2000 C   0  0  0  0  0  2  0  0  0  0  0  0
  195.3840  173.0840  139.3290 C   0  0  0  0  0  3  0  0  0  0  0  0
  196.0350  172.9280  140.6800 C   0  0  0  0  0  2  0  0  0  0  0  0
  193.6360  171.3980  139.9260 C   0  0  1  0  0  3  0  0  0  0  0  0
  195.0420  172.4180  141.7340 C   0  0  2  0  0  3  0  0  0  0  0  0
  194.3180  172.3510  138.9680 C   0  0  0  0  0  3  0  0  0  0  0  0
  193.2470  170.1870  139.2780 O   0  0  0  0  0  0  0  0  0  0  0  0
  191.7640  169.5760  137.6010 O   0  0  0  0  0  0  0  0  0  0  0  0
  190.7960  170.0750  139.7130 C   0  0  0  0  0  1  0  0  0  0  0  0
  191.9560  169.9360  138.7950 C   0  0  0  0  0  0  0  0  0  0  0  0
  195.3700  170.8020  143.6990 C   0  0  1  0  0  3  0  0  0  0  0  0
  196.5040  170.2140  144.2650 O   0  0  0  0  0  1  0  0  0  0  0  0
  193.2160  170.3730  144.5780 O   0  0  0  0  0  0  0  0  0  0  0  0
  194.3050  170.8980  144.7520 C   0  0  0  0  0  3  0  0  0  0  0  0
  190.2800  176.6110  144.9560 C   0  0  0  0  0  2  0  0  0  0  0  0
  189.2900  174.5550  145.6680 O   0  0  0  0  0  1  0  0  0  0  0  0
  189.1260  175.6300  144.7870 C   0  0  2  0  0  3  0  0  0  0  0  0
  189.0070  175.1170  143.3460 C   0  0  1  0  0  3  0  0  0  0  0  0
  188.2990  172.9870  142.1260 C   0  0  0  0  0  2  0  0  0  0  0  0
  190.6050  173.1840  143.0570 C   0  0  0  0  0  3  0  0  0  0  0  0
  191.1550  173.2490  141.8380 C   0  0  0  0  0  3  0  0  0  0  0  0
  188.9170  173.1060  140.7140 C   0  0  1  0  0  3  0  0  0  0  0  0
  189.1590  173.5820  143.2610 C   0  0  1  0  0  3  0  0  0  0  0  0
  188.0700  173.8210  139.8860 F   0  0  0  0  0  0  0  0  0  0  0  0
  190.3230  173.7300  140.6840 C   0  0  2  0  0  3  0  0  0  0  0  0
  190.9620  173.4280  139.4920 F   0  0  0  0  0  0  0  0  0  0  0  0
  187.7420  175.5500  142.7520 N   0  0  0  0  0  2  0  0  0  0  0  0
  187.9550  176.9000  142.2520 C   0  0  0  0  0  2  0  0  0  0  0  0
  187.3830  177.0280  140.8530 C   0  0  0  0  0  2  0  0  0  0  0  0
  186.1430  177.9080  140.8810 C   0  0  0  0  0  2  0  0  0  0  0  0
  186.0420  178.5950  142.1610 N   0  0  0  0  0  2  0  0  0  0  0  0
  183.7770  178.1050  142.4820 O   0  0  0  0  0  0  0  0  0  0  0  0
  184.8220  178.6650  142.9060 C   0  0  0  0  0  0  0  0  0  0  0  0
  184.7880  179.3880  144.2050 C   0  0  0  0  0  2  0  0  0  0  0  0
  185.9940  179.0050  145.0450 C   0  0  0  0  0  2  0  0  0  0  0  0
  184.5460  178.1050  146.7860 N   0  0  0  0  0  1  0  0  0  0  0  0
  185.6410  179.0140  146.5210 C   0  0  0  0  0  2  0  0  0  0  0  0
  1  5  1  0  0  0  0
  1  3  2  0  0  0  0
  2  1  1  0  0  0  0
  5 10  1  0  0  0  0
  7  8  2  0  0  0  0
  8  6  1  0  0  0  0
  9  7  1  0  0  0  0
  9  5  2  0  0  0  0
 10  6  1  0  0  0  0
 10  4  2  0  0  0  0
 11 22  1  1  0  0  0
 11  7  1  0  0  0  0
 12 16  1  0  0  0  0
 13 14  1  0  0  0  0
 14 16  1  0  0  0  0
 15 18  1  6  0  0  0
 15 12  1  0  0  0  0
 16 11  1  1  0  0  0
 17 13  2  0  0  0  0
 17 15  1  0  0  0  0
 19 21  2  0  0  0  0
 21 18  1  0  0  0  0
 21 20  1  0  0  0  0
 22 23  1  1  0  0  0
 22 25  1  0  0  0  0
 24 25  2  0  0  0  0
 26  3  1  0  0  0  0
 28 26  1  0  0  0  0
 28 27  1  1  0  0  0
 29 38  1  1  0  0  0
 29 28  1  0  0  0  0
 30 34  1  0  0  0  0
 31 34  1  0  0  0  0
 32 31  2  0  0  0  0
 33 35  1  6  0  0  0
 33 30  1  0  0  0  0
 34 29  1  6  0  0  0
 36 37  1  6  0  0  0
 36 33  1  0  0  0  0
 36 32  1  0  0  0  0
 39 38  1  0  0  0  0
 40 41  1  0  0  0  0
 40 39  1  0  0  0  0
 41 42  1  0  0  0  0
 42 44  1  0  0  0  0
 43 44  2  0  0  0  0
 44 45  1  0  0  0  0
 45 46  1  0  0  0  0
 46 48  1  0  0  0  0
 48 47  1  0  0  0  0
M  END
>  <MODEL>
8

>  <REMARK>
 VINA RESULT:      -5.8      2.756      5.276
  Name = 
  19 active torsions:
  status: ('A' for Active; 'I' for Inactive)
    1  A    between atoms: C_3  and  C_12
    2  A    between atoms: C_5  and  C_29
    3  A    between atoms: C_5  and  C_33
    4  A    between atoms: C_5  and  C_34
    5  A    between atoms: N_6  and  C_7
    6  A    between atoms: N_6  and  C_9
    7  A    between atoms: C_7  and  C_40
    8  A    between atoms: C_9  and  C_22
    9  A    between atoms: C_9  and  C_27
   10  A    between atoms: C_13  and  C_32
   11  A    between atoms: C_13  and  C_47
   12  A    between atoms: N_16  and  C_23
   13  A    between atoms: O_19  and  C_28
   14  A    between atoms: O_19  and  C_31
   15  A    between atoms: C_23  and  C_40
   16  A    between atoms: C_27  and  C_44
   17  A    between atoms: C_34  and  C_35
   18  A    between atoms: C_39  and  C_47
   19  A    between atoms: C_41  and  C_44
                            x       y       z     vdW  Elec       q    Type
                         _______ _______ _______ _____ _____    ______ ____

>  <TORSDO>
F 19

$$$$
=
 OpenBabel11062418253D

 48 50  0  0  1  0  0  0  0  0999 V2000
  189.2820  174.6600  143.4800 C   0  0  0  0  0  0  0  0  0  0  0  0
  189.0180  173.3140  142.8800 C   0  0  0  0  0  1  0  0  0  0  0  0
  188.5560  175.7200  143.0960 C   0  0  0  0  0  3  0  0  0  0  0  0
  188.8690  175.5840  146.2220 O   0  0  0  0  0  0  0  0  0  0  0  0
  190.3420  174.8170  144.5070 C   0  0  0  0  0  0  0  0  0  0  0  0
  191.0690  175.0840  146.9810 C   0  0  0  0  0  2  0  0  0  0  0  0
  192.7240  174.8150  145.1330 C   0  0  0  0  0  0  0  0  0  0  0  0
  192.4660  175.0420  146.4280 C   0  0  0  0  0  3  0  0  0  0  0  0
  191.6270  174.6550  144.1630 C   0  0  0  0  0  3  0  0  0  0  0  0
  190.0200  175.1810  145.9090 C   0  0  0  0  0  0  0  0  0  0  0  0
  194.1420  174.7230  144.6290 C   0  0  2  0  0  3  0  0  0  0  0  0
  194.6160  172.7600  143.1000 C   0  0  0  0  0  2  0  0  0  0  0  0
  194.2540  170.8680  145.2320 C   0  0  0  0  0  3  0  0  0  0  0  0
  193.7870  172.2940  145.3790 C   0  0  0  0  0  2  0  0  0  0  0  0
  195.2780  171.3830  143.0100 C   0  0  1  0  0  3  0  0  0  0  0  0
  194.6410  173.2600  144.5450 C   0  0  2  0  0  3  0  0  0  0  0  0
  194.8920  170.4420  144.1300 C   0  0  0  0  0  3  0  0  0  0  0  0
  195.0730  170.7890  141.7280 O   0  0  0  0  0  0  0  0  0  0  0  0
  196.0010  169.8880  139.8010 O   0  0  0  0  0  0  0  0  0  0  0  0
  197.1340  169.3900  141.8290 C   0  0  0  0  0  1  0  0  0  0  0  0
  196.0370  170.0270  141.0540 C   0  0  0  0  0  0  0  0  0  0  0  0
  195.0830  175.6130  145.4650 C   0  0  1  0  0  3  0  0  0  0  0  0
  196.1270  174.8620  146.0110 O   0  0  0  0  0  1  0  0  0  0  0  0
  196.1120  176.4770  143.5190 O   0  0  0  0  0  0  0  0  0  0  0  0
  195.6700  176.7140  144.6320 C   0  0  0  0  0  3  0  0  0  0  0  0
  187.4790  175.6580  142.0630 C   0  0  0  0  0  2  0  0  0  0  0  0
  187.9420  177.9880  141.8000 O   0  0  0  0  0  1  0  0  0  0  0  0
  186.9030  177.0520  141.8440 C   0  0  2  0  0  3  0  0  0  0  0  0
  185.8900  177.4380  142.9280 C   0  0  1  0  0  3  0  0  0  0  0  0
  185.1620  179.6310  144.0170 C   0  0  0  0  0  2  0  0  0  0  0  0
  186.9950  178.2810  145.0350 C   0  0  0  0  0  3  0  0  0  0  0  0
  186.2410  177.9440  146.0900 C   0  0  0  0  0  3  0  0  0  0  0  0
  184.2660  179.2140  145.2060 C   0  0  1  0  0  3  0  0  0  0  0  0
  186.3410  178.6790  143.7300 C   0  0  1  0  0  3  0  0  0  0  0  0
  182.9630  179.0350  144.7770 F   0  0  0  0  0  0  0  0  0  0  0  0
  184.7450  177.9580  145.9560 C   0  0  2  0  0  3  0  0  0  0  0  0
  184.1640  177.8920  147.2110 F   0  0  0  0  0  0  0  0  0  0  0  0
  184.5670  177.6500  142.3400 N   0  0  0  0  0  2  0  0  0  0  0  0
  184.7840  178.1430  140.9880 C   0  0  0  0  0  2  0  0  0  0  0  0
  183.4520  178.4490  140.3300 C   0  0  0  0  0  2  0  0  0  0  0  0
  182.3160  177.9290  141.1980 C   0  0  0  0  0  2  0  0  0  0  0  0
  181.2840  178.9470  141.3380 N   0  0  0  0  0  2  0  0  0  0  0  0
  179.6960  177.8110  140.0510 O   0  0  0  0  0  0  0  0  0  0  0  0
  179.9960  178.8300  140.7270 C   0  0  0  0  0  0  0  0  0  0  0  0
  178.9900  179.9110  140.9050 C   0  0  0  0  0  2  0  0  0  0  0  0
  178.6930  180.5690  139.5690 C   0  0  0  0  0  2  0  0  0  0  0  0
  178.6990  182.9880  139.2800 N   0  0  0  0  0  1  0  0  0  0  0  0
  179.5400  181.8150  139.3880 C   0  0  0  0  0  2  0  0  0  0  0  0
  1  5  1  0  0  0  0
  2  1  1  0  0  0  0
  3  1  2  0  0  0  0
  5 10  1  0  0  0  0
  7  8  2  0  0  0  0
  8  6  1  0  0  0  0
  9  5  2  0  0  0  0
  9  7  1  0  0  0  0
 10  4  2  0  0  0  0
 10  6  1  0  0  0  0
 11  7  1  0  0  0  0
 11 22  1  1  0  0  0
 12 16  1  0  0  0  0
 13 14  1  0  0  0  0
 15 18  1  6  0  0  0
 15 12  1  0  0  0  0
 15 17  1  0  0  0  0
 16 11  1  6  0  0  0
 16 14  1  0  0  0  0
 17 13  2  0  0  0  0
 19 21  2  0  0  0  0
 21 18  1  0  0  0  0
 21 20  1  0  0  0  0
 22 23  1  6  0  0  0
 24 25  2  0  0  0  0
 25 22  1  0  0  0  0
 26  3  1  0  0  0  0
 28 27  1  1  0  0  0
 28 26  1  0  0  0  0
 28 29  1  0  0  0  0
 29 38  1  6  0  0  0
 30 33  1  0  0  0  0
 31 32  2  0  0  0  0
 33 35  1  6  0  0  0
 33 36  1  0  0  0  0
 34 29  1  1  0  0  0
 34 30  1  0  0  0  0
 34 31  1  0  0  0  0
 36 32  1  0  0  0  0
 36 37  1  1  0  0  0
 39 38  1  0  0  0  0
 40 39  1  0  0  0  0
 40 41  1  0  0  0  0
 41 42  1  0  0  0  0
 43 44  2  0  0  0  0
 44 45  1  0  0  0  0
 44 42  1  0  0  0  0
 46 45  1  0  0  0  0
 47 48  1  0  0  0  0
 48 46  1  0  0  0  0
M  END
>  <MODEL>
9

>  <REMARK>
 VINA RESULT:      -5.8      3.644      6.105
  Name = 
  19 active torsions:
  status: ('A' for Active; 'I' for Inactive)
    1  A    between atoms: C_3  and  C_12
    2  A    between atoms: C_5  and  C_29
    3  A    between atoms: C_5  and  C_33
    4  A    between atoms: C_5  and  C_34
    5  A    between atoms: N_6  and  C_7
    6  A    between atoms: N_6  and  C_9
    7  A    between atoms: C_7  and  C_40
    8  A    between atoms: C_9  and  C_22
    9  A    between atoms: C_9  and  C_27
   10  A    between atoms: C_13  and  C_32
   11  A    between atoms: C_13  and  C_47
   12  A    between atoms: N_16  and  C_23
   13  A    between atoms: O_19  and  C_28
   14  A    between atoms: O_19  and  C_31
   15  A    between atoms: C_23  and  C_40
   16  A    between atoms: C_27  and  C_44
   17  A    between atoms: C_34  and  C_35
   18  A    between atoms: C_39  and  C_47
   19  A    between atoms: C_41  and  C_44
                            x       y       z     vdW  Elec       q    Type
                         _______ _______ _______ _____ _____    ______ ____

>  <TORSDO>
F 19

$$$$
