=
 OpenBabel11062418523D

 37 39  0  0  1  0  0  0  0  0999 V2000
  189.6670  175.3290  146.2550 C   0  0  2  0  0  3  0  0  0  0  0  0
  191.6880  176.4040  146.1160 C   0  0  0  0  0  2  0  0  0  0  0  0
  190.2500  172.1290  144.6900 C   0  0  0  0  0  2  0  0  0  0  0  0
  192.4270  174.1460  145.8530 F   0  0  0  0  0  0  0  0  0  0  0  0
  189.6570  173.7940  146.1130 C   0  0  0  0  0  2  0  0  0  0  0  0
  192.1230  172.8040  143.0480 C   0  0  2  0  0  3  0  0  0  0  0  0
  190.7800  175.7720  147.0030 O   0  0  0  0  0  0  0  0  0  0  0  0
  194.4050  173.4810  143.1820 O   0  0  0  0  0  0  0  0  0  0  0  0
  193.2360  173.8180  143.2950 C   0  0  0  0  0  0  0  0  0  0  0  0
  191.4420  175.4140  143.9190 C   0  0  1  0  0  3  0  0  0  0  0  0
  189.7590  173.4440  144.7560 O   0  0  0  0  0  0  0  0  0  0  0  0
  191.7470  172.0640  144.3360 C   0  0  0  0  0  2  0  0  0  0  0  0
  192.9100  175.2190  143.7780 C   0  0  1  0  0  0  0  0  0  0  0  0
  192.3420  175.3620  145.2030 C   0  0  1  0  0  0  0  0  0  0  0  0
  192.4960  171.8910  142.0620 O   0  0  0  0  0  1  0  0  0  0  0  0
  193.6690  176.2900  143.3000 O   0  0  0  0  0  1  0  0  0  0  0  0
  189.2250  178.0440  142.6940 O   0  0  0  0  0  0  0  0  0  0  0  0
  189.6490  176.9030  143.0270 C   0  0  0  0  0  0  0  0  0  0  0  0
  191.7990  177.8460  143.5250 O   0  0  0  0  0  1  0  0  0  0  0  0
  191.0040  176.7470  143.4580 N   0  0  0  0  0  0  0  0  0  0  0  0
  188.8030  175.7900  142.9780 O   0  0  0  0  0  0  0  0  0  0  0  0
  187.5820  173.5410  141.8940 O   0  0  0  0  0  1  0  0  0  0  0  0
  189.8420  174.4540  140.9460 O   0  0  0  0  0  1  0  0  0  0  0  0
  188.5220  174.9000  141.5350 P   0  0  0  0  0  0  0  0  0  0  0  0
  187.7040  175.8690  140.4180 O   0  0  0  0  0  0  0  0  0  0  0  0
  188.3790  175.8320  146.8780 C   0  0  0  0  0  2  0  0  0  0  0  0
  188.2270  177.3170  146.5960 C   0  0  0  0  0  2  0  0  0  0  0  0
  186.7610  177.7190  146.6130 C   0  0  2  0  0  3  0  0  0  0  0  0
  186.0120  176.7240  147.2450 O   0  0  0  0  0  1  0  0  0  0  0  0
  185.5130  179.4130  143.4430 C   0  0  0  0  0  3  0  0  0  0  0  0
  185.5320  177.0180  143.0970 C   0  0  0  0  0  3  0  0  0  0  0  0
  185.9930  179.2300  144.7410 C   0  0  0  0  0  3  0  0  0  0  0  0
  186.2470  177.9380  145.2230 C   0  0  0  0  0  0  0  0  0  0  0  0
  185.2810  178.3050  142.6120 C   0  0  0  0  0  0  0  0  0  0  0  0
  186.0120  176.8330  144.3980 C   0  0  0  0  0  3  0  0  0  0  0  0
  184.8000  178.4550  141.3080 O   0  0  0  0  0  0  0  0  0  0  0  0
  183.4400  178.2370  140.9610 C   0  0  0  0  0  1  0  0  0  0  0  0
  1 26  1  1  0  0  0
  1  7  1  0  0  0  0
  2  7  1  0  0  0  0
  3 11  1  0  0  0  0
  5  1  1  0  0  0  0
  6 15  1  6  0  0  0
  6  9  1  0  0  0  0
  6 12  1  0  0  0  0
  8  9  2  0  0  0  0
  9 13  1  0  0  0  0
 10 20  1  6  0  0  0
 10 14  1  0  0  0  0
 11  5  1  0  0  0  0
 12  3  1  0  0  0  0
 13 16  1  6  0  0  0
 13 10  1  0  0  0  0
 13 14  1  0  0  0  0
 14  4  1  1  0  0  0
 14  2  1  0  0  0  0
 17 18  2  0  0  0  0
 18 20  1  0  0  0  0
 20 19  1  0  0  0  0
 21 18  1  0  0  0  0
 23 24  1  0  0  0  0
 24 22  1  0  0  0  0
 24 21  1  0  0  0  0
 25 24  2  0  0  0  0
 27 28  1  0  0  0  0
 27 26  1  0  0  0  0
 28 29  1  6  0  0  0
 30 32  1  0  0  0  0
 31 35  2  0  0  0  0
 32 33  2  0  0  0  0
 33 28  1  0  0  0  0
 34 31  1  0  0  0  0
 34 30  2  0  0  0  0
 35 33  1  0  0  0  0
 36 34  1  0  0  0  0
 37 36  1  0  0  0  0
M  END
>  <MODEL>
1

>  <REMARK>
 VINA RESULT:      -7.7      0.000      0.000
  Name = 
  8 active torsions:
  status: ('A' for Active; 'I' for Inactive)
    1  A    between atoms: C_1  and  C_21
    2  A    between atoms: O_2  and  C_33
    3  A    between atoms: C_11  and  C_20
    4  A    between atoms: C_11  and  C_26
    5  A    between atoms: O_12  and  C_17
    6  A    between atoms: O_12  and  P_27
    7  A    between atoms: C_20  and  C_21
    8  A    between atoms: C_22  and  N_37
                            x       y       z     vdW  Elec       q    Type
                         _______ _______ _______ _____ _____    ______ ____

>  <TORSDO>
F 8

$$$$
=
 OpenBabel11062418523D

 37 39  0  0  1  0  0  0  0  0999 V2000
  189.2840  176.5120  146.0540 C   0  0  2  0  0  3  0  0  0  0  0  0
  189.5760  176.9400  143.8200 C   0  0  0  0  0  2  0  0  0  0  0  0
  192.6390  176.1750  147.3420 C   0  0  0  0  0  2  0  0  0  0  0  0
  191.7350  177.5750  144.6250 F   0  0  0  0  0  0  0  0  0  0  0  0
  190.4770  176.7680  146.9970 C   0  0  0  0  0  2  0  0  0  0  0  0
  193.8190  175.3240  145.2110 C   0  0  2  0  0  3  0  0  0  0  0  0
  189.1880  177.5100  145.0590 O   0  0  0  0  0  0  0  0  0  0  0  0
  194.4150  176.1970  143.0750 O   0  0  0  0  0  0  0  0  0  0  0  0
  193.5240  175.7380  143.7730 C   0  0  0  0  0  0  0  0  0  0  0  0
  191.1590  175.1580  144.2460 C   0  0  1  0  0  3  0  0  0  0  0  0
  191.3900  175.7040  146.9040 O   0  0  0  0  0  0  0  0  0  0  0  0
  193.6040  176.4880  146.1830 C   0  0  0  0  0  2  0  0  0  0  0  0
  192.1100  175.6780  143.2280 C   0  0  1  0  0  0  0  0  0  0  0  0
  191.0820  176.6640  143.8160 C   0  0  1  0  0  0  0  0  0  0  0  0
  195.1220  174.8370  145.3280 O   0  0  0  0  0  1  0  0  0  0  0  0
  191.9150  175.2980  141.8980 O   0  0  0  0  0  1  0  0  0  0  0  0
  189.3780  172.0480  143.5470 O   0  0  0  0  0  0  0  0  0  0  0  0
  190.2590  172.8470  143.9700 C   0  0  0  0  0  0  0  0  0  0  0  0
  189.0910  174.6770  142.9470 O   0  0  0  0  0  1  0  0  0  0  0  0
  190.1570  174.2410  143.6660 N   0  0  0  0  0  0  0  0  0  0  0  0
  191.3330  172.3790  144.7340 O   0  0  0  0  0  0  0  0  0  0  0  0
  193.0710  172.3000  142.5670 O   0  0  0  0  0  0  0  0  0  0  0  0
  192.3370  170.1160  143.8040 O   0  0  0  0  0  1  0  0  0  0  0  0
  192.6810  171.5690  144.0410 P   0  0  0  0  0  0  0  0  0  0  0  0
  194.0070  171.6720  145.0860 O   0  0  0  0  0  1  0  0  0  0  0  0
  187.9830  176.4110  146.8270 C   0  0  0  0  0  2  0  0  0  0  0  0
  187.3450  177.7860  146.9260 C   0  0  0  0  0  2  0  0  0  0  0  0
  185.9150  177.7520  146.4110 C   0  0  2  0  0  3  0  0  0  0  0  0
  185.3060  176.5590  146.8030 O   0  0  0  0  0  1  0  0  0  0  0  0
  185.8250  176.8720  142.7100 C   0  0  0  0  0  3  0  0  0  0  0  0
  185.8340  179.2810  142.9440 C   0  0  0  0  0  3  0  0  0  0  0  0
  185.8580  176.7370  144.0990 C   0  0  0  0  0  3  0  0  0  0  0  0
  185.8780  177.8750  144.9180 C   0  0  0  0  0  0  0  0  0  0  0  0
  185.8110  178.1480  142.1240 C   0  0  0  0  0  0  0  0  0  0  0  0
  185.8690  179.1470  144.3350 C   0  0  0  0  0  3  0  0  0  0  0  0
  185.7780  178.3170  140.7370 O   0  0  0  0  0  0  0  0  0  0  0  0
  186.5240  177.4990  139.8460 C   0  0  0  0  0  1  0  0  0  0  0  0
  1 26  1  1  0  0  0
  1  5  1  0  0  0  0
  2  7  1  0  0  0  0
  6 15  1  6  0  0  0
  6 12  1  0  0  0  0
  7  1  1  0  0  0  0
  8  9  2  0  0  0  0
  9  6  1  0  0  0  0
 10 20  1  6  0  0  0
 11  5  1  0  0  0  0
 11  3  1  0  0  0  0
 12  3  1  0  0  0  0
 13 16  1  6  0  0  0
 13  9  1  0  0  0  0
 13 14  1  0  0  0  0
 13 10  1  0  0  0  0
 14  2  1  0  0  0  0
 14 10  1  0  0  0  0
 14  4  1  1  0  0  0
 17 18  2  0  0  0  0
 18 21  1  0  0  0  0
 19 20  1  0  0  0  0
 20 18  1  0  0  0  0
 22 24  2  0  0  0  0
 23 24  1  0  0  0  0
 24 21  1  0  0  0  0
 24 25  1  0  0  0  0
 26 27  1  0  0  0  0
 28 29  1  6  0  0  0
 28 27  1  0  0  0  0
 30 32  1  0  0  0  0
 31 35  2  0  0  0  0
 32 33  2  0  0  0  0
 33 28  1  0  0  0  0
 34 30  2  0  0  0  0
 34 31  1  0  0  0  0
 35 33  1  0  0  0  0
 36 34  1  0  0  0  0
 37 36  1  0  0  0  0
M  END
>  <MODEL>
2

>  <REMARK>
 VINA RESULT:      -7.6      1.932      3.666
  Name = 
  8 active torsions:
  status: ('A' for Active; 'I' for Inactive)
    1  A    between atoms: C_1  and  C_21
    2  A    between atoms: O_2  and  C_33
    3  A    between atoms: C_11  and  C_20
    4  A    between atoms: C_11  and  C_26
    5  A    between atoms: O_12  and  C_17
    6  A    between atoms: O_12  and  P_27
    7  A    between atoms: C_20  and  C_21
    8  A    between atoms: C_22  and  N_37
                            x       y       z     vdW  Elec       q    Type
                         _______ _______ _______ _____ _____    ______ ____

>  <TORSDO>
F 8

$$$$
=
 OpenBabel11062418523D

 37 39  0  0  1  0  0  0  0  0999 V2000
  188.8000  176.3370  146.1470 C   0  0  2  0  0  3  0  0  0  0  0  0
  189.3320  177.0020  144.0180 C   0  0  0  0  0  2  0  0  0  0  0  0
  191.9580  175.3450  147.5870 C   0  0  0  0  0  2  0  0  0  0  0  0
  191.4840  177.2020  145.0390 F   0  0  0  0  0  0  0  0  0  0  0  0
  189.9340  176.2910  147.1910 C   0  0  0  0  0  2  0  0  0  0  0  0
  193.1830  174.6110  145.4370 C   0  0  2  0  0  3  0  0  0  0  0  0
  188.9250  177.4580  145.2970 O   0  0  0  0  0  0  0  0  0  0  0  0
  194.0680  175.6560  143.4860 O   0  0  0  0  0  0  0  0  0  0  0  0
  193.0680  175.2460  144.0550 C   0  0  0  0  0  0  0  0  0  0  0  0
  190.6140  174.9650  144.2910 C   0  0  1  0  0  3  0  0  0  0  0  0
  190.6970  175.1250  147.0090 O   0  0  0  0  0  0  0  0  0  0  0  0
  193.0490  175.6600  146.5460 C   0  0  0  0  0  2  0  0  0  0  0  0
  191.7090  175.4670  143.4180 C   0  0  1  0  0  0  0  0  0  0  0  0
  190.7810  176.5100  144.0710 C   0  0  1  0  0  0  0  0  0  0  0  0
  194.3910  173.9270  145.5680 O   0  0  0  0  0  1  0  0  0  0  0  0
  191.5750  175.2940  142.0380 O   0  0  0  0  0  1  0  0  0  0  0  0
  188.7200  172.2590  142.7370 O   0  0  0  0  0  0  0  0  0  0  0  0
  189.6500  172.8760  143.3250 C   0  0  0  0  0  0  0  0  0  0  0  0
  188.4290  174.9300  143.1000 O   0  0  0  0  0  1  0  0  0  0  0  0
  189.5470  174.2890  143.5270 N   0  0  0  0  0  0  0  0  0  0  0  0
  190.7790  172.1900  143.7830 O   0  0  0  0  0  0  0  0  0  0  0  0
  193.4800  171.7470  143.3010 O   0  0  0  0  0  1  0  0  0  0  0  0
  191.7810  172.0650  141.3380 O   0  0  0  0  0  0  0  0  0  0  0  0
  191.9180  171.4640  142.7190 P   0  0  0  0  0  0  0  0  0  0  0  0
  191.6430  169.7980  142.6400 O   0  0  0  0  0  1  0  0  0  0  0  0
  187.4380  176.3300  146.8140 C   0  0  0  0  0  2  0  0  0  0  0  0
  186.9400  177.7580  146.9620 C   0  0  0  0  0  2  0  0  0  0  0  0
  185.5540  177.9090  146.3540 C   0  0  2  0  0  3  0  0  0  0  0  0
  184.7730  176.8020  146.6940 O   0  0  0  0  0  1  0  0  0  0  0  0
  185.9110  179.3830  142.8640 C   0  0  0  0  0  3  0  0  0  0  0  0
  185.5590  176.9950  142.6750 C   0  0  0  0  0  3  0  0  0  0  0  0
  185.8430  179.2830  144.2540 C   0  0  0  0  0  3  0  0  0  0  0  0
  185.6330  178.0370  144.8630 C   0  0  0  0  0  0  0  0  0  0  0  0
  185.7710  178.2360  142.0650 C   0  0  0  0  0  0  0  0  0  0  0  0
  185.4890  176.8950  144.0680 C   0  0  0  0  0  3  0  0  0  0  0  0
  185.8360  178.3020  140.6700 O   0  0  0  0  0  0  0  0  0  0  0  0
  186.7340  177.5090  139.9050 C   0  0  0  0  0  1  0  0  0  0  0  0
  1 26  1  1  0  0  0
  1  5  1  0  0  0  0
  2 14  1  0  0  0  0
  2  7  1  0  0  0  0
  6 15  1  6  0  0  0
  6 12  1  0  0  0  0
  7  1  1  0  0  0  0
  8  9  2  0  0  0  0
  9  6  1  0  0  0  0
 10 20  1  6  0  0  0
 11  5  1  0  0  0  0
 11  3  1  0  0  0  0
 12  3  1  0  0  0  0
 13 16  1  6  0  0  0
 13  9  1  0  0  0  0
 13 14  1  0  0  0  0
 13 10  1  0  0  0  0
 14 10  1  0  0  0  0
 14  4  1  1  0  0  0
 17 18  2  0  0  0  0
 18 20  1  0  0  0  0
 18 21  1  0  0  0  0
 19 20  1  0  0  0  0
 23 24  2  0  0  0  0
 24 22  1  0  0  0  0
 24 21  1  0  0  0  0
 25 24  1  0  0  0  0
 26 27  1  0  0  0  0
 28 29  1  6  0  0  0
 28 27  1  0  0  0  0
 30 32  1  0  0  0  0
 31 35  2  0  0  0  0
 32 33  2  0  0  0  0
 33 28  1  0  0  0  0
 34 31  1  0  0  0  0
 34 30  2  0  0  0  0
 35 33  1  0  0  0  0
 36 34  1  0  0  0  0
 37 36  1  0  0  0  0
M  END
>  <MODEL>
3

>  <REMARK>
 VINA RESULT:      -7.5      1.895      3.256
  Name = 
  8 active torsions:
  status: ('A' for Active; 'I' for Inactive)
    1  A    between atoms: C_1  and  C_21
    2  A    between atoms: O_2  and  C_33
    3  A    between atoms: C_11  and  C_20
    4  A    between atoms: C_11  and  C_26
    5  A    between atoms: O_12  and  C_17
    6  A    between atoms: O_12  and  P_27
    7  A    between atoms: C_20  and  C_21
    8  A    between atoms: C_22  and  N_37
                            x       y       z     vdW  Elec       q    Type
                         _______ _______ _______ _____ _____    ______ ____

>  <TORSDO>
F 8

$$$$
=
 OpenBabel11062418523D

 37 39  0  0  1  0  0  0  0  0999 V2000
  189.0660  176.3460  145.8260 C   0  0  2  0  0  3  0  0  0  0  0  0
  190.1480  174.5430  146.7400 C   0  0  0  0  0  2  0  0  0  0  0  0
  189.4160  175.8850  142.2640 C   0  0  0  0  0  2  0  0  0  0  0  0
  189.7410  173.6840  144.5470 F   0  0  0  0  0  0  0  0  0  0  0  0
  188.6150  176.2450  144.3560 C   0  0  0  0  0  2  0  0  0  0  0  0
  191.6390  174.5720  142.2310 C   0  0  2  0  0  3  0  0  0  0  0  0
  188.8760  175.1250  146.5110 O   0  0  0  0  0  0  0  0  0  0  0  0
  192.4020  172.4100  142.8800 O   0  0  0  0  0  0  0  0  0  0  0  0
  192.1060  173.5360  143.2480 C   0  0  0  0  0  0  0  0  0  0  0  0
  191.6560  175.2520  144.9830 C   0  0  1  0  0  3  0  0  0  0  0  0
  189.7140  176.4650  143.5080 O   0  0  0  0  0  0  0  0  0  0  0  0
  190.1180  174.5300  142.0490 C   0  0  0  0  0  2  0  0  0  0  0  0
  192.1120  173.8590  144.7300 C   0  0  1  0  0  0  0  0  0  0  0  0
  190.7480  174.0500  145.4200 C   0  0  1  0  0  0  0  0  0  0  0  0
  192.2730  174.3820  141.0030 O   0  0  0  0  0  1  0  0  0  0  0  0
  193.1450  173.3560  145.5250 O   0  0  0  0  0  1  0  0  0  0  0  0
  194.2850  177.2590  146.5290 O   0  0  0  0  0  0  0  0  0  0  0  0
  193.6300  176.6200  145.6600 C   0  0  0  0  0  0  0  0  0  0  0  0
  192.0290  175.9860  147.3320 O   0  0  0  0  0  1  0  0  0  0  0  0
  192.4420  175.9210  146.0400 N   0  0  0  0  0  0  0  0  0  0  0  0
  194.0580  176.5910  144.3290 O   0  0  0  0  0  0  0  0  0  0  0  0
  196.1120  174.8820  145.0940 O   0  0  0  0  0  1  0  0  0  0  0  0
  196.5640  176.9550  143.5640 O   0  0  0  0  0  1  0  0  0  0  0  0
  195.5440  175.8750  143.8470 P   0  0  0  0  0  0  0  0  0  0  0  0
  195.3050  174.9450  142.4560 O   0  0  0  0  0  0  0  0  0  0  0  0
  188.3480  177.4710  146.5460 C   0  0  0  0  0  2  0  0  0  0  0  0
  186.8470  177.3100  146.3670 C   0  0  0  0  0  2  0  0  0  0  0  0
  186.2140  178.6270  145.9460 C   0  0  2  0  0  3  0  0  0  0  0  0
  185.1770  178.9470  146.8250 O   0  0  0  0  0  1  0  0  0  0  0  0
  186.0430  178.5250  142.1470 C   0  0  0  0  0  3  0  0  0  0  0  0
  183.7990  178.3510  143.0380 C   0  0  0  0  0  3  0  0  0  0  0  0
  186.5530  178.5990  143.4440 C   0  0  0  0  0  3  0  0  0  0  0  0
  185.6870  178.5480  144.5460 C   0  0  0  0  0  0  0  0  0  0  0  0
  184.6600  178.3980  141.9370 C   0  0  0  0  0  0  0  0  0  0  0  0
  184.3090  178.4260  144.3380 C   0  0  0  0  0  3  0  0  0  0  0  0
  184.1180  178.3210  140.6500 O   0  0  0  0  0  0  0  0  0  0  0  0
  182.7270  178.1530  140.4130 C   0  0  0  0  0  1  0  0  0  0  0  0
  1  7  1  0  0  0  0
  1 26  1  1  0  0  0
  3 11  1  0  0  0  0
  5  1  1  0  0  0  0
  6 15  1  6  0  0  0
  6  9  1  0  0  0  0
  7  2  1  0  0  0  0
  8  9  2  0  0  0  0
  9 13  1  0  0  0  0
 10 14  1  0  0  0  0
 10 20  1  1  0  0  0
 11  5  1  0  0  0  0
 12  6  1  0  0  0  0
 12  3  1  0  0  0  0
 13 10  1  0  0  0  0
 13 14  1  0  0  0  0
 13 16  1  1  0  0  0
 14  4  1  6  0  0  0
 14  2  1  0  0  0  0
 18 20  1  0  0  0  0
 18 17  2  0  0  0  0
 20 19  1  0  0  0  0
 21 18  1  0  0  0  0
 23 24  1  0  0  0  0
 24 21  1  0  0  0  0
 24 22  1  0  0  0  0
 25 24  2  0  0  0  0
 27 26  1  0  0  0  0
 28 27  1  0  0  0  0
 28 29  1  1  0  0  0
 30 32  1  0  0  0  0
 31 35  2  0  0  0  0
 32 33  2  0  0  0  0
 33 28  1  0  0  0  0
 34 30  2  0  0  0  0
 34 31  1  0  0  0  0
 35 33  1  0  0  0  0
 36 34  1  0  0  0  0
 37 36  1  0  0  0  0
M  END
>  <MODEL>
4

>  <REMARK>
 VINA RESULT:      -7.4      2.185      3.790
  Name = 
  8 active torsions:
  status: ('A' for Active; 'I' for Inactive)
    1  A    between atoms: C_1  and  C_21
    2  A    between atoms: O_2  and  C_33
    3  A    between atoms: C_11  and  C_20
    4  A    between atoms: C_11  and  C_26
    5  A    between atoms: O_12  and  C_17
    6  A    between atoms: O_12  and  P_27
    7  A    between atoms: C_20  and  C_21
    8  A    between atoms: C_22  and  N_37
                            x       y       z     vdW  Elec       q    Type
                         _______ _______ _______ _____ _____    ______ ____

>  <TORSDO>
F 8

$$$$
=
 OpenBabel11062418523D

 37 39  0  0  1  0  0  0  0  0999 V2000
  189.1890  176.7270  142.7910 C   0  0  2  0  0  3  0  0  0  0  0  0
  191.1770  177.8700  142.7590 C   0  0  0  0  0  2  0  0  0  0  0  0
  188.8190  175.6780  146.2250 C   0  0  0  0  0  2  0  0  0  0  0  0
  190.6890  178.0000  145.0950 F   0  0  0  0  0  0  0  0  0  0  0  0
  188.4890  176.5390  144.1510 C   0  0  0  0  0  2  0  0  0  0  0  0
  191.3100  175.5130  146.8800 C   0  0  2  0  0  3  0  0  0  0  0  0
  189.7680  178.0100  142.6800 O   0  0  0  0  0  0  0  0  0  0  0  0
  193.1290  177.0130  147.2290 O   0  0  0  0  0  0  0  0  0  0  0  0
  192.4430  176.4200  146.4110 C   0  0  0  0  0  0  0  0  0  0  0  0
  191.6900  175.9200  144.1000 C   0  0  1  0  0  3  0  0  0  0  0  0
  189.1090  175.4970  144.8630 O   0  0  0  0  0  0  0  0  0  0  0  0
  189.9940  176.2860  147.0130 C   0  0  0  0  0  2  0  0  0  0  0  0
  192.6650  176.6740  144.9310 C   0  0  1  0  0  0  0  0  0  0  0  0
  191.5890  177.4830  144.1820 C   0  0  1  0  0  0  0  0  0  0  0  0
  191.6330  174.9050  148.0930 O   0  0  0  0  0  1  0  0  0  0  0  0
  193.9740  176.7930  144.4570 O   0  0  0  0  0  1  0  0  0  0  0  0
  192.1410  173.7490  141.2000 O   0  0  0  0  0  0  0  0  0  0  0  0
  191.6780  174.2170  142.2760 C   0  0  0  0  0  0  0  0  0  0  0  0
  193.3770  175.9130  142.2700 O   0  0  0  0  0  1  0  0  0  0  0  0
  192.3060  175.3480  142.8860 N   0  0  0  0  0  0  0  0  0  0  0  0
  190.5560  173.6370  142.8770 O   0  0  0  0  0  0  0  0  0  0  0  0
  192.1990  171.7170  144.0350 O   0  0  0  0  0  1  0  0  0  0  0  0
  190.0670  171.0460  142.6770 O   0  0  0  0  0  0  0  0  0  0  0  0
  190.6000  172.0920  143.6290 P   0  0  0  0  0  0  0  0  0  0  0  0
  189.6560  172.1130  145.0310 O   0  0  0  0  0  1  0  0  0  0  0  0
  188.2320  176.4790  141.6400 C   0  0  0  0  0  2  0  0  0  0  0  0
  187.5640  177.7860  141.2480 C   0  0  0  0  0  2  0  0  0  0  0  0
  186.0670  177.7210  141.5080 C   0  0  2  0  0  3  0  0  0  0  0  0
  185.4040  178.5840  140.6330 O   0  0  0  0  0  1  0  0  0  0  0  0
  185.5720  179.7410  144.6940 C   0  0  0  0  0  3  0  0  0  0  0  0
  185.0330  177.4240  145.1420 C   0  0  0  0  0  3  0  0  0  0  0  0
  185.8700  179.4160  143.3690 C   0  0  0  0  0  3  0  0  0  0  0  0
  185.7500  178.0910  142.9240 C   0  0  0  0  0  0  0  0  0  0  0  0
  185.1490  178.7450  145.5890 C   0  0  0  0  0  0  0  0  0  0  0  0
  185.3330  177.0970  143.8160 C   0  0  0  0  0  3  0  0  0  0  0  0
  184.8420  179.0380  146.9210 O   0  0  0  0  0  0  0  0  0  0  0  0
  185.5140  178.4300  148.0150 C   0  0  0  0  0  1  0  0  0  0  0  0
  1 26  1  6  0  0  0
  1  5  1  0  0  0  0
  2 14  1  0  0  0  0
  3 12  1  0  0  0  0
  5 11  1  0  0  0  0
  6 12  1  0  0  0  0
  6 15  1  1  0  0  0
  7  2  1  0  0  0  0
  7  1  1  0  0  0  0
  9  6  1  0  0  0  0
  9  8  2  0  0  0  0
 10 20  1  6  0  0  0
 10 14  1  0  0  0  0
 10 13  1  0  0  0  0
 11  3  1  0  0  0  0
 13 16  1  6  0  0  0
 13  9  1  0  0  0  0
 14 13  1  0  0  0  0
 14  4  1  1  0  0  0
 17 18  2  0  0  0  0
 18 21  1  0  0  0  0
 18 20  1  0  0  0  0
 19 20  1  0  0  0  0
 21 24  1  0  0  0  0
 23 24  2  0  0  0  0
 24 22  1  0  0  0  0
 24 25  1  0  0  0  0
 27 28  1  0  0  0  0
 27 26  1  0  0  0  0
 28 29  1  6  0  0  0
 28 33  1  0  0  0  0
 30 34  1  0  0  0  0
 31 34  2  0  0  0  0
 32 30  2  0  0  0  0
 33 32  1  0  0  0  0
 33 35  2  0  0  0  0
 34 36  1  0  0  0  0
 35 31  1  0  0  0  0
 36 37  1  0  0  0  0
M  END
>  <MODEL>
5

>  <REMARK>
 VINA RESULT:      -7.2      2.066      4.232
  Name = 
  8 active torsions:
  status: ('A' for Active; 'I' for Inactive)
    1  A    between atoms: C_1  and  C_21
    2  A    between atoms: O_2  and  C_33
    3  A    between atoms: C_11  and  C_20
    4  A    between atoms: C_11  and  C_26
    5  A    between atoms: O_12  and  C_17
    6  A    between atoms: O_12  and  P_27
    7  A    between atoms: C_20  and  C_21
    8  A    between atoms: C_22  and  N_37
                            x       y       z     vdW  Elec       q    Type
                         _______ _______ _______ _____ _____    ______ ____

>  <TORSDO>
F 8

$$$$
=
 OpenBabel11062418523D

 37 39  0  0  1  0  0  0  0  0999 V2000
  191.4810  176.7520  143.7900 C   0  0  2  0  0  3  0  0  0  0  0  0
  190.7790  176.8110  145.9720 C   0  0  0  0  0  2  0  0  0  0  0  0
  188.5940  177.8020  141.8960 C   0  0  0  0  0  2  0  0  0  0  0  0
  189.1530  178.2690  144.9990 F   0  0  0  0  0  0  0  0  0  0  0  0
  190.6810  177.5670  142.7550 C   0  0  0  0  0  2  0  0  0  0  0  0
  186.7330  176.9940  143.4910 C   0  0  2  0  0  3  0  0  0  0  0  0
  191.6050  177.4490  145.0130 O   0  0  0  0  0  0  0  0  0  0  0  0
  185.8980  177.5840  145.6440 O   0  0  0  0  0  0  0  0  0  0  0  0
  186.7670  177.0000  145.0160 C   0  0  0  0  0  0  0  0  0  0  0  0
  188.9150  175.7720  144.8260 C   0  0  1  0  0  3  0  0  0  0  0  0
  189.5110  176.8690  142.4060 O   0  0  0  0  0  0  0  0  0  0  0  0
  187.5010  178.1860  142.9110 C   0  0  0  0  0  2  0  0  0  0  0  0
  187.9280  176.3700  145.7640 C   0  0  1  0  0  0  0  0  0  0  0  0
  189.3030  177.0550  145.6420 C   0  0  1  0  0  0  0  0  0  0  0  0
  185.4180  176.9990  143.0260 O   0  0  0  0  0  1  0  0  0  0  0  0
  187.6730  175.6970  146.9610 O   0  0  0  0  0  1  0  0  0  0  0  0
  190.5120  172.4900  144.7430 O   0  0  0  0  0  0  0  0  0  0  0  0
  189.9900  173.5700  144.3530 C   0  0  0  0  0  0  0  0  0  0  0  0
  189.5250  174.1690  146.6300 O   0  0  0  0  0  1  0  0  0  0  0  0
  189.4430  174.4810  145.3100 N   0  0  0  0  0  0  0  0  0  0  0  0
  189.9430  173.8840  142.9900 O   0  0  0  0  0  0  0  0  0  0  0  0
  188.5280  173.9690  140.6000 O   0  0  0  0  0  0  0  0  0  0  0  0
  187.8360  172.3520  142.5360 O   0  0  0  0  0  1  0  0  0  0  0  0
  189.0420  172.9600  141.8560 P   0  0  0  0  0  0  0  0  0  0  0  0
  190.0130  171.7290  141.2230 O   0  0  0  0  0  1  0  0  0  0  0  0
  192.8500  176.3770  143.2560 C   0  0  0  0  0  2  0  0  0  0  0  0
  193.2630  175.0290  143.8240 C   0  0  0  0  0  2  0  0  0  0  0  0
  194.1940  175.2110  145.0130 C   0  0  2  0  0  3  0  0  0  0  0  0
  195.1070  176.2300  144.7380 O   0  0  0  0  0  1  0  0  0  0  0  0
  195.0110  171.5190  145.4430 C   0  0  0  0  0  3  0  0  0  0  0  0
  196.9430  172.8310  146.0810 C   0  0  0  0  0  3  0  0  0  0  0  0
  194.3120  172.6910  145.1500 C   0  0  0  0  0  3  0  0  0  0  0  0
  194.9270  173.9410  145.3200 C   0  0  0  0  0  0  0  0  0  0  0  0
  196.3350  171.5830  145.9100 C   0  0  0  0  0  0  0  0  0  0  0  0
  196.2430  174.0050  145.7890 C   0  0  0  0  0  3  0  0  0  0  0  0
  197.0620  170.4280  146.2120 O   0  0  0  0  0  0  0  0  0  0  0  0
  196.5540  169.3990  147.0500 C   0  0  0  0  0  1  0  0  0  0  0  0
  1 26  1  6  0  0  0
  1  7  1  0  0  0  0
  3 11  1  0  0  0  0
  3 12  1  0  0  0  0
  5  1  1  0  0  0  0
  6 15  1  1  0  0  0
  6  9  1  0  0  0  0
  7  2  1  0  0  0  0
  9  8  2  0  0  0  0
  9 13  1  0  0  0  0
 10 20  1  1  0  0  0
 10 14  1  0  0  0  0
 10 13  1  0  0  0  0
 11  5  1  0  0  0  0
 12  6  1  0  0  0  0
 13 16  1  1  0  0  0
 14  4  1  6  0  0  0
 14 13  1  0  0  0  0
 14  2  1  0  0  0  0
 18 17  2  0  0  0  0
 18 20  1  0  0  0  0
 20 19  1  0  0  0  0
 21 18  1  0  0  0  0
 22 24  2  0  0  0  0
 24 23  1  0  0  0  0
 24 21  1  0  0  0  0
 25 24  1  0  0  0  0
 26 27  1  0  0  0  0
 27 28  1  0  0  0  0
 28 29  1  6  0  0  0
 28 33  1  0  0  0  0
 30 34  1  0  0  0  0
 32 33  1  0  0  0  0
 32 30  2  0  0  0  0
 33 35  2  0  0  0  0
 34 31  2  0  0  0  0
 34 36  1  0  0  0  0
 35 31  1  0  0  0  0
 36 37  1  0  0  0  0
M  END
>  <MODEL>
6

>  <REMARK>
 VINA RESULT:      -7.1      2.652      7.818
  Name = 
  8 active torsions:
  status: ('A' for Active; 'I' for Inactive)
    1  A    between atoms: C_1  and  C_21
    2  A    between atoms: O_2  and  C_33
    3  A    between atoms: C_11  and  C_20
    4  A    between atoms: C_11  and  C_26
    5  A    between atoms: O_12  and  C_17
    6  A    between atoms: O_12  and  P_27
    7  A    between atoms: C_20  and  C_21
    8  A    between atoms: C_22  and  N_37
                            x       y       z     vdW  Elec       q    Type
                         _______ _______ _______ _____ _____    ______ ____

>  <TORSDO>
F 8

$$$$
=
 OpenBabel11062418523D

 37 39  0  0  1  0  0  0  0  0999 V2000
  192.5400  175.4780  146.2680 C   0  0  2  0  0  3  0  0  0  0  0  0
  193.4630  177.0820  144.9140 C   0  0  0  0  0  2  0  0  0  0  0  0
  194.2970  172.4500  145.3890 C   0  0  0  0  0  2  0  0  0  0  0  0
  195.2120  175.4540  144.8400 F   0  0  0  0  0  0  0  0  0  0  0  0
  193.3440  174.1830  146.5010 C   0  0  0  0  0  2  0  0  0  0  0  0
  194.8740  173.0020  142.9350 C   0  0  2  0  0  3  0  0  0  0  0  0
  193.3810  176.6120  146.2490 O   0  0  0  0  0  0  0  0  0  0  0  0
  196.3030  174.5140  141.7720 O   0  0  0  0  0  0  0  0  0  0  0  0
  195.2450  174.3680  142.3660 C   0  0  0  0  0  0  0  0  0  0  0  0
  193.1580  175.2070  143.4110 C   0  0  1  0  0  3  0  0  0  0  0  0
  193.2060  173.3350  145.3880 O   0  0  0  0  0  0  0  0  0  0  0  0
  195.3850  172.8370  144.3690 C   0  0  0  0  0  2  0  0  0  0  0  0
  194.3590  175.5740  142.6150 C   0  0  1  0  0  0  0  0  0  0  0  0
  194.2720  176.1010  144.0600 C   0  0  1  0  0  0  0  0  0  0  0  0
  195.3720  171.9780  142.1280 O   0  0  0  0  0  1  0  0  0  0  0  0
  194.2060  176.5190  141.5980 O   0  0  0  0  0  1  0  0  0  0  0  0
  189.8080  175.6420  142.0270 O   0  0  0  0  0  0  0  0  0  0  0  0
  190.8900  175.0960  142.3760 C   0  0  0  0  0  0  0  0  0  0  0  0
  191.7270  177.2220  143.1100 O   0  0  0  0  0  1  0  0  0  0  0  0
  191.9370  175.8910  142.9380 N   0  0  0  0  0  0  0  0  0  0  0  0
  191.0740  173.7180  142.2160 O   0  0  0  0  0  0  0  0  0  0  0  0
  188.9380  171.9570  142.4580 O   0  0  0  0  0  0  0  0  0  0  0  0
  189.9150  173.2070  144.5380 O   0  0  0  0  0  1  0  0  0  0  0  0
  190.3170  172.5570  143.2320 P   0  0  0  0  0  0  0  0  0  0  0  0
  191.3860  171.2850  143.5400 O   0  0  0  0  0  1  0  0  0  0  0  0
  191.4520  175.6450  147.3120 C   0  0  0  0  0  2  0  0  0  0  0  0
  190.3010  176.4400  146.7190 C   0  0  0  0  0  2  0  0  0  0  0  0
  188.9700  175.9390  147.2590 C   0  0  2  0  0  3  0  0  0  0  0  0
  188.9680  174.5430  147.2740 O   0  0  0  0  0  1  0  0  0  0  0  0
  185.5530  177.2550  146.2250 C   0  0  0  0  0  3  0  0  0  0  0  0
  186.9340  177.0210  144.2510 C   0  0  0  0  0  3  0  0  0  0  0  0
  186.6050  176.7920  147.0170 C   0  0  0  0  0  3  0  0  0  0  0  0
  187.8290  176.4410  146.4280 C   0  0  0  0  0  0  0  0  0  0  0  0
  185.7130  177.3750  144.8350 C   0  0  0  0  0  0  0  0  0  0  0  0
  187.9880  176.5550  145.0430 C   0  0  0  0  0  3  0  0  0  0  0  0
  184.6800  177.8370  144.0150 O   0  0  0  0  0  0  0  0  0  0  0  0
  184.8030  177.9260  142.6020 C   0  0  0  0  0  1  0  0  0  0  0  0
  1  5  1  0  0  0  0
  1 26  1  1  0  0  0
  2  7  1  0  0  0  0
  6 15  1  6  0  0  0
  6 12  1  0  0  0  0
  7  1  1  0  0  0  0
  8  9  2  0  0  0  0
  9 13  1  0  0  0  0
  9  6  1  0  0  0  0
 10 20  1  6  0  0  0
 10 14  1  0  0  0  0
 11  3  1  0  0  0  0
 11  5  1  0  0  0  0
 12  3  1  0  0  0  0
 13 16  1  6  0  0  0
 13 10  1  0  0  0  0
 13 14  1  0  0  0  0
 14  4  1  1  0  0  0
 14  2  1  0  0  0  0
 17 18  2  0  0  0  0
 18 20  1  0  0  0  0
 20 19  1  0  0  0  0
 21 18  1  0  0  0  0
 21 24  1  0  0  0  0
 22 24  2  0  0  0  0
 24 25  1  0  0  0  0
 24 23  1  0  0  0  0
 27 28  1  0  0  0  0
 27 26  1  0  0  0  0
 28 29  1  6  0  0  0
 30 32  1  0  0  0  0
 31 34  1  0  0  0  0
 31 35  2  0  0  0  0
 33 32  2  0  0  0  0
 33 28  1  0  0  0  0
 34 30  2  0  0  0  0
 35 33  1  0  0  0  0
 36 34  1  0  0  0  0
 37 36  1  0  0  0  0
M  END
>  <MODEL>
7

>  <REMARK>
 VINA RESULT:      -6.8      2.032      2.961
  Name = 
  8 active torsions:
  status: ('A' for Active; 'I' for Inactive)
    1  A    between atoms: C_1  and  C_21
    2  A    between atoms: O_2  and  C_33
    3  A    between atoms: C_11  and  C_20
    4  A    between atoms: C_11  and  C_26
    5  A    between atoms: O_12  and  C_17
    6  A    between atoms: O_12  and  P_27
    7  A    between atoms: C_20  and  C_21
    8  A    between atoms: C_22  and  N_37
                            x       y       z     vdW  Elec       q    Type
                         _______ _______ _______ _____ _____    ______ ____

>  <TORSDO>
F 8

$$$$
=
 OpenBabel11062418523D

 37 39  0  0  1  0  0  0  0  0999 V2000
  191.9930  176.1810  145.9430 C   0  0  2  0  0  3  0  0  0  0  0  0
  191.3500  176.5680  143.7760 C   0  0  0  0  0  2  0  0  0  0  0  0
  195.4480  175.1700  145.6800 C   0  0  0  0  0  2  0  0  0  0  0  0
  193.7200  176.7530  143.5200 F   0  0  0  0  0  0  0  0  0  0  0  0
  193.5020  176.1850  146.2570 C   0  0  0  0  0  2  0  0  0  0  0  0
  195.3980  174.1270  143.3200 C   0  0  2  0  0  3  0  0  0  0  0  0
  191.6560  177.1890  145.0130 O   0  0  0  0  0  0  0  0  0  0  0  0
  195.1480  174.8900  141.0760 O   0  0  0  0  0  0  0  0  0  0  0  0
  194.5850  174.6080  142.1230 C   0  0  0  0  0  0  0  0  0  0  0  0
  192.6040  174.5030  143.6130 C   0  0  1  0  0  3  0  0  0  0  0  0
  194.0710  174.9620  145.8610 O   0  0  0  0  0  0  0  0  0  0  0  0
  195.8470  175.2990  144.1980 C   0  0  0  0  0  2  0  0  0  0  0  0
  193.0900  174.8360  142.2480 C   0  0  1  0  0  0  0  0  0  0  0  0
  192.6240  175.9990  143.1440 C   0  0  1  0  0  0  0  0  0  0  0  0
  196.5070  173.3910  142.9010 O   0  0  0  0  0  1  0  0  0  0  0  0
  192.2670  174.5180  141.1650 O   0  0  0  0  0  1  0  0  0  0  0  0
  190.1080  171.9090  144.2240 O   0  0  0  0  0  0  0  0  0  0  0  0
  191.2210  172.4990  144.1620 C   0  0  0  0  0  0  0  0  0  0  0  0
  190.1590  174.4010  143.1560 O   0  0  0  0  0  1  0  0  0  0  0  0
  191.3000  173.8090  143.5940 N   0  0  0  0  0  0  0  0  0  0  0  0
  192.3790  171.8810  144.6460 O   0  0  0  0  0  0  0  0  0  0  0  0
  193.2640  171.2250  142.0950 O   0  0  0  0  0  0  0  0  0  0  0  0
  192.6760  169.3770  143.8500 O   0  0  0  0  0  1  0  0  0  0  0  0
  193.2870  170.7540  143.7190 P   0  0  0  0  0  0  0  0  0  0  0  0
  194.8840  170.7180  144.2700 O   0  0  0  0  0  1  0  0  0  0  0  0
  191.1670  176.3300  147.2060 C   0  0  0  0  0  2  0  0  0  0  0  0
  189.9040  177.1140  146.8950 C   0  0  0  0  0  2  0  0  0  0  0  0
  188.6940  176.1930  146.8680 C   0  0  2  0  0  3  0  0  0  0  0  0
  189.0500  174.9720  146.2930 O   0  0  0  0  0  1  0  0  0  0  0  0
  186.7250  177.9880  144.1510 C   0  0  0  0  0  3  0  0  0  0  0  0
  185.2080  177.3470  145.9260 C   0  0  0  0  0  3  0  0  0  0  0  0
  187.7880  177.4180  144.8540 C   0  0  0  0  0  3  0  0  0  0  0  0
  187.5660  176.8090  146.0970 C   0  0  0  0  0  0  0  0  0  0  0  0
  185.4260  177.9530  144.6840 C   0  0  0  0  0  0  0  0  0  0  0  0
  186.2730  176.7780  146.6310 C   0  0  0  0  0  3  0  0  0  0  0  0
  184.3400  178.5130  144.0050 O   0  0  0  0  0  0  0  0  0  0  0  0
  184.1020  178.2910  142.6220 C   0  0  0  0  0  1  0  0  0  0  0  0
  1  5  1  0  0  0  0
  1 26  1  1  0  0  0
  2  7  1  0  0  0  0
  3 11  1  0  0  0  0
  6 15  1  6  0  0  0
  6 12  1  0  0  0  0
  7  1  1  0  0  0  0
  8  9  2  0  0  0  0
  9 13  1  0  0  0  0
  9  6  1  0  0  0  0
 10 20  1  6  0  0  0
 11  5  1  0  0  0  0
 12  3  1  0  0  0  0
 13 16  1  6  0  0  0
 13 14  1  0  0  0  0
 13 10  1  0  0  0  0
 14  4  1  1  0  0  0
 14 10  1  0  0  0  0
 14  2  1  0  0  0  0
 18 17  2  0  0  0  0
 18 21  1  0  0  0  0
 19 20  1  0  0  0  0
 20 18  1  0  0  0  0
 22 24  2  0  0  0  0
 24 23  1  0  0  0  0
 24 25  1  0  0  0  0
 24 21  1  0  0  0  0
 27 26  1  0  0  0  0
 28 29  1  6  0  0  0
 28 27  1  0  0  0  0
 30 34  2  0  0  0  0
 30 32  1  0  0  0  0
 31 35  2  0  0  0  0
 32 33  2  0  0  0  0
 33 35  1  0  0  0  0
 33 28  1  0  0  0  0
 34 31  1  0  0  0  0
 36 34  1  0  0  0  0
 37 36  1  0  0  0  0
M  END
>  <MODEL>
8

>  <REMARK>
 VINA RESULT:      -6.8      2.303      4.061
  Name = 
  8 active torsions:
  status: ('A' for Active; 'I' for Inactive)
    1  A    between atoms: C_1  and  C_21
    2  A    between atoms: O_2  and  C_33
    3  A    between atoms: C_11  and  C_20
    4  A    between atoms: C_11  and  C_26
    5  A    between atoms: O_12  and  C_17
    6  A    between atoms: O_12  and  P_27
    7  A    between atoms: C_20  and  C_21
    8  A    between atoms: C_22  and  N_37
                            x       y       z     vdW  Elec       q    Type
                         _______ _______ _______ _____ _____    ______ ____

>  <TORSDO>
F 8

$$$$
=
 OpenBabel11062418523D

 37 39  0  0  1  0  0  0  0  0999 V2000
  191.7160  176.4860  144.7400 C   0  0  2  0  0  3  0  0  0  0  0  0
  193.1590  176.1640  146.4920 C   0  0  0  0  0  2  0  0  0  0  0  0
  191.4820  173.2430  143.1710 C   0  0  0  0  0  2  0  0  0  0  0  0
  192.4790  173.9020  146.1260 F   0  0  0  0  0  0  0  0  0  0  0  0
  191.0270  175.2450  144.1380 C   0  0  0  0  0  2  0  0  0  0  0  0
  193.8090  172.3140  143.7890 C   0  0  2  0  0  3  0  0  0  0  0  0
  191.8040  176.3970  146.1470 O   0  0  0  0  0  0  0  0  0  0  0  0
  194.9390  171.6000  145.7630 O   0  0  0  0  0  0  0  0  0  0  0  0
  194.5750  172.5500  145.0870 C   0  0  0  0  0  0  0  0  0  0  0  0
  194.2310  174.9730  144.6760 C   0  0  1  0  0  3  0  0  0  0  0  0
  191.9220  174.5720  143.2880 O   0  0  0  0  0  0  0  0  0  0  0  0
  192.2980  172.2620  144.0340 C   0  0  0  0  0  2  0  0  0  0  0  0
  194.8050  173.9590  145.6010 C   0  0  1  0  0  0  0  0  0  0  0  0
  193.5710  174.7470  146.0820 C   0  0  1  0  0  0  0  0  0  0  0  0
  194.2340  171.1370  143.1720 O   0  0  0  0  0  1  0  0  0  0  0  0
  196.0170  174.2590  146.2280 O   0  0  0  0  0  1  0  0  0  0  0  0
  196.7960  177.1660  143.2840 O   0  0  0  0  0  0  0  0  0  0  0  0
  196.0840  176.1440  143.4830 C   0  0  0  0  0  0  0  0  0  0  0  0
  194.9410  177.2860  145.2580 O   0  0  0  0  0  1  0  0  0  0  0  0
  195.1020  176.1550  144.5240 N   0  0  0  0  0  0  0  0  0  0  0  0
  196.2470  175.0000  142.6950 O   0  0  0  0  0  0  0  0  0  0  0  0
  194.5660  176.0030  140.7220 O   0  0  0  0  0  1  0  0  0  0  0  0
  195.4940  173.5600  140.6080 O   0  0  0  0  0  1  0  0  0  0  0  0
  195.8690  174.9660  141.0190 P   0  0  0  0  0  0  0  0  0  0  0  0
  197.2080  175.4780  140.1220 O   0  0  0  0  0  0  0  0  0  0  0  0
  191.0030  177.7620  144.3350 C   0  0  0  0  0  2  0  0  0  0  0  0
  189.6160  177.4230  143.8140 C   0  0  0  0  0  2  0  0  0  0  0  0
  188.5470  177.9000  144.7840 C   0  0  2  0  0  3  0  0  0  0  0  0
  188.4560  177.0070  145.8530 O   0  0  0  0  0  1  0  0  0  0  0  0
  184.9290  178.8220  144.0500 C   0  0  0  0  0  3  0  0  0  0  0  0
  185.7920  177.5040  142.2110 C   0  0  0  0  0  3  0  0  0  0  0  0
  186.1620  178.7250  144.6980 C   0  0  0  0  0  3  0  0  0  0  0  0
  187.2170  178.0170  144.1040 C   0  0  0  0  0  0  0  0  0  0  0  0
  184.7380  178.2120  142.7990 C   0  0  0  0  0  0  0  0  0  0  0  0
  187.0260  177.4050  142.8610 C   0  0  0  0  0  3  0  0  0  0  0  0
  183.5170  178.2900  142.1240 O   0  0  0  0  0  0  0  0  0  0  0  0
  183.4230  178.2910  140.7060 C   0  0  0  0  0  1  0  0  0  0  0  0
  1 26  1  1  0  0  0
  1  7  1  0  0  0  0
  3 11  1  0  0  0  0
  3 12  1  0  0  0  0
  5  1  1  0  0  0  0
  6 15  1  1  0  0  0
  6 12  1  0  0  0  0
  6  9  1  0  0  0  0
  7  2  1  0  0  0  0
  9 13  1  0  0  0  0
  9  8  2  0  0  0  0
 10 20  1  1  0  0  0
 10 13  1  0  0  0  0
 10 14  1  0  0  0  0
 11  5  1  0  0  0  0
 13 14  1  0  0  0  0
 13 16  1  1  0  0  0
 14  4  1  6  0  0  0
 14  2  1  0  0  0  0
 17 18  2  0  0  0  0
 18 20  1  0  0  0  0
 20 19  1  0  0  0  0
 21 18  1  0  0  0  0
 22 24  1  0  0  0  0
 23 24  1  0  0  0  0
 24 21  1  0  0  0  0
 25 24  2  0  0  0  0
 27 26  1  0  0  0  0
 27 28  1  0  0  0  0
 28 29  1  1  0  0  0
 30 32  1  0  0  0  0
 31 34  1  0  0  0  0
 31 35  2  0  0  0  0
 33 32  2  0  0  0  0
 33 28  1  0  0  0  0
 34 30  2  0  0  0  0
 35 33  1  0  0  0  0
 36 34  1  0  0  0  0
 37 36  1  0  0  0  0
M  END
>  <MODEL>
9

>  <REMARK>
 VINA RESULT:      -6.8      2.612      3.932
  Name = 
  8 active torsions:
  status: ('A' for Active; 'I' for Inactive)
    1  A    between atoms: C_1  and  C_21
    2  A    between atoms: O_2  and  C_33
    3  A    between atoms: C_11  and  C_20
    4  A    between atoms: C_11  and  C_26
    5  A    between atoms: O_12  and  C_17
    6  A    between atoms: O_12  and  P_27
    7  A    between atoms: C_20  and  C_21
    8  A    between atoms: C_22  and  N_37
                            x       y       z     vdW  Elec       q    Type
                         _______ _______ _______ _____ _____    ______ ____

>  <TORSDO>
F 8

$$$$
