=
 OpenBabel11062422343D

 59 67  0  0  1  0  0  0  0  0999 V2000
  192.6620  174.3010  146.1140 C   0  0  0  0  0  2  0  0  0  0  0  0
  193.5470  173.9190  144.9700 C   0  0  1  0  0  3  0  0  0  0  0  0
  191.8510  175.4090  145.4740 C   0  0  2  0  0  3  0  0  0  0  0  0
  192.6670  176.0860  144.5380 O   0  0  0  0  0  0  0  0  0  0  0  0
  193.7430  175.2260  144.2460 C   0  0  2  0  0  3  0  0  0  0  0  0
  194.8940  173.2630  145.2990 C   0  0  2  0  0  3  0  0  0  0  0  0
  196.7940  174.5840  144.5480 F   0  0  0  0  0  0  0  0  0  0  0  0
  196.6120  174.0970  146.7660 F   0  0  0  0  0  0  0  0  0  0  0  0
  195.9180  174.3600  145.6030 C   0  0  0  0  0  3  0  0  0  0  0  0
  195.3920  172.2570  144.2620 C   0  0  0  0  0  2  0  0  0  0  0  0
  195.9050  170.6640  146.0340 C   0  0  0  0  0  3  0  0  0  0  0  0
  196.7720  169.6410  146.6810 C   0  0  0  0  0  1  0  0  0  0  0  0
  196.2740  171.2230  144.8910 C   0  0  0  0  0  3  0  0  0  0  0  0
  191.2690  176.3920  146.5070 C   0  0  2  0  0  3  0  0  0  0  0  0
  192.2120  176.7970  147.4860 O   0  0  0  0  0  0  0  0  0  0  0  0
  191.5310  177.2530  148.6300 C   0  0  0  0  0  1  0  0  0  0  0  0
  189.9690  175.8470  147.1160 C   0  0  0  0  0  2  0  0  0  0  0  0
  188.9240  175.5300  146.0590 C   0  0  0  0  0  2  0  0  0  0  0  0
  188.2580  176.8060  145.5920 C   0  0  0  0  0  2  0  0  0  0  0  0
  187.4510  178.0570  143.3800 C   0  0  1  0  0  0  0  0  0  0  0  0
  186.3850  176.1700  144.1400 C   0  0  0  0  0  2  0  0  0  0  0  0
  185.4730  177.3250  144.1650 N   0  0  1  0  0  0  0  0  0  0  0  0
  186.4100  178.4250  144.3840 C   0  0  2  0  0  3  0  0  0  0  0  0
  185.0500  177.4340  142.7690 C   0  0  0  0  0  2  0  0  0  0  0  0
  185.7950  179.8090  144.1730 C   0  0  0  0  0  1  0  0  0  0  0  0
  188.9140  177.5830  143.4110 C   0  0  1  0  0  0  0  0  0  0  0  0
  187.8180  176.7320  144.1150 C   0  0  2  0  0  0  0  0  0  0  0  0
  186.5250  177.8370  141.7730 S   0  0  0  0  0  0  0  0  0  0  0  0
  189.4900  176.5550  142.5030 N   0  0  0  0  0  0  0  0  0  0  0  0
  189.2820  177.8370  142.1080 O   0  0  0  0  0  0  0  0  0  0  0  0
  188.5550  175.8240  141.8250 O   0  0  0  0  0  0  0  0  0  0  0  0
  189.2390  174.8780  141.0240 C   0  0  2  0  0  3  0  0  0  0  0  0
  188.4120  173.6150  140.7200 C   0  0  0  0  0  2  0  0  0  0  0  0
  190.5100  174.4460  141.7570 C   0  0  0  0  0  2  0  0  0  0  0  0
  190.1590  173.7460  143.0730 C   0  0  0  0  0  2  0  0  0  0  0  0
  189.2290  172.5430  142.8620 C   0  0  1  0  0  3  0  0  0  0  0  0
  188.0050  172.9050  142.0080 C   0  0  0  0  0  2  0  0  0  0  0  0
  190.0000  171.3480  142.2930 C   0  0  0  0  0  2  0  0  0  0  0  0
  191.1670  171.0460  143.0940 N   0  0  0  0  0  0  0  0  0  0  0  0
  192.3420  171.0120  142.5670 C   0  0  0  0  0  2  0  0  0  0  0  0
  193.8100  174.9830  142.8480 O   0  0  0  0  0  0  0  0  0  0  0  0
  194.7950  175.5040  142.0030 C   0  0  0  0  0  0  0  0  0  0  0  0
  195.4510  176.4960  142.4140 O   0  0  0  0  0  0  0  0  0  0  0  0
  195.1610  174.8820  140.6690 C   0  0  2  0  0  3  0  0  0  0  0  0
  193.9260  174.4320  139.9280 C   0  0  2  0  0  3  0  0  0  0  0  0
  195.2610  172.5060  140.2780 O   0  0  0  0  0  0  0  0  0  0  0  0
  194.2910  173.0560  139.4180 C   0  0  1  0  0  3  0  0  0  0  0  0
  193.6550  175.2820  138.8680 F   0  0  0  0  0  0  0  0  0  0  0  0
  195.9750  173.5960  140.8110 C   0  0  1  0  0  3  0  0  0  0  0  0
  197.6060  172.6390  139.3140 O   0  0  0  0  0  1  0  0  0  0  0  0
  197.3500  173.7260  140.1530 C   0  0  0  0  0  2  0  0  0  0  0  0
  193.1550  172.2400  139.4000 O   0  0  0  0  0  0  0  0  0  0  0  0
  190.7410  172.8180  137.9100 C   0  0  0  0  0  2  0  0  0  0  0  0
  191.0790  171.4700  137.3060 C   0  0  2  0  0  0  0  0  0  0  0  0
  193.0610  171.7580  138.0880 C   0  0  1  0  0  3  0  0  0  0  0  0
  192.0850  170.6030  138.0380 C   0  0  0  0  0  2  0  0  0  0  0  0
  192.0980  172.6100  137.2650 C   0  0  2  0  0  3  0  0  0  0  0  0
  190.7260  171.1620  135.8680 C   0  0  0  0  0  2  0  0  0  0  0  0
  189.3320  171.4980  135.6250 N   0  0  0  0  0  1  0  0  0  0  0  0
  2  6  1  1  0  0  0
  2  1  1  0  0  0  0
  3  1  1  0  0  0  0
  3 14  1  1  0  0  0
  4  3  1  0  0  0  0
  5 41  1  6  0  0  0
  5  4  1  0  0  0  0
  5  2  1  0  0  0  0
  6 10  1  6  0  0  0
  6  9  1  0  0  0  0
  7  9  1  0  0  0  0
  9  8  1  0  0  0  0
 10 13  1  0  0  0  0
 11 12  1  0  0  0  0
 13 11  2  0  0  0  0
 14 17  1  1  0  0  0
 14 15  1  0  0  0  0
 15 16  1  0  0  0  0
 18 17  1  0  0  0  0
 19 18  1  0  0  0  0
 20 28  1  6  0  0  0
 20 26  1  0  0  0  0
 20 27  1  0  0  0  0
 20 23  1  0  0  0  0
 21 22  1  0  0  0  0
 22 24  1  6  0  0  0
 22 23  1  0  0  0  0
 23 25  1  6  0  0  0
 26 30  1  1  0  0  0
 26 27  1  0  0  0  0
 27 21  1  0  0  0  0
 27 19  1  1  0  0  0
 28 24  1  0  0  0  0
 29 26  1  0  0  0  0
 30 29  1  0  0  0  0
 31 29  1  0  0  0  0
 32 34  1  0  0  0  0
 32 31  1  1  0  0  0
 33 32  1  0  0  0  0
 33 37  1  0  0  0  0
 34 35  1  0  0  0  0
 36 38  1  6  0  0  0
 36 35  1  0  0  0  0
 37 36  1  0  0  0  0
 38 39  1  0  0  0  0
 40 39  2  0  0  0  0
 42 43  2  0  0  0  0
 42 41  1  0  0  0  0
 44 49  1  0  0  0  0
 44 42  1  1  0  0  0
 45 48  1  6  0  0  0
 45 44  1  0  0  0  0
 46 49  1  0  0  0  0
 47 52  1  1  0  0  0
 47 45  1  0  0  0  0
 47 46  1  0  0  0  0
 49 51  1  6  0  0  0
 50 51  1  0  0  0  0
 54 58  1  6  0  0  0
 54 53  1  0  0  0  0
 54 56  1  0  0  0  0
 55 52  1  1  0  0  0
 56 55  1  0  0  0  0
 57 54  1  0  0  0  0
 57 53  1  1  0  0  0
 57 55  1  0  0  0  0
 59 58  1  0  0  0  0
M  END
>  <MODEL>
1

>  <REMARK>
 VINA RESULT:      -6.3      0.000      0.000
  Name = 
  21 active torsions:
  status: ('A' for Active; 'I' for Inactive)
    1  A    between atoms: C_1  and  C_3
    2  A    between atoms: C_1  and  C_24
    3  A    between atoms: C_3  and  C_36
    4  A    between atoms: C_4  and  C_37
    5  A    between atoms: N_6  and  C_30
    6  A    between atoms: C_7  and  C_27
    7  A    between atoms: O_8  and  C_29
    8  A    between atoms: O_8  and  C_32
    9  A    between atoms: C_9  and  O_34
   10  A    between atoms: O_22  and  C_36
   11  A    between atoms: C_24  and  C_51
   12  A    between atoms: C_27  and  C_28
   13  A    between atoms: C_27  and  C_40
   14  A    between atoms: C_30  and  C_55
   15  A    between atoms: C_31  and  C_43
   16  A    between atoms: O_34  and  N_58
   17  A    between atoms: C_36  and  C_47
   18  A    between atoms: C_37  and  O_46
   19  A    between atoms: C_40  and  C_53
   20  A    between atoms: C_44  and  C_50
   21  A    between atoms: O_46  and  C_54
                            x       y       z     vdW  Elec       q    Type
                         _______ _______ _______ _____ _____    ______ ____

>  <TORSDO>
F 21

$$$$
=
 OpenBabel11062422343D

 59 67  0  0  1  0  0  0  0  0999 V2000
  189.4850  173.1870  139.0490 C   0  0  0  0  0  2  0  0  0  0  0  0
  190.5270  173.6850  138.0960 C   0  0  1  0  0  3  0  0  0  0  0  0
  190.2160  173.3600  140.3640 C   0  0  2  0  0  3  0  0  0  0  0  0
  191.5960  173.1420  140.1490 O   0  0  0  0  0  0  0  0  0  0  0  0
  191.8150  173.2820  138.7650 C   0  0  2  0  0  3  0  0  0  0  0  0
  190.4730  173.1740  136.6510 C   0  0  2  0  0  3  0  0  0  0  0  0
  191.3020  175.3950  136.1070 F   0  0  0  0  0  0  0  0  0  0  0  0
  189.1690  174.8530  135.5210 F   0  0  0  0  0  0  0  0  0  0  0  0
  190.4500  174.3760  135.7020 C   0  0  0  0  0  3  0  0  0  0  0  0
  189.3590  172.1680  136.3620 C   0  0  0  0  0  2  0  0  0  0  0  0
  191.1210  170.6250  135.6890 C   0  0  0  0  0  3  0  0  0  0  0  0
  191.6830  169.2580  135.5080 C   0  0  0  0  0  1  0  0  0  0  0  0
  189.9080  170.7850  136.1970 C   0  0  0  0  0  3  0  0  0  0  0  0
  189.6790  172.4270  141.4670 C   0  0  2  0  0  3  0  0  0  0  0  0
  188.6350  173.0080  142.2310 O   0  0  0  0  0  0  0  0  0  0  0  0
  187.4040  172.4490  141.8420 C   0  0  0  0  0  1  0  0  0  0  0  0
  190.8230  171.8800  142.3330 C   0  0  0  0  0  2  0  0  0  0  0  0
  190.6690  172.2540  143.7980 C   0  0  0  0  0  2  0  0  0  0  0  0
  191.5060  173.4770  144.1080 C   0  0  0  0  0  2  0  0  0  0  0  0
  191.3360  176.0290  144.8640 C   0  0  1  0  0  0  0  0  0  0  0  0
  189.8410  174.4580  145.6210 C   0  0  0  0  0  2  0  0  0  0  0  0
  190.6220  175.0120  146.7400 N   0  0  1  0  0  0  0  0  0  0  0  0
  191.8790  175.3460  146.0740 C   0  0  2  0  0  3  0  0  0  0  0  0
  189.9560  176.2890  146.9970 C   0  0  0  0  0  2  0  0  0  0  0  0
  192.8120  176.2130  146.9200 C   0  0  0  0  0  1  0  0  0  0  0  0
  191.2910  175.7510  143.3510 C   0  0  1  0  0  0  0  0  0  0  0  0
  190.6430  174.7360  144.3360 C   0  0  2  0  0  0  0  0  0  0  0  0
  190.1740  177.3350  145.5180 S   0  0  0  0  0  0  0  0  0  0  0  0
  190.1230  176.0350  142.4740 N   0  0  0  0  0  0  0  0  0  0  0  0
  190.9780  177.0080  142.8810 O   0  0  0  0  0  0  0  0  0  0  0  0
  188.9630  176.2820  143.1530 O   0  0  0  0  0  0  0  0  0  0  0  0
  187.9430  176.5180  142.2010 C   0  0  2  0  0  3  0  0  0  0  0  0
  187.6520  178.0120  141.9670 C   0  0  0  0  0  2  0  0  0  0  0  0
  186.6540  175.8560  142.6910 C   0  0  0  0  0  2  0  0  0  0  0  0
  186.1920  176.4900  144.0060 C   0  0  0  0  0  2  0  0  0  0  0  0
  186.0000  178.0090  143.8840 C   0  0  1  0  0  3  0  0  0  0  0  0
  187.2250  178.6950  143.2620 C   0  0  0  0  0  2  0  0  0  0  0  0
  184.7070  178.3380  143.1320 C   0  0  0  0  0  2  0  0  0  0  0  0
  183.7090  178.8960  144.0190 N   0  0  0  0  0  0  0  0  0  0  0  0
  183.9540  179.0610  145.2730 C   0  0  0  0  0  2  0  0  0  0  0  0
  192.8010  174.2760  138.5230 O   0  0  0  0  0  0  0  0  0  0  0  0
  194.1790  174.0390  138.5380 C   0  0  0  0  0  0  0  0  0  0  0  0
  194.7300  173.7350  137.4490 O   0  0  0  0  0  0  0  0  0  0  0  0
  195.0400  174.2140  139.7750 C   0  0  2  0  0  3  0  0  0  0  0  0
  195.2120  172.9040  140.5020 C   0  0  2  0  0  3  0  0  0  0  0  0
  194.1570  174.3950  142.0100 O   0  0  0  0  0  0  0  0  0  0  0  0
  194.9920  173.2620  141.9530 C   0  0  1  0  0  3  0  0  0  0  0  0
  196.4920  172.4060  140.3170 F   0  0  0  0  0  0  0  0  0  0  0  0
  194.3990  175.1190  140.8280 C   0  0  1  0  0  3  0  0  0  0  0  0
  196.5520  176.1830  140.6060 O   0  0  0  0  0  1  0  0  0  0  0  0
  195.2590  176.3540  141.1060 C   0  0  0  0  0  2  0  0  0  0  0  0
  194.3870  172.1930  142.6210 O   0  0  0  0  0  0  0  0  0  0  0  0
  193.6290  170.0810  144.4500 C   0  0  0  0  0  2  0  0  0  0  0  0
  194.6820  170.7650  145.2970 C   0  0  2  0  0  0  0  0  0  0  0  0
  195.3700  171.6800  143.4770 C   0  0  1  0  0  3  0  0  0  0  0  0
  195.1160  172.1590  144.8900 C   0  0  0  0  0  2  0  0  0  0  0  0
  195.0310  170.2530  143.8990 C   0  0  2  0  0  3  0  0  0  0  0  0
  195.5260  169.9670  146.2670 C   0  0  0  0  0  2  0  0  0  0  0  0
  194.6680  169.1100  147.0690 N   0  0  0  0  0  1  0  0  0  0  0  0
  1  3  1  0  0  0  0
  2  6  1  6  0  0  0
  2  5  1  0  0  0  0
  2  1  1  0  0  0  0
  3 14  1  1  0  0  0
  4  3  1  0  0  0  0
  5 41  1  1  0  0  0
  5  4  1  0  0  0  0
  6 10  1  1  0  0  0
  8  9  1  0  0  0  0
  9  7  1  0  0  0  0
  9  6  1  0  0  0  0
 11 13  2  0  0  0  0
 12 11  1  0  0  0  0
 13 10  1  0  0  0  0
 14 15  1  0  0  0  0
 14 17  1  1  0  0  0
 16 15  1  0  0  0  0
 17 18  1  0  0  0  0
 18 19  1  0  0  0  0
 20 28  1  1  0  0  0
 20 23  1  0  0  0  0
 22 21  1  6  0  0  0
 22 24  1  0  0  0  0
 23 22  1  0  0  0  0
 23 25  1  1  0  0  0
 26 30  1  6  0  0  0
 26 27  1  0  0  0  0
 26 20  1  0  0  0  0
 27 19  1  1  0  0  0
 27 20  1  0  0  0  0
 27 21  1  0  0  0  0
 28 24  1  0  0  0  0
 29 30  1  0  0  0  0
 29 31  1  0  0  0  0
 29 26  1  0  0  0  0
 32 34  1  0  0  0  0
 32 31  1  1  0  0  0
 33 32  1  0  0  0  0
 33 37  1  0  0  0  0
 34 35  1  0  0  0  0
 36 38  1  6  0  0  0
 36 35  1  0  0  0  0
 37 36  1  0  0  0  0
 38 39  1  0  0  0  0
 39 40  2  0  0  0  0
 41 42  1  0  0  0  0
 43 42  2  0  0  0  0
 44 42  1  6  0  0  0
 44 45  1  0  0  0  0
 44 49  1  0  0  0  0
 45 48  1  1  0  0  0
 45 47  1  0  0  0  0
 47 46  1  0  0  0  0
 47 52  1  1  0  0  0
 49 51  1  1  0  0  0
 49 46  1  0  0  0  0
 50 51  1  0  0  0  0
 53 54  1  0  0  0  0
 54 58  1  1  0  0  0
 55 52  1  6  0  0  0
 55 57  1  0  0  0  0
 55 56  1  0  0  0  0
 56 54  1  0  0  0  0
 57 53  1  6  0  0  0
 57 54  1  0  0  0  0
 58 59  1  0  0  0  0
M  END
>  <MODEL>
2

>  <REMARK>
 VINA RESULT:      -6.0      2.524      7.124
  Name = 
  21 active torsions:
  status: ('A' for Active; 'I' for Inactive)
    1  A    between atoms: C_1  and  C_3
    2  A    between atoms: C_1  and  C_24
    3  A    between atoms: C_3  and  C_36
    4  A    between atoms: C_4  and  C_37
    5  A    between atoms: N_6  and  C_30
    6  A    between atoms: C_7  and  C_27
    7  A    between atoms: O_8  and  C_29
    8  A    between atoms: O_8  and  C_32
    9  A    between atoms: C_9  and  O_34
   10  A    between atoms: O_22  and  C_36
   11  A    between atoms: C_24  and  C_51
   12  A    between atoms: C_27  and  C_28
   13  A    between atoms: C_27  and  C_40
   14  A    between atoms: C_30  and  C_55
   15  A    between atoms: C_31  and  C_43
   16  A    between atoms: O_34  and  N_58
   17  A    between atoms: C_36  and  C_47
   18  A    between atoms: C_37  and  O_46
   19  A    between atoms: C_40  and  C_53
   20  A    between atoms: C_44  and  C_50
   21  A    between atoms: O_46  and  C_54
                            x       y       z     vdW  Elec       q    Type
                         _______ _______ _______ _____ _____    ______ ____

>  <TORSDO>
F 21

$$$$
=
 OpenBabel11062422343D

 59 67  0  0  1  0  0  0  0  0999 V2000
  190.4690  172.3320  140.4950 C   0  0  0  0  0  2  0  0  0  0  0  0
  191.1670  172.4660  139.1790 C   0  0  1  0  0  3  0  0  0  0  0  0
  191.6580  172.3050  141.4330 C   0  0  2  0  0  3  0  0  0  0  0  0
  192.7400  171.6730  140.7770 O   0  0  0  0  0  0  0  0  0  0  0  0
  192.4500  171.7070  139.3990 C   0  0  2  0  0  3  0  0  0  0  0  0
  190.4360  171.9610  137.9290 C   0  0  2  0  0  3  0  0  0  0  0  0
  189.8480  174.3150  137.7600 F   0  0  0  0  0  0  0  0  0  0  0  0
  188.1770  172.7890  138.0300 F   0  0  0  0  0  0  0  0  0  0  0  0
  189.4230  173.0210  137.4860 C   0  0  0  0  0  3  0  0  0  0  0  0
  189.8190  170.5680  138.0600 C   0  0  0  0  0  2  0  0  0  0  0  0
  191.4150  169.3610  136.6690 C   0  0  0  0  0  3  0  0  0  0  0  0
  191.7720  168.5190  135.4940 C   0  0  0  0  0  1  0  0  0  0  0  0
  190.1550  169.7140  136.8770 C   0  0  0  0  0  3  0  0  0  0  0  0
  191.3440  171.6070  142.7700 C   0  0  2  0  0  3  0  0  0  0  0  0
  191.8230  170.2740  142.8310 O   0  0  0  0  0  0  0  0  0  0  0  0
  192.7530  170.1590  143.8810 C   0  0  0  0  0  1  0  0  0  0  0  0
  189.8530  171.7250  143.1170 C   0  0  0  0  0  2  0  0  0  0  0  0
  189.6260  172.3060  144.5030 C   0  0  0  0  0  2  0  0  0  0  0  0
  190.7080  173.3160  144.8230 C   0  0  0  0  0  2  0  0  0  0  0  0
  191.2650  175.9240  144.8130 C   0  0  1  0  0  0  0  0  0  0  0  0
  189.3480  175.1170  145.7870 C   0  0  0  0  0  2  0  0  0  0  0  0
  190.2130  175.7510  146.7950 N   0  0  1  0  0  0  0  0  0  0  0  0
  191.5370  175.5180  146.2220 C   0  0  2  0  0  3  0  0  0  0  0  0
  189.9420  177.1760  146.6040 C   0  0  0  0  0  2  0  0  0  0  0  0
  192.6510  176.3160  146.9020 C   0  0  0  0  0  1  0  0  0  0  0  0
  191.1970  175.2260  143.4430 C   0  0  1  0  0  0  0  0  0  0  0  0
  190.2430  174.7680  144.5840 C   0  0  2  0  0  0  0  0  0  0  0  0
  190.5130  177.6290  144.9300 S   0  0  0  0  0  0  0  0  0  0  0  0
  190.1980  175.5350  142.3850 N   0  0  0  0  0  0  0  0  0  0  0  0
  191.2840  176.3180  142.6070 O   0  0  0  0  0  0  0  0  0  0  0  0
  189.1360  176.2770  142.8210 O   0  0  0  0  0  0  0  0  0  0  0  0
  188.0820  176.1170  141.8900 C   0  0  2  0  0  3  0  0  0  0  0  0
  187.6270  177.4370  141.2410 C   0  0  0  0  0  2  0  0  0  0  0  0
  186.8800  175.5070  142.6120 C   0  0  0  0  0  2  0  0  0  0  0  0
  186.3720  176.4540  143.7030 C   0  0  0  0  0  2  0  0  0  0  0  0
  186.0150  177.8420  143.1490 C   0  0  1  0  0  3  0  0  0  0  0  0
  187.1490  178.4300  142.2970 C   0  0  0  0  0  2  0  0  0  0  0  0
  184.6830  177.8030  142.3950 C   0  0  0  0  0  2  0  0  0  0  0  0
  183.6870  178.6300  143.0420 N   0  0  0  0  0  0  0  0  0  0  0  0
  183.8390  179.0200  144.2600 C   0  0  0  0  0  2  0  0  0  0  0  0
  193.5030  172.3470  138.6930 O   0  0  0  0  0  0  0  0  0  0  0  0
  194.8520  171.9950  138.7980 C   0  0  0  0  0  0  0  0  0  0  0  0
  195.1300  170.7710  138.8860 O   0  0  0  0  0  0  0  0  0  0  0  0
  195.9830  173.0030  138.7250 C   0  0  2  0  0  3  0  0  0  0  0  0
  196.6640  173.1470  140.0640 C   0  0  2  0  0  3  0  0  0  0  0  0
  195.8040  175.2790  139.4960 O   0  0  0  0  0  0  0  0  0  0  0  0
  196.8190  174.6400  140.2340 C   0  0  1  0  0  3  0  0  0  0  0  0
  197.9060  172.5320  140.0490 F   0  0  0  0  0  0  0  0  0  0  0  0
  195.5020  174.4220  138.4220 C   0  0  1  0  0  3  0  0  0  0  0  0
  195.7410  174.1320  136.0390 O   0  0  0  0  0  1  0  0  0  0  0  0
  196.0980  174.9490  137.1150 C   0  0  0  0  0  2  0  0  0  0  0  0
  196.7080  174.9780  141.5860 O   0  0  0  0  0  0  0  0  0  0  0  0
  194.9270  175.6770  143.7600 C   0  0  0  0  0  2  0  0  0  0  0  0
  195.2930  174.2710  144.1910 C   0  0  2  0  0  0  0  0  0  0  0  0
  195.9470  173.9550  142.1680 C   0  0  1  0  0  3  0  0  0  0  0  0
  196.4990  173.6250  143.5380 C   0  0  0  0  0  2  0  0  0  0  0  0
  194.6830  174.5200  142.8110 C   0  0  2  0  0  3  0  0  0  0  0  0
  194.3010  173.4180  144.9500 C   0  0  0  0  0  2  0  0  0  0  0  0
  195.0080  172.3840  145.6880 N   0  0  0  0  0  1  0  0  0  0  0  0
  1  3  1  0  0  0  0
  2  6  1  6  0  0  0
  2  5  1  0  0  0  0
  2  1  1  0  0  0  0
  3 14  1  1  0  0  0
  4  3  1  0  0  0  0
  5 41  1  6  0  0  0
  5  4  1  0  0  0  0
  6 10  1  1  0  0  0
  9  7  1  0  0  0  0
  9  6  1  0  0  0  0
  9  8  1  0  0  0  0
 11 13  2  0  0  0  0
 12 11  1  0  0  0  0
 13 10  1  0  0  0  0
 14 15  1  0  0  0  0
 14 17  1  6  0  0  0
 15 16  1  0  0  0  0
 17 18  1  0  0  0  0
 18 19  1  0  0  0  0
 20 28  1  6  0  0  0
 20 23  1  0  0  0  0
 22 21  1  6  0  0  0
 23 22  1  0  0  0  0
 23 25  1  1  0  0  0
 24 22  1  0  0  0  0
 26 30  1  6  0  0  0
 26 27  1  0  0  0  0
 26 20  1  0  0  0  0
 27 20  1  0  0  0  0
 27 19  1  1  0  0  0
 27 21  1  0  0  0  0
 28 24  1  0  0  0  0
 29 30  1  0  0  0  0
 29 31  1  0  0  0  0
 29 26  1  0  0  0  0
 32 34  1  0  0  0  0
 32 31  1  1  0  0  0
 33 32  1  0  0  0  0
 33 37  1  0  0  0  0
 34 35  1  0  0  0  0
 36 38  1  6  0  0  0
 36 35  1  0  0  0  0
 37 36  1  0  0  0  0
 38 39  1  0  0  0  0
 39 40  2  0  0  0  0
 41 42  1  0  0  0  0
 42 43  2  0  0  0  0
 44 42  1  1  0  0  0
 44 45  1  0  0  0  0
 45 48  1  6  0  0  0
 45 47  1  0  0  0  0
 46 47  1  0  0  0  0
 47 52  1  1  0  0  0
 49 51  1  6  0  0  0
 49 44  1  0  0  0  0
 49 46  1  0  0  0  0
 50 51  1  0  0  0  0
 53 54  1  0  0  0  0
 54 58  1  1  0  0  0
 55 52  1  1  0  0  0
 55 57  1  0  0  0  0
 55 56  1  0  0  0  0
 56 54  1  0  0  0  0
 57 53  1  6  0  0  0
 57 54  1  0  0  0  0
 58 59  1  0  0  0  0
M  END
>  <MODEL>
3

>  <REMARK>
 VINA RESULT:      -6.0      2.634      6.780
  Name = 
  21 active torsions:
  status: ('A' for Active; 'I' for Inactive)
    1  A    between atoms: C_1  and  C_3
    2  A    between atoms: C_1  and  C_24
    3  A    between atoms: C_3  and  C_36
    4  A    between atoms: C_4  and  C_37
    5  A    between atoms: N_6  and  C_30
    6  A    between atoms: C_7  and  C_27
    7  A    between atoms: O_8  and  C_29
    8  A    between atoms: O_8  and  C_32
    9  A    between atoms: C_9  and  O_34
   10  A    between atoms: O_22  and  C_36
   11  A    between atoms: C_24  and  C_51
   12  A    between atoms: C_27  and  C_28
   13  A    between atoms: C_27  and  C_40
   14  A    between atoms: C_30  and  C_55
   15  A    between atoms: C_31  and  C_43
   16  A    between atoms: O_34  and  N_58
   17  A    between atoms: C_36  and  C_47
   18  A    between atoms: C_37  and  O_46
   19  A    between atoms: C_40  and  C_53
   20  A    between atoms: C_44  and  C_50
   21  A    between atoms: O_46  and  C_54
                            x       y       z     vdW  Elec       q    Type
                         _______ _______ _______ _____ _____    ______ ____

>  <TORSDO>
F 21

$$$$
=
 OpenBabel11062422343D

 59 67  0  0  1  0  0  0  0  0999 V2000
  188.9070  175.3120  143.9390 C   0  0  0  0  0  2  0  0  0  0  0  0
  189.7280  175.8420  145.0720 C   0  0  1  0  0  3  0  0  0  0  0  0
  189.6570  175.8980  142.7610 C   0  0  2  0  0  3  0  0  0  0  0  0
  190.1920  177.1500  143.1420 O   0  0  0  0  0  0  0  0  0  0  0  0
  190.2030  177.1730  144.5490 C   0  0  2  0  0  3  0  0  0  0  0  0
  189.0450  175.9970  146.4370 C   0  0  2  0  0  3  0  0  0  0  0  0
  188.3050  174.4120  148.1270 F   0  0  0  0  0  0  0  0  0  0  0  0
  190.5210  174.9280  148.0100 F   0  0  0  0  0  0  0  0  0  0  0  0
  189.3570  174.7640  147.2890 C   0  0  0  0  0  3  0  0  0  0  0  0
  187.5510  176.3180  146.3780 C   0  0  0  0  0  2  0  0  0  0  0  0
  186.5680  178.0970  147.7220 C   0  0  0  0  0  3  0  0  0  0  0  0
  186.2960  179.5300  148.0220 C   0  0  0  0  0  1  0  0  0  0  0  0
  187.2970  177.7650  146.6680 C   0  0  0  0  0  3  0  0  0  0  0  0
  188.7750  176.0370  141.5060 C   0  0  2  0  0  3  0  0  0  0  0  0
  187.8190  177.0800  141.6070 O   0  0  0  0  0  0  0  0  0  0  0  0
  186.9970  177.0710  140.4650 C   0  0  0  0  0  1  0  0  0  0  0  0
  188.1520  174.6880  141.1170 C   0  0  0  0  0  2  0  0  0  0  0  0
  188.9990  173.9290  140.1090 C   0  0  0  0  0  2  0  0  0  0  0  0
  189.6390  172.7280  140.7720 C   0  0  0  0  0  2  0  0  0  0  0  0
  190.8210  170.5580  139.7710 C   0  0  1  0  0  0  0  0  0  0  0  0
  192.0430  172.2390  140.7510 C   0  0  0  0  0  2  0  0  0  0  0  0
  192.1840  170.9860  141.5100 N   0  0  1  0  0  0  0  0  0  0  0  0
  190.8980  170.3440  141.2460 C   0  0  2  0  0  3  0  0  0  0  0  0
  193.1690  170.2410  140.7260 C   0  0  0  0  0  2  0  0  0  0  0  0
  190.8430  168.8760  141.6720 C   0  0  0  0  0  1  0  0  0  0  0  0
  189.9460  171.3750  138.8060 C   0  0  1  0  0  0  0  0  0  0  0  0
  190.7590  172.1100  139.9100 C   0  0  2  0  0  0  0  0  0  0  0  0
  192.4290  169.8910  139.0950 S   0  0  0  0  0  0  0  0  0  0  0  0
  190.4520  172.0870  137.6010 N   0  0  0  0  0  0  0  0  0  0  0  0
  190.2410  170.7460  137.6160 O   0  0  0  0  0  0  0  0  0  0  0  0
  191.8120  172.2260  137.5670 O   0  0  0  0  0  0  0  0  0  0  0  0
  192.1290  173.1330  136.5280 C   0  0  2  0  0  3  0  0  0  0  0  0
  193.4670  172.8260  135.8290 C   0  0  0  0  0  2  0  0  0  0  0  0
  192.2180  174.5410  137.1190 C   0  0  0  0  0  2  0  0  0  0  0  0
  193.3510  174.6230  138.1450 C   0  0  0  0  0  2  0  0  0  0  0  0
  194.7050  174.2070  137.5510 C   0  0  1  0  0  3  0  0  0  0  0  0
  194.6230  172.8560  136.8240 C   0  0  0  0  0  2  0  0  0  0  0  0
  195.2730  175.3130  136.6570 C   0  0  0  0  0  2  0  0  0  0  0  0
  196.6410  175.6260  137.0120 N   0  0  0  0  0  0  0  0  0  0  0  0
  197.1450  175.2240  138.1260 C   0  0  0  0  0  2  0  0  0  0  0  0
  191.5180  177.4220  145.0250 O   0  0  0  0  0  0  0  0  0  0  0  0
  192.4430  176.4240  145.3450 C   0  0  0  0  0  0  0  0  0  0  0  0
  192.7280  176.2600  146.5600 O   0  0  0  0  0  0  0  0  0  0  0  0
  193.0460  175.4860  144.3160 C   0  0  2  0  0  3  0  0  0  0  0  0
  192.7550  174.0470  144.6620 C   0  0  2  0  0  3  0  0  0  0  0  0
  195.1110  174.2880  144.6380 O   0  0  0  0  0  0  0  0  0  0  0  0
  194.0790  173.3490  144.4520 C   0  0  1  0  0  3  0  0  0  0  0  0
  191.7940  173.5240  143.8120 F   0  0  0  0  0  0  0  0  0  0  0  0
  194.5730  175.5380  144.2800 C   0  0  1  0  0  3  0  0  0  0  0  0
  196.1970  176.8240  143.0450 O   0  0  0  0  0  1  0  0  0  0  0  0
  195.0880  175.9860  142.9100 C   0  0  0  0  0  2  0  0  0  0  0  0
  194.2160  172.3040  145.3700 O   0  0  0  0  0  0  0  0  0  0  0  0
  193.9270  169.5980  144.3810 C   0  0  0  0  0  2  0  0  0  0  0  0
  195.2860  169.4690  145.0390 C   0  0  2  0  0  0  0  0  0  0  0  0
  195.3750  171.6170  144.9860 C   0  0  1  0  0  3  0  0  0  0  0  0
  195.7020  170.5540  146.0120 C   0  0  0  0  0  2  0  0  0  0  0  0
  195.0470  170.5310  143.9640 C   0  0  2  0  0  3  0  0  0  0  0  0
  196.3230  168.5210  144.4800 C   0  0  0  0  0  2  0  0  0  0  0  0
  197.2730  168.1660  145.5220 N   0  0  0  0  0  1  0  0  0  0  0  0
  1  2  1  0  0  0  0
  2  6  1  1  0  0  0
  3 14  1  6  0  0  0
  3  4  1  0  0  0  0
  3  1  1  0  0  0  0
  4  5  1  0  0  0  0
  5 41  1  6  0  0  0
  5  2  1  0  0  0  0
  6 10  1  6  0  0  0
  6  9  1  0  0  0  0
  9  8  1  0  0  0  0
  9  7  1  0  0  0  0
 10 13  1  0  0  0  0
 11 12  1  0  0  0  0
 13 11  2  0  0  0  0
 14 17  1  1  0  0  0
 14 15  1  0  0  0  0
 16 15  1  0  0  0  0
 18 19  1  0  0  0  0
 18 17  1  0  0  0  0
 20 28  1  6  0  0  0
 20 27  1  0  0  0  0
 20 23  1  0  0  0  0
 21 22  1  0  0  0  0
 22 24  1  6  0  0  0
 23 22  1  0  0  0  0
 23 25  1  6  0  0  0
 26 30  1  1  0  0  0
 26 20  1  0  0  0  0
 26 27  1  0  0  0  0
 27 21  1  0  0  0  0
 27 19  1  1  0  0  0
 28 24  1  0  0  0  0
 29 30  1  0  0  0  0
 29 26  1  0  0  0  0
 31 29  1  0  0  0  0
 32 34  1  0  0  0  0
 32 31  1  1  0  0  0
 33 32  1  0  0  0  0
 33 37  1  0  0  0  0
 34 35  1  0  0  0  0
 36 38  1  6  0  0  0
 36 35  1  0  0  0  0
 37 36  1  0  0  0  0
 38 39  1  0  0  0  0
 39 40  2  0  0  0  0
 41 42  1  0  0  0  0
 42 43  2  0  0  0  0
 44 45  1  0  0  0  0
 44 42  1  1  0  0  0
 45 48  1  6  0  0  0
 47 46  1  0  0  0  0
 47 45  1  0  0  0  0
 47 52  1  1  0  0  0
 49 51  1  6  0  0  0
 49 44  1  0  0  0  0
 49 46  1  0  0  0  0
 51 50  1  0  0  0  0
 53 54  1  0  0  0  0
 54 58  1  6  0  0  0
 54 56  1  0  0  0  0
 55 52  1  1  0  0  0
 55 56  1  0  0  0  0
 57 53  1  1  0  0  0
 57 55  1  0  0  0  0
 57 54  1  0  0  0  0
 58 59  1  0  0  0  0
M  END
>  <MODEL>
4

>  <REMARK>
 VINA RESULT:      -5.9      3.139      7.719
  Name = 
  21 active torsions:
  status: ('A' for Active; 'I' for Inactive)
    1  A    between atoms: C_1  and  C_3
    2  A    between atoms: C_1  and  C_24
    3  A    between atoms: C_3  and  C_36
    4  A    between atoms: C_4  and  C_37
    5  A    between atoms: N_6  and  C_30
    6  A    between atoms: C_7  and  C_27
    7  A    between atoms: O_8  and  C_29
    8  A    between atoms: O_8  and  C_32
    9  A    between atoms: C_9  and  O_34
   10  A    between atoms: O_22  and  C_36
   11  A    between atoms: C_24  and  C_51
   12  A    between atoms: C_27  and  C_28
   13  A    between atoms: C_27  and  C_40
   14  A    between atoms: C_30  and  C_55
   15  A    between atoms: C_31  and  C_43
   16  A    between atoms: O_34  and  N_58
   17  A    between atoms: C_36  and  C_47
   18  A    between atoms: C_37  and  O_46
   19  A    between atoms: C_40  and  C_53
   20  A    between atoms: C_44  and  C_50
   21  A    between atoms: O_46  and  C_54
                            x       y       z     vdW  Elec       q    Type
                         _______ _______ _______ _____ _____    ______ ____

>  <TORSDO>
F 21

$$$$
=
 OpenBabel11062422343D

 59 67  0  0  1  0  0  0  0  0999 V2000
  189.7490  174.6330  144.9230 C   0  0  0  0  0  2  0  0  0  0  0  0
  190.7290  175.4940  145.6550 C   0  0  1  0  0  3  0  0  0  0  0  0
  190.4230  174.5450  143.5690 C   0  0  2  0  0  3  0  0  0  0  0  0
  191.1070  175.7570  143.3230 O   0  0  0  0  0  0  0  0  0  0  0  0
  191.2670  176.3900  144.5700 C   0  0  2  0  0  3  0  0  0  0  0  0
  190.2090  176.3160  146.8420 C   0  0  2  0  0  3  0  0  0  0  0  0
  192.1790  177.1440  148.0040 F   0  0  0  0  0  0  0  0  0  0  0  0
  191.7420  174.9090  148.0530 F   0  0  0  0  0  0  0  0  0  0  0  0
  191.1870  176.1710  148.0110 C   0  0  0  0  0  3  0  0  0  0  0  0
  188.7610  176.0300  147.2400 C   0  0  0  0  0  2  0  0  0  0  0  0
  186.7830  176.9420  146.1460 C   0  0  0  0  0  3  0  0  0  0  0  0
  185.8830  178.0660  145.7650 C   0  0  0  0  0  1  0  0  0  0  0  0
  187.8650  177.1730  146.8750 C   0  0  0  0  0  3  0  0  0  0  0  0
  189.4310  174.2330  142.4330 C   0  0  2  0  0  3  0  0  0  0  0  0
  188.1970  174.9200  142.5630 O   0  0  0  0  0  0  0  0  0  0  0  0
  188.1220  175.9330  141.5890 C   0  0  0  0  0  1  0  0  0  0  0  0
  189.2580  172.7180  142.2510 C   0  0  0  0  0  2  0  0  0  0  0  0
  189.7540  172.2380  140.8970 C   0  0  0  0  0  2  0  0  0  0  0  0
  191.2140  171.8500  140.9900 C   0  0  0  0  0  2  0  0  0  0  0  0
  192.5200  169.8560  139.7950 C   0  0  1  0  0  0  0  0  0  0  0  0
  192.9380  172.0490  139.2540 C   0  0  0  0  0  2  0  0  0  0  0  0
  194.1360  171.4210  139.8330 N   0  0  1  0  0  0  0  0  0  0  0  0
  193.5380  170.4280  140.7230 C   0  0  2  0  0  3  0  0  0  0  0  0
  194.6830  170.6670  138.7060 C   0  0  0  0  0  2  0  0  0  0  0  0
  194.5380  169.4060  141.2670 C   0  0  0  0  0  1  0  0  0  0  0  0
  190.9850  169.8310  139.7000 C   0  0  1  0  0  0  0  0  0  0  0  0
  191.7310  171.1960  139.6910 C   0  0  2  0  0  0  0  0  0  0  0  0
  193.4700  169.3790  138.2600 S   0  0  0  0  0  0  0  0  0  0  0  0
  190.2140  169.9560  138.4330 N   0  0  0  0  0  0  0  0  0  0  0  0
  190.8110  168.7960  138.8080 O   0  0  0  0  0  0  0  0  0  0  0  0
  190.9530  170.4030  137.3730 O   0  0  0  0  0  0  0  0  0  0  0  0
  190.0540  170.7970  136.3520 C   0  0  2  0  0  3  0  0  0  0  0  0
  190.7430  171.1010  135.0090 C   0  0  0  0  0  2  0  0  0  0  0  0
  189.3230  172.0610  136.8060 C   0  0  0  0  0  2  0  0  0  0  0  0
  190.3130  173.2130  136.9990 C   0  0  0  0  0  2  0  0  0  0  0  0
  191.1320  173.4960  135.7310 C   0  0  1  0  0  3  0  0  0  0  0  0
  191.7700  172.2200  135.1620 C   0  0  0  0  0  2  0  0  0  0  0  0
  190.2880  174.2360  134.6890 C   0  0  0  0  0  2  0  0  0  0  0  0
  189.6490  175.4020  135.2610 N   0  0  0  0  0  0  0  0  0  0  0  0
  188.4130  175.6680  135.0190 C   0  0  0  0  0  2  0  0  0  0  0  0
  192.6410  176.6520  144.8140 O   0  0  0  0  0  0  0  0  0  0  0  0
  193.6480  175.6830  144.7690 C   0  0  0  0  0  0  0  0  0  0  0  0
  193.7640  174.9160  145.7600 O   0  0  0  0  0  0  0  0  0  0  0  0
  194.5380  175.4630  143.5600 C   0  0  2  0  0  3  0  0  0  0  0  0
  194.3850  174.0600  143.0260 C   0  0  2  0  0  3  0  0  0  0  0  0
  196.6570  174.3190  143.6430 O   0  0  0  0  0  0  0  0  0  0  0  0
  195.8060  173.6120  142.7730 C   0  0  1  0  0  3  0  0  0  0  0  0
  193.6630  174.0630  141.8440 F   0  0  0  0  0  0  0  0  0  0  0  0
  196.0280  175.5540  143.8890 C   0  0  1  0  0  3  0  0  0  0  0  0
  196.1620  176.8000  141.8280 O   0  0  0  0  0  1  0  0  0  0  0  0
  196.7080  176.6810  143.1080 C   0  0  0  0  0  2  0  0  0  0  0  0
  195.9200  172.2380  143.0100 O   0  0  0  0  0  0  0  0  0  0  0  0
  197.4440  170.1710  144.3470 C   0  0  0  0  0  2  0  0  0  0  0  0
  196.1950  170.1420  145.2050 C   0  0  2  0  0  0  0  0  0  0  0  0
  195.7430  172.0800  144.3910 C   0  0  1  0  0  3  0  0  0  0  0  0
  194.9520  170.8180  144.6620 C   0  0  0  0  0  2  0  0  0  0  0  0
  196.9770  171.4440  145.0250 C   0  0  2  0  0  3  0  0  0  0  0  0
  196.2810  169.7910  146.6740 C   0  0  0  0  0  2  0  0  0  0  0  0
  194.9860  169.3260  147.1420 N   0  0  0  0  0  1  0  0  0  0  0  0
  1  2  1  0  0  0  0
  2  6  1  1  0  0  0
  3 14  1  6  0  0  0
  3  1  1  0  0  0  0
  4  3  1  0  0  0  0
  4  5  1  0  0  0  0
  5 41  1  1  0  0  0
  5  2  1  0  0  0  0
  6 10  1  1  0  0  0
  6  9  1  0  0  0  0
  7  9  1  0  0  0  0
  9  8  1  0  0  0  0
 11 13  2  0  0  0  0
 12 11  1  0  0  0  0
 13 10  1  0  0  0  0
 14 17  1  1  0  0  0
 14 15  1  0  0  0  0
 16 15  1  0  0  0  0
 18 19  1  0  0  0  0
 18 17  1  0  0  0  0
 20 28  1  6  0  0  0
 20 23  1  0  0  0  0
 21 27  1  0  0  0  0
 21 22  1  0  0  0  0
 22 24  1  6  0  0  0
 22 23  1  0  0  0  0
 23 25  1  6  0  0  0
 26 30  1  1  0  0  0
 26 20  1  0  0  0  0
 27 26  1  0  0  0  0
 27 20  1  0  0  0  0
 27 19  1  1  0  0  0
 28 24  1  0  0  0  0
 29 30  1  0  0  0  0
 29 26  1  0  0  0  0
 31 29  1  0  0  0  0
 32 34  1  0  0  0  0
 32 31  1  1  0  0  0
 33 37  1  0  0  0  0
 33 32  1  0  0  0  0
 34 35  1  0  0  0  0
 36 38  1  6  0  0  0
 36 35  1  0  0  0  0
 37 36  1  0  0  0  0
 38 39  1  0  0  0  0
 40 39  2  0  0  0  0
 42 41  1  0  0  0  0
 42 43  2  0  0  0  0
 44 49  1  0  0  0  0
 44 42  1  1  0  0  0
 45 48  1  6  0  0  0
 45 44  1  0  0  0  0
 46 49  1  0  0  0  0
 47 52  1  1  0  0  0
 47 45  1  0  0  0  0
 47 46  1  0  0  0  0
 49 51  1  6  0  0  0
 50 51  1  0  0  0  0
 53 54  1  0  0  0  0
 54 58  1  1  0  0  0
 55 52  1  6  0  0  0
 55 56  1  0  0  0  0
 55 57  1  0  0  0  0
 56 54  1  0  0  0  0
 57 53  1  6  0  0  0
 57 54  1  0  0  0  0
 58 59  1  0  0  0  0
M  END
>  <MODEL>
5

>  <REMARK>
 VINA RESULT:      -5.5      3.098      7.778
  Name = 
  21 active torsions:
  status: ('A' for Active; 'I' for Inactive)
    1  A    between atoms: C_1  and  C_3
    2  A    between atoms: C_1  and  C_24
    3  A    between atoms: C_3  and  C_36
    4  A    between atoms: C_4  and  C_37
    5  A    between atoms: N_6  and  C_30
    6  A    between atoms: C_7  and  C_27
    7  A    between atoms: O_8  and  C_29
    8  A    between atoms: O_8  and  C_32
    9  A    between atoms: C_9  and  O_34
   10  A    between atoms: O_22  and  C_36
   11  A    between atoms: C_24  and  C_51
   12  A    between atoms: C_27  and  C_28
   13  A    between atoms: C_27  and  C_40
   14  A    between atoms: C_30  and  C_55
   15  A    between atoms: C_31  and  C_43
   16  A    between atoms: O_34  and  N_58
   17  A    between atoms: C_36  and  C_47
   18  A    between atoms: C_37  and  O_46
   19  A    between atoms: C_40  and  C_53
   20  A    between atoms: C_44  and  C_50
   21  A    between atoms: O_46  and  C_54
                            x       y       z     vdW  Elec       q    Type
                         _______ _______ _______ _____ _____    ______ ____

>  <TORSDO>
F 21

$$$$
=
 OpenBabel11062422343D

 59 67  0  0  1  0  0  0  0  0999 V2000
  188.9660  175.3490  143.7930 C   0  0  0  0  0  2  0  0  0  0  0  0
  190.2230  175.5750  144.5720 C   0  0  1  0  0  3  0  0  0  0  0  0
  189.5390  174.7810  142.5110 C   0  0  2  0  0  3  0  0  0  0  0  0
  190.7990  175.3770  142.2730 O   0  0  0  0  0  0  0  0  0  0  0  0
  191.2260  175.9190  143.5010 C   0  0  2  0  0  3  0  0  0  0  0  0
  190.1990  176.6470  145.6690 C   0  0  2  0  0  3  0  0  0  0  0  0
  190.8110  176.8230  148.0170 F   0  0  0  0  0  0  0  0  0  0  0  0
  191.1250  174.8330  146.9530 F   0  0  0  0  0  0  0  0  0  0  0  0
  190.3390  175.9640  147.0320 C   0  0  0  0  0  3  0  0  0  0  0  0
  189.0130  177.6100  145.6060 C   0  0  0  0  0  2  0  0  0  0  0  0
  187.0780  177.9370  147.0510 C   0  0  0  0  0  3  0  0  0  0  0  0
  185.9220  177.4370  147.8460 C   0  0  0  0  0  1  0  0  0  0  0  0
  187.8500  177.0870  146.3910 C   0  0  0  0  0  3  0  0  0  0  0  0
  188.6020  174.9790  141.3040 C   0  0  2  0  0  3  0  0  0  0  0  0
  187.4250  175.7050  141.6230 O   0  0  0  0  0  0  0  0  0  0  0  0
  187.2810  176.7780  140.7250 C   0  0  0  0  0  1  0  0  0  0  0  0
  188.3120  173.6430  140.6050 C   0  0  0  0  0  2  0  0  0  0  0  0
  188.6160  173.6920  139.1160 C   0  0  0  0  0  2  0  0  0  0  0  0
  188.7800  172.2870  138.5760 C   0  0  0  0  0  2  0  0  0  0  0  0
  191.0960  171.8240  137.3380 C   0  0  1  0  0  0  0  0  0  0  0  0
  190.1610  170.2660  138.7430 C   0  0  0  0  0  2  0  0  0  0  0  0
  190.2400  169.7430  137.3690 N   0  0  1  0  0  0  0  0  0  0  0  0
  190.1270  170.9730  136.5880 C   0  0  2  0  0  3  0  0  0  0  0  0
  191.6390  169.3290  137.2600 C   0  0  0  0  0  2  0  0  0  0  0  0
  190.4620  170.7940  135.1070 C   0  0  0  0  0  1  0  0  0  0  0  0
  191.0250  173.0790  138.2250 C   0  0  1  0  0  0  0  0  0  0  0  0
  190.2430  171.8010  138.6430 C   0  0  2  0  0  0  0  0  0  0  0  0
  192.6720  170.8270  137.4080 S   0  0  0  0  0  0  0  0  0  0  0  0
  191.8370  173.2920  139.4540 N   0  0  0  0  0  0  0  0  0  0  0  0
  192.3480  173.4650  138.2080 O   0  0  0  0  0  0  0  0  0  0  0  0
  192.4420  172.1610  139.9260 O   0  0  0  0  0  0  0  0  0  0  0  0
  192.8290  172.4010  141.2660 C   0  0  2  0  0  3  0  0  0  0  0  0
  194.0350  171.5590  141.7200 C   0  0  0  0  0  2  0  0  0  0  0  0
  191.6500  172.0700  142.1820 C   0  0  0  0  0  2  0  0  0  0  0  0
  191.2920  170.5850  142.0800 C   0  0  0  0  0  2  0  0  0  0  0  0
  192.4880  169.6740  142.3980 C   0  0  1  0  0  3  0  0  0  0  0  0
  193.7380  170.0670  141.5970 C   0  0  0  0  0  2  0  0  0  0  0  0
  192.7550  169.6300  143.9060 C   0  0  0  0  0  2  0  0  0  0  0  0
  194.0570  169.0680  144.1920 N   0  0  0  0  0  0  0  0  0  0  0  0
  194.3080  168.5210  145.3310 C   0  0  0  0  0  2  0  0  0  0  0  0
  192.4940  175.3870  143.8560 O   0  0  0  0  0  0  0  0  0  0  0  0
  193.7070  175.7990  143.2960 C   0  0  0  0  0  0  0  0  0  0  0  0
  193.6630  176.4160  142.2010 O   0  0  0  0  0  0  0  0  0  0  0  0
  195.0470  175.6130  143.9830 C   0  0  2  0  0  3  0  0  0  0  0  0
  196.1690  176.1440  143.1270 C   0  0  2  0  0  3  0  0  0  0  0  0
  196.5880  173.8370  143.4590 O   0  0  0  0  0  0  0  0  0  0  0  0
  197.2260  175.0660  143.2040 C   0  0  1  0  0  3  0  0  0  0  0  0
  196.6570  177.3340  143.6430 F   0  0  0  0  0  0  0  0  0  0  0  0
  195.4190  174.1440  144.1800 C   0  0  1  0  0  3  0  0  0  0  0  0
  195.6180  172.4160  145.8520 O   0  0  0  0  0  1  0  0  0  0  0  0
  195.5820  173.8000  145.6620 C   0  0  0  0  0  2  0  0  0  0  0  0
  197.9240  174.9980  141.9950 O   0  0  0  0  0  0  0  0  0  0  0  0
  197.9280  173.2980  139.6510 C   0  0  0  0  0  2  0  0  0  0  0  0
  197.4590  174.5890  139.0110 C   0  0  2  0  0  0  0  0  0  0  0  0
  196.9720  175.2500  140.9980 C   0  0  1  0  0  3  0  0  0  0  0  0
  197.6470  175.8720  139.7940 C   0  0  0  0  0  2  0  0  0  0  0  0
  196.6890  173.9870  140.1880 C   0  0  2  0  0  3  0  0  0  0  0  0
  196.5180  174.5600  137.8260 C   0  0  0  0  0  2  0  0  0  0  0  0
  196.8850  175.6070  136.8860 N   0  0  0  0  0  1  0  0  0  0  0  0
  1  2  1  0  0  0  0
  2  6  1  1  0  0  0
  3 14  1  6  0  0  0
  3  1  1  0  0  0  0
  4  3  1  0  0  0  0
  4  5  1  0  0  0  0
  5 41  1  1  0  0  0
  5  2  1  0  0  0  0
  6 10  1  1  0  0  0
  6  9  1  0  0  0  0
  8  9  1  0  0  0  0
  9  7  1  0  0  0  0
 10 13  1  0  0  0  0
 11 12  1  0  0  0  0
 13 11  2  0  0  0  0
 14 17  1  1  0  0  0
 14 15  1  0  0  0  0
 16 15  1  0  0  0  0
 18 17  1  0  0  0  0
 19 18  1  0  0  0  0
 20 28  1  1  0  0  0
 20 26  1  0  0  0  0
 20 27  1  0  0  0  0
 22 24  1  1  0  0  0
 22 21  1  0  0  0  0
 23 25  1  6  0  0  0
 23 20  1  0  0  0  0
 23 22  1  0  0  0  0
 24 28  1  0  0  0  0
 26 30  1  6  0  0  0
 26 27  1  0  0  0  0
 26 29  1  0  0  0  0
 27 19  1  6  0  0  0
 27 21  1  0  0  0  0
 29 31  1  0  0  0  0
 30 29  1  0  0  0  0
 32 31  1  6  0  0  0
 32 33  1  0  0  0  0
 32 34  1  0  0  0  0
 35 34  1  0  0  0  0
 35 36  1  0  0  0  0
 36 38  1  1  0  0  0
 37 33  1  0  0  0  0
 37 36  1  0  0  0  0
 38 39  1  0  0  0  0
 39 40  2  0  0  0  0
 42 41  1  0  0  0  0
 43 42  2  0  0  0  0
 44 42  1  6  0  0  0
 44 49  1  0  0  0  0
 45 47  1  0  0  0  0
 45 48  1  1  0  0  0
 45 44  1  0  0  0  0
 46 49  1  0  0  0  0
 47 52  1  6  0  0  0
 47 46  1  0  0  0  0
 49 51  1  1  0  0  0
 51 50  1  0  0  0  0
 54 58  1  6  0  0  0
 54 53  1  0  0  0  0
 54 56  1  0  0  0  0
 54 57  1  0  0  0  0
 55 52  1  1  0  0  0
 56 55  1  0  0  0  0
 57 53  1  1  0  0  0
 57 55  1  0  0  0  0
 59 58  1  0  0  0  0
M  END
>  <MODEL>
6

>  <REMARK>
 VINA RESULT:      -5.5      2.932      7.022
  Name = 
  21 active torsions:
  status: ('A' for Active; 'I' for Inactive)
    1  A    between atoms: C_1  and  C_3
    2  A    between atoms: C_1  and  C_24
    3  A    between atoms: C_3  and  C_36
    4  A    between atoms: C_4  and  C_37
    5  A    between atoms: N_6  and  C_30
    6  A    between atoms: C_7  and  C_27
    7  A    between atoms: O_8  and  C_29
    8  A    between atoms: O_8  and  C_32
    9  A    between atoms: C_9  and  O_34
   10  A    between atoms: O_22  and  C_36
   11  A    between atoms: C_24  and  C_51
   12  A    between atoms: C_27  and  C_28
   13  A    between atoms: C_27  and  C_40
   14  A    between atoms: C_30  and  C_55
   15  A    between atoms: C_31  and  C_43
   16  A    between atoms: O_34  and  N_58
   17  A    between atoms: C_36  and  C_47
   18  A    between atoms: C_37  and  O_46
   19  A    between atoms: C_40  and  C_53
   20  A    between atoms: C_44  and  C_50
   21  A    between atoms: O_46  and  C_54
                            x       y       z     vdW  Elec       q    Type
                         _______ _______ _______ _____ _____    ______ ____

>  <TORSDO>
F 21

$$$$
=
 OpenBabel11062422343D

 59 67  0  0  1  0  0  0  0  0999 V2000
  189.4010  172.3520  140.6080 C   0  0  0  0  0  2  0  0  0  0  0  0
  188.7830  173.3670  139.7000 C   0  0  1  0  0  3  0  0  0  0  0  0
  188.7010  172.6880  141.9090 C   0  0  2  0  0  3  0  0  0  0  0  0
  188.4530  174.0800  141.9440 O   0  0  0  0  0  0  0  0  0  0  0  0
  188.5460  174.5390  140.6160 C   0  0  2  0  0  3  0  0  0  0  0  0
  189.5770  173.7900  138.4570 C   0  0  2  0  0  3  0  0  0  0  0  0
  188.6030  172.7230  136.5010 F   0  0  0  0  0  0  0  0  0  0  0  0
  188.8960  174.9820  136.4790 F   0  0  0  0  0  0  0  0  0  0  0  0
  188.6200  173.8830  137.2660 C   0  0  0  0  0  3  0  0  0  0  0  0
  190.8140  172.9420  138.1620 C   0  0  0  0  0  2  0  0  0  0  0  0
  192.7070  174.0080  139.2660 C   0  0  0  0  0  3  0  0  0  0  0  0
  193.9360  174.8480  139.2650 C   0  0  0  0  0  1  0  0  0  0  0  0
  192.0530  173.7820  138.1370 C   0  0  0  0  0  3  0  0  0  0  0  0
  189.5030  172.2430  143.1460 C   0  0  2  0  0  3  0  0  0  0  0  0
  189.7300  173.2920  144.0730 O   0  0  0  0  0  0  0  0  0  0  0  0
  189.6940  172.7740  145.3810 C   0  0  0  0  0  1  0  0  0  0  0  0
  190.7920  171.5150  142.7370 C   0  0  0  0  0  2  0  0  0  0  0  0
  191.9780  172.4590  142.6250 C   0  0  0  0  0  2  0  0  0  0  0  0
  193.2710  171.6800  142.7490 C   0  0  0  0  0  2  0  0  0  0  0  0
  195.8520  172.0420  143.3110 C   0  0  1  0  0  0  0  0  0  0  0  0
  194.2590  172.0370  144.9660 C   0  0  0  0  0  2  0  0  0  0  0  0
  195.1990  170.9200  145.1490 N   0  0  1  0  0  0  0  0  0  0  0  0
  195.5910  170.6460  143.7680 C   0  0  2  0  0  3  0  0  0  0  0  0
  196.3540  171.5670  145.7700 C   0  0  0  0  0  2  0  0  0  0  0  0
  196.7930  169.7090  143.6440 C   0  0  0  0  0  1  0  0  0  0  0  0
  195.2170  173.0270  142.3150 C   0  0  1  0  0  0  0  0  0  0  0  0
  194.3650  172.4740  143.4930 C   0  0  2  0  0  0  0  0  0  0  0  0
  197.0380  172.7540  144.5640 S   0  0  0  0  0  0  0  0  0  0  0  0
  195.0610  174.4880  142.5530 N   0  0  0  0  0  0  0  0  0  0  0  0
  196.2440  173.9360  142.1810 O   0  0  0  0  0  0  0  0  0  0  0  0
  195.2430  174.8630  143.8550 O   0  0  0  0  0  0  0  0  0  0  0  0
  194.6790  176.1510  144.0200 C   0  0  2  0  0  3  0  0  0  0  0  0
  194.9480  176.7690  145.4040 C   0  0  0  0  0  2  0  0  0  0  0  0
  193.1640  176.0480  143.8340 C   0  0  0  0  0  2  0  0  0  0  0  0
  192.5510  175.1500  144.9120 C   0  0  0  0  0  2  0  0  0  0  0  0
  192.8840  175.6350  146.3310 C   0  0  1  0  0  3  0  0  0  0  0  0
  194.3880  175.8850  146.5150 C   0  0  0  0  0  2  0  0  0  0  0  0
  192.0420  176.8600  146.7020 C   0  0  0  0  0  2  0  0  0  0  0  0
  190.9440  176.4990  147.5740 N   0  0  0  0  0  0  0  0  0  0  0  0
  190.8120  175.2950  148.0100 C   0  0  0  0  0  2  0  0  0  0  0  0
  187.3430  175.1940  140.2390 O   0  0  0  0  0  0  0  0  0  0  0  0
  187.2240  176.5740  140.0430 C   0  0  0  0  0  0  0  0  0  0  0  0
  187.3870  177.0130  138.8760 O   0  0  0  0  0  0  0  0  0  0  0  0
  186.8300  177.5400  141.1450 C   0  0  2  0  0  3  0  0  0  0  0  0
  187.8170  177.4900  142.2840 C   0  0  2  0  0  3  0  0  0  0  0  0
  185.7080  176.8790  143.1720 O   0  0  0  0  0  0  0  0  0  0  0  0
  186.9450  177.4550  143.5180 C   0  0  1  0  0  3  0  0  0  0  0  0
  188.6150  178.6230  142.2900 F   0  0  0  0  0  0  0  0  0  0  0  0
  185.5030  177.1780  141.8120 C   0  0  1  0  0  3  0  0  0  0  0  0
  184.1100  178.4430  140.3020 O   0  0  0  0  0  1  0  0  0  0  0  0
  184.4680  178.2920  141.6440 C   0  0  0  0  0  2  0  0  0  0  0  0
  187.5620  176.6920  144.5140 O   0  0  0  0  0  0  0  0  0  0  0  0
  185.9690  176.4130  146.9160 C   0  0  0  0  0  2  0  0  0  0  0  0
  186.1810  177.9130  146.9420 C   0  0  2  0  0  0  0  0  0  0  0  0
  187.8040  177.5800  145.5710 C   0  0  1  0  0  3  0  0  0  0  0  0
  186.6700  178.5770  145.6700 C   0  0  0  0  0  2  0  0  0  0  0  0
  187.3810  176.9650  146.9030 C   0  0  2  0  0  3  0  0  0  0  0  0
  186.2660  178.6540  148.2580 C   0  0  0  0  0  2  0  0  0  0  0  0
  186.3140  180.0860  148.0110 N   0  0  0  0  0  1  0  0  0  0  0  0
  1  3  1  0  0  0  0
  2  6  1  6  0  0  0
  2  1  1  0  0  0  0
  2  5  1  0  0  0  0
  3  4  1  0  0  0  0
  3 14  1  1  0  0  0
  5 41  1  6  0  0  0
  5  4  1  0  0  0  0
  6 10  1  6  0  0  0
  7  9  1  0  0  0  0
  8  9  1  0  0  0  0
  9  6  1  0  0  0  0
 12 11  1  0  0  0  0
 13 10  1  0  0  0  0
 13 11  2  0  0  0  0
 14 17  1  6  0  0  0
 14 15  1  0  0  0  0
 15 16  1  0  0  0  0
 18 17  1  0  0  0  0
 18 19  1  0  0  0  0
 20 27  1  0  0  0  0
 20 23  1  0  0  0  0
 20 28  1  1  0  0  0
 22 21  1  6  0  0  0
 22 24  1  0  0  0  0
 23 25  1  1  0  0  0
 23 22  1  0  0  0  0
 26 30  1  6  0  0  0
 26 29  1  0  0  0  0
 26 20  1  0  0  0  0
 26 27  1  0  0  0  0
 27 19  1  6  0  0  0
 27 21  1  0  0  0  0
 28 24  1  0  0  0  0
 29 31  1  0  0  0  0
 30 29  1  0  0  0  0
 32 31  1  1  0  0  0
 32 33  1  0  0  0  0
 33 37  1  0  0  0  0
 34 32  1  0  0  0  0
 34 35  1  0  0  0  0
 35 36  1  0  0  0  0
 36 37  1  0  0  0  0
 36 38  1  6  0  0  0
 38 39  1  0  0  0  0
 39 40  2  0  0  0  0
 42 41  1  0  0  0  0
 43 42  2  0  0  0  0
 44 42  1  6  0  0  0
 44 49  1  0  0  0  0
 44 45  1  0  0  0  0
 45 48  1  1  0  0  0
 45 47  1  0  0  0  0
 46 47  1  0  0  0  0
 47 52  1  1  0  0  0
 49 51  1  1  0  0  0
 49 46  1  0  0  0  0
 50 51  1  0  0  0  0
 53 54  1  0  0  0  0
 54 58  1  1  0  0  0
 55 52  1  6  0  0  0
 55 56  1  0  0  0  0
 55 57  1  0  0  0  0
 56 54  1  0  0  0  0
 57 53  1  6  0  0  0
 57 54  1  0  0  0  0
 59 58  1  0  0  0  0
M  END
>  <MODEL>
7

>  <REMARK>
 VINA RESULT:      -5.5      3.525      9.395
  Name = 
  21 active torsions:
  status: ('A' for Active; 'I' for Inactive)
    1  A    between atoms: C_1  and  C_3
    2  A    between atoms: C_1  and  C_24
    3  A    between atoms: C_3  and  C_36
    4  A    between atoms: C_4  and  C_37
    5  A    between atoms: N_6  and  C_30
    6  A    between atoms: C_7  and  C_27
    7  A    between atoms: O_8  and  C_29
    8  A    between atoms: O_8  and  C_32
    9  A    between atoms: C_9  and  O_34
   10  A    between atoms: O_22  and  C_36
   11  A    between atoms: C_24  and  C_51
   12  A    between atoms: C_27  and  C_28
   13  A    between atoms: C_27  and  C_40
   14  A    between atoms: C_30  and  C_55
   15  A    between atoms: C_31  and  C_43
   16  A    between atoms: O_34  and  N_58
   17  A    between atoms: C_36  and  C_47
   18  A    between atoms: C_37  and  O_46
   19  A    between atoms: C_40  and  C_53
   20  A    between atoms: C_44  and  C_50
   21  A    between atoms: O_46  and  C_54
                            x       y       z     vdW  Elec       q    Type
                         _______ _______ _______ _____ _____    ______ ____

>  <TORSDO>
F 21

$$$$
=
 OpenBabel11062422343D

 59 67  0  0  1  0  0  0  0  0999 V2000
  195.1100  174.8000  142.8200 C   0  0  0  0  0  2  0  0  0  0  0  0
  194.3200  175.4540  143.9090 C   0  0  1  0  0  3  0  0  0  0  0  0
  194.6700  175.6270  141.6300 C   0  0  2  0  0  3  0  0  0  0  0  0
  193.3280  176.0260  141.8250 O   0  0  0  0  0  0  0  0  0  0  0  0
  193.0620  175.8840  143.2010 C   0  0  2  0  0  3  0  0  0  0  0  0
  193.9940  174.6190  145.1540 C   0  0  2  0  0  3  0  0  0  0  0  0
  194.9160  176.5420  146.3230 F   0  0  0  0  0  0  0  0  0  0  0  0
  196.0460  174.5660  146.4110 F   0  0  0  0  0  0  0  0  0  0  0  0
  194.8020  175.1580  146.3370 C   0  0  0  0  0  3  0  0  0  0  0  0
  194.1390  173.1080  144.9740 C   0  0  0  0  0  2  0  0  0  0  0  0
  192.2610  172.4410  143.5710 C   0  0  0  0  0  3  0  0  0  0  0  0
  190.9310  171.8060  143.3570 C   0  0  0  0  0  1  0  0  0  0  0  0
  192.8050  172.4560  144.7780 C   0  0  0  0  0  3  0  0  0  0  0  0
  194.8320  174.8770  140.2940 C   0  0  2  0  0  3  0  0  0  0  0  0
  195.5060  175.6370  139.3040 O   0  0  0  0  0  0  0  0  0  0  0  0
  196.8840  175.3630  139.3640 C   0  0  0  0  0  1  0  0  0  0  0  0
  193.4860  174.3180  139.8090 C   0  0  0  0  0  2  0  0  0  0  0  0
  193.5470  173.8340  138.3700 C   0  0  0  0  0  2  0  0  0  0  0  0
  194.4620  172.6320  138.2680 C   0  0  0  0  0  2  0  0  0  0  0  0
  194.7020  170.3320  136.9390 C   0  0  1  0  0  0  0  0  0  0  0  0
  193.3160  172.0040  136.1900 C   0  0  0  0  0  2  0  0  0  0  0  0
  194.3940  171.7520  135.2210 N   0  0  1  0  0  0  0  0  0  0  0  0
  195.4700  171.2980  136.1000 C   0  0  2  0  0  3  0  0  0  0  0  0
  193.9250  170.5600  134.5170 C   0  0  0  0  0  2  0  0  0  0  0  0
  196.6540  170.6800  135.3550 C   0  0  0  0  0  1  0  0  0  0  0  0
  194.2580  170.2380  138.4090 C   0  0  1  0  0  0  0  0  0  0  0  0
  193.7920  171.4450  137.5440 C   0  0  2  0  0  0  0  0  0  0  0  0
  193.8550  169.1940  135.7260 S   0  0  0  0  0  0  0  0  0  0  0  0
  192.9360  169.7260  138.8620 N   0  0  0  0  0  0  0  0  0  0  0  0
  193.9450  168.8990  138.4850 O   0  0  0  0  0  0  0  0  0  0  0  0
  192.0070  169.6220  137.8650 O   0  0  0  0  0  0  0  0  0  0  0  0
  190.7470  169.3930  138.4670 C   0  0  2  0  0  3  0  0  0  0  0  0
  189.5620  169.9150  137.6330 C   0  0  0  0  0  2  0  0  0  0  0  0
  190.7180  170.0990  139.8230 C   0  0  0  0  0  2  0  0  0  0  0  0
  190.8580  171.6130  139.6430 C   0  0  0  0  0  2  0  0  0  0  0  0
  189.7780  172.1920  138.7160 C   0  0  1  0  0  3  0  0  0  0  0  0
  189.6800  171.4170  137.3940 C   0  0  0  0  0  2  0  0  0  0  0  0
  188.4300  172.2810  139.4370 C   0  0  0  0  0  2  0  0  0  0  0  0
  188.4570  173.2820  140.4820 N   0  0  0  0  0  0  0  0  0  0  0  0
  188.7300  174.5120  140.2160 C   0  0  0  0  0  2  0  0  0  0  0  0
  192.6150  177.1180  143.7430 O   0  0  0  0  0  0  0  0  0  0  0  0
  191.2980  177.3770  144.1350 C   0  0  0  0  0  0  0  0  0  0  0  0
  190.7260  178.3790  143.6320 O   0  0  0  0  0  0  0  0  0  0  0  0
  190.5110  176.4680  145.0600 C   0  0  2  0  0  3  0  0  0  0  0  0
  189.2280  176.0170  144.4080 C   0  0  2  0  0  3  0  0  0  0  0  0
  188.6260  177.1960  146.3720 O   0  0  0  0  0  0  0  0  0  0  0  0
  188.1910  176.1840  145.4950 C   0  0  1  0  0  3  0  0  0  0  0  0
  189.3150  174.6870  144.0260 F   0  0  0  0  0  0  0  0  0  0  0  0
  190.0320  177.1740  146.3290 C   0  0  1  0  0  3  0  0  0  0  0  0
  191.9780  176.7900  147.7020 O   0  0  0  0  0  1  0  0  0  0  0  0
  190.6110  176.5230  147.5860 C   0  0  0  0  0  2  0  0  0  0  0  0
  186.9630  176.5420  144.9290 O   0  0  0  0  0  0  0  0  0  0  0  0
  185.0530  178.2690  143.6060 C   0  0  0  0  0  2  0  0  0  0  0  0
  185.5940  177.5360  142.3940 C   0  0  2  0  0  0  0  0  0  0  0  0
  187.2610  176.9800  143.6320 C   0  0  1  0  0  3  0  0  0  0  0  0
  186.3790  176.2620  142.6350 C   0  0  0  0  0  2  0  0  0  0  0  0
  186.5430  178.2920  143.3250 C   0  0  2  0  0  3  0  0  0  0  0  0
  185.6730  178.2270  141.0510 C   0  0  0  0  0  2  0  0  0  0  0  0
  184.3310  178.4610  140.5420 N   0  0  0  0  0  1  0  0  0  0  0  0
  1  2  1  0  0  0  0
  2  6  1  1  0  0  0
  3 14  1  6  0  0  0
  3  4  1  0  0  0  0
  3  1  1  0  0  0  0
  4  5  1  0  0  0  0
  5 41  1  1  0  0  0
  5  2  1  0  0  0  0
  6 10  1  6  0  0  0
  6  9  1  0  0  0  0
  7  9  1  0  0  0  0
  9  8  1  0  0  0  0
 11 13  2  0  0  0  0
 12 11  1  0  0  0  0
 13 10  1  0  0  0  0
 14 17  1  6  0  0  0
 15 16  1  0  0  0  0
 15 14  1  0  0  0  0
 18 17  1  0  0  0  0
 19 18  1  0  0  0  0
 20 28  1  6  0  0  0
 20 27  1  0  0  0  0
 20 26  1  0  0  0  0
 21 27  1  0  0  0  0
 22 24  1  6  0  0  0
 22 23  1  0  0  0  0
 22 21  1  0  0  0  0
 23 25  1  6  0  0  0
 23 20  1  0  0  0  0
 24 28  1  0  0  0  0
 26 30  1  1  0  0  0
 26 29  1  0  0  0  0
 27 19  1  1  0  0  0
 27 26  1  0  0  0  0
 30 29  1  0  0  0  0
 31 29  1  0  0  0  0
 32 31  1  6  0  0  0
 32 34  1  0  0  0  0
 33 32  1  0  0  0  0
 35 34  1  0  0  0  0
 36 38  1  1  0  0  0
 36 35  1  0  0  0  0
 37 33  1  0  0  0  0
 37 36  1  0  0  0  0
 38 39  1  0  0  0  0
 40 39  2  0  0  0  0
 41 42  1  0  0  0  0
 43 42  2  0  0  0  0
 44 42  1  6  0  0  0
 44 49  1  0  0  0  0
 45 48  1  1  0  0  0
 45 44  1  0  0  0  0
 45 47  1  0  0  0  0
 47 52  1  6  0  0  0
 47 46  1  0  0  0  0
 49 46  1  0  0  0  0
 49 51  1  1  0  0  0
 51 50  1  0  0  0  0
 54 58  1  6  0  0  0
 54 56  1  0  0  0  0
 54 57  1  0  0  0  0
 54 53  1  0  0  0  0
 55 52  1  1  0  0  0
 56 55  1  0  0  0  0
 57 53  1  1  0  0  0
 57 55  1  0  0  0  0
 59 58  1  0  0  0  0
M  END
>  <MODEL>
8

>  <REMARK>
 VINA RESULT:      -5.5      2.918      8.328
  Name = 
  21 active torsions:
  status: ('A' for Active; 'I' for Inactive)
    1  A    between atoms: C_1  and  C_3
    2  A    between atoms: C_1  and  C_24
    3  A    between atoms: C_3  and  C_36
    4  A    between atoms: C_4  and  C_37
    5  A    between atoms: N_6  and  C_30
    6  A    between atoms: C_7  and  C_27
    7  A    between atoms: O_8  and  C_29
    8  A    between atoms: O_8  and  C_32
    9  A    between atoms: C_9  and  O_34
   10  A    between atoms: O_22  and  C_36
   11  A    between atoms: C_24  and  C_51
   12  A    between atoms: C_27  and  C_28
   13  A    between atoms: C_27  and  C_40
   14  A    between atoms: C_30  and  C_55
   15  A    between atoms: C_31  and  C_43
   16  A    between atoms: O_34  and  N_58
   17  A    between atoms: C_36  and  C_47
   18  A    between atoms: C_37  and  O_46
   19  A    between atoms: C_40  and  C_53
   20  A    between atoms: C_44  and  C_50
   21  A    between atoms: O_46  and  C_54
                            x       y       z     vdW  Elec       q    Type
                         _______ _______ _______ _____ _____    ______ ____

>  <TORSDO>
F 21

$$$$
=
 OpenBabel11062422343D

 59 67  0  0  1  0  0  0  0  0999 V2000
  189.0740  177.7430  143.3900 C   0  0  0  0  0  2  0  0  0  0  0  0
  187.9280  177.1350  142.6430 C   0  0  1  0  0  3  0  0  0  0  0  0
  190.0200  176.5610  143.4450 C   0  0  2  0  0  3  0  0  0  0  0  0
  189.2580  175.3730  143.5270 O   0  0  0  0  0  0  0  0  0  0  0  0
  187.9590  175.6970  143.0930 C   0  0  2  0  0  3  0  0  0  0  0  0
  186.5370  177.7480  142.8500 C   0  0  2  0  0  3  0  0  0  0  0  0
  184.6910  178.6780  141.5680 F   0  0  0  0  0  0  0  0  0  0  0  0
  186.1500  177.2750  140.5210 F   0  0  0  0  0  0  0  0  0  0  0  0
  186.0070  178.2370  141.4990 C   0  0  0  0  0  3  0  0  0  0  0  0
  186.4580  178.8160  143.9410 C   0  0  0  0  0  2  0  0  0  0  0  0
  186.5370  177.7070  146.1100 C   0  0  0  0  0  3  0  0  0  0  0  0
  185.8990  177.1600  147.3400 C   0  0  0  0  0  1  0  0  0  0  0  0
  185.7970  178.2800  145.1740 C   0  0  0  0  0  3  0  0  0  0  0  0
  191.0180  176.6550  144.6150 C   0  0  2  0  0  3  0  0  0  0  0  0
  192.0620  177.5870  144.3860 O   0  0  0  0  0  0  0  0  0  0  0  0
  193.0660  177.4120  145.3570 C   0  0  0  0  0  1  0  0  0  0  0  0
  191.5330  175.2640  145.0150 C   0  0  0  0  0  2  0  0  0  0  0  0
  192.2600  174.5680  143.8770 C   0  0  0  0  0  2  0  0  0  0  0  0
  193.3990  173.7340  144.4250 C   0  0  0  0  0  2  0  0  0  0  0  0
  195.9360  173.0470  143.9810 C   0  0  1  0  0  0  0  0  0  0  0  0
  195.1630  175.1510  143.4760 C   0  0  0  0  0  2  0  0  0  0  0  0
  196.2010  175.2170  144.5180 N   0  0  1  0  0  0  0  0  0  0  0  0
  196.0220  173.9270  145.1820 C   0  0  2  0  0  3  0  0  0  0  0  0
  197.4390  175.0990  143.7480 C   0  0  0  0  0  2  0  0  0  0  0  0
  197.1550  173.5680  146.1450 C   0  0  0  0  0  1  0  0  0  0  0  0
  194.8580  172.1830  143.3050 C   0  0  1  0  0  0  0  0  0  0  0  0
  194.6170  173.7100  143.4790 C   0  0  2  0  0  0  0  0  0  0  0  0
  197.4540  173.4490  142.9700 S   0  0  0  0  0  0  0  0  0  0  0  0
  194.6700  172.0630  141.8330 N   0  0  0  0  0  0  0  0  0  0  0  0
  195.6470  171.3940  142.4970 O   0  0  0  0  0  0  0  0  0  0  0  0
  195.3290  173.0170  141.1080 O   0  0  0  0  0  0  0  0  0  0  0  0
  195.4150  172.5630  139.7700 C   0  0  2  0  0  3  0  0  0  0  0  0
  196.8490  172.5690  139.2080 C   0  0  0  0  0  2  0  0  0  0  0  0
  194.5580  173.4720  138.8890 C   0  0  0  0  0  2  0  0  0  0  0  0
  195.0990  174.9050  138.9100 C   0  0  0  0  0  2  0  0  0  0  0  0
  196.5710  174.9770  138.4800 C   0  0  1  0  0  3  0  0  0  0  0  0
  197.4450  173.9730  139.2470 C   0  0  0  0  0  2  0  0  0  0  0  0
  196.7060  174.8210  136.9620 C   0  0  0  0  0  2  0  0  0  0  0  0
  197.0480  176.0780  136.3320 N   0  0  0  0  0  0  0  0  0  0  0  0
  196.6780  176.3380  135.1260 C   0  0  0  0  0  2  0  0  0  0  0  0
  187.5800  174.8590  142.0110 O   0  0  0  0  0  0  0  0  0  0  0  0
  188.4420  174.4540  140.9880 C   0  0  0  0  0  0  0  0  0  0  0  0
  188.2050  174.8730  139.8260 O   0  0  0  0  0  0  0  0  0  0  0  0
  189.6820  173.6130  141.2290 C   0  0  2  0  0  3  0  0  0  0  0  0
  190.6700  173.7750  140.1000 C   0  0  2  0  0  3  0  0  0  0  0  0
  190.0830  171.4810  140.1790 O   0  0  0  0  0  0  0  0  0  0  0  0
  191.1160  172.3620  139.8030 C   0  0  1  0  0  3  0  0  0  0  0  0
  191.7490  174.5460  140.5020 F   0  0  0  0  0  0  0  0  0  0  0  0
  189.3960  172.1110  141.2330 C   0  0  1  0  0  3  0  0  0  0  0  0
  189.1910  172.1970  143.6350 O   0  0  0  0  0  1  0  0  0  0  0  0
  189.7530  171.4760  142.5790 C   0  0  0  0  0  2  0  0  0  0  0  0
  191.3820  172.2250  138.4370 O   0  0  0  0  0  0  0  0  0  0  0  0
  190.0580  171.4910  135.9690 C   0  0  0  0  0  2  0  0  0  0  0  0
  190.3000  172.9600  135.6850 C   0  0  2  0  0  0  0  0  0  0  0  0
  190.5930  173.1930  137.8020 C   0  0  1  0  0  3  0  0  0  0  0  0
  191.2980  173.6910  136.5600 C   0  0  0  0  0  2  0  0  0  0  0  0
  189.5250  172.5340  136.9330 C   0  0  2  0  0  3  0  0  0  0  0  0
  189.3310  173.7460  134.8290 C   0  0  0  0  0  2  0  0  0  0  0  0
  189.9010  175.0460  134.5140 N   0  0  0  0  0  1  0  0  0  0  0  0
  1  3  1  0  0  0  0
  2  6  1  1  0  0  0
  2  5  1  0  0  0  0
  2  1  1  0  0  0  0
  3  4  1  0  0  0  0
  3 14  1  1  0  0  0
  5 41  1  6  0  0  0
  5  4  1  0  0  0  0
  6 10  1  1  0  0  0
  8  9  1  0  0  0  0
  9  7  1  0  0  0  0
  9  6  1  0  0  0  0
 10 13  1  0  0  0  0
 11 12  1  0  0  0  0
 13 11  2  0  0  0  0
 14 17  1  6  0  0  0
 15 14  1  0  0  0  0
 15 16  1  0  0  0  0
 18 19  1  0  0  0  0
 18 17  1  0  0  0  0
 20 28  1  6  0  0  0
 20 23  1  0  0  0  0
 21 27  1  0  0  0  0
 22 21  1  6  0  0  0
 22 23  1  0  0  0  0
 23 25  1  1  0  0  0
 24 22  1  0  0  0  0
 26 30  1  1  0  0  0
 26 27  1  0  0  0  0
 26 20  1  0  0  0  0
 27 20  1  0  0  0  0
 27 19  1  1  0  0  0
 28 24  1  0  0  0  0
 29 30  1  0  0  0  0
 29 26  1  0  0  0  0
 31 29  1  0  0  0  0
 32 31  1  1  0  0  0
 33 37  1  0  0  0  0
 33 32  1  0  0  0  0
 34 35  1  0  0  0  0
 34 32  1  0  0  0  0
 36 38  1  6  0  0  0
 36 35  1  0  0  0  0
 36 37  1  0  0  0  0
 39 38  1  0  0  0  0
 40 39  2  0  0  0  0
 42 41  1  0  0  0  0
 43 42  2  0  0  0  0
 44 42  1  6  0  0  0
 44 49  1  0  0  0  0
 45 48  1  1  0  0  0
 45 44  1  0  0  0  0
 46 49  1  0  0  0  0
 47 52  1  6  0  0  0
 47 45  1  0  0  0  0
 47 46  1  0  0  0  0
 49 51  1  1  0  0  0
 51 50  1  0  0  0  0
 54 58  1  6  0  0  0
 54 53  1  0  0  0  0
 54 56  1  0  0  0  0
 54 57  1  0  0  0  0
 55 52  1  6  0  0  0
 56 55  1  0  0  0  0
 57 53  1  1  0  0  0
 57 55  1  0  0  0  0
 59 58  1  0  0  0  0
M  END
>  <MODEL>
9

>  <REMARK>
 VINA RESULT:      -5.5      3.337      7.944
  Name = 
  21 active torsions:
  status: ('A' for Active; 'I' for Inactive)
    1  A    between atoms: C_1  and  C_3
    2  A    between atoms: C_1  and  C_24
    3  A    between atoms: C_3  and  C_36
    4  A    between atoms: C_4  and  C_37
    5  A    between atoms: N_6  and  C_30
    6  A    between atoms: C_7  and  C_27
    7  A    between atoms: O_8  and  C_29
    8  A    between atoms: O_8  and  C_32
    9  A    between atoms: C_9  and  O_34
   10  A    between atoms: O_22  and  C_36
   11  A    between atoms: C_24  and  C_51
   12  A    between atoms: C_27  and  C_28
   13  A    between atoms: C_27  and  C_40
   14  A    between atoms: C_30  and  C_55
   15  A    between atoms: C_31  and  C_43
   16  A    between atoms: O_34  and  N_58
   17  A    between atoms: C_36  and  C_47
   18  A    between atoms: C_37  and  O_46
   19  A    between atoms: C_40  and  C_53
   20  A    between atoms: C_44  and  C_50
   21  A    between atoms: O_46  and  C_54
                            x       y       z     vdW  Elec       q    Type
                         _______ _______ _______ _____ _____    ______ ____

>  <TORSDO>
F 21

$$$$
