=
 OpenBabel11062420583D

 31 34  0  0  1  0  0  0  0  0999 V2000
  185.1360  178.2360  142.6750 C   0  0  2  0  0  3  0  0  0  0  0  0
  187.8340  176.4040  142.2090 C   0  0  0  0  0  0  0  0  0  0  0  0
  185.6230  178.3250  145.5140 C   0  0  0  0  0  3  0  0  0  0  0  0
  184.2390  178.6900  145.0610 C   0  0  0  0  0  2  0  0  0  0  0  0
  184.2580  179.1240  143.5820 C   0  0  2  0  0  3  0  0  0  0  0  0
  191.2200  177.4950  144.4370 N   0  0  0  0  0  2  0  0  0  0  0  0
  190.0530  177.3060  144.9590 C   0  0  0  0  0  0  0  0  0  0  0  0
  184.1800  177.7360  141.6390 C   0  0  0  0  0  2  0  0  0  0  0  0
  186.3790  177.5320  144.7500 C   0  0  0  0  0  0  0  0  0  0  0  0
  189.8260  177.3050  146.3650 N   0  0  0  0  0  2  0  0  0  0  0  0
  188.7980  177.3640  144.2180 C   0  0  0  0  0  0  0  0  0  0  0  0
  183.0240  178.7000  141.7520 C   0  0  2  0  0  3  0  0  0  0  0  0
  187.7620  177.3230  147.5110 O   0  0  0  0  0  0  0  0  0  0  0  0
  188.6320  177.5440  142.7460 C   0  0  0  0  0  2  0  0  0  0  0  0
  186.6040  176.2030  142.5880 N   0  0  0  0  0  0  0  0  0  0  0  0
  185.7700  177.0650  143.4380 C   0  0  2  0  0  3  0  0  0  0  0  0
  182.9440  179.1450  143.0820 O   0  0  0  0  0  0  0  0  0  0  0  0
  187.8020  177.3520  145.0930 C   0  0  0  0  0  0  0  0  0  0  0  0
  188.4040  177.3250  146.4280 C   0  0  0  0  0  0  0  0  0  0  0  0
  189.2190  174.4250  141.7190 C   0  0  0  0  0  0  0  0  0  0  0  0
  190.1160  172.9630  143.6230 C   0  0  0  0  0  1  0  0  0  0  0  0
  188.5100  175.4620  141.3610 N   0  0  0  0  0  0  0  0  0  0  0  0
  189.3670  174.1000  143.1130 N   0  0  0  0  0  2  0  0  0  0  0  0
  189.6350  172.0750  140.8890 C   0  0  0  0  0  1  0  0  0  0  0  0
  189.8600  173.5610  140.6450 C   0  0  0  0  0  0  0  0  0  0  0  0
  191.3580  173.7990  140.6130 C   0  0  0  0  0  1  0  0  0  0  0  0
  189.2710  173.8950  139.2870 C   0  0  0  0  0  1  0  0  0  0  0  0
  181.7220  178.0210  141.3590 C   0  0  0  0  0  2  0  0  0  0  0  0
  180.2600  179.9010  140.6850 C   0  0  0  0  0  1  0  0  0  0  0  0
  179.3960  178.0500  141.8950 O   0  0  0  0  0  1  0  0  0  0  0  0
  180.5210  178.8640  141.7560 C   0  0  1  0  0  3  0  0  0  0  0  0
  1  8  1  6  0  0  0
  1 16  1  0  0  0  0
  1  5  1  0  0  0  0
  2 15  2  0  0  0  0
  2 14  1  0  0  0  0
  4  3  1  0  0  0  0
  5  4  1  1  0  0  0
  6  7  2  0  0  0  0
  7 10  1  0  0  0  0
  8 12  1  0  0  0  0
  9 18  1  0  0  0  0
  9  3  2  0  0  0  0
 10 19  1  0  0  0  0
 11  7  1  0  0  0  0
 11 18  2  0  0  0  0
 12 28  1  1  0  0  0
 12 17  1  0  0  0  0
 14 11  1  0  0  0  0
 16 15  1  6  0  0  0
 16  9  1  0  0  0  0
 17  5  1  0  0  0  0
 18 19  1  0  0  0  0
 19 13  2  0  0  0  0
 20 23  1  0  0  0  0
 22 20  2  0  0  0  0
 22  2  1  0  0  0  0
 23 21  1  0  0  0  0
 25 24  1  0  0  0  0
 25 20  1  0  0  0  0
 26 25  1  0  0  0  0
 27 25  1  0  0  0  0
 28 31  1  0  0  0  0
 31 29  1  6  0  0  0
 31 30  1  0  0  0  0
M  END
>  <MODEL>
1

>  <REMARK>
 VINA RESULT:      -7.7      0.000      0.000
  Name = 
  4 active torsions:
  status: ('A' for Active; 'I' for Inactive)
    1  A    between atoms: C_1  and  C_8
    2  A    between atoms: C_4  and  N_22
    3  A    between atoms: C_12  and  C_15
    4  A    between atoms: C_15  and  C_21
                            x       y       z     vdW  Elec       q    Type
                         _______ _______ _______ _____ _____    ______ ____

>  <TORSDO>
F 4

$$$$
=
 OpenBabel11062420583D

 31 34  0  0  1  0  0  0  0  0999 V2000
  186.8720  177.3480  141.5460 C   0  0  2  0  0  3  0  0  0  0  0  0
  188.7140  175.9020  143.8630 C   0  0  0  0  0  0  0  0  0  0  0  0
  184.8150  177.9400  143.4760 C   0  0  0  0  0  3  0  0  0  0  0  0
  184.4170  178.0150  142.0300 C   0  0  0  0  0  2  0  0  0  0  0  0
  185.6620  178.2180  141.1440 C   0  0  2  0  0  3  0  0  0  0  0  0
  188.8410  177.8240  147.5930 N   0  0  0  0  0  2  0  0  0  0  0  0
  187.7430  177.5410  146.9740 C   0  0  0  0  0  0  0  0  0  0  0  0
  187.1630  176.5570  140.3110 C   0  0  0  0  0  2  0  0  0  0  0  0
  185.8420  177.1660  143.8370 C   0  0  0  0  0  0  0  0  0  0  0  0
  186.4580  177.7170  147.5610 N   0  0  0  0  0  2  0  0  0  0  0  0
  187.6440  177.2920  145.5400 C   0  0  0  0  0  0  0  0  0  0  0  0
  186.4520  177.3380  139.2330 C   0  0  2  0  0  3  0  0  0  0  0  0
  184.3450  177.5920  146.5130 O   0  0  0  0  0  0  0  0  0  0  0  0
  188.7680  177.2190  144.5620 C   0  0  0  0  0  2  0  0  0  0  0  0
  187.6970  175.5750  143.1180 N   0  0  0  0  0  0  0  0  0  0  0  0
  186.5580  176.4180  142.7250 C   0  0  2  0  0  3  0  0  0  0  0  0
  185.3300  177.9610  139.8020 O   0  0  0  0  0  0  0  0  0  0  0  0
  186.3590  177.2600  145.2160 C   0  0  0  0  0  0  0  0  0  0  0  0
  185.6010  177.5280  146.4400 C   0  0  0  0  0  0  0  0  0  0  0  0
  191.0230  175.0430  143.8320 C   0  0  0  0  0  0  0  0  0  0  0  0
  192.9050  176.4150  142.7620 C   0  0  0  0  0  1  0  0  0  0  0  0
  189.7580  174.9580  144.1460 N   0  0  0  0  0  0  0  0  0  0  0  0
  191.5180  176.2060  143.1440 N   0  0  0  0  0  2  0  0  0  0  0  0
  192.8730  173.4960  143.0770 C   0  0  0  0  0  1  0  0  0  0  0  0
  191.9600  173.9120  144.2230 C   0  0  0  0  0  0  0  0  0  0  0  0
  191.1590  172.6930  144.6380 C   0  0  0  0  0  1  0  0  0  0  0  0
  192.8460  174.3450  145.3780 C   0  0  0  0  0  1  0  0  0  0  0  0
  186.0110  176.4150  138.1070 C   0  0  0  0  0  2  0  0  0  0  0  0
  187.8120  175.0240  137.1330 C   0  0  0  0  0  1  0  0  0  0  0  0
  186.4600  176.4150  135.7630 O   0  0  0  0  0  1  0  0  0  0  0  0
  187.0670  176.3370  137.0170 C   0  0  1  0  0  3  0  0  0  0  0  0
  1  8  1  6  0  0  0
  1 16  1  0  0  0  0
  2 22  1  0  0  0  0
  2 14  1  0  0  0  0
  3  9  2  0  0  0  0
  4  3  1  0  0  0  0
  5  1  1  0  0  0  0
  5  4  1  1  0  0  0
  7 10  1  0  0  0  0
  7  6  2  0  0  0  0
  9 18  1  0  0  0  0
 11  7  1  0  0  0  0
 12 28  1  6  0  0  0
 12 17  1  0  0  0  0
 12  8  1  0  0  0  0
 14 11  1  0  0  0  0
 15  2  2  0  0  0  0
 16 15  1  1  0  0  0
 16  9  1  0  0  0  0
 17  5  1  0  0  0  0
 18 11  2  0  0  0  0
 18 19  1  0  0  0  0
 19 13  2  0  0  0  0
 19 10  1  0  0  0  0
 20 22  2  0  0  0  0
 20 25  1  0  0  0  0
 21 23  1  0  0  0  0
 23 20  1  0  0  0  0
 24 25  1  0  0  0  0
 25 26  1  0  0  0  0
 25 27  1  0  0  0  0
 30 31  1  0  0  0  0
 31 29  1  6  0  0  0
 31 28  1  0  0  0  0
M  END
>  <MODEL>
2

>  <REMARK>
 VINA RESULT:      -7.2      2.800      4.364
  Name = 
  4 active torsions:
  status: ('A' for Active; 'I' for Inactive)
    1  A    between atoms: C_1  and  C_8
    2  A    between atoms: C_4  and  N_22
    3  A    between atoms: C_12  and  C_15
    4  A    between atoms: C_15  and  C_21
                            x       y       z     vdW  Elec       q    Type
                         _______ _______ _______ _____ _____    ______ ____

>  <TORSDO>
F 4

$$$$
=
 OpenBabel11062420583D

 31 34  0  0  1  0  0  0  0  0999 V2000
  187.3210  177.5220  143.4490 C   0  0  2  0  0  3  0  0  0  0  0  0
  189.5610  175.3750  142.3420 C   0  0  0  0  0  0  0  0  0  0  0  0
  187.9980  176.9010  146.1800 C   0  0  0  0  0  3  0  0  0  0  0  0
  186.6890  177.6010  145.9580 C   0  0  0  0  0  2  0  0  0  0  0  0
  186.7000  178.3360  144.6030 C   0  0  2  0  0  3  0  0  0  0  0  0
  193.2330  175.3180  144.3740 N   0  0  0  0  0  2  0  0  0  0  0  0
  192.0880  175.2360  144.9670 C   0  0  0  0  0  0  0  0  0  0  0  0
  186.2190  177.4430  142.4400 C   0  0  0  0  0  2  0  0  0  0  0  0
  188.5280  176.1690  145.1960 C   0  0  0  0  0  0  0  0  0  0  0  0
  191.9570  174.9700  146.3590 N   0  0  0  0  0  2  0  0  0  0  0  0
  190.8250  175.6820  144.3900 C   0  0  0  0  0  0  0  0  0  0  0  0
  185.2900  178.5540  142.8670 C   0  0  2  0  0  3  0  0  0  0  0  0
  190.0160  175.1140  147.6980 O   0  0  0  0  0  0  0  0  0  0  0  0
  190.6040  176.2050  143.0100 C   0  0  0  0  0  2  0  0  0  0  0  0
  188.3420  175.3240  142.8000 N   0  0  0  0  0  0  0  0  0  0  0  0
  187.7550  176.1180  143.8900 C   0  0  2  0  0  3  0  0  0  0  0  0
  185.3870  178.7050  144.2590 O   0  0  0  0  0  0  0  0  0  0  0  0
  189.9060  175.6620  145.3450 C   0  0  0  0  0  0  0  0  0  0  0  0
  190.5750  175.2350  146.5750 C   0  0  0  0  0  0  0  0  0  0  0  0
  190.4620  173.3220  141.3190 C   0  0  0  0  0  0  0  0  0  0  0  0
  191.1110  171.3190  142.7800 C   0  0  0  0  0  1  0  0  0  0  0  0
  189.9770  174.5330  141.2550 N   0  0  0  0  0  0  0  0  0  0  0  0
  190.6020  172.6680  142.5920 N   0  0  0  0  0  2  0  0  0  0  0  0
  190.1940  171.2460  139.9040 C   0  0  0  0  0  1  0  0  0  0  0  0
  190.8520  172.6130  140.0320 C   0  0  0  0  0  0  0  0  0  0  0  0
  192.3540  172.4050  139.9870 C   0  0  0  0  0  1  0  0  0  0  0  0
  190.4260  173.4390  138.8320 C   0  0  0  0  0  1  0  0  0  0  0  0
  183.8550  178.2260  142.4840 C   0  0  0  0  0  2  0  0  0  0  0  0
  182.2640  178.0160  140.6000 C   0  0  0  0  0  1  0  0  0  0  0  0
  184.4080  178.9890  140.2910 O   0  0  0  0  0  1  0  0  0  0  0  0
  183.7270  177.9900  140.9880 C   0  0  1  0  0  3  0  0  0  0  0  0
  1  8  1  6  0  0  0
  1 16  1  0  0  0  0
  1  5  1  0  0  0  0
  2 15  2  0  0  0  0
  2 14  1  0  0  0  0
  4  3  1  0  0  0  0
  5  4  1  1  0  0  0
  6  7  2  0  0  0  0
  7 10  1  0  0  0  0
  8 12  1  0  0  0  0
  9 18  1  0  0  0  0
  9  3  2  0  0  0  0
 10 19  1  0  0  0  0
 11  7  1  0  0  0  0
 11 18  2  0  0  0  0
 12 28  1  1  0  0  0
 12 17  1  0  0  0  0
 14 11  1  0  0  0  0
 16 15  1  6  0  0  0
 16  9  1  0  0  0  0
 17  5  1  0  0  0  0
 18 19  1  0  0  0  0
 19 13  2  0  0  0  0
 20 23  1  0  0  0  0
 22 20  2  0  0  0  0
 22  2  1  0  0  0  0
 23 21  1  0  0  0  0
 24 25  1  0  0  0  0
 25 20  1  0  0  0  0
 26 25  1  0  0  0  0
 27 25  1  0  0  0  0
 30 31  1  0  0  0  0
 31 29  1  6  0  0  0
 31 28  1  0  0  0  0
M  END
>  <MODEL>
3

>  <REMARK>
 VINA RESULT:      -7.2      2.011      2.613
  Name = 
  4 active torsions:
  status: ('A' for Active; 'I' for Inactive)
    1  A    between atoms: C_1  and  C_8
    2  A    between atoms: C_4  and  N_22
    3  A    between atoms: C_12  and  C_15
    4  A    between atoms: C_15  and  C_21
                            x       y       z     vdW  Elec       q    Type
                         _______ _______ _______ _____ _____    ______ ____

>  <TORSDO>
F 4

$$$$
=
 OpenBabel11062420583D

 31 34  0  0  1  0  0  0  0  0999 V2000
  189.6660  176.8650  145.3190 C   0  0  2  0  0  3  0  0  0  0  0  0
  190.9850  175.2500  142.7690 C   0  0  0  0  0  0  0  0  0  0  0  0
  192.0530  176.4560  146.8810 C   0  0  0  0  0  3  0  0  0  0  0  0
  190.8170  176.8450  147.6390 C   0  0  0  0  0  2  0  0  0  0  0  0
  189.8120  177.5410  146.6990 C   0  0  2  0  0  3  0  0  0  0  0  0
  195.0280  176.0440  141.9660 N   0  0  0  0  0  2  0  0  0  0  0  0
  194.5830  175.7210  143.1350 C   0  0  0  0  0  0  0  0  0  0  0  0
  188.2110  176.5270  145.2450 C   0  0  0  0  0  2  0  0  0  0  0  0
  191.9360  175.8440  145.6990 C   0  0  0  0  0  0  0  0  0  0  0  0
  195.4390  175.4560  144.2410 N   0  0  0  0  0  2  0  0  0  0  0  0
  193.1950  175.8650  143.5600 C   0  0  0  0  0  0  0  0  0  0  0  0
  187.6030  177.4100  146.3070 C   0  0  2  0  0  3  0  0  0  0  0  0
  194.8500  175.1890  146.5130 O   0  0  0  0  0  0  0  0  0  0  0  0
  192.0410  176.3030  142.7210 C   0  0  0  0  0  2  0  0  0  0  0  0
  190.3930  174.9380  143.8870 N   0  0  0  0  0  0  0  0  0  0  0  0
  190.5250  175.6000  145.1930 C   0  0  2  0  0  3  0  0  0  0  0  0
  188.5530  177.6030  147.3230 O   0  0  0  0  0  0  0  0  0  0  0  0
  193.1410  175.6580  144.8680 C   0  0  0  0  0  0  0  0  0  0  0  0
  194.5120  175.4110  145.3200 C   0  0  0  0  0  0  0  0  0  0  0  0
  191.2960  173.3870  141.1870 C   0  0  0  0  0  0  0  0  0  0  0  0
  192.9390  171.4920  141.7190 C   0  0  0  0  0  1  0  0  0  0  0  0
  190.7370  174.5040  141.5670 N   0  0  0  0  0  0  0  0  0  0  0  0
  192.2680  172.7440  142.0310 N   0  0  0  0  0  2  0  0  0  0  0  0
  190.4580  171.3160  140.0060 C   0  0  0  0  0  1  0  0  0  0  0  0
  190.8880  172.7690  139.8590 C   0  0  0  0  0  0  0  0  0  0  0  0
  192.0540  172.8070  138.8890 C   0  0  0  0  0  1  0  0  0  0  0  0
  189.7190  173.5340  139.2660 C   0  0  0  0  0  1  0  0  0  0  0  0
  186.3540  176.7650  146.8860 C   0  0  0  0  0  2  0  0  0  0  0  0
  185.3860  179.0410  146.9960 C   0  0  0  0  0  1  0  0  0  0  0  0
  184.8160  177.5500  145.2370 O   0  0  0  0  0  1  0  0  0  0  0  0
  185.1200  177.6040  146.5990 C   0  0  1  0  0  3  0  0  0  0  0  0
  1  8  1  1  0  0  0
  1  5  1  0  0  0  0
  2 15  2  0  0  0  0
  3  4  1  0  0  0  0
  5 17  1  0  0  0  0
  5  4  1  1  0  0  0
  6  7  2  0  0  0  0
  7 11  1  0  0  0  0
  7 10  1  0  0  0  0
  8 12  1  0  0  0  0
  9  3  2  0  0  0  0
 10 19  1  0  0  0  0
 11 18  2  0  0  0  0
 12 28  1  1  0  0  0
 12 17  1  0  0  0  0
 14  2  1  0  0  0  0
 14 11  1  0  0  0  0
 16 15  1  6  0  0  0
 16  1  1  0  0  0  0
 16  9  1  0  0  0  0
 18 19  1  0  0  0  0
 18  9  1  0  0  0  0
 19 13  2  0  0  0  0
 20 22  2  0  0  0  0
 20 23  1  0  0  0  0
 21 23  1  0  0  0  0
 22  2  1  0  0  0  0
 25 24  1  0  0  0  0
 25 20  1  0  0  0  0
 26 25  1  0  0  0  0
 27 25  1  0  0  0  0
 30 31  1  0  0  0  0
 31 28  1  0  0  0  0
 31 29  1  6  0  0  0
M  END
>  <MODEL>
4

>  <REMARK>
 VINA RESULT:      -7.1      3.531      5.378
  Name = 
  4 active torsions:
  status: ('A' for Active; 'I' for Inactive)
    1  A    between atoms: C_1  and  C_8
    2  A    between atoms: C_4  and  N_22
    3  A    between atoms: C_12  and  C_15
    4  A    between atoms: C_15  and  C_21
                            x       y       z     vdW  Elec       q    Type
                         _______ _______ _______ _____ _____    ______ ____

>  <TORSDO>
F 4

$$$$
=
 OpenBabel11062420583D

 31 34  0  0  1  0  0  0  0  0999 V2000
  189.7040  173.8250  142.9290 C   0  0  2  0  0  3  0  0  0  0  0  0
  188.9130  176.0840  145.1920 C   0  0  0  0  0  0  0  0  0  0  0  0
  192.4850  174.5630  143.0860 C   0  0  0  0  0  3  0  0  0  0  0  0
  192.0710  173.7720  141.8800 C   0  0  0  0  0  2  0  0  0  0  0  0
  190.7670  173.0030  142.1680 C   0  0  2  0  0  3  0  0  0  0  0  0
  191.5370  176.4390  148.4490 N   0  0  0  0  0  2  0  0  0  0  0  0
  191.9230  176.4600  147.2160 C   0  0  0  0  0  0  0  0  0  0  0  0
  188.5210  173.8030  142.0140 C   0  0  0  0  0  2  0  0  0  0  0  0
  191.5790  175.3010  143.7330 C   0  0  0  0  0  0  0  0  0  0  0  0
  193.2620  176.7560  146.8310 N   0  0  0  0  0  2  0  0  0  0  0  0
  191.1570  175.9170  146.1010 C   0  0  0  0  0  0  0  0  0  0  0  0
  188.8250  172.6460  141.0940 C   0  0  2  0  0  3  0  0  0  0  0  0
  194.2550  176.5190  144.7020 O   0  0  0  0  0  0  0  0  0  0  0  0
  189.7810  175.3430  146.1530 C   0  0  0  0  0  2  0  0  0  0  0  0
  189.1560  176.0670  143.9120 N   0  0  0  0  0  0  0  0  0  0  0  0
  190.1590  175.2660  143.1950 C   0  0  2  0  0  3  0  0  0  0  0  0
  190.2190  172.5390  140.9590 O   0  0  0  0  0  0  0  0  0  0  0  0
  191.9400  175.9020  145.0310 C   0  0  0  0  0  0  0  0  0  0  0  0
  193.2500  176.4060  145.4510 C   0  0  0  0  0  0  0  0  0  0  0  0
  186.7670  177.2940  145.1690 C   0  0  0  0  0  0  0  0  0  0  0  0
  185.2240  177.1650  143.1270 C   0  0  0  0  0  1  0  0  0  0  0  0
  187.8820  176.9220  145.7380 N   0  0  0  0  0  0  0  0  0  0  0  0
  186.4420  176.8300  143.8470 N   0  0  0  0  0  2  0  0  0  0  0  0
  184.4640  177.5410  146.1800 C   0  0  0  0  0  1  0  0  0  0  0  0
  185.8150  178.2000  145.9330 C   0  0  0  0  0  0  0  0  0  0  0  0
  185.5660  179.4740  145.1460 C   0  0  0  0  0  1  0  0  0  0  0  0
  186.4050  178.5560  147.2850 C   0  0  0  0  0  1  0  0  0  0  0  0
  188.1920  172.8680  139.7300 C   0  0  0  0  0  2  0  0  0  0  0  0
  189.5830  173.5790  137.8100 C   0  0  0  0  0  1  0  0  0  0  0  0
  187.8170  174.9460  138.6160 O   0  0  0  0  0  1  0  0  0  0  0  0
  188.8160  174.0600  139.0230 C   0  0  1  0  0  3  0  0  0  0  0  0
  1  8  1  6  0  0  0
  1 16  1  0  0  0  0
  2 22  1  0  0  0  0
  2 14  1  0  0  0  0
  3  9  2  0  0  0  0
  4  3  1  0  0  0  0
  5  4  1  6  0  0  0
  5  1  1  0  0  0  0
  7  6  2  0  0  0  0
  9 18  1  0  0  0  0
 10  7  1  0  0  0  0
 11 14  1  0  0  0  0
 11  7  1  0  0  0  0
 12 28  1  6  0  0  0
 12  8  1  0  0  0  0
 13 19  2  0  0  0  0
 15  2  2  0  0  0  0
 16  9  1  1  0  0  0
 16 15  1  0  0  0  0
 17 12  1  0  0  0  0
 17  5  1  0  0  0  0
 18 19  1  0  0  0  0
 18 11  2  0  0  0  0
 19 10  1  0  0  0  0
 20 22  2  0  0  0  0
 20 25  1  0  0  0  0
 21 23  1  0  0  0  0
 23 20  1  0  0  0  0
 25 24  1  0  0  0  0
 25 27  1  0  0  0  0
 26 25  1  0  0  0  0
 30 31  1  0  0  0  0
 31 29  1  6  0  0  0
 31 28  1  0  0  0  0
M  END
>  <MODEL>
5

>  <REMARK>
 VINA RESULT:      -7.1      3.425      7.099
  Name = 
  4 active torsions:
  status: ('A' for Active; 'I' for Inactive)
    1  A    between atoms: C_1  and  C_8
    2  A    between atoms: C_4  and  N_22
    3  A    between atoms: C_12  and  C_15
    4  A    between atoms: C_15  and  C_21
                            x       y       z     vdW  Elec       q    Type
                         _______ _______ _______ _____ _____    ______ ____

>  <TORSDO>
F 4

$$$$
=
 OpenBabel11062420583D

 31 34  0  0  1  0  0  0  0  0999 V2000
  187.6500  177.2290  143.3180 C   0  0  2  0  0  3  0  0  0  0  0  0
  189.7840  174.8780  142.4400 C   0  0  0  0  0  0  0  0  0  0  0  0
  188.3980  176.9480  146.0870 C   0  0  0  0  0  3  0  0  0  0  0  0
  187.1050  177.6590  145.8120 C   0  0  0  0  0  2  0  0  0  0  0  0
  187.0930  178.2090  144.3720 C   0  0  2  0  0  3  0  0  0  0  0  0
  193.5180  174.9590  144.3550 N   0  0  0  0  0  2  0  0  0  0  0  0
  192.3920  174.9960  144.9870 C   0  0  0  0  0  0  0  0  0  0  0  0
  186.5130  177.0580  142.3610 C   0  0  0  0  0  2  0  0  0  0  0  0
  188.8720  176.0750  145.1930 C   0  0  0  0  0  0  0  0  0  0  0  0
  192.2990  174.9190  146.4050 N   0  0  0  0  0  2  0  0  0  0  0  0
  191.1250  175.4060  144.3920 C   0  0  0  0  0  0  0  0  0  0  0  0
  185.6330  178.2460  142.6640 C   0  0  2  0  0  3  0  0  0  0  0  0
  190.4090  175.3060  147.7680 O   0  0  0  0  0  0  0  0  0  0  0  0
  190.8750  175.7520  142.9620 C   0  0  0  0  0  2  0  0  0  0  0  0
  188.5810  174.9310  142.9360 N   0  0  0  0  0  0  0  0  0  0  0  0
  188.0550  175.8810  143.9280 C   0  0  2  0  0  3  0  0  0  0  0  0
  185.7820  178.5750  144.0210 O   0  0  0  0  0  0  0  0  0  0  0  0
  190.2380  175.5440  145.3670 C   0  0  0  0  0  0  0  0  0  0  0  0
  190.9340  175.2590  146.6240 C   0  0  0  0  0  0  0  0  0  0  0  0
  189.6330  173.7210  140.2700 C   0  0  0  0  0  0  0  0  0  0  0  0
  187.9930  174.5340  138.4750 C   0  0  0  0  0  1  0  0  0  0  0  0
  190.1380  173.8870  141.4620 N   0  0  0  0  0  0  0  0  0  0  0  0
  188.6120  174.6140  139.7890 N   0  0  0  0  0  2  0  0  0  0  0  0
  189.0280  171.7480  138.8120 C   0  0  0  0  0  1  0  0  0  0  0  0
  190.1530  172.5910  139.3970 C   0  0  0  0  0  0  0  0  0  0  0  0
  191.0400  171.6690  140.2130 C   0  0  0  0  0  1  0  0  0  0  0  0
  190.9520  173.1540  138.2360 C   0  0  0  0  0  1  0  0  0  0  0  0
  184.1780  177.9210  142.3690 C   0  0  0  0  0  2  0  0  0  0  0  0
  182.4310  178.1910  140.6360 C   0  0  0  0  0  1  0  0  0  0  0  0
  184.6520  178.9430  140.2650 O   0  0  0  0  0  1  0  0  0  0  0  0
  183.9040  177.9350  140.8750 C   0  0  1  0  0  3  0  0  0  0  0  0
  1  8  1  6  0  0  0
  1 16  1  0  0  0  0
  1  5  1  0  0  0  0
  2 15  2  0  0  0  0
  2 14  1  0  0  0  0
  4  3  1  0  0  0  0
  5  4  1  1  0  0  0
  6  7  2  0  0  0  0
  7 10  1  0  0  0  0
  8 12  1  0  0  0  0
  9 18  1  0  0  0  0
  9  3  2  0  0  0  0
 10 19  1  0  0  0  0
 11  7  1  0  0  0  0
 11 18  2  0  0  0  0
 12 28  1  1  0  0  0
 12 17  1  0  0  0  0
 14 11  1  0  0  0  0
 16 15  1  6  0  0  0
 16  9  1  0  0  0  0
 17  5  1  0  0  0  0
 18 19  1  0  0  0  0
 19 13  2  0  0  0  0
 20 22  2  0  0  0  0
 21 23  1  0  0  0  0
 22  2  1  0  0  0  0
 23 20  1  0  0  0  0
 24 25  1  0  0  0  0
 25 26  1  0  0  0  0
 25 20  1  0  0  0  0
 27 25  1  0  0  0  0
 30 31  1  0  0  0  0
 31 29  1  1  0  0  0
 31 28  1  0  0  0  0
M  END
>  <MODEL>
6

>  <REMARK>
 VINA RESULT:      -7.0      2.131      3.109
  Name = 
  4 active torsions:
  status: ('A' for Active; 'I' for Inactive)
    1  A    between atoms: C_1  and  C_8
    2  A    between atoms: C_4  and  N_22
    3  A    between atoms: C_12  and  C_15
    4  A    between atoms: C_15  and  C_21
                            x       y       z     vdW  Elec       q    Type
                         _______ _______ _______ _____ _____    ______ ____

>  <TORSDO>
F 4

$$$$
=
 OpenBabel11062420583D

 31 34  0  0  1  0  0  0  0  0999 V2000
  187.9820  176.1520  143.9570 C   0  0  2  0  0  3  0  0  0  0  0  0
  191.1890  175.4670  144.2710 C   0  0  0  0  0  0  0  0  0  0  0  0
  187.9850  175.1750  141.2460 C   0  0  0  0  0  3  0  0  0  0  0  0
  186.8240  176.0390  141.6450 C   0  0  0  0  0  2  0  0  0  0  0  0
  186.6560  176.0340  143.1770 C   0  0  2  0  0  3  0  0  0  0  0  0
  192.4790  171.8380  142.6020 N   0  0  0  0  0  2  0  0  0  0  0  0
  191.7790  172.7110  141.9570 C   0  0  0  0  0  0  0  0  0  0  0  0
  187.7950  177.3820  144.7870 C   0  0  0  0  0  2  0  0  0  0  0  0
  189.1460  175.2910  141.8960 C   0  0  0  0  0  0  0  0  0  0  0  0
  191.4970  172.5990  140.5660 N   0  0  0  0  0  2  0  0  0  0  0  0
  190.9560  173.7370  142.5850 C   0  0  0  0  0  0  0  0  0  0  0  0
  186.2980  177.5760  144.7730 C   0  0  2  0  0  3  0  0  0  0  0  0
  189.9800  173.8700  139.2760 O   0  0  0  0  0  0  0  0  0  0  0  0
  190.8480  174.0330  144.0440 C   0  0  0  0  0  2  0  0  0  0  0  0
  190.4680  176.4230  143.7570 N   0  0  0  0  0  0  0  0  0  0  0  0
  189.1960  176.3010  143.0300 C   0  0  2  0  0  3  0  0  0  0  0  0
  185.7980  177.0810  143.5580 O   0  0  0  0  0  0  0  0  0  0  0  0
  190.2100  174.3000  141.6450 C   0  0  0  0  0  0  0  0  0  0  0  0
  190.5140  173.6130  140.3880 C   0  0  0  0  0  0  0  0  0  0  0  0
  193.6230  175.7910  144.4780 C   0  0  0  0  0  0  0  0  0  0  0  0
  195.1410  175.5840  142.4220 C   0  0  0  0  0  1  0  0  0  0  0  0
  192.4130  175.7560  144.9660 N   0  0  0  0  0  0  0  0  0  0  0  0
  193.8420  175.5520  143.0760 N   0  0  0  0  0  2  0  0  0  0  0  0
  195.8000  177.0440  144.7570 C   0  0  0  0  0  1  0  0  0  0  0  0
  194.7860  176.1110  145.4040 C   0  0  0  0  0  0  0  0  0  0  0  0
  195.5130  174.8350  145.7840 C   0  0  0  0  0  1  0  0  0  0  0  0
  194.2770  176.7900  146.6620 C   0  0  0  0  0  1  0  0  0  0  0  0
  185.9490  179.0500  144.9100 C   0  0  0  0  0  2  0  0  0  0  0  0
  184.1590  178.1850  146.3840 C   0  0  0  0  0  1  0  0  0  0  0  0
  186.0130  179.3700  147.2740 O   0  0  0  0  0  1  0  0  0  0  0  0
  185.1520  179.3090  146.1770 C   0  0  1  0  0  3  0  0  0  0  0  0
  1  8  1  1  0  0  0
  2 22  1  0  0  0  0
  3  4  1  0  0  0  0
  3  9  2  0  0  0  0
  5  4  1  6  0  0  0
  5 17  1  0  0  0  0
  5  1  1  0  0  0  0
  7 11  1  0  0  0  0
  7  6  2  0  0  0  0
 10  7  1  0  0  0  0
 11 14  1  0  0  0  0
 12  8  1  0  0  0  0
 12 28  1  6  0  0  0
 13 19  2  0  0  0  0
 14  2  1  0  0  0  0
 15  2  2  0  0  0  0
 16  9  1  6  0  0  0
 16 15  1  0  0  0  0
 16  1  1  0  0  0  0
 17 12  1  0  0  0  0
 18  9  1  0  0  0  0
 18 11  2  0  0  0  0
 19 10  1  0  0  0  0
 19 18  1  0  0  0  0
 20 22  2  0  0  0  0
 20 25  1  0  0  0  0
 21 23  1  0  0  0  0
 23 20  1  0  0  0  0
 24 25  1  0  0  0  0
 25 26  1  0  0  0  0
 25 27  1  0  0  0  0
 28 31  1  0  0  0  0
 31 29  1  1  0  0  0
 31 30  1  0  0  0  0
M  END
>  <MODEL>
7

>  <REMARK>
 VINA RESULT:      -7.0      3.275      6.012
  Name = 
  4 active torsions:
  status: ('A' for Active; 'I' for Inactive)
    1  A    between atoms: C_1  and  C_8
    2  A    between atoms: C_4  and  N_22
    3  A    between atoms: C_12  and  C_15
    4  A    between atoms: C_15  and  C_21
                            x       y       z     vdW  Elec       q    Type
                         _______ _______ _______ _____ _____    ______ ____

>  <TORSDO>
F 4

$$$$
=
 OpenBabel11062420583D

 31 34  0  0  1  0  0  0  0  0999 V2000
  192.0750  176.2900  144.0130 C   0  0  2  0  0  3  0  0  0  0  0  0
  188.8580  176.6660  144.6160 C   0  0  0  0  0  0  0  0  0  0  0  0
  191.5040  174.8260  141.5960 C   0  0  0  0  0  3  0  0  0  0  0  0
  192.8950  174.6930  142.1470 C   0  0  0  0  0  2  0  0  0  0  0  0
  193.2230  175.8880  143.0630 C   0  0  2  0  0  3  0  0  0  0  0  0
  186.4460  177.5640  141.3000 N   0  0  0  0  0  2  0  0  0  0  0  0
  187.2830  176.5800  141.3280 C   0  0  0  0  0  0  0  0  0  0  0  0
  192.6830  176.1650  145.3730 C   0  0  0  0  0  2  0  0  0  0  0  0
  190.4990  175.1440  142.4170 C   0  0  0  0  0  0  0  0  0  0  0  0
  187.3670  175.6080  140.2900 N   0  0  0  0  0  2  0  0  0  0  0  0
  188.4200  176.4890  142.2350 C   0  0  0  0  0  0  0  0  0  0  0  0
  194.1650  176.1700  145.0840 C   0  0  2  0  0  3  0  0  0  0  0  0
  189.0220  173.9540  139.9700 O   0  0  0  0  0  0  0  0  0  0  0  0
  188.7660  177.4320  143.3390 C   0  0  0  0  0  2  0  0  0  0  0  0
  189.7520  175.7330  144.7800 N   0  0  0  0  0  0  0  0  0  0  0  0
  190.8540  175.3700  143.8770 C   0  0  2  0  0  3  0  0  0  0  0  0
  194.3720  175.5980  143.8190 O   0  0  0  0  0  0  0  0  0  0  0  0
  189.1830  175.4800  141.8400 C   0  0  0  0  0  0  0  0  0  0  0  0
  188.5650  174.9210  140.6360 C   0  0  0  0  0  0  0  0  0  0  0  0
  186.8710  177.7720  145.5660 C   0  0  0  0  0  0  0  0  0  0  0  0
  185.6470  179.5980  144.2490 C   0  0  0  0  0  1  0  0  0  0  0  0
  187.8460  176.9030  145.6070 N   0  0  0  0  0  0  0  0  0  0  0  0
  186.7030  178.6120  144.4100 N   0  0  0  0  0  2  0  0  0  0  0  0
  185.9810  179.2120  147.4410 C   0  0  0  0  0  1  0  0  0  0  0  0
  185.9110  177.8620  146.7410 C   0  0  0  0  0  0  0  0  0  0  0  0
  186.2440  176.7950  147.7670 C   0  0  0  0  0  1  0  0  0  0  0  0
  184.4830  177.6680  146.2630 C   0  0  0  0  0  1  0  0  0  0  0  0
  194.9170  175.3750  146.1380 C   0  0  0  0  0  2  0  0  0  0  0  0
  196.8170  173.7910  146.2240 C   0  0  0  0  0  1  0  0  0  0  0  0
  194.6130  173.0370  145.7640 O   0  0  0  0  0  1  0  0  0  0  0  0
  195.4960  174.0970  145.5520 C   0  0  1  0  0  3  0  0  0  0  0  0
  1  8  1  1  0  0  0
  2 15  2  0  0  0  0
  2 22  1  0  0  0  0
  3  4  1  0  0  0  0
  3  9  2  0  0  0  0
  5  4  1  1  0  0  0
  5 17  1  0  0  0  0
  5  1  1  0  0  0  0
  6  7  2  0  0  0  0
  7 11  1  0  0  0  0
 10 19  1  0  0  0  0
 10  7  1  0  0  0  0
 11 14  1  0  0  0  0
 12  8  1  0  0  0  0
 12 28  1  1  0  0  0
 13 19  2  0  0  0  0
 14  2  1  0  0  0  0
 16  9  1  6  0  0  0
 16  1  1  0  0  0  0
 16 15  1  0  0  0  0
 17 12  1  0  0  0  0
 18 11  2  0  0  0  0
 18  9  1  0  0  0  0
 19 18  1  0  0  0  0
 20 22  2  0  0  0  0
 20 25  1  0  0  0  0
 21 23  1  0  0  0  0
 23 20  1  0  0  0  0
 25 24  1  0  0  0  0
 25 26  1  0  0  0  0
 27 25  1  0  0  0  0
 31 30  1  0  0  0  0
 31 28  1  0  0  0  0
 31 29  1  1  0  0  0
M  END
>  <MODEL>
8

>  <REMARK>
 VINA RESULT:      -7.0      3.798      9.096
  Name = 
  4 active torsions:
  status: ('A' for Active; 'I' for Inactive)
    1  A    between atoms: C_1  and  C_8
    2  A    between atoms: C_4  and  N_22
    3  A    between atoms: C_12  and  C_15
    4  A    between atoms: C_15  and  C_21
                            x       y       z     vdW  Elec       q    Type
                         _______ _______ _______ _____ _____    ______ ____

>  <TORSDO>
F 4

$$$$
=
 OpenBabel11062420583D

 31 34  0  0  1  0  0  0  0  0999 V2000
  187.4110  176.3220  143.9590 C   0  0  2  0  0  3  0  0  0  0  0  0
  190.3760  174.9930  143.4190 C   0  0  0  0  0  0  0  0  0  0  0  0
  186.7270  176.0610  141.1720 C   0  0  0  0  0  3  0  0  0  0  0  0
  185.8830  177.0020  141.9820 C   0  0  0  0  0  2  0  0  0  0  0  0
  185.9810  176.6510  143.4800 C   0  0  2  0  0  3  0  0  0  0  0  0
  190.4850  171.7120  140.8030 N   0  0  0  0  0  2  0  0  0  0  0  0
  189.9080  172.8320  140.5180 C   0  0  0  0  0  0  0  0  0  0  0  0
  187.6580  177.3230  145.0430 C   0  0  0  0  0  2  0  0  0  0  0  0
  187.9760  175.7940  141.5620 C   0  0  0  0  0  0  0  0  0  0  0  0
  189.3770  173.1220  139.2290 N   0  0  0  0  0  2  0  0  0  0  0  0
  189.4650  173.8080  141.5070 C   0  0  0  0  0  0  0  0  0  0  0  0
  186.2660  177.7910  145.3950 C   0  0  2  0  0  3  0  0  0  0  0  0
  188.0020  174.9320  138.5900 O   0  0  0  0  0  0  0  0  0  0  0  0
  189.6770  173.7500  142.9830 C   0  0  0  0  0  2  0  0  0  0  0  0
  189.8210  176.1640  143.2810 N   0  0  0  0  0  0  0  0  0  0  0  0
  188.4510  176.4650  142.8400 C   0  0  2  0  0  3  0  0  0  0  0  0
  185.4660  177.7130  144.2440 O   0  0  0  0  0  0  0  0  0  0  0  0
  188.7220  174.7140  140.8880 C   0  0  0  0  0  0  0  0  0  0  0  0
  188.6410  174.3140  139.4810 C   0  0  0  0  0  0  0  0  0  0  0  0
  192.1780  174.9520  145.0990 C   0  0  0  0  0  0  0  0  0  0  0  0
  191.6430  175.2590  147.5860 C   0  0  0  0  0  1  0  0  0  0  0  0
  191.7330  174.8670  143.8740 N   0  0  0  0  0  0  0  0  0  0  0  0
  191.2610  175.1670  146.1860 N   0  0  0  0  0  2  0  0  0  0  0  0
  194.0180  173.4240  145.9150 C   0  0  0  0  0  1  0  0  0  0  0  0
  193.6680  174.7970  145.3560 C   0  0  0  0  0  0  0  0  0  0  0  0
  194.1330  175.8340  146.3600 C   0  0  0  0  0  1  0  0  0  0  0  0
  194.4420  174.9730  144.0610 C   0  0  0  0  0  1  0  0  0  0  0  0
  186.2980  179.2240  145.9040 C   0  0  0  0  0  2  0  0  0  0  0  0
  184.6340  178.3950  147.5380 C   0  0  0  0  0  1  0  0  0  0  0  0
  186.8570  178.9010  148.2020 O   0  0  0  0  0  1  0  0  0  0  0  0
  185.8300  179.3040  147.3470 C   0  0  1  0  0  3  0  0  0  0  0  0
  1  8  1  1  0  0  0
  2 22  1  0  0  0  0
  3  9  2  0  0  0  0
  3  4  1  0  0  0  0
  5  4  1  6  0  0  0
  5  1  1  0  0  0  0
  5 17  1  0  0  0  0
  7  6  2  0  0  0  0
  7 11  1  0  0  0  0
  8 12  1  0  0  0  0
 10 19  1  0  0  0  0
 10  7  1  0  0  0  0
 11 14  1  0  0  0  0
 12 28  1  6  0  0  0
 13 19  2  0  0  0  0
 14  2  1  0  0  0  0
 15  2  2  0  0  0  0
 16  9  1  6  0  0  0
 16 15  1  0  0  0  0
 16  1  1  0  0  0  0
 17 12  1  0  0  0  0
 18 11  2  0  0  0  0
 18  9  1  0  0  0  0
 19 18  1  0  0  0  0
 20 25  1  0  0  0  0
 20 23  1  0  0  0  0
 22 20  2  0  0  0  0
 23 21  1  0  0  0  0
 25 24  1  0  0  0  0
 25 26  1  0  0  0  0
 27 25  1  0  0  0  0
 28 31  1  0  0  0  0
 31 29  1  6  0  0  0
 31 30  1  0  0  0  0
M  END
>  <MODEL>
9

>  <REMARK>
 VINA RESULT:      -6.7      2.859      5.805
  Name = 
  4 active torsions:
  status: ('A' for Active; 'I' for Inactive)
    1  A    between atoms: C_1  and  C_8
    2  A    between atoms: C_4  and  N_22
    3  A    between atoms: C_12  and  C_15
    4  A    between atoms: C_15  and  C_21
                            x       y       z     vdW  Elec       q    Type
                         _______ _______ _______ _____ _____    ______ ____

>  <TORSDO>
F 4

$$$$
