=
 OpenBabel11062419113D

 54 55  0  0  1  0  0  0  0  0999 V2000
  190.4600  176.2050  144.6100 C   0  0  1  0  0  0  0  0  0  0  0  0
  192.1570  177.9140  144.3860 F   0  0  0  0  0  0  0  0  0  0  0  0
  191.9090  174.8350  145.7980 C   0  0  0  0  0  2  0  0  0  0  0  0
  190.8710  175.7860  145.9040 O   0  0  0  0  0  0  0  0  0  0  0  0
  193.0900  175.4340  145.0410 C   0  0  2  0  0  3  0  0  0  0  0  0
  189.4450  177.3290  144.7810 C   0  0  0  0  0  1  0  0  0  0  0  0
  192.7040  175.7920  143.7250 O   0  0  0  0  0  0  0  0  0  0  0  0
  191.2690  177.0620  142.5130 F   0  0  0  0  0  0  0  0  0  0  0  0
  191.6710  176.7520  143.8020 C   0  0  0  0  0  0  0  0  0  0  0  0
  194.2280  174.5880  145.1070 O   0  0  0  0  0  0  0  0  0  0  0  0
  194.3370  173.7900  143.9480 C   0  0  2  0  0  3  0  0  0  0  0  0
  194.1940  172.3050  144.3000 C   0  0  1  0  0  3  0  0  0  0  0  0
  195.5660  171.3140  145.7410 C   0  0  0  0  0  1  0  0  0  0  0  0
  194.4290  172.1250  145.6660 O   0  0  0  0  0  0  0  0  0  0  0  0
  192.8780  171.8800  144.0020 O   0  0  0  0  0  0  0  0  0  0  0  0
  192.7870  169.4340  144.0120 C   0  0  0  0  0  1  0  0  0  0  0  0
  194.1060  170.6660  142.5380 F   0  0  0  0  0  0  0  0  0  0  0  0
  192.8900  170.7140  143.1930 C   0  0  2  0  0  0  0  0  0  0  0  0
  191.7810  170.7390  142.1430 C   0  0  0  0  0  2  0  0  0  0  0  0
  190.9010  172.6190  138.8540 O   0  0  0  0  0  0  0  0  0  0  0  0
  191.9800  171.8240  141.1940 N   0  0  0  0  0  0  0  0  0  0  0  0
  191.5740  172.5510  139.9110 C   0  0  0  0  0  0  0  0  0  0  0  0
  192.5070  173.0580  140.8090 C   0  0  2  0  0  3  0  0  0  0  0  0
  193.8840  172.9060  140.1780 C   0  0  0  0  0  2  0  0  0  0  0  0
  193.8490  175.2630  140.5080 O   0  0  0  0  0  1  0  0  0  0  0  0
  194.4930  174.2460  139.8070 C   0  0  2  0  0  3  0  0  0  0  0  0
  193.3680  175.1170  137.9070 O   0  0  0  0  0  0  0  0  0  0  0  0
  194.3550  174.4760  138.3420 C   0  0  0  0  0  0  0  0  0  0  0  0
  195.3500  174.0080  137.4330 N   0  0  0  0  0  1  0  0  0  0  0  0
  195.6970  174.0460  143.2870 C   0  0  0  0  0  2  0  0  0  0  0  0
  196.5300  175.1150  143.9960 C   0  0  1  0  0  3  0  0  0  0  0  0
  197.6410  174.5370  144.6190 O   0  0  0  0  0  1  0  0  0  0  0  0
  197.1880  177.4690  143.5630 F   0  0  0  0  0  0  0  0  0  0  0  0
  197.0030  176.0260  141.8090 N   0  0  0  0  0  2  0  0  0  0  0  0
  196.9480  176.2250  143.0740 C   0  0  0  0  0  0  0  0  0  0  0  0
  189.7760  175.0540  143.8490 C   0  0  0  0  0  2  0  0  0  0  0  0
  189.6710  175.3440  142.4830 O   0  0  0  0  0  0  0  0  0  0  0  0
  188.4640  174.7660  142.0800 C   0  0  1  0  0  3  0  0  0  0  0  0
  188.2690  174.4600  139.6080 O   0  0  0  0  0  1  0  0  0  0  0  0
  188.0750  175.2700  140.7210 C   0  0  0  0  0  0  0  0  0  0  0  0
  187.5520  176.4850  140.5490 C   0  0  0  0  0  3  0  0  0  0  0  0
  188.4240  178.3110  141.7810 O   0  0  0  0  0  1  0  0  0  0  0  0
  187.3180  177.4660  141.6570 C   0  0  1  0  0  3  0  0  0  0  0  0
  185.2730  177.7630  140.4030 O   0  0  0  0  0  1  0  0  0  0  0  0
  186.0310  178.2750  141.4640 C   0  0  1  0  0  3  0  0  0  0  0  0
  185.1740  178.4290  142.7140 C   0  0  0  0  0  2  0  0  0  0  0  0
  185.6670  179.4750  143.5850 N   0  0  0  0  0  2  0  0  0  0  0  0
  185.9460  178.8400  144.8650 C   0  0  0  0  0  2  0  0  0  0  0  0
  184.7500  178.0100  145.3050 C   0  0  2  0  0  3  0  0  0  0  0  0
  183.8500  178.8120  146.0150 O   0  0  0  0  0  1  0  0  0  0  0  0
  185.2460  176.8830  146.1960 C   0  0  0  0  0  2  0  0  0  0  0  0
  186.4270  177.3380  147.0210 C   0  0  0  0  0  1  0  0  0  0  0  0
  187.3290  172.6640  142.0790 O   0  0  0  0  0  1  0  0  0  0  0  0
  188.5940  173.2510  142.0840 C   0  0  0  0  0  2  0  0  0  0  0  0
  1  6  1  1  0  0  0
  1  4  1  0  0  0  0
  3  4  1  0  0  0  0
  5 10  1  6  0  0  0
  5  3  1  0  0  0  0
  7  9  1  0  0  0  0
  7  5  1  0  0  0  0
  8  9  1  0  0  0  0
  9  2  1  0  0  0  0
  9  1  1  0  0  0  0
 11 30  1  1  0  0  0
 11 12  1  0  0  0  0
 11 10  1  0  0  0  0
 12 15  1  1  0  0  0
 12 14  1  0  0  0  0
 14 13  1  0  0  0  0
 17 18  1  0  0  0  0
 18 15  1  0  0  0  0
 18 16  1  1  0  0  0
 19 18  1  0  0  0  0
 20 22  2  0  0  0  0
 21 19  1  0  0  0  0
 22 23  1  0  0  0  0
 22 21  1  0  0  0  0
 23 24  1  6  0  0  0
 23 21  1  0  0  0  0
 26 24  1  0  0  0  0
 26 25  1  1  0  0  0
 27 28  2  0  0  0  0
 28 26  1  0  0  0  0
 29 28  1  0  0  0  0
 30 31  1  0  0  0  0
 31 32  1  6  0  0  0
 34 35  2  0  0  0  0
 35 33  1  0  0  0  0
 35 31  1  0  0  0  0
 36  1  1  0  0  0  0
 37 36  1  0  0  0  0
 38 54  1  6  0  0  0
 38 37  1  0  0  0  0
 39 40  1  0  0  0  0
 40 38  1  0  0  0  0
 41 40  2  0  0  0  0
 41 43  1  0  0  0  0
 43 42  1  6  0  0  0
 45 44  1  6  0  0  0
 45 43  1  0  0  0  0
 45 46  1  0  0  0  0
 46 47  1  0  0  0  0
 47 48  1  0  0  0  0
 48 49  1  0  0  0  0
 49 50  1  1  0  0  0
 49 51  1  0  0  0  0
 51 52  1  0  0  0  0
 53 54  1  0  0  0  0
M  END
>  <MODEL>
1

>  <REMARK>
 VINA RESULT:      -5.6      0.000      0.000
  Name = 
  26 active torsions:
  status: ('A' for Active; 'I' for Inactive)
    1  A    between atoms: C_1  and  C_28
    2  A    between atoms: C_1  and  CA_52
    3  A    between atoms: C_2  and  C_36
    4  A    between atoms: C_2  and  C_39
    5  A    between atoms: C_2  and  O_53
    6  A    between atoms: C_5  and  N_15
    7  A    between atoms: C_5  and  C_54
    8  A    between atoms: C_6  and  C_13
    9  A    between atoms: C_6  and  C_38
   10  A    between atoms: C_8  and  C_12
   11  A    between atoms: C_11  and  C_27
   12  A    between atoms: C_11  and  O_30
   13  A    between atoms: C_11  and  C_34
   14  A    between atoms: C_12  and  O_30
   15  A    between atoms: C_16  and  C_39
   16  A    between atoms: C_16  and  C_44
   17  A    between atoms: O_17  and  C_36
   18  A    between atoms: O_17  and  C_54
   19  A    between atoms: C_19  and  N_21
   20  A    between atoms: C_19  and  C_47
   21  A    between atoms: N_21  and  C_38
   22  A    between atoms: C_22  and  C_28
   23  A    between atoms: C_23  and  O_53
   24  A    between atoms: O_33  and  C_36
   25  A    between atoms: C_47  and  C_48
   26  A    between atoms: C_48  and  C_50
                            x       y       z     vdW  Elec       q    Type
                         _______ _______ _______ _____ _____    ______ ____

>  <TORSDO>
F 26

$$$$
=
 OpenBabel11062419113D

 54 55  0  0  1  0  0  0  0  0999 V2000
  190.9240  175.5770  146.3040 C   0  0  1  0  0  0  0  0  0  0  0  0
  188.6980  175.9290  147.1830 F   0  0  0  0  0  0  0  0  0  0  0  0
  190.7120  177.3930  144.8730 C   0  0  0  0  0  2  0  0  0  0  0  0
  191.2080  176.9570  146.1210 O   0  0  0  0  0  0  0  0  0  0  0  0
  189.2080  177.1520  144.7970 C   0  0  2  0  0  3  0  0  0  0  0  0
  191.3490  175.1940  147.7170 C   0  0  0  0  0  1  0  0  0  0  0  0
  188.9210  175.7690  144.9120 O   0  0  0  0  0  0  0  0  0  0  0  0
  189.1560  173.9470  146.2410 F   0  0  0  0  0  0  0  0  0  0  0  0
  189.3990  175.3090  146.1580 C   0  0  0  0  0  0  0  0  0  0  0  0
  188.6420  177.7750  143.6540 O   0  0  0  0  0  0  0  0  0  0  0  0
  187.2810  177.4300  143.5080 C   0  0  2  0  0  3  0  0  0  0  0  0
  186.9670  177.0730  142.0500 C   0  0  1  0  0  3  0  0  0  0  0  0
  185.7770  177.6650  140.2700 C   0  0  0  0  0  1  0  0  0  0  0  0
  186.4000  178.1790  141.4110 O   0  0  0  0  0  0  0  0  0  0  0  0
  188.1680  176.7270  141.3870 O   0  0  0  0  0  0  0  0  0  0  0  0
  187.2780  174.5770  142.1440 C   0  0  0  0  0  1  0  0  0  0  0  0
  189.5550  175.0190  141.9190 F   0  0  0  0  0  0  0  0  0  0  0  0
  188.3370  175.3190  141.3390 C   0  0  2  0  0  0  0  0  0  0  0  0
  188.3480  174.7960  139.9040 C   0  0  0  0  0  2  0  0  0  0  0  0
  190.6950  172.6910  137.6270 O   0  0  0  0  0  0  0  0  0  0  0  0
  189.4020  173.8120  139.7110 N   0  0  0  0  0  0  0  0  0  0  0  0
  190.3310  173.0330  138.7780 C   0  0  0  0  0  0  0  0  0  0  0  0
  190.4480  173.0050  140.1630 C   0  0  2  0  0  3  0  0  0  0  0  0
  189.9410  171.6500  140.6410 C   0  0  0  0  0  2  0  0  0  0  0  0
  190.7800  169.6070  141.5290 O   0  0  0  0  0  1  0  0  0  0  0  0
  190.9040  170.9920  141.6130 C   0  0  2  0  0  3  0  0  0  0  0  0
  189.4690  171.8890  143.2780 O   0  0  0  0  0  0  0  0  0  0  0  0
  190.6090  171.4430  143.0010 C   0  0  0  0  0  0  0  0  0  0  0  0
  191.5950  171.3380  144.0270 N   0  0  0  0  0  1  0  0  0  0  0  0
  186.4120  178.6110  143.9600 C   0  0  0  0  0  2  0  0  0  0  0  0
  186.1710  178.6510  145.4690 C   0  0  1  0  0  3  0  0  0  0  0  0
  185.6550  179.8930  145.8500 O   0  0  0  0  0  1  0  0  0  0  0  0
  185.6960  176.2430  145.8420 F   0  0  0  0  0  0  0  0  0  0  0  0
  184.1010  177.7850  146.3640 N   0  0  0  0  0  2  0  0  0  0  0  0
  185.2840  177.5330  145.9400 C   0  0  0  0  0  0  0  0  0  0  0  0
  191.7240  174.7130  145.3120 C   0  0  0  0  0  2  0  0  0  0  0  0
  192.7450  174.0110  145.9620 O   0  0  0  0  0  0  0  0  0  0  0  0
  193.8750  174.1780  145.1550 C   0  0  1  0  0  3  0  0  0  0  0  0
  194.6670  175.9480  146.7300 O   0  0  0  0  0  1  0  0  0  0  0  0
  194.5100  175.5120  145.4190 C   0  0  0  0  0  0  0  0  0  0  0  0
  194.9240  176.2980  144.4250 C   0  0  0  0  0  3  0  0  0  0  0  0
  193.5870  176.4760  142.4770 O   0  0  0  0  0  1  0  0  0  0  0  0
  194.7880  175.9600  142.9710 C   0  0  1  0  0  3  0  0  0  0  0  0
  196.9520  177.0370  142.9580 O   0  0  0  0  0  1  0  0  0  0  0  0
  195.9770  176.4510  142.1400 C   0  0  1  0  0  3  0  0  0  0  0  0
  196.6000  175.4040  141.2250 C   0  0  0  0  0  2  0  0  0  0  0  0
  196.4750  175.7620  139.8280 N   0  0  0  0  0  2  0  0  0  0  0  0
  197.6710  175.2530  139.1710 C   0  0  0  0  0  2  0  0  0  0  0  0
  197.2850  174.2630  138.0830 C   0  0  2  0  0  3  0  0  0  0  0  0
  197.8270  173.0060  138.3710 O   0  0  0  0  0  1  0  0  0  0  0  0
  197.8330  174.7650  136.7570 C   0  0  0  0  0  2  0  0  0  0  0  0
  196.9620  175.8700  136.2050 C   0  0  0  0  0  1  0  0  0  0  0  0
  195.5630  172.7560  144.2400 O   0  0  0  0  0  1  0  0  0  0  0  0
  194.8560  173.0450  145.4080 C   0  0  0  0  0  2  0  0  0  0  0  0
  1  6  1  1  0  0  0
  3  4  1  0  0  0  0
  4  1  1  0  0  0  0
  5 10  1  6  0  0  0
  5  3  1  0  0  0  0
  5  7  1  0  0  0  0
  7  9  1  0  0  0  0
  9  8  1  0  0  0  0
  9  1  1  0  0  0  0
  9  2  1  0  0  0  0
 11 10  1  0  0  0  0
 11 30  1  6  0  0  0
 12 15  1  6  0  0  0
 12 11  1  0  0  0  0
 13 14  1  0  0  0  0
 14 12  1  0  0  0  0
 18 15  1  0  0  0  0
 18 17  1  0  0  0  0
 18 16  1  1  0  0  0
 19 18  1  0  0  0  0
 20 22  2  0  0  0  0
 21 19  1  0  0  0  0
 21 23  1  0  0  0  0
 22 21  1  0  0  0  0
 22 23  1  0  0  0  0
 23 24  1  1  0  0  0
 24 26  1  0  0  0  0
 26 25  1  1  0  0  0
 26 28  1  0  0  0  0
 28 27  2  0  0  0  0
 28 29  1  0  0  0  0
 30 31  1  0  0  0  0
 31 32  1  6  0  0  0
 31 35  1  0  0  0  0
 33 35  1  0  0  0  0
 35 34  2  0  0  0  0
 36 37  1  0  0  0  0
 36  1  1  0  0  0  0
 38 54  1  1  0  0  0
 38 40  1  0  0  0  0
 38 37  1  0  0  0  0
 40 39  1  0  0  0  0
 41 40  2  0  0  0  0
 43 42  1  6  0  0  0
 43 41  1  0  0  0  0
 45 44  1  1  0  0  0
 45 43  1  0  0  0  0
 46 45  1  0  0  0  0
 47 46  1  0  0  0  0
 48 47  1  0  0  0  0
 49 50  1  1  0  0  0
 49 48  1  0  0  0  0
 51 49  1  0  0  0  0
 52 51  1  0  0  0  0
 53 54  1  0  0  0  0
M  END
>  <MODEL>
2

>  <REMARK>
 VINA RESULT:      -5.5      2.536      8.820
  Name = 
  26 active torsions:
  status: ('A' for Active; 'I' for Inactive)
    1  A    between atoms: C_1  and  C_28
    2  A    between atoms: C_1  and  CA_52
    3  A    between atoms: C_2  and  C_36
    4  A    between atoms: C_2  and  C_39
    5  A    between atoms: C_2  and  O_53
    6  A    between atoms: C_5  and  N_15
    7  A    between atoms: C_5  and  C_54
    8  A    between atoms: C_6  and  C_13
    9  A    between atoms: C_6  and  C_38
   10  A    between atoms: C_8  and  C_12
   11  A    between atoms: C_11  and  C_27
   12  A    between atoms: C_11  and  O_30
   13  A    between atoms: C_11  and  C_34
   14  A    between atoms: C_12  and  O_30
   15  A    between atoms: C_16  and  C_39
   16  A    between atoms: C_16  and  C_44
   17  A    between atoms: O_17  and  C_36
   18  A    between atoms: O_17  and  C_54
   19  A    between atoms: C_19  and  N_21
   20  A    between atoms: C_19  and  C_47
   21  A    between atoms: N_21  and  C_38
   22  A    between atoms: C_22  and  C_28
   23  A    between atoms: C_23  and  O_53
   24  A    between atoms: O_33  and  C_36
   25  A    between atoms: C_47  and  C_48
   26  A    between atoms: C_48  and  C_50
                            x       y       z     vdW  Elec       q    Type
                         _______ _______ _______ _____ _____    ______ ____

>  <TORSDO>
F 26

$$$$
=
 OpenBabel11062419113D

 54 55  0  0  1  0  0  0  0  0999 V2000
  188.7040  173.4770  141.6850 C   0  0  1  0  0  0  0  0  0  0  0  0
  189.6490  171.4680  142.6470 F   0  0  0  0  0  0  0  0  0  0  0  0
  190.5090  173.7080  140.2430 C   0  0  0  0  0  2  0  0  0  0  0  0
  189.1870  173.2280  140.3720 O   0  0  0  0  0  0  0  0  0  0  0  0
  191.4120  173.0330  141.2700 C   0  0  2  0  0  3  0  0  0  0  0  0
  187.3380  172.8160  141.8160 C   0  0  0  0  0  1  0  0  0  0  0  0
  190.9760  173.3310  142.5850 O   0  0  0  0  0  0  0  0  0  0  0  0
  189.2230  173.1910  144.0170 F   0  0  0  0  0  0  0  0  0  0  0  0
  189.6560  172.8530  142.7450 C   0  0  0  0  0  0  0  0  0  0  0  0
  192.7790  173.3240  141.0270 O   0  0  0  0  0  0  0  0  0  0  0  0
  193.6120  172.6810  141.9690 C   0  0  2  0  0  3  0  0  0  0  0  0
  195.0040  173.3240  141.9870 C   0  0  1  0  0  3  0  0  0  0  0  0
  196.2400  173.4270  140.1430 C   0  0  0  0  0  1  0  0  0  0  0  0
  195.1910  174.0630  140.8150 O   0  0  0  0  0  0  0  0  0  0  0  0
  195.0990  174.1960  143.0970 O   0  0  0  0  0  0  0  0  0  0  0  0
  197.2310  173.1030  143.5990 C   0  0  0  0  0  1  0  0  0  0  0  0
  195.2220  172.5420  144.6380 F   0  0  0  0  0  0  0  0  0  0  0  0
  195.9010  173.6300  144.1220 C   0  0  2  0  0  0  0  0  0  0  0  0
  196.1530  174.6190  145.2580 C   0  0  0  0  0  2  0  0  0  0  0  0
  194.2720  177.4830  147.0980 O   0  0  0  0  0  0  0  0  0  0  0  0
  194.9350  175.3270  145.6200 N   0  0  0  0  0  0  0  0  0  0  0  0
  194.2420  176.4930  146.3290 C   0  0  0  0  0  0  0  0  0  0  0  0
  193.5760  175.6160  145.4790 C   0  0  2  0  0  3  0  0  0  0  0  0
  192.7190  174.6990  146.3420 C   0  0  0  0  0  2  0  0  0  0  0  0
  191.0740  175.6980  144.9400 O   0  0  0  0  0  1  0  0  0  0  0  0
  191.2450  174.8010  145.9920 C   0  0  2  0  0  3  0  0  0  0  0  0
  190.9500  176.1610  147.9160 O   0  0  0  0  0  0  0  0  0  0  0  0
  190.4740  175.2620  147.1800 C   0  0  0  0  0  0  0  0  0  0  0  0
  189.1860  174.7220  147.4690 N   0  0  0  0  0  1  0  0  0  0  0  0
  193.7240  171.1940  141.6080 C   0  0  0  0  0  2  0  0  0  0  0  0
  193.2550  170.2580  142.7220 C   0  0  1  0  0  3  0  0  0  0  0  0
  192.7800  170.9920  143.8120 O   0  0  0  0  0  1  0  0  0  0  0  0
  191.9300  168.1770  142.9970 F   0  0  0  0  0  0  0  0  0  0  0  0
  191.6790  169.4110  141.0990 N   0  0  0  0  0  2  0  0  0  0  0  0
  192.2260  169.2700  142.2490 C   0  0  0  0  0  0  0  0  0  0  0  0
  188.5330  174.9870  141.9330 C   0  0  0  0  0  2  0  0  0  0  0  0
  187.3700  175.2500  142.6660 O   0  0  0  0  0  0  0  0  0  0  0  0
  187.1060  176.6070  142.4590 C   0  0  1  0  0  3  0  0  0  0  0  0
  189.0470  177.8880  143.3700 O   0  0  0  0  0  1  0  0  0  0  0  0
  187.7450  177.4310  143.5380 C   0  0  0  0  0  0  0  0  0  0  0  0
  187.0960  177.7330  144.6630 C   0  0  0  0  0  3  0  0  0  0  0  0
  185.7150  176.4860  146.1280 O   0  0  0  0  0  1  0  0  0  0  0  0
  185.7030  177.2810  144.9800 C   0  0  1  0  0  3  0  0  0  0  0  0
  185.3070  179.4940  145.8680 O   0  0  0  0  0  1  0  0  0  0  0  0
  184.7260  178.4510  145.1350 C   0  0  1  0  0  3  0  0  0  0  0  0
  184.1330  178.9720  143.8320 C   0  0  0  0  0  2  0  0  0  0  0  0
  184.0130  177.9300  142.8350 N   0  0  0  0  0  2  0  0  0  0  0  0
  183.5430  178.5810  141.6220 C   0  0  0  0  0  2  0  0  0  0  0  0
  182.2440  177.9400  141.1570 C   0  0  2  0  0  3  0  0  0  0  0  0
  182.3400  177.6000  139.8030 O   0  0  0  0  0  1  0  0  0  0  0  0
  181.1150  178.9380  141.3560 C   0  0  0  0  0  2  0  0  0  0  0  0
  179.8320  178.2240  141.7150 C   0  0  0  0  0  1  0  0  0  0  0  0
  186.5280  177.2380  140.2280 O   0  0  0  0  0  1  0  0  0  0  0  0
  187.6080  177.0210  141.0840 C   0  0  0  0  0  2  0  0  0  0  0  0
  1  6  1  1  0  0  0
  1 36  1  0  0  0  0
  1  9  1  0  0  0  0
  2  9  1  0  0  0  0
  3  4  1  0  0  0  0
  3  5  1  0  0  0  0
  4  1  1  0  0  0  0
  5 10  1  1  0  0  0
  5  7  1  0  0  0  0
  7  9  1  0  0  0  0
  9  8  1  0  0  0  0
 10 11  1  0  0  0  0
 11 30  1  6  0  0  0
 11 12  1  0  0  0  0
 12 14  1  6  0  0  0
 12 15  1  0  0  0  0
 13 14  1  0  0  0  0
 15 18  1  0  0  0  0
 18 16  1  6  0  0  0
 18 17  1  0  0  0  0
 18 19  1  0  0  0  0
 19 21  1  0  0  0  0
 21 22  1  0  0  0  0
 22 20  2  0  0  0  0
 23 21  1  0  0  0  0
 23 22  1  0  0  0  0
 23 24  1  1  0  0  0
 26 25  1  6  0  0  0
 26 24  1  0  0  0  0
 26 28  1  0  0  0  0
 28 29  1  0  0  0  0
 28 27  2  0  0  0  0
 30 31  1  0  0  0  0
 31 32  1  1  0  0  0
 34 35  2  0  0  0  0
 35 31  1  0  0  0  0
 35 33  1  0  0  0  0
 36 37  1  0  0  0  0
 38 54  1  6  0  0  0
 38 37  1  0  0  0  0
 38 40  1  0  0  0  0
 39 40  1  0  0  0  0
 40 41  2  0  0  0  0
 41 43  1  0  0  0  0
 43 45  1  0  0  0  0
 43 42  1  1  0  0  0
 45 44  1  6  0  0  0
 46 45  1  0  0  0  0
 47 46  1  0  0  0  0
 48 47  1  0  0  0  0
 49 50  1  6  0  0  0
 49 51  1  0  0  0  0
 49 48  1  0  0  0  0
 51 52  1  0  0  0  0
 53 54  1  0  0  0  0
M  END
>  <MODEL>
3

>  <REMARK>
 VINA RESULT:      -5.3      2.484      5.966
  Name = 
  26 active torsions:
  status: ('A' for Active; 'I' for Inactive)
    1  A    between atoms: C_1  and  C_28
    2  A    between atoms: C_1  and  CA_52
    3  A    between atoms: C_2  and  C_36
    4  A    between atoms: C_2  and  C_39
    5  A    between atoms: C_2  and  O_53
    6  A    between atoms: C_5  and  N_15
    7  A    between atoms: C_5  and  C_54
    8  A    between atoms: C_6  and  C_13
    9  A    between atoms: C_6  and  C_38
   10  A    between atoms: C_8  and  C_12
   11  A    between atoms: C_11  and  C_27
   12  A    between atoms: C_11  and  O_30
   13  A    between atoms: C_11  and  C_34
   14  A    between atoms: C_12  and  O_30
   15  A    between atoms: C_16  and  C_39
   16  A    between atoms: C_16  and  C_44
   17  A    between atoms: O_17  and  C_36
   18  A    between atoms: O_17  and  C_54
   19  A    between atoms: C_19  and  N_21
   20  A    between atoms: C_19  and  C_47
   21  A    between atoms: N_21  and  C_38
   22  A    between atoms: C_22  and  C_28
   23  A    between atoms: C_23  and  O_53
   24  A    between atoms: O_33  and  C_36
   25  A    between atoms: C_47  and  C_48
   26  A    between atoms: C_48  and  C_50
                            x       y       z     vdW  Elec       q    Type
                         _______ _______ _______ _____ _____    ______ ____

>  <TORSDO>
F 26

$$$$
=
 OpenBabel11062419113D

 54 55  0  0  1  0  0  0  0  0999 V2000
  193.5270  176.1080  145.6410 C   0  0  1  0  0  0  0  0  0  0  0  0
  191.4570  176.5820  146.8010 F   0  0  0  0  0  0  0  0  0  0  0  0
  192.4310  176.0190  143.5970 C   0  0  0  0  0  2  0  0  0  0  0  0
  193.1840  176.8340  144.4690 O   0  0  0  0  0  0  0  0  0  0  0  0
  191.1680  175.5310  144.2990 C   0  0  2  0  0  3  0  0  0  0  0  0
  194.2090  177.0700  146.6060 C   0  0  0  0  0  1  0  0  0  0  0  0
  191.5020  174.7490  145.4320 O   0  0  0  0  0  0  0  0  0  0  0  0
  192.6120  174.7590  147.4100 F   0  0  0  0  0  0  0  0  0  0  0  0
  192.2500  175.5450  146.3280 C   0  0  0  0  0  0  0  0  0  0  0  0
  190.2830  174.8950  143.3890 O   0  0  0  0  0  0  0  0  0  0  0  0
  188.9370  175.1080  143.7550 C   0  0  2  0  0  3  0  0  0  0  0  0
  188.1080  175.5350  142.5380 C   0  0  1  0  0  3  0  0  0  0  0  0
  188.1070  173.3320  142.2540 C   0  0  0  0  0  1  0  0  0  0  0  0
  187.3050  174.4690  142.1230 O   0  0  0  0  0  0  0  0  0  0  0  0
  187.2760  176.6220  142.8990 O   0  0  0  0  0  0  0  0  0  0  0  0
  186.8580  177.6410  140.7140 C   0  0  0  0  0  1  0  0  0  0  0  0
  188.8870  177.8110  141.8450 F   0  0  0  0  0  0  0  0  0  0  0  0
  187.5260  177.7510  142.0780 C   0  0  2  0  0  0  0  0  0  0  0  0
  187.0990  179.0520  142.7540 C   0  0  0  0  0  2  0  0  0  0  0  0
  184.2840  178.8460  145.4310 O   0  0  0  0  0  0  0  0  0  0  0  0
  185.6960  179.0080  143.1390 N   0  0  0  0  0  0  0  0  0  0  0  0
  184.6230  178.9650  144.2290 C   0  0  0  0  0  0  0  0  0  0  0  0
  184.3310  179.1520  142.8820 C   0  0  2  0  0  3  0  0  0  0  0  0
  183.7230  177.8580  142.3570 C   0  0  0  0  0  2  0  0  0  0  0  0
  183.8440  178.9830  140.2630 O   0  0  0  0  0  1  0  0  0  0  0  0
  183.1190  178.0300  140.9760 C   0  0  2  0  0  3  0  0  0  0  0  0
  180.9150  178.2800  140.1310 O   0  0  0  0  0  0  0  0  0  0  0  0
  181.6980  178.4610  141.0940 C   0  0  0  0  0  0  0  0  0  0  0  0
  181.2100  179.0420  142.3020 N   0  0  0  0  0  1  0  0  0  0  0  0
  188.8760  176.1890  144.8400 C   0  0  0  0  0  2  0  0  0  0  0  0
  187.9470  175.8380  146.0030 C   0  0  1  0  0  3  0  0  0  0  0  0
  188.6750  175.2840  147.0610 O   0  0  0  0  0  1  0  0  0  0  0  0
  187.3730  178.2520  145.9670 F   0  0  0  0  0  0  0  0  0  0  0  0
  186.2620  176.8660  147.3940 N   0  0  0  0  0  2  0  0  0  0  0  0
  187.1340  177.0130  146.4660 C   0  0  0  0  0  0  0  0  0  0  0  0
  194.5140  174.9720  145.3170 C   0  0  0  0  0  2  0  0  0  0  0  0
  195.8270  175.4510  145.2370 O   0  0  0  0  0  0  0  0  0  0  0  0
  196.3070  174.9940  144.0060 C   0  0  1  0  0  3  0  0  0  0  0  0
  196.9940  177.3080  143.3630 O   0  0  0  0  0  1  0  0  0  0  0  0
  196.3590  176.1210  143.0170 C   0  0  0  0  0  0  0  0  0  0  0  0
  195.8010  176.0170  141.8100 C   0  0  0  0  0  3  0  0  0  0  0  0
  193.9700  175.2010  140.5480 O   0  0  0  0  0  1  0  0  0  0  0  0
  195.0630  174.8070  141.3240 C   0  0  1  0  0  3  0  0  0  0  0  0
  197.1910  174.4410  140.2380 O   0  0  0  0  0  1  0  0  0  0  0  0
  195.9640  173.8410  140.5480 C   0  0  1  0  0  3  0  0  0  0  0  0
  196.1800  172.4870  141.2130 C   0  0  0  0  0  2  0  0  0  0  0  0
  194.9300  171.8050  141.4720 N   0  0  0  0  0  2  0  0  0  0  0  0
  194.7480  171.8260  142.9160 C   0  0  0  0  0  2  0  0  0  0  0  0
  193.2850  172.0700  143.2530 C   0  0  2  0  0  3  0  0  0  0  0  0
  192.8150  171.0570  144.0950 O   0  0  0  0  0  1  0  0  0  0  0  0
  192.4860  172.0730  141.9600 C   0  0  0  0  0  2  0  0  0  0  0  0
  191.1540  171.3870  142.1560 C   0  0  0  0  0  1  0  0  0  0  0  0
  197.8050  173.8720  145.4920 O   0  0  0  0  0  1  0  0  0  0  0  0
  197.6800  174.3680  144.1940 C   0  0  0  0  0  2  0  0  0  0  0  0
  1  9  1  0  0  0  0
  1  6  1  1  0  0  0
  3  5  1  0  0  0  0
  3  4  1  0  0  0  0
  4  1  1  0  0  0  0
  5 10  1  6  0  0  0
  5  7  1  0  0  0  0
  7  9  1  0  0  0  0
  9  2  1  0  0  0  0
  9  8  1  0  0  0  0
 10 11  1  0  0  0  0
 11 30  1  1  0  0  0
 12 14  1  1  0  0  0
 12 15  1  0  0  0  0
 12 11  1  0  0  0  0
 14 13  1  0  0  0  0
 17 18  1  0  0  0  0
 18 16  1  6  0  0  0
 18 19  1  0  0  0  0
 18 15  1  0  0  0  0
 19 21  1  0  0  0  0
 21 22  1  0  0  0  0
 22 20  2  0  0  0  0
 23 24  1  6  0  0  0
 23 21  1  0  0  0  0
 23 22  1  0  0  0  0
 26 25  1  6  0  0  0
 26 28  1  0  0  0  0
 26 24  1  0  0  0  0
 27 28  2  0  0  0  0
 28 29  1  0  0  0  0
 30 31  1  0  0  0  0
 31 35  1  0  0  0  0
 31 32  1  1  0  0  0
 33 35  1  0  0  0  0
 35 34  2  0  0  0  0
 36  1  1  0  0  0  0
 37 36  1  0  0  0  0
 38 54  1  1  0  0  0
 38 37  1  0  0  0  0
 40 39  1  0  0  0  0
 40 38  1  0  0  0  0
 41 40  2  0  0  0  0
 43 42  1  6  0  0  0
 43 41  1  0  0  0  0
 45 44  1  1  0  0  0
 45 46  1  0  0  0  0
 45 43  1  0  0  0  0
 46 47  1  0  0  0  0
 47 48  1  0  0  0  0
 48 49  1  0  0  0  0
 49 50  1  1  0  0  0
 51 52  1  0  0  0  0
 51 49  1  0  0  0  0
 54 53  1  0  0  0  0
M  END
>  <MODEL>
4

>  <REMARK>
 VINA RESULT:      -5.1      2.324      9.246
  Name = 
  26 active torsions:
  status: ('A' for Active; 'I' for Inactive)
    1  A    between atoms: C_1  and  C_28
    2  A    between atoms: C_1  and  CA_52
    3  A    between atoms: C_2  and  C_36
    4  A    between atoms: C_2  and  C_39
    5  A    between atoms: C_2  and  O_53
    6  A    between atoms: C_5  and  N_15
    7  A    between atoms: C_5  and  C_54
    8  A    between atoms: C_6  and  C_13
    9  A    between atoms: C_6  and  C_38
   10  A    between atoms: C_8  and  C_12
   11  A    between atoms: C_11  and  C_27
   12  A    between atoms: C_11  and  O_30
   13  A    between atoms: C_11  and  C_34
   14  A    between atoms: C_12  and  O_30
   15  A    between atoms: C_16  and  C_39
   16  A    between atoms: C_16  and  C_44
   17  A    between atoms: O_17  and  C_36
   18  A    between atoms: O_17  and  C_54
   19  A    between atoms: C_19  and  N_21
   20  A    between atoms: C_19  and  C_47
   21  A    between atoms: N_21  and  C_38
   22  A    between atoms: C_22  and  C_28
   23  A    between atoms: C_23  and  O_53
   24  A    between atoms: O_33  and  C_36
   25  A    between atoms: C_47  and  C_48
   26  A    between atoms: C_48  and  C_50
                            x       y       z     vdW  Elec       q    Type
                         _______ _______ _______ _____ _____    ______ ____

>  <TORSDO>
F 26

$$$$
=
 OpenBabel11062419113D

 54 55  0  0  1  0  0  0  0  0999 V2000
  196.1190  175.0840  141.1020 C   0  0  1  0  0  0  0  0  0  0  0  0
  197.0500  175.2970  143.3250 F   0  0  0  0  0  0  0  0  0  0  0  0
  193.9570  175.2850  141.9230 C   0  0  0  0  0  2  0  0  0  0  0  0
  195.0370  175.9760  141.3310 O   0  0  0  0  0  0  0  0  0  0  0  0
  194.4000  174.6500  143.2360 C   0  0  2  0  0  3  0  0  0  0  0  0
  197.3030  175.9020  140.6000 C   0  0  0  0  0  1  0  0  0  0  0  0
  195.4350  173.7080  143.0070 O   0  0  0  0  0  0  0  0  0  0  0  0
  197.5210  173.4400  142.1600 F   0  0  0  0  0  0  0  0  0  0  0  0
  196.5340  174.3760  142.4230 C   0  0  0  0  0  0  0  0  0  0  0  0
  193.2940  174.1370  143.9620 O   0  0  0  0  0  0  0  0  0  0  0  0
  192.1210  174.8760  143.6930 C   0  0  2  0  0  3  0  0  0  0  0  0
  191.7530  175.7590  144.8910 C   0  0  1  0  0  3  0  0  0  0  0  0
  191.4410  177.5240  143.5780 C   0  0  0  0  0  1  0  0  0  0  0  0
  192.1960  177.0650  144.6620 O   0  0  0  0  0  0  0  0  0  0  0  0
  190.3460  175.7730  145.0450 O   0  0  0  0  0  0  0  0  0  0  0  0
  191.1540  175.3740  147.3200 C   0  0  0  0  0  1  0  0  0  0  0  0
  189.0410  174.7350  146.5750 F   0  0  0  0  0  0  0  0  0  0  0  0
  189.9830  175.7340  146.4160 C   0  0  2  0  0  0  0  0  0  0  0  0
  189.3650  177.0520  146.8780 C   0  0  0  0  0  2  0  0  0  0  0  0
  185.4820  176.8960  146.7250 O   0  0  0  0  0  0  0  0  0  0  0  0
  188.0980  177.3020  146.2090 N   0  0  0  0  0  0  0  0  0  0  0  0
  186.5690  177.2550  146.2100 C   0  0  0  0  0  0  0  0  0  0  0  0
  187.3090  177.8980  145.2240 C   0  0  2  0  0  3  0  0  0  0  0  0
  187.2440  177.0410  143.9660 C   0  0  0  0  0  2  0  0  0  0  0  0
  185.3160  177.1560  142.5750 O   0  0  0  0  0  1  0  0  0  0  0  0
  186.5480  177.7570  142.8230 C   0  0  2  0  0  3  0  0  0  0  0  0
  188.5130  178.2670  141.5930 O   0  0  0  0  0  0  0  0  0  0  0  0
  187.3940  177.6990  141.5990 C   0  0  0  0  0  0  0  0  0  0  0  0
  186.9640  176.9740  140.4480 N   0  0  0  0  0  1  0  0  0  0  0  0
  190.9760  173.9050  143.3820 C   0  0  0  0  0  2  0  0  0  0  0  0
  191.1550  172.5240  144.0140 C   0  0  1  0  0  3  0  0  0  0  0  0
  190.0750  172.2220  144.8480 O   0  0  0  0  0  1  0  0  0  0  0  0
  190.4830  171.2940  141.9660 F   0  0  0  0  0  0  0  0  0  0  0  0
  192.3260  170.6110  143.1180 N   0  0  0  0  0  2  0  0  0  0  0  0
  191.3620  171.4450  142.9890 C   0  0  0  0  0  0  0  0  0  0  0  0
  195.7600  174.0480  140.0220 C   0  0  0  0  0  2  0  0  0  0  0  0
  195.7790  174.6210  138.7450 O   0  0  0  0  0  0  0  0  0  0  0  0
  195.1570  173.6840  137.9150 C   0  0  1  0  0  3  0  0  0  0  0  0
  193.6010  175.4370  137.0500 O   0  0  0  0  0  1  0  0  0  0  0  0
  193.7790  174.1500  137.5440 C   0  0  0  0  0  0  0  0  0  0  0  0
  192.7130  173.3610  137.6850 C   0  0  0  0  0  3  0  0  0  0  0  0
  192.4590  171.9840  139.5950 O   0  0  0  0  0  1  0  0  0  0  0  0
  192.7630  171.9670  138.2320 C   0  0  1  0  0  3  0  0  0  0  0  0
  191.2520  170.0850  138.3540 O   0  0  0  0  0  1  0  0  0  0  0  0
  191.8380  171.0070  137.4770 C   0  0  1  0  0  3  0  0  0  0  0  0
  190.7790  171.6780  136.6130 C   0  0  0  0  0  2  0  0  0  0  0  0
  189.5360  171.8710  137.3300 N   0  0  0  0  0  2  0  0  0  0  0  0
  189.1960  173.2790  137.1810 C   0  0  0  0  0  2  0  0  0  0  0  0
  188.2490  173.7050  138.2920 C   0  0  2  0  0  3  0  0  0  0  0  0
  187.5930  174.8870  137.9310 O   0  0  0  0  0  1  0  0  0  0  0  0
  189.0600  173.9360  139.5570 C   0  0  0  0  0  2  0  0  0  0  0  0
  188.3170  173.4210  140.7670 C   0  0  0  0  0  1  0  0  0  0  0  0
  196.7610  172.2890  136.8230 O   0  0  0  0  0  1  0  0  0  0  0  0
  196.0080  173.4550  136.6750 C   0  0  0  0  0  2  0  0  0  0  0  0
  1  6  1  6  0  0  0
  1  4  1  0  0  0  0
  1  9  1  0  0  0  0
  3  5  1  0  0  0  0
  4  3  1  0  0  0  0
  5 10  1  6  0  0  0
  7  5  1  0  0  0  0
  8  9  1  0  0  0  0
  9  7  1  0  0  0  0
  9  2  1  0  0  0  0
 11 30  1  1  0  0  0
 11 10  1  0  0  0  0
 11 12  1  0  0  0  0
 12 14  1  6  0  0  0
 12 15  1  0  0  0  0
 13 14  1  0  0  0  0
 15 18  1  0  0  0  0
 18 17  1  0  0  0  0
 18 19  1  0  0  0  0
 18 16  1  1  0  0  0
 21 22  1  0  0  0  0
 21 19  1  0  0  0  0
 22 20  2  0  0  0  0
 23 24  1  6  0  0  0
 23 21  1  0  0  0  0
 23 22  1  0  0  0  0
 26 25  1  6  0  0  0
 26 24  1  0  0  0  0
 27 28  2  0  0  0  0
 28 26  1  0  0  0  0
 29 28  1  0  0  0  0
 30 31  1  0  0  0  0
 31 32  1  6  0  0  0
 33 35  1  0  0  0  0
 35 34  2  0  0  0  0
 35 31  1  0  0  0  0
 36  1  1  0  0  0  0
 37 36  1  0  0  0  0
 38 54  1  6  0  0  0
 38 37  1  0  0  0  0
 39 40  1  0  0  0  0
 40 41  2  0  0  0  0
 40 38  1  0  0  0  0
 41 43  1  0  0  0  0
 43 42  1  1  0  0  0
 45 43  1  0  0  0  0
 45 44  1  1  0  0  0
 46 47  1  0  0  0  0
 46 45  1  0  0  0  0
 48 47  1  0  0  0  0
 48 49  1  0  0  0  0
 49 50  1  6  0  0  0
 49 51  1  0  0  0  0
 51 52  1  0  0  0  0
 54 53  1  0  0  0  0
M  END
>  <MODEL>
5

>  <REMARK>
 VINA RESULT:      -4.9      2.595      7.729
  Name = 
  26 active torsions:
  status: ('A' for Active; 'I' for Inactive)
    1  A    between atoms: C_1  and  C_28
    2  A    between atoms: C_1  and  CA_52
    3  A    between atoms: C_2  and  C_36
    4  A    between atoms: C_2  and  C_39
    5  A    between atoms: C_2  and  O_53
    6  A    between atoms: C_5  and  N_15
    7  A    between atoms: C_5  and  C_54
    8  A    between atoms: C_6  and  C_13
    9  A    between atoms: C_6  and  C_38
   10  A    between atoms: C_8  and  C_12
   11  A    between atoms: C_11  and  C_27
   12  A    between atoms: C_11  and  O_30
   13  A    between atoms: C_11  and  C_34
   14  A    between atoms: C_12  and  O_30
   15  A    between atoms: C_16  and  C_39
   16  A    between atoms: C_16  and  C_44
   17  A    between atoms: O_17  and  C_36
   18  A    between atoms: O_17  and  C_54
   19  A    between atoms: C_19  and  N_21
   20  A    between atoms: C_19  and  C_47
   21  A    between atoms: N_21  and  C_38
   22  A    between atoms: C_22  and  C_28
   23  A    between atoms: C_23  and  O_53
   24  A    between atoms: O_33  and  C_36
   25  A    between atoms: C_47  and  C_48
   26  A    between atoms: C_48  and  C_50
                            x       y       z     vdW  Elec       q    Type
                         _______ _______ _______ _____ _____    ______ ____

>  <TORSDO>
F 26

$$$$
=
 OpenBabel11062419113D

 54 55  0  0  1  0  0  0  0  0999 V2000
  193.1040  176.2100  146.0950 C   0  0  1  0  0  0  0  0  0  0  0  0
  191.2330  177.0260  147.3930 F   0  0  0  0  0  0  0  0  0  0  0  0
  191.7960  176.0720  144.1820 C   0  0  0  0  0  2  0  0  0  0  0  0
  192.7220  176.8660  144.8940 O   0  0  0  0  0  0  0  0  0  0  0  0
  190.5690  175.8020  145.0460 C   0  0  2  0  0  3  0  0  0  0  0  0
  193.9860  177.1650  146.8910 C   0  0  0  0  0  1  0  0  0  0  0  0
  190.9330  175.0880  146.2140 O   0  0  0  0  0  0  0  0  0  0  0  0
  192.2390  175.1400  148.0670 F   0  0  0  0  0  0  0  0  0  0  0  0
  191.8530  175.8650  146.9520 C   0  0  0  0  0  0  0  0  0  0  0  0
  189.5290  175.1970  144.2910 O   0  0  0  0  0  0  0  0  0  0  0  0
  188.4780  176.1080  144.0520 C   0  0  2  0  0  3  0  0  0  0  0  0
  188.3780  176.4370  142.5580 C   0  0  1  0  0  3  0  0  0  0  0  0
  188.1760  178.2740  141.3240 C   0  0  0  0  0  1  0  0  0  0  0  0
  188.9650  177.6820  142.3140 O   0  0  0  0  0  0  0  0  0  0  0  0
  189.0710  175.4520  141.8160 O   0  0  0  0  0  0  0  0  0  0  0  0
  188.5760  174.3410  139.6930 C   0  0  0  0  0  1  0  0  0  0  0  0
  186.9390  175.2260  141.0930 F   0  0  0  0  0  0  0  0  0  0  0  0
  188.1670  174.5950  141.1380 C   0  0  2  0  0  0  0  0  0  0  0  0
  187.9950  173.2610  141.8620 C   0  0  0  0  0  2  0  0  0  0  0  0
  191.6680  172.8220  143.0610 O   0  0  0  0  0  0  0  0  0  0  0  0
  189.2470  172.5230  141.9110 N   0  0  0  0  0  0  0  0  0  0  0  0
  190.6760  172.3730  142.4390 C   0  0  0  0  0  0  0  0  0  0  0  0
  190.0280  171.3830  141.7070 C   0  0  2  0  0  3  0  0  0  0  0  0
  190.6380  171.3670  140.3120 C   0  0  0  0  0  2  0  0  0  0  0  0
  190.3360  169.0370  140.6940 O   0  0  0  0  0  1  0  0  0  0  0  0
  190.9340  169.9570  139.8350 C   0  0  2  0  0  3  0  0  0  0  0  0
  193.0080  169.7530  138.6980 O   0  0  0  0  0  0  0  0  0  0  0  0
  192.4060  169.7330  139.7990 C   0  0  0  0  0  0  0  0  0  0  0  0
  193.1430  169.5330  141.0030 N   0  0  0  0  0  1  0  0  0  0  0  0
  188.7290  177.3890  144.8580 C   0  0  0  0  0  2  0  0  0  0  0  0
  187.4920  177.9010  145.5950 C   0  0  1  0  0  3  0  0  0  0  0  0
  186.6130  178.5250  144.7050 O   0  0  0  0  0  1  0  0  0  0  0  0
  187.4860  176.0490  147.2480 F   0  0  0  0  0  0  0  0  0  0  0  0
  185.5580  176.5630  146.1480 N   0  0  0  0  0  2  0  0  0  0  0  0
  186.7940  176.8180  146.3700 C   0  0  0  0  0  0  0  0  0  0  0  0
  193.9220  174.9410  145.7940 C   0  0  0  0  0  2  0  0  0  0  0  0
  195.2620  175.2520  145.5360 O   0  0  0  0  0  0  0  0  0  0  0  0
  195.7870  174.1170  144.9110 C   0  0  1  0  0  3  0  0  0  0  0  0
  197.2480  175.7180  143.6690 O   0  0  0  0  0  1  0  0  0  0  0  0
  196.5630  174.5090  143.6880 C   0  0  0  0  0  0  0  0  0  0  0  0
  196.6050  173.7280  142.6070 C   0  0  0  0  0  3  0  0  0  0  0  0
  194.6590  172.6080  141.8530 O   0  0  0  0  0  1  0  0  0  0  0  0
  195.8890  172.4170  142.4870 C   0  0  1  0  0  3  0  0  0  0  0  0
  197.9330  171.8970  141.3060 O   0  0  0  0  0  1  0  0  0  0  0  0
  196.7220  171.3580  141.7570 C   0  0  1  0  0  3  0  0  0  0  0  0
  196.9620  170.0750  142.5420 C   0  0  0  0  0  2  0  0  0  0  0  0
  195.9240  169.8360  143.5230 N   0  0  0  0  0  2  0  0  0  0  0  0
  196.2280  168.5480  144.1300 C   0  0  0  0  0  2  0  0  0  0  0  0
  195.2210  168.2400  145.2270 C   0  0  2  0  0  3  0  0  0  0  0  0
  194.2070  169.2040  145.2270 O   0  0  0  0  0  1  0  0  0  0  0  0
  195.9430  168.2570  146.5650 C   0  0  0  0  0  2  0  0  0  0  0  0
  195.0500  168.8210  147.6450 C   0  0  0  0  0  1  0  0  0  0  0  0
  196.1760  172.0540  146.0520 O   0  0  0  0  0  1  0  0  0  0  0  0
  196.6620  173.3520  145.8920 C   0  0  0  0  0  2  0  0  0  0  0  0
  1  6  1  1  0  0  0
  1  9  1  0  0  0  0
  3  4  1  0  0  0  0
  3  5  1  0  0  0  0
  4  1  1  0  0  0  0
  5 10  1  6  0  0  0
  5  7  1  0  0  0  0
  7  9  1  0  0  0  0
  9  2  1  0  0  0  0
  9  8  1  0  0  0  0
 11 10  1  0  0  0  0
 11 30  1  1  0  0  0
 12 15  1  6  0  0  0
 12 11  1  0  0  0  0
 13 14  1  0  0  0  0
 14 12  1  0  0  0  0
 17 18  1  0  0  0  0
 18 16  1  6  0  0  0
 18 15  1  0  0  0  0
 18 19  1  0  0  0  0
 19 21  1  0  0  0  0
 21 22  1  0  0  0  0
 22 20  2  0  0  0  0
 23 24  1  6  0  0  0
 23 21  1  0  0  0  0
 23 22  1  0  0  0  0
 26 24  1  0  0  0  0
 26 25  1  1  0  0  0
 27 28  2  0  0  0  0
 28 26  1  0  0  0  0
 28 29  1  0  0  0  0
 30 31  1  0  0  0  0
 31 32  1  6  0  0  0
 31 35  1  0  0  0  0
 34 35  2  0  0  0  0
 35 33  1  0  0  0  0
 36  1  1  0  0  0  0
 37 36  1  0  0  0  0
 38 37  1  0  0  0  0
 38 54  1  1  0  0  0
 39 40  1  0  0  0  0
 40 38  1  0  0  0  0
 41 40  2  0  0  0  0
 43 42  1  6  0  0  0
 43 41  1  0  0  0  0
 45 44  1  1  0  0  0
 45 43  1  0  0  0  0
 45 46  1  0  0  0  0
 46 47  1  0  0  0  0
 47 48  1  0  0  0  0
 48 49  1  0  0  0  0
 49 50  1  1  0  0  0
 49 51  1  0  0  0  0
 51 52  1  0  0  0  0
 54 53  1  0  0  0  0
M  END
>  <MODEL>
6

>  <REMARK>
 VINA RESULT:      -4.7      3.001      8.627
  Name = 
  26 active torsions:
  status: ('A' for Active; 'I' for Inactive)
    1  A    between atoms: C_1  and  C_28
    2  A    between atoms: C_1  and  CA_52
    3  A    between atoms: C_2  and  C_36
    4  A    between atoms: C_2  and  C_39
    5  A    between atoms: C_2  and  O_53
    6  A    between atoms: C_5  and  N_15
    7  A    between atoms: C_5  and  C_54
    8  A    between atoms: C_6  and  C_13
    9  A    between atoms: C_6  and  C_38
   10  A    between atoms: C_8  and  C_12
   11  A    between atoms: C_11  and  C_27
   12  A    between atoms: C_11  and  O_30
   13  A    between atoms: C_11  and  C_34
   14  A    between atoms: C_12  and  O_30
   15  A    between atoms: C_16  and  C_39
   16  A    between atoms: C_16  and  C_44
   17  A    between atoms: O_17  and  C_36
   18  A    between atoms: O_17  and  C_54
   19  A    between atoms: C_19  and  N_21
   20  A    between atoms: C_19  and  C_47
   21  A    between atoms: N_21  and  C_38
   22  A    between atoms: C_22  and  C_28
   23  A    between atoms: C_23  and  O_53
   24  A    between atoms: O_33  and  C_36
   25  A    between atoms: C_47  and  C_48
   26  A    between atoms: C_48  and  C_50
                            x       y       z     vdW  Elec       q    Type
                         _______ _______ _______ _____ _____    ______ ____

>  <TORSDO>
F 26

$$$$
=
 OpenBabel11062419113D

 54 55  0  0  1  0  0  0  0  0999 V2000
  194.2790  174.9840  145.3080 C   0  0  1  0  0  0  0  0  0  0  0  0
  196.0840  176.1950  144.2460 F   0  0  0  0  0  0  0  0  0  0  0  0
  195.2930  172.9470  144.8480 C   0  0  0  0  0  2  0  0  0  0  0  0
  195.1060  173.9510  145.8240 O   0  0  0  0  0  0  0  0  0  0  0  0
  195.9250  173.5490  143.5970 C   0  0  2  0  0  3  0  0  0  0  0  0
  194.2260  176.1030  146.3410 C   0  0  0  0  0  1  0  0  0  0  0  0
  195.0750  174.5350  143.0370 O   0  0  0  0  0  0  0  0  0  0  0  0
  194.0080  176.4920  143.4530 F   0  0  0  0  0  0  0  0  0  0  0  0
  194.8770  175.5570  143.9920 C   0  0  0  0  0  0  0  0  0  0  0  0
  196.3290  172.5390  142.6850 O   0  0  0  0  0  0  0  0  0  0  0  0
  195.4850  172.5080  141.5530 C   0  0  2  0  0  3  0  0  0  0  0  0
  194.6520  171.2210  141.5350 C   0  0  1  0  0  3  0  0  0  0  0  0
  195.1980  169.1020  141.1480 C   0  0  0  0  0  1  0  0  0  0  0  0
  195.4190  170.1620  142.0310 O   0  0  0  0  0  0  0  0  0  0  0  0
  193.5160  171.3890  142.3620 O   0  0  0  0  0  0  0  0  0  0  0  0
  191.3410  170.4410  141.7660 C   0  0  0  0  0  1  0  0  0  0  0  0
  192.7120  171.5630  140.2540 F   0  0  0  0  0  0  0  0  0  0  0  0
  192.3430  171.5730  141.5860 C   0  0  2  0  0  0  0  0  0  0  0  0
  191.6660  172.9090  141.8850 C   0  0  0  0  0  2  0  0  0  0  0  0
  187.8050  172.9840  141.4270 O   0  0  0  0  0  0  0  0  0  0  0  0
  190.4760  173.0890  141.0690 N   0  0  0  0  0  0  0  0  0  0  0  0
  188.9520  173.1460  140.9450 C   0  0  0  0  0  0  0  0  0  0  0  0
  189.8120  173.5040  139.9120 C   0  0  2  0  0  3  0  0  0  0  0  0
  189.7640  172.3960  138.8680 C   0  0  0  0  0  2  0  0  0  0  0  0
  189.5330  171.9700  136.5370 O   0  0  0  0  0  1  0  0  0  0  0  0
  189.9410  172.9320  137.4590 C   0  0  2  0  0  3  0  0  0  0  0  0
  191.7090  174.4880  137.1640 O   0  0  0  0  0  0  0  0  0  0  0  0
  191.3700  173.2820  137.2260 C   0  0  0  0  0  0  0  0  0  0  0  0
  192.3610  172.2630  137.1100 N   0  0  0  0  0  1  0  0  0  0  0  0
  196.3430  172.5980  140.2850 C   0  0  0  0  0  2  0  0  0  0  0  0
  195.7640  173.5300  139.2200 C   0  0  1  0  0  3  0  0  0  0  0  0
  194.5530  174.0770  139.6530 O   0  0  0  0  0  1  0  0  0  0  0  0
  196.3440  175.5790  137.9450 F   0  0  0  0  0  0  0  0  0  0  0  0
  197.9410  174.5760  139.2240 N   0  0  0  0  0  2  0  0  0  0  0  0
  196.7270  174.6090  138.8140 C   0  0  0  0  0  0  0  0  0  0  0  0
  192.8440  174.4780  145.0750 C   0  0  0  0  0  2  0  0  0  0  0  0
  192.1400  174.3820  146.2810 O   0  0  0  0  0  0  0  0  0  0  0  0
  190.9240  175.0310  146.0480 C   0  0  1  0  0  3  0  0  0  0  0  0
  189.9060  172.8320  145.4380 O   0  0  0  0  0  1  0  0  0  0  0  0
  190.0450  174.1890  145.1690 C   0  0  0  0  0  0  0  0  0  0  0  0
  189.3970  174.7090  144.1260 C   0  0  0  0  0  3  0  0  0  0  0  0
  189.9290  176.2290  142.3900 O   0  0  0  0  0  1  0  0  0  0  0  0
  189.4830  176.1460  143.7110 C   0  0  1  0  0  3  0  0  0  0  0  0
  187.0820  176.1130  143.4330 O   0  0  0  0  0  1  0  0  0  0  0  0
  188.1550  176.8900  143.8880 C   0  0  1  0  0  3  0  0  0  0  0  0
  187.8880  177.4040  145.2970 C   0  0  0  0  0  2  0  0  0  0  0  0
  186.9990  176.5310  146.0340 N   0  0  0  0  0  2  0  0  0  0  0  0
  186.4330  177.3390  147.1050 C   0  0  0  0  0  2  0  0  0  0  0  0
  185.9250  178.6590  146.5480 C   0  0  2  0  0  3  0  0  0  0  0  0
  185.5850  179.5190  147.5970 O   0  0  0  0  0  1  0  0  0  0  0  0
  184.6980  178.3830  145.6940 C   0  0  0  0  0  2  0  0  0  0  0  0
  184.5990  179.3820  144.5650 C   0  0  0  0  0  1  0  0  0  0  0  0
  191.1910  175.7290  148.3170 O   0  0  0  0  0  1  0  0  0  0  0  0
  190.2430  175.3330  147.3730 C   0  0  0  0  0  2  0  0  0  0  0  0
  1  4  1  0  0  0  0
  1  6  1  1  0  0  0
  3  4  1  0  0  0  0
  5 10  1  6  0  0  0
  5  3  1  0  0  0  0
  7  5  1  0  0  0  0
  7  9  1  0  0  0  0
  8  9  1  0  0  0  0
  9  2  1  0  0  0  0
  9  1  1  0  0  0  0
 11 30  1  6  0  0  0
 11 10  1  0  0  0  0
 12 11  1  0  0  0  0
 12 14  1  1  0  0  0
 12 15  1  0  0  0  0
 13 14  1  0  0  0  0
 17 18  1  0  0  0  0
 18 16  1  1  0  0  0
 18 19  1  0  0  0  0
 18 15  1  0  0  0  0
 21 19  1  0  0  0  0
 22 21  1  0  0  0  0
 22 20  2  0  0  0  0
 23 24  1  6  0  0  0
 23 22  1  0  0  0  0
 23 21  1  0  0  0  0
 26 25  1  6  0  0  0
 26 24  1  0  0  0  0
 27 28  2  0  0  0  0
 28 26  1  0  0  0  0
 29 28  1  0  0  0  0
 31 32  1  1  0  0  0
 31 30  1  0  0  0  0
 33 35  1  0  0  0  0
 35 31  1  0  0  0  0
 35 34  2  0  0  0  0
 36  1  1  0  0  0  0
 36 37  1  0  0  0  0
 38 37  1  0  0  0  0
 38 54  1  1  0  0  0
 40 39  1  0  0  0  0
 40 38  1  0  0  0  0
 41 40  2  0  0  0  0
 43 42  1  6  0  0  0
 43 45  1  0  0  0  0
 43 41  1  0  0  0  0
 45 44  1  1  0  0  0
 45 46  1  0  0  0  0
 46 47  1  0  0  0  0
 47 48  1  0  0  0  0
 49 48  1  0  0  0  0
 49 50  1  1  0  0  0
 51 49  1  0  0  0  0
 52 51  1  0  0  0  0
 54 53  1  0  0  0  0
M  END
>  <MODEL>
7

>  <REMARK>
 VINA RESULT:      -4.7      2.262      4.050
  Name = 
  26 active torsions:
  status: ('A' for Active; 'I' for Inactive)
    1  A    between atoms: C_1  and  C_28
    2  A    between atoms: C_1  and  CA_52
    3  A    between atoms: C_2  and  C_36
    4  A    between atoms: C_2  and  C_39
    5  A    between atoms: C_2  and  O_53
    6  A    between atoms: C_5  and  N_15
    7  A    between atoms: C_5  and  C_54
    8  A    between atoms: C_6  and  C_13
    9  A    between atoms: C_6  and  C_38
   10  A    between atoms: C_8  and  C_12
   11  A    between atoms: C_11  and  C_27
   12  A    between atoms: C_11  and  O_30
   13  A    between atoms: C_11  and  C_34
   14  A    between atoms: C_12  and  O_30
   15  A    between atoms: C_16  and  C_39
   16  A    between atoms: C_16  and  C_44
   17  A    between atoms: O_17  and  C_36
   18  A    between atoms: O_17  and  C_54
   19  A    between atoms: C_19  and  N_21
   20  A    between atoms: C_19  and  C_47
   21  A    between atoms: N_21  and  C_38
   22  A    between atoms: C_22  and  C_28
   23  A    between atoms: C_23  and  O_53
   24  A    between atoms: O_33  and  C_36
   25  A    between atoms: C_47  and  C_48
   26  A    between atoms: C_48  and  C_50
                            x       y       z     vdW  Elec       q    Type
                         _______ _______ _______ _____ _____    ______ ____

>  <TORSDO>
F 26

$$$$
=
 OpenBabel11062419113D

 54 55  0  0  1  0  0  0  0  0999 V2000
  196.2500  173.6410  139.9480 C   0  0  1  0  0  0  0  0  0  0  0  0
  197.3910  172.6340  141.8280 F   0  0  0  0  0  0  0  0  0  0  0  0
  195.6710  175.4980  141.2170 C   0  0  0  0  0  2  0  0  0  0  0  0
  196.5980  174.9760  140.2880 O   0  0  0  0  0  0  0  0  0  0  0  0
  195.6420  174.6280  142.4690 C   0  0  2  0  0  3  0  0  0  0  0  0
  197.3540  173.0780  139.0620 C   0  0  0  0  0  1  0  0  0  0  0  0
  195.2290  173.3110  142.1490 O   0  0  0  0  0  0  0  0  0  0  0  0
  195.7090  171.4920  140.8830 F   0  0  0  0  0  0  0  0  0  0  0  0
  196.1470  172.7600  141.2260 C   0  0  0  0  0  0  0  0  0  0  0  0
  194.8910  175.2410  143.5060 O   0  0  0  0  0  0  0  0  0  0  0  0
  193.7580  174.4670  143.8390 C   0  0  2  0  0  3  0  0  0  0  0  0
  192.4690  175.2570  143.5780 C   0  0  1  0  0  3  0  0  0  0  0  0
  192.1560  174.6630  141.4600 C   0  0  0  0  0  1  0  0  0  0  0  0
  191.6270  174.5140  142.7450 O   0  0  0  0  0  0  0  0  0  0  0  0
  191.8090  175.4900  144.8070 O   0  0  0  0  0  0  0  0  0  0  0  0
  191.9010  177.7610  143.9000 C   0  0  0  0  0  1  0  0  0  0  0  0
  191.3280  177.2800  146.1060 F   0  0  0  0  0  0  0  0  0  0  0  0
  191.2040  176.7730  144.8260 C   0  0  2  0  0  0  0  0  0  0  0  0
  189.7190  176.7070  144.4790 C   0  0  0  0  0  2  0  0  0  0  0  0
  188.6110  174.6060  147.5590 O   0  0  0  0  0  0  0  0  0  0  0  0
  188.9080  176.5090  145.6710 N   0  0  0  0  0  0  0  0  0  0  0  0
  188.5320  175.6650  146.8910 C   0  0  0  0  0  0  0  0  0  0  0  0
  188.0490  176.9520  146.6790 C   0  0  2  0  0  3  0  0  0  0  0  0
  186.5900  176.8340  146.2610 C   0  0  0  0  0  2  0  0  0  0  0  0
  184.7340  178.0950  147.0580 O   0  0  0  0  0  1  0  0  0  0  0  0
  185.8830  178.1770  146.2730 C   0  0  2  0  0  3  0  0  0  0  0  0
  185.5810  179.7770  144.5450 O   0  0  0  0  0  0  0  0  0  0  0  0
  185.5180  178.5700  144.8830 C   0  0  0  0  0  0  0  0  0  0  0  0
  185.1340  177.5860  143.9240 N   0  0  0  0  0  1  0  0  0  0  0  0
  193.8390  174.0660  145.3160 C   0  0  0  0  0  2  0  0  0  0  0  0
  194.1390  172.5820  145.5320 C   0  0  1  0  0  3  0  0  0  0  0  0
  193.4370  171.8010  144.6100 O   0  0  0  0  0  1  0  0  0  0  0  0
  196.5150  173.2030  145.8970 F   0  0  0  0  0  0  0  0  0  0  0  0
  196.0240  171.1770  144.9770 N   0  0  0  0  0  2  0  0  0  0  0  0
  195.6100  172.2790  145.4830 C   0  0  0  0  0  0  0  0  0  0  0  0
  194.9300  173.6010  139.1550 C   0  0  0  0  0  2  0  0  0  0  0  0
  195.1640  173.7180  137.7800 O   0  0  0  0  0  0  0  0  0  0  0  0
  193.9680  173.3240  137.1720 C   0  0  1  0  0  3  0  0  0  0  0  0
  193.3250  175.7370  137.1400 O   0  0  0  0  0  1  0  0  0  0  0  0
  192.9400  174.4100  137.2920 C   0  0  0  0  0  0  0  0  0  0  0  0
  191.6610  174.1360  137.5510 C   0  0  0  0  0  3  0  0  0  0  0  0
  191.4480  172.3150  139.0510 O   0  0  0  0  0  1  0  0  0  0  0  0
  191.1220  172.7540  137.7650 C   0  0  1  0  0  3  0  0  0  0  0  0
  189.3040  171.6240  136.6440 O   0  0  0  0  0  1  0  0  0  0  0  0
  189.6110  172.6690  137.5240 C   0  0  1  0  0  3  0  0  0  0  0  0
  188.7620  172.5780  138.7860 C   0  0  0  0  0  2  0  0  0  0  0  0
  188.3280  173.8810  139.2430 N   0  0  0  0  0  2  0  0  0  0  0  0
  188.6810  173.9550  140.6530 C   0  0  0  0  0  2  0  0  0  0  0  0
  188.3460  172.6420  141.3430 C   0  0  2  0  0  3  0  0  0  0  0  0
  187.0710  172.7160  141.9140 O   0  0  0  0  0  1  0  0  0  0  0  0
  189.3800  172.3890  142.4280 C   0  0  0  0  0  2  0  0  0  0  0  0
  190.1130  171.0930  142.1730 C   0  0  0  0  0  1  0  0  0  0  0  0
  193.8100  171.6690  135.4560 O   0  0  0  0  0  1  0  0  0  0  0  0
  194.2270  172.9750  135.7140 C   0  0  0  0  0  2  0  0  0  0  0  0
  1  6  1  6  0  0  0
  1  4  1  0  0  0  0
  1  9  1  0  0  0  0
  3  5  1  0  0  0  0
  4  3  1  0  0  0  0
  5 10  1  1  0  0  0
  7  5  1  0  0  0  0
  8  9  1  0  0  0  0
  9  2  1  0  0  0  0
  9  7  1  0  0  0  0
 10 11  1  0  0  0  0
 11 30  1  1  0  0  0
 12 14  1  6  0  0  0
 12 11  1  0  0  0  0
 12 15  1  0  0  0  0
 13 14  1  0  0  0  0
 15 18  1  0  0  0  0
 18 16  1  6  0  0  0
 18 17  1  0  0  0  0
 19 18  1  0  0  0  0
 19 21  1  0  0  0  0
 21 23  1  0  0  0  0
 21 22  1  0  0  0  0
 22 20  2  0  0  0  0
 23 24  1  6  0  0  0
 23 22  1  0  0  0  0
 24 26  1  0  0  0  0
 26 25  1  1  0  0  0
 27 28  2  0  0  0  0
 28 26  1  0  0  0  0
 29 28  1  0  0  0  0
 30 31  1  0  0  0  0
 31 32  1  6  0  0  0
 34 35  2  0  0  0  0
 35 31  1  0  0  0  0
 35 33  1  0  0  0  0
 36  1  1  0  0  0  0
 37 36  1  0  0  0  0
 38 54  1  6  0  0  0
 38 40  1  0  0  0  0
 38 37  1  0  0  0  0
 39 40  1  0  0  0  0
 40 41  2  0  0  0  0
 41 43  1  0  0  0  0
 43 42  1  1  0  0  0
 45 44  1  6  0  0  0
 45 43  1  0  0  0  0
 45 46  1  0  0  0  0
 46 47  1  0  0  0  0
 47 48  1  0  0  0  0
 48 49  1  0  0  0  0
 49 50  1  1  0  0  0
 49 51  1  0  0  0  0
 52 51  1  0  0  0  0
 53 54  1  0  0  0  0
M  END
>  <MODEL>
8

>  <REMARK>
 VINA RESULT:      -4.5      2.570      7.513
  Name = 
  26 active torsions:
  status: ('A' for Active; 'I' for Inactive)
    1  A    between atoms: C_1  and  C_28
    2  A    between atoms: C_1  and  CA_52
    3  A    between atoms: C_2  and  C_36
    4  A    between atoms: C_2  and  C_39
    5  A    between atoms: C_2  and  O_53
    6  A    between atoms: C_5  and  N_15
    7  A    between atoms: C_5  and  C_54
    8  A    between atoms: C_6  and  C_13
    9  A    between atoms: C_6  and  C_38
   10  A    between atoms: C_8  and  C_12
   11  A    between atoms: C_11  and  C_27
   12  A    between atoms: C_11  and  O_30
   13  A    between atoms: C_11  and  C_34
   14  A    between atoms: C_12  and  O_30
   15  A    between atoms: C_16  and  C_39
   16  A    between atoms: C_16  and  C_44
   17  A    between atoms: O_17  and  C_36
   18  A    between atoms: O_17  and  C_54
   19  A    between atoms: C_19  and  N_21
   20  A    between atoms: C_19  and  C_47
   21  A    between atoms: N_21  and  C_38
   22  A    between atoms: C_22  and  C_28
   23  A    between atoms: C_23  and  O_53
   24  A    between atoms: O_33  and  C_36
   25  A    between atoms: C_47  and  C_48
   26  A    between atoms: C_48  and  C_50
                            x       y       z     vdW  Elec       q    Type
                         _______ _______ _______ _____ _____    ______ ____

>  <TORSDO>
F 26

$$$$
=
 OpenBabel11062419113D

 54 55  0  0  1  0  0  0  0  0999 V2000
  190.7000  172.7200  142.5980 C   0  0  1  0  0  0  0  0  0  0  0  0
  191.5900  170.4820  142.8190 F   0  0  0  0  0  0  0  0  0  0  0  0
  192.2560  173.2430  140.9560 C   0  0  0  0  0  2  0  0  0  0  0  0
  190.9330  172.8130  141.2000 O   0  0  0  0  0  0  0  0  0  0  0  0
  193.2450  172.2710  141.5900 C   0  0  2  0  0  3  0  0  0  0  0  0
  189.3150  172.1180  142.8040 C   0  0  0  0  0  1  0  0  0  0  0  0
  193.0630  172.2240  142.9940 O   0  0  0  0  0  0  0  0  0  0  0  0
  191.5650  171.7890  144.6400 F   0  0  0  0  0  0  0  0  0  0  0  0
  191.7480  171.7860  143.2670 C   0  0  0  0  0  0  0  0  0  0  0  0
  194.5760  172.5480  141.1810 O   0  0  0  0  0  0  0  0  0  0  0  0
  194.7270  173.9060  140.8260 C   0  0  2  0  0  3  0  0  0  0  0  0
  195.2450  174.0340  139.3890 C   0  0  1  0  0  3  0  0  0  0  0  0
  196.6470  175.2800  138.1970 C   0  0  0  0  0  1  0  0  0  0  0  0
  196.5310  174.5830  139.4030 O   0  0  0  0  0  0  0  0  0  0  0  0
  195.3030  172.7490  138.7990 O   0  0  0  0  0  0  0  0  0  0  0  0
  194.8390  172.5590  136.4030 C   0  0  0  0  0  1  0  0  0  0  0  0
  193.4540  173.6900  137.8960 F   0  0  0  0  0  0  0  0  0  0  0  0
  194.2860  172.5900  137.8220 C   0  0  2  0  0  0  0  0  0  0  0  0
  193.4490  171.3380  138.0730 C   0  0  0  0  0  2  0  0  0  0  0  0
  191.2820  169.6690  135.3070 O   0  0  0  0  0  0  0  0  0  0  0  0
  192.2810  171.3040  137.2050 N   0  0  0  0  0  0  0  0  0  0  0  0
  191.4420  170.5910  136.1420 C   0  0  0  0  0  0  0  0  0  0  0  0
  191.0140  171.7350  136.8080 C   0  0  2  0  0  3  0  0  0  0  0  0
  191.1010  172.8980  135.8290 C   0  0  0  0  0  2  0  0  0  0  0  0
  189.2550  174.2330  136.5200 O   0  0  0  0  0  1  0  0  0  0  0  0
  190.6460  174.2050  136.4540 C   0  0  2  0  0  3  0  0  0  0  0  0
  190.4720  175.7370  134.6490 O   0  0  0  0  0  0  0  0  0  0  0  0
  191.1370  175.3520  135.6410 C   0  0  0  0  0  0  0  0  0  0  0  0
  192.3330  176.0410  135.9990 N   0  0  0  0  0  1  0  0  0  0  0  0
  195.7050  174.5750  141.8000 C   0  0  0  0  0  2  0  0  0  0  0  0
  195.0430  175.5870  142.7340 C   0  0  1  0  0  3  0  0  0  0  0  0
  193.8080  175.9950  142.2200 O   0  0  0  0  0  1  0  0  0  0  0  0
  193.6640  174.8250  144.6520 F   0  0  0  0  0  0  0  0  0  0  0  0
  195.9290  174.9250  144.8810 N   0  0  0  0  0  2  0  0  0  0  0  0
  194.8960  175.0670  144.1360 C   0  0  0  0  0  0  0  0  0  0  0  0
  190.7190  174.1130  143.2530 C   0  0  0  0  0  2  0  0  0  0  0  0
  190.1960  175.0850  142.3910 O   0  0  0  0  0  0  0  0  0  0  0  0
  189.1460  175.6750  143.1000 C   0  0  1  0  0  3  0  0  0  0  0  0
  189.2370  178.0810  142.4370 O   0  0  0  0  0  1  0  0  0  0  0  0
  189.4640  177.1090  143.4040 C   0  0  0  0  0  0  0  0  0  0  0  0
  189.9700  177.4780  144.5820 C   0  0  0  0  0  3  0  0  0  0  0  0
  191.5840  176.7650  146.1610 O   0  0  0  0  0  1  0  0  0  0  0  0
  190.2870  176.5300  145.6970 C   0  0  1  0  0  3  0  0  0  0  0  0
  189.1960  177.9100  147.3530 O   0  0  0  0  0  1  0  0  0  0  0  0
  189.2730  176.6080  146.8430 C   0  0  1  0  0  3  0  0  0  0  0  0
  187.8850  176.0750  146.5120 C   0  0  0  0  0  2  0  0  0  0  0  0
  186.8380  176.9290  147.0310 N   0  0  0  0  0  2  0  0  0  0  0  0
  185.7250  176.8190  146.0990 C   0  0  0  0  0  2  0  0  0  0  0  0
  185.1470  178.1970  145.8140 C   0  0  2  0  0  3  0  0  0  0  0  0
  183.9750  178.3830  146.5540 O   0  0  0  0  0  1  0  0  0  0  0  0
  184.8360  178.2930  144.3300 C   0  0  0  0  0  2  0  0  0  0  0  0
  185.9530  178.9980  143.5960 C   0  0  0  0  0  1  0  0  0  0  0  0
  188.1410  175.1060  141.0080 O   0  0  0  0  0  1  0  0  0  0  0  0
  187.8590  175.5580  142.2970 C   0  0  0  0  0  2  0  0  0  0  0  0
  1  6  1  1  0  0  0
  1 36  1  0  0  0  0
  1  9  1  0  0  0  0
  2  9  1  0  0  0  0
  3  4  1  0  0  0  0
  3  5  1  0  0  0  0
  4  1  1  0  0  0  0
  5 10  1  1  0  0  0
  5  7  1  0  0  0  0
  7  9  1  0  0  0  0
  9  8  1  0  0  0  0
 11 10  1  0  0  0  0
 11 30  1  1  0  0  0
 12 15  1  1  0  0  0
 12 14  1  0  0  0  0
 12 11  1  0  0  0  0
 13 14  1  0  0  0  0
 18 16  1  6  0  0  0
 18 17  1  0  0  0  0
 18 19  1  0  0  0  0
 18 15  1  0  0  0  0
 20 22  2  0  0  0  0
 21 19  1  0  0  0  0
 22 23  1  0  0  0  0
 22 21  1  0  0  0  0
 23 24  1  6  0  0  0
 23 21  1  0  0  0  0
 24 26  1  0  0  0  0
 26 25  1  6  0  0  0
 27 28  2  0  0  0  0
 28 29  1  0  0  0  0
 28 26  1  0  0  0  0
 30 31  1  0  0  0  0
 31 32  1  6  0  0  0
 31 35  1  0  0  0  0
 35 33  1  0  0  0  0
 35 34  2  0  0  0  0
 37 38  1  0  0  0  0
 37 36  1  0  0  0  0
 38 54  1  6  0  0  0
 38 40  1  0  0  0  0
 39 40  1  0  0  0  0
 40 41  2  0  0  0  0
 41 43  1  0  0  0  0
 43 42  1  1  0  0  0
 43 45  1  0  0  0  0
 45 44  1  6  0  0  0
 46 45  1  0  0  0  0
 46 47  1  0  0  0  0
 48 47  1  0  0  0  0
 49 48  1  0  0  0  0
 49 50  1  1  0  0  0
 51 49  1  0  0  0  0
 52 51  1  0  0  0  0
 53 54  1  0  0  0  0
M  END
>  <MODEL>
9

>  <REMARK>
 VINA RESULT:      -4.5      2.633      4.770
  Name = 
  26 active torsions:
  status: ('A' for Active; 'I' for Inactive)
    1  A    between atoms: C_1  and  C_28
    2  A    between atoms: C_1  and  CA_52
    3  A    between atoms: C_2  and  C_36
    4  A    between atoms: C_2  and  C_39
    5  A    between atoms: C_2  and  O_53
    6  A    between atoms: C_5  and  N_15
    7  A    between atoms: C_5  and  C_54
    8  A    between atoms: C_6  and  C_13
    9  A    between atoms: C_6  and  C_38
   10  A    between atoms: C_8  and  C_12
   11  A    between atoms: C_11  and  C_27
   12  A    between atoms: C_11  and  O_30
   13  A    between atoms: C_11  and  C_34
   14  A    between atoms: C_12  and  O_30
   15  A    between atoms: C_16  and  C_39
   16  A    between atoms: C_16  and  C_44
   17  A    between atoms: O_17  and  C_36
   18  A    between atoms: O_17  and  C_54
   19  A    between atoms: C_19  and  N_21
   20  A    between atoms: C_19  and  C_47
   21  A    between atoms: N_21  and  C_38
   22  A    between atoms: C_22  and  C_28
   23  A    between atoms: C_23  and  O_53
   24  A    between atoms: O_33  and  C_36
   25  A    between atoms: C_47  and  C_48
   26  A    between atoms: C_48  and  C_50
                            x       y       z     vdW  Elec       q    Type
                         _______ _______ _______ _____ _____    ______ ____

>  <TORSDO>
F 26

$$$$
