=
 OpenBabel11072408433D

 36 41  0  0  1  0  0  0  0  0999 V2000
  190.5460  173.9500  144.9370 S   0  0  0  0  0  0  0  0  0  0  0  0
  193.9770  175.3360  144.9570 C   0  0  0  0  0  3  0  0  0  0  0  0
  189.8220  176.7720  146.8750 C   0  0  0  0  0  0  0  0  0  0  0  0
  192.6870  175.4650  145.2240 C   0  0  0  0  0  0  0  0  0  0  0  0
  188.5710  176.1280  144.8450 C   0  0  0  0  0  2  0  0  0  0  0  0
  189.8020  177.8910  147.3890 O   0  0  0  0  0  0  0  0  0  0  0  0
  188.9500  174.7100  144.4020 C   0  0  1  0  0  3  0  0  0  0  0  0
  191.4430  175.4030  145.5440 C   0  0  0  0  0  0  0  0  0  0  0  0
  191.1190  176.0270  146.8800 C   0  0  0  0  0  2  0  0  0  0  0  0
  188.5510  176.1410  146.3630 C   0  0  2  0  0  3  0  0  0  0  0  0
  196.3560  174.0370  145.0380 S   0  0  0  0  0  0  0  0  0  0  0  0
  194.7460  174.3100  145.6050 N   0  0  0  0  0  0  0  0  0  0  0  0
  197.2590  173.6320  146.1710 O   0  0  0  0  0  0  0  0  0  0  0  0
  193.6070  171.8770  143.3500 C   0  0  0  0  0  1  0  0  0  0  0  0
  196.9240  175.2130  144.2800 O   0  0  0  0  0  0  0  0  0  0  0  0
  194.1370  172.9860  145.6900 C   0  0  0  0  0  2  0  0  0  0  0  0
  195.8000  171.2670  144.6440 C   0  0  2  0  0  3  0  0  0  0  0  0
  194.6030  172.1870  144.4590 C   0  0  1  0  0  0  0  0  0  0  0  0
  196.1100  172.8120  142.6260 O   0  0  0  0  0  1  0  0  0  0  0  0
  196.0000  172.6480  144.0220 C   0  0  1  0  0  0  0  0  0  0  0  0
  195.8400  170.2780  143.6550 O   0  0  0  0  0  1  0  0  0  0  0  0
  189.8550  174.1520  140.6150 C   0  0  0  0  0  2  0  0  0  0  0  0
  187.1630  176.9790  140.0560 Cl  0  0  0  0  0  0  0  0  0  0  0  0
  188.6590  174.4520  142.9230 C   0  0  1  0  0  3  0  0  0  0  0  0
  187.9070  175.6360  140.9030 C   0  0  0  0  0  0  0  0  0  0  0  0
  188.0070  175.6450  142.2450 C   0  0  0  0  0  3  0  0  0  0  0  0
  188.4550  174.4860  140.1010 C   0  0  0  0  0  2  0  0  0  0  0  0
  189.8870  173.8870  142.1510 C   0  0  0  0  0  2  0  0  0  0  0  0
  187.2120  176.6320  146.9830 C   0  0  0  0  0  2  0  0  0  0  0  0
  185.5880  178.0640  145.8840 C   0  0  2  0  0  0  0  0  0  0  0  0
  184.7070  178.4830  147.0410 C   0  0  0  0  0  2  0  0  0  0  0  0
  184.7580  177.0360  146.6010 C   0  0  2  0  0  3  0  0  0  0  0  0
  186.0770  176.6840  146.0320 N   0  0  0  0  0  0  0  0  0  0  0  0
  184.9360  178.3100  144.5280 C   0  0  0  0  0  2  0  0  0  0  0  0
  186.3540  178.9750  142.7130 O   0  0  0  0  0  0  0  0  0  0  0  0
  185.6800  179.3250  143.6820 C   0  0  0  0  0  3  0  0  0  0  0  0
  1  8  1  0  0  0  0
  2  4  2  0  0  0  0
  2 12  1  0  0  0  0
  3  9  1  0  0  0  0
  3  6  2  0  0  0  0
  4  8  2  0  0  0  0
  5 10  1  0  0  0  0
  7  5  1  6  0  0  0
  7  1  1  0  0  0  0
  8  9  1  0  0  0  0
 10  3  1  0  0  0  0
 10 29  1  6  0  0  0
 11 12  1  0  0  0  0
 11 13  2  0  0  0  0
 12 16  1  0  0  0  0
 15 11  2  0  0  0  0
 17 21  1  6  0  0  0
 18 14  1  6  0  0  0
 18 17  1  0  0  0  0
 18 16  1  0  0  0  0
 20 19  1  6  0  0  0
 20 18  1  0  0  0  0
 20 17  1  0  0  0  0
 20 11  1  0  0  0  0
 22 28  1  0  0  0  0
 23 25  1  0  0  0  0
 24 28  1  6  0  0  0
 24  7  1  0  0  0  0
 25 26  2  0  0  0  0
 26 24  1  0  0  0  0
 27 22  1  0  0  0  0
 27 25  1  0  0  0  0
 30 34  1  6  0  0  0
 30 33  1  0  0  0  0
 30 32  1  0  0  0  0
 30 31  1  0  0  0  0
 32 31  1  1  0  0  0
 33 32  1  0  0  0  0
 33 29  1  0  0  0  0
 35 36  2  0  0  0  0
 36 34  1  0  0  0  0
M  END
>  <MODEL>
1

>  <REMARK>
 VINA RESULT:      -7.7      0.000      0.000
  Name = 
  6 active torsions:
  status: ('A' for Active; 'I' for Inactive)
    1  A    between atoms: N_6  and  C_9
    2  A    between atoms: C_7  and  C_23
    3  A    between atoms: C_8  and  C_12
    4  A    between atoms: C_12  and  C_25
    5  A    between atoms: C_21  and  C_34
    6  A    between atoms: C_21  and  N_36
                            x       y       z     vdW  Elec       q    Type
                         _______ _______ _______ _____ _____    ______ ____

>  <TORSDO>
F 6

$$$$
=
 OpenBabel11072408433D

 36 41  0  0  1  0  0  0  0  0999 V2000
  188.4330  174.9720  142.6840 S   0  0  0  0  0  0  0  0  0  0  0  0
  191.8240  174.3030  141.3630 C   0  0  0  0  0  3  0  0  0  0  0  0
  190.1870  176.2120  145.4470 C   0  0  0  0  0  0  0  0  0  0  0  0
  191.0370  174.8540  142.2720 C   0  0  0  0  0  0  0  0  0  0  0  0
  188.4260  177.4620  144.2480 C   0  0  0  0  0  2  0  0  0  0  0  0
  191.0210  176.7160  146.2000 O   0  0  0  0  0  0  0  0  0  0  0  0
  187.6700  176.5430  143.2820 C   0  0  1  0  0  3  0  0  0  0  0  0
  190.1680  175.2250  143.1450 C   0  0  0  0  0  0  0  0  0  0  0  0
  190.6320  175.0810  144.5740 C   0  0  0  0  0  2  0  0  0  0  0  0
  188.7450  176.6530  145.4920 C   0  0  2  0  0  3  0  0  0  0  0  0
  192.6410  172.2400  139.8020 S   0  0  0  0  0  0  0  0  0  0  0  0
  191.8410  172.8760  141.1980 N   0  0  0  0  0  0  0  0  0  0  0  0
  193.2890  170.9190  140.1160 O   0  0  0  0  0  0  0  0  0  0  0  0
  188.8470  172.9400  139.3730 C   0  0  0  0  0  1  0  0  0  0  0  0
  193.6310  173.2050  139.1960 O   0  0  0  0  0  0  0  0  0  0  0  0
  190.5530  172.1930  141.2480 C   0  0  0  0  0  2  0  0  0  0  0  0
  190.3010  170.7850  139.0640 C   0  0  2  0  0  3  0  0  0  0  0  0
  190.0320  172.0870  139.8030 C   0  0  1  0  0  0  0  0  0  0  0  0
  191.0370  172.8130  137.6860 O   0  0  0  0  0  1  0  0  0  0  0  0
  191.2060  171.9910  138.8200 C   0  0  1  0  0  0  0  0  0  0  0  0
  189.4170  170.6150  137.9930 O   0  0  0  0  0  1  0  0  0  0  0  0
  184.6000  177.8060  141.1720 C   0  0  0  0  0  2  0  0  0  0  0  0
  186.7400  176.4550  138.1490 Cl  0  0  0  0  0  0  0  0  0  0  0  0
  186.9730  177.3080  142.1570 C   0  0  1  0  0  3  0  0  0  0  0  0
  186.4950  177.1230  139.7510 C   0  0  0  0  0  0  0  0  0  0  0  0
  187.2280  176.6890  140.7920 C   0  0  0  0  0  3  0  0  0  0  0  0
  185.4330  178.1730  139.9450 C   0  0  0  0  0  2  0  0  0  0  0  0
  185.4690  177.5820  142.4470 C   0  0  0  0  0  2  0  0  0  0  0  0
  188.2360  177.2870  146.8190 C   0  0  0  0  0  2  0  0  0  0  0  0
  185.9950  178.2100  146.6750 C   0  0  2  0  0  0  0  0  0  0  0  0
  186.0600  179.3460  147.6720 C   0  0  0  0  0  2  0  0  0  0  0  0
  186.1850  177.9110  148.1360 C   0  0  2  0  0  3  0  0  0  0  0  0
  186.8000  177.0530  147.0990 N   0  0  0  0  0  0  0  0  0  0  0  0
  184.5640  177.8240  146.3140 C   0  0  0  0  0  2  0  0  0  0  0  0
  184.4670  179.6150  144.7230 O   0  0  0  0  0  0  0  0  0  0  0  0
  183.8480  178.8790  145.4930 C   0  0  0  0  0  3  0  0  0  0  0  0
  1  8  1  0  0  0  0
  1  7  1  0  0  0  0
  2  4  2  0  0  0  0
  3 10  1  0  0  0  0
  3  6  2  0  0  0  0
  4  8  2  0  0  0  0
  5 10  1  0  0  0  0
  7  5  1  6  0  0  0
  8  9  1  0  0  0  0
  9  3  1  0  0  0  0
 10 29  1  1  0  0  0
 11 13  2  0  0  0  0
 11 12  1  0  0  0  0
 12 16  1  0  0  0  0
 12  2  1  0  0  0  0
 15 11  2  0  0  0  0
 17 21  1  6  0  0  0
 17 18  1  0  0  0  0
 18 14  1  6  0  0  0
 18 16  1  0  0  0  0
 20 19  1  6  0  0  0
 20 17  1  0  0  0  0
 20 11  1  0  0  0  0
 20 18  1  0  0  0  0
 22 28  1  0  0  0  0
 23 25  1  0  0  0  0
 24 26  1  6  0  0  0
 24 28  1  0  0  0  0
 24  7  1  0  0  0  0
 25 27  1  0  0  0  0
 25 26  2  0  0  0  0
 27 22  1  0  0  0  0
 29 33  1  0  0  0  0
 30 34  1  6  0  0  0
 30 33  1  0  0  0  0
 30 31  1  0  0  0  0
 30 32  1  0  0  0  0
 32 31  1  1  0  0  0
 33 32  1  0  0  0  0
 35 36  2  0  0  0  0
 36 34  1  0  0  0  0
M  END
>  <MODEL>
2

>  <REMARK>
 VINA RESULT:      -7.3      3.335      4.564
  Name = 
  6 active torsions:
  status: ('A' for Active; 'I' for Inactive)
    1  A    between atoms: N_6  and  C_9
    2  A    between atoms: C_7  and  C_23
    3  A    between atoms: C_8  and  C_12
    4  A    between atoms: C_12  and  C_25
    5  A    between atoms: C_21  and  C_34
    6  A    between atoms: C_21  and  N_36
                            x       y       z     vdW  Elec       q    Type
                         _______ _______ _______ _____ _____    ______ ____

>  <TORSDO>
F 6

$$$$
=
 OpenBabel11072408433D

 36 41  0  0  1  0  0  0  0  0999 V2000
  190.9910  174.0630  144.5000 S   0  0  0  0  0  0  0  0  0  0  0  0
  194.3050  175.6970  144.6920 C   0  0  0  0  0  3  0  0  0  0  0  0
  190.0280  176.6600  146.6380 C   0  0  0  0  0  0  0  0  0  0  0  0
  193.0060  175.7070  144.9440 C   0  0  0  0  0  0  0  0  0  0  0  0
  188.8570  176.0860  144.5400 C   0  0  0  0  0  2  0  0  0  0  0  0
  189.9170  177.7310  147.2370 O   0  0  0  0  0  0  0  0  0  0  0  0
  189.3480  174.7410  143.9960 C   0  0  1  0  0  3  0  0  0  0  0  0
  191.7660  175.5270  145.2350 C   0  0  0  0  0  0  0  0  0  0  0  0
  191.3790  176.0170  146.6090 C   0  0  0  0  0  2  0  0  0  0  0  0
  188.8160  175.9780  146.0540 C   0  0  2  0  0  3  0  0  0  0  0  0
  196.7070  174.4430  144.5780 S   0  0  0  0  0  0  0  0  0  0  0  0
  195.1420  174.6840  145.2730 N   0  0  0  0  0  0  0  0  0  0  0  0
  197.7040  174.0520  145.6350 O   0  0  0  0  0  0  0  0  0  0  0  0
  193.8730  172.2370  143.1050 C   0  0  0  0  0  1  0  0  0  0  0  0
  197.1910  175.6320  143.7820 O   0  0  0  0  0  0  0  0  0  0  0  0
  194.5670  173.3490  145.4000 C   0  0  0  0  0  2  0  0  0  0  0  0
  196.1730  171.6650  144.2170 C   0  0  2  0  0  3  0  0  0  0  0  0
  194.9480  172.5620  144.1320 C   0  0  1  0  0  0  0  0  0  0  0  0
  196.2930  173.2200  142.1880 O   0  0  0  0  0  1  0  0  0  0  0  0
  196.2980  173.0500  143.5880 C   0  0  1  0  0  0  0  0  0  0  0  0
  196.1530  170.6790  143.2250 O   0  0  0  0  0  1  0  0  0  0  0  0
  188.0140  172.9490  140.7580 C   0  0  0  0  0  2  0  0  0  0  0  0
  191.6960  173.5640  139.4870 Cl  0  0  0  0  0  0  0  0  0  0  0  0
  189.0970  174.5790  142.4960 C   0  0  1  0  0  3  0  0  0  0  0  0
  190.2640  173.9060  140.4390 C   0  0  0  0  0  0  0  0  0  0  0  0
  190.3730  174.2930  141.7230 C   0  0  0  0  0  3  0  0  0  0  0  0
  188.9110  173.7340  139.8020 C   0  0  0  0  0  2  0  0  0  0  0  0
  187.9380  173.5900  142.1770 C   0  0  0  0  0  2  0  0  0  0  0  0
  187.4350  176.3160  146.6860 C   0  0  0  0  0  2  0  0  0  0  0  0
  186.0530  178.1500  145.8970 C   0  0  2  0  0  0  0  0  0  0  0  0
  185.1130  178.3570  147.0650 C   0  0  0  0  0  2  0  0  0  0  0  0
  185.0720  177.0720  146.2680 C   0  0  2  0  0  3  0  0  0  0  0  0
  186.4000  176.7310  145.7110 N   0  0  0  0  0  0  0  0  0  0  0  0
  185.5490  178.8000  144.6130 C   0  0  0  0  0  2  0  0  0  0  0  0
  186.2290  177.9150  142.4910 O   0  0  0  0  0  0  0  0  0  0  0  0
  186.5050  178.6410  143.4470 C   0  0  0  0  0  3  0  0  0  0  0  0
  1  8  1  0  0  0  0
  2  4  2  0  0  0  0
  2 12  1  0  0  0  0
  3  6  2  0  0  0  0
  4  8  2  0  0  0  0
  5 10  1  0  0  0  0
  7  1  1  0  0  0  0
  7  5  1  6  0  0  0
  8  9  1  0  0  0  0
  9  3  1  0  0  0  0
 10  3  1  0  0  0  0
 10 29  1  1  0  0  0
 11 12  1  0  0  0  0
 11 13  2  0  0  0  0
 12 16  1  0  0  0  0
 15 11  2  0  0  0  0
 17 21  1  6  0  0  0
 18 14  1  6  0  0  0
 18 17  1  0  0  0  0
 18 16  1  0  0  0  0
 20 19  1  6  0  0  0
 20 18  1  0  0  0  0
 20 17  1  0  0  0  0
 20 11  1  0  0  0  0
 22 28  1  0  0  0  0
 23 25  1  0  0  0  0
 24 26  1  6  0  0  0
 24  7  1  0  0  0  0
 25 26  2  0  0  0  0
 27 25  1  0  0  0  0
 27 22  1  0  0  0  0
 28 24  1  0  0  0  0
 30 34  1  6  0  0  0
 30 32  1  0  0  0  0
 30 31  1  0  0  0  0
 32 31  1  1  0  0  0
 33 30  1  0  0  0  0
 33 32  1  0  0  0  0
 33 29  1  0  0  0  0
 35 36  2  0  0  0  0
 36 34  1  0  0  0  0
M  END
>  <MODEL>
3

>  <REMARK>
 VINA RESULT:      -7.3      1.215      1.395
  Name = 
  6 active torsions:
  status: ('A' for Active; 'I' for Inactive)
    1  A    between atoms: N_6  and  C_9
    2  A    between atoms: C_7  and  C_23
    3  A    between atoms: C_8  and  C_12
    4  A    between atoms: C_12  and  C_25
    5  A    between atoms: C_21  and  C_34
    6  A    between atoms: C_21  and  N_36
                            x       y       z     vdW  Elec       q    Type
                         _______ _______ _______ _____ _____    ______ ____

>  <TORSDO>
F 6

$$$$
=
 OpenBabel11072408433D

 36 41  0  0  1  0  0  0  0  0999 V2000
  190.7840  173.8050  143.9290 S   0  0  0  0  0  0  0  0  0  0  0  0
  194.3790  174.6730  144.0470 C   0  0  0  0  0  3  0  0  0  0  0  0
  190.3460  177.2550  144.3200 C   0  0  0  0  0  0  0  0  0  0  0  0
  193.1120  175.0470  143.9740 C   0  0  0  0  0  0  0  0  0  0  0  0
  189.2750  175.9150  142.5430 C   0  0  0  0  0  2  0  0  0  0  0  0
  190.4670  178.4810  144.3020 O   0  0  0  0  0  0  0  0  0  0  0  0
  189.4400  174.4170  142.8190 C   0  0  1  0  0  3  0  0  0  0  0  0
  191.8460  175.2700  144.0360 C   0  0  0  0  0  0  0  0  0  0  0  0
  191.4720  176.4540  144.8930 C   0  0  0  0  0  2  0  0  0  0  0  0
  189.0590  176.6040  143.8780 C   0  0  2  0  0  3  0  0  0  0  0  0
  196.5130  173.4780  145.2190 S   0  0  0  0  0  0  0  0  0  0  0  0
  194.8540  173.9660  145.2030 N   0  0  0  0  0  0  0  0  0  0  0  0
  197.0700  173.5290  146.6160 O   0  0  0  0  0  0  0  0  0  0  0  0
  194.0230  170.8670  143.7870 C   0  0  0  0  0  1  0  0  0  0  0  0
  197.3710  174.2670  144.2590 O   0  0  0  0  0  0  0  0  0  0  0  0
  194.1010  172.7830  145.6060 C   0  0  0  0  0  2  0  0  0  0  0  0
  195.7650  170.7760  145.7390 C   0  0  2  0  0  3  0  0  0  0  0  0
  194.7550  171.5680  144.9230 C   0  0  1  0  0  0  0  0  0  0  0  0
  196.7140  171.4250  143.4530 O   0  0  0  0  0  1  0  0  0  0  0  0
  196.2580  171.8100  144.7300 C   0  0  1  0  0  0  0  0  0  0  0  0
  195.9300  169.4830  145.2310 O   0  0  0  0  0  1  0  0  0  0  0  0
  190.7200  172.4820  139.6430 C   0  0  0  0  0  2  0  0  0  0  0  0
  187.9030  174.5670  137.8350 Cl  0  0  0  0  0  0  0  0  0  0  0  0
  189.3020  173.5610  141.5600 C   0  0  1  0  0  3  0  0  0  0  0  0
  188.6570  173.7570  139.1950 C   0  0  0  0  0  0  0  0  0  0  0  0
  188.6340  174.3120  140.4200 C   0  0  0  0  0  3  0  0  0  0  0  0
  189.3520  172.4420  138.9610 C   0  0  0  0  0  2  0  0  0  0  0  0
  190.6300  172.8590  141.1530 C   0  0  0  0  0  2  0  0  0  0  0  0
  187.7640  177.4620  143.9560 C   0  0  0  0  0  2  0  0  0  0  0  0
  186.3710  177.8090  145.9150 C   0  0  2  0  0  0  0  0  0  0  0  0
  187.3850  177.7400  147.0360 C   0  0  0  0  0  2  0  0  0  0  0  0
  187.0930  176.5190  146.1910 C   0  0  2  0  0  3  0  0  0  0  0  0
  186.6990  176.8900  144.8130 N   0  0  0  0  0  0  0  0  0  0  0  0
  184.9370  177.6420  146.4070 C   0  0  0  0  0  2  0  0  0  0  0  0
  184.2490  179.3160  144.8340 O   0  0  0  0  0  0  0  0  0  0  0  0
  183.9930  178.7000  145.8700 C   0  0  0  0  0  3  0  0  0  0  0  0
  1  8  1  0  0  0  0
  2 12  1  0  0  0  0
  3  9  1  0  0  0  0
  4  8  2  0  0  0  0
  4  2  2  0  0  0  0
  5 10  1  0  0  0  0
  6  3  2  0  0  0  0
  7  5  1  6  0  0  0
  7  1  1  0  0  0  0
  8  9  1  0  0  0  0
 10 29  1  6  0  0  0
 10  3  1  0  0  0  0
 11 13  2  0  0  0  0
 12 11  1  0  0  0  0
 12 16  1  0  0  0  0
 15 11  2  0  0  0  0
 17 21  1  6  0  0  0
 18 14  1  6  0  0  0
 18 16  1  0  0  0  0
 18 17  1  0  0  0  0
 20 19  1  6  0  0  0
 20 18  1  0  0  0  0
 20 11  1  0  0  0  0
 20 17  1  0  0  0  0
 22 28  1  0  0  0  0
 23 25  1  0  0  0  0
 24 26  1  6  0  0  0
 24  7  1  0  0  0  0
 25 26  2  0  0  0  0
 27 25  1  0  0  0  0
 27 22  1  0  0  0  0
 28 24  1  0  0  0  0
 29 33  1  0  0  0  0
 30 32  1  0  0  0  0
 30 34  1  1  0  0  0
 30 31  1  0  0  0  0
 32 31  1  6  0  0  0
 33 30  1  0  0  0  0
 33 32  1  0  0  0  0
 35 36  2  0  0  0  0
 36 34  1  0  0  0  0
M  END
>  <MODEL>
4

>  <REMARK>
 VINA RESULT:      -7.2      1.563      2.002
  Name = 
  6 active torsions:
  status: ('A' for Active; 'I' for Inactive)
    1  A    between atoms: N_6  and  C_9
    2  A    between atoms: C_7  and  C_23
    3  A    between atoms: C_8  and  C_12
    4  A    between atoms: C_12  and  C_25
    5  A    between atoms: C_21  and  C_34
    6  A    between atoms: C_21  and  N_36
                            x       y       z     vdW  Elec       q    Type
                         _______ _______ _______ _____ _____    ______ ____

>  <TORSDO>
F 6

$$$$
=
 OpenBabel11072408433D

 36 41  0  0  1  0  0  0  0  0999 V2000
  190.6240  175.7000  142.4160 S   0  0  0  0  0  0  0  0  0  0  0  0
  189.8410  172.0870  142.2670 C   0  0  0  0  0  3  0  0  0  0  0  0
  187.1440  176.0420  142.5680 C   0  0  0  0  0  0  0  0  0  0  0  0
  189.4500  173.3380  142.4530 C   0  0  0  0  0  0  0  0  0  0  0  0
  188.7100  177.0830  144.1700 C   0  0  0  0  0  2  0  0  0  0  0  0
  185.9390  175.8810  142.7640 O   0  0  0  0  0  0  0  0  0  0  0  0
  190.1530  176.9780  143.6640 C   0  0  1  0  0  3  0  0  0  0  0  0
  189.1880  174.5970  142.4820 C   0  0  0  0  0  0  0  0  0  0  0  0
  187.8780  174.9670  141.8300 C   0  0  0  0  0  2  0  0  0  0  0  0
  187.8210  177.3310  142.9640 C   0  0  2  0  0  3  0  0  0  0  0  0
  191.1730  170.1500  140.9140 S   0  0  0  0  0  0  0  0  0  0  0  0
  190.3770  171.6830  140.9970 N   0  0  0  0  0  0  0  0  0  0  0  0
  190.9490  169.5050  139.5740 O   0  0  0  0  0  0  0  0  0  0  0  0
  193.4700  173.1790  141.7010 C   0  0  0  0  0  1  0  0  0  0  0  0
  190.7850  169.2200  142.0400 O   0  0  0  0  0  0  0  0  0  0  0  0
  191.2770  172.6210  140.3350 C   0  0  0  0  0  2  0  0  0  0  0  0
  193.5060  171.3650  139.8130 C   0  0  2  0  0  3  0  0  0  0  0  0
  192.7120  172.2560  140.7570 C   0  0  1  0  0  0  0  0  0  0  0  0
  193.5420  170.4580  142.2060 O   0  0  0  0  0  1  0  0  0  0  0  0
  192.8200  170.7500  141.0300 C   0  0  1  0  0  0  0  0  0  0  0  0
  194.8820  171.4830  140.0370 O   0  0  0  0  0  1  0  0  0  0  0  0
  193.5930  176.3090  145.4500 C   0  0  0  0  0  2  0  0  0  0  0  0
  191.2750  175.2920  148.4730 Cl  0  0  0  0  0  0  0  0  0  0  0  0
  191.1860  177.0920  144.7850 C   0  0  1  0  0  3  0  0  0  0  0  0
  191.6860  176.1590  147.0050 C   0  0  0  0  0  0  0  0  0  0  0  0
  190.7720  176.3300  146.0330 C   0  0  0  0  0  3  0  0  0  0  0  0
  193.0870  176.6850  146.8420 C   0  0  0  0  0  2  0  0  0  0  0  0
  192.6350  176.7770  144.3120 C   0  0  0  0  0  2  0  0  0  0  0  0
  186.9280  178.6000  143.0740 C   0  0  0  0  0  2  0  0  0  0  0  0
  185.1060  178.2560  144.6420 C   0  0  2  0  0  0  0  0  0  0  0  0
  183.9920  179.0610  144.0080 C   0  0  0  0  0  2  0  0  0  0  0  0
  185.2330  179.7500  144.5340 C   0  0  2  0  0  3  0  0  0  0  0  0
  186.4250  178.8790  144.4390 N   0  0  0  0  0  0  0  0  0  0  0  0
  184.8350  177.9270  146.1070 C   0  0  0  0  0  2  0  0  0  0  0  0
  186.6700  176.9680  147.3160 O   0  0  0  0  0  0  0  0  0  0  0  0
  185.6700  176.7720  146.6240 C   0  0  0  0  0  3  0  0  0  0  0  0
  1  8  1  0  0  0  0
  1  7  1  0  0  0  0
  2  4  2  0  0  0  0
  3  6  2  0  0  0  0
  3 10  1  0  0  0  0
  4  8  2  0  0  0  0
  7  5  1  1  0  0  0
  7 24  1  0  0  0  0
  9  8  1  0  0  0  0
  9  3  1  0  0  0  0
 10 29  1  1  0  0  0
 10  5  1  0  0  0  0
 11 12  1  0  0  0  0
 11 20  1  0  0  0  0
 11 15  2  0  0  0  0
 12  2  1  0  0  0  0
 13 11  2  0  0  0  0
 16 18  1  0  0  0  0
 16 12  1  0  0  0  0
 17 21  1  1  0  0  0
 17 18  1  0  0  0  0
 17 20  1  0  0  0  0
 18 20  1  0  0  0  0
 18 14  1  1  0  0  0
 20 19  1  1  0  0  0
 22 27  1  0  0  0  0
 24 28  1  6  0  0  0
 24 26  1  0  0  0  0
 25 23  1  0  0  0  0
 26 25  2  0  0  0  0
 27 25  1  0  0  0  0
 28 22  1  0  0  0  0
 29 33  1  0  0  0  0
 30 34  1  1  0  0  0
 31 30  1  0  0  0  0
 32 31  1  6  0  0  0
 32 30  1  0  0  0  0
 33 32  1  0  0  0  0
 33 30  1  0  0  0  0
 34 36  1  0  0  0  0
 36 35  2  0  0  0  0
M  END
>  <MODEL>
5

>  <REMARK>
 VINA RESULT:      -7.1      3.334      5.376
  Name = 
  6 active torsions:
  status: ('A' for Active; 'I' for Inactive)
    1  A    between atoms: N_6  and  C_9
    2  A    between atoms: C_7  and  C_23
    3  A    between atoms: C_8  and  C_12
    4  A    between atoms: C_12  and  C_25
    5  A    between atoms: C_21  and  C_34
    6  A    between atoms: C_21  and  N_36
                            x       y       z     vdW  Elec       q    Type
                         _______ _______ _______ _____ _____    ______ ____

>  <TORSDO>
F 6

$$$$
=
 OpenBabel11072408433D

 36 41  0  0  1  0  0  0  0  0999 V2000
  189.3000  174.8280  144.4250 S   0  0  0  0  0  0  0  0  0  0  0  0
  187.3640  176.8190  141.9790 C   0  0  0  0  0  3  0  0  0  0  0  0
  189.9580  172.7980  141.6510 C   0  0  0  0  0  0  0  0  0  0  0  0
  188.2140  175.8400  142.2430 C   0  0  0  0  0  0  0  0  0  0  0  0
  191.7000  173.7060  143.1480 C   0  0  0  0  0  2  0  0  0  0  0  0
  190.1610  172.3570  140.5190 O   0  0  0  0  0  0  0  0  0  0  0  0
  191.0720  174.3060  144.4100 C   0  0  1  0  0  3  0  0  0  0  0  0
  188.9240  174.8480  142.6520 C   0  0  0  0  0  0  0  0  0  0  0  0
  188.6970  173.5710  141.8800 C   0  0  0  0  0  2  0  0  0  0  0  0
  190.8990  172.4690  142.7830 C   0  0  2  0  0  3  0  0  0  0  0  0
  185.0150  178.1480  142.2510 S   0  0  0  0  0  0  0  0  0  0  0  0
  186.0240  176.7640  142.4930 N   0  0  0  0  0  0  0  0  0  0  0  0
  183.5820  177.7350  142.0560 O   0  0  0  0  0  0  0  0  0  0  0  0
  187.0290  178.1160  145.5690 C   0  0  0  0  0  1  0  0  0  0  0  0
  185.4880  179.0340  141.1230 O   0  0  0  0  0  0  0  0  0  0  0  0
  185.8730  176.4200  143.9040 C   0  0  0  0  0  2  0  0  0  0  0  0
  184.4710  178.3020  145.0460 C   0  0  2  0  0  3  0  0  0  0  0  0
  185.8400  177.7390  144.6970 C   0  0  1  0  0  0  0  0  0  0  0  0
  185.9500  180.0680  143.9300 O   0  0  0  0  0  1  0  0  0  0  0  0
  185.2290  178.8590  143.8430 C   0  0  1  0  0  0  0  0  0  0  0  0
  184.5450  179.1930  146.1230 O   0  0  0  0  0  1  0  0  0  0  0  0
  194.2700  175.5420  146.3380 C   0  0  0  0  0  2  0  0  0  0  0  0
  191.5990  177.1400  148.7600 Cl  0  0  0  0  0  0  0  0  0  0  0  0
  191.9770  175.3310  145.0950 C   0  0  1  0  0  3  0  0  0  0  0  0
  192.1980  176.5430  147.2230 C   0  0  0  0  0  0  0  0  0  0  0  0
  191.4030  175.8190  146.4150 C   0  0  0  0  0  3  0  0  0  0  0  0
  193.6240  176.8330  146.8380 C   0  0  0  0  0  2  0  0  0  0  0  0
  193.4590  174.8660  145.1910 C   0  0  0  0  0  2  0  0  0  0  0  0
  191.7450  171.1710  142.6510 C   0  0  0  0  0  2  0  0  0  0  0  0
  193.7540  170.7520  143.9500 C   0  0  2  0  0  0  0  0  0  0  0  0
  194.4060  169.6350  143.1650 C   0  0  0  0  0  2  0  0  0  0  0  0
  193.0790  169.4120  143.8580 C   0  0  2  0  0  3  0  0  0  0  0  0
  192.2850  170.6580  143.9320 N   0  0  0  0  0  0  0  0  0  0  0  0
  194.3130  170.8840  145.3630 C   0  0  0  0  0  2  0  0  0  0  0  0
  196.6000  171.3370  145.9240 O   0  0  0  0  0  0  0  0  0  0  0  0
  195.5500  171.7580  145.4370 C   0  0  0  0  0  3  0  0  0  0  0  0
  2  4  2  0  0  0  0
  2 12  1  0  0  0  0
  3  9  1  0  0  0  0
  3 10  1  0  0  0  0
  4  8  2  0  0  0  0
  6  3  2  0  0  0  0
  7  5  1  6  0  0  0
  7  1  1  0  0  0  0
  7 24  1  0  0  0  0
  8  1  1  0  0  0  0
  9  8  1  0  0  0  0
 10 29  1  6  0  0  0
 10  5  1  0  0  0  0
 11 12  1  0  0  0  0
 11 20  1  0  0  0  0
 12 16  1  0  0  0  0
 13 11  2  0  0  0  0
 15 11  2  0  0  0  0
 16 18  1  0  0  0  0
 17 21  1  1  0  0  0
 18 17  1  0  0  0  0
 18 14  1  1  0  0  0
 20 19  1  1  0  0  0
 20 18  1  0  0  0  0
 20 17  1  0  0  0  0
 22 27  1  0  0  0  0
 24 28  1  1  0  0  0
 24 26  1  0  0  0  0
 25 23  1  0  0  0  0
 26 25  2  0  0  0  0
 27 25  1  0  0  0  0
 28 22  1  0  0  0  0
 29 33  1  0  0  0  0
 30 34  1  1  0  0  0
 31 30  1  0  0  0  0
 32 31  1  6  0  0  0
 32 33  1  0  0  0  0
 32 30  1  0  0  0  0
 33 30  1  0  0  0  0
 34 36  1  0  0  0  0
 36 35  2  0  0  0  0
M  END
>  <MODEL>
6

>  <REMARK>
 VINA RESULT:      -7.1      2.990      9.635
  Name = 
  6 active torsions:
  status: ('A' for Active; 'I' for Inactive)
    1  A    between atoms: N_6  and  C_9
    2  A    between atoms: C_7  and  C_23
    3  A    between atoms: C_8  and  C_12
    4  A    between atoms: C_12  and  C_25
    5  A    between atoms: C_21  and  C_34
    6  A    between atoms: C_21  and  N_36
                            x       y       z     vdW  Elec       q    Type
                         _______ _______ _______ _____ _____    ______ ____

>  <TORSDO>
F 6

$$$$
=
 OpenBabel11072408433D

 36 41  0  0  1  0  0  0  0  0999 V2000
  191.0350  173.6090  144.2520 S   0  0  0  0  0  0  0  0  0  0  0  0
  194.3540  175.1830  143.8070 C   0  0  0  0  0  3  0  0  0  0  0  0
  190.0440  176.8620  145.0750 C   0  0  0  0  0  0  0  0  0  0  0  0
  193.0500  175.2940  144.0040 C   0  0  0  0  0  0  0  0  0  0  0  0
  188.9130  175.4530  143.3910 C   0  0  0  0  0  2  0  0  0  0  0  0
  189.9260  178.0850  145.1640 O   0  0  0  0  0  0  0  0  0  0  0  0
  189.4070  174.0050  143.4750 C   0  0  1  0  0  3  0  0  0  0  0  0
  191.8030  175.2490  144.3180 C   0  0  0  0  0  0  0  0  0  0  0  0
  191.3910  176.2710  145.3480 C   0  0  0  0  0  2  0  0  0  0  0  0
  188.8400  175.9930  144.8080 C   0  0  2  0  0  3  0  0  0  0  0  0
  196.7690  174.0500  144.2980 S   0  0  0  0  0  0  0  0  0  0  0  0
  195.1730  174.5120  144.7780 N   0  0  0  0  0  0  0  0  0  0  0  0
  197.7220  174.1440  145.4580 O   0  0  0  0  0  0  0  0  0  0  0  0
  194.0190  171.3670  143.7420 C   0  0  0  0  0  1  0  0  0  0  0  0
  197.2770  174.8270  143.1080 O   0  0  0  0  0  0  0  0  0  0  0  0
  194.6030  173.3280  145.4140 C   0  0  0  0  0  2  0  0  0  0  0  0
  196.2730  171.3500  145.0740 C   0  0  2  0  0  3  0  0  0  0  0  0
  195.0450  172.1060  144.5880 C   0  0  1  0  0  0  0  0  0  0  0  0
  196.4680  171.9560  142.5940 O   0  0  0  0  0  1  0  0  0  0  0  0
  196.4130  172.3660  143.9420 C   0  0  1  0  0  0  0  0  0  0  0  0
  196.3040  170.0470  144.5650 O   0  0  0  0  0  1  0  0  0  0  0  0
  190.4910  172.0450  140.2410 C   0  0  0  0  0  2  0  0  0  0  0  0
  188.0120  174.5540  138.4770 Cl  0  0  0  0  0  0  0  0  0  0  0  0
  189.1860  173.2260  142.1780 C   0  0  1  0  0  3  0  0  0  0  0  0
  188.6240  173.5980  139.8130 C   0  0  0  0  0  0  0  0  0  0  0  0
  188.6470  174.1020  141.0600 C   0  0  0  0  0  3  0  0  0  0  0  0
  189.1450  172.2130  139.5360 C   0  0  0  0  0  2  0  0  0  0  0  0
  190.4190  172.3710  141.7640 C   0  0  0  0  0  2  0  0  0  0  0  0
  187.4490  176.5610  145.2090 C   0  0  0  0  0  2  0  0  0  0  0  0
  186.6130  178.3400  143.7840 C   0  0  2  0  0  0  0  0  0  0  0  0
  185.7540  179.1330  144.7440 C   0  0  0  0  0  2  0  0  0  0  0  0
  185.3770  177.7160  144.3700 C   0  0  2  0  0  3  0  0  0  0  0  0
  186.5700  176.8960  144.0650 N   0  0  0  0  0  0  0  0  0  0  0  0
  186.3110  178.6600  142.3230 C   0  0  0  0  0  2  0  0  0  0  0  0
  186.7860  177.0300  140.6300 O   0  0  0  0  0  0  0  0  0  0  0  0
  187.2180  177.9300  141.3520 C   0  0  0  0  0  3  0  0  0  0  0  0
  1  8  1  0  0  0  0
  2  4  2  0  0  0  0
  2 12  1  0  0  0  0
  3  6  2  0  0  0  0
  3  9  1  0  0  0  0
  4  8  2  0  0  0  0
  5 10  1  0  0  0  0
  7  5  1  6  0  0  0
  7  1  1  0  0  0  0
  8  9  1  0  0  0  0
 10  3  1  0  0  0  0
 10 29  1  6  0  0  0
 11 12  1  0  0  0  0
 11 13  2  0  0  0  0
 12 16  1  0  0  0  0
 15 11  2  0  0  0  0
 17 21  1  6  0  0  0
 18 14  1  6  0  0  0
 18 17  1  0  0  0  0
 18 16  1  0  0  0  0
 20 19  1  6  0  0  0
 20 11  1  0  0  0  0
 20 18  1  0  0  0  0
 20 17  1  0  0  0  0
 22 28  1  0  0  0  0
 23 25  1  0  0  0  0
 24 26  1  6  0  0  0
 24  7  1  0  0  0  0
 25 26  2  0  0  0  0
 27 25  1  0  0  0  0
 27 22  1  0  0  0  0
 28 24  1  0  0  0  0
 30 34  1  6  0  0  0
 30 33  1  0  0  0  0
 30 32  1  0  0  0  0
 30 31  1  0  0  0  0
 32 31  1  1  0  0  0
 33 32  1  0  0  0  0
 33 29  1  0  0  0  0
 35 36  2  0  0  0  0
 36 34  1  0  0  0  0
M  END
>  <MODEL>
7

>  <REMARK>
 VINA RESULT:      -7.1      1.482      1.802
  Name = 
  6 active torsions:
  status: ('A' for Active; 'I' for Inactive)
    1  A    between atoms: N_6  and  C_9
    2  A    between atoms: C_7  and  C_23
    3  A    between atoms: C_8  and  C_12
    4  A    between atoms: C_12  and  C_25
    5  A    between atoms: C_21  and  C_34
    6  A    between atoms: C_21  and  N_36
                            x       y       z     vdW  Elec       q    Type
                         _______ _______ _______ _____ _____    ______ ____

>  <TORSDO>
F 6

$$$$
=
 OpenBabel11072408433D

 36 41  0  0  1  0  0  0  0  0999 V2000
  190.3140  176.2240  142.8070 S   0  0  0  0  0  0  0  0  0  0  0  0
  189.6000  173.1030  140.9530 C   0  0  0  0  0  3  0  0  0  0  0  0
  186.9390  176.9010  142.1760 C   0  0  0  0  0  0  0  0  0  0  0  0
  189.1750  174.2100  141.5390 C   0  0  0  0  0  0  0  0  0  0  0  0
  187.9790  177.0070  144.4140 C   0  0  0  0  0  2  0  0  0  0  0  0
  185.7280  176.8250  141.9640 O   0  0  0  0  0  0  0  0  0  0  0  0
  189.5060  176.9380  144.3070 C   0  0  1  0  0  3  0  0  0  0  0  0
  188.9180  175.3730  142.0260 C   0  0  0  0  0  0  0  0  0  0  0  0
  187.8530  176.1330  141.2740 C   0  0  0  0  0  2  0  0  0  0  0  0
  187.4750  177.8270  143.2390 C   0  0  2  0  0  3  0  0  0  0  0  0
  189.8000  172.8810  138.2570 S   0  0  0  0  0  0  0  0  0  0  0  0
  190.4780  173.1810  139.8190 N   0  0  0  0  0  0  0  0  0  0  0  0
  190.4740  173.7270  137.2120 O   0  0  0  0  0  0  0  0  0  0  0  0
  191.2720  169.7730  140.0580 C   0  0  0  0  0  1  0  0  0  0  0  0
  188.3000  173.0570  138.2190 O   0  0  0  0  0  0  0  0  0  0  0  0
  191.6940  172.3760  139.8720 C   0  0  0  0  0  2  0  0  0  0  0  0
  191.7610  170.8770  137.7350 C   0  0  2  0  0  3  0  0  0  0  0  0
  191.3810  171.0260  139.2000 C   0  0  1  0  0  0  0  0  0  0  0  0
  189.3240  170.2090  138.1400 O   0  0  0  0  0  1  0  0  0  0  0  0
  190.3180  171.2090  138.1080 C   0  0  1  0  0  0  0  0  0  0  0  0
  191.8740  169.5310  137.3710 O   0  0  0  0  0  1  0  0  0  0  0  0
  190.7400  177.2510  148.0280 C   0  0  0  0  0  2  0  0  0  0  0  0
  194.1510  176.0040  146.4920 Cl  0  0  0  0  0  0  0  0  0  0  0  0
  190.1720  176.4630  145.5980 C   0  0  1  0  0  3  0  0  0  0  0  0
  192.4060  176.1550  146.5780 C   0  0  0  0  0  0  0  0  0  0  0  0
  191.6800  176.3410  145.4610 C   0  0  0  0  0  3  0  0  0  0  0  0
  191.7390  176.0990  147.9260 C   0  0  0  0  0  2  0  0  0  0  0  0
  189.7210  177.2720  146.8490 C   0  0  0  0  0  2  0  0  0  0  0  0
  186.5910  179.0430  143.6360 C   0  0  0  0  0  2  0  0  0  0  0  0
  184.8120  178.2070  145.0620 C   0  0  2  0  0  0  0  0  0  0  0  0
  183.6210  179.0040  144.5750 C   0  0  0  0  0  2  0  0  0  0  0  0
  184.7810  179.6970  145.2570 C   0  0  2  0  0  3  0  0  0  0  0  0
  186.0580  178.9900  145.0170 N   0  0  0  0  0  0  0  0  0  0  0  0
  184.5740  177.5650  146.4250 C   0  0  0  0  0  2  0  0  0  0  0  0
  186.2700  177.0440  148.0380 O   0  0  0  0  0  0  0  0  0  0  0  0
  185.7730  176.7930  146.9390 C   0  0  0  0  0  3  0  0  0  0  0  0
  1  7  1  0  0  0  0
  2  4  2  0  0  0  0
  3 10  1  0  0  0  0
  4  8  2  0  0  0  0
  6  3  2  0  0  0  0
  7  5  1  1  0  0  0
  7 24  1  0  0  0  0
  8  1  1  0  0  0  0
  9  8  1  0  0  0  0
  9  3  1  0  0  0  0
 10 29  1  1  0  0  0
 10  5  1  0  0  0  0
 11 12  1  0  0  0  0
 12 16  1  0  0  0  0
 12  2  1  0  0  0  0
 13 11  2  0  0  0  0
 15 11  2  0  0  0  0
 17 21  1  1  0  0  0
 17 20  1  0  0  0  0
 17 18  1  0  0  0  0
 18 16  1  0  0  0  0
 18 14  1  1  0  0  0
 20 19  1  6  0  0  0
 20 11  1  0  0  0  0
 20 18  1  0  0  0  0
 23 25  1  0  0  0  0
 24 26  1  6  0  0  0
 24 28  1  0  0  0  0
 25 27  1  0  0  0  0
 26 25  2  0  0  0  0
 27 22  1  0  0  0  0
 28 22  1  0  0  0  0
 29 33  1  0  0  0  0
 30 32  1  0  0  0  0
 30 34  1  1  0  0  0
 31 30  1  0  0  0  0
 32 31  1  6  0  0  0
 33 30  1  0  0  0  0
 33 32  1  0  0  0  0
 34 36  1  0  0  0  0
 36 35  2  0  0  0  0
M  END
>  <MODEL>
8

>  <REMARK>
 VINA RESULT:      -7.0      4.455      6.312
  Name = 
  6 active torsions:
  status: ('A' for Active; 'I' for Inactive)
    1  A    between atoms: N_6  and  C_9
    2  A    between atoms: C_7  and  C_23
    3  A    between atoms: C_8  and  C_12
    4  A    between atoms: C_12  and  C_25
    5  A    between atoms: C_21  and  C_34
    6  A    between atoms: C_21  and  N_36
                            x       y       z     vdW  Elec       q    Type
                         _______ _______ _______ _____ _____    ______ ____

>  <TORSDO>
F 6

$$$$
=
 OpenBabel11072408433D

 36 41  0  0  1  0  0  0  0  0999 V2000
  191.2750  175.9040  142.7720 S   0  0  0  0  0  0  0  0  0  0  0  0
  188.7320  176.2700  145.4340 C   0  0  0  0  0  3  0  0  0  0  0  0
  193.5040  175.7880  145.4680 C   0  0  0  0  0  0  0  0  0  0  0  0
  189.9780  176.0200  145.0670 C   0  0  0  0  0  0  0  0  0  0  0  0
  193.4250  174.1040  143.6620 C   0  0  0  0  0  2  0  0  0  0  0  0
  194.0390  175.6200  146.5640 O   0  0  0  0  0  0  0  0  0  0  0  0
  192.5480  174.5930  142.5030 C   0  0  1  0  0  3  0  0  0  0  0  0
  191.1650  175.9230  144.5810 C   0  0  0  0  0  0  0  0  0  0  0  0
  192.2310  176.5740  145.4280 C   0  0  0  0  0  2  0  0  0  0  0  0
  194.1740  175.3080  144.2050 C   0  0  2  0  0  3  0  0  0  0  0  0
  186.4220  177.6750  145.2210 S   0  0  0  0  0  0  0  0  0  0  0  0
  188.1450  177.5520  145.1600 N   0  0  0  0  0  0  0  0  0  0  0  0
  186.0010  179.0280  145.7260 O   0  0  0  0  0  0  0  0  0  0  0  0
  187.9080  176.8340  141.7350 C   0  0  0  0  0  1  0  0  0  0  0  0
  185.7780  176.5690  146.0230 O   0  0  0  0  0  0  0  0  0  0  0  0
  188.5340  178.1990  143.9110 C   0  0  0  0  0  2  0  0  0  0  0  0
  186.3560  178.7630  142.5860 C   0  0  2  0  0  3  0  0  0  0  0  0
  187.5000  177.7940  142.8440 C   0  0  1  0  0  0  0  0  0  0  0  0
  185.4940  176.3920  143.0140 O   0  0  0  0  0  1  0  0  0  0  0  0
  186.1300  177.5560  143.4930 C   0  0  1  0  0  0  0  0  0  0  0  0
  185.7760  178.5460  141.3320 O   0  0  0  0  0  1  0  0  0  0  0  0
  189.7900  172.3740  140.7880 C   0  0  0  0  0  2  0  0  0  0  0  0
  191.8440  169.4230  142.4080 Cl  0  0  0  0  0  0  0  0  0  0  0  0
  192.0200  173.4500  141.6350 C   0  0  1  0  0  3  0  0  0  0  0  0
  191.6270  171.0240  141.7260 C   0  0  0  0  0  0  0  0  0  0  0  0
  192.2430  172.0890  142.2720 C   0  0  0  0  0  3  0  0  0  0  0  0
  190.7210  171.1890  140.5350 C   0  0  0  0  0  2  0  0  0  0  0  0
  190.5600  173.6810  141.1480 C   0  0  0  0  0  2  0  0  0  0  0  0
  195.7200  175.1400  144.2390 C   0  0  0  0  0  2  0  0  0  0  0  0
  196.0940  173.1180  145.5300 C   0  0  2  0  0  0  0  0  0  0  0  0
  197.2410  173.5270  146.4280 C   0  0  0  0  0  2  0  0  0  0  0  0
  197.4350  173.4330  144.9300 C   0  0  2  0  0  3  0  0  0  0  0  0
  196.1860  173.7340  144.1970 N   0  0  0  0  0  0  0  0  0  0  0  0
  195.9100  171.6050  145.4620 C   0  0  0  0  0  2  0  0  0  0  0  0
  193.9260  170.3760  144.9130 O   0  0  0  0  0  0  0  0  0  0  0  0
  194.4750  171.1670  145.6810 C   0  0  0  0  0  3  0  0  0  0  0  0
  1  8  1  0  0  0  0
  3  6  2  0  0  0  0
  4  2  2  0  0  0  0
  5 10  1  0  0  0  0
  7  1  1  0  0  0  0
  7  5  1  1  0  0  0
  8  4  2  0  0  0  0
  8  9  1  0  0  0  0
  9  3  1  0  0  0  0
 10 29  1  1  0  0  0
 10  3  1  0  0  0  0
 11 13  2  0  0  0  0
 11 15  2  0  0  0  0
 12 11  1  0  0  0  0
 12  2  1  0  0  0  0
 16 12  1  0  0  0  0
 17 21  1  6  0  0  0
 17 18  1  0  0  0  0
 17 20  1  0  0  0  0
 18 14  1  6  0  0  0
 18 20  1  0  0  0  0
 18 16  1  0  0  0  0
 20 19  1  6  0  0  0
 20 11  1  0  0  0  0
 22 28  1  0  0  0  0
 24 28  1  1  0  0  0
 24 26  1  0  0  0  0
 24  7  1  0  0  0  0
 25 26  2  0  0  0  0
 25 23  1  0  0  0  0
 27 22  1  0  0  0  0
 27 25  1  0  0  0  0
 30 34  1  1  0  0  0
 30 31  1  0  0  0  0
 32 30  1  0  0  0  0
 32 31  1  1  0  0  0
 33 29  1  0  0  0  0
 33 32  1  0  0  0  0
 33 30  1  0  0  0  0
 34 36  1  0  0  0  0
 35 36  2  0  0  0  0
M  END
>  <MODEL>
9

>  <REMARK>
 VINA RESULT:      -6.8      2.879      8.706
  Name = 
  6 active torsions:
  status: ('A' for Active; 'I' for Inactive)
    1  A    between atoms: N_6  and  C_9
    2  A    between atoms: C_7  and  C_23
    3  A    between atoms: C_8  and  C_12
    4  A    between atoms: C_12  and  C_25
    5  A    between atoms: C_21  and  C_34
    6  A    between atoms: C_21  and  N_36
                            x       y       z     vdW  Elec       q    Type
                         _______ _______ _______ _____ _____    ______ ____

>  <TORSDO>
F 6

$$$$
