=
 OpenBabel11062421063D

 68 74  0  0  1  0  0  0  0  0999 V2000
  190.5760  172.4110  140.8960 C   0  0  0  0  0  0  0  0  0  0  0  0
  197.8320  173.0450  144.0720 C   0  0  0  0  0  1  0  0  0  0  0  0
  196.4880  172.3310  144.1160 C   0  0  0  0  0  0  0  0  0  0  0  0
  189.6870  171.6750  141.4050 O   0  0  0  0  0  0  0  0  0  0  0  0
  195.2930  173.2690  143.8340 C   0  0  2  0  0  3  0  0  0  0  0  0
  194.1860  173.2960  141.8110 N   0  0  0  0  0  0  0  0  0  0  0  0
  194.3600  172.4720  142.9890 C   0  0  1  0  0  3  0  0  0  0  0  0
  196.3270  171.7480  145.5100 C   0  0  0  0  0  1  0  0  0  0  0  0
  191.8690  172.4660  141.5060 N   0  0  0  0  0  2  0  0  0  0  0  0
  196.4890  171.2800  143.1760 O   0  0  0  0  0  0  0  0  0  0  0  0
  195.6400  174.4700  142.9450 C   0  0  1  0  0  3  0  0  0  0  0  0
  190.2840  173.1760  139.7220 N   0  0  0  0  0  2  0  0  0  0  0  0
  194.8560  170.3620  141.4750 C   0  0  2  0  0  3  0  0  0  0  0  0
  192.7390  174.2460  140.2590 O   0  0  0  0  0  0  0  0  0  0  0  0
  195.1870  171.2600  142.6580 C   0  0  2  0  0  0  0  0  0  0  0  0
  195.1070  174.2810  141.6520 O   0  0  0  0  0  0  0  0  0  0  0  0
  192.9210  173.3730  141.1480 C   0  0  0  0  0  0  0  0  0  0  0  0
  194.4840  169.9440  142.8940 C   0  0  0  0  0  2  0  0  0  0  0  0
  196.9050  170.4170  140.2290 O   0  0  0  0  0  0  0  0  0  0  0  0
  194.5490  168.5910  139.4470 F   0  0  0  0  0  0  0  0  0  0  0  0
  196.0820  169.5870  140.9980 C   0  0  2  0  0  3  0  0  0  0  0  0
  196.8630  168.4070  139.1620 C   0  0  0  0  0  2  0  0  0  0  0  0
  197.6740  169.5730  139.4840 N   0  0  0  0  0  2  0  0  0  0  0  0
  195.7330  168.3960  140.1410 C   0  0  2  0  0  3  0  0  0  0  0  0
  195.1850  175.7910  143.5760 C   0  0  0  0  0  2  0  0  0  0  0  0
  191.9780  176.4280  145.9770 C   0  0  1  0  0  0  0  0  0  0  0  0
  194.3750  176.7280  145.6690 O   0  0  0  0  0  0  0  0  0  0  0  0
  191.8240  177.3350  144.9130 O   0  0  0  0  0  0  0  0  0  0  0  0
  192.0350  175.1620  145.4080 O   0  0  0  0  0  0  0  0  0  0  0  0
  193.3490  176.6720  146.6520 C   0  0  0  0  0  2  0  0  0  0  0  0
  194.2580  175.6240  144.7770 C   0  0  1  0  0  3  0  0  0  0  0  0
  192.7950  175.4750  144.2910 C   0  0  2  0  0  3  0  0  0  0  0  0
  192.3340  176.7260  143.8430 O   0  0  0  0  0  0  0  0  0  0  0  0
  190.8240  176.5310  146.9820 C   0  0  1  0  0  3  0  0  0  0  0  0
  191.3090  176.9420  148.3680 C   0  0  0  0  0  1  0  0  0  0  0  0
  189.6980  177.4540  146.5110 C   0  0  0  0  0  2  0  0  0  0  0  0
  188.4700  177.0560  147.0490 O   0  0  0  0  0  0  0  0  0  0  0  0
  187.5020  177.5810  146.1870 C   0  0  2  0  0  3  0  0  0  0  0  0
  185.0540  178.2350  146.2400 C   0  0  0  0  0  1  0  0  0  0  0  0
  186.3770  178.2290  146.9960 C   0  0  0  0  0  2  0  0  0  0  0  0
  186.9790  176.4830  145.2620 C   0  0  0  0  0  2  0  0  0  0  0  0
  188.7170  177.5540  143.4970 O   0  0  0  0  0  0  0  0  0  0  0  0
  187.4190  176.7950  143.5590 S   0  0  0  0  0  0  0  0  0  0  0  0
  187.5760  175.4840  142.8340 O   0  0  0  0  0  0  0  0  0  0  0  0
  186.1710  177.7210  142.7910 N   0  0  0  0  0  2  0  0  0  0  0  0
  186.2500  177.4680  141.3620 C   0  0  0  0  0  3  0  0  0  0  0  0
  185.1390  178.0230  140.7300 O   0  0  0  0  0  1  0  0  0  0  0  0
  187.4110  178.0460  140.8520 O   0  0  0  0  0  1  0  0  0  0  0  0
  188.9300  173.3410  139.2030 C   0  0  0  0  0  2  0  0  0  0  0  0
  188.8330  172.7740  137.7910 C   0  0  0  0  0  2  0  0  0  0  0  0
  189.3360  173.7880  136.7790 C   0  0  0  0  0  2  0  0  0  0  0  0
  194.2850  173.9260  136.3670 N   0  0  0  0  0  2  0  0  0  0  0  0
  193.1080  172.5020  134.9470 O   0  0  0  0  0  0  0  0  0  0  0  0
  190.5420  173.2730  136.0740 C   0  0  0  0  0  0  0  0  0  0  0  0
  190.4100  172.5140  135.0760 O   0  0  0  0  0  0  0  0  0  0  0  0
  193.0770  173.3320  135.8960 C   0  0  0  0  0  0  0  0  0  0  0  0
  191.8360  173.6970  136.5110 N   0  0  0  0  0  2  0  0  0  0  0  0
  197.2350  174.4240  137.2160 C   0  0  1  0  0  3  0  0  0  0  0  0
  196.4080  173.2130  136.8410 C   0  0  0  0  0  2  0  0  0  0  0  0
  196.1550  174.9020  135.3520 C   0  0  1  0  0  3  0  0  0  0  0  0
  196.7700  175.5070  136.4580 O   0  0  0  0  0  0  0  0  0  0  0  0
  195.5300  173.6450  135.7720 N   0  0  0  0  0  0  0  0  0  0  0  0
  196.2550  175.5570  139.0640 O   0  0  0  0  0  0  0  0  0  0  0  0
  197.1080  174.7180  138.6730 C   0  0  0  0  0  0  0  0  0  0  0  0
  197.9410  174.0590  139.6260 N   0  0  0  0  0  1  0  0  0  0  0  0
  195.1880  175.8520  134.6380 C   0  0  0  0  0  2  0  0  0  0  0  0
  195.4870  177.3010  134.9800 C   0  0  0  0  0  2  0  0  0  0  0  0
  194.2320  178.1410  134.8640 C   0  0  0  0  0  1  0  0  0  0  0  0
  1  4  2  0  0  0  0
  1  9  1  0  0  0  0
  2  3  1  0  0  0  0
  3  8  1  0  0  0  0
  5  3  1  6  0  0  0
  7  6  1  6  0  0  0
  7  5  1  0  0  0  0
 10  3  1  0  0  0  0
 11 25  1  1  0  0  0
 11  5  1  0  0  0  0
 12  1  1  0  0  0  0
 13 15  1  0  0  0  0
 13 18  1  1  0  0  0
 14 17  2  0  0  0  0
 15 18  1  1  0  0  0
 15  7  1  0  0  0  0
 15 10  1  0  0  0  0
 16  6  1  0  0  0  0
 16 11  1  0  0  0  0
 17  9  1  0  0  0  0
 17  6  1  0  0  0  0
 21 19  1  6  0  0  0
 21 13  1  0  0  0  0
 22 23  1  0  0  0  0
 22 24  1  0  0  0  0
 23 19  1  0  0  0  0
 24 20  1  6  0  0  0
 24 21  1  0  0  0  0
 26 30  1  0  0  0  0
 26 34  1  1  0  0  0
 27 30  1  0  0  0  0
 28 26  1  0  0  0  0
 29 26  1  0  0  0  0
 31 25  1  6  0  0  0
 31 27  1  0  0  0  0
 32 33  1  1  0  0  0
 32 31  1  0  0  0  0
 32 29  1  0  0  0  0
 33 28  1  0  0  0  0
 34 35  1  1  0  0  0
 36 34  1  0  0  0  0
 36 37  1  0  0  0  0
 38 41  1  1  0  0  0
 38 40  1  0  0  0  0
 38 37  1  0  0  0  0
 39 40  1  0  0  0  0
 42 43  2  0  0  0  0
 43 41  1  0  0  0  0
 44 43  2  0  0  0  0
 45 43  1  0  0  0  0
 46 45  1  0  0  0  0
 47 46  1  0  0  0  0
 48 46  1  0  0  0  0
 49 12  1  0  0  0  0
 50 49  1  0  0  0  0
 51 50  1  0  0  0  0
 53 56  2  0  0  0  0
 54 57  1  0  0  0  0
 54 51  1  0  0  0  0
 55 54  2  0  0  0  0
 56 52  1  0  0  0  0
 56 57  1  0  0  0  0
 58 64  1  1  0  0  0
 59 58  1  0  0  0  0
 60 66  1  1  0  0  0
 60 62  1  0  0  0  0
 60 61  1  0  0  0  0
 61 58  1  0  0  0  0
 62 52  1  0  0  0  0
 62 59  1  0  0  0  0
 64 63  2  0  0  0  0
 64 65  1  0  0  0  0
 66 67  1  0  0  0  0
 68 67  1  0  0  0  0
M  END
>  <MODEL>
1

>  <REMARK>
 VINA RESULT:      -6.2      0.000      0.000
  Name = 
  20 active torsions:
  status: ('A' for Active; 'I' for Inactive)
    1  A    between atoms: C_1  and  C_29
    2  A    between atoms: C_2  and  C_22
    3  A    between atoms: C_2  and  C_24
    4  A    between atoms: C_9  and  N_18
    5  A    between atoms: C_12  and  C_34
    6  A    between atoms: C_12  and  C_38
    7  A    between atoms: C_13  and  C_36
    8  A    between atoms: C_13  and  C_52
    9  A    between atoms: C_17  and  O_31
   10  A    between atoms: C_17  and  C_37
   11  A    between atoms: C_17  and  C_49
   12  A    between atoms: N_18  and  S_42
   13  A    between atoms: C_24  and  O_31
   14  A    between atoms: C_25  and  C_45
   15  A    between atoms: N_30  and  N_66
   16  A    between atoms: C_34  and  C_67
   17  A    between atoms: C_37  and  S_42
   18  A    between atoms: N_41  and  C_67
   19  A    between atoms: C_43  and  C_47
   20  A    between atoms: C_47  and  C_59
                            x       y       z     vdW  Elec       q    Type
                         _______ _______ _______ _____ _____    ______ ____

>  <TORSDO>
F 20

$$$$
=
 OpenBabel11062421063D

 68 74  0  0  1  0  0  0  0  0999 V2000
  188.6500  174.3130  140.1070 C   0  0  0  0  0  0  0  0  0  0  0  0
  195.5980  170.6250  138.9800 C   0  0  0  0  0  1  0  0  0  0  0  0
  194.1310  170.7140  138.5810 C   0  0  0  0  0  0  0  0  0  0  0  0
  187.5850  173.9090  139.5660 O   0  0  0  0  0  0  0  0  0  0  0  0
  193.1960  171.0200  139.7710 C   0  0  2  0  0  3  0  0  0  0  0  0
  192.2830  173.1080  140.1280 N   0  0  0  0  0  0  0  0  0  0  0  0
  192.1800  171.9710  139.2380 C   0  0  1  0  0  3  0  0  0  0  0  0
  193.7370  169.3700  137.9900 C   0  0  0  0  0  1  0  0  0  0  0  0
  189.8720  173.6160  139.8480 N   0  0  0  0  0  2  0  0  0  0  0  0
  193.9760  171.7110  137.5960 O   0  0  0  0  0  0  0  0  0  0  0  0
  193.8650  171.8120  140.9020 C   0  0  1  0  0  3  0  0  0  0  0  0
  188.6250  175.4580  140.9660 N   0  0  0  0  0  2  0  0  0  0  0  0
  192.3200  173.5680  137.1360 C   0  0  2  0  0  3  0  0  0  0  0  0
  191.2050  174.6960  141.4400 O   0  0  0  0  0  0  0  0  0  0  0  0
  192.7460  172.3150  137.8880 C   0  0  2  0  0  0  0  0  0  0  0  0
  193.4060  173.1470  140.8910 O   0  0  0  0  0  0  0  0  0  0  0  0
  191.1210  173.8480  140.5120 C   0  0  0  0  0  0  0  0  0  0  0  0
  191.7560  172.2040  136.7510 C   0  0  0  0  0  2  0  0  0  0  0  0
  194.4740  174.5690  136.7960 O   0  0  0  0  0  0  0  0  0  0  0  0
  191.8810  175.8290  135.7070 F   0  0  0  0  0  0  0  0  0  0  0  0
  193.3810  174.0060  136.1290 C   0  0  2  0  0  3  0  0  0  0  0  0
  194.1020  175.8840  134.9770 C   0  0  0  0  0  2  0  0  0  0  0  0
  195.1150  175.3290  135.8640 N   0  0  0  0  0  2  0  0  0  0  0  0
  192.8790  175.0420  135.1540 C   0  0  2  0  0  3  0  0  0  0  0  0
  193.6610  171.1380  142.2630 C   0  0  0  0  0  2  0  0  0  0  0  0
  193.5190  174.0860  145.0460 C   0  0  1  0  0  0  0  0  0  0  0  0
  194.5900  173.2540  143.0240 O   0  0  0  0  0  0  0  0  0  0  0  0
  192.3780  174.2820  144.2470 O   0  0  0  0  0  0  0  0  0  0  0  0
  193.4210  172.7980  145.5590 O   0  0  0  0  0  0  0  0  0  0  0  0
  194.7760  174.1090  144.1440 C   0  0  0  0  0  2  0  0  0  0  0  0
  194.1020  171.9860  143.4540 C   0  0  1  0  0  3  0  0  0  0  0  0
  192.9140  172.1680  144.4320 C   0  0  2  0  0  3  0  0  0  0  0  0
  191.9900  173.0660  143.8650 O   0  0  0  0  0  0  0  0  0  0  0  0
  193.6080  175.1240  146.1720 C   0  0  1  0  0  3  0  0  0  0  0  0
  195.0050  175.7260  146.2840 C   0  0  0  0  0  1  0  0  0  0  0  0
  192.5540  176.2270  146.0570 C   0  0  0  0  0  2  0  0  0  0  0  0
  191.2670  175.6830  146.0140 O   0  0  0  0  0  0  0  0  0  0  0  0
  190.4940  176.6170  145.3150 C   0  0  2  0  0  3  0  0  0  0  0  0
  190.8730  177.7730  143.0930 C   0  0  0  0  0  1  0  0  0  0  0  0
  191.4010  177.5430  144.5030 C   0  0  0  0  0  2  0  0  0  0  0  0
  189.6100  177.3940  146.2890 C   0  0  0  0  0  2  0  0  0  0  0  0
  187.5030  176.3490  144.9660 O   0  0  0  0  0  0  0  0  0  0  0  0
  187.9550  176.7240  146.3510 S   0  0  0  0  0  0  0  0  0  0  0  0
  187.9430  175.4990  147.2250 O   0  0  0  0  0  0  0  0  0  0  0  0
  186.8710  177.9030  147.0130 N   0  0  0  0  0  2  0  0  0  0  0  0
  185.6910  177.9410  146.1660 C   0  0  0  0  0  3  0  0  0  0  0  0
  184.8580  176.8690  146.4810 O   0  0  0  0  0  1  0  0  0  0  0  0
  185.0060  179.1360  146.3770 O   0  0  0  0  0  1  0  0  0  0  0  0
  187.3850  176.0560  141.4490 C   0  0  0  0  0  2  0  0  0  0  0  0
  187.2660  177.4950  140.9590 C   0  0  0  0  0  2  0  0  0  0  0  0
  185.9620  177.6920  140.2070 C   0  0  0  0  0  2  0  0  0  0  0  0
  181.0840  178.4300  140.7910 N   0  0  0  0  0  2  0  0  0  0  0  0
  182.4500  178.6010  142.6710 O   0  0  0  0  0  0  0  0  0  0  0  0
  184.8550  178.0130  141.1490 C   0  0  0  0  0  0  0  0  0  0  0  0
  185.1160  178.3270  142.3410 O   0  0  0  0  0  0  0  0  0  0  0  0
  182.3540  178.3580  141.4390 C   0  0  0  0  0  0  0  0  0  0  0  0
  183.5090  178.0140  140.6650 N   0  0  0  0  0  2  0  0  0  0  0  0
  178.0460  177.9710  140.3090 C   0  0  1  0  0  3  0  0  0  0  0  0
  179.0190  177.6760  141.4300 C   0  0  0  0  0  2  0  0  0  0  0  0
  179.1980  179.8130  140.6980 C   0  0  1  0  0  3  0  0  0  0  0  0
  178.4480  179.1690  139.7030 O   0  0  0  0  0  0  0  0  0  0  0  0
  179.9190  178.8100  141.4870 N   0  0  0  0  0  0  0  0  0  0  0  0
  177.6920  175.7070  139.6680 O   0  0  0  0  0  0  0  0  0  0  0  0
  178.0410  176.8620  139.3100 C   0  0  0  0  0  0  0  0  0  0  0  0
  178.4250  177.0980  137.9560 N   0  0  0  0  0  1  0  0  0  0  0  0
  180.1070  180.9030  140.1220 C   0  0  0  0  0  2  0  0  0  0  0  0
  179.3950  181.7010  139.0440 C   0  0  0  0  0  2  0  0  0  0  0  0
  178.7400  182.9290  139.6420 C   0  0  0  0  0  1  0  0  0  0  0  0
  1 12  1  0  0  0  0
  3  2  1  0  0  0  0
  4  1  2  0  0  0  0
  5  3  1  6  0  0  0
  5 11  1  0  0  0  0
  6 17  1  0  0  0  0
  6 16  1  0  0  0  0
  7  5  1  0  0  0  0
  7  6  1  1  0  0  0
  8  3  1  0  0  0  0
  9  1  1  0  0  0  0
  9 17  1  0  0  0  0
 10 15  1  0  0  0  0
 10  3  1  0  0  0  0
 11 25  1  1  0  0  0
 12 49  1  0  0  0  0
 13 18  1  6  0  0  0
 13 15  1  0  0  0  0
 15 18  1  6  0  0  0
 15  7  1  0  0  0  0
 16 11  1  0  0  0  0
 17 14  2  0  0  0  0
 21 19  1  1  0  0  0
 21 13  1  0  0  0  0
 22 24  1  0  0  0  0
 22 23  1  0  0  0  0
 23 19  1  0  0  0  0
 24 20  1  1  0  0  0
 24 21  1  0  0  0  0
 26 29  1  0  0  0  0
 26 34  1  1  0  0  0
 27 31  1  0  0  0  0
 27 30  1  0  0  0  0
 28 26  1  0  0  0  0
 30 26  1  0  0  0  0
 31 25  1  6  0  0  0
 31 32  1  0  0  0  0
 32 33  1  6  0  0  0
 32 29  1  0  0  0  0
 33 28  1  0  0  0  0
 34 35  1  6  0  0  0
 36 34  1  0  0  0  0
 37 36  1  0  0  0  0
 38 40  1  1  0  0  0
 38 37  1  0  0  0  0
 38 41  1  0  0  0  0
 39 40  1  0  0  0  0
 41 43  1  0  0  0  0
 42 43  2  0  0  0  0
 43 45  1  0  0  0  0
 43 44  2  0  0  0  0
 46 48  1  0  0  0  0
 46 47  1  0  0  0  0
 46 45  1  0  0  0  0
 50 49  1  0  0  0  0
 51 50  1  0  0  0  0
 51 54  1  0  0  0  0
 52 56  1  0  0  0  0
 52 62  1  0  0  0  0
 54 55  2  0  0  0  0
 56 53  2  0  0  0  0
 57 54  1  0  0  0  0
 57 56  1  0  0  0  0
 58 64  1  6  0  0  0
 58 59  1  0  0  0  0
 59 62  1  0  0  0  0
 60 66  1  6  0  0  0
 60 62  1  0  0  0  0
 61 58  1  0  0  0  0
 61 60  1  0  0  0  0
 64 63  2  0  0  0  0
 65 64  1  0  0  0  0
 67 68  1  0  0  0  0
 67 66  1  0  0  0  0
M  END
>  <MODEL>
2

>  <REMARK>
 VINA RESULT:      -6.1      3.977      9.309
  Name = 
  20 active torsions:
  status: ('A' for Active; 'I' for Inactive)
    1  A    between atoms: C_1  and  C_29
    2  A    between atoms: C_2  and  C_22
    3  A    between atoms: C_2  and  C_24
    4  A    between atoms: C_9  and  N_18
    5  A    between atoms: C_12  and  C_34
    6  A    between atoms: C_12  and  C_38
    7  A    between atoms: C_13  and  C_36
    8  A    between atoms: C_13  and  C_52
    9  A    between atoms: C_17  and  O_31
   10  A    between atoms: C_17  and  C_37
   11  A    between atoms: C_17  and  C_49
   12  A    between atoms: N_18  and  S_42
   13  A    between atoms: C_24  and  O_31
   14  A    between atoms: C_25  and  C_45
   15  A    between atoms: N_30  and  N_66
   16  A    between atoms: C_34  and  C_67
   17  A    between atoms: C_37  and  S_42
   18  A    between atoms: N_41  and  C_67
   19  A    between atoms: C_43  and  C_47
   20  A    between atoms: C_47  and  C_59
                            x       y       z     vdW  Elec       q    Type
                         _______ _______ _______ _____ _____    ______ ____

>  <TORSDO>
F 20

$$$$
=
 OpenBabel11062421063D

 68 74  0  0  1  0  0  0  0  0999 V2000
  191.2790  173.8690  142.8660 C   0  0  0  0  0  0  0  0  0  0  0  0
  193.7660  169.0520  137.0560 C   0  0  0  0  0  1  0  0  0  0  0  0
  193.9690  170.3790  137.7760 C   0  0  0  0  0  0  0  0  0  0  0  0
  191.7420  175.0330  143.0110 O   0  0  0  0  0  0  0  0  0  0  0  0
  192.6420  171.0500  138.1950 C   0  0  2  0  0  3  0  0  0  0  0  0
  191.8730  171.0290  140.3690 N   0  0  0  0  0  0  0  0  0  0  0  0
  192.9030  171.6250  139.5450 C   0  0  1  0  0  3  0  0  0  0  0  0
  194.7010  171.3080  136.8220 C   0  0  0  0  0  1  0  0  0  0  0  0
  191.7830  173.0440  141.8110 N   0  0  0  0  0  2  0  0  0  0  0  0
  194.7690  170.1710  138.9180 O   0  0  0  0  0  0  0  0  0  0  0  0
  191.4950  170.0630  138.4450 C   0  0  1  0  0  3  0  0  0  0  0  0
  190.2630  173.3890  143.7520 N   0  0  0  0  0  2  0  0  0  0  0  0
  194.7460  170.9630  141.3210 C   0  0  2  0  0  3  0  0  0  0  0  0
  190.2200  171.3110  141.9800 O   0  0  0  0  0  0  0  0  0  0  0  0
  194.2450  171.0380  139.8860 C   0  0  2  0  0  0  0  0  0  0  0  0
  191.2540  169.9470  139.8300 O   0  0  0  0  0  0  0  0  0  0  0  0
  191.2470  171.7750  141.4170 C   0  0  0  0  0  0  0  0  0  0  0  0
  195.2590  172.0460  140.3760 C   0  0  0  0  0  2  0  0  0  0  0  0
  195.3320  168.8900  142.3760 O   0  0  0  0  0  0  0  0  0  0  0  0
  196.9120  171.4910  142.8610 F   0  0  0  0  0  0  0  0  0  0  0  0
  195.7970  169.8690  141.4920 C   0  0  2  0  0  3  0  0  0  0  0  0
  197.5180  169.2320  142.9090 C   0  0  0  0  0  2  0  0  0  0  0  0
  196.4480  168.2480  142.8250 N   0  0  0  0  0  2  0  0  0  0  0  0
  197.1010  170.3830  142.0500 C   0  0  2  0  0  3  0  0  0  0  0  0
  190.2350  170.4500  137.6640 C   0  0  0  0  0  2  0  0  0  0  0  0
  188.5160  174.1220  137.5320 C   0  0  1  0  0  0  0  0  0  0  0  0
  189.2660  172.1850  136.2610 O   0  0  0  0  0  0  0  0  0  0  0  0
  187.5260  173.2730  138.0590 O   0  0  0  0  0  0  0  0  0  0  0  0
  189.6100  174.0230  138.3820 O   0  0  0  0  0  0  0  0  0  0  0  0
  188.9710  173.5720  136.1590 C   0  0  0  0  0  2  0  0  0  0  0  0
  190.1060  171.9450  137.3860 C   0  0  1  0  0  3  0  0  0  0  0  0
  189.5460  172.6620  138.6400 C   0  0  2  0  0  3  0  0  0  0  0  0
  188.1790  172.3540  138.7700 O   0  0  0  0  0  0  0  0  0  0  0  0
  188.0250  175.5720  137.4290 C   0  0  1  0  0  3  0  0  0  0  0  0
  187.6460  175.9450  135.9990 C   0  0  0  0  0  1  0  0  0  0  0  0
  186.8760  175.8860  138.3890 C   0  0  0  0  0  2  0  0  0  0  0  0
  186.8540  177.2470  138.7100 O   0  0  0  0  0  0  0  0  0  0  0  0
  186.4350  177.3050  140.0440 C   0  0  2  0  0  3  0  0  0  0  0  0
  184.5760  178.1090  141.5660 C   0  0  0  0  0  1  0  0  0  0  0  0
  185.1330  178.1020  140.1480 C   0  0  0  0  0  2  0  0  0  0  0  0
  187.5410  177.9030  140.9100 C   0  0  0  0  0  2  0  0  0  0  0  0
  188.5350  175.4290  141.3300 O   0  0  0  0  0  0  0  0  0  0  0  0
  188.1970  176.7020  142.0590 S   0  0  0  0  0  0  0  0  0  0  0  0
  189.4440  177.2520  142.7000 O   0  0  0  0  0  0  0  0  0  0  0  0
  187.0250  176.3690  143.2910 N   0  0  0  0  0  2  0  0  0  0  0  0
  187.3420  177.2020  144.4380 C   0  0  0  0  0  3  0  0  0  0  0  0
  186.7320  178.4470  144.2910 O   0  0  0  0  0  1  0  0  0  0  0  0
  186.8740  176.5910  145.5990 O   0  0  0  0  0  1  0  0  0  0  0  0
  189.5510  174.2580  144.6830 C   0  0  0  0  0  2  0  0  0  0  0  0
  189.8510  173.8500  146.1210 C   0  0  0  0  0  2  0  0  0  0  0  0
  189.7840  175.0580  147.0390 C   0  0  0  0  0  2  0  0  0  0  0  0
  194.3830  175.4410  145.1990 N   0  0  0  0  0  2  0  0  0  0  0  0
  193.8200  176.7730  147.0260 O   0  0  0  0  0  0  0  0  0  0  0  0
  191.1170  175.7130  147.1440 C   0  0  0  0  0  0  0  0  0  0  0  0
  191.3650  176.4800  148.1120 O   0  0  0  0  0  0  0  0  0  0  0  0
  193.4560  175.9210  146.1720 C   0  0  0  0  0  0  0  0  0  0  0  0
  192.1180  175.4130  146.1660 N   0  0  0  0  0  2  0  0  0  0  0  0
  196.5550  175.6220  142.9800 C   0  0  1  0  0  3  0  0  0  0  0  0
  195.9110  176.5950  143.9450 C   0  0  0  0  0  2  0  0  0  0  0  0
  196.5930  174.7010  144.9850 C   0  0  1  0  0  3  0  0  0  0  0  0
  196.6320  174.3780  143.6210 O   0  0  0  0  0  0  0  0  0  0  0  0
  195.7260  175.8660  145.1830 N   0  0  0  0  0  0  0  0  0  0  0  0
  194.5480  175.1430  141.7950 O   0  0  0  0  0  0  0  0  0  0  0  0
  195.7490  175.5110  141.7290 C   0  0  0  0  0  0  0  0  0  0  0  0
  196.3270  175.8170  140.4600 N   0  0  0  0  0  1  0  0  0  0  0  0
  196.2040  173.4990  145.8520 C   0  0  0  0  0  2  0  0  0  0  0  0
  197.2170  172.3750  145.7210 C   0  0  0  0  0  2  0  0  0  0  0  0
  196.5850  171.0490  146.0920 C   0  0  0  0  0  1  0  0  0  0  0  0
  1  4  2  0  0  0  0
  1 12  1  0  0  0  0
  2  3  1  0  0  0  0
  3 10  1  0  0  0  0
  5  3  1  1  0  0  0
  5 11  1  0  0  0  0
  5  7  1  0  0  0  0
  6 17  1  0  0  0  0
  7 15  1  0  0  0  0
  7  6  1  1  0  0  0
  8  3  1  0  0  0  0
  9  1  1  0  0  0  0
 10 15  1  0  0  0  0
 11 25  1  6  0  0  0
 11 16  1  0  0  0  0
 12 49  1  0  0  0  0
 13 18  1  6  0  0  0
 13 21  1  0  0  0  0
 15 18  1  6  0  0  0
 15 13  1  0  0  0  0
 16  6  1  0  0  0  0
 17  9  1  0  0  0  0
 17 14  2  0  0  0  0
 19 23  1  0  0  0  0
 21 24  1  0  0  0  0
 21 19  1  1  0  0  0
 23 22  1  0  0  0  0
 24 20  1  1  0  0  0
 24 22  1  0  0  0  0
 26 34  1  6  0  0  0
 26 28  1  0  0  0  0
 26 29  1  0  0  0  0
 27 31  1  0  0  0  0
 28 33  1  0  0  0  0
 30 27  1  0  0  0  0
 30 26  1  0  0  0  0
 31 25  1  1  0  0  0
 31 32  1  0  0  0  0
 32 29  1  6  0  0  0
 32 33  1  0  0  0  0
 34 35  1  6  0  0  0
 34 36  1  0  0  0  0
 36 37  1  0  0  0  0
 37 38  1  0  0  0  0
 38 40  1  6  0  0  0
 38 41  1  0  0  0  0
 40 39  1  0  0  0  0
 41 43  1  0  0  0  0
 42 43  2  0  0  0  0
 43 44  2  0  0  0  0
 43 45  1  0  0  0  0
 45 46  1  0  0  0  0
 46 48  1  0  0  0  0
 47 46  1  0  0  0  0
 49 50  1  0  0  0  0
 50 51  1  0  0  0  0
 51 54  1  0  0  0  0
 52 56  1  0  0  0  0
 54 55  2  0  0  0  0
 56 53  2  0  0  0  0
 57 56  1  0  0  0  0
 57 54  1  0  0  0  0
 58 64  1  6  0  0  0
 58 61  1  0  0  0  0
 58 59  1  0  0  0  0
 59 62  1  0  0  0  0
 60 62  1  0  0  0  0
 60 66  1  1  0  0  0
 61 60  1  0  0  0  0
 62 52  1  0  0  0  0
 64 63  2  0  0  0  0
 65 64  1  0  0  0  0
 67 66  1  0  0  0  0
 67 68  1  0  0  0  0
M  END
>  <MODEL>
3

>  <REMARK>
 VINA RESULT:      -6.1      2.814      7.441
  Name = 
  20 active torsions:
  status: ('A' for Active; 'I' for Inactive)
    1  A    between atoms: C_1  and  C_29
    2  A    between atoms: C_2  and  C_22
    3  A    between atoms: C_2  and  C_24
    4  A    between atoms: C_9  and  N_18
    5  A    between atoms: C_12  and  C_34
    6  A    between atoms: C_12  and  C_38
    7  A    between atoms: C_13  and  C_36
    8  A    between atoms: C_13  and  C_52
    9  A    between atoms: C_17  and  O_31
   10  A    between atoms: C_17  and  C_37
   11  A    between atoms: C_17  and  C_49
   12  A    between atoms: N_18  and  S_42
   13  A    between atoms: C_24  and  O_31
   14  A    between atoms: C_25  and  C_45
   15  A    between atoms: N_30  and  N_66
   16  A    between atoms: C_34  and  C_67
   17  A    between atoms: C_37  and  S_42
   18  A    between atoms: N_41  and  C_67
   19  A    between atoms: C_43  and  C_47
   20  A    between atoms: C_47  and  C_59
                            x       y       z     vdW  Elec       q    Type
                         _______ _______ _______ _____ _____    ______ ____

>  <TORSDO>
F 20

$$$$
=
 OpenBabel11062421063D

 68 74  0  0  1  0  0  0  0  0999 V2000
  188.1530  174.8540  139.3160 C   0  0  0  0  0  0  0  0  0  0  0  0
  194.0180  170.0990  136.8400 C   0  0  0  0  0  1  0  0  0  0  0  0
  192.6970  170.7690  136.4880 C   0  0  0  0  0  0  0  0  0  0  0  0
  187.1110  175.0400  138.6310 O   0  0  0  0  0  0  0  0  0  0  0  0
  191.7070  170.8180  137.6730 C   0  0  2  0  0  3  0  0  0  0  0  0
  191.3160  172.7400  138.8860 N   0  0  0  0  0  0  0  0  0  0  0  0
  191.0570  172.1560  137.5870 C   0  0  1  0  0  3  0  0  0  0  0  0
  192.0650  169.9690  135.3620 C   0  0  0  0  0  1  0  0  0  0  0  0
  189.1820  174.0010  138.8050 N   0  0  0  0  0  2  0  0  0  0  0  0
  192.9470  172.0800  136.0340 O   0  0  0  0  0  0  0  0  0  0  0  0
  192.3840  170.8400  139.0500 C   0  0  1  0  0  3  0  0  0  0  0  0
  188.2960  175.4950  140.5880 N   0  0  0  0  0  2  0  0  0  0  0  0
  191.9060  174.3580  136.3960 C   0  0  2  0  0  3  0  0  0  0  0  0
  190.4980  173.8860  140.7360 O   0  0  0  0  0  0  0  0  0  0  0  0
  191.8830  172.8430  136.5350 C   0  0  2  0  0  0  0  0  0  0  0  0
  192.2880  172.1300  139.6120 O   0  0  0  0  0  0  0  0  0  0  0  0
  190.3380  173.5620  139.5300 C   0  0  0  0  0  0  0  0  0  0  0  0
  191.0740  173.5050  135.4430 C   0  0  0  0  0  2  0  0  0  0  0  0
  194.2100  174.9810  136.6380 O   0  0  0  0  0  0  0  0  0  0  0  0
  192.0610  176.9600  135.6560 F   0  0  0  0  0  0  0  0  0  0  0  0
  193.1780  174.8390  135.7030 C   0  0  2  0  0  3  0  0  0  0  0  0
  194.3590  176.7840  135.2570 C   0  0  0  0  0  2  0  0  0  0  0  0
  195.1080  175.8270  136.0590 N   0  0  0  0  0  2  0  0  0  0  0  0
  193.0130  176.1760  135.0230 C   0  0  2  0  0  3  0  0  0  0  0  0
  191.8180  169.7570  139.9760 C   0  0  0  0  0  2  0  0  0  0  0  0
  193.3750  170.6240  143.6200 C   0  0  1  0  0  0  0  0  0  0  0  0
  193.8160  170.3240  141.2440 O   0  0  0  0  0  0  0  0  0  0  0  0
  192.6600  171.7750  143.2460 O   0  0  0  0  0  0  0  0  0  0  0  0
  192.4630  169.5750  143.6130 O   0  0  0  0  0  0  0  0  0  0  0  0
  194.4250  170.3050  142.5290 C   0  0  0  0  0  2  0  0  0  0  0  0
  192.6170  169.5540  141.2610 C   0  0  1  0  0  3  0  0  0  0  0  0
  191.7450  169.9380  142.4830 C   0  0  2  0  0  3  0  0  0  0  0  0
  191.6220  171.3390  142.5320 O   0  0  0  0  0  0  0  0  0  0  0  0
  194.0230  170.7830  145.0020 C   0  0  1  0  0  3  0  0  0  0  0  0
  195.3900  170.1100  145.0720 C   0  0  0  0  0  1  0  0  0  0  0  0
  194.1170  172.2400  145.4570 C   0  0  0  0  0  2  0  0  0  0  0  0
  194.9270  172.9810  144.5910 O   0  0  0  0  0  0  0  0  0  0  0  0
  195.0180  174.2530  145.1670 C   0  0  2  0  0  3  0  0  0  0  0  0
  197.4950  173.8770  145.5420 C   0  0  0  0  0  1  0  0  0  0  0  0
  196.1710  174.2900  146.1720 C   0  0  0  0  0  2  0  0  0  0  0  0
  193.6850  174.6270  145.8140 C   0  0  0  0  0  2  0  0  0  0  0  0
  193.2460  177.0810  144.7820 O   0  0  0  0  0  0  0  0  0  0  0  0
  192.7090  175.6760  144.7470 S   0  0  0  0  0  0  0  0  0  0  0  0
  192.7740  175.1540  143.3370 O   0  0  0  0  0  0  0  0  0  0  0  0
  191.0590  175.6760  145.2770 N   0  0  0  0  0  2  0  0  0  0  0  0
  190.6570  177.0590  145.4660 C   0  0  0  0  0  3  0  0  0  0  0  0
  189.8180  177.4470  144.4230 O   0  0  0  0  0  1  0  0  0  0  0  0
  189.9780  177.1840  146.6760 O   0  0  0  0  0  1  0  0  0  0  0  0
  187.1920  176.1760  141.2570 C   0  0  0  0  0  2  0  0  0  0  0  0
  187.1410  177.6400  140.8340 C   0  0  0  0  0  2  0  0  0  0  0  0
  185.8610  177.9250  140.0690 C   0  0  0  0  0  2  0  0  0  0  0  0
  180.9600  178.5300  140.6090 N   0  0  0  0  0  2  0  0  0  0  0  0
  182.2940  178.6520  142.5150 O   0  0  0  0  0  0  0  0  0  0  0  0
  184.7340  178.1820  141.0060 C   0  0  0  0  0  0  0  0  0  0  0  0
  184.9700  178.4510  142.2150 O   0  0  0  0  0  0  0  0  0  0  0  0
  182.2210  178.4590  141.2720 C   0  0  0  0  0  0  0  0  0  0  0  0
  183.3950  178.1730  140.5020 N   0  0  0  0  0  2  0  0  0  0  0  0
  177.9420  177.9920  140.0800 C   0  0  1  0  0  3  0  0  0  0  0  0
  178.9130  177.6960  141.2030 C   0  0  0  0  0  2  0  0  0  0  0  0
  179.0330  179.8570  140.5330 C   0  0  1  0  0  3  0  0  0  0  0  0
  178.3130  179.2180  139.5120 O   0  0  0  0  0  0  0  0  0  0  0  0
  179.7770  178.8550  141.3010 N   0  0  0  0  0  0  0  0  0  0  0  0
  177.8070  175.7160  139.4010 O   0  0  0  0  0  0  0  0  0  0  0  0
  177.9810  176.9120  139.0510 C   0  0  0  0  0  0  0  0  0  0  0  0
  178.2130  177.2220  137.6770 N   0  0  0  0  0  1  0  0  0  0  0  0
  179.9140  180.9900  139.9970 C   0  0  0  0  0  2  0  0  0  0  0  0
  179.2320  181.7260  138.8570 C   0  0  0  0  0  2  0  0  0  0  0  0
  179.0390  183.1860  139.2120 C   0  0  0  0  0  1  0  0  0  0  0  0
  1 12  1  0  0  0  0
  3  2  1  0  0  0  0
  4  1  2  0  0  0  0
  5  3  1  6  0  0  0
  5 11  1  0  0  0  0
  6 17  1  0  0  0  0
  6 16  1  0  0  0  0
  7  5  1  0  0  0  0
  7  6  1  1  0  0  0
  8  3  1  0  0  0  0
  9  1  1  0  0  0  0
  9 17  1  0  0  0  0
 10  3  1  0  0  0  0
 10 15  1  0  0  0  0
 11 16  1  0  0  0  0
 11 25  1  1  0  0  0
 12 49  1  0  0  0  0
 13 18  1  6  0  0  0
 13 15  1  0  0  0  0
 15 18  1  6  0  0  0
 15  7  1  0  0  0  0
 17 14  2  0  0  0  0
 21 13  1  0  0  0  0
 21 19  1  1  0  0  0
 22 23  1  0  0  0  0
 23 19  1  0  0  0  0
 24 22  1  0  0  0  0
 24 20  1  1  0  0  0
 24 21  1  0  0  0  0
 26 34  1  1  0  0  0
 27 31  1  0  0  0  0
 27 30  1  0  0  0  0
 28 26  1  0  0  0  0
 29 26  1  0  0  0  0
 30 26  1  0  0  0  0
 31 25  1  6  0  0  0
 31 32  1  0  0  0  0
 32 33  1  1  0  0  0
 32 29  1  0  0  0  0
 33 28  1  0  0  0  0
 34 35  1  6  0  0  0
 34 36  1  0  0  0  0
 37 38  1  0  0  0  0
 37 36  1  0  0  0  0
 38 41  1  1  0  0  0
 38 40  1  0  0  0  0
 39 40  1  0  0  0  0
 43 42  2  0  0  0  0
 43 45  1  0  0  0  0
 43 41  1  0  0  0  0
 44 43  2  0  0  0  0
 45 46  1  0  0  0  0
 46 48  1  0  0  0  0
 47 46  1  0  0  0  0
 50 49  1  0  0  0  0
 51 50  1  0  0  0  0
 51 54  1  0  0  0  0
 52 56  1  0  0  0  0
 52 62  1  0  0  0  0
 54 55  2  0  0  0  0
 56 53  2  0  0  0  0
 57 54  1  0  0  0  0
 57 56  1  0  0  0  0
 58 64  1  6  0  0  0
 58 59  1  0  0  0  0
 59 62  1  0  0  0  0
 60 66  1  6  0  0  0
 60 62  1  0  0  0  0
 61 58  1  0  0  0  0
 61 60  1  0  0  0  0
 64 63  2  0  0  0  0
 65 64  1  0  0  0  0
 67 68  1  0  0  0  0
 67 66  1  0  0  0  0
M  END
>  <MODEL>
4

>  <REMARK>
 VINA RESULT:      -6.0      4.193     10.298
  Name = 
  20 active torsions:
  status: ('A' for Active; 'I' for Inactive)
    1  A    between atoms: C_1  and  C_29
    2  A    between atoms: C_2  and  C_22
    3  A    between atoms: C_2  and  C_24
    4  A    between atoms: C_9  and  N_18
    5  A    between atoms: C_12  and  C_34
    6  A    between atoms: C_12  and  C_38
    7  A    between atoms: C_13  and  C_36
    8  A    between atoms: C_13  and  C_52
    9  A    between atoms: C_17  and  O_31
   10  A    between atoms: C_17  and  C_37
   11  A    between atoms: C_17  and  C_49
   12  A    between atoms: N_18  and  S_42
   13  A    between atoms: C_24  and  O_31
   14  A    between atoms: C_25  and  C_45
   15  A    between atoms: N_30  and  N_66
   16  A    between atoms: C_34  and  C_67
   17  A    between atoms: C_37  and  S_42
   18  A    between atoms: N_41  and  C_67
   19  A    between atoms: C_43  and  C_47
   20  A    between atoms: C_47  and  C_59
                            x       y       z     vdW  Elec       q    Type
                         _______ _______ _______ _____ _____    ______ ____

>  <TORSDO>
F 20

$$$$
=
 OpenBabel11062421063D

 68 74  0  0  1  0  0  0  0  0999 V2000
  190.5860  171.9720  141.5370 C   0  0  0  0  0  0  0  0  0  0  0  0
  197.3180  174.8690  144.6070 C   0  0  0  0  0  1  0  0  0  0  0  0
  196.4300  173.6440  144.4310 C   0  0  0  0  0  0  0  0  0  0  0  0
  190.1910  170.8000  141.7820 O   0  0  0  0  0  0  0  0  0  0  0  0
  194.9220  173.9730  144.5050 C   0  0  2  0  0  3  0  0  0  0  0  0
  193.5830  174.0870  142.6310 N   0  0  0  0  0  0  0  0  0  0  0  0
  194.2850  173.1280  143.4570 C   0  0  1  0  0  3  0  0  0  0  0  0
  196.7680  172.6710  145.5480 C   0  0  0  0  0  1  0  0  0  0  0  0
  191.8180  172.4270  142.1050 N   0  0  0  0  0  2  0  0  0  0  0  0
  196.7160  173.0370  143.1910 O   0  0  0  0  0  0  0  0  0  0  0  0
  194.5740  175.4020  144.0690 C   0  0  1  0  0  3  0  0  0  0  0  0
  189.8050  172.8280  140.6960 N   0  0  0  0  0  2  0  0  0  0  0  0
  195.3610  172.0230  141.3100 C   0  0  2  0  0  3  0  0  0  0  0  0
  191.6310  174.6850  141.5190 O   0  0  0  0  0  0  0  0  0  0  0  0
  195.4770  172.5810  142.7210 C   0  0  2  0  0  0  0  0  0  0  0  0
  193.9600  175.3810  142.7990 O   0  0  0  0  0  0  0  0  0  0  0  0
  192.3120  173.7720  142.0560 C   0  0  0  0  0  0  0  0  0  0  0  0
  195.4460  171.0850  142.5100 C   0  0  0  0  0  2  0  0  0  0  0  0
  196.8000  173.2490  139.8340 O   0  0  0  0  0  0  0  0  0  0  0  0
  195.6740  170.4740  139.1090 F   0  0  0  0  0  0  0  0  0  0  0  0
  196.6990  172.0690  140.5770 C   0  0  2  0  0  3  0  0  0  0  0  0
  197.6350  171.5990  138.5090 C   0  0  0  0  0  2  0  0  0  0  0  0
  197.7480  173.0000  138.8850 N   0  0  0  0  0  2  0  0  0  0  0  0
  196.8850  170.9240  139.6120 C   0  0  2  0  0  3  0  0  0  0  0  0
  193.7180  176.1210  145.1170 C   0  0  0  0  0  2  0  0  0  0  0  0
  189.8750  175.8860  146.3960 C   0  0  1  0  0  0  0  0  0  0  0  0
  192.1070  174.9170  146.4870 O   0  0  0  0  0  0  0  0  0  0  0  0
  190.4250  176.9790  147.0890 O   0  0  0  0  0  0  0  0  0  0  0  0
  190.0210  176.1660  145.0430 O   0  0  0  0  0  0  0  0  0  0  0  0
  190.7290  174.6280  146.6820 C   0  0  0  0  0  2  0  0  0  0  0  0
  192.2950  175.5810  145.2400 C   0  0  1  0  0  3  0  0  0  0  0  0
  191.2820  176.7430  145.0890 C   0  0  2  0  0  3  0  0  0  0  0  0
  191.3100  177.5270  146.2570 O   0  0  0  0  0  0  0  0  0  0  0  0
  188.4010  175.6670  146.7600 C   0  0  1  0  0  3  0  0  0  0  0  0
  188.2380  174.6800  147.9110 C   0  0  0  0  0  1  0  0  0  0  0  0
  187.6560  176.9690  147.0580 C   0  0  0  0  0  2  0  0  0  0  0  0
  187.6350  177.7990  145.9330 O   0  0  0  0  0  0  0  0  0  0  0  0
  186.3730  178.4040  145.9440 C   0  0  2  0  0  3  0  0  0  0  0  0
  186.3940  179.6340  148.1590 C   0  0  0  0  0  1  0  0  0  0  0  0
  185.8310  178.4570  147.3740 C   0  0  0  0  0  2  0  0  0  0  0  0
  185.4300  177.6570  145.0030 C   0  0  0  0  0  2  0  0  0  0  0  0
  183.5380  178.6090  143.3320 O   0  0  0  0  0  0  0  0  0  0  0  0
  185.0240  178.6370  143.5660 S   0  0  0  0  0  0  0  0  0  0  0  0
  185.4640  180.0590  143.7890 O   0  0  0  0  0  0  0  0  0  0  0  0
  185.8400  178.0020  142.1750 N   0  0  0  0  0  2  0  0  0  0  0  0
  186.9100  177.1400  142.6470 C   0  0  0  0  0  3  0  0  0  0  0  0
  186.4840  175.8130  142.6190 O   0  0  0  0  0  1  0  0  0  0  0  0
  188.0220  177.2870  141.8210 O   0  0  0  0  0  1  0  0  0  0  0  0
  188.4420  172.5040  140.2880 C   0  0  0  0  0  2  0  0  0  0  0  0
  188.2830  172.6860  138.7830 C   0  0  0  0  0  2  0  0  0  0  0  0
  189.1370  173.8440  138.2970 C   0  0  0  0  0  2  0  0  0  0  0  0
  192.5490  171.3700  135.6680 N   0  0  0  0  0  2  0  0  0  0  0  0
  191.0570  172.7380  134.5130 O   0  0  0  0  0  0  0  0  0  0  0  0
  189.7010  173.5530  136.9510 C   0  0  0  0  0  0  0  0  0  0  0  0
  189.2820  174.1840  135.9440 O   0  0  0  0  0  0  0  0  0  0  0  0
  191.4330  172.2570  135.6160 C   0  0  0  0  0  0  0  0  0  0  0  0
  190.7570  172.5950  136.8330 N   0  0  0  0  0  2  0  0  0  0  0  0
  195.0290  169.5680  135.1440 C   0  0  1  0  0  3  0  0  0  0  0  0
  193.6090  169.6300  134.6250 C   0  0  0  0  0  2  0  0  0  0  0  0
  194.6080  171.6630  134.5930 C   0  0  1  0  0  3  0  0  0  0  0  0
  195.4430  170.8810  135.4050 O   0  0  0  0  0  0  0  0  0  0  0  0
  193.2850  171.0380  134.5140 N   0  0  0  0  0  0  0  0  0  0  0  0
  196.2030  168.2580  136.7450 O   0  0  0  0  0  0  0  0  0  0  0  0
  195.1000  168.7450  136.3870 C   0  0  0  0  0  0  0  0  0  0  0  0
  193.9320  168.5080  137.1720 N   0  0  0  0  0  1  0  0  0  0  0  0
  194.5630  173.1250  135.0500 C   0  0  0  0  0  2  0  0  0  0  0  0
  195.2670  173.3070  136.3830 C   0  0  0  0  0  2  0  0  0  0  0  0
  194.3770  174.0590  137.3520 C   0  0  0  0  0  1  0  0  0  0  0  0
  1  4  2  0  0  0  0
  1  9  1  0  0  0  0
  3  2  1  0  0  0  0
  3  8  1  0  0  0  0
  5  3  1  6  0  0  0
  6 16  1  0  0  0  0
  7  6  1  6  0  0  0
  7  5  1  0  0  0  0
 10  3  1  0  0  0  0
 11  5  1  0  0  0  0
 11 25  1  1  0  0  0
 12  1  1  0  0  0  0
 13 18  1  1  0  0  0
 13 15  1  0  0  0  0
 14 17  2  0  0  0  0
 15 18  1  1  0  0  0
 15 10  1  0  0  0  0
 15  7  1  0  0  0  0
 16 11  1  0  0  0  0
 17  9  1  0  0  0  0
 17  6  1  0  0  0  0
 21 19  1  6  0  0  0
 21 13  1  0  0  0  0
 22 23  1  0  0  0  0
 22 24  1  0  0  0  0
 23 19  1  0  0  0  0
 24 20  1  6  0  0  0
 24 21  1  0  0  0  0
 26 30  1  0  0  0  0
 26 34  1  1  0  0  0
 26 28  1  0  0  0  0
 27 30  1  0  0  0  0
 29 26  1  0  0  0  0
 31 25  1  1  0  0  0
 31 27  1  0  0  0  0
 32 29  1  1  0  0  0
 32 31  1  0  0  0  0
 32 33  1  0  0  0  0
 33 28  1  0  0  0  0
 34 36  1  0  0  0  0
 34 35  1  1  0  0  0
 37 38  1  0  0  0  0
 37 36  1  0  0  0  0
 38 41  1  6  0  0  0
 38 40  1  0  0  0  0
 40 39  1  0  0  0  0
 42 43  2  0  0  0  0
 43 44  2  0  0  0  0
 43 41  1  0  0  0  0
 45 46  1  0  0  0  0
 45 43  1  0  0  0  0
 47 46  1  0  0  0  0
 48 46  1  0  0  0  0
 49 12  1  0  0  0  0
 50 49  1  0  0  0  0
 51 50  1  0  0  0  0
 53 56  2  0  0  0  0
 54 51  1  0  0  0  0
 55 54  2  0  0  0  0
 56 52  1  0  0  0  0
 56 57  1  0  0  0  0
 57 54  1  0  0  0  0
 58 61  1  0  0  0  0
 58 64  1  1  0  0  0
 59 58  1  0  0  0  0
 60 66  1  1  0  0  0
 60 61  1  0  0  0  0
 62 60  1  0  0  0  0
 62 59  1  0  0  0  0
 62 52  1  0  0  0  0
 64 63  2  0  0  0  0
 64 65  1  0  0  0  0
 66 67  1  0  0  0  0
 67 68  1  0  0  0  0
M  END
>  <MODEL>
5

>  <REMARK>
 VINA RESULT:      -5.4      2.050      3.002
  Name = 
  20 active torsions:
  status: ('A' for Active; 'I' for Inactive)
    1  A    between atoms: C_1  and  C_29
    2  A    between atoms: C_2  and  C_22
    3  A    between atoms: C_2  and  C_24
    4  A    between atoms: C_9  and  N_18
    5  A    between atoms: C_12  and  C_34
    6  A    between atoms: C_12  and  C_38
    7  A    between atoms: C_13  and  C_36
    8  A    between atoms: C_13  and  C_52
    9  A    between atoms: C_17  and  O_31
   10  A    between atoms: C_17  and  C_37
   11  A    between atoms: C_17  and  C_49
   12  A    between atoms: N_18  and  S_42
   13  A    between atoms: C_24  and  O_31
   14  A    between atoms: C_25  and  C_45
   15  A    between atoms: N_30  and  N_66
   16  A    between atoms: C_34  and  C_67
   17  A    between atoms: C_37  and  S_42
   18  A    between atoms: N_41  and  C_67
   19  A    between atoms: C_43  and  C_47
   20  A    between atoms: C_47  and  C_59
                            x       y       z     vdW  Elec       q    Type
                         _______ _______ _______ _____ _____    ______ ____

>  <TORSDO>
F 20

$$$$
=
 OpenBabel11062421063D

 68 74  0  0  1  0  0  0  0  0999 V2000
  190.5630  172.0010  141.6950 C   0  0  0  0  0  0  0  0  0  0  0  0
  197.6280  174.7380  144.0890 C   0  0  0  0  0  1  0  0  0  0  0  0
  196.6460  173.5750  144.1130 C   0  0  0  0  0  0  0  0  0  0  0  0
  190.0960  170.9060  142.1110 O   0  0  0  0  0  0  0  0  0  0  0  0
  195.1710  174.0280  144.1990 C   0  0  2  0  0  3  0  0  0  0  0  0
  193.7550  174.0000  142.3790 N   0  0  0  0  0  0  0  0  0  0  0  0
  194.4240  173.1050  143.2990 C   0  0  1  0  0  3  0  0  0  0  0  0
  196.9660  172.7340  145.3370 C   0  0  0  0  0  1  0  0  0  0  0  0
  191.8500  172.4280  142.1490 N   0  0  0  0  0  2  0  0  0  0  0  0
  196.8260  172.7900  142.9560 O   0  0  0  0  0  0  0  0  0  0  0  0
  194.9070  175.4100  143.5880 C   0  0  1  0  0  3  0  0  0  0  0  0
  189.8070  172.7970  140.7770 N   0  0  0  0  0  2  0  0  0  0  0  0
  195.3120  171.6470  141.2820 C   0  0  2  0  0  3  0  0  0  0  0  0
  191.8000  174.5970  141.2710 O   0  0  0  0  0  0  0  0  0  0  0  0
  195.5360  172.3750  142.5990 C   0  0  2  0  0  0  0  0  0  0  0  0
  194.2330  175.2710  142.3560 O   0  0  0  0  0  0  0  0  0  0  0  0
  192.4380  173.7120  141.9010 C   0  0  0  0  0  0  0  0  0  0  0  0
  195.3870  170.8710  142.5930 C   0  0  0  0  0  2  0  0  0  0  0  0
  196.5730  172.2690  139.3380 O   0  0  0  0  0  0  0  0  0  0  0  0
  195.6990  169.3630  139.8740 F   0  0  0  0  0  0  0  0  0  0  0  0
  196.6140  171.4900  140.4990 C   0  0  2  0  0  3  0  0  0  0  0  0
  197.5190  170.2900  138.7340 C   0  0  0  0  0  2  0  0  0  0  0  0
  197.5070  171.7280  138.5050 N   0  0  0  0  0  2  0  0  0  0  0  0
  196.8760  170.0680  140.0660 C   0  0  2  0  0  3  0  0  0  0  0  0
  194.1570  176.3260  144.5620 C   0  0  0  0  0  2  0  0  0  0  0  0
  190.2100  176.4730  145.4870 C   0  0  1  0  0  0  0  0  0  0  0  0
  192.4780  176.1510  146.3130 O   0  0  0  0  0  0  0  0  0  0  0  0
  190.5830  177.8100  145.2640 O   0  0  0  0  0  0  0  0  0  0  0  0
  190.5070  175.7820  144.3190 O   0  0  0  0  0  0  0  0  0  0  0  0
  191.1120  175.8770  146.5950 C   0  0  0  0  0  2  0  0  0  0  0  0
  192.7740  175.8160  144.9610 C   0  0  1  0  0  3  0  0  0  0  0  0
  191.7050  176.4100  144.0100 C   0  0  2  0  0  3  0  0  0  0  0  0
  191.5240  177.7700  144.3210 O   0  0  0  0  0  0  0  0  0  0  0  0
  188.7220  176.3500  145.8390 C   0  0  1  0  0  3  0  0  0  0  0  0
  188.2500  177.4920  146.7330 C   0  0  0  0  0  1  0  0  0  0  0  0
  187.8220  176.2240  144.6080 C   0  0  0  0  0  2  0  0  0  0  0  0
  187.9860  177.3210  143.7570 O   0  0  0  0  0  0  0  0  0  0  0  0
  187.0130  177.1670  142.7640 C   0  0  2  0  0  3  0  0  0  0  0  0
  186.7180  176.6370  140.3040 C   0  0  0  0  0  1  0  0  0  0  0  0
  187.6340  176.5340  141.5170 C   0  0  0  0  0  2  0  0  0  0  0  0
  186.3650  178.5160  142.4560 C   0  0  0  0  0  2  0  0  0  0  0  0
  184.3030  177.2680  143.6700 O   0  0  0  0  0  0  0  0  0  0  0  0
  184.6660  178.5690  143.0050 S   0  0  0  0  0  0  0  0  0  0  0  0
  184.4920  179.6950  143.9890 O   0  0  0  0  0  0  0  0  0  0  0  0
  183.6210  178.8350  141.6480 N   0  0  0  0  0  2  0  0  0  0  0  0
  182.2960  178.3610  142.0130 C   0  0  0  0  0  3  0  0  0  0  0  0
  181.7070  179.2640  142.8960 O   0  0  0  0  0  1  0  0  0  0  0  0
  181.5110  178.2540  140.8670 O   0  0  0  0  0  1  0  0  0  0  0  0
  188.4050  172.5300  140.4680 C   0  0  0  0  0  2  0  0  0  0  0  0
  188.1140  172.8580  139.0080 C   0  0  0  0  0  2  0  0  0  0  0  0
  188.8440  174.1240  138.5940 C   0  0  0  0  0  2  0  0  0  0  0  0
  192.7260  172.3130  136.0790 N   0  0  0  0  0  2  0  0  0  0  0  0
  191.0520  173.3980  134.8760 O   0  0  0  0  0  0  0  0  0  0  0  0
  189.4940  173.9450  137.2680 C   0  0  0  0  0  0  0  0  0  0  0  0
  189.0010  174.4970  136.2470 O   0  0  0  0  0  0  0  0  0  0  0  0
  191.4720  172.9870  135.9900 C   0  0  0  0  0  0  0  0  0  0  0  0
  190.7080  173.1920  137.1840 N   0  0  0  0  0  2  0  0  0  0  0  0
  194.7000  170.0730  135.2060 C   0  0  1  0  0  3  0  0  0  0  0  0
  193.4640  170.7160  134.6150 C   0  0  0  0  0  2  0  0  0  0  0  0
  194.9500  172.2610  135.3490 C   0  0  1  0  0  3  0  0  0  0  0  0
  195.3880  171.0600  135.9250 O   0  0  0  0  0  0  0  0  0  0  0  0
  193.5460  172.1230  134.9500 N   0  0  0  0  0  0  0  0  0  0  0  0
  195.2060  168.4090  136.8300 O   0  0  0  0  0  0  0  0  0  0  0  0
  194.3260  168.9430  136.1070 C   0  0  0  0  0  0  0  0  0  0  0  0
  192.9820  168.4650  136.1560 N   0  0  0  0  0  1  0  0  0  0  0  0
  195.2070  173.4660  136.2600 C   0  0  0  0  0  2  0  0  0  0  0  0
  196.1420  174.4650  135.6000 C   0  0  0  0  0  2  0  0  0  0  0  0
  197.3380  173.7530  135.0020 C   0  0  0  0  0  1  0  0  0  0  0  0
  1  4  2  0  0  0  0
  1  9  1  0  0  0  0
  2  3  1  0  0  0  0
  3  8  1  0  0  0  0
  5  3  1  6  0  0  0
  7  6  1  6  0  0  0
  7  5  1  0  0  0  0
 10  3  1  0  0  0  0
 11  5  1  0  0  0  0
 11 25  1  1  0  0  0
 12  1  1  0  0  0  0
 13 18  1  1  0  0  0
 13 15  1  0  0  0  0
 14 17  2  0  0  0  0
 15 18  1  1  0  0  0
 15 10  1  0  0  0  0
 15  7  1  0  0  0  0
 16  6  1  0  0  0  0
 16 11  1  0  0  0  0
 17  9  1  0  0  0  0
 17  6  1  0  0  0  0
 21 19  1  6  0  0  0
 21 13  1  0  0  0  0
 22 24  1  0  0  0  0
 23 22  1  0  0  0  0
 23 19  1  0  0  0  0
 24 20  1  6  0  0  0
 24 21  1  0  0  0  0
 26 34  1  1  0  0  0
 26 30  1  0  0  0  0
 27 30  1  0  0  0  0
 28 26  1  0  0  0  0
 29 26  1  0  0  0  0
 31 25  1  6  0  0  0
 31 27  1  0  0  0  0
 32 29  1  1  0  0  0
 32 33  1  0  0  0  0
 32 31  1  0  0  0  0
 33 28  1  0  0  0  0
 34 35  1  6  0  0  0
 36 34  1  0  0  0  0
 37 36  1  0  0  0  0
 38 40  1  6  0  0  0
 38 37  1  0  0  0  0
 39 40  1  0  0  0  0
 41 38  1  0  0  0  0
 41 43  1  0  0  0  0
 43 42  2  0  0  0  0
 43 44  2  0  0  0  0
 45 46  1  0  0  0  0
 45 43  1  0  0  0  0
 46 47  1  0  0  0  0
 48 46  1  0  0  0  0
 49 12  1  0  0  0  0
 50 49  1  0  0  0  0
 51 50  1  0  0  0  0
 53 56  2  0  0  0  0
 54 51  1  0  0  0  0
 55 54  2  0  0  0  0
 56 52  1  0  0  0  0
 56 57  1  0  0  0  0
 57 54  1  0  0  0  0
 58 61  1  0  0  0  0
 58 64  1  1  0  0  0
 59 62  1  0  0  0  0
 59 58  1  0  0  0  0
 60 61  1  0  0  0  0
 60 66  1  1  0  0  0
 62 60  1  0  0  0  0
 62 52  1  0  0  0  0
 64 65  1  0  0  0  0
 64 63  2  0  0  0  0
 67 66  1  0  0  0  0
 68 67  1  0  0  0  0
M  END
>  <MODEL>
6

>  <REMARK>
 VINA RESULT:      -5.1      2.086      3.193
  Name = 
  20 active torsions:
  status: ('A' for Active; 'I' for Inactive)
    1  A    between atoms: C_1  and  C_29
    2  A    between atoms: C_2  and  C_22
    3  A    between atoms: C_2  and  C_24
    4  A    between atoms: C_9  and  N_18
    5  A    between atoms: C_12  and  C_34
    6  A    between atoms: C_12  and  C_38
    7  A    between atoms: C_13  and  C_36
    8  A    between atoms: C_13  and  C_52
    9  A    between atoms: C_17  and  O_31
   10  A    between atoms: C_17  and  C_37
   11  A    between atoms: C_17  and  C_49
   12  A    between atoms: N_18  and  S_42
   13  A    between atoms: C_24  and  O_31
   14  A    between atoms: C_25  and  C_45
   15  A    between atoms: N_30  and  N_66
   16  A    between atoms: C_34  and  C_67
   17  A    between atoms: C_37  and  S_42
   18  A    between atoms: N_41  and  C_67
   19  A    between atoms: C_43  and  C_47
   20  A    between atoms: C_47  and  C_59
                            x       y       z     vdW  Elec       q    Type
                         _______ _______ _______ _____ _____    ______ ____

>  <TORSDO>
F 20

$$$$
=
 OpenBabel11062421063D

 68 74  0  0  1  0  0  0  0  0999 V2000
  196.0720  171.2530  141.3900 C   0  0  0  0  0  0  0  0  0  0  0  0
  189.5850  171.9460  136.8530 C   0  0  0  0  0  1  0  0  0  0  0  0
  190.9660  172.4980  137.1830 C   0  0  0  0  0  0  0  0  0  0  0  0
  196.9990  172.1080  141.3630 O   0  0  0  0  0  0  0  0  0  0  0  0
  191.2880  172.4620  138.6930 C   0  0  2  0  0  3  0  0  0  0  0  0
  192.6940  170.8900  139.6250 N   0  0  0  0  0  0  0  0  0  0  0  0
  192.7210  172.0630  138.7790 C   0  0  1  0  0  3  0  0  0  0  0  0
  191.0030  173.9420  136.7140 C   0  0  0  0  0  1  0  0  0  0  0  0
  194.9390  171.4260  140.5330 N   0  0  0  0  0  2  0  0  0  0  0  0
  191.9410  171.7620  136.4790 O   0  0  0  0  0  0  0  0  0  0  0  0
  190.5640  171.3480  139.4600 C   0  0  1  0  0  3  0  0  0  0  0  0
  196.1630  170.1270  142.2690 N   0  0  0  0  0  2  0  0  0  0  0  0
  194.2150  170.7870  137.0100 C   0  0  2  0  0  3  0  0  0  0  0  0
  193.5940  169.7330  141.4310 O   0  0  0  0  0  0  0  0  0  0  0  0
  193.0280  171.6730  137.3590 C   0  0  2  0  0  0  0  0  0  0  0  0
  191.4720  170.3200  139.7870 O   0  0  0  0  0  0  0  0  0  0  0  0
  193.7400  170.6400  140.5680 C   0  0  0  0  0  0  0  0  0  0  0  0
  194.2850  172.2970  136.7990 C   0  0  0  0  0  2  0  0  0  0  0  0
  193.0520  169.0660  135.8110 O   0  0  0  0  0  0  0  0  0  0  0  0
  196.1110  169.0370  136.1830 F   0  0  0  0  0  0  0  0  0  0  0  0
  194.0100  170.0750  135.6750 C   0  0  2  0  0  3  0  0  0  0  0  0
  194.7050  168.1930  134.5140 C   0  0  0  0  0  2  0  0  0  0  0  0
  193.2720  168.2150  134.7680 N   0  0  0  0  0  2  0  0  0  0  0  0
  195.2670  169.4230  135.1530 C   0  0  2  0  0  3  0  0  0  0  0  0
  189.8320  171.8930  140.6910 C   0  0  0  0  0  2  0  0  0  0  0  0
  188.5300  175.5290  141.9330 C   0  0  1  0  0  0  0  0  0  0  0  0
  188.3060  173.7450  140.2910 O   0  0  0  0  0  0  0  0  0  0  0  0
  187.9970  174.6140  142.8590 O   0  0  0  0  0  0  0  0  0  0  0  0
  189.9100  175.3630  141.9680 O   0  0  0  0  0  0  0  0  0  0  0  0
  188.0720  175.1300  140.5100 C   0  0  0  0  0  2  0  0  0  0  0  0
  189.6340  173.4070  140.6830 C   0  0  1  0  0  3  0  0  0  0  0  0
  189.9450  173.9810  142.0870 C   0  0  2  0  0  3  0  0  0  0  0  0
  188.8990  173.6380  142.9630 O   0  0  0  0  0  0  0  0  0  0  0  0
  188.1390  176.9730  142.2730 C   0  0  1  0  0  3  0  0  0  0  0  0
  189.3200  177.9290  142.1470 C   0  0  0  0  0  1  0  0  0  0  0  0
  186.9470  177.4790  141.4580 C   0  0  0  0  0  2  0  0  0  0  0  0
  186.1320  178.3100  142.2310 O   0  0  0  0  0  0  0  0  0  0  0  0
  184.9560  177.5820  142.4410 C   0  0  2  0  0  3  0  0  0  0  0  0
  183.9740  178.6120  140.3450 C   0  0  0  0  0  1  0  0  0  0  0  0
  183.7660  178.3210  141.8260 C   0  0  0  0  0  2  0  0  0  0  0  0
  184.7600  177.3300  143.9350 C   0  0  0  0  0  2  0  0  0  0  0  0
  185.7460  179.8380  144.0860 O   0  0  0  0  0  0  0  0  0  0  0  0
  185.5280  178.6060  144.9220 S   0  0  0  0  0  0  0  0  0  0  0  0
  184.6320  178.9470  146.0830 O   0  0  0  0  0  0  0  0  0  0  0  0
  187.0510  178.0420  145.5270 N   0  0  0  0  0  2  0  0  0  0  0  0
  186.8000  177.3580  146.7840 C   0  0  0  0  0  3  0  0  0  0  0  0
  187.4800  176.1420  146.7950 O   0  0  0  0  0  1  0  0  0  0  0  0
  187.2470  178.1490  147.8400 O   0  0  0  0  0  1  0  0  0  0  0  0
  197.1690  170.0270  143.3220 C   0  0  0  0  0  2  0  0  0  0  0  0
  197.3830  171.3860  143.9790 C   0  0  0  0  0  2  0  0  0  0  0  0
  196.9050  171.3570  145.4200 C   0  0  0  0  0  2  0  0  0  0  0  0
  194.1400  175.4030  144.6020 N   0  0  0  0  0  2  0  0  0  0  0  0
  195.5490  175.3970  146.4590 O   0  0  0  0  0  0  0  0  0  0  0  0
  196.5320  172.7240  145.8770 C   0  0  0  0  0  0  0  0  0  0  0  0
  197.1490  173.2550  146.8400 O   0  0  0  0  0  0  0  0  0  0  0  0
  195.0890  174.7750  145.4640 C   0  0  0  0  0  0  0  0  0  0  0  0
  195.5100  173.4370  145.1740 N   0  0  0  0  0  2  0  0  0  0  0  0
  191.5720  176.6930  145.7920 C   0  0  1  0  0  3  0  0  0  0  0  0
  193.0540  176.7620  146.0910 C   0  0  0  0  0  2  0  0  0  0  0  0
  192.6250  177.0360  143.8830 C   0  0  1  0  0  3  0  0  0  0  0  0
  191.4260  176.5320  144.4080 O   0  0  0  0  0  0  0  0  0  0  0  0
  193.7230  176.7330  144.8060 N   0  0  0  0  0  0  0  0  0  0  0  0
  190.3290  174.6660  145.8640 O   0  0  0  0  0  0  0  0  0  0  0  0
  190.9410  175.5500  146.5160 C   0  0  0  0  0  0  0  0  0  0  0  0
  191.0270  175.4510  147.9370 N   0  0  0  0  0  1  0  0  0  0  0  0
  192.8800  176.5480  142.4530 C   0  0  0  0  0  2  0  0  0  0  0  0
  194.1460  175.7120  142.3750 C   0  0  0  0  0  2  0  0  0  0  0  0
  193.8260  174.3150  141.8820 C   0  0  0  0  0  1  0  0  0  0  0  0
  1 12  1  0  0  0  0
  2  3  1  0  0  0  0
  4  1  2  0  0  0  0
  5  3  1  6  0  0  0
  5  7  1  0  0  0  0
  5 11  1  0  0  0  0
  6 16  1  0  0  0  0
  6 17  1  0  0  0  0
  7  6  1  1  0  0  0
  8  3  1  0  0  0  0
  9 17  1  0  0  0  0
  9  1  1  0  0  0  0
 10  3  1  0  0  0  0
 10 15  1  0  0  0  0
 11 16  1  0  0  0  0
 11 25  1  1  0  0  0
 12 49  1  0  0  0  0
 13 18  1  6  0  0  0
 13 15  1  0  0  0  0
 15 18  1  6  0  0  0
 15  7  1  0  0  0  0
 17 14  2  0  0  0  0
 21 19  1  1  0  0  0
 21 13  1  0  0  0  0
 22 23  1  0  0  0  0
 22 24  1  0  0  0  0
 23 19  1  0  0  0  0
 24 21  1  0  0  0  0
 24 20  1  1  0  0  0
 26 29  1  0  0  0  0
 26 34  1  1  0  0  0
 26 28  1  0  0  0  0
 27 30  1  0  0  0  0
 27 31  1  0  0  0  0
 28 33  1  0  0  0  0
 30 26  1  0  0  0  0
 31 25  1  1  0  0  0
 31 32  1  0  0  0  0
 32 29  1  6  0  0  0
 32 33  1  0  0  0  0
 34 35  1  6  0  0  0
 36 37  1  0  0  0  0
 36 34  1  0  0  0  0
 37 38  1  0  0  0  0
 38 40  1  1  0  0  0
 38 41  1  0  0  0  0
 39 40  1  0  0  0  0
 41 43  1  0  0  0  0
 42 43  2  0  0  0  0
 43 45  1  0  0  0  0
 43 44  2  0  0  0  0
 45 46  1  0  0  0  0
 46 47  1  0  0  0  0
 46 48  1  0  0  0  0
 49 50  1  0  0  0  0
 50 51  1  0  0  0  0
 51 54  1  0  0  0  0
 52 62  1  0  0  0  0
 52 56  1  0  0  0  0
 54 55  2  0  0  0  0
 56 53  2  0  0  0  0
 57 56  1  0  0  0  0
 57 54  1  0  0  0  0
 58 59  1  0  0  0  0
 58 64  1  1  0  0  0
 60 66  1  6  0  0  0
 60 61  1  0  0  0  0
 60 62  1  0  0  0  0
 61 58  1  0  0  0  0
 62 59  1  0  0  0  0
 63 64  2  0  0  0  0
 64 65  1  0  0  0  0
 67 66  1  0  0  0  0
 68 67  1  0  0  0  0
M  END
>  <MODEL>
7

>  <REMARK>
 VINA RESULT:      -4.6      2.720      7.484
  Name = 
  20 active torsions:
  status: ('A' for Active; 'I' for Inactive)
    1  A    between atoms: C_1  and  C_29
    2  A    between atoms: C_2  and  C_22
    3  A    between atoms: C_2  and  C_24
    4  A    between atoms: C_9  and  N_18
    5  A    between atoms: C_12  and  C_34
    6  A    between atoms: C_12  and  C_38
    7  A    between atoms: C_13  and  C_36
    8  A    between atoms: C_13  and  C_52
    9  A    between atoms: C_17  and  O_31
   10  A    between atoms: C_17  and  C_37
   11  A    between atoms: C_17  and  C_49
   12  A    between atoms: N_18  and  S_42
   13  A    between atoms: C_24  and  O_31
   14  A    between atoms: C_25  and  C_45
   15  A    between atoms: N_30  and  N_66
   16  A    between atoms: C_34  and  C_67
   17  A    between atoms: C_37  and  S_42
   18  A    between atoms: N_41  and  C_67
   19  A    between atoms: C_43  and  C_47
   20  A    between atoms: C_47  and  C_59
                            x       y       z     vdW  Elec       q    Type
                         _______ _______ _______ _____ _____    ______ ____

>  <TORSDO>
F 20

$$$$
=
 OpenBabel11062421063D

 68 74  0  0  1  0  0  0  0  0999 V2000
  195.5020  173.2230  138.9840 C   0  0  0  0  0  0  0  0  0  0  0  0
  189.7260  173.6620  144.4230 C   0  0  0  0  0  1  0  0  0  0  0  0
  190.7900  172.7880  143.7720 C   0  0  0  0  0  0  0  0  0  0  0  0
  196.0810  172.1360  138.7120 O   0  0  0  0  0  0  0  0  0  0  0  0
  190.9310  173.0350  142.2540 C   0  0  2  0  0  3  0  0  0  0  0  0
  192.6730  174.2470  141.3510 N   0  0  0  0  0  0  0  0  0  0  0  0
  192.3950  172.9750  141.9820 C   0  0  1  0  0  3  0  0  0  0  0  0
  190.3860  171.3400  143.9920 C   0  0  0  0  0  1  0  0  0  0  0  0
  194.4830  173.2390  139.9880 N   0  0  0  0  0  2  0  0  0  0  0  0
  192.0300  173.0190  144.4010 O   0  0  0  0  0  0  0  0  0  0  0  0
  190.5470  174.4530  141.8140 C   0  0  1  0  0  3  0  0  0  0  0  0
  195.8710  174.4210  138.2930 N   0  0  0  0  0  2  0  0  0  0  0  0
  194.4240  173.3230  143.6410 C   0  0  2  0  0  3  0  0  0  0  0  0
  193.7020  175.4140  139.6220 O   0  0  0  0  0  0  0  0  0  0  0  0
  192.9750  172.9450  143.3690 C   0  0  2  0  0  0  0  0  0  0  0  0
  191.7070  175.1910  141.5000 O   0  0  0  0  0  0  0  0  0  0  0  0
  193.6270  174.3490  140.2900 C   0  0  0  0  0  0  0  0  0  0  0  0
  194.0000  171.8580  143.5930 C   0  0  0  0  0  2  0  0  0  0  0  0
  194.5640  175.1630  145.1730 O   0  0  0  0  0  0  0  0  0  0  0  0
  196.9310  173.2550  144.6680 F   0  0  0  0  0  0  0  0  0  0  0  0
  194.6260  173.7680  145.0870 C   0  0  2  0  0  3  0  0  0  0  0  0
  196.2830  174.5250  146.5210 C   0  0  0  0  0  2  0  0  0  0  0  0
  195.2020  175.4830  146.3350 N   0  0  0  0  0  2  0  0  0  0  0  0
  195.9610  173.3510  145.6530 C   0  0  2  0  0  3  0  0  0  0  0  0
  189.5390  174.4340  140.6600 C   0  0  0  0  0  2  0  0  0  0  0  0
  186.9020  177.1170  142.1780 C   0  0  1  0  0  0  0  0  0  0  0  0
  187.8860  174.8990  142.3830 O   0  0  0  0  0  0  0  0  0  0  0  0
  188.1710  177.6090  142.5350 O   0  0  0  0  0  0  0  0  0  0  0  0
  186.8960  177.0180  140.7920 O   0  0  0  0  0  0  0  0  0  0  0  0
  186.7470  175.6780  142.7250 C   0  0  0  0  0  2  0  0  0  0  0  0
  188.1870  175.0570  140.9990 C   0  0  1  0  0  3  0  0  0  0  0  0
  188.1930  176.5570  140.6150 C   0  0  2  0  0  3  0  0  0  0  0  0
  188.9860  177.2610  141.5400 O   0  0  0  0  0  0  0  0  0  0  0  0
  185.7780  178.0370  142.6710 C   0  0  1  0  0  3  0  0  0  0  0  0
  184.4400  177.7040  142.0180 C   0  0  0  0  0  1  0  0  0  0  0  0
  185.6430  178.0580  144.1940 C   0  0  0  0  0  2  0  0  0  0  0  0
  186.0690  176.8470  144.7480 O   0  0  0  0  0  0  0  0  0  0  0  0
  186.3140  177.1230  146.0980 C   0  0  2  0  0  3  0  0  0  0  0  0
  185.3250  178.6340  147.8750 C   0  0  0  0  0  1  0  0  0  0  0  0
  185.0350  177.6290  146.7680 C   0  0  0  0  0  2  0  0  0  0  0  0
  187.4590  178.1270  146.2230 C   0  0  0  0  0  2  0  0  0  0  0  0
  189.3280  177.8400  148.1490 O   0  0  0  0  0  0  0  0  0  0  0  0
  188.9640  177.3390  146.7770 S   0  0  0  0  0  0  0  0  0  0  0  0
  188.7580  175.8490  146.8310 O   0  0  0  0  0  0  0  0  0  0  0  0
  190.2510  177.6950  145.6730 N   0  0  0  0  0  2  0  0  0  0  0  0
  191.0890  176.5110  145.5770 C   0  0  0  0  0  3  0  0  0  0  0  0
  191.7370  176.4980  144.3430 O   0  0  0  0  0  1  0  0  0  0  0  0
  192.0380  176.5310  146.5980 O   0  0  0  0  0  1  0  0  0  0  0  0
  196.7250  174.4190  137.1090 C   0  0  0  0  0  2  0  0  0  0  0  0
  196.5110  175.6950  136.3020 C   0  0  0  0  0  2  0  0  0  0  0  0
  195.5110  175.4540  135.1860 C   0  0  0  0  0  2  0  0  0  0  0  0
  191.6370  172.6600  136.5530 N   0  0  0  0  0  2  0  0  0  0  0  0
  191.4410  174.9740  136.7460 O   0  0  0  0  0  0  0  0  0  0  0  0
  194.1220  175.4270  135.7210 C   0  0  0  0  0  0  0  0  0  0  0  0
  193.4920  176.5050  135.8870 O   0  0  0  0  0  0  0  0  0  0  0  0
  192.1600  173.9830  136.4460 C   0  0  0  0  0  0  0  0  0  0  0  0
  193.5040  174.1640  135.9860 N   0  0  0  0  0  2  0  0  0  0  0  0
  190.2970  170.5470  138.4000 C   0  0  1  0  0  3  0  0  0  0  0  0
  190.3600  172.0590  138.3550 C   0  0  0  0  0  2  0  0  0  0  0  0
  189.8410  171.1750  136.3340 C   0  0  1  0  0  3  0  0  0  0  0  0
  190.3100  170.0820  137.0790 O   0  0  0  0  0  0  0  0  0  0  0  0
  190.3080  172.4190  136.9520 N   0  0  0  0  0  0  0  0  0  0  0  0
  192.6200  170.1270  138.6910 O   0  0  0  0  0  0  0  0  0  0  0  0
  191.4590  169.9940  139.1560 C   0  0  0  0  0  0  0  0  0  0  0  0
  191.2660  169.3180  140.3980 N   0  0  0  0  0  1  0  0  0  0  0  0
  190.2020  171.0600  134.8500 C   0  0  0  0  0  2  0  0  0  0  0  0
  191.0640  169.8370  134.5860 C   0  0  0  0  0  2  0  0  0  0  0  0
  192.4970  170.1010  135.0010 C   0  0  0  0  0  1  0  0  0  0  0  0
  1  9  1  0  0  0  0
  3  8  1  0  0  0  0
  3 10  1  0  0  0  0
  3  2  1  0  0  0  0
  4  1  2  0  0  0  0
  5  3  1  1  0  0  0
  6 16  1  0  0  0  0
  7  6  1  1  0  0  0
  7  5  1  0  0  0  0
  7 15  1  0  0  0  0
  9 17  1  0  0  0  0
 11 25  1  6  0  0  0
 11  5  1  0  0  0  0
 12  1  1  0  0  0  0
 13 18  1  1  0  0  0
 13 21  1  0  0  0  0
 14 17  2  0  0  0  0
 15 18  1  1  0  0  0
 15 13  1  0  0  0  0
 15 10  1  0  0  0  0
 16 11  1  0  0  0  0
 17  6  1  0  0  0  0
 19 23  1  0  0  0  0
 21 19  1  6  0  0  0
 21 24  1  0  0  0  0
 23 22  1  0  0  0  0
 24 20  1  6  0  0  0
 24 22  1  0  0  0  0
 26 28  1  0  0  0  0
 26 34  1  1  0  0  0
 26 30  1  0  0  0  0
 27 30  1  0  0  0  0
 29 26  1  0  0  0  0
 31 25  1  1  0  0  0
 31 27  1  0  0  0  0
 32 29  1  1  0  0  0
 32 31  1  0  0  0  0
 32 33  1  0  0  0  0
 33 28  1  0  0  0  0
 34 35  1  6  0  0  0
 34 36  1  0  0  0  0
 36 37  1  0  0  0  0
 37 38  1  0  0  0  0
 38 41  1  6  0  0  0
 38 40  1  0  0  0  0
 40 39  1  0  0  0  0
 41 43  1  0  0  0  0
 43 44  2  0  0  0  0
 43 42  2  0  0  0  0
 45 43  1  0  0  0  0
 46 45  1  0  0  0  0
 46 48  1  0  0  0  0
 47 46  1  0  0  0  0
 49 12  1  0  0  0  0
 50 49  1  0  0  0  0
 51 54  1  0  0  0  0
 51 50  1  0  0  0  0
 52 62  1  0  0  0  0
 54 55  2  0  0  0  0
 54 57  1  0  0  0  0
 56 52  1  0  0  0  0
 56 53  2  0  0  0  0
 57 56  1  0  0  0  0
 58 64  1  1  0  0  0
 59 58  1  0  0  0  0
 60 66  1  6  0  0  0
 60 62  1  0  0  0  0
 60 61  1  0  0  0  0
 61 58  1  0  0  0  0
 62 59  1  0  0  0  0
 63 64  2  0  0  0  0
 64 65  1  0  0  0  0
 67 66  1  0  0  0  0
 67 68  1  0  0  0  0
M  END
>  <MODEL>
8

>  <REMARK>
 VINA RESULT:      -4.5      2.514      5.959
  Name = 
  20 active torsions:
  status: ('A' for Active; 'I' for Inactive)
    1  A    between atoms: C_1  and  C_29
    2  A    between atoms: C_2  and  C_22
    3  A    between atoms: C_2  and  C_24
    4  A    between atoms: C_9  and  N_18
    5  A    between atoms: C_12  and  C_34
    6  A    between atoms: C_12  and  C_38
    7  A    between atoms: C_13  and  C_36
    8  A    between atoms: C_13  and  C_52
    9  A    between atoms: C_17  and  O_31
   10  A    between atoms: C_17  and  C_37
   11  A    between atoms: C_17  and  C_49
   12  A    between atoms: N_18  and  S_42
   13  A    between atoms: C_24  and  O_31
   14  A    between atoms: C_25  and  C_45
   15  A    between atoms: N_30  and  N_66
   16  A    between atoms: C_34  and  C_67
   17  A    between atoms: C_37  and  S_42
   18  A    between atoms: N_41  and  C_67
   19  A    between atoms: C_43  and  C_47
   20  A    between atoms: C_47  and  C_59
                            x       y       z     vdW  Elec       q    Type
                         _______ _______ _______ _____ _____    ______ ____

>  <TORSDO>
F 20

$$$$
=
 OpenBabel11062421063D

 68 74  0  0  1  0  0  0  0  0999 V2000
  192.8190  174.7750  141.5180 C   0  0  0  0  0  0  0  0  0  0  0  0
  194.7600  171.5540  134.5170 C   0  0  0  0  0  1  0  0  0  0  0  0
  193.8420  171.4900  135.7300 C   0  0  0  0  0  0  0  0  0  0  0  0
  191.9740  174.2400  142.2860 O   0  0  0  0  0  0  0  0  0  0  0  0
  194.5610  171.8310  137.0540 C   0  0  2  0  0  3  0  0  0  0  0  0
  194.3140  173.8650  138.1130 N   0  0  0  0  0  0  0  0  0  0  0  0
  193.5860  172.6470  137.8320 C   0  0  1  0  0  3  0  0  0  0  0  0
  193.3060  170.0710  135.8220 C   0  0  0  0  0  1  0  0  0  0  0  0
  193.1100  174.1550  140.2610 N   0  0  0  0  0  2  0  0  0  0  0  0
  192.7620  172.3770  135.5430 O   0  0  0  0  0  0  0  0  0  0  0  0
  195.7590  172.7750  136.8880 C   0  0  1  0  0  3  0  0  0  0  0  0
  193.4710  175.9890  141.9050 N   0  0  0  0  0  2  0  0  0  0  0  0
  191.5140  174.0490  136.9760 C   0  0  2  0  0  3  0  0  0  0  0  0
  194.9450  175.4780  139.6640 O   0  0  0  0  0  0  0  0  0  0  0  0
  192.5090  172.9080  136.8150 C   0  0  2  0  0  0  0  0  0  0  0  0
  195.4270  174.0620  137.3590 O   0  0  0  0  0  0  0  0  0  0  0  0
  194.1560  174.5450  139.3610 C   0  0  0  0  0  0  0  0  0  0  0  0
  191.1080  172.6150  137.3030 C   0  0  0  0  0  2  0  0  0  0  0  0
  191.0170  175.8610  135.4850 O   0  0  0  0  0  0  0  0  0  0  0  0
  188.8180  174.0820  136.7090 F   0  0  0  0  0  0  0  0  0  0  0  0
  190.9250  174.4730  135.6330 C   0  0  2  0  0  3  0  0  0  0  0  0
  188.9600  175.2800  134.7040 C   0  0  0  0  0  2  0  0  0  0  0  0
  190.0870  176.1870  134.5420 N   0  0  0  0  0  2  0  0  0  0  0  0
  189.4680  174.1100  135.4850 C   0  0  2  0  0  3  0  0  0  0  0  0
  197.0180  172.2150  137.5600 C   0  0  0  0  0  2  0  0  0  0  0  0
  197.1450  169.9350  140.9120 C   0  0  1  0  0  0  0  0  0  0  0  0
  197.9410  170.2360  138.6310 O   0  0  0  0  0  0  0  0  0  0  0  0
  197.8920  171.0840  141.2240 O   0  0  0  0  0  0  0  0  0  0  0  0
  195.8760  170.3760  140.5580 O   0  0  0  0  0  0  0  0  0  0  0  0
  197.7490  169.2670  139.6540 C   0  0  0  0  0  2  0  0  0  0  0  0
  196.7600  171.0160  138.4700 C   0  0  1  0  0  3  0  0  0  0  0  0
  196.2450  171.5070  139.8460 C   0  0  2  0  0  3  0  0  0  0  0  0
  197.3150  172.0830  140.5550 O   0  0  0  0  0  0  0  0  0  0  0  0
  197.0810  168.9610  142.0960 C   0  0  1  0  0  3  0  0  0  0  0  0
  197.8740  169.4690  143.2960 C   0  0  0  0  0  1  0  0  0  0  0  0
  195.6500  168.6090  142.5070 C   0  0  0  0  0  2  0  0  0  0  0  0
  194.9640  169.7450  142.9450 O   0  0  0  0  0  0  0  0  0  0  0  0
  193.7270  169.2760  143.4020 C   0  0  2  0  0  3  0  0  0  0  0  0
  194.4110  169.5730  145.8230 C   0  0  0  0  0  1  0  0  0  0  0  0
  193.8940  168.6050  144.7660 C   0  0  0  0  0  2  0  0  0  0  0  0
  193.1170  168.3290  142.3700 C   0  0  0  0  0  2  0  0  0  0  0  0
  191.7690  168.7910  140.0790 O   0  0  0  0  0  0  0  0  0  0  0  0
  191.7060  169.0630  141.5580 S   0  0  0  0  0  0  0  0  0  0  0  0
  190.4410  168.4680  142.1170 O   0  0  0  0  0  0  0  0  0  0  0  0
  191.6970  170.7740  141.8310 N   0  0  0  0  0  2  0  0  0  0  0  0
  190.3830  171.2720  141.4630 C   0  0  0  0  0  3  0  0  0  0  0  0
  189.8470  171.9980  142.5250 O   0  0  0  0  0  1  0  0  0  0  0  0
  190.4960  172.0990  140.3470 O   0  0  0  0  0  1  0  0  0  0  0  0
  193.3910  176.5300  143.2590 C   0  0  0  0  0  2  0  0  0  0  0  0
  194.0940  175.6010  144.2420 C   0  0  0  0  0  2  0  0  0  0  0  0
  193.4960  175.7490  145.6300 C   0  0  0  0  0  2  0  0  0  0  0  0
  188.6250  176.4850  144.9850 N   0  0  0  0  0  2  0  0  0  0  0  0
  189.3340  174.3670  145.6490 O   0  0  0  0  0  0  0  0  0  0  0  0
  192.1300  175.1590  145.6790 C   0  0  0  0  0  0  0  0  0  0  0  0
  191.9650  173.9920  146.1250 O   0  0  0  0  0  0  0  0  0  0  0  0
  189.6440  175.5420  145.3160 C   0  0  0  0  0  0  0  0  0  0  0  0
  191.0140  175.9550  145.2680 N   0  0  0  0  0  2  0  0  0  0  0  0
  186.1940  176.9550  143.1030 C   0  0  1  0  0  3  0  0  0  0  0  0
  186.8610  175.7480  143.7270 C   0  0  0  0  0  2  0  0  0  0  0  0
  186.4790  177.3820  145.2490 C   0  0  1  0  0  3  0  0  0  0  0  0
  186.3040  178.0160  144.0110 O   0  0  0  0  0  0  0  0  0  0  0  0
  187.2580  176.1550  145.0600 N   0  0  0  0  0  0  0  0  0  0  0  0
  188.0030  176.8730  141.5590 O   0  0  0  0  0  0  0  0  0  0  0  0
  186.8500  177.3090  141.8100 C   0  0  0  0  0  0  0  0  0  0  0  0
  186.1810  178.1330  140.8560 N   0  0  0  0  0  1  0  0  0  0  0  0
  187.0730  178.3230  146.3020 C   0  0  0  0  0  2  0  0  0  0  0  0
  185.9850  179.0890  147.0330 C   0  0  0  0  0  2  0  0  0  0  0  0
  184.6340  178.8170  146.4030 C   0  0  0  0  0  1  0  0  0  0  0  0
  1 12  1  0  0  0  0
  1  4  2  0  0  0  0
  2  3  1  0  0  0  0
  3  8  1  0  0  0  0
  5  3  1  6  0  0  0
  5  7  1  0  0  0  0
  6 17  1  0  0  0  0
  7  6  1  6  0  0  0
  9  1  1  0  0  0  0
 10  3  1  0  0  0  0
 10 15  1  0  0  0  0
 11  5  1  0  0  0  0
 11 16  1  0  0  0  0
 11 25  1  1  0  0  0
 12 49  1  0  0  0  0
 13 18  1  1  0  0  0
 15 13  1  0  0  0  0
 15 18  1  1  0  0  0
 15  7  1  0  0  0  0
 16  6  1  0  0  0  0
 17 14  2  0  0  0  0
 17  9  1  0  0  0  0
 21 19  1  1  0  0  0
 21 13  1  0  0  0  0
 22 24  1  0  0  0  0
 23 22  1  0  0  0  0
 23 19  1  0  0  0  0
 24 21  1  0  0  0  0
 24 20  1  1  0  0  0
 26 28  1  0  0  0  0
 26 34  1  1  0  0  0
 27 30  1  0  0  0  0
 29 26  1  0  0  0  0
 30 26  1  0  0  0  0
 31 25  1  6  0  0  0
 31 27  1  0  0  0  0
 31 32  1  0  0  0  0
 32 33  1  1  0  0  0
 32 29  1  0  0  0  0
 33 28  1  0  0  0  0
 34 36  1  0  0  0  0
 34 35  1  1  0  0  0
 36 37  1  0  0  0  0
 37 38  1  0  0  0  0
 38 41  1  6  0  0  0
 38 40  1  0  0  0  0
 40 39  1  0  0  0  0
 42 43  2  0  0  0  0
 43 45  1  0  0  0  0
 43 44  2  0  0  0  0
 43 41  1  0  0  0  0
 46 45  1  0  0  0  0
 46 47  1  0  0  0  0
 48 46  1  0  0  0  0
 49 50  1  0  0  0  0
 50 51  1  0  0  0  0
 51 54  1  0  0  0  0
 52 62  1  0  0  0  0
 52 56  1  0  0  0  0
 54 55  2  0  0  0  0
 56 53  2  0  0  0  0
 57 56  1  0  0  0  0
 57 54  1  0  0  0  0
 58 64  1  6  0  0  0
 58 59  1  0  0  0  0
 58 61  1  0  0  0  0
 59 62  1  0  0  0  0
 60 66  1  1  0  0  0
 61 60  1  0  0  0  0
 62 60  1  0  0  0  0
 63 64  2  0  0  0  0
 65 64  1  0  0  0  0
 66 67  1  0  0  0  0
 68 67  1  0  0  0  0
M  END
>  <MODEL>
9

>  <REMARK>
 VINA RESULT:      -4.2      2.850      9.590
  Name = 
  20 active torsions:
  status: ('A' for Active; 'I' for Inactive)
    1  A    between atoms: C_1  and  C_29
    2  A    between atoms: C_2  and  C_22
    3  A    between atoms: C_2  and  C_24
    4  A    between atoms: C_9  and  N_18
    5  A    between atoms: C_12  and  C_34
    6  A    between atoms: C_12  and  C_38
    7  A    between atoms: C_13  and  C_36
    8  A    between atoms: C_13  and  C_52
    9  A    between atoms: C_17  and  O_31
   10  A    between atoms: C_17  and  C_37
   11  A    between atoms: C_17  and  C_49
   12  A    between atoms: N_18  and  S_42
   13  A    between atoms: C_24  and  O_31
   14  A    between atoms: C_25  and  C_45
   15  A    between atoms: N_30  and  N_66
   16  A    between atoms: C_34  and  C_67
   17  A    between atoms: C_37  and  S_42
   18  A    between atoms: N_41  and  C_67
   19  A    between atoms: C_43  and  C_47
   20  A    between atoms: C_47  and  C_59
                            x       y       z     vdW  Elec       q    Type
                         _______ _______ _______ _____ _____    ______ ____

>  <TORSDO>
F 20

$$$$
