=
 OpenBabel11072409383D

 63 69  0  0  1  0  0  0  0  0999 V2000
  188.4430  175.6040  147.1900 O   0  0  0  0  0  0  0  0  0  0  0  0
  188.8350  176.2470  146.1750 C   0  0  0  0  0  0  0  0  0  0  0  0
  192.6830  176.4300  146.4830 C   0  0  0  0  0  2  0  0  0  0  0  0
  190.9780  175.7720  147.9940 O   0  0  0  0  0  0  0  0  0  0  0  0
  190.5840  176.0180  144.3870 C   0  0  2  0  0  3  0  0  0  0  0  0
  192.3180  176.3940  142.7420 O   0  0  0  0  0  1  0  0  0  0  0  0
  191.8540  178.0350  144.2200 O   0  0  0  0  0  1  0  0  0  0  0  0
  193.0560  176.1290  145.0250 C   0  0  2  0  0  3  0  0  0  0  0  0
  191.2630  176.0750  146.8060 C   0  0  0  0  0  0  0  0  0  0  0  0
  187.8930  177.0680  145.4460 N   0  0  0  0  0  0  0  0  0  0  0  0
  191.9610  176.6500  144.0670 C   0  0  0  0  0  0  0  0  0  0  0  0
  190.2290  176.1840  145.8020 N   0  0  0  0  0  0  0  0  0  0  0  0
  196.6680  172.8630  144.4060 C   0  0  0  0  0  0  0  0  0  0  0  0
  197.4620  173.1410  145.2940 O   0  0  0  0  0  0  0  0  0  0  0  0
  195.6530  175.0990  142.7500 C   0  0  0  0  0  1  0  0  0  0  0  0
  194.9000  172.8430  142.0970 C   0  0  0  0  0  0  0  0  0  0  0  0
  197.0980  172.0720  143.1940 C   0  0  0  0  0  2  0  0  0  0  0  0
  194.7970  173.8980  143.1710 C   0  0  1  0  0  0  0  0  0  0  0  0
  194.1760  172.9190  141.1180 O   0  0  0  0  0  0  0  0  0  0  0  0
  195.2410  173.2860  144.4660 C   0  0  2  0  0  3  0  0  0  0  0  0
  195.9280  171.7070  142.2260 C   0  0  1  0  0  0  0  0  0  0  0  0
  193.4200  174.6460  144.8060 C   0  0  2  0  0  3  0  0  0  0  0  0
  194.7430  174.2530  145.4750 C   0  0  0  0  0  2  0  0  0  0  0  0
  195.2230  170.4900  142.8210 C   0  0  0  0  0  1  0  0  0  0  0  0
  193.4820  174.3390  143.4140 O   0  0  0  0  0  0  0  0  0  0  0  0
  197.9150  172.0680  139.0290 C   0  0  0  0  0  3  0  0  0  0  0  0
  196.2070  170.1920  140.2750 C   0  0  0  0  0  3  0  0  0  0  0  0
  196.5120  171.3540  140.8660 C   0  0  0  0  0  0  0  0  0  0  0  0
  197.8540  170.7150  138.3680 C   0  0  1  0  0  3  0  0  0  0  0  0
  196.4320  168.7800  138.4030 O   0  0  0  0  0  0  0  0  0  0  0  0
  197.3210  172.3160  140.1610 N   0  0  0  0  0  0  0  0  0  0  0  0
  196.7780  169.8500  138.9680 C   0  0  0  0  0  0  0  0  0  0  0  0
  197.6670  170.8740  136.8640 C   0  0  0  0  0  2  0  0  0  0  0  0
  196.9090  172.1210  136.5610 C   0  0  0  0  0  0  0  0  0  0  0  0
  197.6140  173.2760  136.1090 N   0  0  0  0  0  2  0  0  0  0  0  0
  195.6620  172.1530  136.7400 O   0  0  0  0  0  0  0  0  0  0  0  0
  197.9410  175.9360  135.2360 O   0  0  0  0  0  1  0  0  0  0  0  0
  196.8260  174.8220  135.8490 P   0  0  0  0  0  0  0  0  0  0  0  0
  195.5570  174.6300  134.7490 O   0  0  0  0  0  0  0  0  0  0  0  0
  196.2800  175.3310  137.1630 O   0  0  0  0  0  1  0  0  0  0  0  0
  185.5790  176.4060  145.2750 C   0  0  0  0  0  2  0  0  0  0  0  0
  186.0790  178.1570  146.8760 C   0  0  0  0  0  1  0  0  0  0  0  0
  186.5140  177.1400  145.8730 C   0  0  0  0  0  0  0  0  0  0  0  0
  188.3890  178.0080  144.4320 C   0  0  0  0  0  2  0  0  0  0  0  0
  185.6750  177.6750  140.2690 N   0  0  0  0  0  0  0  0  0  0  0  0
  188.6430  178.4640  141.9720 C   0  0  0  0  0  2  0  0  0  0  0  0
  184.7930  178.3620  140.9110 C   0  0  0  0  0  3  0  0  0  0  0  0
  188.3840  177.3930  143.0270 C   0  0  2  0  0  3  0  0  0  0  0  0
  187.2480  177.9060  142.1500 C   0  0  2  0  0  0  0  0  0  0  0  0
  186.8090  177.0700  140.9430 C   0  0  0  0  0  2  0  0  0  0  0  0
  184.9470  178.5720  142.3890 C   0  0  0  0  0  2  0  0  0  0  0  0
  186.3340  178.9280  142.6880 N   0  0  0  0  0  2  0  0  0  0  0  0
  190.4640  174.5440  143.9910 C   0  0  0  0  0  2  0  0  0  0  0  0
  189.9460  174.4110  142.5690 C   0  0  0  0  0  2  0  0  0  0  0  0
  188.6270  173.6570  142.5430 C   0  0  0  0  0  2  0  0  0  0  0  0
  188.8270  172.2670  141.9550 C   0  0  0  0  0  2  0  0  0  0  0  0
  188.1910  174.2810  137.6880 C   0  0  0  0  0  1  0  0  0  0  0  0
  189.9720  172.6140  137.8780 N   0  0  0  0  0  0  0  0  0  0  0  0
  188.5800  172.9180  138.2260 C   0  0  1  0  0  3  0  0  0  0  0  0
  190.4140  171.8660  140.0440 O   0  0  0  0  0  0  0  0  0  0  0  0
  189.1770  172.3280  140.5030 C   0  0  0  0  0  0  0  0  0  0  0  0
  190.8030  172.0900  138.7240 C   0  0  0  0  0  3  0  0  0  0  0  0
  188.3370  172.8600  139.6720 N   0  0  0  0  0  0  0  0  0  0  0  0
  2  1  2  0  0  0  0
  3  9  1  0  0  0  0
  5 53  1  1  0  0  0
  5 12  1  0  0  0  0
  6 11  1  0  0  0  0
  8  3  1  1  0  0  0
  9  4  2  0  0  0  0
 10 43  1  0  0  0  0
 10  2  1  0  0  0  0
 11  7  1  0  0  0  0
 11  5  1  0  0  0  0
 11  8  1  0  0  0  0
 12  2  1  0  0  0  0
 12  9  1  0  0  0  0
 13 20  1  0  0  0  0
 13 14  2  0  0  0  0
 16 21  1  0  0  0  0
 16 18  1  0  0  0  0
 17 13  1  0  0  0  0
 18 15  1  6  0  0  0
 18 25  1  0  0  0  0
 18 20  1  0  0  0  0
 19 16  2  0  0  0  0
 20 23  1  1  0  0  0
 21 24  1  1  0  0  0
 21 17  1  0  0  0  0
 22  8  1  0  0  0  0
 22 23  1  6  0  0  0
 25 22  1  0  0  0  0
 26 31  2  0  0  0  0
 27 28  2  0  0  0  0
 28 21  1  0  0  0  0
 29 33  1  6  0  0  0
 29 32  1  0  0  0  0
 29 26  1  0  0  0  0
 30 32  2  0  0  0  0
 31 28  1  0  0  0  0
 32 27  1  0  0  0  0
 34 36  2  0  0  0  0
 34 33  1  0  0  0  0
 35 34  1  0  0  0  0
 37 38  1  0  0  0  0
 38 35  1  0  0  0  0
 38 40  1  0  0  0  0
 39 38  2  0  0  0  0
 41 43  2  0  0  0  0
 43 42  1  0  0  0  0
 44 10  1  0  0  0  0
 45 47  2  0  0  0  0
 45 50  1  0  0  0  0
 46 49  1  0  0  0  0
 46 48  1  0  0  0  0
 47 51  1  0  0  0  0
 48 44  1  1  0  0  0
 49 50  1  6  0  0  0
 49 52  1  0  0  0  0
 49 48  1  0  0  0  0
 51 52  1  0  0  0  0
 54 53  1  0  0  0  0
 55 54  1  0  0  0  0
 56 55  1  0  0  0  0
 58 59  1  0  0  0  0
 58 62  2  0  0  0  0
 59 57  1  1  0  0  0
 59 63  1  0  0  0  0
 60 61  1  0  0  0  0
 61 56  1  0  0  0  0
 62 60  1  0  0  0  0
 63 61  2  0  0  0  0
M  END
>  <MODEL>
1

>  <REMARK>
 VINA RESULT:      -7.9      0.000      0.000
  Name = 
  13 active torsions:
  status: ('A' for Active; 'I' for Inactive)
    1  A    between atoms: C_3  and  C_4
    2  A    between atoms: C_3  and  C_31
    3  A    between atoms: N_13  and  P_22
    4  A    between atoms: C_19  and  C_37
    5  A    between atoms: C_19  and  C_39
    6  A    between atoms: C_21  and  C_40
    7  A    between atoms: C_27  and  C_39
    8  A    between atoms: C_27  and  C_55
    9  A    between atoms: C_28  and  C_55
   10  A    between atoms: C_34  and  C_36
   11  A    between atoms: C_36  and  N_54
   12  A    between atoms: C_44  and  C_52
   13  A    between atoms: C_51  and  N_54
                            x       y       z     vdW  Elec       q    Type
                         _______ _______ _______ _____ _____    ______ ____

>  <TORSDO>
F 13

$$$$
=
 OpenBabel11072409383D

 63 69  0  0  1  0  0  0  0  0999 V2000
  194.5880  175.6920  146.4660 O   0  0  0  0  0  0  0  0  0  0  0  0
  194.1840  174.9250  145.5460 C   0  0  0  0  0  0  0  0  0  0  0  0
  190.4070  174.4240  146.1960 C   0  0  0  0  0  2  0  0  0  0  0  0
  192.1520  175.3690  147.4950 O   0  0  0  0  0  0  0  0  0  0  0  0
  192.2880  174.8300  143.9010 C   0  0  2  0  0  3  0  0  0  0  0  0
  190.4780  174.1490  142.4480 O   0  0  0  0  0  1  0  0  0  0  0  0
  191.2120  172.7000  144.0140 O   0  0  0  0  0  1  0  0  0  0  0  0
  189.8950  174.5550  144.7550 C   0  0  2  0  0  3  0  0  0  0  0  0
  191.8070  174.9340  146.3650 C   0  0  0  0  0  0  0  0  0  0  0  0
  195.1430  174.1290  144.8110 N   0  0  0  0  0  0  0  0  0  0  0  0
  190.9590  174.0490  143.7540 C   0  0  0  0  0  0  0  0  0  0  0  0
  192.7660  174.8270  145.2890 N   0  0  0  0  0  0  0  0  0  0  0  0
  186.5690  178.0040  145.8230 C   0  0  0  0  0  0  0  0  0  0  0  0
  186.5920  178.0570  147.0450 O   0  0  0  0  0  0  0  0  0  0  0  0
  186.3780  175.3180  144.5880 C   0  0  0  0  0  1  0  0  0  0  0  0
  186.3390  177.2290  143.0290 C   0  0  0  0  0  0  0  0  0  0  0  0
  185.3850  178.5210  145.0420 C   0  0  0  0  0  2  0  0  0  0  0  0
  187.2080  176.4650  144.0000 C   0  0  1  0  0  0  0  0  0  0  0  0
  186.2290  176.8220  141.8850 O   0  0  0  0  0  0  0  0  0  0  0  0
  187.6970  177.4290  145.0390 C   0  0  2  0  0  3  0  0  0  0  0  0
  185.5810  178.4830  143.4930 C   0  0  1  0  0  0  0  0  0  0  0  0
  189.3730  175.9730  144.4440 C   0  0  2  0  0  3  0  0  0  0  0  0
  188.8090  176.6840  145.6800 C   0  0  0  0  0  2  0  0  0  0  0  0
  186.4130  179.7090  143.1210 C   0  0  0  0  0  1  0  0  0  0  0  0
  188.3760  175.9340  143.4230 O   0  0  0  0  0  0  0  0  0  0  0  0
  181.8920  179.1910  143.0630 C   0  0  0  0  0  3  0  0  0  0  0  0
  184.0420  178.1190  141.5750 C   0  0  0  0  0  3  0  0  0  0  0  0
  184.2160  178.5630  142.8260 C   0  0  0  0  0  0  0  0  0  0  0  0
  181.6100  178.9590  141.6010 C   0  0  1  0  0  3  0  0  0  0  0  0
  182.5710  177.7280  139.7770 O   0  0  0  0  0  0  0  0  0  0  0  0
  183.0760  179.0270  143.5770 N   0  0  0  0  0  0  0  0  0  0  0  0
  182.7270  178.2040  140.9320 C   0  0  0  0  0  0  0  0  0  0  0  0
  180.2740  178.2450  141.4310 C   0  0  0  0  0  2  0  0  0  0  0  0
  179.3160  179.1050  140.6810 C   0  0  0  0  0  0  0  0  0  0  0  0
  179.7890  180.2920  140.0470 N   0  0  0  0  0  2  0  0  0  0  0  0
  178.0950  178.7940  140.6430 O   0  0  0  0  0  0  0  0  0  0  0  0
  177.6930  182.1470  140.3920 O   0  0  0  0  0  1  0  0  0  0  0  0
  178.7170  181.4300  139.2510 P   0  0  0  0  0  0  0  0  0  0  0  0
  179.6320  182.6260  138.4850 O   0  0  0  0  0  1  0  0  0  0  0  0
  177.8850  180.6970  138.2230 O   0  0  0  0  0  0  0  0  0  0  0  0
  197.4180  174.6720  144.2200 C   0  0  0  0  0  2  0  0  0  0  0  0
  197.0870  173.6600  146.3980 C   0  0  0  0  0  1  0  0  0  0  0  0
  196.5510  174.2220  145.1230 C   0  0  0  0  0  0  0  0  0  0  0  0
  194.6640  173.0590  143.9260 C   0  0  0  0  0  2  0  0  0  0  0  0
  194.0180  168.1670  143.2500 N   0  0  0  0  0  0  0  0  0  0  0  0
  195.9970  171.0660  143.1660 C   0  0  0  0  0  2  0  0  0  0  0  0
  192.9980  168.5040  142.5370 C   0  0  0  0  0  3  0  0  0  0  0  0
  195.2260  171.6880  144.3260 C   0  0  2  0  0  3  0  0  0  0  0  0
  194.6270  170.5360  143.5280 C   0  0  2  0  0  0  0  0  0  0  0  0
  194.6970  169.1190  144.1080 C   0  0  0  0  0  2  0  0  0  0  0  0
  192.5080  169.9210  142.5660 C   0  0  0  0  0  2  0  0  0  0  0  0
  193.6480  170.8330  142.4690 N   0  0  0  0  0  2  0  0  0  0  0  0
  192.2330  176.2650  143.3730 C   0  0  0  0  0  2  0  0  0  0  0  0
  193.3760  176.5270  142.4080 C   0  0  0  0  0  2  0  0  0  0  0  0
  193.8150  175.2420  141.7270 C   0  0  0  0  0  2  0  0  0  0  0  0
  195.1780  175.4310  141.0760 C   0  0  0  0  0  2  0  0  0  0  0  0
  195.1310  172.8920  137.0490 C   0  0  0  0  0  1  0  0  0  0  0  0
  196.5700  172.0850  138.8570 N   0  0  0  0  0  0  0  0  0  0  0  0
  195.2400  172.6150  138.5360 C   0  0  1  0  0  3  0  0  0  0  0  0
  196.7600  173.5110  140.6940 O   0  0  0  0  0  0  0  0  0  0  0  0
  195.6050  174.2090  140.3280 C   0  0  0  0  0  0  0  0  0  0  0  0
  197.2480  172.4870  139.8860 C   0  0  0  0  0  3  0  0  0  0  0  0
  194.9180  173.8270  139.2990 N   0  0  0  0  0  0  0  0  0  0  0  0
  2  1  2  0  0  0  0
  3  9  1  0  0  0  0
  5 53  1  1  0  0  0
  5 12  1  0  0  0  0
  6 11  1  0  0  0  0
  8  3  1  1  0  0  0
  9  4  2  0  0  0  0
 10 43  1  0  0  0  0
 10  2  1  0  0  0  0
 11  5  1  0  0  0  0
 11  7  1  0  0  0  0
 11  8  1  0  0  0  0
 12  2  1  0  0  0  0
 12  9  1  0  0  0  0
 13 14  2  0  0  0  0
 16 21  1  0  0  0  0
 16 18  1  0  0  0  0
 17 13  1  0  0  0  0
 18 15  1  1  0  0  0
 18 20  1  0  0  0  0
 19 16  2  0  0  0  0
 20 23  1  1  0  0  0
 20 13  1  0  0  0  0
 21 24  1  6  0  0  0
 21 17  1  0  0  0  0
 22  8  1  0  0  0  0
 22 23  1  1  0  0  0
 25 18  1  0  0  0  0
 25 22  1  0  0  0  0
 26 31  2  0  0  0  0
 27 28  2  0  0  0  0
 28 21  1  0  0  0  0
 28 31  1  0  0  0  0
 29 33  1  1  0  0  0
 29 26  1  0  0  0  0
 30 32  2  0  0  0  0
 32 27  1  0  0  0  0
 32 29  1  0  0  0  0
 34 33  1  0  0  0  0
 35 34  1  0  0  0  0
 36 34  2  0  0  0  0
 38 35  1  0  0  0  0
 38 37  1  0  0  0  0
 39 38  1  0  0  0  0
 40 38  2  0  0  0  0
 41 43  2  0  0  0  0
 43 42  1  0  0  0  0
 44 10  1  0  0  0  0
 45 50  1  0  0  0  0
 46 48  1  0  0  0  0
 47 51  1  0  0  0  0
 47 45  2  0  0  0  0
 48 44  1  6  0  0  0
 49 46  1  6  0  0  0
 49 50  1  0  0  0  0
 49 48  1  0  0  0  0
 52 51  1  0  0  0  0
 52 49  1  0  0  0  0
 54 53  1  0  0  0  0
 55 54  1  0  0  0  0
 56 55  1  0  0  0  0
 58 62  2  0  0  0  0
 59 57  1  6  0  0  0
 59 58  1  0  0  0  0
 59 63  1  0  0  0  0
 61 60  1  0  0  0  0
 61 56  1  0  0  0  0
 62 60  1  0  0  0  0
 63 61  2  0  0  0  0
M  END
>  <MODEL>
2

>  <REMARK>
 VINA RESULT:      -7.0      5.189     11.502
  Name = 
  13 active torsions:
  status: ('A' for Active; 'I' for Inactive)
    1  A    between atoms: C_3  and  C_4
    2  A    between atoms: C_3  and  C_31
    3  A    between atoms: N_13  and  P_22
    4  A    between atoms: C_19  and  C_37
    5  A    between atoms: C_19  and  C_39
    6  A    between atoms: C_21  and  C_40
    7  A    between atoms: C_27  and  C_39
    8  A    between atoms: C_27  and  C_55
    9  A    between atoms: C_28  and  C_55
   10  A    between atoms: C_34  and  C_36
   11  A    between atoms: C_36  and  N_54
   12  A    between atoms: C_44  and  C_52
   13  A    between atoms: C_51  and  N_54
                            x       y       z     vdW  Elec       q    Type
                         _______ _______ _______ _____ _____    ______ ____

>  <TORSDO>
F 13

$$$$
=
 OpenBabel11072409383D

 63 69  0  0  1  0  0  0  0  0999 V2000
  194.5060  171.2900  144.5670 O   0  0  0  0  0  0  0  0  0  0  0  0
  194.5180  171.1650  143.3090 C   0  0  0  0  0  0  0  0  0  0  0  0
  190.8220  171.4340  142.2080 C   0  0  0  0  0  2  0  0  0  0  0  0
  191.8550  171.1850  144.3290 O   0  0  0  0  0  0  0  0  0  0  0  0
  193.5350  172.3340  141.3150 C   0  0  2  0  0  3  0  0  0  0  0  0
  192.5210  172.8950  139.1910 O   0  0  0  0  0  1  0  0  0  0  0  0
  192.4330  170.7550  139.9000 O   0  0  0  0  0  1  0  0  0  0  0  0
  191.0010  172.3380  140.9820 C   0  0  2  0  0  3  0  0  0  0  0  0
  192.0240  171.4220  143.1030 C   0  0  0  0  0  0  0  0  0  0  0  0
  195.6680  170.5740  142.6620 N   0  0  0  0  0  0  0  0  0  0  0  0
  192.3750  172.0870  140.3190 C   0  0  0  0  0  0  0  0  0  0  0  0
  193.3530  171.5720  142.5560 N   0  0  0  0  0  0  0  0  0  0  0  0
  188.6450  175.5200  143.8830 C   0  0  0  0  0  0  0  0  0  0  0  0
  188.8760  175.1070  145.0110 O   0  0  0  0  0  0  0  0  0  0  0  0
  187.7260  173.5430  141.8780 C   0  0  0  0  0  1  0  0  0  0  0  0
  187.8150  175.8880  141.1200 C   0  0  0  0  0  0  0  0  0  0  0  0
  187.4760  176.4370  143.6130 C   0  0  0  0  0  2  0  0  0  0  0  0
  188.6600  174.7130  141.5490 C   0  0  1  0  0  0  0  0  0  0  0  0
  187.4410  175.9580  139.9610 O   0  0  0  0  0  0  0  0  0  0  0  0
  189.4940  175.1460  142.7180 C   0  0  2  0  0  3  0  0  0  0  0  0
  187.4060  176.9600  142.1430 C   0  0  1  0  0  0  0  0  0  0  0  0
  190.7270  173.8220  141.3000 C   0  0  2  0  0  3  0  0  0  0  0  0
  190.5240  174.0820  142.7990 C   0  0  0  0  0  2  0  0  0  0  0  0
  188.3940  178.1210  142.0380 C   0  0  0  0  0  1  0  0  0  0  0  0
  189.5900  174.2950  140.5790 O   0  0  0  0  0  0  0  0  0  0  0  0
  184.3300  177.9670  140.1890 C   0  0  0  0  0  3  0  0  0  0  0  0
  185.1960  177.8300  142.8760 C   0  0  0  0  0  3  0  0  0  0  0  0
  185.9940  177.4550  141.8680 C   0  0  0  0  0  0  0  0  0  0  0  0
  183.2560  178.1870  141.2230 C   0  0  1  0  0  3  0  0  0  0  0  0
  183.1190  178.7030  143.5640 O   0  0  0  0  0  0  0  0  0  0  0  0
  185.5410  177.6160  140.5090 N   0  0  0  0  0  0  0  0  0  0  0  0
  183.8320  178.2990  142.6090 C   0  0  0  0  0  0  0  0  0  0  0  0
  182.4240  179.4120  140.8640 C   0  0  0  0  0  2  0  0  0  0  0  0
  180.9700  179.1060  140.9790 C   0  0  0  0  0  0  0  0  0  0  0  0
  180.4090  178.0640  140.1830 N   0  0  0  0  0  2  0  0  0  0  0  0
  180.2470  179.7920  141.7500 O   0  0  0  0  0  0  0  0  0  0  0  0
  178.2290  176.9950  141.6160 O   0  0  0  0  0  1  0  0  0  0  0  0
  178.6890  177.7160  140.1570 P   0  0  0  0  0  0  0  0  0  0  0  0
  177.8270  179.1530  139.9410 O   0  0  0  0  0  1  0  0  0  0  0  0
  178.3880  176.7730  139.0140 O   0  0  0  0  0  0  0  0  0  0  0  0
  197.7490  171.0000  143.8050 C   0  0  0  0  0  2  0  0  0  0  0  0
  197.0110  168.6910  143.7460 C   0  0  0  0  0  1  0  0  0  0  0  0
  196.7980  170.1400  143.4520 C   0  0  0  0  0  0  0  0  0  0  0  0
  195.5840  170.1940  141.2460 C   0  0  0  0  0  2  0  0  0  0  0  0
  197.5830  170.2270  136.6840 N   0  0  0  0  0  0  0  0  0  0  0  0
  196.6720  171.8280  139.6740 C   0  0  0  0  0  2  0  0  0  0  0  0
  196.4740  169.6890  136.3060 C   0  0  0  0  0  3  0  0  0  0  0  0
  196.8650  170.5470  140.4790 C   0  0  2  0  0  3  0  0  0  0  0  0
  196.6950  170.4910  138.9660 C   0  0  2  0  0  0  0  0  0  0  0  0
  197.9400  170.3310  138.0870 C   0  0  0  0  0  2  0  0  0  0  0  0
  195.5070  169.1800  137.3340 C   0  0  0  0  0  2  0  0  0  0  0  0
  195.3730  170.1660  138.4060 N   0  0  0  0  0  2  0  0  0  0  0  0
  193.7760  173.8100  141.6420 C   0  0  0  0  0  2  0  0  0  0  0  0
  195.1500  174.0070  142.2580 C   0  0  0  0  0  2  0  0  0  0  0  0
  195.5420  175.4740  142.2480 C   0  0  0  0  0  2  0  0  0  0  0  0
  195.5260  176.0330  143.6640 C   0  0  0  0  0  2  0  0  0  0  0  0
  192.4140  175.4940  147.2270 C   0  0  0  0  0  1  0  0  0  0  0  0
  191.6300  176.6740  145.2320 N   0  0  0  0  0  0  0  0  0  0  0  0
  192.3770  175.5060  145.7110 C   0  0  1  0  0  3  0  0  0  0  0  0
  193.2690  177.1450  143.6390 O   0  0  0  0  0  0  0  0  0  0  0  0
  194.1320  176.1870  144.1800 C   0  0  0  0  0  0  0  0  0  0  0  0
  192.0400  177.4050  144.2430 C   0  0  0  0  0  3  0  0  0  0  0  0
  193.7410  175.4520  145.1730 N   0  0  0  0  0  0  0  0  0  0  0  0
  2  1  2  0  0  0  0
  3  9  1  0  0  0  0
  5 53  1  1  0  0  0
  5 12  1  0  0  0  0
  6 11  1  0  0  0  0
  7 11  1  0  0  0  0
  8 22  1  0  0  0  0
  8  3  1  1  0  0  0
  9  4  2  0  0  0  0
 10  2  1  0  0  0  0
 10 43  1  0  0  0  0
 11  8  1  0  0  0  0
 11  5  1  0  0  0  0
 12  9  1  0  0  0  0
 12  2  1  0  0  0  0
 13 14  2  0  0  0  0
 16 18  1  0  0  0  0
 16 21  1  0  0  0  0
 17 13  1  0  0  0  0
 18 15  1  1  0  0  0
 18 20  1  0  0  0  0
 19 16  2  0  0  0  0
 20 23  1  1  0  0  0
 20 13  1  0  0  0  0
 21 24  1  6  0  0  0
 21 17  1  0  0  0  0
 22 23  1  1  0  0  0
 25 22  1  0  0  0  0
 25 18  1  0  0  0  0
 26 31  2  0  0  0  0
 26 29  1  0  0  0  0
 28 21  1  0  0  0  0
 28 27  2  0  0  0  0
 29 33  1  6  0  0  0
 29 32  1  0  0  0  0
 31 28  1  0  0  0  0
 32 27  1  0  0  0  0
 32 30  2  0  0  0  0
 33 34  1  0  0  0  0
 34 36  2  0  0  0  0
 35 34  1  0  0  0  0
 38 35  1  0  0  0  0
 38 37  1  0  0  0  0
 39 38  1  0  0  0  0
 40 38  2  0  0  0  0
 43 42  1  0  0  0  0
 43 41  2  0  0  0  0
 44 10  1  0  0  0  0
 45 50  1  0  0  0  0
 46 48  1  0  0  0  0
 47 45  2  0  0  0  0
 47 51  1  0  0  0  0
 48 44  1  1  0  0  0
 49 50  1  6  0  0  0
 49 46  1  0  0  0  0
 49 48  1  0  0  0  0
 51 52  1  0  0  0  0
 52 49  1  0  0  0  0
 53 54  1  0  0  0  0
 55 54  1  0  0  0  0
 55 56  1  0  0  0  0
 56 61  1  0  0  0  0
 58 59  1  0  0  0  0
 59 57  1  1  0  0  0
 60 61  1  0  0  0  0
 60 62  1  0  0  0  0
 61 63  2  0  0  0  0
 62 58  2  0  0  0  0
 63 59  1  0  0  0  0
M  END
>  <MODEL>
3

>  <REMARK>
 VINA RESULT:      -6.8      4.527     11.594
  Name = 
  13 active torsions:
  status: ('A' for Active; 'I' for Inactive)
    1  A    between atoms: C_3  and  C_4
    2  A    between atoms: C_3  and  C_31
    3  A    between atoms: N_13  and  P_22
    4  A    between atoms: C_19  and  C_37
    5  A    between atoms: C_19  and  C_39
    6  A    between atoms: C_21  and  C_40
    7  A    between atoms: C_27  and  C_39
    8  A    between atoms: C_27  and  C_55
    9  A    between atoms: C_28  and  C_55
   10  A    between atoms: C_34  and  C_36
   11  A    between atoms: C_36  and  N_54
   12  A    between atoms: C_44  and  C_52
   13  A    between atoms: C_51  and  N_54
                            x       y       z     vdW  Elec       q    Type
                         _______ _______ _______ _____ _____    ______ ____

>  <TORSDO>
F 13

$$$$
=
 OpenBabel11072409383D

 63 69  0  0  1  0  0  0  0  0999 V2000
  194.7100  170.4390  140.9000 O   0  0  0  0  0  0  0  0  0  0  0  0
  195.3820  171.4910  140.6990 C   0  0  0  0  0  0  0  0  0  0  0  0
  192.8290  174.3910  140.8220 C   0  0  0  0  0  2  0  0  0  0  0  0
  192.5830  172.0340  140.7240 O   0  0  0  0  0  0  0  0  0  0  0  0
  195.6170  173.7720  141.7240 C   0  0  2  0  0  3  0  0  0  0  0  0
  195.8860  176.1410  142.1340 O   0  0  0  0  0  1  0  0  0  0  0  0
  195.4060  175.4530  140.0390 O   0  0  0  0  0  1  0  0  0  0  0  0
  193.6420  175.3920  141.6540 C   0  0  2  0  0  3  0  0  0  0  0  0
  193.3770  172.9970  140.8900 C   0  0  0  0  0  0  0  0  0  0  0  0
  196.6920  171.3940  140.0950 N   0  0  0  0  0  0  0  0  0  0  0  0
  195.1550  175.2120  141.3920 C   0  0  0  0  0  0  0  0  0  0  0  0
  194.7970  172.7690  141.0350 N   0  0  0  0  0  0  0  0  0  0  0  0
  190.5300  173.6660  145.0350 C   0  0  0  0  0  0  0  0  0  0  0  0
  190.4610  172.4730  144.7800 O   0  0  0  0  0  0  0  0  0  0  0  0
  190.2220  175.5550  142.7740 C   0  0  0  0  0  1  0  0  0  0  0  0
  190.4590  176.5740  145.0070 C   0  0  0  0  0  0  0  0  0  0  0  0
  189.4560  174.3550  145.8440 C   0  0  0  0  0  2  0  0  0  0  0  0
  191.1840  175.7840  143.9450 C   0  0  1  0  0  0  0  0  0  0  0  0
  190.4070  177.7890  144.9120 O   0  0  0  0  0  0  0  0  0  0  0  0
  191.6670  174.5070  144.5670 C   0  0  2  0  0  3  0  0  0  0  0  0
  189.7700  175.8490  146.1750 C   0  0  1  0  0  0  0  0  0  0  0  0
  193.2610  175.3600  143.1480 C   0  0  2  0  0  3  0  0  0  0  0  0
  192.6600  174.0160  143.5810 C   0  0  0  0  0  2  0  0  0  0  0  0
  190.7250  175.8480  147.3670 C   0  0  0  0  0  1  0  0  0  0  0  0
  192.3480  176.4110  143.4620 O   0  0  0  0  0  0  0  0  0  0  0  0
  186.0720  176.6280  146.2670 C   0  0  0  0  0  3  0  0  0  0  0  0
  188.4830  177.6090  147.3680 C   0  0  0  0  0  3  0  0  0  0  0  0
  188.4720  176.5480  146.5510 C   0  0  0  0  0  0  0  0  0  0  0  0
  185.9100  177.6630  147.3500 C   0  0  1  0  0  3  0  0  0  0  0  0
  187.2670  179.3060  148.4580 O   0  0  0  0  0  0  0  0  0  0  0  0
  187.2320  176.1310  145.9490 N   0  0  0  0  0  0  0  0  0  0  0  0
  187.2300  178.2760  147.7360 C   0  0  0  0  0  0  0  0  0  0  0  0
  184.9080  178.7260  146.9160 C   0  0  0  0  0  2  0  0  0  0  0  0
  185.0240  178.9840  145.4530 C   0  0  0  0  0  0  0  0  0  0  0  0
  184.8150  177.9130  144.5350 N   0  0  0  0  0  2  0  0  0  0  0  0
  185.3370  180.1340  145.0450 O   0  0  0  0  0  0  0  0  0  0  0  0
  185.7370  176.6780  142.1740 O   0  0  0  0  0  1  0  0  0  0  0  0
  185.0530  178.0900  142.8060 P   0  0  0  0  0  0  0  0  0  0  0  0
  183.5640  178.3780  142.0590 O   0  0  0  0  0  0  0  0  0  0  0  0
  185.9790  179.2560  142.5460 O   0  0  0  0  0  1  0  0  0  0  0  0
  196.9720  169.5690  138.5430 C   0  0  0  0  0  2  0  0  0  0  0  0
  197.9400  169.2630  140.7440 C   0  0  0  0  0  1  0  0  0  0  0  0
  197.2290  170.1020  139.7340 C   0  0  0  0  0  0  0  0  0  0  0  0
  197.3640  172.6150  139.6290 C   0  0  0  0  0  2  0  0  0  0  0  0
  195.7800  172.8900  134.9150 N   0  0  0  0  0  0  0  0  0  0  0  0
  197.9240  173.8640  137.5190 C   0  0  0  0  0  2  0  0  0  0  0  0
  194.6120  173.0830  135.4260 C   0  0  0  0  0  3  0  0  0  0  0  0
  197.8370  172.4900  138.1750 C   0  0  2  0  0  3  0  0  0  0  0  0
  196.7890  172.9310  137.1610 C   0  0  2  0  0  0  0  0  0  0  0  0
  196.8970  172.4280  135.7170 C   0  0  0  0  0  2  0  0  0  0  0  0
  194.3970  172.8560  136.8930 C   0  0  0  0  0  2  0  0  0  0  0  0
  195.5000  173.4540  137.6460 N   0  0  0  0  0  2  0  0  0  0  0  0
  195.6690  173.4610  143.2220 C   0  0  0  0  0  2  0  0  0  0  0  0
  197.0700  173.0440  143.6360 C   0  0  0  0  0  2  0  0  0  0  0  0
  197.1940  172.9930  145.1490 C   0  0  0  0  0  2  0  0  0  0  0  0
  195.9110  172.4500  145.7630 C   0  0  0  0  0  2  0  0  0  0  0  0
  193.8070  168.2050  145.2840 C   0  0  0  0  0  1  0  0  0  0  0  0
  196.1380  168.2150  146.0310 N   0  0  0  0  0  0  0  0  0  0  0  0
  194.8240  168.8430  146.2110 C   0  0  1  0  0  3  0  0  0  0  0  0
  197.1930  170.2960  145.9850 O   0  0  0  0  0  0  0  0  0  0  0  0
  195.9670  170.9660  145.9370 C   0  0  0  0  0  0  0  0  0  0  0  0
  197.2350  168.9030  145.9650 C   0  0  0  0  0  3  0  0  0  0  0  0
  194.8600  170.2950  145.9960 N   0  0  0  0  0  0  0  0  0  0  0  0
  2  1  2  0  0  0  0
  2 12  1  0  0  0  0
  3  9  1  0  0  0  0
  4  9  2  0  0  0  0
  5 53  1  1  0  0  0
  7 11  1  0  0  0  0
  8  3  1  6  0  0  0
  8 22  1  0  0  0  0
  9 12  1  0  0  0  0
 10  2  1  0  0  0  0
 11  8  1  0  0  0  0
 11  5  1  0  0  0  0
 11  6  1  0  0  0  0
 12  5  1  0  0  0  0
 13 17  1  0  0  0  0
 14 13  2  0  0  0  0
 16 21  1  0  0  0  0
 17 21  1  0  0  0  0
 18 15  1  6  0  0  0
 18 20  1  0  0  0  0
 18 16  1  0  0  0  0
 19 16  2  0  0  0  0
 20 23  1  6  0  0  0
 20 13  1  0  0  0  0
 21 28  1  0  0  0  0
 21 24  1  1  0  0  0
 22 25  1  0  0  0  0
 22 23  1  6  0  0  0
 25 18  1  0  0  0  0
 26 29  1  0  0  0  0
 27 32  1  0  0  0  0
 28 27  2  0  0  0  0
 29 33  1  6  0  0  0
 29 32  1  0  0  0  0
 31 26  2  0  0  0  0
 31 28  1  0  0  0  0
 32 30  2  0  0  0  0
 34 33  1  0  0  0  0
 35 34  1  0  0  0  0
 36 34  2  0  0  0  0
 37 38  1  0  0  0  0
 38 35  1  0  0  0  0
 39 38  2  0  0  0  0
 40 38  1  0  0  0  0
 41 43  2  0  0  0  0
 43 10  1  0  0  0  0
 43 42  1  0  0  0  0
 44 10  1  0  0  0  0
 45 47  2  0  0  0  0
 45 50  1  0  0  0  0
 46 48  1  0  0  0  0
 47 51  1  0  0  0  0
 48 44  1  1  0  0  0
 49 50  1  6  0  0  0
 49 46  1  0  0  0  0
 49 52  1  0  0  0  0
 49 48  1  0  0  0  0
 51 52  1  0  0  0  0
 53 54  1  0  0  0  0
 54 55  1  0  0  0  0
 55 56  1  0  0  0  0
 56 61  1  0  0  0  0
 58 59  1  0  0  0  0
 59 57  1  6  0  0  0
 61 60  1  0  0  0  0
 61 63  2  0  0  0  0
 62 60  1  0  0  0  0
 62 58  2  0  0  0  0
 63 59  1  0  0  0  0
M  END
>  <MODEL>
4

>  <REMARK>
 VINA RESULT:      -6.8      3.372     10.812
  Name = 
  13 active torsions:
  status: ('A' for Active; 'I' for Inactive)
    1  A    between atoms: C_3  and  C_4
    2  A    between atoms: C_3  and  C_31
    3  A    between atoms: N_13  and  P_22
    4  A    between atoms: C_19  and  C_37
    5  A    between atoms: C_19  and  C_39
    6  A    between atoms: C_21  and  C_40
    7  A    between atoms: C_27  and  C_39
    8  A    between atoms: C_27  and  C_55
    9  A    between atoms: C_28  and  C_55
   10  A    between atoms: C_34  and  C_36
   11  A    between atoms: C_36  and  N_54
   12  A    between atoms: C_44  and  C_52
   13  A    between atoms: C_51  and  N_54
                            x       y       z     vdW  Elec       q    Type
                         _______ _______ _______ _____ _____    ______ ____

>  <TORSDO>
F 13

$$$$
=
 OpenBabel11072409383D

 63 69  0  0  1  0  0  0  0  0999 V2000
  194.3500  169.9580  140.2310 O   0  0  0  0  0  0  0  0  0  0  0  0
  194.8930  171.0340  139.8480 C   0  0  0  0  0  0  0  0  0  0  0  0
  192.2020  173.7710  140.2980 C   0  0  0  0  0  2  0  0  0  0  0  0
  192.1160  171.4030  140.3780 O   0  0  0  0  0  0  0  0  0  0  0  0
  195.1480  173.3890  140.6810 C   0  0  2  0  0  3  0  0  0  0  0  0
  195.3130  175.7930  140.9010 O   0  0  0  0  0  1  0  0  0  0  0  0
  194.5010  174.9360  138.9780 O   0  0  0  0  0  1  0  0  0  0  0  0
  193.0800  174.8750  140.9020 C   0  0  2  0  0  3  0  0  0  0  0  0
  192.8540  172.4230  140.3360 C   0  0  0  0  0  0  0  0  0  0  0  0
  196.0700  170.9770  139.0090 N   0  0  0  0  0  0  0  0  0  0  0  0
  194.5270  174.7720  140.3660 C   0  0  0  0  0  0  0  0  0  0  0  0
  194.2890  172.2930  140.2180 N   0  0  0  0  0  0  0  0  0  0  0  0
  190.6100  173.4280  144.8900 C   0  0  0  0  0  0  0  0  0  0  0  0
  190.4510  172.2290  144.7100 O   0  0  0  0  0  0  0  0  0  0  0  0
  189.9440  175.2340  142.6380 C   0  0  0  0  0  1  0  0  0  0  0  0
  190.6380  176.3330  144.7340 C   0  0  0  0  0  0  0  0  0  0  0  0
  189.7350  174.1960  145.8520 C   0  0  0  0  0  2  0  0  0  0  0  0
  191.1190  175.4680  143.5940 C   0  0  1  0  0  0  0  0  0  0  0  0
  190.6120  177.5440  144.5910 O   0  0  0  0  0  0  0  0  0  0  0  0
  191.6660  174.1980  144.1750 C   0  0  2  0  0  3  0  0  0  0  0  0
  190.1590  175.6870  146.0440 C   0  0  1  0  0  0  0  0  0  0  0  0
  192.9900  174.9220  142.4410 C   0  0  2  0  0  3  0  0  0  0  0  0
  192.4360  173.6240  143.0440 C   0  0  0  0  0  2  0  0  0  0  0  0
  191.3220  175.6930  147.0340 C   0  0  0  0  0  1  0  0  0  0  0  0
  192.1910  176.0230  142.8710 O   0  0  0  0  0  0  0  0  0  0  0  0
  186.5780  176.5860  146.8620 C   0  0  0  0  0  3  0  0  0  0  0  0
  189.1820  177.5880  147.3140 C   0  0  0  0  0  3  0  0  0  0  0  0
  188.9820  176.4570  146.6240 C   0  0  0  0  0  0  0  0  0  0  0  0
  186.6680  177.7200  147.8490 C   0  0  1  0  0  3  0  0  0  0  0  0
  188.2510  179.4150  148.4730 O   0  0  0  0  0  0  0  0  0  0  0  0
  187.6350  176.0260  146.3490 N   0  0  0  0  0  0  0  0  0  0  0  0
  188.0460  178.3250  147.8790 C   0  0  0  0  0  0  0  0  0  0  0  0
  185.6060  178.7690  147.5430 C   0  0  0  0  0  2  0  0  0  0  0  0
  185.0160  178.5340  146.1950 C   0  0  0  0  0  0  0  0  0  0  0  0
  185.8590  178.5790  145.0440 N   0  0  0  0  0  2  0  0  0  0  0  0
  183.7770  178.3340  146.0810 O   0  0  0  0  0  0  0  0  0  0  0  0
  186.2310  179.2980  142.3440 O   0  0  0  0  0  0  0  0  0  0  0  0
  185.2360  178.4410  143.4100 P   0  0  0  0  0  0  0  0  0  0  0  0
  185.1960  176.8120  142.9580 O   0  0  0  0  0  1  0  0  0  0  0  0
  183.8370  179.0110  143.3590 O   0  0  0  0  0  1  0  0  0  0  0  0
  197.9280  169.5620  138.4050 C   0  0  0  0  0  2  0  0  0  0  0  0
  195.7290  168.5480  138.3000 C   0  0  0  0  0  1  0  0  0  0  0  0
  196.6240  169.6990  138.6240 C   0  0  0  0  0  0  0  0  0  0  0  0
  196.5510  172.2030  138.3560 C   0  0  0  0  0  2  0  0  0  0  0  0
  196.1770  175.4900  134.6340 N   0  0  0  0  0  0  0  0  0  0  0  0
  196.8570  172.2710  135.8620 C   0  0  0  0  0  2  0  0  0  0  0  0
  196.9540  176.2310  135.3470 C   0  0  0  0  0  3  0  0  0  0  0  0
  195.8630  172.4410  137.0060 C   0  0  2  0  0  3  0  0  0  0  0  0
  196.4030  173.6570  136.2630 C   0  0  2  0  0  0  0  0  0  0  0  0
  195.5340  174.3100  135.1820 C   0  0  0  0  0  2  0  0  0  0  0  0
  197.2310  175.8590  136.7730 C   0  0  0  0  0  2  0  0  0  0  0  0
  197.5100  174.4250  136.8570 N   0  0  0  0  0  2  0  0  0  0  0  0
  195.5030  173.1850  142.1560 C   0  0  0  0  0  2  0  0  0  0  0  0
  196.7980  173.8990  142.5010 C   0  0  0  0  0  2  0  0  0  0  0  0
  196.6200  174.7800  143.7250 C   0  0  0  0  0  2  0  0  0  0  0  0
  197.1210  174.0600  144.9700 C   0  0  0  0  0  2  0  0  0  0  0  0
  197.5130  169.4400  146.0500 C   0  0  0  0  0  1  0  0  0  0  0  0
  195.2570  170.3050  145.6640 N   0  0  0  0  0  0  0  0  0  0  0  0
  196.6360  170.3030  145.1640 C   0  0  1  0  0  3  0  0  0  0  0  0
  195.1040  172.6200  145.4090 O   0  0  0  0  0  0  0  0  0  0  0  0
  196.4710  172.7240  145.1330 C   0  0  0  0  0  0  0  0  0  0  0  0
  194.5450  171.3860  145.7370 C   0  0  0  0  0  3  0  0  0  0  0  0
  197.1990  171.6540  145.0620 N   0  0  0  0  0  0  0  0  0  0  0  0
  2 12  1  0  0  0  0
  2  1  2  0  0  0  0
  3  9  1  0  0  0  0
  5 53  1  1  0  0  0
  7 11  1  0  0  0  0
  8  3  1  1  0  0  0
  8 22  1  0  0  0  0
  9  4  2  0  0  0  0
 10  2  1  0  0  0  0
 11  5  1  0  0  0  0
 11  6  1  0  0  0  0
 11  8  1  0  0  0  0
 12  9  1  0  0  0  0
 12  5  1  0  0  0  0
 13 17  1  0  0  0  0
 14 13  2  0  0  0  0
 16 21  1  0  0  0  0
 17 21  1  0  0  0  0
 18 15  1  6  0  0  0
 18 20  1  0  0  0  0
 18 16  1  0  0  0  0
 19 16  2  0  0  0  0
 20 23  1  6  0  0  0
 20 13  1  0  0  0  0
 21 28  1  0  0  0  0
 21 24  1  1  0  0  0
 22 25  1  0  0  0  0
 22 23  1  6  0  0  0
 25 18  1  0  0  0  0
 26 29  1  0  0  0  0
 27 32  1  0  0  0  0
 28 27  2  0  0  0  0
 29 33  1  6  0  0  0
 29 32  1  0  0  0  0
 31 28  1  0  0  0  0
 31 26  2  0  0  0  0
 32 30  2  0  0  0  0
 34 33  1  0  0  0  0
 35 34  1  0  0  0  0
 36 34  2  0  0  0  0
 37 38  2  0  0  0  0
 38 35  1  0  0  0  0
 39 38  1  0  0  0  0
 40 38  1  0  0  0  0
 41 43  2  0  0  0  0
 42 43  1  0  0  0  0
 43 10  1  0  0  0  0
 44 10  1  0  0  0  0
 45 50  1  0  0  0  0
 45 47  2  0  0  0  0
 46 49  1  0  0  0  0
 46 48  1  0  0  0  0
 47 51  1  0  0  0  0
 48 44  1  1  0  0  0
 49 50  1  6  0  0  0
 49 52  1  0  0  0  0
 49 48  1  0  0  0  0
 51 52  1  0  0  0  0
 53 54  1  0  0  0  0
 54 55  1  0  0  0  0
 55 56  1  0  0  0  0
 56 61  1  0  0  0  0
 58 62  2  0  0  0  0
 59 58  1  0  0  0  0
 59 57  1  1  0  0  0
 60 62  1  0  0  0  0
 61 60  1  0  0  0  0
 63 61  2  0  0  0  0
 63 59  1  0  0  0  0
M  END
>  <MODEL>
5

>  <REMARK>
 VINA RESULT:      -6.1      3.280     10.894
  Name = 
  13 active torsions:
  status: ('A' for Active; 'I' for Inactive)
    1  A    between atoms: C_3  and  C_4
    2  A    between atoms: C_3  and  C_31
    3  A    between atoms: N_13  and  P_22
    4  A    between atoms: C_19  and  C_37
    5  A    between atoms: C_19  and  C_39
    6  A    between atoms: C_21  and  C_40
    7  A    between atoms: C_27  and  C_39
    8  A    between atoms: C_27  and  C_55
    9  A    between atoms: C_28  and  C_55
   10  A    between atoms: C_34  and  C_36
   11  A    between atoms: C_36  and  N_54
   12  A    between atoms: C_44  and  C_52
   13  A    between atoms: C_51  and  N_54
                            x       y       z     vdW  Elec       q    Type
                         _______ _______ _______ _____ _____    ______ ____

>  <TORSDO>
F 13

$$$$
=
 OpenBabel11072409383D

 63 69  0  0  1  0  0  0  0  0999 V2000
  194.5110  169.1710  138.7150 O   0  0  0  0  0  0  0  0  0  0  0  0
  194.5690  170.3140  138.1750 C   0  0  0  0  0  0  0  0  0  0  0  0
  191.3710  172.1610  139.3140 C   0  0  0  0  0  2  0  0  0  0  0  0
  192.0570  169.8960  139.4570 O   0  0  0  0  0  0  0  0  0  0  0  0
  194.2800  172.7120  138.8630 C   0  0  2  0  0  3  0  0  0  0  0  0
  193.7340  175.0660  138.9850 O   0  0  0  0  0  1  0  0  0  0  0  0
  192.7600  173.8110  137.3820 O   0  0  0  0  0  1  0  0  0  0  0  0
  191.9840  173.5320  139.6290 C   0  0  2  0  0  3  0  0  0  0  0  0
  192.4000  171.0780  139.1920 C   0  0  0  0  0  0  0  0  0  0  0  0
  195.4430  170.5220  137.0420 N   0  0  0  0  0  0  0  0  0  0  0  0
  193.1970  173.8070  138.7100 C   0  0  0  0  0  0  0  0  0  0  0  0
  193.7190  171.3680  138.6790 N   0  0  0  0  0  0  0  0  0  0  0  0
  190.5190  172.6240  144.2250 C   0  0  0  0  0  0  0  0  0  0  0  0
  190.2470  171.4320  144.2090 O   0  0  0  0  0  0  0  0  0  0  0  0
  189.4170  174.2920  142.0390 C   0  0  0  0  0  1  0  0  0  0  0  0
  190.6850  175.4940  143.7800 C   0  0  0  0  0  0  0  0  0  0  0  0
  189.9650  173.5370  145.2920 C   0  0  0  0  0  2  0  0  0  0  0  0
  190.8080  174.5030  142.6480 C   0  0  1  0  0  0  0  0  0  0  0  0
  190.6970  176.6870  143.5290 O   0  0  0  0  0  0  0  0  0  0  0  0
  191.4050  173.2420  143.1990 C   0  0  2  0  0  3  0  0  0  0  0  0
  190.5140  174.9980  145.2260 C   0  0  1  0  0  0  0  0  0  0  0  0
  192.2890  173.7100  141.1300 C   0  0  2  0  0  3  0  0  0  0  0  0
  191.8270  172.5170  141.9760 C   0  0  0  0  0  2  0  0  0  0  0  0
  191.8880  174.9850  145.8920 C   0  0  0  0  0  1  0  0  0  0  0  0
  191.6940  174.9060  141.6320 O   0  0  0  0  0  0  0  0  0  0  0  0
  187.2790  176.3880  146.6040 C   0  0  0  0  0  3  0  0  0  0  0  0
  190.0460  176.9600  146.6780 C   0  0  0  0  0  3  0  0  0  0  0  0
  189.5710  175.9080  145.9980 C   0  0  0  0  0  0  0  0  0  0  0  0
  187.6910  177.4460  147.5950 C   0  0  1  0  0  3  0  0  0  0  0  0
  189.5950  178.8480  148.0120 O   0  0  0  0  0  0  0  0  0  0  0  0
  188.1470  175.7000  145.9210 N   0  0  0  0  0  0  0  0  0  0  0  0
  189.1360  177.8320  147.4290 C   0  0  0  0  0  0  0  0  0  0  0  0
  186.7740  178.6570  147.4810 C   0  0  0  0  0  2  0  0  0  0  0  0
  186.0140  178.6170  146.2000 C   0  0  0  0  0  0  0  0  0  0  0  0
  186.6690  178.1760  145.0120 N   0  0  0  0  0  2  0  0  0  0  0  0
  184.8150  179.0040  146.1720 O   0  0  0  0  0  0  0  0  0  0  0  0
  184.4000  178.9950  143.5530 O   0  0  0  0  0  1  0  0  0  0  0  0
  185.8960  178.2140  143.4370 P   0  0  0  0  0  0  0  0  0  0  0  0
  186.8830  179.0450  142.3450 O   0  0  0  0  0  0  0  0  0  0  0  0
  185.6860  176.7990  142.9490 O   0  0  0  0  0  1  0  0  0  0  0  0
  195.9210  168.8110  135.4090 C   0  0  0  0  0  2  0  0  0  0  0  0
  197.3640  168.8690  137.3570 C   0  0  0  0  0  1  0  0  0  0  0  0
  196.2480  169.4320  136.5390 C   0  0  0  0  0  0  0  0  0  0  0  0
  195.3260  171.7590  136.2590 C   0  0  0  0  0  2  0  0  0  0  0  0
  197.9380  175.7890  134.9370 N   0  0  0  0  0  0  0  0  0  0  0  0
  197.5530  172.8130  136.7620 C   0  0  0  0  0  2  0  0  0  0  0  0
  196.8820  176.4530  135.2600 C   0  0  0  0  0  3  0  0  0  0  0  0
  196.6750  172.2000  135.6760 C   0  0  2  0  0  3  0  0  0  0  0  0
  196.8920  173.7070  135.7360 C   0  0  2  0  0  0  0  0  0  0  0  0
  197.9160  174.3450  134.7900 C   0  0  0  0  0  2  0  0  0  0  0  0
  195.5960  175.7240  135.5200 C   0  0  0  0  0  2  0  0  0  0  0  0
  195.8610  174.5540  136.3580 N   0  0  0  0  0  2  0  0  0  0  0  0
  195.0530  172.7760  140.1820 C   0  0  0  0  0  2  0  0  0  0  0  0
  196.2760  173.6670  140.0450 C   0  0  0  0  0  2  0  0  0  0  0  0
  196.3330  174.6840  141.1720 C   0  0  0  0  0  2  0  0  0  0  0  0
  197.6590  174.5770  141.9110 C   0  0  0  0  0  2  0  0  0  0  0  0
  196.5270  172.2910  145.9310 C   0  0  0  0  0  1  0  0  0  0  0  0
  197.6450  170.9890  144.1870 N   0  0  0  0  0  0  0  0  0  0  0  0
  197.6530  172.2620  144.9160 C   0  0  1  0  0  3  0  0  0  0  0  0
  197.9280  172.0860  142.1470 O   0  0  0  0  0  0  0  0  0  0  0  0
  197.7290  173.3350  142.7410 C   0  0  0  0  0  0  0  0  0  0  0  0
  197.8110  170.9210  142.9030 C   0  0  0  0  0  3  0  0  0  0  0  0
  197.5550  173.4220  144.0230 N   0  0  0  0  0  0  0  0  0  0  0  0
  2 12  1  0  0  0  0
  2  1  2  0  0  0  0
  5 53  1  1  0  0  0
  7 11  1  0  0  0  0
  8  3  1  1  0  0  0
  8 22  1  0  0  0  0
  9  3  1  0  0  0  0
  9  4  2  0  0  0  0
 10  2  1  0  0  0  0
 11  5  1  0  0  0  0
 11  6  1  0  0  0  0
 11  8  1  0  0  0  0
 12  5  1  0  0  0  0
 12  9  1  0  0  0  0
 13 17  1  0  0  0  0
 14 13  2  0  0  0  0
 16 21  1  0  0  0  0
 18 15  1  6  0  0  0
 18 20  1  0  0  0  0
 18 16  1  0  0  0  0
 19 16  2  0  0  0  0
 20 23  1  6  0  0  0
 20 13  1  0  0  0  0
 21 17  1  0  0  0  0
 21 24  1  1  0  0  0
 21 28  1  0  0  0  0
 22 25  1  0  0  0  0
 22 23  1  1  0  0  0
 25 18  1  0  0  0  0
 26 29  1  0  0  0  0
 27 32  1  0  0  0  0
 28 27  2  0  0  0  0
 29 33  1  6  0  0  0
 31 28  1  0  0  0  0
 31 26  2  0  0  0  0
 32 29  1  0  0  0  0
 32 30  2  0  0  0  0
 34 33  1  0  0  0  0
 35 34  1  0  0  0  0
 36 34  2  0  0  0  0
 38 37  1  0  0  0  0
 38 35  1  0  0  0  0
 39 38  2  0  0  0  0
 40 38  1  0  0  0  0
 41 43  2  0  0  0  0
 43 10  1  0  0  0  0
 43 42  1  0  0  0  0
 44 10  1  0  0  0  0
 45 47  2  0  0  0  0
 47 51  1  0  0  0  0
 48 49  1  0  0  0  0
 48 44  1  1  0  0  0
 48 46  1  0  0  0  0
 49 50  1  6  0  0  0
 49 52  1  0  0  0  0
 49 46  1  0  0  0  0
 50 45  1  0  0  0  0
 51 52  1  0  0  0  0
 54 53  1  0  0  0  0
 54 55  1  0  0  0  0
 55 56  1  0  0  0  0
 56 61  1  0  0  0  0
 58 59  1  0  0  0  0
 59 57  1  1  0  0  0
 60 61  1  0  0  0  0
 60 62  1  0  0  0  0
 61 63  2  0  0  0  0
 62 58  2  0  0  0  0
 63 59  1  0  0  0  0
M  END
>  <MODEL>
6

>  <REMARK>
 VINA RESULT:      -5.8      3.290     10.971
  Name = 
  13 active torsions:
  status: ('A' for Active; 'I' for Inactive)
    1  A    between atoms: C_3  and  C_4
    2  A    between atoms: C_3  and  C_31
    3  A    between atoms: N_13  and  P_22
    4  A    between atoms: C_19  and  C_37
    5  A    between atoms: C_19  and  C_39
    6  A    between atoms: C_21  and  C_40
    7  A    between atoms: C_27  and  C_39
    8  A    between atoms: C_27  and  C_55
    9  A    between atoms: C_28  and  C_55
   10  A    between atoms: C_34  and  C_36
   11  A    between atoms: C_36  and  N_54
   12  A    between atoms: C_44  and  C_52
   13  A    between atoms: C_51  and  N_54
                            x       y       z     vdW  Elec       q    Type
                         _______ _______ _______ _____ _____    ______ ____

>  <TORSDO>
F 13

$$$$
=
 OpenBabel11072409383D

 63 69  0  0  1  0  0  0  0  0999 V2000
  195.1880  175.1420  145.6320 O   0  0  0  0  0  0  0  0  0  0  0  0
  194.6960  174.3070  144.8200 C   0  0  0  0  0  0  0  0  0  0  0  0
  190.9390  174.0940  145.7050 C   0  0  0  0  0  2  0  0  0  0  0  0
  192.7990  175.0690  146.8080 O   0  0  0  0  0  0  0  0  0  0  0  0
  192.7110  174.1480  143.2900 C   0  0  2  0  0  3  0  0  0  0  0  0
  190.7910  173.4230  142.0090 O   0  0  0  0  0  1  0  0  0  0  0  0
  191.5330  172.1070  143.6850 O   0  0  0  0  0  1  0  0  0  0  0  0
  190.3570  174.1020  144.2850 C   0  0  2  0  0  3  0  0  0  0  0  0
  192.3700  174.5380  145.7490 C   0  0  0  0  0  0  0  0  0  0  0  0
  195.5700  173.3850  144.1300 N   0  0  0  0  0  0  0  0  0  0  0  0
  191.3370  173.4340  143.2930 C   0  0  0  0  0  0  0  0  0  0  0  0
  193.2620  174.2640  144.6460 N   0  0  0  0  0  0  0  0  0  0  0  0
  187.4520  177.9310  145.2820 C   0  0  0  0  0  0  0  0  0  0  0  0
  187.6500  178.1400  146.4700 O   0  0  0  0  0  0  0  0  0  0  0  0
  186.9100  175.1340  144.4710 C   0  0  0  0  0  1  0  0  0  0  0  0
  186.7810  176.8230  142.6770 C   0  0  0  0  0  0  0  0  0  0  0  0
  186.2070  178.4420  144.5960 C   0  0  0  0  0  2  0  0  0  0  0  0
  187.7240  176.1210  143.6250 C   0  0  1  0  0  0  0  0  0  0  0  0
  186.4840  176.2820  141.6250 O   0  0  0  0  0  0  0  0  0  0  0  0
  188.4180  177.1650  144.4460 C   0  0  2  0  0  3  0  0  0  0  0  0
  186.1810  178.1870  143.0550 C   0  0  1  0  0  0  0  0  0  0  0  0
  189.8920  175.5060  143.8480 C   0  0  2  0  0  3  0  0  0  0  0  0
  189.5560  176.4180  145.0350 C   0  0  0  0  0  2  0  0  0  0  0  0
  187.0330  179.2790  142.4110 C   0  0  0  0  0  1  0  0  0  0  0  0
  188.7620  175.4210  142.9810 O   0  0  0  0  0  0  0  0  0  0  0  0
  182.4710  178.9140  143.1160 C   0  0  0  0  0  3  0  0  0  0  0  0
  184.4140  177.9060  141.3290 C   0  0  0  0  0  3  0  0  0  0  0  0
  184.7440  178.2960  142.5670 C   0  0  0  0  0  0  0  0  0  0  0  0
  182.0090  178.7450  141.6920 C   0  0  1  0  0  3  0  0  0  0  0  0
  182.7300  177.5940  139.7120 O   0  0  0  0  0  0  0  0  0  0  0  0
  183.7100  178.7280  143.4720 N   0  0  0  0  0  0  0  0  0  0  0  0
  183.0300  178.0200  140.8580 C   0  0  0  0  0  0  0  0  0  0  0  0
  180.6590  178.0400  141.6580 C   0  0  0  0  0  2  0  0  0  0  0  0
  179.5850  178.9900  141.2510 C   0  0  0  0  0  0  0  0  0  0  0  0
  179.8020  179.8550  140.1380 N   0  0  0  0  0  2  0  0  0  0  0  0
  178.5140  179.0420  141.9120 O   0  0  0  0  0  0  0  0  0  0  0  0
  177.6980  181.5270  140.9910 O   0  0  0  0  0  1  0  0  0  0  0  0
  178.6500  181.0900  139.6630 P   0  0  0  0  0  0  0  0  0  0  0  0
  179.4820  182.4480  139.0940 O   0  0  0  0  0  1  0  0  0  0  0  0
  177.7620  180.5500  138.5660 O   0  0  0  0  0  0  0  0  0  0  0  0
  197.5530  172.6850  145.3120 C   0  0  0  0  0  2  0  0  0  0  0  0
  197.8520  174.4300  143.6560 C   0  0  0  0  0  1  0  0  0  0  0  0
  196.9960  173.4290  144.3610 C   0  0  0  0  0  0  0  0  0  0  0  0
  194.9890  172.2570  143.3900 C   0  0  0  0  0  2  0  0  0  0  0  0
  196.1690  169.1340  139.6940 N   0  0  0  0  0  0  0  0  0  0  0  0
  194.3240  171.8190  141.0050 C   0  0  0  0  0  2  0  0  0  0  0  0
  195.9490  168.1980  140.5520 C   0  0  0  0  0  3  0  0  0  0  0  0
  195.4660  172.2190  141.9320 C   0  0  2  0  0  3  0  0  0  0  0  0
  195.4190  170.8240  141.3200 C   0  0  2  0  0  0  0  0  0  0  0  0
  196.2890  170.5240  140.0950 C   0  0  0  0  0  2  0  0  0  0  0  0
  195.7830  168.5440  142.0020 C   0  0  0  0  0  2  0  0  0  0  0  0
  194.9020  169.7060  142.1270 N   0  0  0  0  0  2  0  0  0  0  0  0
  192.7010  175.5210  142.6140 C   0  0  0  0  0  2  0  0  0  0  0  0
  194.0030  175.7630  141.8700 C   0  0  0  0  0  2  0  0  0  0  0  0
  193.8570  175.4160  140.3990 C   0  0  0  0  0  2  0  0  0  0  0  0
  195.2270  175.1880  139.7740 C   0  0  0  0  0  2  0  0  0  0  0  0
  193.5830  176.6770  135.5610 C   0  0  0  0  0  1  0  0  0  0  0  0
  195.1380  174.7880  135.5450 N   0  0  0  0  0  0  0  0  0  0  0  0
  193.9560  175.3560  136.2040 C   0  0  1  0  0  3  0  0  0  0  0  0
  196.1160  174.2810  137.6020 O   0  0  0  0  0  0  0  0  0  0  0  0
  195.1330  174.9930  138.2950 C   0  0  0  0  0  0  0  0  0  0  0  0
  196.1170  174.2580  136.2080 C   0  0  0  0  0  3  0  0  0  0  0  0
  194.1500  175.5350  137.6480 N   0  0  0  0  0  0  0  0  0  0  0  0
  2  1  2  0  0  0  0
  3  9  1  0  0  0  0
  5 53  1  1  0  0  0
  5 11  1  0  0  0  0
  5 12  1  0  0  0  0
  6 11  1  0  0  0  0
  8  3  1  1  0  0  0
  9  4  2  0  0  0  0
 10 43  1  0  0  0  0
 10  2  1  0  0  0  0
 11  7  1  0  0  0  0
 11  8  1  0  0  0  0
 12  2  1  0  0  0  0
 12  9  1  0  0  0  0
 13 14  2  0  0  0  0
 16 21  1  0  0  0  0
 16 18  1  0  0  0  0
 17 13  1  0  0  0  0
 18 20  1  0  0  0  0
 18 15  1  1  0  0  0
 19 16  2  0  0  0  0
 20 23  1  1  0  0  0
 20 13  1  0  0  0  0
 21 24  1  6  0  0  0
 21 17  1  0  0  0  0
 22  8  1  0  0  0  0
 22 23  1  1  0  0  0
 25 18  1  0  0  0  0
 25 22  1  0  0  0  0
 26 31  2  0  0  0  0
 27 28  2  0  0  0  0
 28 21  1  0  0  0  0
 28 31  1  0  0  0  0
 29 33  1  1  0  0  0
 29 26  1  0  0  0  0
 30 32  2  0  0  0  0
 32 27  1  0  0  0  0
 32 29  1  0  0  0  0
 34 33  1  0  0  0  0
 34 36  2  0  0  0  0
 35 34  1  0  0  0  0
 38 35  1  0  0  0  0
 38 37  1  0  0  0  0
 39 38  1  0  0  0  0
 40 38  2  0  0  0  0
 42 43  1  0  0  0  0
 43 41  2  0  0  0  0
 44 10  1  0  0  0  0
 45 50  1  0  0  0  0
 45 47  2  0  0  0  0
 46 49  1  0  0  0  0
 46 48  1  0  0  0  0
 47 51  1  0  0  0  0
 48 44  1  1  0  0  0
 49 50  1  6  0  0  0
 49 48  1  0  0  0  0
 49 52  1  0  0  0  0
 51 52  1  0  0  0  0
 54 53  1  0  0  0  0
 55 54  1  0  0  0  0
 56 55  1  0  0  0  0
 58 59  1  0  0  0  0
 58 62  2  0  0  0  0
 59 57  1  6  0  0  0
 59 63  1  0  0  0  0
 60 61  1  0  0  0  0
 61 56  1  0  0  0  0
 62 60  1  0  0  0  0
 63 61  2  0  0  0  0
M  END
>  <MODEL>
7

>  <REMARK>
 VINA RESULT:      -5.8      5.118     11.496
  Name = 
  13 active torsions:
  status: ('A' for Active; 'I' for Inactive)
    1  A    between atoms: C_3  and  C_4
    2  A    between atoms: C_3  and  C_31
    3  A    between atoms: N_13  and  P_22
    4  A    between atoms: C_19  and  C_37
    5  A    between atoms: C_19  and  C_39
    6  A    between atoms: C_21  and  C_40
    7  A    between atoms: C_27  and  C_39
    8  A    between atoms: C_27  and  C_55
    9  A    between atoms: C_28  and  C_55
   10  A    between atoms: C_34  and  C_36
   11  A    between atoms: C_36  and  N_54
   12  A    between atoms: C_44  and  C_52
   13  A    between atoms: C_51  and  N_54
                            x       y       z     vdW  Elec       q    Type
                         _______ _______ _______ _____ _____    ______ ____

>  <TORSDO>
F 13

$$$$
=
 OpenBabel11072409383D

 63 69  0  0  1  0  0  0  0  0999 V2000
  197.7080  174.1890  138.0250 O   0  0  0  0  0  0  0  0  0  0  0  0
  196.7110  173.4120  138.0650 C   0  0  0  0  0  0  0  0  0  0  0  0
  196.0390  172.7820  141.8190 C   0  0  0  0  0  2  0  0  0  0  0  0
  197.8470  173.7800  140.6540 O   0  0  0  0  0  0  0  0  0  0  0  0
  194.5190  173.2590  139.2820 C   0  0  2  0  0  3  0  0  0  0  0  0
  192.5410  172.5230  140.4650 O   0  0  0  0  0  1  0  0  0  0  0  0
  194.2750  171.0930  140.2610 O   0  0  0  0  0  1  0  0  0  0  0  0
  194.5080  172.9010  141.8120 C   0  0  2  0  0  3  0  0  0  0  0  0
  196.6700  173.3380  140.5780 C   0  0  0  0  0  0  0  0  0  0  0  0
  196.3530  172.6520  136.8880 N   0  0  0  0  0  0  0  0  0  0  0  0
  193.9340  172.4340  140.4550 C   0  0  0  0  0  0  0  0  0  0  0  0
  195.9870  173.2670  139.3070 N   0  0  0  0  0  0  0  0  0  0  0  0
  193.5120  175.8920  145.5740 C   0  0  0  0  0  0  0  0  0  0  0  0
  194.4910  175.7800  146.2980 O   0  0  0  0  0  0  0  0  0  0  0  0
  192.2640  173.3940  144.5870 C   0  0  0  0  0  1  0  0  0  0  0  0
  191.1240  175.4900  143.9610 C   0  0  0  0  0  0  0  0  0  0  0  0
  192.2000  176.4140  146.1110 C   0  0  0  0  0  2  0  0  0  0  0  0
  192.3770  174.6740  143.7500 C   0  0  1  0  0  0  0  0  0  0  0  0
  190.1320  175.2360  143.3000 O   0  0  0  0  0  0  0  0  0  0  0  0
  193.5530  175.5230  144.1320 C   0  0  2  0  0  3  0  0  0  0  0  0
  191.0980  176.6040  145.0200 C   0  0  1  0  0  0  0  0  0  0  0  0
  194.0260  174.3000  142.2440 C   0  0  2  0  0  3  0  0  0  0  0  0
  194.6950  174.7890  143.5350 C   0  0  0  0  0  2  0  0  0  0  0  0
  191.3890  177.9320  144.3230 C   0  0  0  0  0  1  0  0  0  0  0  0
  192.6080  174.3210  142.4080 O   0  0  0  0  0  0  0  0  0  0  0  0
  187.5540  175.6560  145.9330 C   0  0  0  0  0  3  0  0  0  0  0  0
  189.4570  177.6460  146.5690 C   0  0  0  0  0  3  0  0  0  0  0  0
  189.7410  176.6640  145.7040 C   0  0  0  0  0  0  0  0  0  0  0  0
  187.1890  176.5480  147.0910 C   0  0  1  0  0  3  0  0  0  0  0  0
  187.8820  178.6610  147.9970 O   0  0  0  0  0  0  0  0  0  0  0  0
  188.7150  175.7170  145.3480 N   0  0  0  0  0  0  0  0  0  0  0  0
  188.1500  177.6970  147.2330 C   0  0  0  0  0  0  0  0  0  0  0  0
  185.7530  177.0360  146.9460 C   0  0  0  0  0  2  0  0  0  0  0  0
  185.5330  177.6110  145.5890 C   0  0  0  0  0  0  0  0  0  0  0  0
  185.9870  176.8940  144.4430 N   0  0  0  0  0  2  0  0  0  0  0  0
  184.9810  178.7380  145.4710 O   0  0  0  0  0  0  0  0  0  0  0  0
  186.6410  179.0600  142.7610 O   0  0  0  0  0  1  0  0  0  0  0  0
  185.8860  177.5470  142.8180 P   0  0  0  0  0  0  0  0  0  0  0  0
  186.6510  176.4950  141.7390 O   0  0  0  0  0  0  0  0  0  0  0  0
  184.4330  177.6980  142.4290 O   0  0  0  0  0  1  0  0  0  0  0  0
  197.0110  173.8780  134.9170 C   0  0  0  0  0  2  0  0  0  0  0  0
  197.9410  171.6520  135.1560 C   0  0  0  0  0  1  0  0  0  0  0  0
  197.1260  172.7910  135.6740 C   0  0  0  0  0  0  0  0  0  0  0  0
  195.3670  171.5690  137.0000 C   0  0  0  0  0  2  0  0  0  0  0  0
  192.1060  168.5300  134.7780 N   0  0  0  0  0  0  0  0  0  0  0  0
  193.6130  171.6740  135.2010 C   0  0  0  0  0  2  0  0  0  0  0  0
  191.7130  168.2450  135.9720 C   0  0  0  0  0  3  0  0  0  0  0  0
  194.9340  171.0410  135.6260 C   0  0  2  0  0  3  0  0  0  0  0  0
  193.6400  170.2360  135.6710 C   0  0  2  0  0  0  0  0  0  0  0  0
  193.3390  169.2560  134.5330 C   0  0  0  0  0  2  0  0  0  0  0  0
  192.5280  168.6950  137.1490 C   0  0  0  0  0  2  0  0  0  0  0  0
  192.9360  170.0870  136.9560 N   0  0  0  0  0  2  0  0  0  0  0  0
  193.9920  174.6940  139.2010 C   0  0  0  0  0  2  0  0  0  0  0  0
  193.8370  175.1290  137.7540 C   0  0  0  0  0  2  0  0  0  0  0  0
  193.0870  174.0800  136.9520 C   0  0  0  0  0  2  0  0  0  0  0  0
  191.6220  174.4700  136.8140 C   0  0  0  0  0  2  0  0  0  0  0  0
  188.2560  173.6310  140.0740 C   0  0  0  0  0  1  0  0  0  0  0  0
  188.8980  171.7630  138.6300 N   0  0  0  0  0  0  0  0  0  0  0  0
  189.4070  172.8710  139.4450 C   0  0  1  0  0  3  0  0  0  0  0  0
  190.3460  172.3020  136.8820 O   0  0  0  0  0  0  0  0  0  0  0  0
  190.7240  173.4950  137.5050 C   0  0  0  0  0  0  0  0  0  0  0  0
  189.3700  171.4880  137.4540 C   0  0  0  0  0  3  0  0  0  0  0  0
  190.2570  173.7890  138.6770 N   0  0  0  0  0  0  0  0  0  0  0  0
  1  2  2  0  0  0  0
  2 12  1  0  0  0  0
  5 53  1  1  0  0  0
  5 12  1  0  0  0  0
  5 11  1  0  0  0  0
  7 11  1  0  0  0  0
  8  3  1  6  0  0  0
  8 22  1  0  0  0  0
  9  4  2  0  0  0  0
  9  3  1  0  0  0  0
 10 44  1  0  0  0  0
 10  2  1  0  0  0  0
 11  6  1  0  0  0  0
 11  8  1  0  0  0  0
 12  9  1  0  0  0  0
 13 17  1  0  0  0  0
 13 14  2  0  0  0  0
 16 21  1  0  0  0  0
 18 16  1  0  0  0  0
 18 20  1  0  0  0  0
 18 15  1  1  0  0  0
 19 16  2  0  0  0  0
 20 23  1  1  0  0  0
 20 13  1  0  0  0  0
 21 24  1  6  0  0  0
 21 28  1  0  0  0  0
 21 17  1  0  0  0  0
 22 25  1  0  0  0  0
 22 23  1  1  0  0  0
 25 18  1  0  0  0  0
 26 29  1  0  0  0  0
 27 32  1  0  0  0  0
 28 27  2  0  0  0  0
 29 33  1  6  0  0  0
 29 32  1  0  0  0  0
 31 28  1  0  0  0  0
 31 26  2  0  0  0  0
 32 30  2  0  0  0  0
 34 33  1  0  0  0  0
 35 34  1  0  0  0  0
 36 34  2  0  0  0  0
 37 38  1  0  0  0  0
 38 35  1  0  0  0  0
 39 38  2  0  0  0  0
 40 38  1  0  0  0  0
 41 43  2  0  0  0  0
 42 43  1  0  0  0  0
 43 10  1  0  0  0  0
 45 47  2  0  0  0  0
 46 48  1  0  0  0  0
 46 49  1  0  0  0  0
 47 51  1  0  0  0  0
 48 49  1  0  0  0  0
 48 44  1  1  0  0  0
 49 50  1  6  0  0  0
 49 52  1  0  0  0  0
 50 45  1  0  0  0  0
 52 51  1  0  0  0  0
 54 53  1  0  0  0  0
 55 54  1  0  0  0  0
 56 55  1  0  0  0  0
 56 61  1  0  0  0  0
 58 59  1  0  0  0  0
 59 57  1  6  0  0  0
 60 62  1  0  0  0  0
 60 61  1  0  0  0  0
 61 63  2  0  0  0  0
 62 58  2  0  0  0  0
 63 59  1  0  0  0  0
M  END
>  <MODEL>
8

>  <REMARK>
 VINA RESULT:      -5.6      3.249     10.167
  Name = 
  13 active torsions:
  status: ('A' for Active; 'I' for Inactive)
    1  A    between atoms: C_3  and  C_4
    2  A    between atoms: C_3  and  C_31
    3  A    between atoms: N_13  and  P_22
    4  A    between atoms: C_19  and  C_37
    5  A    between atoms: C_19  and  C_39
    6  A    between atoms: C_21  and  C_40
    7  A    between atoms: C_27  and  C_39
    8  A    between atoms: C_27  and  C_55
    9  A    between atoms: C_28  and  C_55
   10  A    between atoms: C_34  and  C_36
   11  A    between atoms: C_36  and  N_54
   12  A    between atoms: C_44  and  C_52
   13  A    between atoms: C_51  and  N_54
                            x       y       z     vdW  Elec       q    Type
                         _______ _______ _______ _____ _____    ______ ____

>  <TORSDO>
F 13

$$$$
=
 OpenBabel11072409383D

 63 69  0  0  1  0  0  0  0  0999 V2000
  195.3080  176.1720  143.9030 O   0  0  0  0  0  0  0  0  0  0  0  0
  194.8840  174.9810  143.8930 C   0  0  0  0  0  0  0  0  0  0  0  0
  191.2090  175.1790  145.0740 C   0  0  0  0  0  2  0  0  0  0  0  0
  192.9850  176.7510  145.0710 O   0  0  0  0  0  0  0  0  0  0  0  0
  192.8770  173.7270  143.0530 C   0  0  2  0  0  3  0  0  0  0  0  0
  191.0070  172.2190  142.7650 O   0  0  0  0  0  1  0  0  0  0  0  0
  191.9520  172.3930  144.8070 O   0  0  0  0  0  1  0  0  0  0  0  0
  190.5800  174.2080  144.0650 C   0  0  2  0  0  3  0  0  0  0  0  0
  192.5820  175.6270  144.6710 C   0  0  0  0  0  0  0  0  0  0  0  0
  195.8320  173.8880  143.8930 N   0  0  0  0  0  0  0  0  0  0  0  0
  191.5930  173.1120  143.6630 C   0  0  0  0  0  0  0  0  0  0  0  0
  193.4590  174.7450  143.9350 N   0  0  0  0  0  0  0  0  0  0  0  0
  188.6410  178.3980  142.3980 C   0  0  0  0  0  0  0  0  0  0  0  0
  189.4440  179.2480  142.7540 O   0  0  0  0  0  0  0  0  0  0  0  0
  187.7660  176.4280  144.4290 C   0  0  0  0  0  1  0  0  0  0  0  0
  186.6830  176.2530  142.2200 C   0  0  0  0  0  0  0  0  0  0  0  0
  187.2190  178.7660  142.0460 C   0  0  0  0  0  2  0  0  0  0  0  0
  187.9920  176.0810  142.9530 C   0  0  1  0  0  0  0  0  0  0  0  0
  185.8720  175.3430  142.2310 O   0  0  0  0  0  0  0  0  0  0  0  0
  189.0120  176.9590  142.2930 C   0  0  2  0  0  3  0  0  0  0  0  0
  186.3720  177.5740  141.4980 C   0  0  1  0  0  0  0  0  0  0  0  0
  189.9440  174.9380  142.8640 C   0  0  2  0  0  3  0  0  0  0  0  0
  190.2930  176.4310  142.8240 C   0  0  0  0  0  2  0  0  0  0  0  0
  186.7380  177.4110  140.0240 C   0  0  0  0  0  1  0  0  0  0  0  0
  188.5260  174.7820  142.8670 O   0  0  0  0  0  0  0  0  0  0  0  0
  183.1250  178.6660  143.1000 C   0  0  0  0  0  3  0  0  0  0  0  0
  184.0740  177.8090  140.5790 C   0  0  0  0  0  3  0  0  0  0  0  0
  184.8970  177.9240  141.6290 C   0  0  0  0  0  0  0  0  0  0  0  0
  182.1500  178.8150  141.9610 C   0  0  1  0  0  3  0  0  0  0  0  0
  181.8860  177.9840  139.7230 O   0  0  0  0  0  0  0  0  0  0  0  0
  184.3570  178.2860  142.9150 N   0  0  0  0  0  0  0  0  0  0  0  0
  182.6540  178.1540  140.7060 C   0  0  0  0  0  0  0  0  0  0  0  0
  180.7840  178.2760  142.3650 C   0  0  0  0  0  2  0  0  0  0  0  0
  179.7020  179.0040  141.6450 C   0  0  0  0  0  0  0  0  0  0  0  0
  180.0400  180.1030  140.8000 N   0  0  0  0  0  2  0  0  0  0  0  0
  178.5000  178.6660  141.8160 O   0  0  0  0  0  0  0  0  0  0  0  0
  179.5810  182.3550  139.1670 O   0  0  0  0  0  1  0  0  0  0  0  0
  178.8290  181.0990  140.0140 P   0  0  0  0  0  0  0  0  0  0  0  0
  177.9330  180.1510  138.9380 O   0  0  0  0  0  0  0  0  0  0  0  0
  177.9050  181.6810  141.0590 O   0  0  0  0  0  1  0  0  0  0  0  0
  197.9410  174.1670  145.0300 C   0  0  0  0  0  2  0  0  0  0  0  0
  197.9410  174.6070  142.6460 C   0  0  0  0  0  1  0  0  0  0  0  0
  197.2510  174.1620  143.8930 C   0  0  0  0  0  0  0  0  0  0  0  0
  195.3560  172.5200  144.1390 C   0  0  0  0  0  2  0  0  0  0  0  0
  194.9860  168.6090  147.2000 N   0  0  0  0  0  0  0  0  0  0  0  0
  196.8640  170.8340  145.2360 C   0  0  0  0  0  2  0  0  0  0  0  0
  194.1120  168.1670  146.3630 C   0  0  0  0  0  3  0  0  0  0  0  0
  195.8700  171.9650  145.4740 C   0  0  2  0  0  3  0  0  0  0  0  0
  195.4660  170.5160  145.7170 C   0  0  2  0  0  0  0  0  0  0  0  0
  195.4630  169.9800  147.1530 C   0  0  0  0  0  2  0  0  0  0  0  0
  193.5860  169.0730  145.2890 C   0  0  0  0  0  2  0  0  0  0  0  0
  194.6990  169.8030  144.6810 N   0  0  0  0  0  2  0  0  0  0  0  0
  192.6880  174.3020  141.6480 C   0  0  0  0  0  2  0  0  0  0  0  0
  193.8920  173.9930  140.7740 C   0  0  0  0  0  2  0  0  0  0  0  0
  193.5260  174.0740  139.3020 C   0  0  0  0  0  2  0  0  0  0  0  0
  193.2940  172.6790  138.7400 C   0  0  0  0  0  2  0  0  0  0  0  0
  190.0100  171.1560  135.6470 C   0  0  0  0  0  1  0  0  0  0  0  0
  189.2270  171.8040  137.8730 N   0  0  0  0  0  0  0  0  0  0  0  0
  190.0990  172.1860  136.7560 C   0  0  1  0  0  3  0  0  0  0  0  0
  190.9050  172.2790  139.4230 O   0  0  0  0  0  0  0  0  0  0  0  0
  191.8540  172.4500  138.4110 C   0  0  0  0  0  0  0  0  0  0  0  0
  189.6040  171.8890  139.1100 C   0  0  0  0  0  3  0  0  0  0  0  0
  191.4960  172.3630  137.1680 N   0  0  0  0  0  0  0  0  0  0  0  0
  2 10  1  0  0  0  0
  2  1  2  0  0  0  0
  2 12  1  0  0  0  0
  5 53  1  6  0  0  0
  5 11  1  0  0  0  0
  5 12  1  0  0  0  0
  6 11  1  0  0  0  0
  8  3  1  1  0  0  0
  9  4  2  0  0  0  0
  9  3  1  0  0  0  0
 10 44  1  0  0  0  0
 11  8  1  0  0  0  0
 11  7  1  0  0  0  0
 12  9  1  0  0  0  0
 13 14  2  0  0  0  0
 16 19  2  0  0  0  0
 16 18  1  0  0  0  0
 17 13  1  0  0  0  0
 18 15  1  1  0  0  0
 20 13  1  0  0  0  0
 20 23  1  1  0  0  0
 20 18  1  0  0  0  0
 21 24  1  6  0  0  0
 21 28  1  0  0  0  0
 21 17  1  0  0  0  0
 21 16  1  0  0  0  0
 22 23  1  1  0  0  0
 22 25  1  0  0  0  0
 22  8  1  0  0  0  0
 25 18  1  0  0  0  0
 27 32  1  0  0  0  0
 27 28  2  0  0  0  0
 28 31  1  0  0  0  0
 29 33  1  1  0  0  0
 29 26  1  0  0  0  0
 30 32  2  0  0  0  0
 31 26  2  0  0  0  0
 32 29  1  0  0  0  0
 34 36  2  0  0  0  0
 34 33  1  0  0  0  0
 35 34  1  0  0  0  0
 37 38  1  0  0  0  0
 38 35  1  0  0  0  0
 38 40  1  0  0  0  0
 39 38  2  0  0  0  0
 42 43  1  0  0  0  0
 43 10  1  0  0  0  0
 43 41  2  0  0  0  0
 46 48  1  0  0  0  0
 47 45  2  0  0  0  0
 48 44  1  6  0  0  0
 48 49  1  0  0  0  0
 49 46  1  6  0  0  0
 49 50  1  0  0  0  0
 50 45  1  0  0  0  0
 51 47  1  0  0  0  0
 52 51  1  0  0  0  0
 52 49  1  0  0  0  0
 54 53  1  0  0  0  0
 55 54  1  0  0  0  0
 56 55  1  0  0  0  0
 58 62  2  0  0  0  0
 59 57  1  6  0  0  0
 59 63  1  0  0  0  0
 59 58  1  0  0  0  0
 61 56  1  0  0  0  0
 61 60  1  0  0  0  0
 62 60  1  0  0  0  0
 63 61  2  0  0  0  0
M  END
>  <MODEL>
9

>  <REMARK>
 VINA RESULT:      -5.5      5.155     11.316
  Name = 
  13 active torsions:
  status: ('A' for Active; 'I' for Inactive)
    1  A    between atoms: C_3  and  C_4
    2  A    between atoms: C_3  and  C_31
    3  A    between atoms: N_13  and  P_22
    4  A    between atoms: C_19  and  C_37
    5  A    between atoms: C_19  and  C_39
    6  A    between atoms: C_21  and  C_40
    7  A    between atoms: C_27  and  C_39
    8  A    between atoms: C_27  and  C_55
    9  A    between atoms: C_28  and  C_55
   10  A    between atoms: C_34  and  C_36
   11  A    between atoms: C_36  and  N_54
   12  A    between atoms: C_44  and  C_52
   13  A    between atoms: C_51  and  N_54
                            x       y       z     vdW  Elec       q    Type
                         _______ _______ _______ _____ _____    ______ ____

>  <TORSDO>
F 13

$$$$
