=
 OpenBabel11062420583D

 31 35  0  0  1  0  0  0  0  0999 V2000
  189.2910  175.0020  142.7130 C   0  0  2  0  0  3  0  0  0  0  0  0
  195.3890  175.1680  146.1930 O   0  0  0  0  0  1  0  0  0  0  0  0
  192.8510  173.4880  142.5990 C   0  0  2  0  0  3  0  0  0  0  0  0
  193.8070  174.4240  142.1400 O   0  0  0  0  0  0  0  0  0  0  0  0
  191.6190  174.2280  143.0930 C   0  0  1  0  0  3  0  0  0  0  0  0
  189.6710  176.4690  143.0460 C   0  0  2  0  0  3  0  0  0  0  0  0
  187.5060  173.5180  141.8720 C   0  0  0  0  0  2  0  0  0  0  0  0
  192.0730  175.5920  143.1450 N   0  0  0  0  0  0  0  0  0  0  0  0
  193.6960  173.3830  145.0200 C   0  0  1  0  0  3  0  0  0  0  0  0
  193.4450  175.6720  142.6900 C   0  0  1  0  0  3  0  0  0  0  0  0
  196.3270  173.9860  144.0620 O   0  0  0  0  0  0  0  0  0  0  0  0
  190.7230  171.7690  141.7970 O   0  0  0  0  0  0  0  0  0  0  0  0
  190.4270  174.1410  142.1340 C   0  0  1  0  0  3  0  0  0  0  0  0
  194.0900  172.4840  145.9920 F   0  0  0  0  0  0  0  0  0  0  0  0
  191.1690  176.6990  143.0410 C   0  0  0  0  0  0  0  0  0  0  0  0
  191.6190  177.8680  142.8990 O   0  0  0  0  0  0  0  0  0  0  0  0
  188.0750  174.9300  141.8000 C   0  0  0  0  0  2  0  0  0  0  0  0
  189.9220  172.7370  141.8810 C   0  0  0  0  0  0  0  0  0  0  0  0
  194.3740  176.0770  143.8380 C   0  0  0  0  0  2  0  0  0  0  0  0
  194.9800  174.6640  144.8280 P   0  0  2  0  0  0  0  0  0  0  0  0
  193.4550  172.6260  143.7110 C   0  0  0  0  0  2  0  0  0  0  0  0
  188.5370  172.5210  141.5880 N   0  0  0  0  0  2  0  0  0  0  0  0
  187.6910  177.7030  144.0250 C   0  0  0  0  0  2  0  0  0  0  0  0
  187.7900  176.1460  146.4480 C   0  0  0  0  0  2  0  0  0  0  0  0
  188.9980  176.9590  144.3560 C   0  0  1  0  0  0  0  0  0  0  0  0
  188.6480  175.7540  145.2470 C   0  0  0  0  0  2  0  0  0  0  0  0
  186.9860  178.1190  145.2390 N   0  0  0  0  0  2  0  0  0  0  0  0
  189.9440  177.8930  145.1120 C   0  0  0  0  0  1  0  0  0  0  0  0
  186.5680  176.9240  145.9660 C   0  0  2  0  0  3  0  0  0  0  0  0
  185.6690  177.3010  147.1370 C   0  0  0  0  0  2  0  0  0  0  0  0
  184.5050  178.0450  146.6830 N   0  0  0  0  0  1  0  0  0  0  0  0
  1 17  1  6  0  0  0
  1  6  1  0  0  0  0
  3  5  1  0  0  0  0
  3 21  1  1  0  0  0
  4  3  1  0  0  0  0
  4 10  1  0  0  0  0
  5  8  1  6  0  0  0
  6 15  1  1  0  0  0
  6 25  1  0  0  0  0
  9 14  1  1  0  0  0
 10  8  1  0  0  0  0
 10 19  1  1  0  0  0
 12 18  2  0  0  0  0
 13 18  1  1  0  0  0
 13  1  1  0  0  0  0
 13  5  1  0  0  0  0
 15  8  1  0  0  0  0
 16 15  2  0  0  0  0
 17  7  1  0  0  0  0
 19 20  1  0  0  0  0
 20 11  2  6  0  0  0
 20  9  1  0  0  0  0
 20  2  1  0  0  0  0
 21  9  1  0  0  0  0
 22  7  1  0  0  0  0
 22 18  1  0  0  0  0
 23 25  1  0  0  0  0
 23 27  1  0  0  0  0
 25 28  1  1  0  0  0
 25 26  1  0  0  0  0
 26 24  1  0  0  0  0
 27 29  1  0  0  0  0
 29 24  1  0  0  0  0
 29 30  1  1  0  0  0
 31 30  1  0  0  0  0
M  END
>  <MODEL>
1

>  <REMARK>
 VINA RESULT:      -7.6      0.000      0.000
  Name = 
  2 active torsions:
  status: ('A' for Active; 'I' for Inactive)
    1  A    between atoms: C_7  and  C_16
    2  A    between atoms: C_13  and  C_24
                            x       y       z     vdW  Elec       q    Type
                         _______ _______ _______ _____ _____    ______ ____

>  <TORSDO>
F 2

$$$$
=
 OpenBabel11062420583D

 31 35  0  0  1  0  0  0  0  0999 V2000
  188.9360  174.9490  142.4940 C   0  0  2  0  0  3  0  0  0  0  0  0
  193.1030  177.2940  147.6370 O   0  0  0  0  0  1  0  0  0  0  0  0
  192.3540  174.2150  144.1540 C   0  0  2  0  0  3  0  0  0  0  0  0
  193.3350  175.1620  143.7800 O   0  0  0  0  0  0  0  0  0  0  0  0
  190.9720  174.7970  143.9060 C   0  0  1  0  0  3  0  0  0  0  0  0
  189.0320  176.4970  142.4330 C   0  0  2  0  0  3  0  0  0  0  0  0
  187.7600  172.9620  141.6200 C   0  0  0  0  0  2  0  0  0  0  0  0
  191.2580  176.1850  143.6590 N   0  0  0  0  0  0  0  0  0  0  0  0
  192.1690  174.9510  146.6050 C   0  0  1  0  0  3  0  0  0  0  0  0
  192.6860  176.4130  143.7190 C   0  0  1  0  0  3  0  0  0  0  0  0
  194.9060  175.7880  146.4970 O   0  0  0  0  0  0  0  0  0  0  0  0
  190.8680  171.9480  143.2700 O   0  0  0  0  0  0  0  0  0  0  0  0
  190.2730  174.2110  142.6750 C   0  0  1  0  0  3  0  0  0  0  0  0
  192.2120  174.4530  147.8930 F   0  0  0  0  0  0  0  0  0  0  0  0
  190.3850  177.0150  142.8820 C   0  0  0  0  0  0  0  0  0  0  0  0
  190.7580  178.1660  142.5290 O   0  0  0  0  0  0  0  0  0  0  0  0
  188.1950  174.3850  141.2890 C   0  0  0  0  0  2  0  0  0  0  0  0
  190.0260  172.7190  142.7400 C   0  0  0  0  0  0  0  0  0  0  0  0
  193.0440  177.2960  144.9170 C   0  0  0  0  0  2  0  0  0  0  0  0
  193.3150  176.3630  146.4660 P   0  0  2  0  0  0  0  0  0  0  0  0
  192.5310  173.8320  145.6250 C   0  0  0  0  0  2  0  0  0  0  0  0
  188.8940  172.1550  142.0660 N   0  0  0  0  0  2  0  0  0  0  0  0
  186.6610  176.2130  143.2690 C   0  0  0  0  0  2  0  0  0  0  0  0
  187.1130  178.0170  145.4690 C   0  0  0  0  0  2  0  0  0  0  0  0
  187.8560  177.1810  143.1790 C   0  0  1  0  0  0  0  0  0  0  0  0
  188.2840  177.5420  144.6130 C   0  0  0  0  0  2  0  0  0  0  0  0
  185.5540  176.7940  144.0300 N   0  0  0  0  0  2  0  0  0  0  0  0
  187.4350  178.4500  142.4390 C   0  0  0  0  0  1  0  0  0  0  0  0
  185.9900  176.9860  145.4100 C   0  0  2  0  0  3  0  0  0  0  0  0
  184.8160  177.4110  146.2840 C   0  0  0  0  0  2  0  0  0  0  0  0
  184.2400  178.6610  145.8120 N   0  0  0  0  0  1  0  0  0  0  0  0
  1 17  1  6  0  0  0
  1 13  1  0  0  0  0
  3 21  1  1  0  0  0
  4  3  1  0  0  0  0
  5  8  1  6  0  0  0
  5  3  1  0  0  0  0
  6  1  1  0  0  0  0
  6 15  1  1  0  0  0
  6 25  1  0  0  0  0
  7 22  1  0  0  0  0
  8 10  1  0  0  0  0
  9 14  1  1  0  0  0
 10  4  1  0  0  0  0
 10 19  1  1  0  0  0
 13 18  1  1  0  0  0
 13  5  1  0  0  0  0
 15  8  1  0  0  0  0
 16 15  2  0  0  0  0
 17  7  1  0  0  0  0
 18 12  2  0  0  0  0
 19 20  1  0  0  0  0
 20 11  2  1  0  0  0
 20  9  1  0  0  0  0
 20  2  1  0  0  0  0
 21  9  1  0  0  0  0
 22 18  1  0  0  0  0
 23 27  1  0  0  0  0
 25 28  1  6  0  0  0
 25 23  1  0  0  0  0
 25 26  1  0  0  0  0
 26 24  1  0  0  0  0
 27 29  1  0  0  0  0
 29 24  1  0  0  0  0
 29 30  1  1  0  0  0
 31 30  1  0  0  0  0
M  END
>  <MODEL>
2

>  <REMARK>
 VINA RESULT:      -7.6      1.627      1.940
  Name = 
  2 active torsions:
  status: ('A' for Active; 'I' for Inactive)
    1  A    between atoms: C_7  and  C_16
    2  A    between atoms: C_13  and  C_24
                            x       y       z     vdW  Elec       q    Type
                         _______ _______ _______ _____ _____    ______ ____

>  <TORSDO>
F 2

$$$$
=
 OpenBabel11062420583D

 31 35  0  0  1  0  0  0  0  0999 V2000
  189.6880  175.9590  145.3480 C   0  0  2  0  0  3  0  0  0  0  0  0
  196.0770  174.7570  142.6930 O   0  0  0  0  0  0  0  0  0  0  0  0
  193.3290  175.2930  146.4800 C   0  0  2  0  0  3  0  0  0  0  0  0
  193.6910  173.9360  146.3140 O   0  0  0  0  0  0  0  0  0  0  0  0
  192.1320  175.6050  145.5950 C   0  0  1  0  0  3  0  0  0  0  0  0
  189.5990  174.9070  144.2110 C   0  0  2  0  0  3  0  0  0  0  0  0
  188.3880  177.4260  146.8500 C   0  0  0  0  0  2  0  0  0  0  0  0
  192.0600  174.4450  144.7470 N   0  0  0  0  0  0  0  0  0  0  0  0
  194.8630  176.2220  144.6440 C   0  0  1  0  0  3  0  0  0  0  0  0
  193.0970  173.5030  145.1110 C   0  0  1  0  0  3  0  0  0  0  0  0
  196.6650  174.0510  145.1370 O   0  0  0  0  0  1  0  0  0  0  0  0
  191.8230  177.1100  148.0800 O   0  0  0  0  0  0  0  0  0  0  0  0
  190.8170  175.7350  146.3690 C   0  0  1  0  0  3  0  0  0  0  0  0
  195.8350  177.1800  144.4250 F   0  0  0  0  0  0  0  0  0  0  0  0
  190.8340  174.0310  144.1300 C   0  0  0  0  0  0  0  0  0  0  0  0
  190.7660  172.9120  143.5540 O   0  0  0  0  0  0  0  0  0  0  0  0
  188.3590  176.1130  146.0760 C   0  0  0  0  0  2  0  0  0  0  0  0
  190.7970  176.8430  147.4000 C   0  0  0  0  0  0  0  0  0  0  0  0
  194.1260  173.3700  143.9850 C   0  0  0  0  0  2  0  0  0  0  0  0
  195.4740  174.6030  144.0700 P   0  0  2  0  0  0  0  0  0  0  0  0
  194.5150  176.1970  146.1350 C   0  0  0  0  0  2  0  0  0  0  0  0
  189.5640  177.5010  147.7140 N   0  0  0  0  0  2  0  0  0  0  0  0
  187.9740  174.8900  142.2720 C   0  0  0  0  0  2  0  0  0  0  0  0
  188.3720  177.7030  141.7850 C   0  0  0  0  0  2  0  0  0  0  0  0
  189.2390  175.5550  142.8480 C   0  0  1  0  0  0  0  0  0  0  0  0
  188.9430  177.0520  143.0420 C   0  0  0  0  0  2  0  0  0  0  0  0
  187.5570  175.5220  141.0190 N   0  0  0  0  0  2  0  0  0  0  0  0
  190.4000  175.3880  141.8670 C   0  0  0  0  0  1  0  0  0  0  0  0
  187.1660  176.9010  141.3030 C   0  0  2  0  0  3  0  0  0  0  0  0
  186.5470  177.5420  140.0670 C   0  0  0  0  0  2  0  0  0  0  0  0
  185.3210  178.2480  140.4030 N   0  0  0  0  0  1  0  0  0  0  0  0
  1 17  1  1  0  0  0
  1 13  1  0  0  0  0
  3 21  1  6  0  0  0
  4  3  1  0  0  0  0
  5  8  1  6  0  0  0
  5 13  1  0  0  0  0
  5  3  1  0  0  0  0
  6 15  1  6  0  0  0
  6  1  1  0  0  0  0
  7 22  1  0  0  0  0
  8 10  1  0  0  0  0
  9 14  1  1  0  0  0
  9 21  1  0  0  0  0
 10 19  1  6  0  0  0
 10  4  1  0  0  0  0
 13 18  1  1  0  0  0
 15  8  1  0  0  0  0
 16 15  2  0  0  0  0
 17  7  1  0  0  0  0
 18 22  1  0  0  0  0
 18 12  2  0  0  0  0
 19 20  1  0  0  0  0
 20  2  2  6  0  0  0
 20  9  1  0  0  0  0
 20 11  1  0  0  0  0
 23 25  1  0  0  0  0
 24 26  1  0  0  0  0
 25 28  1  6  0  0  0
 25 26  1  0  0  0  0
 25  6  1  0  0  0  0
 27 29  1  0  0  0  0
 27 23  1  0  0  0  0
 29 30  1  6  0  0  0
 29 24  1  0  0  0  0
 30 31  1  0  0  0  0
M  END
>  <MODEL>
3

>  <REMARK>
 VINA RESULT:      -7.5      2.421      4.571
  Name = 
  2 active torsions:
  status: ('A' for Active; 'I' for Inactive)
    1  A    between atoms: C_7  and  C_16
    2  A    between atoms: C_13  and  C_24
                            x       y       z     vdW  Elec       q    Type
                         _______ _______ _______ _____ _____    ______ ____

>  <TORSDO>
F 2

$$$$
=
 OpenBabel11062420583D

 31 35  0  0  1  0  0  0  0  0999 V2000
  189.4170  175.2950  143.9050 C   0  0  2  0  0  3  0  0  0  0  0  0
  185.9560  180.1610  147.6020 O   0  0  0  0  0  1  0  0  0  0  0  0
  185.8760  176.8070  144.2970 C   0  0  2  0  0  3  0  0  0  0  0  0
  185.2400  176.3590  145.4780 O   0  0  0  0  0  0  0  0  0  0  0  0
  187.3780  176.6100  144.4280 C   0  0  1  0  0  3  0  0  0  0  0  0
  189.7930  175.1860  145.4070 C   0  0  2  0  0  3  0  0  0  0  0  0
  189.9740  174.5370  141.6220 C   0  0  0  0  0  2  0  0  0  0  0  0
  187.5320  176.3110  145.8270 N   0  0  0  0  0  0  0  0  0  0  0  0
  186.1810  179.2420  145.0460 C   0  0  1  0  0  3  0  0  0  0  0  0
  186.2370  176.2950  146.4740 C   0  0  1  0  0  3  0  0  0  0  0  0
  183.8290  178.9770  146.6580 O   0  0  0  0  0  0  0  0  0  0  0  0
  186.6440  176.0620  141.6540 O   0  0  0  0  0  0  0  0  0  0  0  0
  187.9140  175.4320  143.6090 C   0  0  1  0  0  3  0  0  0  0  0  0
  185.9410  180.5400  144.6380 F   0  0  0  0  0  0  0  0  0  0  0  0
  188.6430  175.5530  146.3240 C   0  0  0  0  0  0  0  0  0  0  0  0
  188.6460  175.1500  147.5180 O   0  0  0  0  0  0  0  0  0  0  0  0
  189.9990  174.1450  143.0950 C   0  0  0  0  0  2  0  0  0  0  0  0
  187.6990  175.5520  142.1150 C   0  0  0  0  0  0  0  0  0  0  0  0
  186.1170  177.4480  147.4730 C   0  0  0  0  0  2  0  0  0  0  0  0
  185.5190  179.0080  146.7290 P   0  0  2  0  0  0  0  0  0  0  0  0
  185.5360  178.2790  144.0460 C   0  0  0  0  0  2  0  0  0  0  0  0
  188.6330  174.9500  141.2120 N   0  0  0  0  0  2  0  0  0  0  0  0
  192.2520  174.9820  145.9650 C   0  0  0  0  0  2  0  0  0  0  0  0
  192.8470  177.5160  144.7260 C   0  0  0  0  0  2  0  0  0  0  0  0
  191.0920  175.9690  145.7380 C   0  0  1  0  0  0  0  0  0  0  0  0
  191.4670  176.8830  144.5590 C   0  0  0  0  0  2  0  0  0  0  0  0
  193.5140  175.6830  146.2090 N   0  0  0  0  0  2  0  0  0  0  0  0
  190.8850  176.8170  146.9940 C   0  0  0  0  0  1  0  0  0  0  0  0
  193.8760  176.4230  145.0020 C   0  0  2  0  0  3  0  0  0  0  0  0
  195.2730  177.0150  145.1410 C   0  0  0  0  0  2  0  0  0  0  0  0
  196.0570  176.7890  143.9370 N   0  0  0  0  0  1  0  0  0  0  0  0
  1 17  1  6  0  0  0
  1  6  1  0  0  0  0
  3 21  1  1  0  0  0
  3  5  1  0  0  0  0
  3  4  1  0  0  0  0
  4 10  1  0  0  0  0
  5  8  1  1  0  0  0
  6 25  1  0  0  0  0
  6 15  1  1  0  0  0
  7 17  1  0  0  0  0
  8 15  1  0  0  0  0
  8 10  1  0  0  0  0
  9 14  1  6  0  0  0
  9 20  1  0  0  0  0
 10 19  1  1  0  0  0
 12 18  2  0  0  0  0
 13 18  1  6  0  0  0
 13  1  1  0  0  0  0
 13  5  1  0  0  0  0
 15 16  2  0  0  0  0
 20 11  2  6  0  0  0
 20 19  1  0  0  0  0
 20  2  1  0  0  0  0
 21  9  1  0  0  0  0
 22  7  1  0  0  0  0
 22 18  1  0  0  0  0
 23 27  1  0  0  0  0
 24 29  1  0  0  0  0
 25 23  1  0  0  0  0
 25 28  1  1  0  0  0
 26 24  1  0  0  0  0
 26 25  1  0  0  0  0
 29 30  1  1  0  0  0
 29 27  1  0  0  0  0
 31 30  1  0  0  0  0
M  END
>  <MODEL>
4

>  <REMARK>
 VINA RESULT:      -7.5      4.370      7.316
  Name = 
  2 active torsions:
  status: ('A' for Active; 'I' for Inactive)
    1  A    between atoms: C_7  and  C_16
    2  A    between atoms: C_13  and  C_24
                            x       y       z     vdW  Elec       q    Type
                         _______ _______ _______ _____ _____    ______ ____

>  <TORSDO>
F 2

$$$$
=
 OpenBabel11062420583D

 31 35  0  0  1  0  0  0  0  0999 V2000
  189.3610  176.3940  145.0180 C   0  0  2  0  0  3  0  0  0  0  0  0
  193.7050  174.8210  139.7290 O   0  0  0  0  0  0  0  0  0  0  0  0
  192.7930  174.7340  144.3490 C   0  0  2  0  0  3  0  0  0  0  0  0
  192.6520  173.4430  143.7880 O   0  0  0  0  0  0  0  0  0  0  0  0
  191.5090  175.5180  144.1330 C   0  0  1  0  0  3  0  0  0  0  0  0
  188.5630  175.7630  143.8470 C   0  0  2  0  0  3  0  0  0  0  0  0
  189.1850  177.5740  147.1800 C   0  0  0  0  0  2  0  0  0  0  0  0
  190.7960  174.6980  143.1900 N   0  0  0  0  0  0  0  0  0  0  0  0
  193.7660  175.8490  142.2520 C   0  0  1  0  0  3  0  0  0  0  0  0
  191.5650  173.5080  142.8910 C   0  0  1  0  0  3  0  0  0  0  0  0
  194.8940  173.3240  141.5080 O   0  0  0  0  0  1  0  0  0  0  0  0
  192.5740  176.2510  146.7520 O   0  0  0  0  0  0  0  0  0  0  0  0
  190.6610  175.6650  145.4000 C   0  0  1  0  0  3  0  0  0  0  0  0
  194.8310  176.6220  141.8310 F   0  0  0  0  0  0  0  0  0  0  0  0
  189.3670  174.7290  143.0840 C   0  0  0  0  0  0  0  0  0  0  0  0
  188.7680  173.8650  142.3870 O   0  0  0  0  0  0  0  0  0  0  0  0
  188.4930  176.5800  146.2550 C   0  0  0  0  0  2  0  0  0  0  0  0
  191.3420  176.4000  146.5340 C   0  0  0  0  0  0  0  0  0  0  0  0
  192.0320  173.5180  141.4330 C   0  0  0  0  0  2  0  0  0  0  0  0
  193.6200  174.3860  141.1740 P   0  0  2  0  0  0  0  0  0  0  0  0
  193.9870  175.4520  143.7150 C   0  0  0  0  0  2  0  0  0  0  0  0
  190.5590  177.1610  147.4610 N   0  0  0  0  0  2  0  0  0  0  0  0
  187.3800  176.1770  141.6490 C   0  0  0  0  0  2  0  0  0  0  0  0
  185.9970  178.4710  142.7100 C   0  0  0  0  0  2  0  0  0  0  0  0
  187.9460  176.8420  142.9180 C   0  0  1  0  0  0  0  0  0  0  0  0
  186.7870  177.5530  143.6390 C   0  0  0  0  0  2  0  0  0  0  0  0
  186.7230  177.1520  140.7770 N   0  0  0  0  0  2  0  0  0  0  0  0
  189.0110  177.8680  142.5300 C   0  0  0  0  0  1  0  0  0  0  0  0
  185.5580  177.6880  141.4760 C   0  0  2  0  0  3  0  0  0  0  0  0
  184.7350  178.5650  140.5400 C   0  0  0  0  0  2  0  0  0  0  0  0
  183.3230  178.2220  140.6100 N   0  0  0  0  0  1  0  0  0  0  0  0
  1 13  1  0  0  0  0
  1 17  1  1  0  0  0
  3 21  1  6  0  0  0
  4  3  1  0  0  0  0
  5  8  1  6  0  0  0
  5  3  1  0  0  0  0
  5 13  1  0  0  0  0
  6 15  1  6  0  0  0
  6  1  1  0  0  0  0
  7 22  1  0  0  0  0
  9 14  1  6  0  0  0
  9 21  1  0  0  0  0
 10 19  1  6  0  0  0
 10  8  1  0  0  0  0
 10  4  1  0  0  0  0
 13 18  1  1  0  0  0
 15  8  1  0  0  0  0
 16 15  2  0  0  0  0
 17  7  1  0  0  0  0
 18 12  2  0  0  0  0
 18 22  1  0  0  0  0
 20  2  2  6  0  0  0
 20 19  1  0  0  0  0
 20 11  1  0  0  0  0
 20  9  1  0  0  0  0
 23 25  1  0  0  0  0
 24 26  1  0  0  0  0
 25 28  1  6  0  0  0
 25 26  1  0  0  0  0
 25  6  1  0  0  0  0
 27 29  1  0  0  0  0
 27 23  1  0  0  0  0
 29 30  1  6  0  0  0
 29 24  1  0  0  0  0
 30 31  1  0  0  0  0
M  END
>  <MODEL>
5

>  <REMARK>
 VINA RESULT:      -7.4      2.737      4.451
  Name = 
  2 active torsions:
  status: ('A' for Active; 'I' for Inactive)
    1  A    between atoms: C_7  and  C_16
    2  A    between atoms: C_13  and  C_24
                            x       y       z     vdW  Elec       q    Type
                         _______ _______ _______ _____ _____    ______ ____

>  <TORSDO>
F 2

$$$$
=
 OpenBabel11062420583D

 31 35  0  0  1  0  0  0  0  0999 V2000
  192.0780  175.6820  145.7510 C   0  0  2  0  0  3  0  0  0  0  0  0
  188.4960  172.6180  140.5460 O   0  0  0  0  0  1  0  0  0  0  0  0
  192.5380  173.0890  142.9150 C   0  0  2  0  0  3  0  0  0  0  0  0
  191.9200  171.8560  143.2240 O   0  0  0  0  0  0  0  0  0  0  0  0
  191.9320  174.1860  143.7760 C   0  0  1  0  0  3  0  0  0  0  0  0
  190.6870  175.2240  146.2640 C   0  0  2  0  0  3  0  0  0  0  0  0
  194.0950  177.0020  146.2870 C   0  0  0  0  0  2  0  0  0  0  0  0
  190.7790  173.5380  144.3400 N   0  0  0  0  0  0  0  0  0  0  0  0
  190.9270  173.7500  141.0300 C   0  0  1  0  0  3  0  0  0  0  0  0
  190.7140  172.1640  143.8880 C   0  0  1  0  0  3  0  0  0  0  0  0
  190.5180  170.9670  140.4880 O   0  0  0  0  0  0  0  0  0  0  0  0
  194.7800  174.7600  143.4720 O   0  0  0  0  0  0  0  0  0  0  0  0
  192.8480  174.6450  144.9150 C   0  0  1  0  0  3  0  0  0  0  0  0
  190.9130  174.1660  139.7120 F   0  0  0  0  0  0  0  0  0  0  0  0
  190.2010  173.9600  145.5830 C   0  0  0  0  0  0  0  0  0  0  0  0
  189.3160  173.2540  146.1380 O   0  0  0  0  0  0  0  0  0  0  0  0
  192.9580  176.1830  146.8880 C   0  0  0  0  0  2  0  0  0  0  0  0
  194.1680  175.2330  144.4660 C   0  0  0  0  0  0  0  0  0  0  0  0
  189.4970  171.9480  142.9850 C   0  0  0  0  0  2  0  0  0  0  0  0
  189.8130  172.3190  141.2220 P   0  0  2  0  0  0  0  0  0  0  0  0
  192.3650  173.4030  141.4260 C   0  0  0  0  0  2  0  0  0  0  0  0
  194.8050  176.2410  145.2600 N   0  0  0  0  0  2  0  0  0  0  0  0
  189.5070  176.8820  144.7590 C   0  0  0  0  0  2  0  0  0  0  0  0
  187.1490  176.8600  146.4130 C   0  0  0  0  0  2  0  0  0  0  0  0
  189.6410  176.3700  146.2050 C   0  0  1  0  0  0  0  0  0  0  0  0
  188.2650  175.8470  146.6540 C   0  0  0  0  0  2  0  0  0  0  0  0
  188.4770  177.9160  144.6460 N   0  0  0  0  0  2  0  0  0  0  0  0
  190.0720  177.5180  147.1190 C   0  0  0  0  0  1  0  0  0  0  0  0
  187.1820  177.3160  144.9570 C   0  0  2  0  0  3  0  0  0  0  0  0
  186.0570  178.3030  144.6710 C   0  0  0  0  0  2  0  0  0  0  0  0
  185.7370  179.0870  145.8540 N   0  0  0  0  0  1  0  0  0  0  0  0
  1  6  1  0  0  0  0
  1 17  1  1  0  0  0
  2 20  1  0  0  0  0
  3 21  1  6  0  0  0
  3  4  1  0  0  0  0
  3  5  1  0  0  0  0
  4 10  1  0  0  0  0
  5  8  1  1  0  0  0
  5 13  1  0  0  0  0
  6 15  1  6  0  0  0
  7 17  1  0  0  0  0
  8 15  1  0  0  0  0
  9 14  1  6  0  0  0
  9 20  1  0  0  0  0
  9 21  1  0  0  0  0
 10 19  1  6  0  0  0
 10  8  1  0  0  0  0
 12 18  2  0  0  0  0
 13 18  1  6  0  0  0
 13  1  1  0  0  0  0
 15 16  2  0  0  0  0
 18 22  1  0  0  0  0
 20 11  2  6  0  0  0
 20 19  1  0  0  0  0
 22  7  1  0  0  0  0
 23 25  1  0  0  0  0
 24 26  1  0  0  0  0
 25  6  1  0  0  0  0
 25 26  1  0  0  0  0
 25 28  1  1  0  0  0
 27 23  1  0  0  0  0
 27 29  1  0  0  0  0
 29 30  1  1  0  0  0
 29 24  1  0  0  0  0
 30 31  1  0  0  0  0
M  END
>  <MODEL>
6

>  <REMARK>
 VINA RESULT:      -7.2      2.705      4.856
  Name = 
  2 active torsions:
  status: ('A' for Active; 'I' for Inactive)
    1  A    between atoms: C_7  and  C_16
    2  A    between atoms: C_13  and  C_24
                            x       y       z     vdW  Elec       q    Type
                         _______ _______ _______ _____ _____    ______ ____

>  <TORSDO>
F 2

$$$$
=
 OpenBabel11062420583D

 31 35  0  0  1  0  0  0  0  0999 V2000
  191.6750  174.9040  145.8110 C   0  0  2  0  0  3  0  0  0  0  0  0
  196.0280  174.4950  140.3150 O   0  0  0  0  0  0  0  0  0  0  0  0
  195.4090  175.3650  144.9020 C   0  0  2  0  0  3  0  0  0  0  0  0
  196.0620  174.1250  144.7120 O   0  0  0  0  0  0  0  0  0  0  0  0
  193.9080  175.1710  144.7590 C   0  0  1  0  0  3  0  0  0  0  0  0
  191.3980  173.6030  145.0120 C   0  0  2  0  0  3  0  0  0  0  0  0
  190.8570  176.3840  147.6100 C   0  0  0  0  0  2  0  0  0  0  0  0
  193.8160  173.8460  144.2060 N   0  0  0  0  0  0  0  0  0  0  0  0
  195.4940  176.1070  142.4460 C   0  0  1  0  0  3  0  0  0  0  0  0
  195.1400  173.2790  144.0610 C   0  0  1  0  0  3  0  0  0  0  0  0
  197.8990  174.5830  142.1330 O   0  0  0  0  0  1  0  0  0  0  0  0
  194.3570  177.1550  146.8560 O   0  0  0  0  0  0  0  0  0  0  0  0
  193.1580  175.2020  146.0950 C   0  0  1  0  0  3  0  0  0  0  0  0
  195.8790  177.1660  141.6460 F   0  0  0  0  0  0  0  0  0  0  0  0
  192.6510  173.0290  144.3810 C   0  0  0  0  0  0  0  0  0  0  0  0
  192.6800  171.8130  144.0490 O   0  0  0  0  0  0  0  0  0  0  0  0
  190.8850  174.9440  147.1120 C   0  0  0  0  0  2  0  0  0  0  0  0
  193.2780  176.5040  146.8560 C   0  0  0  0  0  0  0  0  0  0  0  0
  195.4890  173.0910  142.5820 C   0  0  0  0  0  2  0  0  0  0  0  0
  196.2390  174.5690  141.8090 P   0  0  2  0  0  0  0  0  0  0  0  0
  195.9270  176.3890  143.8880 C   0  0  0  0  0  2  0  0  0  0  0  0
  192.2080  176.9340  147.7050 N   0  0  0  0  0  2  0  0  0  0  0  0
  189.3350  174.9460  144.4290 C   0  0  0  0  0  2  0  0  0  0  0  0
  189.7450  174.5400  141.6060 C   0  0  0  0  0  2  0  0  0  0  0  0
  190.2460  173.7860  143.9880 C   0  0  1  0  0  0  0  0  0  0  0  0
  190.8250  174.1340  142.6060 C   0  0  0  0  0  2  0  0  0  0  0  0
  188.2750  175.2000  143.4520 N   0  0  0  0  0  2  0  0  0  0  0  0
  189.4270  172.4990  143.8880 C   0  0  0  0  0  1  0  0  0  0  0  0
  188.8900  175.6530  142.2070 C   0  0  2  0  0  3  0  0  0  0  0  0
  187.8210  176.1090  141.2220 C   0  0  0  0  0  2  0  0  0  0  0  0
  187.6600  177.5540  141.2580 N   0  0  0  0  0  1  0  0  0  0  0  0
  1 13  1  0  0  0  0
  1 17  1  1  0  0  0
  3 21  1  6  0  0  0
  4  3  1  0  0  0  0
  5  8  1  1  0  0  0
  5  3  1  0  0  0  0
  5 13  1  0  0  0  0
  6 15  1  6  0  0  0
  6  1  1  0  0  0  0
  7 22  1  0  0  0  0
  8 15  1  0  0  0  0
  9 14  1  6  0  0  0
  9 21  1  0  0  0  0
 10 19  1  6  0  0  0
 10  8  1  0  0  0  0
 10  4  1  0  0  0  0
 13 18  1  6  0  0  0
 16 15  2  0  0  0  0
 17  7  1  0  0  0  0
 18 12  2  0  0  0  0
 18 22  1  0  0  0  0
 20  2  2  6  0  0  0
 20 11  1  0  0  0  0
 20  9  1  0  0  0  0
 20 19  1  0  0  0  0
 24 29  1  0  0  0  0
 24 26  1  0  0  0  0
 25 28  1  6  0  0  0
 25 23  1  0  0  0  0
 25  6  1  0  0  0  0
 26 25  1  0  0  0  0
 27 23  1  0  0  0  0
 29 30  1  6  0  0  0
 29 27  1  0  0  0  0
 30 31  1  0  0  0  0
M  END
>  <MODEL>
7

>  <REMARK>
 VINA RESULT:      -7.0      2.955      5.081
  Name = 
  2 active torsions:
  status: ('A' for Active; 'I' for Inactive)
    1  A    between atoms: C_7  and  C_16
    2  A    between atoms: C_13  and  C_24
                            x       y       z     vdW  Elec       q    Type
                         _______ _______ _______ _____ _____    ______ ____

>  <TORSDO>
F 2

$$$$
=
 OpenBabel11062420583D

 31 35  0  0  1  0  0  0  0  0999 V2000
  190.7680  174.6590  145.5610 C   0  0  2  0  0  3  0  0  0  0  0  0
  196.4270  174.1110  141.4390 O   0  0  0  0  0  0  0  0  0  0  0  0
  194.6230  174.9760  145.7020 C   0  0  2  0  0  3  0  0  0  0  0  0
  195.2560  173.7130  145.6750 O   0  0  0  0  0  0  0  0  0  0  0  0
  193.2100  174.8430  145.1560 C   0  0  1  0  0  3  0  0  0  0  0  0
  190.6700  173.3750  144.6960 C   0  0  2  0  0  3  0  0  0  0  0  0
  189.5480  176.1600  147.0970 C   0  0  0  0  0  2  0  0  0  0  0  0
  193.2220  173.5260  144.5770 N   0  0  0  0  0  0  0  0  0  0  0  0
  195.3960  175.7300  143.3730 C   0  0  1  0  0  3  0  0  0  0  0  0
  194.5150  172.9080  144.7850 C   0  0  1  0  0  3  0  0  0  0  0  0
  197.7380  174.1130  143.6960 O   0  0  0  0  0  1  0  0  0  0  0  0
  193.1480  176.7950  147.3290 O   0  0  0  0  0  0  0  0  0  0  0  0
  192.1280  174.8960  146.2400 C   0  0  1  0  0  3  0  0  0  0  0  0
  196.0210  176.7770  142.7250 F   0  0  0  0  0  0  0  0  0  0  0  0
  192.0250  172.7550  144.4160 C   0  0  0  0  0  0  0  0  0  0  0  0
  192.0970  171.5410  144.0850 O   0  0  0  0  0  0  0  0  0  0  0  0
  189.6570  174.7220  146.6010 C   0  0  0  0  0  2  0  0  0  0  0  0
  192.0860  176.1880  147.0270 C   0  0  0  0  0  0  0  0  0  0  0  0
  195.2440  172.7160  143.4520 C   0  0  0  0  0  2  0  0  0  0  0  0
  196.2280  174.1680  142.9360 P   0  0  2  0  0  0  0  0  0  0  0  0
  195.4330  175.9850  144.8830 C   0  0  0  0  0  2  0  0  0  0  0  0
  190.8420  176.6540  147.5620 N   0  0  0  0  0  2  0  0  0  0  0  0
  190.7900  173.7050  142.1900 C   0  0  0  0  0  2  0  0  0  0  0  0
  188.2080  172.4870  141.8040 C   0  0  0  0  0  2  0  0  0  0  0  0
  189.8450  173.6100  143.4020 C   0  0  1  0  0  0  0  0  0  0  0  0
  188.8890  172.4260  143.1690 C   0  0  0  0  0  2  0  0  0  0  0  0
  190.0470  173.8540  140.9380 N   0  0  0  0  0  2  0  0  0  0  0  0
  189.0350  174.9010  143.5250 C   0  0  0  0  0  1  0  0  0  0  0  0
  189.2660  172.6400  140.7140 C   0  0  2  0  0  3  0  0  0  0  0  0
  188.6230  172.6690  139.3330 C   0  0  0  0  0  2  0  0  0  0  0  0
  189.2580  171.7120  138.4420 N   0  0  0  0  0  1  0  0  0  0  0  0
  1 13  1  0  0  0  0
  1 17  1  1  0  0  0
  3 21  1  6  0  0  0
  4  3  1  0  0  0  0
  5  8  1  1  0  0  0
  5  3  1  0  0  0  0
  5 13  1  0  0  0  0
  6 15  1  6  0  0  0
  6  1  1  0  0  0  0
  7 22  1  0  0  0  0
  8 10  1  0  0  0  0
  9 14  1  6  0  0  0
  9 21  1  0  0  0  0
 10 19  1  6  0  0  0
 10  4  1  0  0  0  0
 13 18  1  6  0  0  0
 15  8  1  0  0  0  0
 16 15  2  0  0  0  0
 17  7  1  0  0  0  0
 18 12  2  0  0  0  0
 18 22  1  0  0  0  0
 20  2  2  6  0  0  0
 20  9  1  0  0  0  0
 20 19  1  0  0  0  0
 20 11  1  0  0  0  0
 23 25  1  0  0  0  0
 24 26  1  0  0  0  0
 25 28  1  1  0  0  0
 25  6  1  0  0  0  0
 26 25  1  0  0  0  0
 27 23  1  0  0  0  0
 29 30  1  6  0  0  0
 29 27  1  0  0  0  0
 29 24  1  0  0  0  0
 31 30  1  0  0  0  0
M  END
>  <MODEL>
8

>  <REMARK>
 VINA RESULT:      -7.0      2.834      5.446
  Name = 
  2 active torsions:
  status: ('A' for Active; 'I' for Inactive)
    1  A    between atoms: C_7  and  C_16
    2  A    between atoms: C_13  and  C_24
                            x       y       z     vdW  Elec       q    Type
                         _______ _______ _______ _____ _____    ______ ____

>  <TORSDO>
F 2

$$$$
=
 OpenBabel11062420583D

 31 35  0  0  1  0  0  0  0  0999 V2000
  193.3500  173.6100  144.1860 C   0  0  2  0  0  3  0  0  0  0  0  0
  188.9050  178.4720  141.7530 O   0  0  0  0  0  0  0  0  0  0  0  0
  189.5890  174.5210  144.2230 C   0  0  2  0  0  3  0  0  0  0  0  0
  189.3190  175.6080  145.0850 O   0  0  0  0  0  0  0  0  0  0  0  0
  191.0650  174.5210  143.8580 C   0  0  1  0  0  3  0  0  0  0  0  0
  193.9370  175.0270  144.4180 C   0  0  2  0  0  3  0  0  0  0  0  0
  193.8310  171.1890  144.2470 C   0  0  0  0  0  2  0  0  0  0  0  0
  191.5010  175.8090  144.3280 N   0  0  0  0  0  0  0  0  0  0  0  0
  189.1010  175.7680  142.0330 C   0  0  1  0  0  3  0  0  0  0  0  0
  190.3970  176.5080  144.9500 C   0  0  1  0  0  3  0  0  0  0  0  0
  187.2360  177.4110  143.4570 O   0  0  0  0  0  1  0  0  0  0  0  0
  190.2120  171.7400  144.1250 O   0  0  0  0  0  0  0  0  0  0  0  0
  191.8720  173.4350  144.5750 C   0  0  1  0  0  3  0  0  0  0  0  0
  188.3600  175.6690  140.8710 F   0  0  0  0  0  0  0  0  0  0  0  0
  192.8650  176.0650  144.6870 C   0  0  0  0  0  0  0  0  0  0  0  0
  193.1720  177.1400  145.2700 O   0  0  0  0  0  0  0  0  0  0  0  0
  194.1910  172.5360  144.8620 C   0  0  0  0  0  2  0  0  0  0  0  0
  191.4310  172.0180  144.2750 C   0  0  0  0  0  0  0  0  0  0  0  0
  190.0060  177.7420  144.1310 C   0  0  0  0  0  2  0  0  0  0  0  0
  188.7970  177.3920  142.8040 P   0  0  2  0  0  0  0  0  0  0  0  0
  188.7150  174.6190  142.9690 C   0  0  0  0  0  2  0  0  0  0  0  0
  192.3890  170.9540  144.3030 N   0  0  0  0  0  2  0  0  0  0  0  0
  195.5900  174.2040  142.6880 C   0  0  0  0  0  2  0  0  0  0  0  0
  194.9610  176.3800  140.9060 C   0  0  0  0  0  2  0  0  0  0  0  0
  194.9020  175.4490  143.2780 C   0  0  1  0  0  0  0  0  0  0  0  0
  194.1110  176.1360  142.1510 C   0  0  0  0  0  2  0  0  0  0  0  0
  196.4550  174.5510  141.5600 N   0  0  0  0  0  2  0  0  0  0  0  0
  195.9590  176.4130  143.8180 C   0  0  0  0  0  1  0  0  0  0  0  0
  195.6220  175.0720  140.4790 C   0  0  2  0  0  3  0  0  0  0  0  0
  196.4520  175.2700  139.2170 C   0  0  0  0  0  2  0  0  0  0  0  0
  197.8170  175.6530  139.5440 N   0  0  0  0  0  1  0  0  0  0  0  0
  1  6  1  0  0  0  0
  1 13  1  0  0  0  0
  1 17  1  1  0  0  0
  3 21  1  6  0  0  0
  3  4  1  0  0  0  0
  5  3  1  0  0  0  0
  5  8  1  1  0  0  0
  5 13  1  0  0  0  0
  6 15  1  6  0  0  0
  7 22  1  0  0  0  0
  7 17  1  0  0  0  0
  8 15  1  0  0  0  0
  8 10  1  0  0  0  0
  9 14  1  6  0  0  0
  9 20  1  0  0  0  0
  9 21  1  0  0  0  0
 10 19  1  6  0  0  0
 10  4  1  0  0  0  0
 12 18  2  0  0  0  0
 13 18  1  6  0  0  0
 15 16  2  0  0  0  0
 18 22  1  0  0  0  0
 20  2  2  6  0  0  0
 20 11  1  0  0  0  0
 20 19  1  0  0  0  0
 23 25  1  0  0  0  0
 24 26  1  0  0  0  0
 25 28  1  1  0  0  0
 25  6  1  0  0  0  0
 26 25  1  0  0  0  0
 27 23  1  0  0  0  0
 29 30  1  6  0  0  0
 29 24  1  0  0  0  0
 29 27  1  0  0  0  0
 30 31  1  0  0  0  0
M  END
>  <MODEL>
9

>  <REMARK>
 VINA RESULT:      -6.8      3.537      7.109
  Name = 
  2 active torsions:
  status: ('A' for Active; 'I' for Inactive)
    1  A    between atoms: C_7  and  C_16
    2  A    between atoms: C_13  and  C_24
                            x       y       z     vdW  Elec       q    Type
                         _______ _______ _______ _____ _____    ______ ____

>  <TORSDO>
F 2

$$$$
