=
 OpenBabel11062418413D

 69 74  0  0  1  0  0  0  0  0999 V2000
  191.5260  172.6960  140.4620 C   0  0  2  0  0  0  0  0  0  0  0  0
  193.4800  175.3460  142.4410 C   0  0  1  0  0  3  0  0  0  0  0  0
  194.2720  171.3580  134.5130 O   0  0  0  0  0  0  0  0  0  0  0  0
  194.9930  175.1420  142.6720 C   0  0  2  0  0  3  0  0  0  0  0  0
  192.7410  173.2210  141.2570 C   0  0  0  0  0  2  0  0  0  0  0  0
  190.8640  168.8360  140.9660 C   0  0  0  0  0  1  0  0  0  0  0  0
  192.9710  174.7260  141.1290 C   0  0  0  0  0  2  0  0  0  0  0  0
  193.2610  175.0830  144.9820 C   0  0  0  0  0  0  0  0  0  0  0  0
  196.7700  170.8370  137.6040 O   0  0  0  0  0  0  0  0  0  0  0  0
  196.7950  173.0790  138.0960 O   0  0  0  0  0  0  0  0  0  0  0  0
  191.9260  171.5180  136.3730 O   0  0  0  0  0  1  0  0  0  0  0  0
  190.3520  173.6510  140.6270 C   0  0  0  0  0  1  0  0  0  0  0  0
  196.4660  176.4840  144.1400 N   0  0  0  0  0  0  0  0  0  0  0  0
  191.0100  171.3550  141.0650 C   0  0  1  0  0  3  0  0  0  0  0  0
  193.6690  170.8690  139.6080 C   0  0  0  0  0  0  0  0  0  0  0  0
  194.5350  175.6360  145.0940 O   0  0  0  0  0  0  0  0  0  0  0  0
  193.0790  171.7200  138.5110 C   0  0  2  0  0  3  0  0  0  0  0  0
  194.6410  171.2780  135.7140 C   0  0  0  0  0  0  0  0  0  0  0  0
  195.5540  172.2150  136.2030 O   0  0  0  0  0  0  0  0  0  0  0  0
  194.8990  170.9510  139.8540 O   0  0  0  0  0  0  0  0  0  0  0  0
  192.6700  174.6950  146.0210 O   0  0  0  0  0  0  0  0  0  0  0  0
  197.3240  175.7570  141.9630 C   0  0  0  0  0  2  0  0  0  0  0  0
  191.4700  170.0820  140.3420 C   0  0  1  0  0  3  0  0  0  0  0  0
  192.6360  174.8390  143.6330 C   0  0  1  0  0  3  0  0  0  0  0  0
  191.9520  173.8320  138.3440 O   0  0  0  0  0  1  0  0  0  0  0  0
  195.8260  174.6600  140.3230 C   0  0  0  0  0  2  0  0  0  0  0  0
  195.3670  175.8020  143.9900 C   0  0  0  0  0  0  0  0  0  0  0  0
  196.5040  175.2680  139.1060 C   0  0  0  0  0  2  0  0  0  0  0  0
  196.2910  174.3930  137.8780 C   0  0  1  0  0  3  0  0  0  0  0  0
  191.8610  172.5760  138.9450 C   0  0  2  0  0  3  0  0  0  0  0  0
  196.3730  171.9990  137.3180 C   0  0  0  0  0  0  0  0  0  0  0  0
  192.7310  170.8400  137.2950 C   0  0  2  0  0  3  0  0  0  0  0  0
  193.9800  170.2740  136.6080 C   0  0  0  0  0  2  0  0  0  0  0  0
  195.8770  175.6280  141.5000 C   0  0  1  0  0  3  0  0  0  0  0  0
  197.3900  176.8040  143.0560 C   0  0  0  0  0  2  0  0  0  0  0  0
  192.8870  169.9950  140.3590 O   0  0  0  0  0  0  0  0  0  0  0  0
  196.8840  175.0220  136.6120 C   0  0  1  0  0  3  0  0  0  0  0  0
  197.6990  174.0930  135.9850 F   0  0  0  0  0  0  0  0  0  0  0  0
  196.1150  176.8290  135.2400 F   0  0  0  0  0  0  0  0  0  0  0  0
  195.8260  175.5340  135.6310 C   0  0  2  0  0  3  0  0  0  0  0  0
  193.3210  176.0140  134.8120 C   0  0  0  0  0  1  0  0  0  0  0  0
  194.1410  175.4640  136.3330 S   0  0  0  0  0  0  0  0  0  0  0  0
  191.2870  171.2730  142.4700 O   0  0  0  0  0  0  0  0  0  0  0  0
  190.3270  171.5080  143.4630 C   0  0  0  0  0  3  0  0  0  0  0  0
  189.1170  171.9910  143.1900 C   0  0  0  0  0  2  0  0  0  0  0  0
  191.2210  175.3980  143.5720 C   0  0  0  0  0  2  0  0  0  0  0  0
  191.1830  176.6270  144.2350 O   0  0  0  0  0  0  0  0  0  0  0  0
  190.0190  177.2580  143.7830 C   0  0  2  0  0  3  0  0  0  0  0  0
  186.7510  177.5120  146.5170 C   0  0  0  0  0  0  0  0  0  0  0  0
  187.9050  178.2050  144.5080 O   0  0  0  0  0  0  0  0  0  0  0  0
  186.7770  178.2650  145.3330 C   0  0  0  0  0  0  0  0  0  0  0  0
  184.5550  178.4010  147.0270 C   0  0  0  0  0  3  0  0  0  0  0  0
  185.5980  176.8340  148.6550 C   0  0  0  0  0  1  0  0  0  0  0  0
  188.8340  176.3870  145.8440 C   0  0  0  0  0  2  0  0  0  0  0  0
  185.6460  177.6010  147.3810 C   0  0  0  0  0  0  0  0  0  0  0  0
  187.8500  176.7010  146.8270 O   0  0  0  0  0  0  0  0  0  0  0  0
  189.1240  177.6140  144.9670 C   0  0  1  0  0  3  0  0  0  0  0  0
  185.6850  179.0650  144.9860 C   0  0  0  0  0  3  0  0  0  0  0  0
  184.5730  179.1320  145.8330 C   0  0  0  0  0  3  0  0  0  0  0  0
  189.3350  176.4100  142.9030 O   0  0  0  0  0  0  0  0  0  0  0  0
  188.9310  177.2270  141.8470 C   0  0  0  0  0  2  0  0  0  0  0  0
  187.7950  176.5710  141.0840 C   0  0  0  0  0  2  0  0  0  0  0  0
  186.8850  177.5480  140.6720 O   0  0  0  0  0  0  0  0  0  0  0  0
  185.8910  176.4860  142.4260 O   0  0  0  0  0  1  0  0  0  0  0  0
  185.6630  177.1770  141.2370 C   0  0  1  0  0  3  0  0  0  0  0  0
  184.2360  178.8620  140.3250 F   0  0  0  0  0  0  0  0  0  0  0  0
  185.5960  179.4110  142.0410 F   0  0  0  0  0  0  0  0  0  0  0  0
  184.8080  178.4100  141.5050 C   0  0  0  0  0  0  0  0  0  0  0  0
  183.7990  178.0910  142.4120 O   0  0  0  0  0  1  0  0  0  0  0  0
  1 12  1  1  0  0  0
  1 14  1  0  0  0  0
  1  5  1  0  0  0  0
  2  7  1  6  0  0  0
  2  4  1  0  0  0  0
  2 24  1  0  0  0  0
  3 18  2  0  0  0  0
  4 27  1  1  0  0  0
  7  5  1  0  0  0  0
  8 16  1  0  0  0  0
  8 21  2  0  0  0  0
 14 43  1  1  0  0  0
 15 20  2  0  0  0  0
 15 36  1  0  0  0  0
 17 30  1  0  0  0  0
 17 15  1  1  0  0  0
 18 19  1  0  0  0  0
 18 33  1  0  0  0  0
 19 31  1  0  0  0  0
 22 35  1  0  0  0  0
 23 36  1  0  0  0  0
 23  6  1  1  0  0  0
 23 14  1  0  0  0  0
 24 46  1  1  0  0  0
 24  8  1  0  0  0  0
 27 13  2  0  0  0  0
 27 16  1  0  0  0  0
 28 26  1  0  0  0  0
 29 37  1  6  0  0  0
 29 10  1  0  0  0  0
 29 28  1  0  0  0  0
 30 25  1  1  0  0  0
 30  1  1  0  0  0  0
 31  9  2  0  0  0  0
 31 10  1  0  0  0  0
 32 11  1  6  0  0  0
 32 17  1  0  0  0  0
 33 32  1  0  0  0  0
 34 26  1  6  0  0  0
 34 22  1  0  0  0  0
 34  4  1  0  0  0  0
 35 13  1  0  0  0  0
 37 38  1  6  0  0  0
 40 39  1  1  0  0  0
 40 42  1  0  0  0  0
 40 37  1  0  0  0  0
 41 42  1  0  0  0  0
 43 44  1  0  0  0  0
 45 44  2  0  0  0  0
 46 47  1  0  0  0  0
 48 60  1  6  0  0  0
 48 47  1  0  0  0  0
 49 56  1  0  0  0  0
 49 55  1  0  0  0  0
 50 57  1  0  0  0  0
 50 51  1  0  0  0  0
 51 49  2  0  0  0  0
 52 55  2  0  0  0  0
 54 56  1  0  0  0  0
 55 53  1  0  0  0  0
 57 48  1  6  0  0  0
 57 54  1  0  0  0  0
 58 51  1  0  0  0  0
 58 59  2  0  0  0  0
 59 52  1  0  0  0  0
 61 60  1  0  0  0  0
 62 61  1  0  0  0  0
 63 62  1  0  0  0  0
 63 65  1  0  0  0  0
 65 68  1  0  0  0  0
 65 64  1  1  0  0  0
 66 68  1  0  0  0  0
 68 67  1  0  0  0  0
 68 69  1  0  0  0  0
M  END
>  <MODEL>
1

>  <REMARK>
 VINA RESULT:      -7.4      0.000      0.000
  Name = 
  15 active torsions:
  status: ('A' for Active; 'I' for Inactive)
    1  A    between atoms: O_1  and  C_53
    2  A    between atoms: O_1  and  C_66
    3  A    between atoms: C_6  and  O_29
    4  A    between atoms: O_13  and  C_42
    5  A    between atoms: O_13  and  C_66
    6  A    between atoms: O_15  and  C_50
    7  A    between atoms: O_15  and  C_68
    8  A    between atoms: C_25  and  C_27
    9  A    between atoms: C_25  and  S_43
   10  A    between atoms: C_27  and  C_57
   11  A    between atoms: O_29  and  C_31
   12  A    between atoms: C_42  and  C_50
   13  A    between atoms: C_45  and  C_66
   14  A    between atoms: C_48  and  C_53
   15  A    between atoms: C_52  and  C_68
                            x       y       z     vdW  Elec       q    Type
                         _______ _______ _______ _____ _____    ______ ____

>  <TORSDO>
F 15

$$$$
=
 OpenBabel11062418413D

 69 74  0  0  1  0  0  0  0  0999 V2000
  189.4600  173.9130  141.6660 C   0  0  2  0  0  0  0  0  0  0  0  0
  192.2950  173.4200  139.1210 C   0  0  1  0  0  3  0  0  0  0  0  0
  191.7080  175.2240  147.8270 O   0  0  0  0  0  0  0  0  0  0  0  0
  193.3800  174.5130  138.9890 C   0  0  2  0  0  3  0  0  0  0  0  0
  190.6430  174.3880  140.7940 C   0  0  0  0  0  2  0  0  0  0  0  0
  186.6650  176.6580  142.1590 C   0  0  0  0  0  1  0  0  0  0  0  0
  191.7010  173.3160  140.5350 C   0  0  0  0  0  2  0  0  0  0  0  0
  191.6370  174.0680  136.7300 C   0  0  0  0  0  0  0  0  0  0  0  0
  193.0400  177.7770  145.0380 O   0  0  0  0  0  0  0  0  0  0  0  0
  194.2690  176.1500  143.9860 O   0  0  0  0  0  0  0  0  0  0  0  0
  189.6500  174.1510  145.9300 O   0  0  0  0  0  1  0  0  0  0  0  0
  189.0270  172.5200  141.2310 C   0  0  0  0  0  1  0  0  0  0  0  0
  195.1470  174.6490  137.2620 N   0  0  0  0  0  0  0  0  0  0  0  0
  188.2020  174.7960  141.4170 C   0  0  1  0  0  3  0  0  0  0  0  0
  190.2770  176.3970  143.0170 C   0  0  0  0  0  0  0  0  0  0  0  0
  192.9720  174.4020  136.5110 O   0  0  0  0  0  0  0  0  0  0  0  0
  190.4240  175.1430  143.8420 C   0  0  2  0  0  3  0  0  0  0  0  0
  191.8060  175.7710  146.6970 C   0  0  0  0  0  0  0  0  0  0  0  0
  193.0170  175.6790  146.0060 O   0  0  0  0  0  0  0  0  0  0  0  0
  191.2910  177.1040  142.7890 O   0  0  0  0  0  0  0  0  0  0  0  0
  190.8010  174.2610  135.8110 O   0  0  0  0  0  0  0  0  0  0  0  0
  195.7150  175.2300  139.5740 C   0  0  0  0  0  2  0  0  0  0  0  0
  187.9470  175.8970  142.4550 C   0  0  1  0  0  3  0  0  0  0  0  0
  191.1660  173.5930  138.0790 C   0  0  1  0  0  3  0  0  0  0  0  0
  190.7280  172.7980  143.4300 O   0  0  0  0  0  1  0  0  0  0  0  0
  194.0890  174.8480  141.4030 C   0  0  0  0  0  2  0  0  0  0  0  0
  193.8860  174.5090  137.5550 C   0  0  0  0  0  0  0  0  0  0  0  0
  195.1440  174.4950  142.4390 C   0  0  0  0  0  2  0  0  0  0  0  0
  194.6340  174.7800  143.8450 C   0  0  1  0  0  3  0  0  0  0  0  0
  189.8630  173.8620  143.1710 C   0  0  2  0  0  3  0  0  0  0  0  0
  193.4150  176.5740  145.0060 C   0  0  0  0  0  0  0  0  0  0  0  0
  189.8000  175.3560  145.2350 C   0  0  2  0  0  3  0  0  0  0  0  0
  190.5830  176.3720  146.0750 C   0  0  0  0  0  2  0  0  0  0  0  0
  194.5270  174.3850  140.0180 C   0  0  1  0  0  3  0  0  0  0  0  0
  196.2210  174.6940  138.2500 C   0  0  0  0  0  2  0  0  0  0  0  0
  189.0470  176.7930  142.4970 O   0  0  0  0  0  0  0  0  0  0  0  0
  195.6380  174.3500  144.9200 C   0  0  1  0  0  3  0  0  0  0  0  0
  195.1760  174.7590  146.1600 F   0  0  0  0  0  0  0  0  0  0  0  0
  195.5060  172.2910  146.1380 F   0  0  0  0  0  0  0  0  0  0  0  0
  195.9090  172.8430  144.9350 C   0  0  2  0  0  3  0  0  0  0  0  0
  197.5660  170.7720  145.3060 C   0  0  0  0  0  1  0  0  0  0  0  0
  197.6690  172.4540  144.6380 S   0  0  0  0  0  0  0  0  0  0  0  0
  188.1970  175.3350  140.0880 O   0  0  0  0  0  0  0  0  0  0  0  0
  187.4530  174.7900  139.0340 C   0  0  0  0  0  3  0  0  0  0  0  0
  187.8170  174.9160  137.7600 C   0  0  0  0  0  2  0  0  0  0  0  0
  190.3410  172.3190  137.9590 C   0  0  0  0  0  2  0  0  0  0  0  0
  191.1760  171.2650  137.5790 O   0  0  0  0  0  0  0  0  0  0  0  0
  190.6010  170.1170  138.1330 C   0  0  2  0  0  3  0  0  0  0  0  0
  193.0710  169.7160  141.5920 C   0  0  0  0  0  0  0  0  0  0  0  0
  192.7460  170.2650  139.2590 O   0  0  0  0  0  0  0  0  0  0  0  0
  193.5750  170.2250  140.3850 C   0  0  0  0  0  0  0  0  0  0  0  0
  195.2220  170.0900  142.6410 C   0  0  0  0  0  3  0  0  0  0  0  0
  193.4090  169.0660  144.0040 C   0  0  0  0  0  1  0  0  0  0  0  0
  190.8160  169.6260  140.6080 C   0  0  0  0  0  2  0  0  0  0  0  0
  193.9060  169.6240  142.7180 C   0  0  0  0  0  0  0  0  0  0  0  0
  191.7400  169.2820  141.6390 O   0  0  0  0  0  0  0  0  0  0  0  0
  191.5010  169.5620  139.2350 C   0  0  1  0  0  3  0  0  0  0  0  0
  194.8910  170.6880  140.3140 C   0  0  0  0  0  3  0  0  0  0  0  0
  195.7150  170.6210  141.4440 C   0  0  0  0  0  3  0  0  0  0  0  0
  190.4170  169.1530  137.1340 O   0  0  0  0  0  0  0  0  0  0  0  0
  191.1910  169.5890  136.0580 C   0  0  0  0  0  2  0  0  0  0  0  0
  192.1860  168.5140  135.6600 C   0  0  0  0  0  2  0  0  0  0  0  0
  193.3080  169.1090  135.0780 O   0  0  0  0  0  0  0  0  0  0  0  0
  195.1910  168.4880  136.2010 O   0  0  0  0  0  1  0  0  0  0  0  0
  194.1560  169.4210  136.1430 C   0  0  1  0  0  3  0  0  0  0  0  0
  196.0370  170.7570  135.5280 F   0  0  0  0  0  0  0  0  0  0  0  0
  194.6880  171.4870  137.1850 F   0  0  0  0  0  0  0  0  0  0  0  0
  194.7250  170.8240  135.9730 C   0  0  0  0  0  0  0  0  0  0  0  0
  193.9590  171.5300  135.0460 O   0  0  0  0  0  1  0  0  0  0  0  0
  1 12  1  6  0  0  0
  1 30  1  0  0  0  0
  2  7  1  1  0  0  0
  4 27  1  6  0  0  0
  4  2  1  0  0  0  0
  4 34  1  0  0  0  0
  5  1  1  0  0  0  0
  7  5  1  0  0  0  0
  8 24  1  0  0  0  0
 10 31  1  0  0  0  0
 13 27  2  0  0  0  0
 13 35  1  0  0  0  0
 14 43  1  6  0  0  0
 14  1  1  0  0  0  0
 14 23  1  0  0  0  0
 16  8  1  0  0  0  0
 16 27  1  0  0  0  0
 17 15  1  6  0  0  0
 17 32  1  0  0  0  0
 18  3  2  0  0  0  0
 19 18  1  0  0  0  0
 20 15  2  0  0  0  0
 21  8  2  0  0  0  0
 23  6  1  6  0  0  0
 23 36  1  0  0  0  0
 24 46  1  6  0  0  0
 24  2  1  0  0  0  0
 26 28  1  0  0  0  0
 28 29  1  0  0  0  0
 29 10  1  0  0  0  0
 29 37  1  1  0  0  0
 30 25  1  6  0  0  0
 30 17  1  0  0  0  0
 31  9  2  0  0  0  0
 31 19  1  0  0  0  0
 32 11  1  1  0  0  0
 32 33  1  0  0  0  0
 33 18  1  0  0  0  0
 34 22  1  6  0  0  0
 34 26  1  0  0  0  0
 35 22  1  0  0  0  0
 36 15  1  0  0  0  0
 37 40  1  0  0  0  0
 37 38  1  1  0  0  0
 40 39  1  1  0  0  0
 42 40  1  0  0  0  0
 42 41  1  0  0  0  0
 44 43  1  0  0  0  0
 45 44  2  0  0  0  0
 47 46  1  0  0  0  0
 47 48  1  0  0  0  0
 48 60  1  6  0  0  0
 49 56  1  0  0  0  0
 49 55  1  0  0  0  0
 50 51  1  0  0  0  0
 51 49  2  0  0  0  0
 52 55  2  0  0  0  0
 54 56  1  0  0  0  0
 55 53  1  0  0  0  0
 57 48  1  6  0  0  0
 57 50  1  0  0  0  0
 57 54  1  0  0  0  0
 58 51  1  0  0  0  0
 58 59  2  0  0  0  0
 59 52  1  0  0  0  0
 61 60  1  0  0  0  0
 62 61  1  0  0  0  0
 63 62  1  0  0  0  0
 63 65  1  0  0  0  0
 65 64  1  6  0  0  0
 66 68  1  0  0  0  0
 68 65  1  0  0  0  0
 68 67  1  0  0  0  0
 69 68  1  0  0  0  0
M  END
>  <MODEL>
2

>  <REMARK>
 VINA RESULT:      -7.4      3.578      9.409
  Name = 
  15 active torsions:
  status: ('A' for Active; 'I' for Inactive)
    1  A    between atoms: O_1  and  C_53
    2  A    between atoms: O_1  and  C_66
    3  A    between atoms: C_6  and  O_29
    4  A    between atoms: O_13  and  C_42
    5  A    between atoms: O_13  and  C_66
    6  A    between atoms: O_15  and  C_50
    7  A    between atoms: O_15  and  C_68
    8  A    between atoms: C_25  and  C_27
    9  A    between atoms: C_25  and  S_43
   10  A    between atoms: C_27  and  C_57
   11  A    between atoms: O_29  and  C_31
   12  A    between atoms: C_42  and  C_50
   13  A    between atoms: C_45  and  C_66
   14  A    between atoms: C_48  and  C_53
   15  A    between atoms: C_52  and  C_68
                            x       y       z     vdW  Elec       q    Type
                         _______ _______ _______ _____ _____    ______ ____

>  <TORSDO>
F 15

$$$$
=
 OpenBabel11062418413D

 69 74  0  0  1  0  0  0  0  0999 V2000
  191.7270  173.3960  140.7360 C   0  0  2  0  0  0  0  0  0  0  0  0
  194.9600  172.1070  142.3620 C   0  0  1  0  0  3  0  0  0  0  0  0
  190.8650  171.1060  134.5130 O   0  0  0  0  0  0  0  0  0  0  0  0
  195.2250  170.5850  142.3950 C   0  0  2  0  0  3  0  0  0  0  0  0
  192.6380  172.3090  141.3470 C   0  0  0  0  0  2  0  0  0  0  0  0
  187.8860  172.8050  141.4300 C   0  0  0  0  0  1  0  0  0  0  0  0
  194.1320  172.5580  141.1470 C   0  0  0  0  0  2  0  0  0  0  0  0
  194.8120  171.9320  144.9160 C   0  0  0  0  0  0  0  0  0  0  0  0
  191.3070  168.2170  137.2560 O   0  0  0  0  0  0  0  0  0  0  0  0
  193.4850  168.8070  137.6780 O   0  0  0  0  0  0  0  0  0  0  0  0
  190.4510  173.1520  136.6640 O   0  0  0  0  0  1  0  0  0  0  0  0
  192.3040  174.7740  141.0300 C   0  0  0  0  0  1  0  0  0  0  0  0
  197.0350  169.4190  143.6150 N   0  0  0  0  0  0  0  0  0  0  0  0
  190.3370  173.4110  141.4390 C   0  0  1  0  0  3  0  0  0  0  0  0
  190.5590  170.9220  139.6540 C   0  0  0  0  0  0  0  0  0  0  0  0
  195.7220  170.8790  144.8410 O   0  0  0  0  0  0  0  0  0  0  0  0
  191.1240  171.8660  138.6220 C   0  0  2  0  0  3  0  0  0  0  0  0
  190.9770  170.5890  135.6550 C   0  0  0  0  0  0  0  0  0  0  0  0
  192.1710  169.9470  135.9920 O   0  0  0  0  0  0  0  0  0  0  0  0
  191.0150  169.7530  139.7310 O   0  0  0  0  0  0  0  0  0  0  0  0
  194.3380  172.2510  146.0350 O   0  0  0  0  0  0  0  0  0  0  0  0
  196.4500  168.6490  141.3640 C   0  0  0  0  0  2  0  0  0  0  0  0
  189.2100  172.6790  140.6960 C   0  0  1  0  0  3  0  0  0  0  0  0
  194.3070  172.6110  143.6700 C   0  0  1  0  0  3  0  0  0  0  0  0
  192.7960  173.5870  138.5500 O   0  0  0  0  0  1  0  0  0  0  0  0
  194.8550  169.9330  139.9700 C   0  0  0  0  0  2  0  0  0  0  0  0
  196.0510  170.2730  143.6320 C   0  0  0  0  0  0  0  0  0  0  0  0
  195.5540  169.6190  138.6560 C   0  0  0  0  0  2  0  0  0  0  0  0
  194.5750  169.7040  137.4930 C   0  0  1  0  0  3  0  0  0  0  0  0
  191.6110  173.2240  139.1920 C   0  0  2  0  0  3  0  0  0  0  0  0
  192.2790  168.9750  136.9930 C   0  0  0  0  0  0  0  0  0  0  0  0
  190.1030  172.0770  137.4890 C   0  0  2  0  0  3  0  0  0  0  0  0
  189.8840  170.8070  136.6570 C   0  0  0  0  0  2  0  0  0  0  0  0
  195.8710  170.0340  141.1020 C   0  0  1  0  0  3  0  0  0  0  0  0
  197.5400  168.7700  142.4090 C   0  0  0  0  0  2  0  0  0  0  0  0
  189.5450  171.3110  140.5260 O   0  0  0  0  0  0  0  0  0  0  0  0
  195.2650  169.4820  136.1420 C   0  0  1  0  0  3  0  0  0  0  0  0
  194.3770  168.8670  135.2760 F   0  0  0  0  0  0  0  0  0  0  0  0
  196.8570  171.2690  136.2520 F   0  0  0  0  0  0  0  0  0  0  0  0
  195.8010  170.7710  135.5110 C   0  0  2  0  0  3  0  0  0  0  0  0
  195.6420  173.4440  135.5750 C   0  0  0  0  0  1  0  0  0  0  0  0
  194.5070  172.0490  135.3450 S   0  0  0  0  0  0  0  0  0  0  0  0
  190.4340  172.9570  142.7960 O   0  0  0  0  0  0  0  0  0  0  0  0
  190.2300  173.7870  143.9060 C   0  0  0  0  0  3  0  0  0  0  0  0
  190.9090  173.6450  145.0410 C   0  0  0  0  0  2  0  0  0  0  0  0
  194.4200  174.1250  143.7830 C   0  0  0  0  0  2  0  0  0  0  0  0
  195.4440  174.4440  144.6770 O   0  0  0  0  0  0  0  0  0  0  0  0
  195.6180  175.8280  144.5650 C   0  0  2  0  0  3  0  0  0  0  0  0
  191.6110  176.8670  145.6070 C   0  0  0  0  0  0  0  0  0  0  0  0
  193.4450  176.7680  144.0340 O   0  0  0  0  0  0  0  0  0  0  0  0
  192.1020  177.0530  144.3060 C   0  0  0  0  0  0  0  0  0  0  0  0
  189.4350  177.6560  144.8920 C   0  0  0  0  0  3  0  0  0  0  0  0
  189.7340  177.0340  147.2830 C   0  0  0  0  0  1  0  0  0  0  0  0
  193.7270  175.7850  146.2480 C   0  0  0  0  0  2  0  0  0  0  0  0
  190.2780  177.1960  145.9080 C   0  0  0  0  0  0  0  0  0  0  0  0
  192.4770  176.3790  146.5940 O   0  0  0  0  0  0  0  0  0  0  0  0
  194.3820  176.5540  145.0920 C   0  0  1  0  0  3  0  0  0  0  0  0
  191.2560  177.5150  143.2960 C   0  0  0  0  0  3  0  0  0  0  0  0
  189.9200  177.8160  143.5890 C   0  0  0  0  0  3  0  0  0  0  0  0
  195.8380  176.1680  143.2260 O   0  0  0  0  0  0  0  0  0  0  0  0
  197.1790  176.5500  143.1600 C   0  0  0  0  0  2  0  0  0  0  0  0
  197.9280  175.6600  142.1850 C   0  0  0  0  0  2  0  0  0  0  0  0
  197.0590  174.6900  141.6770 O   0  0  0  0  0  0  0  0  0  0  0  0
  197.8000  172.9650  140.3860 O   0  0  0  0  0  1  0  0  0  0  0  0
  197.5820  174.3420  140.4300 C   0  0  1  0  0  3  0  0  0  0  0  0
  195.6240  175.5700  139.8300 F   0  0  0  0  0  0  0  0  0  0  0  0
  196.0520  173.6290  138.7590 F   0  0  0  0  0  0  0  0  0  0  0  0
  196.6240  174.7560  139.3200 C   0  0  0  0  0  0  0  0  0  0  0  0
  197.3240  175.4490  138.3330 O   0  0  0  0  0  1  0  0  0  0  0  0
  1 12  1  1  0  0  0
  1  5  1  0  0  0  0
  1 14  1  0  0  0  0
  2  7  1  6  0  0  0
  2  4  1  0  0  0  0
  2 24  1  0  0  0  0
  3 18  2  0  0  0  0
  4 27  1  1  0  0  0
  7  5  1  0  0  0  0
  8 21  2  0  0  0  0
 13 27  2  0  0  0  0
 14 43  1  1  0  0  0
 15 20  2  0  0  0  0
 15 36  1  0  0  0  0
 16  8  1  0  0  0  0
 17 30  1  0  0  0  0
 17 15  1  1  0  0  0
 18 19  1  0  0  0  0
 18 33  1  0  0  0  0
 19 31  1  0  0  0  0
 22 35  1  0  0  0  0
 23  6  1  1  0  0  0
 23 14  1  0  0  0  0
 24 46  1  1  0  0  0
 24  8  1  0  0  0  0
 27 16  1  0  0  0  0
 28 26  1  0  0  0  0
 29 37  1  6  0  0  0
 29 10  1  0  0  0  0
 29 28  1  0  0  0  0
 30 25  1  6  0  0  0
 30  1  1  0  0  0  0
 31  9  2  0  0  0  0
 31 10  1  0  0  0  0
 32 11  1  6  0  0  0
 32 17  1  0  0  0  0
 33 32  1  0  0  0  0
 34 26  1  6  0  0  0
 34 22  1  0  0  0  0
 34  4  1  0  0  0  0
 35 13  1  0  0  0  0
 36 23  1  0  0  0  0
 37 38  1  6  0  0  0
 40 37  1  0  0  0  0
 40 39  1  1  0  0  0
 42 40  1  0  0  0  0
 42 41  1  0  0  0  0
 43 44  1  0  0  0  0
 44 45  2  0  0  0  0
 46 47  1  0  0  0  0
 48 60  1  6  0  0  0
 48 47  1  0  0  0  0
 49 55  1  0  0  0  0
 49 56  1  0  0  0  0
 50 51  1  0  0  0  0
 50 57  1  0  0  0  0
 51 49  2  0  0  0  0
 52 55  2  0  0  0  0
 54 56  1  0  0  0  0
 55 53  1  0  0  0  0
 57 48  1  6  0  0  0
 57 54  1  0  0  0  0
 58 59  2  0  0  0  0
 58 51  1  0  0  0  0
 59 52  1  0  0  0  0
 61 60  1  0  0  0  0
 62 61  1  0  0  0  0
 63 62  1  0  0  0  0
 65 64  1  1  0  0  0
 65 63  1  0  0  0  0
 67 68  1  0  0  0  0
 68 66  1  0  0  0  0
 68 65  1  0  0  0  0
 69 68  1  0  0  0  0
M  END
>  <MODEL>
3

>  <REMARK>
 VINA RESULT:      -7.1      3.666      6.027
  Name = 
  15 active torsions:
  status: ('A' for Active; 'I' for Inactive)
    1  A    between atoms: O_1  and  C_53
    2  A    between atoms: O_1  and  C_66
    3  A    between atoms: C_6  and  O_29
    4  A    between atoms: O_13  and  C_42
    5  A    between atoms: O_13  and  C_66
    6  A    between atoms: O_15  and  C_50
    7  A    between atoms: O_15  and  C_68
    8  A    between atoms: C_25  and  C_27
    9  A    between atoms: C_25  and  S_43
   10  A    between atoms: C_27  and  C_57
   11  A    between atoms: O_29  and  C_31
   12  A    between atoms: C_42  and  C_50
   13  A    between atoms: C_45  and  C_66
   14  A    between atoms: C_48  and  C_53
   15  A    between atoms: C_52  and  C_68
                            x       y       z     vdW  Elec       q    Type
                         _______ _______ _______ _____ _____    ______ ____

>  <TORSDO>
F 15

$$$$
=
 OpenBabel11062418413D

 69 74  0  0  1  0  0  0  0  0999 V2000
  194.3660  173.8000  144.3010 C   0  0  2  0  0  0  0  0  0  0  0  0
  190.7810  174.9450  143.5300 C   0  0  1  0  0  3  0  0  0  0  0  0
  196.1190  168.3110  140.9060 O   0  0  0  0  0  0  0  0  0  0  0  0
  190.3680  175.1670  142.0580 C   0  0  2  0  0  3  0  0  0  0  0  0
  193.2580  174.3860  143.3990 C   0  0  0  0  0  2  0  0  0  0  0  0
  197.9410  175.3170  143.5910 C   0  0  0  0  0  1  0  0  0  0  0  0
  191.8560  173.8600  143.7070 C   0  0  0  0  0  2  0  0  0  0  0  0
  190.4440  177.4730  143.7950 C   0  0  0  0  0  0  0  0  0  0  0  0
  194.9060  171.3390  138.5760 O   0  0  0  0  0  0  0  0  0  0  0  0
  192.7560  171.2270  139.3720 O   0  0  0  0  0  0  0  0  0  0  0  0
  196.3320  170.1480  143.2650 O   0  0  0  0  0  1  0  0  0  0  0  0
  193.8820  173.7520  145.7440 C   0  0  0  0  0  1  0  0  0  0  0  0
  188.2610  176.1790  141.2440 N   0  0  0  0  0  0  0  0  0  0  0  0
  195.5990  174.7500  144.3470 C   0  0  1  0  0  3  0  0  0  0  0  0
  195.4650  173.3750  141.6040 C   0  0  0  0  0  0  0  0  0  0  0  0
  189.4650  177.3900  142.8060 O   0  0  0  0  0  0  0  0  0  0  0  0
  195.1910  172.1160  142.3890 C   0  0  2  0  0  3  0  0  0  0  0  0
  195.7510  169.4770  140.6050 C   0  0  0  0  0  0  0  0  0  0  0  0
  194.4590  169.6720  140.1120 O   0  0  0  0  0  0  0  0  0  0  0  0
  194.8910  173.5470  140.4990 O   0  0  0  0  0  0  0  0  0  0  0  0
  190.7360  178.5980  144.2730 O   0  0  0  0  0  0  0  0  0  0  0  0
  189.1680  174.2390  140.0550 C   0  0  0  0  0  2  0  0  0  0  0  0
  196.7660  174.3680  143.4250 C   0  0  1  0  0  3  0  0  0  0  0  0
  191.2310  176.2580  144.2110 C   0  0  1  0  0  3  0  0  0  0  0  0
  193.7370  171.4440  144.1760 O   0  0  0  0  0  1  0  0  0  0  0  0
  191.1070  172.9970  140.9680 C   0  0  0  0  0  2  0  0  0  0  0  0
  189.3030  176.2530  142.0210 C   0  0  0  0  0  0  0  0  0  0  0  0
  190.6320  171.6400  140.4760 C   0  0  0  0  0  2  0  0  0  0  0  0
  191.8100  170.6910  140.2930 C   0  0  1  0  0  3  0  0  0  0  0  0
  194.7440  172.3550  143.8540 C   0  0  2  0  0  3  0  0  0  0  0  0
  194.0760  170.7740  139.3390 C   0  0  0  0  0  0  0  0  0  0  0  0
  196.4180  171.1850  142.3300 C   0  0  2  0  0  3  0  0  0  0  0  0
  196.6590  170.6260  140.9230 C   0  0  0  0  0  2  0  0  0  0  0  0
  189.9170  173.8780  141.3330 C   0  0  1  0  0  3  0  0  0  0  0  0
  187.9230  175.0160  140.4280 C   0  0  0  0  0  2  0  0  0  0  0  0
  196.3360  174.3560  142.0730 O   0  0  0  0  0  0  0  0  0  0  0  0
  191.3580  169.2850  139.8830 C   0  0  1  0  0  3  0  0  0  0  0  0
  190.3580  168.8630  140.7430 F   0  0  0  0  0  0  0  0  0  0  0  0
  189.5820  168.6980  138.3870 F   0  0  0  0  0  0  0  0  0  0  0  0
  190.8710  169.1980  138.4340 C   0  0  2  0  0  3  0  0  0  0  0  0
  192.2250  169.4520  136.1370 C   0  0  0  0  0  1  0  0  0  0  0  0
  191.9690  168.1720  137.3950 S   0  0  0  0  0  0  0  0  0  0  0  0
  195.2140  176.1160  144.1450 O   0  0  0  0  0  0  0  0  0  0  0  0
  195.3330  177.1070  145.1280 C   0  0  0  0  0  3  0  0  0  0  0  0
  194.3710  177.3580  146.0120 C   0  0  0  0  0  2  0  0  0  0  0  0
  191.2480  176.1040  145.7260 C   0  0  0  0  0  2  0  0  0  0  0  0
  189.9960  175.6570  146.1560 O   0  0  0  0  0  0  0  0  0  0  0  0
  189.7640  176.3130  147.3700 C   0  0  2  0  0  3  0  0  0  0  0  0
  185.9290  177.8840  146.3460 C   0  0  0  0  0  0  0  0  0  0  0  0
  188.2750  177.5250  145.8840 O   0  0  0  0  0  0  0  0  0  0  0  0
  187.0220  177.9870  145.4710 C   0  0  0  0  0  0  0  0  0  0  0  0
  184.5120  178.9450  144.6910 C   0  0  0  0  0  3  0  0  0  0  0  0
  183.5020  178.3180  146.8780 C   0  0  0  0  0  1  0  0  0  0  0  0
  187.2960  176.5400  147.8900 C   0  0  0  0  0  2  0  0  0  0  0  0
  184.6750  178.3900  145.9640 C   0  0  0  0  0  0  0  0  0  0  0  0
  186.1220  177.2990  147.6030 O   0  0  0  0  0  0  0  0  0  0  0  0
  188.5280  177.2020  147.2540 C   0  0  1  0  0  3  0  0  0  0  0  0
  186.8540  178.5450  144.2010 C   0  0  0  0  0  3  0  0  0  0  0  0
  185.5970  179.0230  143.8110 C   0  0  0  0  0  3  0  0  0  0  0  0
  190.8800  177.0870  147.7080 O   0  0  0  0  0  0  0  0  0  0  0  0
  190.5560  177.6830  148.9270 C   0  0  0  0  0  2  0  0  0  0  0  0
  191.6760  177.4650  149.9290 C   0  0  0  0  0  2  0  0  0  0  0  0
  191.3070  178.0040  151.1640 O   0  0  0  0  0  0  0  0  0  0  0  0
  192.9530  176.8160  152.2010 O   0  0  0  0  0  1  0  0  0  0  0  0
  191.5750  177.0010  152.1000 C   0  0  1  0  0  3  0  0  0  0  0  0
  190.0370  178.3680  153.3120 F   0  0  0  0  0  0  0  0  0  0  0  0
  192.0080  177.8410  154.2790 F   0  0  0  0  0  0  0  0  0  0  0  0
  190.9960  177.3780  153.4580 C   0  0  0  0  0  0  0  0  0  0  0  0
  190.4140  176.2550  154.0450 O   0  0  0  0  0  1  0  0  0  0  0  0
  1 14  1  0  0  0  0
  1 12  1  1  0  0  0
  2  7  1  6  0  0  0
  2 24  1  0  0  0  0
  4 27  1  1  0  0  0
  4  2  1  0  0  0  0
  5  7  1  0  0  0  0
  5  1  1  0  0  0  0
  8 24  1  0  0  0  0
  8 21  2  0  0  0  0
  9 31  2  0  0  0  0
 10 29  1  0  0  0  0
 13 27  2  0  0  0  0
 14 43  1  6  0  0  0
 15 36  1  0  0  0  0
 16  8  1  0  0  0  0
 17 15  1  1  0  0  0
 17 30  1  0  0  0  0
 18  3  2  0  0  0  0
 18 33  1  0  0  0  0
 19 18  1  0  0  0  0
 20 15  2  0  0  0  0
 22 35  1  0  0  0  0
 23  6  1  6  0  0  0
 23 14  1  0  0  0  0
 24 46  1  1  0  0  0
 26 34  1  0  0  0  0
 27 16  1  0  0  0  0
 28 26  1  0  0  0  0
 29 37  1  6  0  0  0
 29 28  1  0  0  0  0
 30 25  1  6  0  0  0
 30  1  1  0  0  0  0
 31 10  1  0  0  0  0
 31 19  1  0  0  0  0
 32 17  1  0  0  0  0
 32 11  1  1  0  0  0
 33 32  1  0  0  0  0
 34 22  1  6  0  0  0
 34  4  1  0  0  0  0
 35 13  1  0  0  0  0
 36 23  1  0  0  0  0
 37 38  1  1  0  0  0
 40 39  1  1  0  0  0
 40 37  1  0  0  0  0
 41 42  1  0  0  0  0
 42 40  1  0  0  0  0
 43 44  1  0  0  0  0
 44 45  2  0  0  0  0
 46 47  1  0  0  0  0
 48 47  1  6  0  0  0
 48 60  1  0  0  0  0
 49 56  1  0  0  0  0
 50 57  1  0  0  0  0
 51 50  1  0  0  0  0
 51 49  2  0  0  0  0
 52 55  2  0  0  0  0
 55 49  1  0  0  0  0
 55 53  1  0  0  0  0
 56 54  1  0  0  0  0
 57 48  1  6  0  0  0
 57 54  1  0  0  0  0
 58 51  1  0  0  0  0
 59 58  2  0  0  0  0
 59 52  1  0  0  0  0
 60 61  1  0  0  0  0
 61 62  1  0  0  0  0
 62 63  1  0  0  0  0
 63 65  1  0  0  0  0
 65 64  1  1  0  0  0
 65 68  1  0  0  0  0
 66 68  1  0  0  0  0
 68 69  1  0  0  0  0
 68 67  1  0  0  0  0
M  END
>  <MODEL>
4

>  <REMARK>
 VINA RESULT:      -6.2      4.114      6.938
  Name = 
  15 active torsions:
  status: ('A' for Active; 'I' for Inactive)
    1  A    between atoms: O_1  and  C_53
    2  A    between atoms: O_1  and  C_66
    3  A    between atoms: C_6  and  O_29
    4  A    between atoms: O_13  and  C_42
    5  A    between atoms: O_13  and  C_66
    6  A    between atoms: O_15  and  C_50
    7  A    between atoms: O_15  and  C_68
    8  A    between atoms: C_25  and  C_27
    9  A    between atoms: C_25  and  S_43
   10  A    between atoms: C_27  and  C_57
   11  A    between atoms: O_29  and  C_31
   12  A    between atoms: C_42  and  C_50
   13  A    between atoms: C_45  and  C_66
   14  A    between atoms: C_48  and  C_53
   15  A    between atoms: C_52  and  C_68
                            x       y       z     vdW  Elec       q    Type
                         _______ _______ _______ _____ _____    ______ ____

>  <TORSDO>
F 15

$$$$
=
 OpenBabel11062418413D

 69 74  0  0  1  0  0  0  0  0999 V2000
  190.4630  174.7040  143.9140 C   0  0  2  0  0  0  0  0  0  0  0  0
  187.9280  175.0870  141.0530 C   0  0  1  0  0  3  0  0  0  0  0  0
  194.4270  169.3700  143.1670 O   0  0  0  0  0  0  0  0  0  0  0  0
  188.4410  175.1000  139.5960 C   0  0  2  0  0  3  0  0  0  0  0  0
  190.0470  174.9920  142.4550 C   0  0  0  0  0  2  0  0  0  0  0  0
  193.5930  176.7980  145.1010 C   0  0  0  0  0  1  0  0  0  0  0  0
  188.7950  174.2420  142.0010 C   0  0  0  0  0  2  0  0  0  0  0  0
  187.2450  177.5200  140.6210 C   0  0  0  0  0  0  0  0  0  0  0  0
  194.5190  171.9050  140.0630 O   0  0  0  0  0  0  0  0  0  0  0  0
  192.3390  171.4610  139.5010 O   0  0  0  0  0  0  0  0  0  0  0  0
  193.0210  171.4100  144.8540 O   0  0  0  0  0  1  0  0  0  0  0  0
  189.2300  174.6900  144.8070 C   0  0  0  0  0  1  0  0  0  0  0  0
  187.1300  175.6250  137.5650 N   0  0  0  0  0  0  0  0  0  0  0  0
  191.3280  175.8690  144.4810 C   0  0  1  0  0  3  0  0  0  0  0  0
  192.9760  174.2620  142.4480 C   0  0  0  0  0  0  0  0  0  0  0  0
  187.0510  177.1700  139.2860 O   0  0  0  0  0  0  0  0  0  0  0  0
  192.4230  173.0460  143.1490 C   0  0  2  0  0  3  0  0  0  0  0  0
  194.1910  170.4160  142.5070 C   0  0  0  0  0  0  0  0  0  0  0  0
  193.4260  170.3220  141.3420 O   0  0  0  0  0  0  0  0  0  0  0  0
  193.1500  174.2280  141.2030 O   0  0  0  0  0  0  0  0  0  0  0  0
  187.0820  178.7170  140.9690 O   0  0  0  0  0  0  0  0  0  0  0  0
  188.7550  173.7940  137.4730 C   0  0  0  0  0  2  0  0  0  0  0  0
  192.8450  175.6350  144.4710 C   0  0  1  0  0  3  0  0  0  0  0  0
  187.7540  176.5150  141.6210 C   0  0  1  0  0  3  0  0  0  0  0  0
  190.2720  172.2700  143.8790 O   0  0  0  0  0  1  0  0  0  0  0  0
  189.8970  173.0210  139.5300 C   0  0  0  0  0  2  0  0  0  0  0  0
  187.5000  175.9590  138.7680 C   0  0  0  0  0  0  0  0  0  0  0  0
  189.9440  171.5610  139.1080 C   0  0  0  0  0  2  0  0  0  0  0  0
  191.0920  170.8390  139.8000 C   0  0  1  0  0  3  0  0  0  0  0  0
  191.1760  173.3230  144.0290 C   0  0  2  0  0  3  0  0  0  0  0  0
  193.4630  171.2610  140.3060 C   0  0  0  0  0  0  0  0  0  0  0  0
  193.5350  172.3610  143.9650 C   0  0  2  0  0  3  0  0  0  0  0  0
  194.6150  171.7370  143.0720 C   0  0  0  0  0  2  0  0  0  0  0  0
  188.6390  173.6910  138.9890 C   0  0  1  0  0  3  0  0  0  0  0  0
  187.4570  174.3540  136.9260 C   0  0  0  0  0  2  0  0  0  0  0  0
  193.2990  175.4260  143.1430 O   0  0  0  0  0  0  0  0  0  0  0  0
  191.1150  169.3430  139.4670 C   0  0  1  0  0  3  0  0  0  0  0  0
  190.0850  168.7130  140.1460 F   0  0  0  0  0  0  0  0  0  0  0  0
  189.8660  168.3140  137.7000 F   0  0  0  0  0  0  0  0  0  0  0  0
  191.0070  169.0490  137.9680 C   0  0  2  0  0  3  0  0  0  0  0  0
  191.9810  168.2960  135.5890 C   0  0  0  0  0  1  0  0  0  0  0  0
  192.4740  168.1660  137.3290 S   0  0  0  0  0  0  0  0  0  0  0  0
  191.0000  177.1160  143.8540 O   0  0  0  0  0  0  0  0  0  0  0  0
  190.1580  178.0750  144.4330 C   0  0  0  0  0  3  0  0  0  0  0  0
  189.6060  177.9130  145.6330 C   0  0  0  0  0  2  0  0  0  0  0  0
  186.8900  176.4970  142.8750 C   0  0  0  0  0  2  0  0  0  0  0  0
  185.5630  176.2490  142.5150 O   0  0  0  0  0  0  0  0  0  0  0  0
  184.9480  177.5060  142.4750 C   0  0  2  0  0  3  0  0  0  0  0  0
  185.8610  178.9220  146.3980 C   0  0  0  0  0  0  0  0  0  0  0  0
  185.3470  177.1430  144.8420 O   0  0  0  0  0  0  0  0  0  0  0  0
  185.7210  177.5520  146.1260 C   0  0  0  0  0  0  0  0  0  0  0  0
  186.4250  178.4030  148.6960 C   0  0  0  0  0  3  0  0  0  0  0  0
  186.3180  180.7960  148.0210 C   0  0  0  0  0  1  0  0  0  0  0  0
  185.5880  179.4210  144.0030 C   0  0  0  0  0  2  0  0  0  0  0  0
  186.1870  179.3500  147.6960 C   0  0  0  0  0  0  0  0  0  0  0  0
  185.6410  179.8420  145.3650 O   0  0  0  0  0  0  0  0  0  0  0  0
  184.8460  178.0820  143.8860 C   0  0  1  0  0  3  0  0  0  0  0  0
  185.9570  176.6100  147.1310 C   0  0  0  0  0  3  0  0  0  0  0  0
  186.3100  177.0360  148.4170 C   0  0  0  0  0  3  0  0  0  0  0  0
  183.6710  177.3870  141.9140 O   0  0  0  0  0  0  0  0  0  0  0  0
  183.6300  178.3390  140.8940 C   0  0  0  0  0  2  0  0  0  0  0  0
  182.1920  178.7190  140.5930 C   0  0  0  0  0  2  0  0  0  0  0  0
  181.3760  178.3410  141.6620 O   0  0  0  0  0  0  0  0  0  0  0  0
  180.2330  179.8630  140.4090 O   0  0  0  0  0  1  0  0  0  0  0  0
  180.3150  179.2490  141.6590 C   0  0  1  0  0  3  0  0  0  0  0  0
  179.1700  177.1650  141.8680 F   0  0  0  0  0  0  0  0  0  0  0  0
  178.0270  178.9530  141.0970 F   0  0  0  0  0  0  0  0  0  0  0  0
  179.0070  178.5370  141.9790 C   0  0  0  0  0  0  0  0  0  0  0  0
  178.6100  178.8500  143.2780 O   0  0  0  0  0  1  0  0  0  0  0  0
  1 30  1  0  0  0  0
  1 14  1  0  0  0  0
  1 12  1  1  0  0  0
  2 24  1  0  0  0  0
  2  7  1  1  0  0  0
  4 27  1  6  0  0  0
  4  2  1  0  0  0  0
  5  1  1  0  0  0  0
  7  5  1  0  0  0  0
  8 21  2  0  0  0  0
  8 24  1  0  0  0  0
  9 31  2  0  0  0  0
 10 29  1  0  0  0  0
 10 31  1  0  0  0  0
 13 27  2  0  0  0  0
 14 43  1  6  0  0  0
 15 36  1  0  0  0  0
 16  8  1  0  0  0  0
 17 15  1  1  0  0  0
 17 32  1  0  0  0  0
 17 30  1  0  0  0  0
 18 33  1  0  0  0  0
 18  3  2  0  0  0  0
 19 18  1  0  0  0  0
 20 15  2  0  0  0  0
 23 14  1  0  0  0  0
 23  6  1  6  0  0  0
 24 46  1  1  0  0  0
 27 16  1  0  0  0  0
 28 26  1  0  0  0  0
 28 29  1  0  0  0  0
 29 37  1  6  0  0  0
 30 25  1  6  0  0  0
 31 19  1  0  0  0  0
 32 11  1  6  0  0  0
 33 32  1  0  0  0  0
 34 22  1  6  0  0  0
 34 26  1  0  0  0  0
 34  4  1  0  0  0  0
 35 22  1  0  0  0  0
 35 13  1  0  0  0  0
 36 23  1  0  0  0  0
 37 38  1  1  0  0  0
 40 39  1  1  0  0  0
 40 37  1  0  0  0  0
 41 42  1  0  0  0  0
 42 40  1  0  0  0  0
 43 44  1  0  0  0  0
 44 45  2  0  0  0  0
 47 46  1  0  0  0  0
 48 60  1  1  0  0  0
 48 47  1  0  0  0  0
 49 55  1  0  0  0  0
 50 51  1  0  0  0  0
 51 49  2  0  0  0  0
 51 58  1  0  0  0  0
 54 56  1  0  0  0  0
 55 53  1  0  0  0  0
 55 52  2  0  0  0  0
 56 49  1  0  0  0  0
 57 48  1  6  0  0  0
 57 54  1  0  0  0  0
 57 50  1  0  0  0  0
 58 59  2  0  0  0  0
 59 52  1  0  0  0  0
 61 60  1  0  0  0  0
 62 61  1  0  0  0  0
 62 63  1  0  0  0  0
 65 64  1  6  0  0  0
 65 63  1  0  0  0  0
 65 68  1  0  0  0  0
 66 68  1  0  0  0  0
 67 68  1  0  0  0  0
 68 69  1  0  0  0  0
M  END
>  <MODEL>
5

>  <REMARK>
 VINA RESULT:      -5.8      3.735      6.547
  Name = 
  15 active torsions:
  status: ('A' for Active; 'I' for Inactive)
    1  A    between atoms: O_1  and  C_53
    2  A    between atoms: O_1  and  C_66
    3  A    between atoms: C_6  and  O_29
    4  A    between atoms: O_13  and  C_42
    5  A    between atoms: O_13  and  C_66
    6  A    between atoms: O_15  and  C_50
    7  A    between atoms: O_15  and  C_68
    8  A    between atoms: C_25  and  C_27
    9  A    between atoms: C_25  and  S_43
   10  A    between atoms: C_27  and  C_57
   11  A    between atoms: O_29  and  C_31
   12  A    between atoms: C_42  and  C_50
   13  A    between atoms: C_45  and  C_66
   14  A    between atoms: C_48  and  C_53
   15  A    between atoms: C_52  and  C_68
                            x       y       z     vdW  Elec       q    Type
                         _______ _______ _______ _____ _____    ______ ____

>  <TORSDO>
F 15

$$$$
=
 OpenBabel11062418413D

 69 74  0  0  1  0  0  0  0  0999 V2000
  193.8510  174.0120  143.1430 C   0  0  2  0  0  0  0  0  0  0  0  0
  191.9040  173.7380  139.8430 C   0  0  1  0  0  3  0  0  0  0  0  0
  190.7150  177.7700  147.6980 O   0  0  0  0  0  0  0  0  0  0  0  0
  190.4300  173.2760  139.8800 C   0  0  2  0  0  3  0  0  0  0  0  0
  192.6750  173.5450  142.2580 C   0  0  0  0  0  2  0  0  0  0  0  0
  194.7960  171.4430  145.9890 C   0  0  0  0  0  1  0  0  0  0  0  0
  192.3400  174.4950  141.1080 C   0  0  0  0  0  2  0  0  0  0  0  0
  192.3480  171.5510  138.5800 C   0  0  0  0  0  0  0  0  0  0  0  0
  188.5180  174.7070  146.3350 O   0  0  0  0  0  0  0  0  0  0  0  0
  188.3920  175.6010  144.2250 O   0  0  0  0  0  0  0  0  0  0  0  0
  193.1910  176.6000  146.4800 O   0  0  0  0  0  1  0  0  0  0  0  0
  194.9720  174.5520  142.2650 C   0  0  0  0  0  1  0  0  0  0  0  0
  189.0020  172.7100  137.9400 N   0  0  0  0  0  0  0  0  0  0  0  0
  194.4990  172.8030  143.8810 C   0  0  1  0  0  3  0  0  0  0  0  0
  191.7650  173.4260  145.1330 C   0  0  0  0  0  0  0  0  0  0  0  0
  191.0550  171.6480  138.0690 O   0  0  0  0  0  0  0  0  0  0  0  0
  192.2070  174.8670  145.0760 C   0  0  2  0  0  3  0  0  0  0  0  0
  190.4510  176.7130  147.0670 C   0  0  0  0  0  0  0  0  0  0  0  0
  189.5240  176.7630  146.0240 O   0  0  0  0  0  0  0  0  0  0  0  0
  190.5570  173.1450  144.9280 O   0  0  0  0  0  0  0  0  0  0  0  0
  193.0460  170.5470  138.2900 O   0  0  0  0  0  0  0  0  0  0  0  0
  188.0150  173.9630  139.8000 C   0  0  0  0  0  2  0  0  0  0  0  0
  194.0620  172.6050  145.3400 C   0  0  1  0  0  3  0  0  0  0  0  0
  192.8730  172.5680  139.5600 C   0  0  1  0  0  3  0  0  0  0  0  0
  193.1810  176.3390  143.4500 O   0  0  0  0  0  1  0  0  0  0  0  0
  189.4390  174.8120  141.6400 C   0  0  0  0  0  2  0  0  0  0  0  0
  190.1260  172.5510  138.5790 C   0  0  0  0  0  0  0  0  0  0  0  0
  188.6260  176.0790  141.8550 C   0  0  0  0  0  2  0  0  0  0  0  0
  188.7920  176.5900  143.2810 C   0  0  1  0  0  3  0  0  0  0  0  0
  193.4000  175.1360  144.1230 C   0  0  2  0  0  3  0  0  0  0  0  0
  188.8150  175.6510  145.5550 C   0  0  0  0  0  0  0  0  0  0  0  0
  192.5090  175.3790  146.4980 C   0  0  2  0  0  3  0  0  0  0  0  0
  191.2460  175.4780  147.3620 C   0  0  0  0  0  2  0  0  0  0  0  0
  189.4240  174.4140  140.1690 C   0  0  1  0  0  3  0  0  0  0  0  0
  187.9730  173.6770  138.3130 C   0  0  0  0  0  2  0  0  0  0  0  0
  192.6600  172.3940  145.4060 O   0  0  0  0  0  0  0  0  0  0  0  0
  188.0570  177.9160  143.5060 C   0  0  1  0  0  3  0  0  0  0  0  0
  188.0880  178.6550  142.3350 F   0  0  0  0  0  0  0  0  0  0  0  0
  185.7300  178.1380  142.9840 F   0  0  0  0  0  0  0  0  0  0  0  0
  186.6100  177.7400  143.9740 C   0  0  2  0  0  3  0  0  0  0  0  0
  184.4950  178.8650  145.1710 C   0  0  0  0  0  1  0  0  0  0  0  0
  186.2630  178.6610  145.5130 S   0  0  0  0  0  0  0  0  0  0  0  0
  194.3450  171.5900  143.1330 O   0  0  0  0  0  0  0  0  0  0  0  0
  194.0320  170.3550  143.7160 C   0  0  0  0  0  3  0  0  0  0  0  0
  193.9320  169.2330  143.0080 C   0  0  0  0  0  2  0  0  0  0  0  0
  194.2410  173.0870  139.1360 C   0  0  0  0  0  2  0  0  0  0  0  0
  194.8060  172.1980  138.2180 O   0  0  0  0  0  0  0  0  0  0  0  0
  196.1630  172.5330  138.1640 C   0  0  2  0  0  3  0  0  0  0  0  0
  197.2740  170.5210  141.7620 C   0  0  0  0  0  0  0  0  0  0  0  0
  197.0000  172.5300  140.4420 O   0  0  0  0  0  0  0  0  0  0  0  0
  197.3000  171.9210  141.6650 C   0  0  0  0  0  0  0  0  0  0  0  0
  197.9380  170.6750  144.0860 C   0  0  0  0  0  3  0  0  0  0  0  0
  197.6270  168.4120  143.0970 C   0  0  0  0  0  1  0  0  0  0  0  0
  196.3080  170.3880  139.5010 C   0  0  0  0  0  2  0  0  0  0  0  0
  197.6210  169.8950  142.9700 C   0  0  0  0  0  0  0  0  0  0  0  0
  196.9260  169.7720  140.6300 O   0  0  0  0  0  0  0  0  0  0  0  0
  196.9330  171.7650  139.2350 C   0  0  1  0  0  3  0  0  0  0  0  0
  197.6200  172.6960  142.7830 C   0  0  0  0  0  3  0  0  0  0  0  0
  197.9390  172.0710  143.9960 C   0  0  0  0  0  3  0  0  0  0  0  0
  196.3170  173.9100  138.3590 O   0  0  0  0  0  0  0  0  0  0  0  0
  197.0010  174.3660  137.2310 C   0  0  0  0  0  2  0  0  0  0  0  0
  196.2680  173.9480  135.9700 C   0  0  0  0  0  2  0  0  0  0  0  0
  196.2480  175.0140  135.0670 O   0  0  0  0  0  0  0  0  0  0  0  0
  196.2790  177.2840  135.2710 O   0  0  0  0  0  1  0  0  0  0  0  0
  195.7520  176.1010  135.7900 C   0  0  1  0  0  3  0  0  0  0  0  0
  193.7770  177.4430  135.7460 F   0  0  0  0  0  0  0  0  0  0  0  0
  193.7040  175.4480  136.8010 F   0  0  0  0  0  0  0  0  0  0  0  0
  194.2300  176.1330  135.7210 C   0  0  0  0  0  0  0  0  0  0  0  0
  193.8030  175.5200  134.5430 O   0  0  0  0  0  1  0  0  0  0  0  0
  1 12  1  6  0  0  0
  1 14  1  0  0  0  0
  1 30  1  0  0  0  0
  2  4  1  0  0  0  0
  2  7  1  1  0  0  0
  4 27  1  6  0  0  0
  4 34  1  0  0  0  0
  5  1  1  0  0  0  0
  7  5  1  0  0  0  0
  8 24  1  0  0  0  0
 10 31  1  0  0  0  0
 13 35  1  0  0  0  0
 13 27  2  0  0  0  0
 14 43  1  6  0  0  0
 14 23  1  0  0  0  0
 15 36  1  0  0  0  0
 16 27  1  0  0  0  0
 16  8  1  0  0  0  0
 17 15  1  1  0  0  0
 17 32  1  0  0  0  0
 18 33  1  0  0  0  0
 18  3  2  0  0  0  0
 19 18  1  0  0  0  0
 20 15  2  0  0  0  0
 21  8  2  0  0  0  0
 23 36  1  0  0  0  0
 23  6  1  6  0  0  0
 24 46  1  6  0  0  0
 24  2  1  0  0  0  0
 26 28  1  0  0  0  0
 28 29  1  0  0  0  0
 29 37  1  6  0  0  0
 29 10  1  0  0  0  0
 30 25  1  6  0  0  0
 30 17  1  0  0  0  0
 31 19  1  0  0  0  0
 31  9  2  0  0  0  0
 32 11  1  6  0  0  0
 32 33  1  0  0  0  0
 34 22  1  1  0  0  0
 34 26  1  0  0  0  0
 35 22  1  0  0  0  0
 37 38  1  6  0  0  0
 37 40  1  0  0  0  0
 40 39  1  6  0  0  0
 40 42  1  0  0  0  0
 41 42  1  0  0  0  0
 43 44  1  0  0  0  0
 45 44  2  0  0  0  0
 47 46  1  0  0  0  0
 48 47  1  1  0  0  0
 48 60  1  0  0  0  0
 49 55  1  0  0  0  0
 50 51  1  0  0  0  0
 51 49  2  0  0  0  0
 51 58  1  0  0  0  0
 54 56  1  0  0  0  0
 55 53  1  0  0  0  0
 55 52  2  0  0  0  0
 56 49  1  0  0  0  0
 57 48  1  6  0  0  0
 57 54  1  0  0  0  0
 57 50  1  0  0  0  0
 58 59  2  0  0  0  0
 59 52  1  0  0  0  0
 61 60  1  0  0  0  0
 62 61  1  0  0  0  0
 63 65  1  0  0  0  0
 63 62  1  0  0  0  0
 65 64  1  6  0  0  0
 68 66  1  0  0  0  0
 68 65  1  0  0  0  0
 68 67  1  0  0  0  0
 69 68  1  0  0  0  0
M  END
>  <MODEL>
6

>  <REMARK>
 VINA RESULT:      -5.7      3.230     10.167
  Name = 
  15 active torsions:
  status: ('A' for Active; 'I' for Inactive)
    1  A    between atoms: O_1  and  C_53
    2  A    between atoms: O_1  and  C_66
    3  A    between atoms: C_6  and  O_29
    4  A    between atoms: O_13  and  C_42
    5  A    between atoms: O_13  and  C_66
    6  A    between atoms: O_15  and  C_50
    7  A    between atoms: O_15  and  C_68
    8  A    between atoms: C_25  and  C_27
    9  A    between atoms: C_25  and  S_43
   10  A    between atoms: C_27  and  C_57
   11  A    between atoms: O_29  and  C_31
   12  A    between atoms: C_42  and  C_50
   13  A    between atoms: C_45  and  C_66
   14  A    between atoms: C_48  and  C_53
   15  A    between atoms: C_52  and  C_68
                            x       y       z     vdW  Elec       q    Type
                         _______ _______ _______ _____ _____    ______ ____

>  <TORSDO>
F 15

$$$$
=
 OpenBabel11062418413D

 69 74  0  0  1  0  0  0  0  0999 V2000
  195.3780  173.2190  140.6630 C   0  0  2  0  0  0  0  0  0  0  0  0
  191.6270  173.1260  141.4890 C   0  0  1  0  0  3  0  0  0  0  0  0
  196.8590  170.0230  134.9790 O   0  0  0  0  0  0  0  0  0  0  0  0
  190.6150  173.5980  140.4220 C   0  0  2  0  0  3  0  0  0  0  0  0
  193.8950  173.5880  140.4380 C   0  0  0  0  0  2  0  0  0  0  0  0
  197.8890  176.0900  139.6420 C   0  0  0  0  0  1  0  0  0  0  0  0
  192.9060  172.5160  140.8920 C   0  0  0  0  0  2  0  0  0  0  0  0
  190.8360  175.1520  142.8470 C   0  0  0  0  0  0  0  0  0  0  0  0
  194.1270  172.9230  134.5420 O   0  0  0  0  0  0  0  0  0  0  0  0
  192.5760  171.7950  135.8020 O   0  0  0  0  0  0  0  0  0  0  0  0
  197.5640  171.0320  137.7120 O   0  0  0  0  0  1  0  0  0  0  0  0
  195.5440  172.5750  142.0330 C   0  0  0  0  0  1  0  0  0  0  0  0
  188.1850  173.9480  140.7330 N   0  0  0  0  0  0  0  0  0  0  0  0
  196.2600  174.5000  140.7380 C   0  0  1  0  0  3  0  0  0  0  0  0
  195.3600  174.0400  137.8370 C   0  0  0  0  0  0  0  0  0  0  0  0
  189.5910  175.0050  142.2370 O   0  0  0  0  0  0  0  0  0  0  0  0
  195.7350  172.6000  138.0820 C   0  0  2  0  0  3  0  0  0  0  0  0
  196.1360  171.0020  135.2990 C   0  0  0  0  0  0  0  0  0  0  0  0
  194.7490  170.8390  135.3210 O   0  0  0  0  0  0  0  0  0  0  0  0
  194.3660  174.3030  137.1140 O   0  0  0  0  0  0  0  0  0  0  0  0
  191.0200  176.1120  143.6370 O   0  0  0  0  0  0  0  0  0  0  0  0
  188.9670  172.9210  138.6510 C   0  0  0  0  0  2  0  0  0  0  0  0
  197.0090  174.8660  139.4480 C   0  0  1  0  0  3  0  0  0  0  0  0
  191.9880  174.2510  142.4870 C   0  0  1  0  0  3  0  0  0  0  0  0
  195.3310  170.9460  139.7740 O   0  0  0  0  0  1  0  0  0  0  0  0
  191.3440  172.2780  138.3810 C   0  0  0  0  0  2  0  0  0  0  0  0
  189.4020  174.1720  141.1380 C   0  0  0  0  0  0  0  0  0  0  0  0
  191.0470  171.0490  137.5360 C   0  0  0  0  0  2  0  0  0  0  0  0
  192.2390  170.7030  136.6530 C   0  0  1  0  0  3  0  0  0  0  0  0
  195.8740  172.2170  139.5780 C   0  0  2  0  0  3  0  0  0  0  0  0
  193.8370  171.8950  135.2100 C   0  0  0  0  0  0  0  0  0  0  0  0
  197.0160  172.2510  137.3000 C   0  0  2  0  0  3  0  0  0  0  0  0
  196.7940  172.2590  135.7830 C   0  0  0  0  0  2  0  0  0  0  0  0
  190.2300  172.5070  139.3970 C   0  0  1  0  0  3  0  0  0  0  0  0
  187.8330  173.0360  139.6490 C   0  0  0  0  0  2  0  0  0  0  0  0
  196.0860  175.0910  138.3940 O   0  0  0  0  0  0  0  0  0  0  0  0
  192.0090  169.4160  135.8540 C   0  0  1  0  0  3  0  0  0  0  0  0
  193.1260  169.1610  135.0760 F   0  0  0  0  0  0  0  0  0  0  0  0
  190.3540  168.1770  137.0640 F   0  0  0  0  0  0  0  0  0  0  0  0
  191.6960  168.2000  136.7310 C   0  0  2  0  0  3  0  0  0  0  0  0
  191.2990  168.3530  139.3760 C   0  0  0  0  0  1  0  0  0  0  0  0
  192.7090  168.1660  138.2510 S   0  0  0  0  0  0  0  0  0  0  0  0
  195.5140  175.6210  141.2300 O   0  0  0  0  0  0  0  0  0  0  0  0
  195.7490  176.2220  142.4730 C   0  0  0  0  0  3  0  0  0  0  0  0
  196.5550  175.6860  143.3870 C   0  0  0  0  0  2  0  0  0  0  0  0
  192.6510  173.6780  143.7320 C   0  0  0  0  0  2  0  0  0  0  0  0
  193.6010  174.5870  144.2050 O   0  0  0  0  0  0  0  0  0  0  0  0
  193.5820  174.4530  145.5980 C   0  0  2  0  0  3  0  0  0  0  0  0
  195.6060  170.6950  145.5400 C   0  0  0  0  0  0  0  0  0  0  0  0
  193.6010  172.0370  145.3710 O   0  0  0  0  0  0  0  0  0  0  0  0
  194.2330  170.7930  145.2650 C   0  0  0  0  0  0  0  0  0  0  0  0
  195.5160  168.3130  145.1050 C   0  0  0  0  0  3  0  0  0  0  0  0
  197.6930  169.3030  145.7970 C   0  0  0  0  0  1  0  0  0  0  0  0
  195.7500  173.1480  145.6810 C   0  0  0  0  0  2  0  0  0  0  0  0
  196.2440  169.4440  145.4860 C   0  0  0  0  0  0  0  0  0  0  0  0
  196.3100  171.8530  145.8940 O   0  0  0  0  0  0  0  0  0  0  0  0
  194.2490  173.1420  146.0060 C   0  0  1  0  0  3  0  0  0  0  0  0
  193.5100  169.6590  144.8860 C   0  0  0  0  0  3  0  0  0  0  0  0
  194.1530  168.4180  144.8050 C   0  0  0  0  0  3  0  0  0  0  0  0
  192.2590  174.4790  146.0550 O   0  0  0  0  0  0  0  0  0  0  0  0
  192.3100  175.1300  147.2890 C   0  0  0  0  0  2  0  0  0  0  0  0
  191.5610  176.4480  147.2150 C   0  0  0  0  0  2  0  0  0  0  0  0
  190.3030  176.3020  147.8050 O   0  0  0  0  0  0  0  0  0  0  0  0
  188.9720  174.5490  147.2160 O   0  0  0  0  0  1  0  0  0  0  0  0
  189.4830  175.7780  146.8020 C   0  0  1  0  0  3  0  0  0  0  0  0
  187.1250  176.0890  146.5960 F   0  0  0  0  0  0  0  0  0  0  0  0
  188.4910  177.2340  145.2090 F   0  0  0  0  0  0  0  0  0  0  0  0
  188.3440  176.7420  146.4930 C   0  0  0  0  0  0  0  0  0  0  0  0
  188.3740  177.8060  147.3930 O   0  0  0  0  0  1  0  0  0  0  0  0
  1 14  1  0  0  0  0
  1 12  1  1  0  0  0
  2  7  1  6  0  0  0
  2 24  1  0  0  0  0
  3 18  2  0  0  0  0
  4 27  1  1  0  0  0
  4  2  1  0  0  0  0
  5  1  1  0  0  0  0
  5  7  1  0  0  0  0
  8 21  2  0  0  0  0
  9 31  2  0  0  0  0
 10 29  1  0  0  0  0
 13 27  2  0  0  0  0
 14 43  1  6  0  0  0
 15 36  1  0  0  0  0
 16  8  1  0  0  0  0
 17 15  1  1  0  0  0
 17 30  1  0  0  0  0
 18 19  1  0  0  0  0
 18 33  1  0  0  0  0
 20 15  2  0  0  0  0
 22 34  1  0  0  0  0
 22 35  1  0  0  0  0
 23  6  1  1  0  0  0
 23 14  1  0  0  0  0
 24  8  1  0  0  0  0
 24 46  1  1  0  0  0
 27 16  1  0  0  0  0
 28 26  1  0  0  0  0
 29 37  1  6  0  0  0
 29 28  1  0  0  0  0
 30 25  1  6  0  0  0
 30  1  1  0  0  0  0
 31 19  1  0  0  0  0
 31 10  1  0  0  0  0
 32 11  1  1  0  0  0
 32 17  1  0  0  0  0
 33 32  1  0  0  0  0
 34 26  1  6  0  0  0
 34  4  1  0  0  0  0
 35 13  1  0  0  0  0
 36 23  1  0  0  0  0
 37 38  1  1  0  0  0
 37 40  1  0  0  0  0
 40 39  1  1  0  0  0
 40 42  1  0  0  0  0
 42 41  1  0  0  0  0
 43 44  1  0  0  0  0
 44 45  2  0  0  0  0
 46 47  1  0  0  0  0
 48 47  1  6  0  0  0
 48 60  1  0  0  0  0
 49 56  1  0  0  0  0
 50 57  1  0  0  0  0
 51 50  1  0  0  0  0
 51 49  2  0  0  0  0
 52 55  2  0  0  0  0
 54 56  1  0  0  0  0
 54 57  1  0  0  0  0
 55 49  1  0  0  0  0
 55 53  1  0  0  0  0
 57 48  1  6  0  0  0
 58 51  1  0  0  0  0
 59 58  2  0  0  0  0
 59 52  1  0  0  0  0
 60 61  1  0  0  0  0
 62 61  1  0  0  0  0
 62 63  1  0  0  0  0
 65 64  1  1  0  0  0
 65 63  1  0  0  0  0
 67 68  1  0  0  0  0
 68 66  1  0  0  0  0
 68 65  1  0  0  0  0
 68 69  1  0  0  0  0
M  END
>  <MODEL>
7

>  <REMARK>
 VINA RESULT:      -5.7      3.310      7.263
  Name = 
  15 active torsions:
  status: ('A' for Active; 'I' for Inactive)
    1  A    between atoms: O_1  and  C_53
    2  A    between atoms: O_1  and  C_66
    3  A    between atoms: C_6  and  O_29
    4  A    between atoms: O_13  and  C_42
    5  A    between atoms: O_13  and  C_66
    6  A    between atoms: O_15  and  C_50
    7  A    between atoms: O_15  and  C_68
    8  A    between atoms: C_25  and  C_27
    9  A    between atoms: C_25  and  S_43
   10  A    between atoms: C_27  and  C_57
   11  A    between atoms: O_29  and  C_31
   12  A    between atoms: C_42  and  C_50
   13  A    between atoms: C_45  and  C_66
   14  A    between atoms: C_48  and  C_53
   15  A    between atoms: C_52  and  C_68
                            x       y       z     vdW  Elec       q    Type
                         _______ _______ _______ _____ _____    ______ ____

>  <TORSDO>
F 15

$$$$
=
 OpenBabel11062418413D

 69 74  0  0  1  0  0  0  0  0999 V2000
  190.8020  174.0990  142.8830 C   0  0  2  0  0  0  0  0  0  0  0  0
  187.8740  175.1200  140.6150 C   0  0  1  0  0  3  0  0  0  0  0  0
  194.3980  169.0580  140.3580 O   0  0  0  0  0  0  0  0  0  0  0  0
  188.1580  175.4580  139.1340 C   0  0  2  0  0  3  0  0  0  0  0  0
  190.1780  174.7070  141.6080 C   0  0  0  0  0  2  0  0  0  0  0  0
  194.1540  175.8650  143.9930 C   0  0  0  0  0  1  0  0  0  0  0  0
  188.8440  174.0810  141.2030 C   0  0  0  0  0  2  0  0  0  0  0  0
  187.2250  177.5900  140.8450 C   0  0  0  0  0  0  0  0  0  0  0  0
  194.1100  172.2240  137.9170 O   0  0  0  0  0  0  0  0  0  0  0  0
  191.8530  171.9230  137.6230 O   0  0  0  0  0  0  0  0  0  0  0  0
  193.3460  170.6710  142.6550 O   0  0  0  0  0  1  0  0  0  0  0  0
  189.7210  173.8880  143.9340 C   0  0  0  0  0  1  0  0  0  0  0  0
  186.5710  176.4290  137.5030 N   0  0  0  0  0  0  0  0  0  0  0  0
  191.7870  175.1040  143.5490 C   0  0  1  0  0  3  0  0  0  0  0  0
  193.0410  173.9900  140.9770 C   0  0  0  0  0  0  0  0  0  0  0  0
  186.8160  177.5490  139.5130 O   0  0  0  0  0  0  0  0  0  0  0  0
  192.5560  172.6500  141.4700 C   0  0  2  0  0  3  0  0  0  0  0  0
  194.1040  170.2260  139.9920 C   0  0  0  0  0  0  0  0  0  0  0  0
  193.1660  170.3970  138.9710 O   0  0  0  0  0  0  0  0  0  0  0  0
  193.0210  174.2360  139.7440 O   0  0  0  0  0  0  0  0  0  0  0  0
  187.1640  178.6780  141.4700 O   0  0  0  0  0  0  0  0  0  0  0  0
  188.0920  174.6610  136.7530 C   0  0  0  0  0  2  0  0  0  0  0  0
  193.2750  174.8740  143.2480 C   0  0  1  0  0  3  0  0  0  0  0  0
  187.8430  176.3850  141.5040 C   0  0  1  0  0  3  0  0  0  0  0  0
  190.5150  171.7350  142.3410 O   0  0  0  0  0  1  0  0  0  0  0  0
  189.5060  173.4430  138.3820 C   0  0  0  0  0  2  0  0  0  0  0  0
  187.1340  176.4840  138.6760 C   0  0  0  0  0  0  0  0  0  0  0  0
  189.4320  172.1150  137.6450 C   0  0  0  0  0  2  0  0  0  0  0  0
  190.6450  171.2530  137.9700 C   0  0  1  0  0  3  0  0  0  0  0  0
  191.4710  172.7250  142.5750 C   0  0  2  0  0  3  0  0  0  0  0  0
  193.0790  171.5450  138.1750 C   0  0  0  0  0  0  0  0  0  0  0  0
  193.7540  171.7960  141.9280 C   0  0  2  0  0  3  0  0  0  0  0  0
  194.6590  171.3860  140.7600 C   0  0  0  0  0  2  0  0  0  0  0  0
  188.2060  174.2210  138.2080 C   0  0  1  0  0  3  0  0  0  0  0  0
  186.7480  175.3320  136.5550 C   0  0  0  0  0  2  0  0  0  0  0  0
  193.5110  174.9680  141.8520 O   0  0  0  0  0  0  0  0  0  0  0  0
  190.5600  169.8690  137.3150 C   0  0  1  0  0  3  0  0  0  0  0  0
  189.2280  169.5070  137.1960 F   0  0  0  0  0  0  0  0  0  0  0  0
  190.3410  170.0910  134.9390 F   0  0  0  0  0  0  0  0  0  0  0  0
  191.2430  169.7980  135.9460 C   0  0  2  0  0  3  0  0  0  0  0  0
  193.5110  168.5220  136.5790 C   0  0  0  0  0  1  0  0  0  0  0  0
  192.0030  168.1660  135.6380 S   0  0  0  0  0  0  0  0  0  0  0  0
  191.4140  176.4610  143.2740 O   0  0  0  0  0  0  0  0  0  0  0  0
  191.2490  177.4350  144.2670 C   0  0  0  0  0  3  0  0  0  0  0  0
  191.5980  178.7070  144.0880 C   0  0  0  0  0  2  0  0  0  0  0  0
  187.1820  176.0880  142.8440 C   0  0  0  0  0  2  0  0  0  0  0  0
  187.3220  177.1990  143.6800 O   0  0  0  0  0  0  0  0  0  0  0  0
  186.1710  177.2120  144.4760 C   0  0  2  0  0  3  0  0  0  0  0  0
  182.5330  178.6520  142.7700 C   0  0  0  0  0  0  0  0  0  0  0  0
  184.6610  177.5140  142.6010 O   0  0  0  0  0  0  0  0  0  0  0  0
  183.4480  177.8980  142.0180 C   0  0  0  0  0  0  0  0  0  0  0  0
  181.0350  178.7180  140.8660 C   0  0  0  0  0  3  0  0  0  0  0  0
  180.3530  179.9080  142.9440 C   0  0  0  0  0  1  0  0  0  0  0  0
  183.9150  178.3200  144.7790 C   0  0  0  0  0  2  0  0  0  0  0  0
  181.3330  179.0870  142.1820 C   0  0  0  0  0  0  0  0  0  0  0  0
  182.8530  178.9800  144.0930 O   0  0  0  0  0  0  0  0  0  0  0  0
  185.1020  178.0910  143.8330 C   0  0  1  0  0  3  0  0  0  0  0  0
  183.1460  177.5350  140.7030 C   0  0  0  0  0  3  0  0  0  0  0  0
  181.9370  177.9450  140.1280 C   0  0  0  0  0  3  0  0  0  0  0  0
  186.4860  177.6960  145.7510 O   0  0  0  0  0  0  0  0  0  0  0  0
  187.8420  178.0230  145.6940 C   0  0  0  0  0  2  0  0  0  0  0  0
  188.5690  177.4460  146.8950 C   0  0  0  0  0  2  0  0  0  0  0  0
  189.5460  176.5470  146.4600 O   0  0  0  0  0  0  0  0  0  0  0  0
  189.2970  174.4550  147.3280 O   0  0  0  0  0  1  0  0  0  0  0  0
  189.8120  175.7300  147.5610 C   0  0  1  0  0  3  0  0  0  0  0  0
  191.8890  174.7090  146.9700 F   0  0  0  0  0  0  0  0  0  0  0  0
  191.5450  175.2900  149.1250 F   0  0  0  0  0  0  0  0  0  0  0  0
  191.3130  175.6500  147.8100 C   0  0  0  0  0  0  0  0  0  0  0  0
  191.8930  176.8950  147.5720 O   0  0  0  0  0  1  0  0  0  0  0  0
  1 14  1  0  0  0  0
  1 12  1  1  0  0  0
  2  7  1  1  0  0  0
  2 24  1  0  0  0  0
  4 27  1  6  0  0  0
  4  2  1  0  0  0  0
  5  1  1  0  0  0  0
  7  5  1  0  0  0  0
  8 21  2  0  0  0  0
  8 24  1  0  0  0  0
  9 31  2  0  0  0  0
 10 29  1  0  0  0  0
 10 31  1  0  0  0  0
 13 27  2  0  0  0  0
 14 43  1  6  0  0  0
 15 36  1  0  0  0  0
 16  8  1  0  0  0  0
 17 15  1  1  0  0  0
 17 32  1  0  0  0  0
 17 30  1  0  0  0  0
 18  3  2  0  0  0  0
 18 33  1  0  0  0  0
 19 18  1  0  0  0  0
 20 15  2  0  0  0  0
 23 14  1  0  0  0  0
 23  6  1  1  0  0  0
 24 46  1  1  0  0  0
 27 16  1  0  0  0  0
 28 29  1  0  0  0  0
 28 26  1  0  0  0  0
 29 37  1  6  0  0  0
 30 25  1  6  0  0  0
 30  1  1  0  0  0  0
 31 19  1  0  0  0  0
 32 11  1  6  0  0  0
 33 32  1  0  0  0  0
 34 22  1  6  0  0  0
 34 26  1  0  0  0  0
 34  4  1  0  0  0  0
 35 22  1  0  0  0  0
 35 13  1  0  0  0  0
 36 23  1  0  0  0  0
 37 38  1  6  0  0  0
 40 39  1  6  0  0  0
 40 37  1  0  0  0  0
 42 40  1  0  0  0  0
 42 41  1  0  0  0  0
 43 44  1  0  0  0  0
 45 44  2  0  0  0  0
 46 47  1  0  0  0  0
 48 47  1  6  0  0  0
 48 60  1  0  0  0  0
 49 56  1  0  0  0  0
 50 57  1  0  0  0  0
 51 50  1  0  0  0  0
 51 49  2  0  0  0  0
 52 55  2  0  0  0  0
 55 49  1  0  0  0  0
 55 53  1  0  0  0  0
 56 54  1  0  0  0  0
 57 48  1  1  0  0  0
 57 54  1  0  0  0  0
 58 51  1  0  0  0  0
 59 58  2  0  0  0  0
 59 52  1  0  0  0  0
 61 60  1  0  0  0  0
 61 62  1  0  0  0  0
 63 62  1  0  0  0  0
 63 65  1  0  0  0  0
 65 64  1  6  0  0  0
 65 68  1  0  0  0  0
 66 68  1  0  0  0  0
 68 67  1  0  0  0  0
 69 68  1  0  0  0  0
M  END
>  <MODEL>
8

>  <REMARK>
 VINA RESULT:      -5.2      3.675      6.741
  Name = 
  15 active torsions:
  status: ('A' for Active; 'I' for Inactive)
    1  A    between atoms: O_1  and  C_53
    2  A    between atoms: O_1  and  C_66
    3  A    between atoms: C_6  and  O_29
    4  A    between atoms: O_13  and  C_42
    5  A    between atoms: O_13  and  C_66
    6  A    between atoms: O_15  and  C_50
    7  A    between atoms: O_15  and  C_68
    8  A    between atoms: C_25  and  C_27
    9  A    between atoms: C_25  and  S_43
   10  A    between atoms: C_27  and  C_57
   11  A    between atoms: O_29  and  C_31
   12  A    between atoms: C_42  and  C_50
   13  A    between atoms: C_45  and  C_66
   14  A    between atoms: C_48  and  C_53
   15  A    between atoms: C_52  and  C_68
                            x       y       z     vdW  Elec       q    Type
                         _______ _______ _______ _____ _____    ______ ____

>  <TORSDO>
F 15

$$$$
=
 OpenBabel11062418413D

 69 74  0  0  1  0  0  0  0  0999 V2000
  191.6550  174.1110  142.5350 C   0  0  2  0  0  0  0  0  0  0  0  0
  188.3050  175.0860  140.9300 C   0  0  1  0  0  3  0  0  0  0  0  0
  194.9960  169.5340  138.9830 O   0  0  0  0  0  0  0  0  0  0  0  0
  188.2890  175.5500  139.4560 C   0  0  2  0  0  3  0  0  0  0  0  0
  190.7720  174.7650  141.4510 C   0  0  0  0  0  2  0  0  0  0  0  0
  195.0520  176.0230  143.1670 C   0  0  0  0  0  1  0  0  0  0  0  0
  189.4230  174.0780  141.2420 C   0  0  0  0  0  2  0  0  0  0  0  0
  187.5730  177.4800  141.4820 C   0  0  0  0  0  0  0  0  0  0  0  0
  194.0820  172.8420  136.9120 O   0  0  0  0  0  0  0  0  0  0  0  0
  191.8300  172.4050  137.0060 O   0  0  0  0  0  0  0  0  0  0  0  0
  194.3010  170.8970  141.5610 O   0  0  0  0  0  1  0  0  0  0  0  0
  190.8020  173.7480  143.7430 C   0  0  0  0  0  1  0  0  0  0  0  0
  186.3740  176.5240  138.2270 N   0  0  0  0  0  0  0  0  0  0  0  0
  192.6890  175.1320  143.0950 C   0  0  1  0  0  3  0  0  0  0  0  0
  193.5040  174.3000  140.2530 C   0  0  0  0  0  0  0  0  0  0  0  0
  186.9250  177.5080  140.2480 O   0  0  0  0  0  0  0  0  0  0  0  0
  193.1950  172.8960  140.7110 C   0  0  2  0  0  3  0  0  0  0  0  0
  194.5740  170.7020  138.7770 C   0  0  0  0  0  0  0  0  0  0  0  0
  193.4540  170.8810  137.9600 O   0  0  0  0  0  0  0  0  0  0  0  0
  193.2410  174.6330  139.0700 O   0  0  0  0  0  0  0  0  0  0  0  0
  187.5680  178.5130  142.1980 O   0  0  0  0  0  0  0  0  0  0  0  0
  187.8260  174.9270  137.0670 C   0  0  0  0  0  2  0  0  0  0  0  0
  194.1060  175.0300  142.5120 C   0  0  1  0  0  3  0  0  0  0  0  0
  188.3690  176.2770  141.9140 C   0  0  1  0  0  3  0  0  0  0  0  0
  191.4060  171.7790  141.8560 O   0  0  0  0  0  1  0  0  0  0  0  0
  189.5840  173.6960  138.3040 C   0  0  0  0  0  2  0  0  0  0  0  0
  187.1410  176.5320  139.2800 C   0  0  0  0  0  0  0  0  0  0  0  0
  189.4490  172.4240  137.4830 C   0  0  0  0  0  2  0  0  0  0  0  0
  190.7470  171.6270  137.5080 C   0  0  1  0  0  3  0  0  0  0  0  0
  192.3320  172.8140  141.9960 C   0  0  2  0  0  3  0  0  0  0  0  0
  193.1570  172.0750  137.2940 C   0  0  0  0  0  0  0  0  0  0  0  0
  194.5020  172.0970  140.8710 C   0  0  2  0  0  3  0  0  0  0  0  0
  195.1960  171.8390  139.5270 C   0  0  0  0  0  2  0  0  0  0  0  0
  188.2330  174.3910  138.4350 C   0  0  1  0  0  3  0  0  0  0  0  0
  186.4330  175.5140  137.1740 C   0  0  0  0  0  2  0  0  0  0  0  0
  194.0720  175.2410  141.1090 O   0  0  0  0  0  0  0  0  0  0  0  0
  190.6190  170.2930  136.7650 C   0  0  1  0  0  3  0  0  0  0  0  0
  189.3260  169.8170  136.9110 F   0  0  0  0  0  0  0  0  0  0  0  0
  189.8860  170.8250  134.5460 F   0  0  0  0  0  0  0  0  0  0  0  0
  190.9750  170.3860  135.2780 C   0  0  2  0  0  3  0  0  0  0  0  0
  192.9620  168.6540  135.7560 C   0  0  0  0  0  1  0  0  0  0  0  0
  191.5650  168.7910  134.6090 S   0  0  0  0  0  0  0  0  0  0  0  0
  192.1970  176.4750  143.0080 O   0  0  0  0  0  0  0  0  0  0  0  0
  191.8530  177.2480  144.1260 C   0  0  0  0  0  3  0  0  0  0  0  0
  192.5510  177.2190  145.2580 C   0  0  0  0  0  2  0  0  0  0  0  0
  187.9860  175.8380  143.3210 C   0  0  0  0  0  2  0  0  0  0  0  0
  186.6890  176.2730  143.6010 O   0  0  0  0  0  0  0  0  0  0  0  0
  186.7500  176.8180  144.8890 C   0  0  2  0  0  3  0  0  0  0  0  0
  190.1120  176.3310  147.4740 C   0  0  0  0  0  0  0  0  0  0  0  0
  188.3980  177.6900  146.4420 O   0  0  0  0  0  0  0  0  0  0  0  0
  189.4460  177.5610  147.3590 C   0  0  0  0  0  0  0  0  0  0  0  0
  191.5760  177.2860  149.1520 C   0  0  0  0  0  3  0  0  0  0  0  0
  191.9410  174.9170  148.4800 C   0  0  0  0  0  1  0  0  0  0  0  0
  188.4350  175.2910  146.0020 C   0  0  0  0  0  2  0  0  0  0  0  0
  191.1990  176.2010  148.3540 C   0  0  0  0  0  0  0  0  0  0  0  0
  189.6910  175.2570  146.6780 O   0  0  0  0  0  0  0  0  0  0  0  0
  188.1680  176.6950  145.4410 C   0  0  1  0  0  3  0  0  0  0  0  0
  189.8290  178.6430  148.1570 C   0  0  0  0  0  3  0  0  0  0  0  0
  190.8940  178.5040  149.0540 C   0  0  0  0  0  3  0  0  0  0  0  0
  185.8500  176.1470  145.7260 O   0  0  0  0  0  0  0  0  0  0  0  0
  185.9580  176.7830  146.9630 C   0  0  0  0  0  2  0  0  0  0  0  0
  184.9190  177.8840  147.0770 C   0  0  0  0  0  2  0  0  0  0  0  0
  184.0310  177.7990  146.0010 O   0  0  0  0  0  0  0  0  0  0  0  0
  185.2110  179.7350  145.7670 O   0  0  0  0  0  1  0  0  0  0  0  0
  184.0390  179.0660  145.4140 C   0  0  1  0  0  3  0  0  0  0  0  0
  182.7120  179.4160  143.4600 F   0  0  0  0  0  0  0  0  0  0  0  0
  184.0830  177.6230  143.5280 F   0  0  0  0  0  0  0  0  0  0  0  0
  183.9410  178.9480  143.8980 C   0  0  0  0  0  0  0  0  0  0  0  0
  184.9570  179.6950  143.3040 O   0  0  0  0  0  1  0  0  0  0  0  0
  1 14  1  0  0  0  0
  1 12  1  1  0  0  0
  2  7  1  6  0  0  0
  2 24  1  0  0  0  0
  4 27  1  1  0  0  0
  4  2  1  0  0  0  0
  5  1  1  0  0  0  0
  7  5  1  0  0  0  0
  8 24  1  0  0  0  0
  8 21  2  0  0  0  0
  9 31  2  0  0  0  0
 10 31  1  0  0  0  0
 10 29  1  0  0  0  0
 13 27  2  0  0  0  0
 14 43  1  6  0  0  0
 15 36  1  0  0  0  0
 16  8  1  0  0  0  0
 17 15  1  1  0  0  0
 17 32  1  0  0  0  0
 17 30  1  0  0  0  0
 18  3  2  0  0  0  0
 18 33  1  0  0  0  0
 19 18  1  0  0  0  0
 20 15  2  0  0  0  0
 22 35  1  0  0  0  0
 23 14  1  0  0  0  0
 23  6  1  1  0  0  0
 24 46  1  1  0  0  0
 26 34  1  0  0  0  0
 27 16  1  0  0  0  0
 28 29  1  0  0  0  0
 28 26  1  0  0  0  0
 29 37  1  6  0  0  0
 30 25  1  6  0  0  0
 30  1  1  0  0  0  0
 31 19  1  0  0  0  0
 32 11  1  6  0  0  0
 33 32  1  0  0  0  0
 34 22  1  6  0  0  0
 34  4  1  0  0  0  0
 35 13  1  0  0  0  0
 36 23  1  0  0  0  0
 37 38  1  6  0  0  0
 40 39  1  6  0  0  0
 40 37  1  0  0  0  0
 42 40  1  0  0  0  0
 42 41  1  0  0  0  0
 43 44  1  0  0  0  0
 44 45  2  0  0  0  0
 46 47  1  0  0  0  0
 48 47  1  6  0  0  0
 48 60  1  0  0  0  0
 49 55  1  0  0  0  0
 50 51  1  0  0  0  0
 51 49  2  0  0  0  0
 51 58  1  0  0  0  0
 54 56  1  0  0  0  0
 55 53  1  0  0  0  0
 55 52  2  0  0  0  0
 56 49  1  0  0  0  0
 57 48  1  1  0  0  0
 57 54  1  0  0  0  0
 57 50  1  0  0  0  0
 58 59  2  0  0  0  0
 59 52  1  0  0  0  0
 60 61  1  0  0  0  0
 61 62  1  0  0  0  0
 63 62  1  0  0  0  0
 65 64  1  6  0  0  0
 65 63  1  0  0  0  0
 66 68  1  0  0  0  0
 67 68  1  0  0  0  0
 68 65  1  0  0  0  0
 69 68  1  0  0  0  0
M  END
>  <MODEL>
9

>  <REMARK>
 VINA RESULT:      -5.2      3.142      5.925
  Name = 
  15 active torsions:
  status: ('A' for Active; 'I' for Inactive)
    1  A    between atoms: O_1  and  C_53
    2  A    between atoms: O_1  and  C_66
    3  A    between atoms: C_6  and  O_29
    4  A    between atoms: O_13  and  C_42
    5  A    between atoms: O_13  and  C_66
    6  A    between atoms: O_15  and  C_50
    7  A    between atoms: O_15  and  C_68
    8  A    between atoms: C_25  and  C_27
    9  A    between atoms: C_25  and  S_43
   10  A    between atoms: C_27  and  C_57
   11  A    between atoms: O_29  and  C_31
   12  A    between atoms: C_42  and  C_50
   13  A    between atoms: C_45  and  C_66
   14  A    between atoms: C_48  and  C_53
   15  A    between atoms: C_52  and  C_68
                            x       y       z     vdW  Elec       q    Type
                         _______ _______ _______ _____ _____    ______ ____

>  <TORSDO>
F 15

$$$$
