=
 OpenBabel11072408353D

 26 30  0  0  1  0  0  0  0  0999 V2000
  185.8690  178.8000  145.5370 C   0  0  2  0  0  3  0  0  0  0  0  0
  185.4960  180.5520  144.0050 O   0  0  0  0  0  0  0  0  0  0  0  0
  186.2890  176.6560  144.4100 O   0  0  0  0  0  0  0  0  0  0  0  0
  184.4940  178.6750  146.1200 C   0  0  0  0  0  2  0  0  0  0  0  0
  185.8150  179.3820  144.1490 C   0  0  0  0  0  0  0  0  0  0  0  0
  186.1530  178.5630  142.9420 C   0  0  2  0  0  3  0  0  0  0  0  0
  185.1080  178.1060  140.7610 N   0  0  0  0  0  2  0  0  0  0  0  0
  187.4480  177.0480  140.8640 C   0  0  0  0  0  2  0  0  0  0  0  0
  186.4550  177.3830  145.6220 C   0  0  2  0  0  0  0  0  0  0  0  0
  184.4280  177.2450  146.6010 C   0  0  0  0  0  2  0  0  0  0  0  0
  184.8770  178.1870  142.2000 C   0  0  0  0  0  2  0  0  0  0  0  0
  186.1350  177.1870  138.8940 O   0  0  0  0  0  0  0  0  0  0  0  0
  187.1560  176.3250  142.1750 C   0  0  2  0  0  3  0  0  0  0  0  0
  186.1960  177.4170  140.1290 C   0  0  0  0  0  0  0  0  0  0  0  0
  185.7260  176.7100  146.6260 O   0  0  0  0  0  0  0  0  0  0  0  0
  186.9450  177.3100  143.3480 C   0  0  2  0  0  3  0  0  0  0  0  0
  187.9540  177.4790  146.0080 C   0  0  2  0  0  3  0  0  0  0  0  0
  188.3380  176.3930  146.8190 O   0  0  0  0  0  0  0  0  0  0  0  0
  188.1740  177.6330  147.4650 C   0  0  0  0  0  2  0  0  0  0  0  0
  188.2560  175.2810  142.4180 C   0  0  1  0  0  3  0  0  0  0  0  0
  188.2080  173.4580  140.8900 O   0  0  0  0  0  0  0  0  0  0  0  0
  188.7270  174.5140  141.2130 C   0  0  0  0  0  3  0  0  0  0  0  0
  189.3490  175.6920  143.4080 C   0  0  0  0  0  2  0  0  0  0  0  0
  190.5360  176.3690  142.7460 C   0  0  0  0  0  3  0  0  0  0  0  0
  191.5640  176.7060  143.8050 C   0  0  0  0  0  2  0  0  0  0  0  0
  190.6510  177.7850  143.2710 C   0  0  0  0  0  2  0  0  0  0  0  0
  1  9  1  0  0  0  0
  1  4  1  6  0  0  0
  2  5  2  0  0  0  0
  4 10  1  0  0  0  0
  5  1  1  0  0  0  0
  6 11  1  1  0  0  0
  6 16  1  0  0  0  0
  6  5  1  0  0  0  0
  7 11  1  0  0  0  0
  8 13  1  0  0  0  0
  9  3  1  6  0  0  0
  9 17  1  0  0  0  0
  9 15  1  0  0  0  0
 10 15  1  0  0  0  0
 12 14  2  0  0  0  0
 13 20  1  1  0  0  0
 13 16  1  0  0  0  0
 14  7  1  0  0  0  0
 14  8  1  0  0  0  0
 16  3  1  1  0  0  0
 17 18  1  0  0  0  0
 17 19  1  1  0  0  0
 18 19  1  0  0  0  0
 20 22  1  6  0  0  0
 20 23  1  0  0  0  0
 21 22  2  0  0  0  0
 24 26  1  0  0  0  0
 24 23  1  0  0  0  0
 24 25  1  0  0  0  0
 26 25  1  0  0  0  0
M  END
>  <MODEL>
1

>  <REMARK>
 VINA RESULT:      -7.0      0.000      0.000
  Name = 
  5 active torsions:
  status: ('A' for Active; 'I' for Inactive)
    1  A    between atoms: C_2  and  C_9
    2  A    between atoms: C_9  and  C_23
    3  A    between atoms: C_13  and  C_14
    4  A    between atoms: C_19  and  C_23
    5  A    between atoms: C_23  and  C_26
                            x       y       z     vdW  Elec       q    Type
                         _______ _______ _______ _____ _____    ______ ____

>  <TORSDO>
F 5

$$$$
=
 OpenBabel11072408353D

 26 30  0  0  1  0  0  0  0  0999 V2000
  185.1490  177.8230  144.5210 C   0  0  2  0  0  3  0  0  0  0  0  0
  184.8570  176.5060  146.4530 O   0  0  0  0  0  0  0  0  0  0  0  0
  187.5180  178.0680  143.9130 O   0  0  0  0  0  0  0  0  0  0  0  0
  184.7400  179.1600  145.0600 C   0  0  0  0  0  2  0  0  0  0  0  0
  185.6470  176.9270  145.6230 C   0  0  0  0  0  0  0  0  0  0  0  0
  187.0880  176.5300  145.7190 C   0  0  2  0  0  3  0  0  0  0  0  0
  188.8070  176.5100  147.4810 N   0  0  0  0  0  2  0  0  0  0  0  0
  189.7020  175.3800  145.3530 C   0  0  0  0  0  2  0  0  0  0  0  0
  186.1810  178.1440  143.4310 C   0  0  2  0  0  0  0  0  0  0  0  0
  185.4650  180.1480  144.1780 C   0  0  0  0  0  2  0  0  0  0  0  0
  187.7630  177.3060  146.8440 C   0  0  0  0  0  2  0  0  0  0  0  0
  190.8200  175.3550  147.4450 O   0  0  0  0  0  0  0  0  0  0  0  0
  189.3310  176.5630  144.4660 C   0  0  2  0  0  3  0  0  0  0  0  0
  189.8260  175.7680  146.7950 C   0  0  0  0  0  0  0  0  0  0  0  0
  185.9460  179.4800  143.0390 O   0  0  0  0  0  0  0  0  0  0  0  0
  187.8020  176.7680  144.3790 C   0  0  2  0  0  3  0  0  0  0  0  0
  185.9700  177.1810  142.2350 C   0  0  2  0  0  3  0  0  0  0  0  0
  186.9000  177.4380  141.2080 O   0  0  0  0  0  0  0  0  0  0  0  0
  185.5800  177.8760  140.9850 C   0  0  0  0  0  2  0  0  0  0  0  0
  190.0240  176.3960  143.1060 C   0  0  1  0  0  3  0  0  0  0  0  0
  191.3800  178.3090  143.5120 O   0  0  0  0  0  0  0  0  0  0  0  0
  191.1770  177.3210  142.8250 C   0  0  0  0  0  3  0  0  0  0  0  0
  190.2040  174.9530  142.6300 C   0  0  0  0  0  2  0  0  0  0  0  0
  189.2950  174.5840  141.4710 C   0  0  0  0  0  3  0  0  0  0  0  0
  188.0120  173.9960  142.0190 C   0  0  0  0  0  2  0  0  0  0  0  0
  189.0830  173.0840  141.4690 C   0  0  0  0  0  2  0  0  0  0  0  0
  1  4  1  1  0  0  0
  1  5  1  0  0  0  0
  5  6  1  0  0  0  0
  5  2  2  0  0  0  0
  6 11  1  1  0  0  0
  8 14  1  0  0  0  0
  9 15  1  6  0  0  0
  9  3  1  0  0  0  0
  9  1  1  0  0  0  0
 10  4  1  0  0  0  0
 11  7  1  0  0  0  0
 13 20  1  6  0  0  0
 13  8  1  0  0  0  0
 14 12  2  0  0  0  0
 14  7  1  0  0  0  0
 15 10  1  0  0  0  0
 16  3  1  1  0  0  0
 16 13  1  0  0  0  0
 16  6  1  0  0  0  0
 17 19  1  6  0  0  0
 17  9  1  0  0  0  0
 18 17  1  0  0  0  0
 19 18  1  0  0  0  0
 20 23  1  1  0  0  0
 22 20  1  0  0  0  0
 22 21  2  0  0  0  0
 24 25  1  0  0  0  0
 24 23  1  0  0  0  0
 26 24  1  0  0  0  0
 26 25  1  0  0  0  0
M  END
>  <MODEL>
2

>  <REMARK>
 VINA RESULT:      -6.9      2.309      4.830
  Name = 
  5 active torsions:
  status: ('A' for Active; 'I' for Inactive)
    1  A    between atoms: C_2  and  C_9
    2  A    between atoms: C_9  and  C_23
    3  A    between atoms: C_13  and  C_14
    4  A    between atoms: C_19  and  C_23
    5  A    between atoms: C_23  and  C_26
                            x       y       z     vdW  Elec       q    Type
                         _______ _______ _______ _____ _____    ______ ____

>  <TORSDO>
F 5

$$$$
=
 OpenBabel11072408353D

 26 30  0  0  1  0  0  0  0  0999 V2000
  189.8620  175.4770  143.3750 C   0  0  2  0  0  3  0  0  0  0  0  0
  189.0070  174.4260  141.4470 O   0  0  0  0  0  0  0  0  0  0  0  0
  188.6110  177.5130  143.9530 O   0  0  0  0  0  0  0  0  0  0  0  0
  191.1760  175.9610  142.8400 C   0  0  0  0  0  2  0  0  0  0  0  0
  188.8550  175.3170  142.2670 C   0  0  0  0  0  0  0  0  0  0  0  0
  187.6650  176.2190  142.1530 C   0  0  2  0  0  3  0  0  0  0  0  0
  186.6170  177.5540  140.3700 N   0  0  0  0  0  2  0  0  0  0  0  0
  185.1590  177.5980  142.4870 C   0  0  0  0  0  2  0  0  0  0  0  0
  189.4810  176.5040  144.4520 C   0  0  2  0  0  0  0  0  0  0  0  0
  191.5130  177.1460  143.7130 C   0  0  0  0  0  2  0  0  0  0  0  0
  187.8790  177.2150  141.0200 C   0  0  0  0  0  2  0  0  0  0  0  0
  184.4750  178.4490  140.3810 O   0  0  0  0  0  0  0  0  0  0  0  0
  186.3180  178.0320  143.3780 C   0  0  2  0  0  3  0  0  0  0  0  0
  185.4030  177.9180  141.0430 C   0  0  0  0  0  0  0  0  0  0  0  0
  190.6820  177.1330  144.8450 O   0  0  0  0  0  0  0  0  0  0  0  0
  187.4100  176.9440  143.4850 C   0  0  2  0  0  3  0  0  0  0  0  0
  188.8360  175.7620  145.6510 C   0  0  2  0  0  3  0  0  0  0  0  0
  189.4760  176.1010  146.8590 O   0  0  0  0  0  0  0  0  0  0  0  0
  189.7660  174.8280  146.3290 C   0  0  0  0  0  2  0  0  0  0  0  0
  185.7550  178.4940  144.7300 C   0  0  1  0  0  3  0  0  0  0  0  0
  185.2950  180.7580  144.1570 O   0  0  0  0  0  0  0  0  0  0  0  0
  184.9120  179.7400  144.7120 C   0  0  0  0  0  3  0  0  0  0  0  0
  185.2640  177.3790  145.6570 C   0  0  0  0  0  2  0  0  0  0  0  0
  185.2350  177.7830  147.1200 C   0  0  0  0  0  3  0  0  0  0  0  0
  186.6200  178.2350  147.5340 C   0  0  0  0  0  2  0  0  0  0  0  0
  186.1360  176.8530  147.9060 C   0  0  0  0  0  2  0  0  0  0  0  0
  1  4  1  6  0  0  0
  1  9  1  0  0  0  0
  2  5  2  0  0  0  0
  4 10  1  0  0  0  0
  5  1  1  0  0  0  0
  6 11  1  6  0  0  0
  6  5  1  0  0  0  0
  6 16  1  0  0  0  0
  7 11  1  0  0  0  0
  7 14  1  0  0  0  0
  8 13  1  0  0  0  0
  9  3  1  6  0  0  0
  9 15  1  0  0  0  0
  9 17  1  0  0  0  0
 10 15  1  0  0  0  0
 12 14  2  0  0  0  0
 13 16  1  0  0  0  0
 13 20  1  1  0  0  0
 14  8  1  0  0  0  0
 16  3  1  6  0  0  0
 17 19  1  6  0  0  0
 17 18  1  0  0  0  0
 19 18  1  0  0  0  0
 20 22  1  6  0  0  0
 20 23  1  0  0  0  0
 21 22  2  0  0  0  0
 23 24  1  0  0  0  0
 24 25  1  0  0  0  0
 24 26  1  0  0  0  0
 25 26  1  0  0  0  0
M  END
>  <MODEL>
3

>  <REMARK>
 VINA RESULT:      -6.8      1.535      5.005
  Name = 
  5 active torsions:
  status: ('A' for Active; 'I' for Inactive)
    1  A    between atoms: C_2  and  C_9
    2  A    between atoms: C_9  and  C_23
    3  A    between atoms: C_13  and  C_14
    4  A    between atoms: C_19  and  C_23
    5  A    between atoms: C_23  and  C_26
                            x       y       z     vdW  Elec       q    Type
                         _______ _______ _______ _____ _____    ______ ____

>  <TORSDO>
F 5

$$$$
=
 OpenBabel11072408353D

 26 30  0  0  1  0  0  0  0  0999 V2000
  190.1390  175.1360  141.8550 C   0  0  2  0  0  3  0  0  0  0  0  0
  192.3390  175.7090  142.4740 O   0  0  0  0  0  0  0  0  0  0  0  0
  188.5890  175.2160  143.7610 O   0  0  0  0  0  0  0  0  0  0  0  0
  190.3280  173.6790  141.5620 C   0  0  0  0  0  2  0  0  0  0  0  0
  191.1750  175.6290  142.8310 C   0  0  0  0  0  0  0  0  0  0  0  0
  190.8080  176.0330  144.2260 C   0  0  2  0  0  3  0  0  0  0  0  0
  191.6330  175.5320  146.4900 N   0  0  0  0  0  2  0  0  0  0  0  0
  189.8210  177.3530  146.5870 C   0  0  0  0  0  2  0  0  0  0  0  0
  188.6870  175.2480  142.3420 C   0  0  2  0  0  0  0  0  0  0  0  0
  188.9600  173.0800  141.7830 C   0  0  0  0  0  2  0  0  0  0  0  0
  191.2470  174.9530  145.2070 C   0  0  0  0  0  2  0  0  0  0  0  0
  191.1720  176.7190  148.4310 O   0  0  0  0  0  0  0  0  0  0  0  0
  188.8250  176.5240  145.7840 C   0  0  2  0  0  3  0  0  0  0  0  0
  190.8800  176.5060  147.2260 C   0  0  0  0  0  0  0  0  0  0  0  0
  188.0110  174.1140  141.8420 O   0  0  0  0  0  0  0  0  0  0  0  0
  189.2970  176.2930  144.3300 C   0  0  2  0  0  3  0  0  0  0  0  0
  188.0620  176.5480  141.7740 C   0  0  2  0  0  3  0  0  0  0  0  0
  186.6560  176.4690  141.7590 O   0  0  0  0  0  0  0  0  0  0  0  0
  187.3070  176.3340  140.5180 C   0  0  0  0  0  2  0  0  0  0  0  0
  187.4370  177.1710  145.9010 C   0  0  1  0  0  3  0  0  0  0  0  0
  186.1060  176.8650  147.8500 O   0  0  0  0  0  0  0  0  0  0  0  0
  186.9760  177.5140  147.2910 C   0  0  0  0  0  3  0  0  0  0  0  0
  187.0940  178.1970  144.8180 C   0  0  0  0  0  2  0  0  0  0  0  0
  185.8920  179.0570  145.1660 C   0  0  0  0  0  3  0  0  0  0  0  0
  184.6770  178.5250  144.4340 C   0  0  0  0  0  2  0  0  0  0  0  0
  185.3990  179.7440  143.9090 C   0  0  0  0  0  2  0  0  0  0  0  0
  1  4  1  1  0  0  0
  1  9  1  0  0  0  0
  1  5  1  0  0  0  0
  2  5  2  0  0  0  0
  4 10  1  0  0  0  0
  5  6  1  0  0  0  0
  6 16  1  0  0  0  0
  6 11  1  1  0  0  0
  7 14  1  0  0  0  0
  8 14  1  0  0  0  0
  9 15  1  6  0  0  0
  9  3  1  0  0  0  0
 10 15  1  0  0  0  0
 11  7  1  0  0  0  0
 13 20  1  6  0  0  0
 13  8  1  0  0  0  0
 14 12  2  0  0  0  0
 16  3  1  1  0  0  0
 16 13  1  0  0  0  0
 17 19  1  6  0  0  0
 17  9  1  0  0  0  0
 18 17  1  0  0  0  0
 19 18  1  0  0  0  0
 20 23  1  6  0  0  0
 20 22  1  0  0  0  0
 22 21  2  0  0  0  0
 23 24  1  0  0  0  0
 25 24  1  0  0  0  0
 26 25  1  0  0  0  0
 26 24  1  0  0  0  0
M  END
>  <MODEL>
4

>  <REMARK>
 VINA RESULT:      -6.6      2.589      6.646
  Name = 
  5 active torsions:
  status: ('A' for Active; 'I' for Inactive)
    1  A    between atoms: C_2  and  C_9
    2  A    between atoms: C_9  and  C_23
    3  A    between atoms: C_13  and  C_14
    4  A    between atoms: C_19  and  C_23
    5  A    between atoms: C_23  and  C_26
                            x       y       z     vdW  Elec       q    Type
                         _______ _______ _______ _____ _____    ______ ____

>  <TORSDO>
F 5

$$$$
=
 OpenBabel11072408353D

 26 30  0  0  1  0  0  0  0  0999 V2000
  186.0730  178.5840  145.5800 C   0  0  2  0  0  3  0  0  0  0  0  0
  185.4270  180.3800  144.1970 O   0  0  0  0  0  0  0  0  0  0  0  0
  186.5980  176.5600  144.2880 O   0  0  0  0  0  0  0  0  0  0  0  0
  184.7630  178.2950  146.2500 C   0  0  0  0  0  2  0  0  0  0  0  0
  185.8610  179.2390  144.2410 C   0  0  0  0  0  0  0  0  0  0  0  0
  186.1790  178.5290  142.9620 C   0  0  2  0  0  3  0  0  0  0  0  0
  185.0160  178.1040  140.8350 N   0  0  0  0  0  2  0  0  0  0  0  0
  187.4430  177.2690  140.7030 C   0  0  0  0  0  2  0  0  0  0  0  0
  186.7900  177.2270  145.5310 C   0  0  2  0  0  0  0  0  0  0  0  0
  184.8640  176.8390  146.6390 C   0  0  0  0  0  2  0  0  0  0  0  0
  184.8880  178.0780  142.2880 C   0  0  0  0  0  2  0  0  0  0  0  0
  185.9770  177.3990  138.8430 O   0  0  0  0  0  0  0  0  0  0  0  0
  187.3190  176.4460  141.9810 C   0  0  2  0  0  3  0  0  0  0  0  0
  186.1100  177.5600  140.0830 C   0  0  0  0  0  0  0  0  0  0  0  0
  186.2040  176.4290  146.5370 O   0  0  0  0  0  0  0  0  0  0  0  0
  187.1100  177.3350  143.2270 C   0  0  2  0  0  3  0  0  0  0  0  0
  188.2980  177.4420  145.8150 C   0  0  2  0  0  3  0  0  0  0  0  0
  188.8370  176.3570  146.5340 O   0  0  0  0  0  0  0  0  0  0  0  0
  188.6120  177.5430  147.2600 C   0  0  0  0  0  2  0  0  0  0  0  0
  188.5240  175.4990  142.0760 C   0  0  1  0  0  3  0  0  0  0  0  0
  190.4060  176.7710  142.7860 O   0  0  0  0  0  0  0  0  0  0  0  0
  189.6050  175.8890  143.0480 C   0  0  0  0  0  3  0  0  0  0  0  0
  188.1950  174.0050  142.0190 C   0  0  0  0  0  2  0  0  0  0  0  0
  189.0660  173.2360  141.0420 C   0  0  0  0  0  3  0  0  0  0  0  0
  188.9980  173.9080  139.6860 C   0  0  0  0  0  2  0  0  0  0  0  0
  188.1890  172.6590  139.9490 C   0  0  0  0  0  2  0  0  0  0  0  0
  1  4  1  6  0  0  0
  2  5  2  0  0  0  0
  4 10  1  0  0  0  0
  5  1  1  0  0  0  0
  6 11  1  1  0  0  0
  6 16  1  0  0  0  0
  6  5  1  0  0  0  0
  7 11  1  0  0  0  0
  8 13  1  0  0  0  0
  9  3  1  6  0  0  0
  9  1  1  0  0  0  0
  9 17  1  0  0  0  0
  9 15  1  0  0  0  0
 12 14  2  0  0  0  0
 13 20  1  1  0  0  0
 13 16  1  0  0  0  0
 14  8  1  0  0  0  0
 14  7  1  0  0  0  0
 15 10  1  0  0  0  0
 16  3  1  1  0  0  0
 17 18  1  0  0  0  0
 17 19  1  1  0  0  0
 18 19  1  0  0  0  0
 20 23  1  1  0  0  0
 20 22  1  0  0  0  0
 21 22  2  0  0  0  0
 24 23  1  0  0  0  0
 25 26  1  0  0  0  0
 25 24  1  0  0  0  0
 26 24  1  0  0  0  0
M  END
>  <MODEL>
5

>  <REMARK>
 VINA RESULT:      -6.6      1.152      2.182
  Name = 
  5 active torsions:
  status: ('A' for Active; 'I' for Inactive)
    1  A    between atoms: C_2  and  C_9
    2  A    between atoms: C_9  and  C_23
    3  A    between atoms: C_13  and  C_14
    4  A    between atoms: C_19  and  C_23
    5  A    between atoms: C_23  and  C_26
                            x       y       z     vdW  Elec       q    Type
                         _______ _______ _______ _____ _____    ______ ____

>  <TORSDO>
F 5

$$$$
=
 OpenBabel11072408353D

 26 30  0  0  1  0  0  0  0  0999 V2000
  191.7300  176.2540  146.2100 C   0  0  2  0  0  3  0  0  0  0  0  0
  190.8140  177.1980  148.1650 O   0  0  0  0  0  0  0  0  0  0  0  0
  190.0150  175.7880  144.5120 O   0  0  0  0  0  0  0  0  0  0  0  0
  192.1350  174.9120  146.7400 C   0  0  0  0  0  2  0  0  0  0  0  0
  190.6020  176.8360  147.0180 C   0  0  0  0  0  0  0  0  0  0  0  0
  189.2270  176.9910  146.4460 C   0  0  2  0  0  3  0  0  0  0  0  0
  186.9390  176.4160  147.1510 N   0  0  0  0  0  2  0  0  0  0  0  0
  186.8810  177.7950  144.9820 C   0  0  0  0  0  2  0  0  0  0  0  0
  191.4050  176.0030  144.7300 C   0  0  2  0  0  0  0  0  0  0  0  0
  192.1270  174.0190  145.5230 C   0  0  0  0  0  2  0  0  0  0  0  0
  188.3060  175.9210  147.0200 C   0  0  0  0  0  2  0  0  0  0  0  0
  184.9620  177.2490  146.2650 O   0  0  0  0  0  0  0  0  0  0  0  0
  187.8660  176.8740  144.2700 C   0  0  2  0  0  3  0  0  0  0  0  0
  186.2070  177.1200  146.1380 C   0  0  0  0  0  0  0  0  0  0  0  0
  192.0810  174.8180  144.3680 O   0  0  0  0  0  0  0  0  0  0  0  0
  189.2710  176.9160  144.9120 C   0  0  2  0  0  3  0  0  0  0  0  0
  191.9160  177.2010  143.8900 C   0  0  2  0  0  3  0  0  0  0  0  0
  191.4420  177.1290  142.5650 O   0  0  0  0  0  0  0  0  0  0  0  0
  192.7950  176.7950  142.7670 C   0  0  0  0  0  2  0  0  0  0  0  0
  187.8480  177.1990  142.7690 C   0  0  1  0  0  3  0  0  0  0  0  0
  187.7560  174.9090  142.1290 O   0  0  0  0  0  0  0  0  0  0  0  0
  188.0870  176.0460  141.8330 C   0  0  0  0  0  3  0  0  0  0  0  0
  186.7800  178.2010  142.3240 C   0  0  0  0  0  2  0  0  0  0  0  0
  185.5860  177.5470  141.6510 C   0  0  0  0  0  3  0  0  0  0  0  0
  184.7910  178.6070  140.9190 C   0  0  0  0  0  2  0  0  0  0  0  0
  184.3140  178.1000  142.2600 C   0  0  0  0  0  2  0  0  0  0  0  0
  1  4  1  1  0  0  0
  1  5  1  0  0  0  0
  3  9  1  0  0  0  0
  5  2  2  0  0  0  0
  6  5  1  0  0  0  0
  6 11  1  1  0  0  0
  8 14  1  0  0  0  0
  9 15  1  6  0  0  0
  9  1  1  0  0  0  0
 10  4  1  0  0  0  0
 11  7  1  0  0  0  0
 13 20  1  6  0  0  0
 13 16  1  0  0  0  0
 13  8  1  0  0  0  0
 14 12  2  0  0  0  0
 14  7  1  0  0  0  0
 15 10  1  0  0  0  0
 16  3  1  1  0  0  0
 16  6  1  0  0  0  0
 17 19  1  6  0  0  0
 17  9  1  0  0  0  0
 18 19  1  0  0  0  0
 18 17  1  0  0  0  0
 20 22  1  6  0  0  0
 22 21  2  0  0  0  0
 23 20  1  0  0  0  0
 24 26  1  0  0  0  0
 24 23  1  0  0  0  0
 25 24  1  0  0  0  0
 25 26  1  0  0  0  0
M  END
>  <MODEL>
6

>  <REMARK>
 VINA RESULT:      -6.4      2.601      5.713
  Name = 
  5 active torsions:
  status: ('A' for Active; 'I' for Inactive)
    1  A    between atoms: C_2  and  C_9
    2  A    between atoms: C_9  and  C_23
    3  A    between atoms: C_13  and  C_14
    4  A    between atoms: C_19  and  C_23
    5  A    between atoms: C_23  and  C_26
                            x       y       z     vdW  Elec       q    Type
                         _______ _______ _______ _____ _____    ______ ____

>  <TORSDO>
F 5

$$$$
=
 OpenBabel11072408353D

 26 30  0  0  1  0  0  0  0  0999 V2000
  192.6020  174.3980  145.7310 C   0  0  2  0  0  3  0  0  0  0  0  0
  192.3770  172.3320  144.6200 O   0  0  0  0  0  0  0  0  0  0  0  0
  191.3030  176.1810  144.6460 O   0  0  0  0  0  0  0  0  0  0  0  0
  194.0340  174.7040  145.4120 C   0  0  0  0  0  2  0  0  0  0  0  0
  192.0000  173.4910  144.6910 C   0  0  0  0  0  0  0  0  0  0  0  0
  190.9420  173.9740  143.7480 C   0  0  2  0  0  3  0  0  0  0  0  0
  190.5700  173.9040  141.3160 N   0  0  0  0  0  2  0  0  0  0  0  0
  188.5110  174.8860  142.5020 C   0  0  0  0  0  2  0  0  0  0  0  0
  191.9310  175.7740  145.8570 C   0  0  2  0  0  0  0  0  0  0  0  0
  194.1130  176.2100  145.4910 C   0  0  0  0  0  2  0  0  0  0  0  0
  191.5430  174.1900  142.3650 C   0  0  0  0  0  2  0  0  0  0  0  0
  188.5700  174.2990  140.2040 O   0  0  0  0  0  0  0  0  0  0  0  0
  189.3360  175.9200  143.2610 C   0  0  2  0  0  3  0  0  0  0  0  0
  189.2170  174.3820  141.2800 C   0  0  0  0  0  0  0  0  0  0  0  0
  192.9620  176.6970  146.1330 O   0  0  0  0  0  0  0  0  0  0  0  0
  190.2970  175.2650  144.2780 C   0  0  2  0  0  3  0  0  0  0  0  0
  190.9090  175.7330  147.0220 C   0  0  2  0  0  3  0  0  0  0  0  0
  190.2680  176.9780  147.1760 O   0  0  0  0  0  0  0  0  0  0  0  0
  191.2510  176.6540  148.1310 C   0  0  0  0  0  2  0  0  0  0  0  0
  188.3840  176.9590  143.8710 C   0  0  1  0  0  3  0  0  0  0  0  0
  188.3470  178.3300  141.9260 O   0  0  0  0  0  0  0  0  0  0  0  0
  187.7490  177.9280  142.9110 C   0  0  0  0  0  3  0  0  0  0  0  0
  187.4740  176.4440  144.9880 C   0  0  0  0  0  2  0  0  0  0  0  0
  186.7190  177.5480  145.7060 C   0  0  0  0  0  3  0  0  0  0  0  0
  186.5390  177.1590  147.1580 C   0  0  0  0  0  2  0  0  0  0  0  0
  185.3900  177.0040  146.1880 C   0  0  0  0  0  2  0  0  0  0  0  0
  1  4  1  6  0  0  0
  1  9  1  0  0  0  0
  2  5  2  0  0  0  0
  4 10  1  0  0  0  0
  5  1  1  0  0  0  0
  6 11  1  6  0  0  0
  6 16  1  0  0  0  0
  6  5  1  0  0  0  0
  7 11  1  0  0  0  0
  8 13  1  0  0  0  0
  9  3  1  6  0  0  0
  9 15  1  0  0  0  0
  9 17  1  0  0  0  0
 10 15  1  0  0  0  0
 12 14  2  0  0  0  0
 13 20  1  1  0  0  0
 13 16  1  0  0  0  0
 14  7  1  0  0  0  0
 14  8  1  0  0  0  0
 16  3  1  6  0  0  0
 17 18  1  0  0  0  0
 17 19  1  1  0  0  0
 18 19  1  0  0  0  0
 20 22  1  6  0  0  0
 20 23  1  0  0  0  0
 21 22  2  0  0  0  0
 23 24  1  0  0  0  0
 24 26  1  0  0  0  0
 24 25  1  0  0  0  0
 26 25  1  0  0  0  0
M  END
>  <MODEL>
7

>  <REMARK>
 VINA RESULT:      -6.2      2.969      6.091
  Name = 
  5 active torsions:
  status: ('A' for Active; 'I' for Inactive)
    1  A    between atoms: C_2  and  C_9
    2  A    between atoms: C_9  and  C_23
    3  A    between atoms: C_13  and  C_14
    4  A    between atoms: C_19  and  C_23
    5  A    between atoms: C_23  and  C_26
                            x       y       z     vdW  Elec       q    Type
                         _______ _______ _______ _____ _____    ______ ____

>  <TORSDO>
F 5

$$$$
=
 OpenBabel11072408353D

 26 30  0  0  1  0  0  0  0  0999 V2000
  189.9030  173.4490  141.6000 C   0  0  2  0  0  3  0  0  0  0  0  0
  188.0960  173.2990  140.0960 O   0  0  0  0  0  0  0  0  0  0  0  0
  189.6750  175.3530  143.1370 O   0  0  0  0  0  0  0  0  0  0  0  0
  190.9940  173.8380  140.6490 C   0  0  0  0  0  2  0  0  0  0  0  0
  188.5560  173.8650  141.0740 C   0  0  0  0  0  0  0  0  0  0  0  0
  187.7600  174.9520  141.7300 C   0  0  2  0  0  3  0  0  0  0  0  0
  186.5900  176.9860  140.9860 N   0  0  0  0  0  2  0  0  0  0  0  0
  186.1420  176.5650  143.4820 C   0  0  0  0  0  2  0  0  0  0  0  0
  190.3050  174.0930  142.9350 C   0  0  2  0  0  0  0  0  0  0  0  0
  191.9920  174.5690  141.5160 C   0  0  0  0  0  2  0  0  0  0  0  0
  187.8280  176.2200  140.8870 C   0  0  0  0  0  2  0  0  0  0  0  0
  185.0130  178.1970  142.1840 O   0  0  0  0  0  0  0  0  0  0  0  0
  187.6260  176.4460  143.8150 C   0  0  2  0  0  3  0  0  0  0  0  0
  185.9050  177.3110  142.2050 C   0  0  0  0  0  0  0  0  0  0  0  0
  191.6970  174.3180  142.8660 O   0  0  0  0  0  0  0  0  0  0  0  0
  188.2740  175.2080  143.1560 C   0  0  2  0  0  3  0  0  0  0  0  0
  189.9670  173.1150  144.0900 C   0  0  2  0  0  3  0  0  0  0  0  0
  190.6580  173.4640  145.2670 O   0  0  0  0  0  0  0  0  0  0  0  0
  191.1400  172.3430  144.5640 C   0  0  0  0  0  2  0  0  0  0  0  0
  187.7950  176.5100  145.3400 C   0  0  1  0  0  3  0  0  0  0  0  0
  189.7180  177.8940  145.1130 O   0  0  0  0  0  0  0  0  0  0  0  0
  189.0340  177.1990  145.8470 C   0  0  0  0  0  3  0  0  0  0  0  0
  186.5160  176.7830  146.1360 C   0  0  0  0  0  2  0  0  0  0  0  0
  186.4970  178.1520  146.7900 C   0  0  0  0  0  3  0  0  0  0  0  0
  185.1360  178.3800  147.4160 C   0  0  0  0  0  2  0  0  0  0  0  0
  185.4710  179.0190  146.0890 C   0  0  0  0  0  2  0  0  0  0  0  0
  1  4  1  6  0  0  0
  1  9  1  0  0  0  0
  2  5  2  0  0  0  0
  4 10  1  0  0  0  0
  5  1  1  0  0  0  0
  5  6  1  0  0  0  0
  6 11  1  6  0  0  0
  6 16  1  0  0  0  0
  7 14  1  0  0  0  0
  8 13  1  0  0  0  0
  9 15  1  6  0  0  0
  9  3  1  0  0  0  0
  9 17  1  0  0  0  0
 10 15  1  0  0  0  0
 11  7  1  0  0  0  0
 12 14  2  0  0  0  0
 13 20  1  1  0  0  0
 14  8  1  0  0  0  0
 16  3  1  6  0  0  0
 16 13  1  0  0  0  0
 17 19  1  6  0  0  0
 17 18  1  0  0  0  0
 19 18  1  0  0  0  0
 20 22  1  6  0  0  0
 20 23  1  0  0  0  0
 21 22  2  0  0  0  0
 23 24  1  0  0  0  0
 24 25  1  0  0  0  0
 26 24  1  0  0  0  0
 26 25  1  0  0  0  0
M  END
>  <MODEL>
8

>  <REMARK>
 VINA RESULT:      -6.2      2.163      5.734
  Name = 
  5 active torsions:
  status: ('A' for Active; 'I' for Inactive)
    1  A    between atoms: C_2  and  C_9
    2  A    between atoms: C_9  and  C_23
    3  A    between atoms: C_13  and  C_14
    4  A    between atoms: C_19  and  C_23
    5  A    between atoms: C_23  and  C_26
                            x       y       z     vdW  Elec       q    Type
                         _______ _______ _______ _____ _____    ______ ____

>  <TORSDO>
F 5

$$$$
=
 OpenBabel11072408353D

 26 30  0  0  1  0  0  0  0  0999 V2000
  186.4050  176.8980  142.1210 C   0  0  2  0  0  3  0  0  0  0  0  0
  184.2520  177.5420  142.8300 O   0  0  0  0  0  0  0  0  0  0  0  0
  188.1220  177.3820  143.8120 O   0  0  0  0  0  0  0  0  0  0  0  0
  186.6270  177.9050  141.0340 C   0  0  0  0  0  2  0  0  0  0  0  0
  185.4250  177.4130  143.1410 C   0  0  0  0  0  0  0  0  0  0  0  0
  185.8540  177.7610  144.5330 C   0  0  2  0  0  3  0  0  0  0  0  0
  185.5660  179.6800  146.0480 N   0  0  0  0  0  2  0  0  0  0  0  0
  186.7300  177.7450  147.2760 C   0  0  0  0  0  2  0  0  0  0  0  0
  187.8100  176.5990  142.6650 C   0  0  2  0  0  0  0  0  0  0  0  0
  188.1300  178.0270  140.9490 C   0  0  0  0  0  2  0  0  0  0  0  0
  185.9150  179.2760  144.6900 C   0  0  0  0  0  2  0  0  0  0  0  0
  185.9260  179.7060  148.3410 O   0  0  0  0  0  0  0  0  0  0  0  0
  187.8010  177.5950  146.2010 C   0  0  2  0  0  3  0  0  0  0  0  0
  186.0880  179.0990  147.2520 C   0  0  0  0  0  0  0  0  0  0  0  0
  188.7170  176.9570  141.6450 O   0  0  0  0  0  0  0  0  0  0  0  0
  187.2120  177.1180  144.8550 C   0  0  2  0  0  3  0  0  0  0  0  0
  187.9170  175.0860  142.9840 C   0  0  2  0  0  3  0  0  0  0  0  0
  189.2630  174.6930  143.1260 O   0  0  0  0  0  0  0  0  0  0  0  0
  188.6200  174.3150  141.9310 C   0  0  0  0  0  2  0  0  0  0  0  0
  188.9280  176.7060  146.7480 C   0  0  1  0  0  3  0  0  0  0  0  0
  188.9440  174.4990  147.6390 O   0  0  0  0  0  0  0  0  0  0  0  0
  188.6960  175.2200  146.6870 C   0  0  0  0  0  3  0  0  0  0  0  0
  190.3500  177.1660  146.4190 C   0  0  0  0  0  2  0  0  0  0  0  0
  191.1520  176.1340  145.6470 C   0  0  0  0  0  3  0  0  0  0  0  0
  192.4330  175.8400  146.4000 C   0  0  0  0  0  2  0  0  0  0  0  0
  192.4580  176.7580  145.2000 C   0  0  0  0  0  2  0  0  0  0  0  0
  1  4  1  6  0  0  0
  1  9  1  0  0  0  0
  1  5  1  0  0  0  0
  2  5  2  0  0  0  0
  5  6  1  0  0  0  0
  6 11  1  6  0  0  0
  6 16  1  0  0  0  0
  7 14  1  0  0  0  0
  9 15  1  6  0  0  0
  9 17  1  0  0  0  0
  9  3  1  0  0  0  0
 10  4  1  0  0  0  0
 10 15  1  0  0  0  0
 11  7  1  0  0  0  0
 13 20  1  1  0  0  0
 13  8  1  0  0  0  0
 14  8  1  0  0  0  0
 14 12  2  0  0  0  0
 16  3  1  6  0  0  0
 16 13  1  0  0  0  0
 17 19  1  6  0  0  0
 17 18  1  0  0  0  0
 19 18  1  0  0  0  0
 20 23  1  6  0  0  0
 22 20  1  0  0  0  0
 22 21  2  0  0  0  0
 24 25  1  0  0  0  0
 24 23  1  0  0  0  0
 26 24  1  0  0  0  0
 26 25  1  0  0  0  0
M  END
>  <MODEL>
9

>  <REMARK>
 VINA RESULT:      -6.2      2.240      4.898
  Name = 
  5 active torsions:
  status: ('A' for Active; 'I' for Inactive)
    1  A    between atoms: C_2  and  C_9
    2  A    between atoms: C_9  and  C_23
    3  A    between atoms: C_13  and  C_14
    4  A    between atoms: C_19  and  C_23
    5  A    between atoms: C_23  and  C_26
                            x       y       z     vdW  Elec       q    Type
                         _______ _______ _______ _____ _____    ______ ____

>  <TORSDO>
F 5

$$$$
