=
 OpenBabel11072408553D

 45 49  0  0  1  0  0  0  0  0999 V2000
  194.6740  174.7350  144.1570 C   0  0  1  0  0  3  0  0  0  0  0  0
  195.6920  176.9080  144.2990 N   0  0  0  0  0  2  0  0  0  0  0  0
  196.7220  176.1430  143.0870 S   0  0  0  0  0  0  0  0  0  0  0  0
  195.1470  175.8250  145.0940 C   0  0  1  0  0  3  0  0  0  0  0  0
  195.6030  174.7140  142.9530 C   0  0  2  0  0  3  0  0  0  0  0  0
  194.7190  173.3930  144.8620 C   0  0  0  0  0  1  0  0  0  0  0  0
  195.5800  175.3310  140.6370 O   0  0  0  0  0  1  0  0  0  0  0  0
  194.7990  174.7800  141.6560 C   0  0  1  0  0  3  0  0  0  0  0  0
  194.3540  173.3860  141.2340 C   0  0  0  0  0  2  0  0  0  0  0  0
  192.8910  173.3820  140.8200 C   0  0  2  0  0  3  0  0  0  0  0  0
  192.7140  173.3460  139.3210 C   0  0  0  0  0  0  0  0  0  0  0  0
  191.5370  173.4150  138.8800 O   0  0  0  0  0  0  0  0  0  0  0  0
  193.7550  173.1790  138.3880 O   0  0  0  0  0  0  0  0  0  0  0  0
  195.8000  174.1370  137.4120 C   0  0  0  0  0  1  0  0  0  0  0  0
  194.2810  174.1480  137.4760 C   0  0  2  0  0  3  0  0  0  0  0  0
  193.7620  175.4760  137.7630 N   0  0  0  0  0  2  0  0  0  0  0  0
  193.2860  176.0030  136.5560 N   0  0  0  0  0  2  0  0  0  0  0  0
  191.0700  175.1720  135.5870 N   0  0  0  0  0  0  0  0  0  0  0  0
  192.0720  175.5480  136.0260 C   0  0  0  0  0  0  0  0  0  0  0  0
  192.1170  174.4870  141.5170 C   0  0  0  0  0  2  0  0  0  0  0  0
  190.9670  173.9330  142.2080 N   0  0  0  0  0  2  0  0  0  0  0  0
  188.6580  174.4590  142.6900 C   0  0  0  0  0  2  0  0  0  0  0  0
  189.8010  174.6460  141.7140 C   0  0  0  0  0  3  0  0  0  0  0  0
  188.7010  173.6490  141.4120 C   0  0  0  0  0  2  0  0  0  0  0  0
  193.7570  176.4400  146.0900 S   0  0  0  0  0  0  0  0  0  0  0  0
  192.5310  175.9610  144.8380 C   0  0  1  0  0  3  0  0  0  0  0  0
  191.2840  175.4420  145.5290 C   0  0  0  0  0  2  0  0  0  0  0  0
  190.2450  176.4130  145.2600 N   0  0  0  0  0  0  0  0  0  0  0  0
  192.1150  177.1860  144.0310 C   0  0  0  0  0  3  0  0  0  0  0  0
  190.6750  177.4960  144.4010 C   0  0  0  0  0  3  0  0  0  0  0  0
  188.6080  175.3200  146.5170 O   0  0  0  0  0  0  0  0  0  0  0  0
  188.9160  176.2950  145.7800 C   0  0  0  0  0  0  0  0  0  0  0  0
  187.8670  177.2970  145.4300 C   0  0  0  0  0  2  0  0  0  0  0  0
  185.7270  177.9420  148.0090 O   0  0  0  0  0  0  0  0  0  0  0  0
  185.9380  178.2900  146.6450 C   0  0  2  0  0  0  0  0  0  0  0  0
  185.3080  177.4300  145.5320 C   0  0  2  0  0  3  0  0  0  0  0  0
  186.5750  176.9720  146.1730 C   0  0  1  0  0  3  0  0  0  0  0  0
  184.6440  178.5050  147.3790 C   0  0  0  0  0  2  0  0  0  0  0  0
  185.5270  177.2650  143.0140 N   0  0  0  0  0  2  0  0  0  0  0  0
  185.4800  179.3390  144.0860 O   0  0  0  0  0  0  0  0  0  0  0  0
  185.4590  178.0810  144.1840 C   0  0  0  0  0  0  0  0  0  0  0  0
  185.6910  177.8350  141.6860 C   0  0  0  0  0  2  0  0  0  0  0  0
  187.0290  177.4700  141.1470 C   0  0  0  0  0  0  0  0  0  0  0  0
  188.1780  177.8320  141.8400 O   0  0  0  0  0  1  0  0  0  0  0  0
  187.1240  176.8590  140.0510 O   0  0  0  0  0  0  0  0  0  0  0  0
  1  6  1  1  0  0  0
  1  4  1  0  0  0  0
  2  4  1  0  0  0  0
  3  2  1  0  0  0  0
  4 25  1  6  0  0  0
  5  8  1  6  0  0  0
  5  3  1  0  0  0  0
  5  1  1  0  0  0  0
  8  7  1  6  0  0  0
  9  8  1  0  0  0  0
 10  9  1  6  0  0  0
 10 20  1  0  0  0  0
 11 10  1  0  0  0  0
 12 11  2  0  0  0  0
 13 11  1  0  0  0  0
 15 14  1  1  0  0  0
 15 16  1  0  0  0  0
 15 13  1  0  0  0  0
 17 16  1  0  0  0  0
 18 19  3  0  0  0  0
 19 17  1  0  0  0  0
 20 21  1  0  0  0  0
 23 21  1  0  0  0  0
 23 22  1  0  0  0  0
 24 23  1  0  0  0  0
 24 22  1  0  0  0  0
 26 27  1  0  0  0  0
 26 25  1  1  0  0  0
 28 27  1  0  0  0  0
 28 32  1  0  0  0  0
 29 30  2  0  0  0  0
 29 26  1  0  0  0  0
 30 28  1  0  0  0  0
 32 31  2  0  0  0  0
 33 32  1  0  0  0  0
 35 38  1  6  0  0  0
 35 34  1  0  0  0  0
 36 41  1  6  0  0  0
 36 37  1  0  0  0  0
 36 35  1  0  0  0  0
 37 33  1  6  0  0  0
 37 35  1  0  0  0  0
 38 34  1  0  0  0  0
 39 41  1  0  0  0  0
 40 41  2  0  0  0  0
 42 39  1  0  0  0  0
 43 42  1  0  0  0  0
 43 44  1  0  0  0  0
 45 43  2  0  0  0  0
M  END
>  <MODEL>
1

>  <REMARK>
 VINA RESULT:      -5.7      0.000      0.000
  Name = 
  19 active torsions:
  status: ('A' for Active; 'I' for Inactive)
    1  A    between atoms: N_1  and  C_12
    2  A    between atoms: C_3  and  S_30
    3  A    between atoms: N_4  and  C_10
    4  A    between atoms: N_4  and  C_42
    5  A    between atoms: N_6  and  N_16
    6  A    between atoms: N_6  and  C_45
    7  A    between atoms: C_7  and  C_21
    8  A    between atoms: C_7  and  C_33
    9  A    between atoms: C_12  and  C_40
   10  A    between atoms: C_14  and  C_35
   11  A    between atoms: N_16  and  C_27
   12  A    between atoms: C_17  and  C_37
   13  A    between atoms: C_17  and  C_38
   14  A    between atoms: C_18  and  O_23
   15  A    between atoms: C_18  and  C_38
   16  A    between atoms: O_23  and  C_45
   17  A    between atoms: S_30  and  C_32
   18  A    between atoms: C_37  and  C_39
   19  A    between atoms: C_38  and  C_42
                            x       y       z     vdW  Elec       q    Type
                         _______ _______ _______ _____ _____    ______ ____

>  <TORSDO>
F 19

$$$$
=
 OpenBabel11072408553D

 45 49  0  0  1  0  0  0  0  0999 V2000
  194.0580  174.1330  144.1480 C   0  0  1  0  0  3  0  0  0  0  0  0
  194.9530  175.9250  142.8190 N   0  0  0  0  0  2  0  0  0  0  0  0
  195.7200  174.5340  142.0510 S   0  0  0  0  0  0  0  0  0  0  0  0
  194.6700  175.5170  144.1820 C   0  0  1  0  0  3  0  0  0  0  0  0
  194.6850  173.3690  142.9920 C   0  0  2  0  0  3  0  0  0  0  0  0
  194.3420  173.4120  145.4520 C   0  0  0  0  0  1  0  0  0  0  0  0
  194.1520  172.3870  140.8720 O   0  0  0  0  0  1  0  0  0  0  0  0
  193.6020  172.7680  142.0980 C   0  0  1  0  0  3  0  0  0  0  0  0
  192.9860  171.5430  142.7610 C   0  0  0  0  0  2  0  0  0  0  0  0
  191.5950  171.2670  142.2100 C   0  0  2  0  0  3  0  0  0  0  0  0
  190.5130  171.9740  142.9900 C   0  0  0  0  0  0  0  0  0  0  0  0
  190.7200  172.1600  144.2180 O   0  0  0  0  0  0  0  0  0  0  0  0
  189.2730  172.3830  142.4650 O   0  0  0  0  0  0  0  0  0  0  0  0
  188.4020  174.6360  141.9970 C   0  0  0  0  0  1  0  0  0  0  0  0
  189.0270  173.3620  141.4510 C   0  0  2  0  0  3  0  0  0  0  0  0
  188.2460  172.8020  140.3590 N   0  0  0  0  0  2  0  0  0  0  0  0
  188.2590  173.7400  139.3190 N   0  0  0  0  0  2  0  0  0  0  0  0
  190.2460  173.8330  137.7100 N   0  0  0  0  0  0  0  0  0  0  0  0
  189.3470  173.7910  138.4380 C   0  0  0  0  0  0  0  0  0  0  0  0
  191.3620  169.7780  142.0220 C   0  0  0  0  0  2  0  0  0  0  0  0
  191.6290  169.4010  140.6460 N   0  0  0  0  0  2  0  0  0  0  0  0
  190.3170  169.3270  138.6170 C   0  0  0  0  0  2  0  0  0  0  0  0
  190.7080  170.1620  139.8190 C   0  0  0  0  0  3  0  0  0  0  0  0
  191.3500  170.4240  138.4720 C   0  0  0  0  0  2  0  0  0  0  0  0
  193.5120  176.6940  144.9420 S   0  0  0  0  0  0  0  0  0  0  0  0
  192.1430  176.1830  143.8620 C   0  0  1  0  0  3  0  0  0  0  0  0
  190.9980  175.6690  144.7130 C   0  0  0  0  0  2  0  0  0  0  0  0
  189.9240  176.6270  144.5580 N   0  0  0  0  0  0  0  0  0  0  0  0
  191.6180  177.3900  143.0910 C   0  0  0  0  0  3  0  0  0  0  0  0
  190.2340  177.6970  143.6330 C   0  0  0  0  0  3  0  0  0  0  0  0
  188.4670  175.5470  146.0300 O   0  0  0  0  0  0  0  0  0  0  0  0
  188.6710  176.5110  145.2430 C   0  0  0  0  0  0  0  0  0  0  0  0
  187.5780  177.4980  145.0090 C   0  0  0  0  0  2  0  0  0  0  0  0
  185.7080  178.0110  147.8190 O   0  0  0  0  0  0  0  0  0  0  0  0
  185.7850  178.4290  146.4600 C   0  0  2  0  0  0  0  0  0  0  0  0
  185.0420  177.6270  145.3720 C   0  0  2  0  0  3  0  0  0  0  0  0
  186.3650  177.1360  145.8600 C   0  0  1  0  0  3  0  0  0  0  0  0
  184.5720  178.6060  147.3280 C   0  0  0  0  0  2  0  0  0  0  0  0
  184.9700  177.5920  142.8400 N   0  0  0  0  0  2  0  0  0  0  0  0
  185.1140  179.6060  144.0150 O   0  0  0  0  0  0  0  0  0  0  0  0
  185.0620  178.3460  144.0510 C   0  0  0  0  0  0  0  0  0  0  0  0
  185.0010  178.2300  141.5330 C   0  0  0  0  0  2  0  0  0  0  0  0
  186.2580  177.8600  140.8280 C   0  0  0  0  0  0  0  0  0  0  0  0
  187.4850  178.0510  141.4520 O   0  0  0  0  0  1  0  0  0  0  0  0
  186.2150  177.4020  139.6560 O   0  0  0  0  0  0  0  0  0  0  0  0
  1  4  1  0  0  0  0
  1  6  1  1  0  0  0
  2  4  1  0  0  0  0
  3  2  1  0  0  0  0
  3  5  1  0  0  0  0
  4 25  1  6  0  0  0
  5  8  1  6  0  0  0
  5  1  1  0  0  0  0
  8  7  1  6  0  0  0
  8  9  1  0  0  0  0
 10 20  1  1  0  0  0
 10  9  1  0  0  0  0
 10 11  1  0  0  0  0
 11 12  2  0  0  0  0
 13 11  1  0  0  0  0
 15 14  1  1  0  0  0
 15 13  1  0  0  0  0
 16 15  1  0  0  0  0
 17 16  1  0  0  0  0
 18 19  3  0  0  0  0
 19 17  1  0  0  0  0
 21 20  1  0  0  0  0
 22 23  1  0  0  0  0
 23 21  1  0  0  0  0
 24 22  1  0  0  0  0
 24 23  1  0  0  0  0
 26 27  1  0  0  0  0
 26 25  1  1  0  0  0
 28 27  1  0  0  0  0
 28 32  1  0  0  0  0
 29 30  2  0  0  0  0
 29 26  1  0  0  0  0
 30 28  1  0  0  0  0
 32 31  2  0  0  0  0
 33 32  1  0  0  0  0
 35 38  1  6  0  0  0
 35 34  1  0  0  0  0
 36 41  1  6  0  0  0
 36 37  1  0  0  0  0
 36 35  1  0  0  0  0
 37 33  1  6  0  0  0
 37 35  1  0  0  0  0
 38 34  1  0  0  0  0
 39 41  1  0  0  0  0
 40 41  2  0  0  0  0
 42 39  1  0  0  0  0
 43 44  1  0  0  0  0
 43 42  1  0  0  0  0
 45 43  2  0  0  0  0
M  END
>  <MODEL>
2

>  <REMARK>
 VINA RESULT:      -5.7      2.255      3.380
  Name = 
  19 active torsions:
  status: ('A' for Active; 'I' for Inactive)
    1  A    between atoms: N_1  and  C_12
    2  A    between atoms: C_3  and  S_30
    3  A    between atoms: N_4  and  C_10
    4  A    between atoms: N_4  and  C_42
    5  A    between atoms: N_6  and  N_16
    6  A    between atoms: N_6  and  C_45
    7  A    between atoms: C_7  and  C_21
    8  A    between atoms: C_7  and  C_33
    9  A    between atoms: C_12  and  C_40
   10  A    between atoms: C_14  and  C_35
   11  A    between atoms: N_16  and  C_27
   12  A    between atoms: C_17  and  C_37
   13  A    between atoms: C_17  and  C_38
   14  A    between atoms: C_18  and  O_23
   15  A    between atoms: C_18  and  C_38
   16  A    between atoms: O_23  and  C_45
   17  A    between atoms: S_30  and  C_32
   18  A    between atoms: C_37  and  C_39
   19  A    between atoms: C_38  and  C_42
                            x       y       z     vdW  Elec       q    Type
                         _______ _______ _______ _____ _____    ______ ____

>  <TORSDO>
F 19

$$$$
=
 OpenBabel11072408553D

 45 49  0  0  1  0  0  0  0  0999 V2000
  194.7600  174.7290  144.2130 C   0  0  1  0  0  3  0  0  0  0  0  0
  195.6730  176.9370  144.4760 N   0  0  0  0  0  2  0  0  0  0  0  0
  196.7360  176.2910  143.2250 S   0  0  0  0  0  0  0  0  0  0  0  0
  195.1820  175.7860  145.2100 C   0  0  1  0  0  3  0  0  0  0  0  0
  195.6870  174.8190  143.0100 C   0  0  2  0  0  3  0  0  0  0  0  0
  194.8710  173.3530  144.8420 C   0  0  0  0  0  1  0  0  0  0  0  0
  195.6100  175.6090  140.7480 O   0  0  0  0  0  1  0  0  0  0  0  0
  194.8780  174.9190  141.7180 C   0  0  1  0  0  3  0  0  0  0  0  0
  194.5490  173.5290  141.1880 C   0  0  0  0  0  2  0  0  0  0  0  0
  193.0890  173.4350  140.7740 C   0  0  2  0  0  3  0  0  0  0  0  0
  192.9140  173.3970  139.2750 C   0  0  0  0  0  0  0  0  0  0  0  0
  193.8810  172.9600  138.5960 O   0  0  0  0  0  0  0  0  0  0  0  0
  191.7850  173.8680  138.5800 O   0  0  0  0  0  0  0  0  0  0  0  0
  189.4020  173.8010  137.9700 C   0  0  0  0  0  1  0  0  0  0  0  0
  190.7500  173.0980  137.9600 C   0  0  2  0  0  3  0  0  0  0  0  0
  190.6680  171.7660  138.5380 N   0  0  0  0  0  2  0  0  0  0  0  0
  190.8730  170.8510  137.4980 N   0  0  0  0  0  2  0  0  0  0  0  0
  190.2880  168.3840  137.8350 N   0  0  0  0  0  0  0  0  0  0  0  0
  190.5530  169.5000  137.6820 C   0  0  0  0  0  0  0  0  0  0  0  0
  192.2470  174.4850  141.4770 C   0  0  0  0  0  2  0  0  0  0  0  0
  191.1760  173.8500  142.2230 N   0  0  0  0  0  2  0  0  0  0  0  0
  188.8470  174.2480  142.7340 C   0  0  0  0  0  2  0  0  0  0  0  0
  189.9300  174.3610  141.6790 C   0  0  0  0  0  3  0  0  0  0  0  0
  188.9180  173.2350  141.6110 C   0  0  0  0  0  2  0  0  0  0  0  0
  193.7660  176.2770  146.2370 S   0  0  0  0  0  0  0  0  0  0  0  0
  192.5640  175.8490  144.9430 C   0  0  1  0  0  3  0  0  0  0  0  0
  191.2930  175.3330  145.5900 C   0  0  0  0  0  2  0  0  0  0  0  0
  190.2760  176.3280  145.3200 N   0  0  0  0  0  0  0  0  0  0  0  0
  192.1880  177.1020  144.1580 C   0  0  0  0  0  3  0  0  0  0  0  0
  190.7440  177.4250  144.5010 C   0  0  0  0  0  3  0  0  0  0  0  0
  188.5910  175.2300  146.5090 O   0  0  0  0  0  0  0  0  0  0  0  0
  188.9330  176.2190  145.8050 C   0  0  0  0  0  0  0  0  0  0  0  0
  187.9090  177.2460  145.4550 C   0  0  0  0  0  2  0  0  0  0  0  0
  185.7060  177.9480  147.9660 O   0  0  0  0  0  0  0  0  0  0  0  0
  185.9490  178.2640  146.5990 C   0  0  2  0  0  0  0  0  0  0  0  0
  185.3470  177.3750  145.4930 C   0  0  2  0  0  3  0  0  0  0  0  0
  186.6000  176.9350  146.1750 C   0  0  1  0  0  3  0  0  0  0  0  0
  184.6380  178.4930  147.2960 C   0  0  0  0  0  2  0  0  0  0  0  0
  185.6250  177.1500  142.9850 N   0  0  0  0  0  2  0  0  0  0  0  0
  185.5520  179.2490  144.0050 O   0  0  0  0  0  0  0  0  0  0  0  0
  185.5290  177.9940  144.1330 C   0  0  0  0  0  0  0  0  0  0  0  0
  185.8190  177.6890  141.6480 C   0  0  0  0  0  2  0  0  0  0  0  0
  187.1920  177.3650  141.1740 C   0  0  0  0  0  0  0  0  0  0  0  0
  187.3850  176.3380  140.2580 O   0  0  0  0  0  0  0  0  0  0  0  0
  188.1820  177.9980  141.6240 O   0  0  0  0  0  1  0  0  0  0  0  0
  1  6  1  1  0  0  0
  1  4  1  0  0  0  0
  2  4  1  0  0  0  0
  3  2  1  0  0  0  0
  4 25  1  6  0  0  0
  5  8  1  6  0  0  0
  5  3  1  0  0  0  0
  5  1  1  0  0  0  0
  8  7  1  6  0  0  0
  9  8  1  0  0  0  0
 10  9  1  6  0  0  0
 10 20  1  0  0  0  0
 11 10  1  0  0  0  0
 12 11  2  0  0  0  0
 13 11  1  0  0  0  0
 15 14  1  1  0  0  0
 15 16  1  0  0  0  0
 15 13  1  0  0  0  0
 17 19  1  0  0  0  0
 17 16  1  0  0  0  0
 19 18  3  0  0  0  0
 20 21  1  0  0  0  0
 23 21  1  0  0  0  0
 23 22  1  0  0  0  0
 24 23  1  0  0  0  0
 24 22  1  0  0  0  0
 26 27  1  0  0  0  0
 26 25  1  1  0  0  0
 28 27  1  0  0  0  0
 28 32  1  0  0  0  0
 29 30  2  0  0  0  0
 29 26  1  0  0  0  0
 30 28  1  0  0  0  0
 32 31  2  0  0  0  0
 33 32  1  0  0  0  0
 35 38  1  6  0  0  0
 35 34  1  0  0  0  0
 36 41  1  6  0  0  0
 36 37  1  0  0  0  0
 36 35  1  0  0  0  0
 37 33  1  6  0  0  0
 37 35  1  0  0  0  0
 38 34  1  0  0  0  0
 39 41  1  0  0  0  0
 40 41  2  0  0  0  0
 42 39  1  0  0  0  0
 43 45  1  0  0  0  0
 43 42  1  0  0  0  0
 44 43  2  0  0  0  0
M  END
>  <MODEL>
3

>  <REMARK>
 VINA RESULT:      -5.7      1.722      2.248
  Name = 
  19 active torsions:
  status: ('A' for Active; 'I' for Inactive)
    1  A    between atoms: N_1  and  C_12
    2  A    between atoms: C_3  and  S_30
    3  A    between atoms: N_4  and  C_10
    4  A    between atoms: N_4  and  C_42
    5  A    between atoms: N_6  and  N_16
    6  A    between atoms: N_6  and  C_45
    7  A    between atoms: C_7  and  C_21
    8  A    between atoms: C_7  and  C_33
    9  A    between atoms: C_12  and  C_40
   10  A    between atoms: C_14  and  C_35
   11  A    between atoms: N_16  and  C_27
   12  A    between atoms: C_17  and  C_37
   13  A    between atoms: C_17  and  C_38
   14  A    between atoms: C_18  and  O_23
   15  A    between atoms: C_18  and  C_38
   16  A    between atoms: O_23  and  C_45
   17  A    between atoms: S_30  and  C_32
   18  A    between atoms: C_37  and  C_39
   19  A    between atoms: C_38  and  C_42
                            x       y       z     vdW  Elec       q    Type
                         _______ _______ _______ _____ _____    ______ ____

>  <TORSDO>
F 19

$$$$
=
 OpenBabel11072408553D

 45 49  0  0  1  0  0  0  0  0999 V2000
  194.7500  174.3460  144.5550 C   0  0  1  0  0  3  0  0  0  0  0  0
  195.6610  176.4970  143.9890 N   0  0  0  0  0  2  0  0  0  0  0  0
  196.6920  175.4410  143.0220 S   0  0  0  0  0  0  0  0  0  0  0  0
  195.1950  175.6870  145.0980 C   0  0  1  0  0  3  0  0  0  0  0  0
  195.6430  173.9960  143.3750 C   0  0  2  0  0  3  0  0  0  0  0  0
  194.8830  173.2840  145.6310 C   0  0  0  0  0  1  0  0  0  0  0  0
  195.2520  174.3330  141.0350 O   0  0  0  0  0  1  0  0  0  0  0  0
  194.7980  173.6330  142.1550 C   0  0  1  0  0  3  0  0  0  0  0  0
  194.8890  172.1390  141.8710 C   0  0  0  0  0  2  0  0  0  0  0  0
  193.5070  171.5380  141.6620 C   0  0  2  0  0  3  0  0  0  0  0  0
  192.4250  172.5880  141.5920 C   0  0  0  0  0  0  0  0  0  0  0  0
  192.1560  173.0610  140.4570 O   0  0  0  0  0  0  0  0  0  0  0  0
  191.7420  173.1200  142.7020 O   0  0  0  0  0  0  0  0  0  0  0  0
  189.7820  171.6330  142.7160 C   0  0  0  0  0  1  0  0  0  0  0  0
  190.3490  173.0120  143.0120 C   0  0  2  0  0  3  0  0  0  0  0  0
  189.5830  174.0620  142.3590 N   0  0  0  0  0  2  0  0  0  0  0  0
  188.6960  173.4370  141.4740 N   0  0  0  0  0  2  0  0  0  0  0  0
  188.4670  174.2980  139.0760 N   0  0  0  0  0  0  0  0  0  0  0  0
  188.5700  173.9090  140.1610 C   0  0  0  0  0  0  0  0  0  0  0  0
  193.2360  170.4210  142.6540 C   0  0  0  0  0  2  0  0  0  0  0  0
  194.3860  170.2320  143.5190 N   0  0  0  0  0  2  0  0  0  0  0  0
  195.0280  169.5640  145.7520 C   0  0  0  0  0  2  0  0  0  0  0  0
  193.8670  169.8680  144.8270 C   0  0  0  0  0  3  0  0  0  0  0  0
  194.2430  168.4310  145.1280 C   0  0  0  0  0  2  0  0  0  0  0  0
  193.8050  176.5210  145.9200 S   0  0  0  0  0  0  0  0  0  0  0  0
  192.5900  175.8450  144.7510 C   0  0  1  0  0  3  0  0  0  0  0  0
  191.3720  175.3650  145.5150 C   0  0  0  0  0  2  0  0  0  0  0  0
  190.2920  176.2550  145.1440 N   0  0  0  0  0  0  0  0  0  0  0  0
  192.1190  176.9470  143.8070 C   0  0  0  0  0  3  0  0  0  0  0  0
  190.6710  177.2420  144.1550 C   0  0  0  0  0  3  0  0  0  0  0  0
  188.7100  175.2580  146.5440 O   0  0  0  0  0  0  0  0  0  0  0  0
  188.9720  176.1490  145.6910 C   0  0  0  0  0  0  0  0  0  0  0  0
  187.8810  177.0580  145.2350 C   0  0  0  0  0  2  0  0  0  0  0  0
  186.0330  177.8390  147.9970 O   0  0  0  0  0  0  0  0  0  0  0  0
  186.1560  178.1920  146.6230 C   0  0  2  0  0  0  0  0  0  0  0  0
  185.3610  177.4090  145.5600 C   0  0  2  0  0  3  0  0  0  0  0  0
  186.6330  176.8320  146.0840 C   0  0  1  0  0  3  0  0  0  0  0  0
  184.9540  178.5050  147.4680 C   0  0  0  0  0  2  0  0  0  0  0  0
  185.2810  177.2810  143.0310 N   0  0  0  0  0  2  0  0  0  0  0  0
  185.6360  179.3150  144.1240 O   0  0  0  0  0  0  0  0  0  0  0  0
  185.4530  178.0690  144.2100 C   0  0  0  0  0  0  0  0  0  0  0  0
  185.3770  177.8590  141.6990 C   0  0  0  0  0  2  0  0  0  0  0  0
  186.6090  177.3630  141.0280 C   0  0  0  0  0  0  0  0  0  0  0  0
  186.7500  177.4980  139.6520 O   0  0  0  0  0  0  0  0  0  0  0  0
  187.5100  176.7950  141.6990 O   0  0  0  0  0  1  0  0  0  0  0  0
  1  4  1  0  0  0  0
  1  6  1  1  0  0  0
  2  4  1  0  0  0  0
  3  5  1  0  0  0  0
  3  2  1  0  0  0  0
  4 25  1  6  0  0  0
  5  8  1  6  0  0  0
  5  1  1  0  0  0  0
  8  7  1  6  0  0  0
  9  8  1  0  0  0  0
 10  9  1  1  0  0  0
 10 20  1  0  0  0  0
 11 10  1  0  0  0  0
 11 13  1  0  0  0  0
 12 11  2  0  0  0  0
 13 15  1  0  0  0  0
 15 14  1  6  0  0  0
 16 15  1  0  0  0  0
 17 16  1  0  0  0  0
 18 19  3  0  0  0  0
 19 17  1  0  0  0  0
 20 21  1  0  0  0  0
 21 23  1  0  0  0  0
 23 24  1  0  0  0  0
 23 22  1  0  0  0  0
 24 22  1  0  0  0  0
 26 27  1  0  0  0  0
 26 25  1  1  0  0  0
 28 27  1  0  0  0  0
 28 32  1  0  0  0  0
 29 30  2  0  0  0  0
 29 26  1  0  0  0  0
 30 28  1  0  0  0  0
 32 31  2  0  0  0  0
 33 32  1  0  0  0  0
 35 38  1  6  0  0  0
 35 34  1  0  0  0  0
 36 41  1  6  0  0  0
 36 37  1  0  0  0  0
 36 35  1  0  0  0  0
 37 33  1  6  0  0  0
 37 35  1  0  0  0  0
 38 34  1  0  0  0  0
 39 41  1  0  0  0  0
 40 41  2  0  0  0  0
 42 39  1  0  0  0  0
 43 45  1  0  0  0  0
 43 42  1  0  0  0  0
 44 43  2  0  0  0  0
M  END
>  <MODEL>
4

>  <REMARK>
 VINA RESULT:      -5.6      2.136      3.520
  Name = 
  19 active torsions:
  status: ('A' for Active; 'I' for Inactive)
    1  A    between atoms: N_1  and  C_12
    2  A    between atoms: C_3  and  S_30
    3  A    between atoms: N_4  and  C_10
    4  A    between atoms: N_4  and  C_42
    5  A    between atoms: N_6  and  N_16
    6  A    between atoms: N_6  and  C_45
    7  A    between atoms: C_7  and  C_21
    8  A    between atoms: C_7  and  C_33
    9  A    between atoms: C_12  and  C_40
   10  A    between atoms: C_14  and  C_35
   11  A    between atoms: N_16  and  C_27
   12  A    between atoms: C_17  and  C_37
   13  A    between atoms: C_17  and  C_38
   14  A    between atoms: C_18  and  O_23
   15  A    between atoms: C_18  and  C_38
   16  A    between atoms: O_23  and  C_45
   17  A    between atoms: S_30  and  C_32
   18  A    between atoms: C_37  and  C_39
   19  A    between atoms: C_38  and  C_42
                            x       y       z     vdW  Elec       q    Type
                         _______ _______ _______ _____ _____    ______ ____

>  <TORSDO>
F 19

$$$$
=
 OpenBabel11072408553D

 45 49  0  0  1  0  0  0  0  0999 V2000
  194.9990  174.2790  144.8340 C   0  0  1  0  0  3  0  0  0  0  0  0
  194.6780  175.5040  142.7910 N   0  0  0  0  0  2  0  0  0  0  0  0
  195.5830  174.1100  142.1970 S   0  0  0  0  0  0  0  0  0  0  0  0
  195.0440  175.6460  144.1870 C   0  0  1  0  0  3  0  0  0  0  0  0
  195.4250  173.2530  143.7950 C   0  0  2  0  0  3  0  0  0  0  0  0
  195.9510  174.2360  146.0150 C   0  0  0  0  0  1  0  0  0  0  0  0
  193.7280  171.9900  144.9210 O   0  0  0  0  0  1  0  0  0  0  0  0
  194.3970  172.1270  143.7030 C   0  0  1  0  0  3  0  0  0  0  0  0
  193.3760  172.4280  142.6140 C   0  0  0  0  0  2  0  0  0  0  0  0
  192.4250  171.2570  142.4180 C   0  0  2  0  0  3  0  0  0  0  0  0
  192.5870  170.6000  141.0690 C   0  0  0  0  0  0  0  0  0  0  0  0
  193.6870  170.0360  140.8340 O   0  0  0  0  0  0  0  0  0  0  0  0
  191.6290  170.6240  140.0380 O   0  0  0  0  0  0  0  0  0  0  0  0
  192.4580  172.7300  139.0740 C   0  0  0  0  0  1  0  0  0  0  0  0
  191.5680  171.5080  138.9150 C   0  0  2  0  0  3  0  0  0  0  0  0
  190.1940  171.8770  138.6110 N   0  0  0  0  0  2  0  0  0  0  0  0
  190.2000  173.2300  138.2490 N   0  0  0  0  0  2  0  0  0  0  0  0
  187.9950  174.4290  137.7550 N   0  0  0  0  0  0  0  0  0  0  0  0
  188.9920  173.8860  137.9780 C   0  0  0  0  0  0  0  0  0  0  0  0
  190.9970  171.6430  142.7620 C   0  0  0  0  0  2  0  0  0  0  0  0
  190.8320  173.0820  142.6660 N   0  0  0  0  0  2  0  0  0  0  0  0
  189.4980  174.8010  141.6130 C   0  0  0  0  0  2  0  0  0  0  0  0
  189.6530  173.3120  141.8490 C   0  0  0  0  0  3  0  0  0  0  0  0
  188.6410  174.1060  142.6490 C   0  0  0  0  0  2  0  0  0  0  0  0
  193.8730  176.7660  145.0120 S   0  0  0  0  0  0  0  0  0  0  0  0
  192.4830  176.2200  143.9770 C   0  0  1  0  0  3  0  0  0  0  0  0
  191.3710  175.6990  144.8660 C   0  0  0  0  0  2  0  0  0  0  0  0
  190.2780  176.6390  144.7310 N   0  0  0  0  0  0  0  0  0  0  0  0
  191.9180  177.4100  143.2080 C   0  0  0  0  0  3  0  0  0  0  0  0
  190.5440  177.7020  143.7860 C   0  0  0  0  0  3  0  0  0  0  0  0
  188.8810  175.5530  146.2560 O   0  0  0  0  0  0  0  0  0  0  0  0
  189.0470  176.5110  145.4520 C   0  0  0  0  0  0  0  0  0  0  0  0
  187.9320  177.4780  145.2380 C   0  0  0  0  0  2  0  0  0  0  0  0
  185.8440  177.9140  147.9030 O   0  0  0  0  0  0  0  0  0  0  0  0
  185.9690  178.2870  146.5340 C   0  0  2  0  0  0  0  0  0  0  0  0
  185.3770  177.3780  145.4390 C   0  0  2  0  0  3  0  0  0  0  0  0
  186.7040  177.0330  146.0280 C   0  0  1  0  0  3  0  0  0  0  0  0
  184.6910  178.3800  147.3180 C   0  0  0  0  0  2  0  0  0  0  0  0
  185.4710  177.2430  142.9110 N   0  0  0  0  0  2  0  0  0  0  0  0
  185.3560  179.3040  144.0050 O   0  0  0  0  0  0  0  0  0  0  0  0
  185.4160  178.0460  144.0910 C   0  0  0  0  0  0  0  0  0  0  0  0
  185.5280  177.8320  141.5820 C   0  0  0  0  0  2  0  0  0  0  0  0
  186.8530  177.5470  140.9680 C   0  0  0  0  0  0  0  0  0  0  0  0
  188.0000  178.1330  141.4890 O   0  0  0  0  0  1  0  0  0  0  0  0
  186.9340  176.8000  139.9570 O   0  0  0  0  0  0  0  0  0  0  0  0
  1  6  1  1  0  0  0
  2  4  1  0  0  0  0
  3  2  1  0  0  0  0
  3  5  1  0  0  0  0
  4  1  1  0  0  0  0
  4 25  1  1  0  0  0
  5  8  1  6  0  0  0
  5  1  1  0  0  0  0
  8  7  1  1  0  0  0
  9  8  1  0  0  0  0
 10  9  1  6  0  0  0
 10 20  1  0  0  0  0
 11 10  1  0  0  0  0
 12 11  2  0  0  0  0
 13 11  1  0  0  0  0
 15 14  1  1  0  0  0
 15 13  1  0  0  0  0
 16 15  1  0  0  0  0
 17 16  1  0  0  0  0
 18 19  3  0  0  0  0
 19 17  1  0  0  0  0
 21 20  1  0  0  0  0
 22 23  1  0  0  0  0
 22 24  1  0  0  0  0
 23 24  1  0  0  0  0
 23 21  1  0  0  0  0
 26 27  1  0  0  0  0
 26 25  1  1  0  0  0
 28 27  1  0  0  0  0
 28 32  1  0  0  0  0
 29 30  2  0  0  0  0
 29 26  1  0  0  0  0
 30 28  1  0  0  0  0
 32 31  2  0  0  0  0
 33 32  1  0  0  0  0
 35 38  1  6  0  0  0
 35 34  1  0  0  0  0
 36 41  1  6  0  0  0
 36 37  1  0  0  0  0
 36 35  1  0  0  0  0
 37 33  1  6  0  0  0
 37 35  1  0  0  0  0
 38 34  1  0  0  0  0
 39 41  1  0  0  0  0
 40 41  2  0  0  0  0
 42 39  1  0  0  0  0
 43 44  1  0  0  0  0
 43 42  1  0  0  0  0
 45 43  2  0  0  0  0
M  END
>  <MODEL>
5

>  <REMARK>
 VINA RESULT:      -5.6      2.058      2.363
  Name = 
  19 active torsions:
  status: ('A' for Active; 'I' for Inactive)
    1  A    between atoms: N_1  and  C_12
    2  A    between atoms: C_3  and  S_30
    3  A    between atoms: N_4  and  C_10
    4  A    between atoms: N_4  and  C_42
    5  A    between atoms: N_6  and  N_16
    6  A    between atoms: N_6  and  C_45
    7  A    between atoms: C_7  and  C_21
    8  A    between atoms: C_7  and  C_33
    9  A    between atoms: C_12  and  C_40
   10  A    between atoms: C_14  and  C_35
   11  A    between atoms: N_16  and  C_27
   12  A    between atoms: C_17  and  C_37
   13  A    between atoms: C_17  and  C_38
   14  A    between atoms: C_18  and  O_23
   15  A    between atoms: C_18  and  C_38
   16  A    between atoms: O_23  and  C_45
   17  A    between atoms: S_30  and  C_32
   18  A    between atoms: C_37  and  C_39
   19  A    between atoms: C_38  and  C_42
                            x       y       z     vdW  Elec       q    Type
                         _______ _______ _______ _____ _____    ______ ____

>  <TORSDO>
F 19

$$$$
=
 OpenBabel11072408553D

 45 49  0  0  1  0  0  0  0  0999 V2000
  195.6360  174.1880  145.0560 C   0  0  1  0  0  3  0  0  0  0  0  0
  195.1290  176.0120  143.5740 N   0  0  0  0  0  2  0  0  0  0  0  0
  196.2910  175.1120  142.5980 S   0  0  0  0  0  0  0  0  0  0  0  0
  195.4340  175.6850  144.9540 C   0  0  1  0  0  3  0  0  0  0  0  0
  196.2670  173.7090  143.7580 C   0  0  2  0  0  3  0  0  0  0  0  0
  196.5550  173.8700  146.2200 C   0  0  0  0  0  1  0  0  0  0  0  0
  196.3220  171.4650  142.9170 O   0  0  0  0  0  1  0  0  0  0  0  0
  195.4710  172.5420  143.1750 C   0  0  1  0  0  3  0  0  0  0  0  0
  194.3930  172.0940  144.1520 C   0  0  0  0  0  2  0  0  0  0  0  0
  193.7080  170.8260  143.6640 C   0  0  2  0  0  3  0  0  0  0  0  0
  192.3260  171.0890  143.1190 C   0  0  0  0  0  0  0  0  0  0  0  0
  191.3670  171.0250  143.9330 O   0  0  0  0  0  0  0  0  0  0  0  0
  192.0230  171.3370  141.7670 O   0  0  0  0  0  0  0  0  0  0  0  0
  192.3990  173.7670  141.6680 C   0  0  0  0  0  1  0  0  0  0  0  0
  191.6050  172.5690  141.1720 C   0  0  2  0  0  3  0  0  0  0  0  0
  190.1730  172.7690  141.3290 N   0  0  0  0  0  2  0  0  0  0  0  0
  189.9940  173.6670  142.3880 N   0  0  0  0  0  2  0  0  0  0  0  0
  187.8680  175.0830  142.5180 N   0  0  0  0  0  0  0  0  0  0  0  0
  188.8300  174.4420  142.4590 C   0  0  0  0  0  0  0  0  0  0  0  0
  193.7720  169.7270  144.7110 C   0  0  0  0  0  2  0  0  0  0  0  0
  194.5980  170.1490  145.8280 N   0  0  0  0  0  2  0  0  0  0  0  0
  196.4340  169.4120  147.2160 C   0  0  0  0  0  2  0  0  0  0  0  0
  195.7100  169.2160  145.9000 C   0  0  0  0  0  3  0  0  0  0  0  0
  197.0090  169.9940  145.9430 C   0  0  0  0  0  2  0  0  0  0  0  0
  194.0580  176.2040  146.0220 S   0  0  0  0  0  0  0  0  0  0  0  0
  192.8130  175.8300  144.7520 C   0  0  1  0  0  3  0  0  0  0  0  0
  191.5540  175.3130  145.4210 C   0  0  0  0  0  2  0  0  0  0  0  0
  190.5440  176.3280  145.2100 N   0  0  0  0  0  0  0  0  0  0  0  0
  192.4320  177.1100  144.0140 C   0  0  0  0  0  3  0  0  0  0  0  0
  191.0040  177.4430  144.4090 C   0  0  0  0  0  3  0  0  0  0  0  0
  188.8790  175.2190  146.4150 O   0  0  0  0  0  0  0  0  0  0  0  0
  189.2140  176.2230  145.7300 C   0  0  0  0  0  0  0  0  0  0  0  0
  188.1950  177.2740  145.4400 C   0  0  0  0  0  2  0  0  0  0  0  0
  186.0440  177.5770  148.0730 O   0  0  0  0  0  0  0  0  0  0  0  0
  186.3050  178.1520  146.7970 C   0  0  2  0  0  0  0  0  0  0  0  0
  185.6470  177.5500  145.5400 C   0  0  2  0  0  3  0  0  0  0  0  0
  186.8700  176.9030  146.0990 C   0  0  1  0  0  3  0  0  0  0  0  0
  185.0120  178.3130  147.5450 C   0  0  0  0  0  2  0  0  0  0  0  0
  186.0050  177.8210  143.0460 N   0  0  0  0  0  2  0  0  0  0  0  0
  185.8830  179.6800  144.4550 O   0  0  0  0  0  0  0  0  0  0  0  0
  185.8660  178.4240  144.3340 C   0  0  0  0  0  0  0  0  0  0  0  0
  186.2370  178.6110  141.8480 C   0  0  0  0  0  2  0  0  0  0  0  0
  185.4950  178.0130  140.7050 C   0  0  0  0  0  0  0  0  0  0  0  0
  184.1230  178.2030  140.5930 O   0  0  0  0  0  1  0  0  0  0  0  0
  186.1020  177.3110  139.8550 O   0  0  0  0  0  0  0  0  0  0  0  0
  1  6  1  1  0  0  0
  2  4  1  0  0  0  0
  3  2  1  0  0  0  0
  3  5  1  0  0  0  0
  4  1  1  0  0  0  0
  4 25  1  1  0  0  0
  5  8  1  6  0  0  0
  5  1  1  0  0  0  0
  8  7  1  1  0  0  0
  8  9  1  0  0  0  0
 10  9  1  1  0  0  0
 10 20  1  0  0  0  0
 11 10  1  0  0  0  0
 11 12  2  0  0  0  0
 13 11  1  0  0  0  0
 15 16  1  0  0  0  0
 15 14  1  1  0  0  0
 15 13  1  0  0  0  0
 16 17  1  0  0  0  0
 17 19  1  0  0  0  0
 19 18  3  0  0  0  0
 20 21  1  0  0  0  0
 21 23  1  0  0  0  0
 23 24  1  0  0  0  0
 23 22  1  0  0  0  0
 24 22  1  0  0  0  0
 26 27  1  0  0  0  0
 26 25  1  1  0  0  0
 28 27  1  0  0  0  0
 28 32  1  0  0  0  0
 29 30  2  0  0  0  0
 29 26  1  0  0  0  0
 30 28  1  0  0  0  0
 32 31  2  0  0  0  0
 33 32  1  0  0  0  0
 35 38  1  6  0  0  0
 35 34  1  0  0  0  0
 36 41  1  6  0  0  0
 36 37  1  0  0  0  0
 36 35  1  0  0  0  0
 37 33  1  6  0  0  0
 37 35  1  0  0  0  0
 38 34  1  0  0  0  0
 39 41  1  0  0  0  0
 41 40  2  0  0  0  0
 42 39  1  0  0  0  0
 43 42  1  0  0  0  0
 44 43  1  0  0  0  0
 45 43  2  0  0  0  0
M  END
>  <MODEL>
6

>  <REMARK>
 VINA RESULT:      -5.6      2.584      4.155
  Name = 
  19 active torsions:
  status: ('A' for Active; 'I' for Inactive)
    1  A    between atoms: N_1  and  C_12
    2  A    between atoms: C_3  and  S_30
    3  A    between atoms: N_4  and  C_10
    4  A    between atoms: N_4  and  C_42
    5  A    between atoms: N_6  and  N_16
    6  A    between atoms: N_6  and  C_45
    7  A    between atoms: C_7  and  C_21
    8  A    between atoms: C_7  and  C_33
    9  A    between atoms: C_12  and  C_40
   10  A    between atoms: C_14  and  C_35
   11  A    between atoms: N_16  and  C_27
   12  A    between atoms: C_17  and  C_37
   13  A    between atoms: C_17  and  C_38
   14  A    between atoms: C_18  and  O_23
   15  A    between atoms: C_18  and  C_38
   16  A    between atoms: O_23  and  C_45
   17  A    between atoms: S_30  and  C_32
   18  A    between atoms: C_37  and  C_39
   19  A    between atoms: C_38  and  C_42
                            x       y       z     vdW  Elec       q    Type
                         _______ _______ _______ _____ _____    ______ ____

>  <TORSDO>
F 19

$$$$
=
 OpenBabel11072408553D

 45 49  0  0  1  0  0  0  0  0999 V2000
  190.9120  174.5070  141.9270 C   0  0  1  0  0  3  0  0  0  0  0  0
  189.9940  172.4930  140.9860 N   0  0  0  0  0  2  0  0  0  0  0  0
  189.1910  172.5150  142.5570 S   0  0  0  0  0  0  0  0  0  0  0  0
  191.2260  173.2390  141.1620 C   0  0  1  0  0  3  0  0  0  0  0  0
  189.7880  174.2000  142.9040 C   0  0  2  0  0  3  0  0  0  0  0  0
  192.1410  174.9680  142.6880 C   0  0  0  0  0  1  0  0  0  0  0  0
  187.5220  174.5890  142.2260 O   0  0  0  0  0  1  0  0  0  0  0  0
  188.6550  175.2140  142.7520 C   0  0  1  0  0  3  0  0  0  0  0  0
  188.2990  175.8200  144.1030 C   0  0  0  0  0  2  0  0  0  0  0  0
  188.6050  177.3100  144.1310 C   0  0  2  0  0  3  0  0  0  0  0  0
  188.3940  177.9680  142.7880 C   0  0  0  0  0  0  0  0  0  0  0  0
  189.4230  178.2390  142.1150 O   0  0  0  0  0  0  0  0  0  0  0  0
  187.1460  178.3540  142.2640 O   0  0  0  0  0  0  0  0  0  0  0  0
  184.7240  178.0430  141.9670 C   0  0  0  0  0  1  0  0  0  0  0  0
  185.8740  178.3340  142.9180 C   0  0  2  0  0  3  0  0  0  0  0  0
  185.6520  179.5560  143.6750 N   0  0  0  0  0  2  0  0  0  0  0  0
  184.3960  179.4430  144.2830 N   0  0  0  0  0  2  0  0  0  0  0  0
  184.1780  178.2930  146.5580 N   0  0  0  0  0  0  0  0  0  0  0  0
  184.2760  178.8130  145.5290 C   0  0  0  0  0  0  0  0  0  0  0  0
  189.9600  177.5830  144.7580 C   0  0  0  0  0  2  0  0  0  0  0  0
  190.2430  176.5970  145.7850 N   0  0  0  0  0  2  0  0  0  0  0  0
  192.0630  175.1450  146.4360 C   0  0  0  0  0  2  0  0  0  0  0  0
  191.6900  176.5080  145.8890 C   0  0  0  0  0  3  0  0  0  0  0  0
  192.0740  176.3540  147.3470 C   0  0  0  0  0  2  0  0  0  0  0  0
  191.9280  173.6480  139.5360 S   0  0  0  0  0  0  0  0  0  0  0  0
  193.2490  172.4110  139.6950 C   0  0  1  0  0  3  0  0  0  0  0  0
  194.5960  173.1080  139.6620 C   0  0  0  0  0  2  0  0  0  0  0  0
  195.1580  172.9510  140.9860 N   0  0  0  0  0  0  0  0  0  0  0  0
  193.1400  171.7140  141.0480 C   0  0  0  0  0  3  0  0  0  0  0  0
  194.3330  172.1610  141.8750 C   0  0  0  0  0  3  0  0  0  0  0  0
  197.0910  174.1840  140.5380 O   0  0  0  0  0  0  0  0  0  0  0  0
  196.4200  173.5110  141.3670 C   0  0  0  0  0  0  0  0  0  0  0  0
  196.9800  173.2770  142.7300 C   0  0  0  0  0  2  0  0  0  0  0  0
  195.8260  176.4480  143.2420 O   0  0  0  0  0  0  0  0  0  0  0  0
  195.6500  175.1240  143.7330 C   0  0  2  0  0  0  0  0  0  0  0  0
  196.5450  174.6100  144.8780 C   0  0  2  0  0  3  0  0  0  0  0  0
  197.0750  174.6000  143.4830 C   0  0  1  0  0  3  0  0  0  0  0  0
  195.2120  176.3600  144.4680 C   0  0  0  0  0  2  0  0  0  0  0  0
  197.0120  172.3110  145.8360 N   0  0  0  0  0  2  0  0  0  0  0  0
  194.8240  173.0510  145.4910 O   0  0  0  0  0  0  0  0  0  0  0  0
  196.0610  173.2840  145.3990 C   0  0  0  0  0  0  0  0  0  0  0  0
  196.6050  171.0060  146.3320 C   0  0  0  0  0  2  0  0  0  0  0  0
  197.0840  169.9470  145.4020 C   0  0  0  0  0  0  0  0  0  0  0  0
  196.5620  169.8660  144.1170 O   0  0  0  0  0  0  0  0  0  0  0  0
  197.9390  169.1070  145.7860 O   0  0  0  0  0  1  0  0  0  0  0  0
  1  6  1  1  0  0  0
  1  5  1  0  0  0  0
  2  4  1  0  0  0  0
  2  3  1  0  0  0  0
  3  5  1  0  0  0  0
  4 25  1  6  0  0  0
  4  1  1  0  0  0  0
  5  8  1  6  0  0  0
  8  7  1  1  0  0  0
  8  9  1  0  0  0  0
 10  9  1  6  0  0  0
 10 20  1  0  0  0  0
 11 10  1  0  0  0  0
 12 11  2  0  0  0  0
 13 11  1  0  0  0  0
 13 15  1  0  0  0  0
 15 14  1  6  0  0  0
 15 16  1  0  0  0  0
 16 17  1  0  0  0  0
 17 19  1  0  0  0  0
 19 18  3  0  0  0  0
 20 21  1  0  0  0  0
 21 23  1  0  0  0  0
 22 24  1  0  0  0  0
 23 22  1  0  0  0  0
 23 24  1  0  0  0  0
 26 25  1  1  0  0  0
 26 29  1  0  0  0  0
 27 26  1  0  0  0  0
 27 28  1  0  0  0  0
 28 32  1  0  0  0  0
 28 30  1  0  0  0  0
 29 30  2  0  0  0  0
 31 32  2  0  0  0  0
 32 33  1  0  0  0  0
 34 35  1  0  0  0  0
 34 38  1  0  0  0  0
 35 38  1  6  0  0  0
 35 36  1  0  0  0  0
 36 41  1  6  0  0  0
 37 33  1  6  0  0  0
 37 35  1  0  0  0  0
 37 36  1  0  0  0  0
 39 42  1  0  0  0  0
 41 40  2  0  0  0  0
 41 39  1  0  0  0  0
 43 45  1  0  0  0  0
 43 42  1  0  0  0  0
 44 43  2  0  0  0  0
M  END
>  <MODEL>
7

>  <REMARK>
 VINA RESULT:      -5.3      3.113      9.428
  Name = 
  19 active torsions:
  status: ('A' for Active; 'I' for Inactive)
    1  A    between atoms: N_1  and  C_12
    2  A    between atoms: C_3  and  S_30
    3  A    between atoms: N_4  and  C_10
    4  A    between atoms: N_4  and  C_42
    5  A    between atoms: N_6  and  N_16
    6  A    between atoms: N_6  and  C_45
    7  A    between atoms: C_7  and  C_21
    8  A    between atoms: C_7  and  C_33
    9  A    between atoms: C_12  and  C_40
   10  A    between atoms: C_14  and  C_35
   11  A    between atoms: N_16  and  C_27
   12  A    between atoms: C_17  and  C_37
   13  A    between atoms: C_17  and  C_38
   14  A    between atoms: C_18  and  O_23
   15  A    between atoms: C_18  and  C_38
   16  A    between atoms: O_23  and  C_45
   17  A    between atoms: S_30  and  C_32
   18  A    between atoms: C_37  and  C_39
   19  A    between atoms: C_38  and  C_42
                            x       y       z     vdW  Elec       q    Type
                         _______ _______ _______ _____ _____    ______ ____

>  <TORSDO>
F 19

$$$$
=
 OpenBabel11072408553D

 45 49  0  0  1  0  0  0  0  0999 V2000
  191.2110  173.6150  141.2230 C   0  0  1  0  0  3  0  0  0  0  0  0
  190.4180  171.3820  141.6310 N   0  0  0  0  0  2  0  0  0  0  0  0
  189.3610  172.3050  142.7000 S   0  0  0  0  0  0  0  0  0  0  0  0
  191.6200  172.1810  141.4800 C   0  0  1  0  0  3  0  0  0  0  0  0
  189.9300  173.8850  141.9980 C   0  0  2  0  0  3  0  0  0  0  0  0
  192.3040  174.5550  141.6980 C   0  0  0  0  0  1  0  0  0  0  0  0
  188.1770  173.4590  140.4200 O   0  0  0  0  0  1  0  0  0  0  0  0
  188.8650  174.4810  141.0780 C   0  0  1  0  0  3  0  0  0  0  0  0
  187.8690  175.3040  141.8830 C   0  0  0  0  0  2  0  0  0  0  0  0
  188.3340  176.7470  142.0140 C   0  0  2  0  0  3  0  0  0  0  0  0
  188.6120  177.1370  143.4450 C   0  0  0  0  0  0  0  0  0  0  0  0
  189.6170  176.6160  143.9960 O   0  0  0  0  0  0  0  0  0  0  0  0
  187.8040  177.9860  144.2240 O   0  0  0  0  0  0  0  0  0  0  0  0
  186.0010  178.8180  145.6770 C   0  0  0  0  0  1  0  0  0  0  0  0
  186.5100  177.7110  144.7690 C   0  0  2  0  0  3  0  0  0  0  0  0
  186.4830  176.4150  145.4310 N   0  0  0  0  0  2  0  0  0  0  0  0
  187.1400  176.5650  146.6580 N   0  0  0  0  0  2  0  0  0  0  0  0
  189.0710  175.0030  147.2700 N   0  0  0  0  0  0  0  0  0  0  0  0
  188.1970  175.7090  146.9930 C   0  0  0  0  0  0  0  0  0  0  0  0
  187.4050  177.6940  141.2740 C   0  0  0  0  0  2  0  0  0  0  0  0
  186.0270  177.2650  141.4290 N   0  0  0  0  0  2  0  0  0  0  0  0
  183.8410  178.1200  142.0020 C   0  0  0  0  0  2  0  0  0  0  0  0
  185.2180  178.4710  141.4790 C   0  0  0  0  0  3  0  0  0  0  0  0
  184.0560  178.3300  140.5190 C   0  0  0  0  0  2  0  0  0  0  0  0
  192.5980  171.5510  140.0830 S   0  0  0  0  0  0  0  0  0  0  0  0
  193.8250  170.7750  141.1750 C   0  0  1  0  0  3  0  0  0  0  0  0
  195.2160  171.2180  140.7610 C   0  0  0  0  0  2  0  0  0  0  0  0
  195.7090  172.0450  141.8420 N   0  0  0  0  0  0  0  0  0  0  0  0
  193.6130  171.2550  142.6080 C   0  0  0  0  0  3  0  0  0  0  0  0
  194.7960  172.1390  142.9610 C   0  0  0  0  0  3  0  0  0  0  0  0
  197.7370  172.5570  140.8020 O   0  0  0  0  0  0  0  0  0  0  0  0
  196.9890  172.6890  141.8080 C   0  0  0  0  0  0  0  0  0  0  0  0
  197.4720  173.4880  142.9710 C   0  0  0  0  0  2  0  0  0  0  0  0
  196.9040  175.9870  140.7150 O   0  0  0  0  0  0  0  0  0  0  0  0
  196.3490  175.4340  141.9040 C   0  0  2  0  0  0  0  0  0  0  0  0
  196.8220  175.9500  143.2780 C   0  0  2  0  0  3  0  0  0  0  0  0
  197.6550  174.9450  142.5550 C   0  0  1  0  0  3  0  0  0  0  0  0
  196.0120  176.7990  141.3720 C   0  0  0  0  0  2  0  0  0  0  0  0
  194.5640  175.6760  144.3930 N   0  0  0  0  0  2  0  0  0  0  0  0
  196.4800  174.6870  145.2910 O   0  0  0  0  0  0  0  0  0  0  0  0
  195.9670  175.4080  144.3910 C   0  0  0  0  0  0  0  0  0  0  0  0
  193.6910  175.1940  145.4510 C   0  0  0  0  0  2  0  0  0  0  0  0
  193.2480  176.3390  146.2930 C   0  0  0  0  0  0  0  0  0  0  0  0
  194.1910  177.1700  146.8840 O   0  0  0  0  0  1  0  0  0  0  0  0
  192.0220  176.5380  146.4950 O   0  0  0  0  0  0  0  0  0  0  0  0
  1  4  1  0  0  0  0
  1  6  1  1  0  0  0
  1  5  1  0  0  0  0
  2  3  1  0  0  0  0
  4 25  1  6  0  0  0
  4  2  1  0  0  0  0
  5  8  1  6  0  0  0
  5  3  1  0  0  0  0
  8  7  1  1  0  0  0
  8  9  1  0  0  0  0
  9 10  1  0  0  0  0
 10 20  1  1  0  0  0
 10 11  1  0  0  0  0
 11 12  2  0  0  0  0
 11 13  1  0  0  0  0
 13 15  1  0  0  0  0
 15 16  1  0  0  0  0
 15 14  1  1  0  0  0
 16 17  1  0  0  0  0
 17 19  1  0  0  0  0
 19 18  3  0  0  0  0
 20 21  1  0  0  0  0
 21 23  1  0  0  0  0
 23 22  1  0  0  0  0
 24 23  1  0  0  0  0
 24 22  1  0  0  0  0
 26 25  1  6  0  0  0
 26 29  1  0  0  0  0
 27 26  1  0  0  0  0
 27 28  1  0  0  0  0
 28 30  1  0  0  0  0
 29 30  2  0  0  0  0
 31 32  2  0  0  0  0
 32 28  1  0  0  0  0
 32 33  1  0  0  0  0
 34 38  1  0  0  0  0
 34 35  1  0  0  0  0
 35 38  1  6  0  0  0
 35 37  1  0  0  0  0
 35 36  1  0  0  0  0
 36 41  1  1  0  0  0
 37 33  1  1  0  0  0
 37 36  1  0  0  0  0
 39 42  1  0  0  0  0
 41 39  1  0  0  0  0
 41 40  2  0  0  0  0
 42 43  1  0  0  0  0
 43 45  2  0  0  0  0
 43 44  1  0  0  0  0
M  END
>  <MODEL>
8

>  <REMARK>
 VINA RESULT:      -5.3      3.264      9.020
  Name = 
  19 active torsions:
  status: ('A' for Active; 'I' for Inactive)
    1  A    between atoms: N_1  and  C_12
    2  A    between atoms: C_3  and  S_30
    3  A    between atoms: N_4  and  C_10
    4  A    between atoms: N_4  and  C_42
    5  A    between atoms: N_6  and  N_16
    6  A    between atoms: N_6  and  C_45
    7  A    between atoms: C_7  and  C_21
    8  A    between atoms: C_7  and  C_33
    9  A    between atoms: C_12  and  C_40
   10  A    between atoms: C_14  and  C_35
   11  A    between atoms: N_16  and  C_27
   12  A    between atoms: C_17  and  C_37
   13  A    between atoms: C_17  and  C_38
   14  A    between atoms: C_18  and  O_23
   15  A    between atoms: C_18  and  C_38
   16  A    between atoms: O_23  and  C_45
   17  A    between atoms: S_30  and  C_32
   18  A    between atoms: C_37  and  C_39
   19  A    between atoms: C_38  and  C_42
                            x       y       z     vdW  Elec       q    Type
                         _______ _______ _______ _____ _____    ______ ____

>  <TORSDO>
F 19

$$$$
=
 OpenBabel11072408553D

 45 49  0  0  1  0  0  0  0  0999 V2000
  191.1110  172.6230  139.3960 C   0  0  1  0  0  3  0  0  0  0  0  0
  189.4220  171.0590  138.7010 N   0  0  0  0  0  2  0  0  0  0  0  0
  190.8390  170.0100  138.7480 S   0  0  0  0  0  0  0  0  0  0  0  0
  189.9300  172.3990  138.4760 C   0  0  1  0  0  3  0  0  0  0  0  0
  191.8400  171.2980  139.5560 C   0  0  2  0  0  3  0  0  0  0  0  0
  192.0470  173.6530  138.7920 C   0  0  0  0  0  1  0  0  0  0  0  0
  193.1440  170.1320  141.1950 O   0  0  0  0  0  1  0  0  0  0  0  0
  192.0400  170.9740  141.0360 C   0  0  1  0  0  3  0  0  0  0  0  0
  192.2780  172.2500  141.8320 C   0  0  0  0  0  2  0  0  0  0  0  0
  191.4550  172.2550  143.1120 C   0  0  2  0  0  3  0  0  0  0  0  0
  191.2360  173.6480  143.6520 C   0  0  0  0  0  0  0  0  0  0  0  0
  190.1740  173.8530  144.2950 O   0  0  0  0  0  0  0  0  0  0  0  0
  192.0960  174.7420  143.4390 O   0  0  0  0  0  0  0  0  0  0  0  0
  192.5740  176.9720  144.3620 C   0  0  0  0  0  1  0  0  0  0  0  0
  192.8410  175.4770  144.4150 C   0  0  2  0  0  3  0  0  0  0  0  0
  194.2620  175.1790  144.3230 N   0  0  0  0  0  2  0  0  0  0  0  0
  194.9470  176.3950  144.4340 N   0  0  0  0  0  2  0  0  0  0  0  0
  197.0740  176.7920  143.0700 N   0  0  0  0  0  0  0  0  0  0  0  0
  196.1120  176.6120  143.6870 C   0  0  0  0  0  0  0  0  0  0  0  0
  192.0060  171.2680  144.1250 C   0  0  0  0  0  2  0  0  0  0  0  0
  193.1620  171.8340  144.7970 N   0  0  0  0  0  2  0  0  0  0  0  0
  195.2530  171.1030  145.7620 C   0  0  0  0  0  2  0  0  0  0  0  0
  194.2360  170.8650  144.6650 C   0  0  0  0  0  3  0  0  0  0  0  0
  195.5280  171.5940  144.3570 C   0  0  0  0  0  2  0  0  0  0  0  0
  188.6240  173.6130  138.8300 S   0  0  0  0  0  0  0  0  0  0  0  0
  189.1070  173.7590  140.5750 C   0  0  1  0  0  3  0  0  0  0  0  0
  189.0020  175.2100  141.0050 C   0  0  0  0  0  2  0  0  0  0  0  0
  187.9140  175.2660  141.9580 N   0  0  0  0  0  0  0  0  0  0  0  0
  188.1370  172.9650  141.4440 C   0  0  0  0  0  3  0  0  0  0  0  0
  187.3290  173.9730  142.2440 C   0  0  0  0  0  3  0  0  0  0  0  0
  188.0370  177.5760  142.2790 O   0  0  0  0  0  0  0  0  0  0  0  0
  187.4770  176.4850  142.5700 C   0  0  0  0  0  0  0  0  0  0  0  0
  186.3840  176.4810  143.5860 C   0  0  0  0  0  2  0  0  0  0  0  0
  184.0670  178.8920  144.2670 O   0  0  0  0  0  0  0  0  0  0  0  0
  184.8320  177.8890  144.9260 C   0  0  2  0  0  0  0  0  0  0  0  0
  186.2390  178.2280  145.4570 C   0  0  2  0  0  3  0  0  0  0  0  0
  186.0680  177.9120  144.0090 C   0  0  1  0  0  3  0  0  0  0  0  0
  184.1570  179.0310  145.6310 C   0  0  0  0  0  2  0  0  0  0  0  0
  188.1530  176.7220  146.1540 N   0  0  0  0  0  2  0  0  0  0  0  0
  186.0600  176.5620  147.1770 O   0  0  0  0  0  0  0  0  0  0  0  0
  186.7880  177.1140  146.3070 C   0  0  0  0  0  0  0  0  0  0  0  0
  188.7350  175.6410  146.9330 C   0  0  0  0  0  2  0  0  0  0  0  0
  190.1630  175.9470  147.2220 C   0  0  0  0  0  0  0  0  0  0  0  0
  191.0940  174.9170  147.2780 O   0  0  0  0  0  0  0  0  0  0  0  0
  190.5230  177.1320  147.4460 O   0  0  0  0  0  1  0  0  0  0  0  0
  1  6  1  6  0  0  0
  1  5  1  0  0  0  0
  2  3  1  0  0  0  0
  3  5  1  0  0  0  0
  4  2  1  0  0  0  0
  4 25  1  1  0  0  0
  4  1  1  0  0  0  0
  5  8  1  1  0  0  0
  8  7  1  6  0  0  0
  8  9  1  0  0  0  0
 10  9  1  6  0  0  0
 10 11  1  0  0  0  0
 10 20  1  0  0  0  0
 11 12  2  0  0  0  0
 13 11  1  0  0  0  0
 13 15  1  0  0  0  0
 15 14  1  6  0  0  0
 16 15  1  0  0  0  0
 16 17  1  0  0  0  0
 18 19  3  0  0  0  0
 19 17  1  0  0  0  0
 20 21  1  0  0  0  0
 23 21  1  0  0  0  0
 23 22  1  0  0  0  0
 24 23  1  0  0  0  0
 24 22  1  0  0  0  0
 26 25  1  6  0  0  0
 26 27  1  0  0  0  0
 26 29  1  0  0  0  0
 27 28  1  0  0  0  0
 28 30  1  0  0  0  0
 28 32  1  0  0  0  0
 29 30  2  0  0  0  0
 31 32  2  0  0  0  0
 32 33  1  0  0  0  0
 34 35  1  0  0  0  0
 34 38  1  0  0  0  0
 35 36  1  0  0  0  0
 35 38  1  1  0  0  0
 36 41  1  1  0  0  0
 37 33  1  1  0  0  0
 37 35  1  0  0  0  0
 37 36  1  0  0  0  0
 39 41  1  0  0  0  0
 39 42  1  0  0  0  0
 41 40  2  0  0  0  0
 42 43  1  0  0  0  0
 43 44  2  0  0  0  0
 43 45  1  0  0  0  0
M  END
>  <MODEL>
9

>  <REMARK>
 VINA RESULT:      -5.2      3.330      6.155
  Name = 
  19 active torsions:
  status: ('A' for Active; 'I' for Inactive)
    1  A    between atoms: N_1  and  C_12
    2  A    between atoms: C_3  and  S_30
    3  A    between atoms: N_4  and  C_10
    4  A    between atoms: N_4  and  C_42
    5  A    between atoms: N_6  and  N_16
    6  A    between atoms: N_6  and  C_45
    7  A    between atoms: C_7  and  C_21
    8  A    between atoms: C_7  and  C_33
    9  A    between atoms: C_12  and  C_40
   10  A    between atoms: C_14  and  C_35
   11  A    between atoms: N_16  and  C_27
   12  A    between atoms: C_17  and  C_37
   13  A    between atoms: C_17  and  C_38
   14  A    between atoms: C_18  and  O_23
   15  A    between atoms: C_18  and  C_38
   16  A    between atoms: O_23  and  C_45
   17  A    between atoms: S_30  and  C_32
   18  A    between atoms: C_37  and  C_39
   19  A    between atoms: C_38  and  C_42
                            x       y       z     vdW  Elec       q    Type
                         _______ _______ _______ _____ _____    ______ ____

>  <TORSDO>
F 19

$$$$
