=
 OpenBabel11062422093D

 27 32  0  0  1  0  0  0  0  0999 V2000
  184.6740  178.0900  145.8960 C   0  0  1  0  0  3  0  0  0  0  0  0
  187.4290  176.1120  146.7110 C   0  0  0  0  0  0  0  0  0  0  0  0
  183.8360  178.9830  143.8580 C   0  0  0  0  0  3  0  0  0  0  0  0
  186.1850  177.8410  147.9660 C   0  0  0  0  0  2  0  0  0  0  0  0
  188.5940  175.6180  147.3810 N   0  0  0  0  0  2  0  0  0  0  0  0
  185.6200  177.5440  142.5810 C   0  0  0  0  0  0  0  0  0  0  0  0
  185.6650  178.6840  146.8480 C   0  0  0  0  0  0  0  0  0  0  0  0
  185.5750  177.8730  141.2300 C   0  0  0  0  0  3  0  0  0  0  0  0
  187.6260  176.5590  140.9510 C   0  0  0  0  0  3  0  0  0  0  0  0
  183.7670  179.1150  145.3290 N   0  0  0  0  0  0  0  0  0  0  0  0
  186.4490  176.7380  144.4950 C   0  0  0  0  0  0  0  0  0  0  0  0
  187.6630  176.2690  142.3270 C   0  0  0  0  0  3  0  0  0  0  0  0
  184.8490  177.9420  143.6460 C   0  0  0  0  0  0  0  0  0  0  0  0
  187.4480  176.2590  145.4150 N   0  0  0  0  0  0  0  0  0  0  0  0
  186.0710  179.8260  146.7040 O   0  0  0  0  0  0  0  0  0  0  0  0
  186.5920  177.3550  140.4070 C   0  0  0  0  0  3  0  0  0  0  0  0
  186.2230  176.3760  147.5470 C   0  0  0  0  0  2  0  0  0  0  0  0
  185.3380  177.4690  144.7730 N   0  0  0  0  0  0  0  0  0  0  0  0
  186.6310  176.7700  143.1190 C   0  0  0  0  0  0  0  0  0  0  0  0
  191.9910  176.5460  146.5830 C   0  0  0  0  0  0  0  0  0  0  0  0
  191.6420  174.3900  145.3440 C   0  0  0  0  0  3  0  0  0  0  0  0
  193.2800  176.4980  146.0310 C   0  0  0  0  0  2  0  0  0  0  0  0
  189.4350  173.5330  145.6040 F   0  0  0  0  0  0  0  0  0  0  0  0
  189.9200  175.5920  146.8360 C   0  0  0  0  0  0  0  0  0  0  0  0
  192.4000  175.4510  145.7170 C   0  0  0  0  0  0  0  0  0  0  0  0
  190.3350  174.4900  145.9400 C   0  0  0  0  0  0  0  0  0  0  0  0
  190.7780  176.6980  147.1720 C   0  0  0  0  0  3  0  0  0  0  0  0
  1 10  1  6  0  0  0
  1  7  1  0  0  0  0
  2  5  1  0  0  0  0
  2 17  1  0  0  0  0
  3 10  2  0  0  0  0
  6 19  1  0  0  0  0
  6 13  2  0  0  0  0
  7  4  1  0  0  0  0
  8  6  1  0  0  0  0
  9 12  2  0  0  0  0
 11 18  1  0  0  0  0
 11 14  1  0  0  0  0
 12 19  1  0  0  0  0
 13  3  1  0  0  0  0
 13 18  1  0  0  0  0
 14  2  2  0  0  0  0
 15  7  2  0  0  0  0
 16  9  1  0  0  0  0
 16  8  2  0  0  0  0
 17  4  1  0  0  0  0
 18  1  1  0  0  0  0
 19 11  2  0  0  0  0
 20 27  1  0  0  0  0
 21 25  1  0  0  0  0
 21 26  2  0  0  0  0
 22 20  1  0  0  0  0
 23 26  1  0  0  0  0
 24 27  2  0  0  0  0
 24  5  1  0  0  0  0
 25 22  1  0  0  0  0
 25 20  2  0  0  0  0
 26 24  1  0  0  0  0
M  END
>  <MODEL>
1

>  <REMARK>
 VINA RESULT:      -8.7      0.000      0.000
  Name = 
  1 active torsions:
  status: ('A' for Active; 'I' for Inactive)
    1  A    between atoms: N_9  and  C_19
                            x       y       z     vdW  Elec       q    Type
                         _______ _______ _______ _____ _____    ______ ____

>  <TORSDO>
F 1

$$$$
=
 OpenBabel11062422093D

 27 32  0  0  1  0  0  0  0  0999 V2000
  184.6630  178.1190  145.8830 C   0  0  1  0  0  3  0  0  0  0  0  0
  187.3980  176.1040  146.6760 C   0  0  0  0  0  0  0  0  0  0  0  0
  183.8210  179.0240  143.8520 C   0  0  0  0  0  3  0  0  0  0  0  0
  186.1870  177.8490  147.9410 C   0  0  0  0  0  2  0  0  0  0  0  0
  188.5620  175.5950  147.3370 N   0  0  0  0  0  2  0  0  0  0  0  0
  185.5760  177.5620  142.5610 C   0  0  0  0  0  0  0  0  0  0  0  0
  185.6690  178.7000  146.8280 C   0  0  0  0  0  0  0  0  0  0  0  0
  185.5250  177.8930  141.2100 C   0  0  0  0  0  3  0  0  0  0  0  0
  187.5560  176.5520  140.9150 C   0  0  0  0  0  3  0  0  0  0  0  0
  183.7660  179.1570  145.3230 N   0  0  0  0  0  0  0  0  0  0  0  0
  186.4090  176.7440  144.4680 C   0  0  0  0  0  0  0  0  0  0  0  0
  187.6000  176.2600  142.2910 C   0  0  0  0  0  3  0  0  0  0  0  0
  184.8190  177.9700  143.6320 C   0  0  0  0  0  0  0  0  0  0  0  0
  187.4090  176.2520  145.3800 N   0  0  0  0  0  0  0  0  0  0  0  0
  186.0900  179.8370  146.6820 O   0  0  0  0  0  0  0  0  0  0  0  0
  186.5290  177.3620  140.3800 C   0  0  0  0  0  3  0  0  0  0  0  0
  186.2020  176.3850  147.5220 C   0  0  0  0  0  2  0  0  0  0  0  0
  185.3100  177.4910  144.7550 N   0  0  0  0  0  0  0  0  0  0  0  0
  186.5810  176.7750  143.0910 C   0  0  0  0  0  0  0  0  0  0  0  0
  191.4640  174.5210  145.4780 C   0  0  0  0  0  0  0  0  0  0  0  0
  192.2210  176.6210  146.6290 C   0  0  0  0  0  3  0  0  0  0  0  0
  192.7660  174.5000  144.9550 C   0  0  0  0  0  2  0  0  0  0  0  0
  190.5330  177.5580  148.0220 F   0  0  0  0  0  0  0  0  0  0  0  0
  189.8820  175.5510  146.7820 C   0  0  0  0  0  0  0  0  0  0  0  0
  192.4300  175.5570  145.8140 C   0  0  0  0  0  0  0  0  0  0  0  0
  190.8730  176.5920  147.1340 C   0  0  0  0  0  0  0  0  0  0  0  0
  190.1850  174.4370  145.9210 C   0  0  0  0  0  3  0  0  0  0  0  0
  1 10  1  6  0  0  0
  1  7  1  0  0  0  0
  2  5  1  0  0  0  0
  2 17  1  0  0  0  0
  3 10  2  0  0  0  0
  6 19  1  0  0  0  0
  6 13  2  0  0  0  0
  7  4  1  0  0  0  0
  8  6  1  0  0  0  0
  9 12  2  0  0  0  0
 11 18  1  0  0  0  0
 11 14  1  0  0  0  0
 12 19  1  0  0  0  0
 13  3  1  0  0  0  0
 13 18  1  0  0  0  0
 14  2  2  0  0  0  0
 15  7  2  0  0  0  0
 16  9  1  0  0  0  0
 16  8  2  0  0  0  0
 17  4  1  0  0  0  0
 18  1  1  0  0  0  0
 19 11  2  0  0  0  0
 20 25  2  0  0  0  0
 20 27  1  0  0  0  0
 21 26  2  0  0  0  0
 22 20  1  0  0  0  0
 22 25  1  0  0  0  0
 24 26  1  0  0  0  0
 24  5  1  0  0  0  0
 25 21  1  0  0  0  0
 26 23  1  0  0  0  0
 27 24  2  0  0  0  0
M  END
>  <MODEL>
2

>  <REMARK>
 VINA RESULT:      -8.5      0.962      1.420
  Name = 
  1 active torsions:
  status: ('A' for Active; 'I' for Inactive)
    1  A    between atoms: N_9  and  C_19
                            x       y       z     vdW  Elec       q    Type
                         _______ _______ _______ _____ _____    ______ ____

>  <TORSDO>
F 1

$$$$
=
 OpenBabel11062422093D

 27 32  0  0  1  0  0  0  0  0999 V2000
  186.3790  178.1570  142.0870 C   0  0  1  0  0  3  0  0  0  0  0  0
  189.4950  177.8590  143.6260 C   0  0  0  0  0  0  0  0  0  0  0  0
  184.1470  178.2700  142.8990 C   0  0  0  0  0  3  0  0  0  0  0  0
  188.6430  177.1240  141.4250 C   0  0  0  0  0  2  0  0  0  0  0  0
  190.8270  177.4230  143.9210 N   0  0  0  0  0  2  0  0  0  0  0  0
  185.1210  178.4490  145.3290 C   0  0  0  0  0  0  0  0  0  0  0  0
  187.1900  176.9510  141.7250 C   0  0  0  0  0  0  0  0  0  0  0  0
  184.0670  178.4100  146.2360 C   0  0  0  0  0  3  0  0  0  0  0  0
  185.7420  178.1880  148.0110 C   0  0  0  0  0  3  0  0  0  0  0  0
  184.9590  178.0080  141.6920 N   0  0  0  0  0  0  0  0  0  0  0  0
  187.2210  178.2910  144.5790 C   0  0  0  0  0  0  0  0  0  0  0  0
  186.7870  178.1990  147.0690 C   0  0  0  0  0  3  0  0  0  0  0  0
  185.1460  178.4730  143.9560 C   0  0  0  0  0  0  0  0  0  0  0  0
  188.6110  177.9130  144.5840 N   0  0  0  0  0  0  0  0  0  0  0  0
  186.6900  175.8370  141.7050 O   0  0  0  0  0  0  0  0  0  0  0  0
  184.3950  178.2910  147.5990 C   0  0  0  0  0  3  0  0  0  0  0  0
  189.2120  178.2880  142.2270 C   0  0  0  0  0  2  0  0  0  0  0  0
  186.3820  178.3780  143.5140 N   0  0  0  0  0  0  0  0  0  0  0  0
  186.4400  178.3430  145.7260 C   0  0  0  0  0  0  0  0  0  0  0  0
  190.8280  176.0050  147.2410 C   0  0  0  0  0  0  0  0  0  0  0  0
  193.0130  175.2530  146.2570 C   0  0  0  0  0  3  0  0  0  0  0  0
  191.2470  175.2910  148.3730 C   0  0  0  0  0  2  0  0  0  0  0  0
  193.3630  176.0960  144.0580 F   0  0  0  0  0  0  0  0  0  0  0  0
  191.2260  176.6960  145.0890 C   0  0  0  0  0  0  0  0  0  0  0  0
  192.1040  175.3070  147.2630 C   0  0  0  0  0  0  0  0  0  0  0  0
  192.5310  175.9990  145.1240 C   0  0  0  0  0  0  0  0  0  0  0  0
  190.3200  176.7240  146.2090 C   0  0  0  0  0  3  0  0  0  0  0  0
  1 10  1  1  0  0  0
  1 18  1  0  0  0  0
  2  5  1  0  0  0  0
  2 14  2  0  0  0  0
  3 13  1  0  0  0  0
  4  7  1  0  0  0  0
  4 17  1  0  0  0  0
  5 24  1  0  0  0  0
  6 19  1  0  0  0  0
  6  8  1  0  0  0  0
  7  1  1  0  0  0  0
  8 16  2  0  0  0  0
 10  3  2  0  0  0  0
 11 14  1  0  0  0  0
 11 19  2  0  0  0  0
 12  9  2  0  0  0  0
 13  6  2  0  0  0  0
 15  7  2  0  0  0  0
 16  9  1  0  0  0  0
 17  2  1  0  0  0  0
 18 13  1  0  0  0  0
 18 11  1  0  0  0  0
 19 12  1  0  0  0  0
 20 25  1  0  0  0  0
 20 22  1  0  0  0  0
 21 25  2  0  0  0  0
 23 26  1  0  0  0  0
 24 26  2  0  0  0  0
 24 27  1  0  0  0  0
 25 22  1  0  0  0  0
 26 21  1  0  0  0  0
 27 20  2  0  0  0  0
M  END
>  <MODEL>
3

>  <REMARK>
 VINA RESULT:      -7.8      2.277      4.265
  Name = 
  1 active torsions:
  status: ('A' for Active; 'I' for Inactive)
    1  A    between atoms: N_9  and  C_19
                            x       y       z     vdW  Elec       q    Type
                         _______ _______ _______ _____ _____    ______ ____

>  <TORSDO>
F 1

$$$$
=
 OpenBabel11062422093D

 27 32  0  0  1  0  0  0  0  0999 V2000
  187.7030  176.4750  146.7370 C   0  0  1  0  0  3  0  0  0  0  0  0
  190.1030  174.6870  144.9460 C   0  0  0  0  0  0  0  0  0  0  0  0
  186.0010  178.0150  146.1200 C   0  0  0  0  0  3  0  0  0  0  0  0
  190.0650  175.5860  147.2480 C   0  0  0  0  0  2  0  0  0  0  0  0
  191.3540  174.1070  144.5580 N   0  0  0  0  0  2  0  0  0  0  0  0
  186.5070  177.4530  143.6080 C   0  0  0  0  0  0  0  0  0  0  0  0
  189.1350  176.7420  147.0870 C   0  0  0  0  0  0  0  0  0  0  0  0
  185.7520  178.2990  142.8000 C   0  0  0  0  0  3  0  0  0  0  0  0
  187.0600  177.4740  140.8980 C   0  0  0  0  0  3  0  0  0  0  0  0
  186.7990  177.5240  147.2630 N   0  0  0  0  0  0  0  0  0  0  0  0
  188.1450  176.0410  144.1760 C   0  0  0  0  0  0  0  0  0  0  0  0
  187.8280  176.6520  141.7430 C   0  0  0  0  0  3  0  0  0  0  0  0
  186.5460  177.2840  144.9700 C   0  0  0  0  0  0  0  0  0  0  0  0
  189.4050  175.3530  144.0680 N   0  0  0  0  0  0  0  0  0  0  0  0
  189.5520  177.8840  147.2080 O   0  0  0  0  0  0  0  0  0  0  0  0
  186.0320  178.2910  141.4220 C   0  0  0  0  0  3  0  0  0  0  0  0
  189.6410  174.4380  146.3410 C   0  0  0  0  0  2  0  0  0  0  0  0
  187.5110  176.4540  145.3050 N   0  0  0  0  0  0  0  0  0  0  0  0
  187.5160  176.6570  143.1020 C   0  0  0  0  0  0  0  0  0  0  0  0
  192.7300  174.0880  141.2200 C   0  0  0  0  0  0  0  0  0  0  0  0
  193.8530  176.0410  142.3300 C   0  0  0  0  0  3  0  0  0  0  0  0
  193.4920  174.4590  140.1010 C   0  0  0  0  0  2  0  0  0  0  0  0
  193.2090  176.2910  144.6080 F   0  0  0  0  0  0  0  0  0  0  0  0
  192.1140  174.4680  143.3970 C   0  0  0  0  0  0  0  0  0  0  0  0
  193.6330  175.2280  141.2660 C   0  0  0  0  0  0  0  0  0  0  0  0
  193.0470  175.6150  143.4440 C   0  0  0  0  0  0  0  0  0  0  0  0
  191.9490  173.6360  142.2330 C   0  0  0  0  0  3  0  0  0  0  0  0
  1  7  1  6  0  0  0
  1 10  1  0  0  0  0
  2 17  1  0  0  0  0
  3 10  2  0  0  0  0
  5  2  1  0  0  0  0
  6 13  2  0  0  0  0
  7 15  2  0  0  0  0
  7  4  1  0  0  0  0
  8  6  1  0  0  0  0
  9 16  1  0  0  0  0
  9 12  2  0  0  0  0
 11 18  1  0  0  0  0
 12 19  1  0  0  0  0
 13 18  1  0  0  0  0
 13  3  1  0  0  0  0
 14 11  1  0  0  0  0
 14  2  2  0  0  0  0
 16  8  2  0  0  0  0
 17  4  1  0  0  0  0
 18  1  1  0  0  0  0
 19  6  1  0  0  0  0
 19 11  2  0  0  0  0
 20 25  2  0  0  0  0
 20 27  1  0  0  0  0
 21 26  2  0  0  0  0
 22 20  1  0  0  0  0
 22 25  1  0  0  0  0
 24 26  1  0  0  0  0
 24  5  1  0  0  0  0
 25 21  1  0  0  0  0
 26 23  1  0  0  0  0
 27 24  2  0  0  0  0
M  END
>  <MODEL>
4

>  <REMARK>
 VINA RESULT:      -7.4      2.624      3.713
  Name = 
  1 active torsions:
  status: ('A' for Active; 'I' for Inactive)
    1  A    between atoms: N_9  and  C_19
                            x       y       z     vdW  Elec       q    Type
                         _______ _______ _______ _____ _____    ______ ____

>  <TORSDO>
F 1

$$$$
=
 OpenBabel11062422093D

 27 32  0  0  1  0  0  0  0  0999 V2000
  193.2960  174.7220  143.5620 C   0  0  1  0  0  3  0  0  0  0  0  0
  190.7000  176.9570  144.2160 C   0  0  0  0  0  0  0  0  0  0  0  0
  193.4870  172.7720  142.2150 C   0  0  0  0  0  3  0  0  0  0  0  0
  192.6320  176.2030  145.5600 C   0  0  0  0  0  2  0  0  0  0  0  0
  189.7890  177.8110  144.9170 N   0  0  0  0  0  2  0  0  0  0  0  0
  191.1120  173.3070  141.2360 C   0  0  0  0  0  0  0  0  0  0  0  0
  192.8620  174.8430  144.9900 C   0  0  0  0  0  0  0  0  0  0  0  0
  190.7230  172.2570  140.4110 C   0  0  0  0  0  3  0  0  0  0  0  0
  188.4970  173.2800  140.3380 C   0  0  0  0  0  3  0  0  0  0  0  0
  194.1150  173.5090  143.3320 N   0  0  0  0  0  0  0  0  0  0  0  0
  190.9020  175.1140  142.5350 C   0  0  0  0  0  0  0  0  0  0  0  0
  188.9100  174.3130  141.1990 C   0  0  0  0  0  3  0  0  0  0  0  0
  192.2830  173.5540  141.9120 C   0  0  0  0  0  0  0  0  0  0  0  0
  190.2370  176.0910  143.3580 N   0  0  0  0  0  0  0  0  0  0  0  0
  192.6650  173.8510  145.6750 O   0  0  0  0  0  0  0  0  0  0  0  0
  189.3940  172.2600  139.9480 C   0  0  0  0  0  3  0  0  0  0  0  0
  192.1550  177.1570  144.4720 C   0  0  0  0  0  2  0  0  0  0  0  0
  192.1580  174.6160  142.6780 N   0  0  0  0  0  0  0  0  0  0  0  0
  190.2370  174.3040  141.6240 C   0  0  0  0  0  0  0  0  0  0  0  0
  186.5820  176.8690  146.2820 C   0  0  0  0  0  0  0  0  0  0  0  0
  186.0400  177.7030  143.9760 C   0  0  0  0  0  3  0  0  0  0  0  0
  185.1990  176.6580  146.3840 C   0  0  0  0  0  2  0  0  0  0  0  0
  187.9820  178.3460  142.7570 F   0  0  0  0  0  0  0  0  0  0  0  0
  188.3790  177.5920  145.0520 C   0  0  0  0  0  0  0  0  0  0  0  0
  185.6870  177.1890  145.1810 C   0  0  0  0  0  0  0  0  0  0  0  0
  187.4660  177.8990  143.9290 C   0  0  0  0  0  0  0  0  0  0  0  0
  187.9290  177.0280  146.2990 C   0  0  0  0  0  3  0  0  0  0  0  0
  1 10  1  1  0  0  0
  1  7  1  0  0  0  0
  2 17  1  0  0  0  0
  2  5  1  0  0  0  0
  3 10  2  0  0  0  0
  5 24  1  0  0  0  0
  6 19  1  0  0  0  0
  6 13  2  0  0  0  0
  7  4  1  0  0  0  0
  7 15  2  0  0  0  0
  8  6  1  0  0  0  0
  9 12  2  0  0  0  0
 11 18  1  0  0  0  0
 11 14  1  0  0  0  0
 12 19  1  0  0  0  0
 13  3  1  0  0  0  0
 13 18  1  0  0  0  0
 14  2  2  0  0  0  0
 16  9  1  0  0  0  0
 16  8  2  0  0  0  0
 17  4  1  0  0  0  0
 18  1  1  0  0  0  0
 19 11  2  0  0  0  0
 20 27  1  0  0  0  0
 20 22  1  0  0  0  0
 21 25  1  0  0  0  0
 23 26  1  0  0  0  0
 24 27  2  0  0  0  0
 25 20  2  0  0  0  0
 25 22  1  0  0  0  0
 26 21  2  0  0  0  0
 26 24  1  0  0  0  0
M  END
>  <MODEL>
5

>  <REMARK>
 VINA RESULT:      -7.4      3.793      6.843
  Name = 
  1 active torsions:
  status: ('A' for Active; 'I' for Inactive)
    1  A    between atoms: N_9  and  C_19
                            x       y       z     vdW  Elec       q    Type
                         _______ _______ _______ _____ _____    ______ ____

>  <TORSDO>
F 1

$$$$
=
 OpenBabel11062422093D

 27 32  0  0  1  0  0  0  0  0999 V2000
  187.6930  176.4150  146.7150 C   0  0  1  0  0  3  0  0  0  0  0  0
  190.1790  174.7240  144.9450 C   0  0  0  0  0  0  0  0  0  0  0  0
  185.9650  177.9220  146.0880 C   0  0  0  0  0  3  0  0  0  0  0  0
  190.0650  175.5760  147.2630 C   0  0  0  0  0  2  0  0  0  0  0  0
  191.4530  174.1840  144.5760 N   0  0  0  0  0  2  0  0  0  0  0  0
  186.5430  177.4230  143.5780 C   0  0  0  0  0  0  0  0  0  0  0  0
  189.1080  176.7120  147.1020 C   0  0  0  0  0  0  0  0  0  0  0  0
  185.7840  178.2640  142.7690 C   0  0  0  0  0  3  0  0  0  0  0  0
  187.1560  177.5110  140.8820 C   0  0  0  0  0  3  0  0  0  0  0  0
  186.7500  177.4300  147.2390 N   0  0  0  0  0  0  0  0  0  0  0  0
  188.2030  176.0430  144.1570 C   0  0  0  0  0  0  0  0  0  0  0  0
  187.9250  176.6930  141.7290 C   0  0  0  0  0  3  0  0  0  0  0  0
  186.5550  177.2280  144.9370 C   0  0  0  0  0  0  0  0  0  0  0  0
  189.4830  175.3890  144.0650 N   0  0  0  0  0  0  0  0  0  0  0  0
  189.4930  177.8610  147.2550 O   0  0  0  0  0  0  0  0  0  0  0  0
  186.0960  178.2910  141.3980 C   0  0  0  0  0  3  0  0  0  0  0  0
  189.6910  174.4360  146.3250 C   0  0  0  0  0  2  0  0  0  0  0  0
  187.5340  176.4170  145.2790 N   0  0  0  0  0  0  0  0  0  0  0  0
  187.5830  176.6630  143.0800 C   0  0  0  0  0  0  0  0  0  0  0  0
  193.8260  175.9350  142.4920 C   0  0  0  0  0  0  0  0  0  0  0  0
  192.7420  174.2920  140.9320 C   0  0  0  0  0  3  0  0  0  0  0  0
  194.5670  176.3130  141.3620 C   0  0  0  0  0  2  0  0  0  0  0  0
  191.0420  173.0070  141.9950 F   0  0  0  0  0  0  0  0  0  0  0  0
  192.2290  174.5870  143.4400 C   0  0  0  0  0  0  0  0  0  0  0  0
  193.6220  175.2880  141.2050 C   0  0  0  0  0  0  0  0  0  0  0  0
  192.0130  173.9450  142.1240 C   0  0  0  0  0  0  0  0  0  0  0  0
  193.1720  175.6550  143.6470 C   0  0  0  0  0  3  0  0  0  0  0  0
  1  7  1  6  0  0  0
  1 10  1  0  0  0  0
  2 17  1  0  0  0  0
  3 10  2  0  0  0  0
  5  2  1  0  0  0  0
  6 13  2  0  0  0  0
  7 15  2  0  0  0  0
  7  4  1  0  0  0  0
  8  6  1  0  0  0  0
  9 16  1  0  0  0  0
  9 12  2  0  0  0  0
 11 18  1  0  0  0  0
 12 19  1  0  0  0  0
 13 18  1  0  0  0  0
 13  3  1  0  0  0  0
 14 11  1  0  0  0  0
 14  2  2  0  0  0  0
 16  8  2  0  0  0  0
 17  4  1  0  0  0  0
 18  1  1  0  0  0  0
 19  6  1  0  0  0  0
 19 11  2  0  0  0  0
 20 27  1  0  0  0  0
 21 25  1  0  0  0  0
 21 26  2  0  0  0  0
 22 20  1  0  0  0  0
 23 26  1  0  0  0  0
 24 27  2  0  0  0  0
 24  5  1  0  0  0  0
 25 22  1  0  0  0  0
 25 20  2  0  0  0  0
 26 24  1  0  0  0  0
M  END
>  <MODEL>
6

>  <REMARK>
 VINA RESULT:      -7.4      2.532      3.480
  Name = 
  1 active torsions:
  status: ('A' for Active; 'I' for Inactive)
    1  A    between atoms: N_9  and  C_19
                            x       y       z     vdW  Elec       q    Type
                         _______ _______ _______ _____ _____    ______ ____

>  <TORSDO>
F 1

$$$$
=
 OpenBabel11062422093D

 27 32  0  0  1  0  0  0  0  0999 V2000
  190.2620  175.5230  146.1850 C   0  0  1  0  0  3  0  0  0  0  0  0
  189.9140  173.4250  143.4200 C   0  0  0  0  0  0  0  0  0  0  0  0
  189.2040  177.5410  146.8610 C   0  0  0  0  0  3  0  0  0  0  0  0
  191.8370  173.9580  144.8800 C   0  0  0  0  0  2  0  0  0  0  0  0
  190.2340  172.5880  142.3030 N   0  0  0  0  0  2  0  0  0  0  0  0
  187.5140  177.2310  144.8790 C   0  0  0  0  0  0  0  0  0  0  0  0
  191.4780  175.3360  145.3310 C   0  0  0  0  0  0  0  0  0  0  0  0
  186.7000  178.3580  144.8060 C   0  0  0  0  0  3  0  0  0  0  0  0
  185.8740  177.4910  142.6660 C   0  0  0  0  0  3  0  0  0  0  0  0
  190.3930  176.6910  147.0860 N   0  0  0  0  0  0  0  0  0  0  0  0
  188.5330  175.3590  144.2040 C   0  0  0  0  0  0  0  0  0  0  0  0
  186.7310  176.3780  142.7530 C   0  0  0  0  0  3  0  0  0  0  0  0
  188.4870  176.8620  145.7750 C   0  0  0  0  0  0  0  0  0  0  0  0
  189.0320  174.3750  143.2780 N   0  0  0  0  0  0  0  0  0  0  0  0
  192.1530  176.2900  144.9760 O   0  0  0  0  0  0  0  0  0  0  0  0
  185.8600  178.4720  143.6830 C   0  0  0  0  0  3  0  0  0  0  0  0
  190.5800  173.1130  144.7170 C   0  0  0  0  0  2  0  0  0  0  0  0
  189.0890  175.7620  145.3770 N   0  0  0  0  0  0  0  0  0  0  0  0
  187.5350  176.2710  143.8860 C   0  0  0  0  0  0  0  0  0  0  0  0
  190.6740  173.4920  138.8350 C   0  0  0  0  0  0  0  0  0  0  0  0
  188.1910  173.1970  139.0770 C   0  0  0  0  0  3  0  0  0  0  0  0
  190.3720  173.7910  137.4980 C   0  0  0  0  0  2  0  0  0  0  0  0
  187.5480  172.6610  141.3060 F   0  0  0  0  0  0  0  0  0  0  0  0
  189.9560  172.8910  140.9300 C   0  0  0  0  0  0  0  0  0  0  0  0
  189.3020  173.4800  138.3500 C   0  0  0  0  0  0  0  0  0  0  0  0
  188.5610  172.8970  140.4360 C   0  0  0  0  0  0  0  0  0  0  0  0
  191.0850  173.2220  140.0990 C   0  0  0  0  0  3  0  0  0  0  0  0
  1  7  1  6  0  0  0
  1 10  1  0  0  0  0
  2 17  1  0  0  0  0
  3 10  2  0  0  0  0
  4  7  1  0  0  0  0
  5  2  1  0  0  0  0
  6 13  2  0  0  0  0
  8  6  1  0  0  0  0
  9 12  2  0  0  0  0
  9 16  1  0  0  0  0
 11 18  1  0  0  0  0
 12 19  1  0  0  0  0
 13  3  1  0  0  0  0
 14  2  2  0  0  0  0
 14 11  1  0  0  0  0
 15  7  2  0  0  0  0
 16  8  2  0  0  0  0
 17  4  1  0  0  0  0
 18 13  1  0  0  0  0
 18  1  1  0  0  0  0
 19 11  2  0  0  0  0
 19  6  1  0  0  0  0
 20 27  1  0  0  0  0
 21 26  2  0  0  0  0
 22 25  1  0  0  0  0
 22 20  1  0  0  0  0
 24  5  1  0  0  0  0
 25 20  2  0  0  0  0
 25 21  1  0  0  0  0
 26 24  1  0  0  0  0
 26 23  1  0  0  0  0
 27 24  2  0  0  0  0
M  END
>  <MODEL>
7

>  <REMARK>
 VINA RESULT:      -7.1      3.317      5.864
  Name = 
  1 active torsions:
  status: ('A' for Active; 'I' for Inactive)
    1  A    between atoms: N_9  and  C_19
                            x       y       z     vdW  Elec       q    Type
                         _______ _______ _______ _____ _____    ______ ____

>  <TORSDO>
F 1

$$$$
=
 OpenBabel11062422093D

 27 32  0  0  1  0  0  0  0  0999 V2000
  191.5890  172.7730  142.7700 C   0  0  1  0  0  3  0  0  0  0  0  0
  188.4050  174.1940  142.6730 C   0  0  0  0  0  0  0  0  0  0  0  0
  193.5020  173.1170  144.1390 C   0  0  0  0  0  3  0  0  0  0  0  0
  189.8490  173.2100  140.9240 C   0  0  0  0  0  2  0  0  0  0  0  0
  187.1970  174.7840  142.1800 N   0  0  0  0  0  2  0  0  0  0  0  0
  192.0380  174.6720  145.6640 C   0  0  0  0  0  0  0  0  0  0  0  0
  191.2040  173.4630  141.4980 C   0  0  0  0  0  0  0  0  0  0  0  0
  192.8580  175.2550  146.6250 C   0  0  0  0  0  3  0  0  0  0  0  0
  190.9670  176.7020  147.2080 C   0  0  0  0  0  3  0  0  0  0  0  0
  193.0500  172.5430  142.8550 N   0  0  0  0  0  0  0  0  0  0  0  0
  190.2470  174.3950  144.3550 C   0  0  0  0  0  0  0  0  0  0  0  0
  190.1710  176.1150  146.2070 C   0  0  0  0  0  3  0  0  0  0  0  0
  192.2900  173.7310  144.6950 C   0  0  0  0  0  0  0  0  0  0  0  0
  189.0300  174.7510  143.6730 N   0  0  0  0  0  0  0  0  0  0  0  0
  191.9640  174.2450  140.9490 O   0  0  0  0  0  0  0  0  0  0  0  0
  192.2990  176.2760  147.4140 C   0  0  0  0  0  3  0  0  0  0  0  0
  188.8500  172.9210  142.0370 C   0  0  0  0  0  2  0  0  0  0  0  0
  191.2370  173.5700  143.9230 N   0  0  0  0  0  0  0  0  0  0  0  0
  190.7370  175.0870  145.4540 C   0  0  0  0  0  0  0  0  0  0  0  0
  185.8540  177.7050  143.8230 C   0  0  0  0  0  0  0  0  0  0  0  0
  186.4240  178.5130  141.5140 C   0  0  0  0  0  3  0  0  0  0  0  0
  185.4330  179.0260  144.0350 C   0  0  0  0  0  2  0  0  0  0  0  0
  187.2800  176.7790  140.1250 F   0  0  0  0  0  0  0  0  0  0  0  0
  186.7650  176.1280  142.4270 C   0  0  0  0  0  0  0  0  0  0  0  0
  185.9480  178.7050  142.7700 C   0  0  0  0  0  0  0  0  0  0  0  0
  186.8420  177.1440  141.3550 C   0  0  0  0  0  0  0  0  0  0  0  0
  186.2270  176.4040  143.7340 C   0  0  0  0  0  3  0  0  0  0  0  0
  1  7  1  6  0  0  0
  1 10  1  0  0  0  0
  1 18  1  0  0  0  0
  2 14  2  0  0  0  0
  3 13  1  0  0  0  0
  4  7  1  0  0  0  0
  4 17  1  0  0  0  0
  5 24  1  0  0  0  0
  5  2  1  0  0  0  0
  6  8  1  0  0  0  0
  8 16  2  0  0  0  0
  9 16  1  0  0  0  0
 10  3  2  0  0  0  0
 11 19  2  0  0  0  0
 12  9  2  0  0  0  0
 13  6  2  0  0  0  0
 14 11  1  0  0  0  0
 15  7  2  0  0  0  0
 17  2  1  0  0  0  0
 18 11  1  0  0  0  0
 18 13  1  0  0  0  0
 19  6  1  0  0  0  0
 19 12  1  0  0  0  0
 20 22  1  0  0  0  0
 21 25  1  0  0  0  0
 23 26  1  0  0  0  0
 24 27  2  0  0  0  0
 25 20  2  0  0  0  0
 25 22  1  0  0  0  0
 26 21  2  0  0  0  0
 26 24  1  0  0  0  0
 27 20  1  0  0  0  0
M  END
>  <MODEL>
8

>  <REMARK>
 VINA RESULT:      -7.1      3.435      7.663
  Name = 
  1 active torsions:
  status: ('A' for Active; 'I' for Inactive)
    1  A    between atoms: N_9  and  C_19
                            x       y       z     vdW  Elec       q    Type
                         _______ _______ _______ _____ _____    ______ ____

>  <TORSDO>
F 1

$$$$
=
 OpenBabel11062422093D

 27 32  0  0  1  0  0  0  0  0999 V2000
  188.2510  176.2270  144.8000 C   0  0  1  0  0  3  0  0  0  0  0  0
  191.3050  174.8890  145.8270 C   0  0  0  0  0  0  0  0  0  0  0  0
  187.0630  176.2220  142.7410 C   0  0  0  0  0  3  0  0  0  0  0  0
  190.0290  176.8810  146.5450 C   0  0  0  0  0  2  0  0  0  0  0  0
  192.5960  174.7640  146.4340 N   0  0  0  0  0  2  0  0  0  0  0  0
  188.8340  174.5250  141.8100 C   0  0  0  0  0  0  0  0  0  0  0  0
  189.2750  177.2010  145.2960 C   0  0  0  0  0  0  0  0  0  0  0  0
  188.5800  174.3120  140.4580 C   0  0  0  0  0  3  0  0  0  0  0  0
  190.7230  173.1260  140.3520 C   0  0  0  0  0  3  0  0  0  0  0  0
  187.1640  176.8990  144.0510 N   0  0  0  0  0  0  0  0  0  0  0  0
  189.9870  174.5610  143.7250 C   0  0  0  0  0  0  0  0  0  0  0  0
  190.9670  173.3840  141.7140 C   0  0  0  0  0  3  0  0  0  0  0  0
  188.1600  175.2470  142.7640 C   0  0  0  0  0  0  0  0  0  0  0  0
  191.1440  174.5340  144.5820 N   0  0  0  0  0  0  0  0  0  0  0  0
  189.5200  178.2270  144.6800 O   0  0  0  0  0  0  0  0  0  0  0  0
  189.5410  173.5870  139.7300 C   0  0  0  0  0  3  0  0  0  0  0  0
  190.1910  175.3730  146.6910 C   0  0  0  0  0  2  0  0  0  0  0  0
  188.8390  175.2710  143.8910 N   0  0  0  0  0  0  0  0  0  0  0  0
  189.9900  174.0810  142.4220 C   0  0  0  0  0  0  0  0  0  0  0  0
  195.6130  175.5400  144.6090 C   0  0  0  0  0  0  0  0  0  0  0  0
  195.6290  173.0340  144.7730 C   0  0  0  0  0  3  0  0  0  0  0  0
  196.8210  175.3680  143.9170 C   0  0  0  0  0  2  0  0  0  0  0  0
  193.7010  172.1790  145.8770 F   0  0  0  0  0  0  0  0  0  0  0  0
  193.8360  174.6180  145.7300 C   0  0  0  0  0  0  0  0  0  0  0  0
  196.1680  174.2150  144.3780 C   0  0  0  0  0  0  0  0  0  0  0  0
  194.3960  173.2720  145.4770 C   0  0  0  0  0  0  0  0  0  0  0  0
  194.4590  175.8290  145.2600 C   0  0  0  0  0  3  0  0  0  0  0  0
  1 10  1  6  0  0  0
  1  7  1  0  0  0  0
  2  5  1  0  0  0  0
  2 17  1  0  0  0  0
  3 13  1  0  0  0  0
  3 10  2  0  0  0  0
  4 17  1  0  0  0  0
  6 19  1  0  0  0  0
  6 13  2  0  0  0  0
  7  4  1  0  0  0  0
  8  6  1  0  0  0  0
  9 12  2  0  0  0  0
 11 18  1  0  0  0  0
 11 14  1  0  0  0  0
 12 19  1  0  0  0  0
 13 18  1  0  0  0  0
 14  2  2  0  0  0  0
 15  7  2  0  0  0  0
 16  9  1  0  0  0  0
 16  8  2  0  0  0  0
 18  1  1  0  0  0  0
 19 11  2  0  0  0  0
 20 27  1  0  0  0  0
 21 26  2  0  0  0  0
 22 25  1  0  0  0  0
 22 20  1  0  0  0  0
 24  5  1  0  0  0  0
 25 20  2  0  0  0  0
 25 21  1  0  0  0  0
 26 24  1  0  0  0  0
 26 23  1  0  0  0  0
 27 24  2  0  0  0  0
M  END
>  <MODEL>
9

>  <REMARK>
 VINA RESULT:      -6.9      2.998      4.324
  Name = 
  1 active torsions:
  status: ('A' for Active; 'I' for Inactive)
    1  A    between atoms: N_9  and  C_19
                            x       y       z     vdW  Elec       q    Type
                         _______ _______ _______ _____ _____    ______ ____

>  <TORSDO>
F 1

$$$$
