=
 OpenBabel11072408423D

 36 39  0  0  1  0  0  0  0  0999 V2000
  190.1350  176.6600  143.1460 N   0  0  0  0  0  2  0  0  0  0  0  0
  190.8700  176.9350  144.3520 C   0  0  0  0  0  0  0  0  0  0  0  0
  191.7570  177.8260  144.3180 O   0  0  0  0  0  0  0  0  0  0  0  0
  190.6040  176.2760  145.6780 C   0  0  2  0  0  3  0  0  0  0  0  0
  189.2970  176.6940  146.3190 C   0  0  0  0  0  1  0  0  0  0  0  0
  191.7730  176.4030  146.6410 C   0  0  0  0  0  2  0  0  0  0  0  0
  195.4460  175.1920  145.9240 N   0  0  0  0  0  2  0  0  0  0  0  0
  192.6670  174.3040  145.7510 C   0  0  0  0  0  3  0  0  0  0  0  0
  194.9070  173.4000  144.3590 C   0  0  2  0  0  3  0  0  0  0  0  0
  193.8290  173.5910  145.3880 N   0  0  0  0  0  0  0  0  0  0  0  0
  192.9090  175.5380  146.2060 C   0  0  0  0  0  0  0  0  0  0  0  0
  195.2810  173.7560  145.6470 C   0  0  2  0  0  3  0  0  0  0  0  0
  194.5430  177.2370  146.6120 O   0  0  0  0  0  0  0  0  0  0  0  0
  194.3230  176.0440  146.2730 C   0  0  0  0  0  0  0  0  0  0  0  0
  194.9050  174.5070  143.3350 C   0  0  0  0  0  0  0  0  0  0  0  0
  196.0970  176.1310  142.0040 C   0  0  0  0  0  3  0  0  0  0  0  0
  193.7300  174.8450  142.6530 C   0  0  0  0  0  3  0  0  0  0  0  0
  194.9380  176.4590  141.3720 N   0  0  0  0  0  0  0  0  0  0  0  0
  193.7670  175.8390  141.6730 C   0  0  0  0  0  3  0  0  0  0  0  0
  196.1030  175.1440  142.9900 C   0  0  0  0  0  3  0  0  0  0  0  0
  189.2180  175.5590  142.8460 C   0  0  2  0  0  3  0  0  0  0  0  0
  190.5160  174.1760  141.3650 O   0  0  0  0  0  0  0  0  0  0  0  0
  189.9380  173.2280  143.3670 O   0  0  0  0  0  1  0  0  0  0  0  0
  189.9340  174.2950  142.4790 C   0  0  0  0  0  0  0  0  0  0  0  0
  188.1330  175.9760  141.8630 C   0  0  0  0  0  2  0  0  0  0  0  0
  186.8310  175.8950  142.5040 N   0  0  0  0  0  2  0  0  0  0  0  0
  184.9970  177.7010  141.8960 O   0  0  0  0  0  0  0  0  0  0  0  0
  186.2400  177.5090  142.7180 S   0  0  0  0  0  0  0  0  0  0  0  0
  187.2790  178.4970  142.2640 O   0  0  0  0  0  0  0  0  0  0  0  0
  185.5440  176.8930  146.6540 C   0  0  0  0  0  3  0  0  0  0  0  0
  185.8540  176.6980  145.3060 C   0  0  0  0  0  3  0  0  0  0  0  0
  185.2310  178.1730  147.1190 C   0  0  0  0  0  3  0  0  0  0  0  0
  185.5360  180.1550  144.0240 O   0  0  0  0  0  1  0  0  0  0  0  0
  185.5410  179.0640  144.8860 C   0  0  0  0  0  0  0  0  0  0  0  0
  185.2320  179.2560  146.2360 C   0  0  0  0  0  3  0  0  0  0  0  0
  185.8520  177.7780  144.4150 C   0  0  0  0  0  0  0  0  0  0  0  0
  1  2  1  0  0  0  0
  2  4  1  0  0  0  0
  3  2  2  0  0  0  0
  4  5  1  1  0  0  0
  4  6  1  0  0  0  0
  7 14  1  0  0  0  0
  8 11  2  0  0  0  0
  9 15  1  6  0  0  0
  9 10  1  0  0  0  0
  9 12  1  0  0  0  0
 10 12  1  0  0  0  0
 10  8  1  0  0  0  0
 11 14  1  0  0  0  0
 11  6  1  0  0  0  0
 12  7  1  6  0  0  0
 14 13  2  0  0  0  0
 16 20  2  0  0  0  0
 17 15  2  0  0  0  0
 18 19  2  0  0  0  0
 18 16  1  0  0  0  0
 19 17  1  0  0  0  0
 20 15  1  0  0  0  0
 21 25  1  6  0  0  0
 21  1  1  0  0  0  0
 22 24  2  0  0  0  0
 24 21  1  0  0  0  0
 24 23  1  0  0  0  0
 25 26  1  0  0  0  0
 26 28  1  0  0  0  0
 27 28  2  0  0  0  0
 28 36  1  0  0  0  0
 29 28  2  0  0  0  0
 30 32  1  0  0  0  0
 31 30  2  0  0  0  0
 33 34  1  0  0  0  0
 34 35  1  0  0  0  0
 35 32  2  0  0  0  0
 36 34  2  0  0  0  0
 36 31  1  0  0  0  0
M  END
>  <MODEL>
1

>  <REMARK>
 VINA RESULT:      -7.3      0.000      0.000
  Name = 
  10 active torsions:
  status: ('A' for Active; 'I' for Inactive)
    1  A    between atoms: N_5  and  CA_26
    2  A    between atoms: C_6  and  C_12
    3  A    between atoms: C_9  and  C_19
    4  A    between atoms: C_9  and  C_27
    5  A    between atoms: S_10  and  N_13
    6  A    between atoms: S_10  and  C_32
    7  A    between atoms: N_13  and  C_30
    8  A    between atoms: C_20  and  C_27
    9  A    between atoms: CA_26  and  C_30
   10  A    between atoms: CA_26  and  C_34
                            x       y       z     vdW  Elec       q    Type
                         _______ _______ _______ _____ _____    ______ ____

>  <TORSDO>
F 10

$$$$
=
 OpenBabel11072408423D

 36 39  0  0  1  0  0  0  0  0999 V2000
  188.9430  174.2590  143.4980 N   0  0  0  0  0  2  0  0  0  0  0  0
  189.6750  173.0250  143.3780 C   0  0  0  0  0  0  0  0  0  0  0  0
  189.3180  172.0500  144.0880 O   0  0  0  0  0  0  0  0  0  0  0  0
  190.8000  172.7980  142.4060 C   0  0  2  0  0  3  0  0  0  0  0  0
  190.5370  171.6830  141.4150 C   0  0  0  0  0  1  0  0  0  0  0  0
  192.1450  172.6360  143.0950 C   0  0  0  0  0  2  0  0  0  0  0  0
  193.3170  176.3840  143.3240 N   0  0  0  0  0  2  0  0  0  0  0  0
  192.6980  174.0720  145.0010 C   0  0  0  0  0  3  0  0  0  0  0  0
  194.2820  176.2960  145.5630 C   0  0  2  0  0  3  0  0  0  0  0  0
  193.1220  175.3530  145.4130 N   0  0  0  0  0  0  0  0  0  0  0  0
  192.5980  173.9350  143.6740 C   0  0  0  0  0  0  0  0  0  0  0  0
  193.2170  176.6830  144.7620 C   0  0  2  0  0  3  0  0  0  0  0  0
  192.9420  174.9340  141.5280 O   0  0  0  0  0  0  0  0  0  0  0  0
  192.9450  175.0910  142.7770 C   0  0  0  0  0  0  0  0  0  0  0  0
  195.5090  175.7920  144.8430 C   0  0  0  0  0  0  0  0  0  0  0  0
  197.2590  176.1130  143.2110 C   0  0  0  0  0  3  0  0  0  0  0  0
  196.1280  174.6010  145.2380 C   0  0  0  0  0  3  0  0  0  0  0  0
  197.8280  174.9390  143.5960 N   0  0  0  0  0  0  0  0  0  0  0  0
  197.2920  174.1840  144.5900 C   0  0  0  0  0  3  0  0  0  0  0  0
  196.0940  176.5640  143.8330 C   0  0  0  0  0  3  0  0  0  0  0  0
  189.2610  175.5850  142.9670 C   0  0  2  0  0  3  0  0  0  0  0  0
  189.9070  177.7610  143.7620 O   0  0  0  0  0  0  0  0  0  0  0  0
  189.7800  176.1160  145.3490 O   0  0  0  0  0  1  0  0  0  0  0  0
  189.6590  176.5560  144.0370 C   0  0  0  0  0  0  0  0  0  0  0  0
  188.1780  176.0940  142.0260 C   0  0  0  0  0  2  0  0  0  0  0  0
  186.8710  175.9040  142.6320 N   0  0  0  0  0  2  0  0  0  0  0  0
  184.8060  177.5220  142.3000 O   0  0  0  0  0  0  0  0  0  0  0  0
  186.1780  177.4670  142.9110 S   0  0  0  0  0  0  0  0  0  0  0  0
  187.0350  178.5260  142.2740 O   0  0  0  0  0  0  0  0  0  0  0  0
  186.2060  176.9300  146.9180 C   0  0  0  0  0  3  0  0  0  0  0  0
  186.3100  176.7170  145.5410 C   0  0  0  0  0  3  0  0  0  0  0  0
  185.8370  178.1860  147.4040 C   0  0  0  0  0  3  0  0  0  0  0  0
  185.4160  180.0730  144.2630 O   0  0  0  0  0  1  0  0  0  0  0  0
  185.6800  179.0210  145.1330 C   0  0  0  0  0  0  0  0  0  0  0  0
  185.5760  179.2310  146.5120 C   0  0  0  0  0  3  0  0  0  0  0  0
  186.0460  177.7570  144.6430 C   0  0  0  0  0  0  0  0  0  0  0  0
  2  1  1  0  0  0  0
  2  3  2  0  0  0  0
  4  5  1  1  0  0  0
  4  6  1  0  0  0  0
  4  2  1  0  0  0  0
  6 11  1  0  0  0  0
  8 10  1  0  0  0  0
  9 15  1  6  0  0  0
 10  9  1  0  0  0  0
 11  8  2  0  0  0  0
 12  7  1  6  0  0  0
 12 10  1  0  0  0  0
 12  9  1  0  0  0  0
 13 14  2  0  0  0  0
 14  7  1  0  0  0  0
 14 11  1  0  0  0  0
 15 17  1  0  0  0  0
 16 18  2  0  0  0  0
 16 20  1  0  0  0  0
 18 19  1  0  0  0  0
 19 17  2  0  0  0  0
 20 15  2  0  0  0  0
 21 25  1  1  0  0  0
 21  1  1  0  0  0  0
 21 24  1  0  0  0  0
 22 24  2  0  0  0  0
 24 23  1  0  0  0  0
 25 26  1  0  0  0  0
 26 28  1  0  0  0  0
 27 28  2  0  0  0  0
 28 36  1  0  0  0  0
 29 28  2  0  0  0  0
 30 32  1  0  0  0  0
 31 30  2  0  0  0  0
 33 34  1  0  0  0  0
 34 35  1  0  0  0  0
 35 32  2  0  0  0  0
 36 34  2  0  0  0  0
 36 31  1  0  0  0  0
M  END
>  <MODEL>
2

>  <REMARK>
 VINA RESULT:      -7.2      1.699      3.188
  Name = 
  10 active torsions:
  status: ('A' for Active; 'I' for Inactive)
    1  A    between atoms: N_5  and  CA_26
    2  A    between atoms: C_6  and  C_12
    3  A    between atoms: C_9  and  C_19
    4  A    between atoms: C_9  and  C_27
    5  A    between atoms: S_10  and  N_13
    6  A    between atoms: S_10  and  C_32
    7  A    between atoms: N_13  and  C_30
    8  A    between atoms: C_20  and  C_27
    9  A    between atoms: CA_26  and  C_30
   10  A    between atoms: CA_26  and  C_34
                            x       y       z     vdW  Elec       q    Type
                         _______ _______ _______ _____ _____    ______ ____

>  <TORSDO>
F 10

$$$$
=
 OpenBabel11072408423D

 36 39  0  0  1  0  0  0  0  0999 V2000
  189.4570  174.5940  146.2980 N   0  0  0  0  0  2  0  0  0  0  0  0
  189.6510  173.7600  145.1400 C   0  0  0  0  0  0  0  0  0  0  0  0
  189.4660  172.5220  145.2620 O   0  0  0  0  0  0  0  0  0  0  0  0
  189.9940  174.2760  143.7700 C   0  0  2  0  0  3  0  0  0  0  0  0
  188.9570  173.9490  142.7150 C   0  0  0  0  0  1  0  0  0  0  0  0
  191.3940  173.8830  143.3290 C   0  0  0  0  0  2  0  0  0  0  0  0
  193.6290  176.6910  144.9380 N   0  0  0  0  0  2  0  0  0  0  0  0
  193.1090  173.8190  145.0770 C   0  0  0  0  0  3  0  0  0  0  0  0
  195.3750  175.2500  145.8470 C   0  0  2  0  0  3  0  0  0  0  0  0
  194.0340  174.5700  145.8310 N   0  0  0  0  0  0  0  0  0  0  0  0
  192.4200  174.5430  144.1880 C   0  0  0  0  0  0  0  0  0  0  0  0
  194.2440  176.0160  146.0920 C   0  0  2  0  0  3  0  0  0  0  0  0
  192.1070  176.6820  143.1620 O   0  0  0  0  0  0  0  0  0  0  0  0
  192.6870  176.0180  144.0610 C   0  0  0  0  0  0  0  0  0  0  0  0
  195.9640  175.3550  144.4620 C   0  0  0  0  0  0  0  0  0  0  0  0
  196.6530  174.3160  142.3950 C   0  0  0  0  0  3  0  0  0  0  0  0
  196.2340  176.6070  143.8960 C   0  0  0  0  0  3  0  0  0  0  0  0
  196.9300  175.5420  141.8750 N   0  0  0  0  0  0  0  0  0  0  0  0
  196.7300  176.6780  142.5930 C   0  0  0  0  0  3  0  0  0  0  0  0
  196.1560  174.2010  143.6940 C   0  0  0  0  0  3  0  0  0  0  0  0
  189.8000  176.0030  146.4960 C   0  0  2  0  0  3  0  0  0  0  0  0
  191.0090  177.3550  148.0760 O   0  0  0  0  0  0  0  0  0  0  0  0
  191.4940  175.1180  148.0990 O   0  0  0  0  0  1  0  0  0  0  0  0
  190.7900  176.2070  147.6030 C   0  0  0  0  0  0  0  0  0  0  0  0
  188.5590  176.8800  146.5930 C   0  0  0  0  0  2  0  0  0  0  0  0
  187.3720  176.0860  146.3230 N   0  0  0  0  0  2  0  0  0  0  0  0
  186.3680  178.5110  146.6490 O   0  0  0  0  0  0  0  0  0  0  0  0
  186.0550  177.1740  146.0380 S   0  0  0  0  0  0  0  0  0  0  0  0
  184.8010  176.6340  146.6690 O   0  0  0  0  0  0  0  0  0  0  0  0
  186.4830  176.8590  142.0290 C   0  0  0  0  0  3  0  0  0  0  0  0
  186.6540  176.7040  143.4070 C   0  0  0  0  0  3  0  0  0  0  0  0
  185.4730  177.6900  141.5410 C   0  0  0  0  0  3  0  0  0  0  0  0
  183.9540  178.8900  144.6800 O   0  0  0  0  0  1  0  0  0  0  0  0
  184.8010  178.2110  143.8120 C   0  0  0  0  0  0  0  0  0  0  0  0
  184.6320  178.3640  142.4320 C   0  0  0  0  0  3  0  0  0  0  0  0
  185.8190  177.3790  144.3040 C   0  0  0  0  0  0  0  0  0  0  0  0
  1 21  1  0  0  0  0
  2  3  2  0  0  0  0
  2  1  1  0  0  0  0
  4  5  1  6  0  0  0
  4  2  1  0  0  0  0
  6  4  1  0  0  0  0
  6 11  1  0  0  0  0
  8 10  1  0  0  0  0
  9 15  1  6  0  0  0
  9 12  1  0  0  0  0
 10  9  1  0  0  0  0
 10 12  1  0  0  0  0
 11  8  2  0  0  0  0
 12  7  1  6  0  0  0
 13 14  2  0  0  0  0
 14 11  1  0  0  0  0
 14  7  1  0  0  0  0
 16 20  1  0  0  0  0
 17 15  1  0  0  0  0
 18 16  2  0  0  0  0
 18 19  1  0  0  0  0
 19 17  2  0  0  0  0
 20 15  2  0  0  0  0
 21 25  1  1  0  0  0
 21 24  1  0  0  0  0
 24 22  2  0  0  0  0
 24 23  1  0  0  0  0
 26 25  1  0  0  0  0
 28 26  1  0  0  0  0
 28 27  2  0  0  0  0
 28 29  2  0  0  0  0
 30 31  1  0  0  0  0
 31 36  2  0  0  0  0
 32 30  2  0  0  0  0
 32 35  1  0  0  0  0
 34 36  1  0  0  0  0
 34 33  1  0  0  0  0
 35 34  2  0  0  0  0
 36 28  1  0  0  0  0
M  END
>  <MODEL>
3

>  <REMARK>
 VINA RESULT:      -6.9      2.258      3.750
  Name = 
  10 active torsions:
  status: ('A' for Active; 'I' for Inactive)
    1  A    between atoms: N_5  and  CA_26
    2  A    between atoms: C_6  and  C_12
    3  A    between atoms: C_9  and  C_19
    4  A    between atoms: C_9  and  C_27
    5  A    between atoms: S_10  and  N_13
    6  A    between atoms: S_10  and  C_32
    7  A    between atoms: N_13  and  C_30
    8  A    between atoms: C_20  and  C_27
    9  A    between atoms: CA_26  and  C_30
   10  A    between atoms: CA_26  and  C_34
                            x       y       z     vdW  Elec       q    Type
                         _______ _______ _______ _____ _____    ______ ____

>  <TORSDO>
F 10

$$$$
=
 OpenBabel11072408423D

 36 39  0  0  1  0  0  0  0  0999 V2000
  190.0990  173.7800  142.0710 N   0  0  0  0  0  2  0  0  0  0  0  0
  191.0100  173.2740  143.0640 C   0  0  0  0  0  0  0  0  0  0  0  0
  192.1700  172.9540  142.6970 O   0  0  0  0  0  0  0  0  0  0  0  0
  190.6930  173.1660  144.5300 C   0  0  2  0  0  3  0  0  0  0  0  0
  189.6350  172.1320  144.8530 C   0  0  0  0  0  1  0  0  0  0  0  0
  190.3810  174.5120  145.1630 C   0  0  0  0  0  2  0  0  0  0  0  0
  193.2740  177.1740  145.0250 N   0  0  0  0  0  2  0  0  0  0  0  0
  192.3730  174.8470  146.5470 C   0  0  0  0  0  3  0  0  0  0  0  0
  194.9310  175.9330  146.3160 C   0  0  2  0  0  3  0  0  0  0  0  0
  193.5270  175.6290  146.7610 N   0  0  0  0  0  0  0  0  0  0  0  0
  191.6400  175.2390  145.4990 C   0  0  0  0  0  0  0  0  0  0  0  0
  193.9940  176.9570  146.2900 C   0  0  2  0  0  3  0  0  0  0  0  0
  191.4530  176.7190  143.6290 O   0  0  0  0  0  0  0  0  0  0  0  0
  192.0920  176.4090  144.6690 C   0  0  0  0  0  0  0  0  0  0  0  0
  195.2490  175.2860  144.9910 C   0  0  0  0  0  0  0  0  0  0  0  0
  196.1010  175.4390  142.7370 C   0  0  0  0  0  3  0  0  0  0  0  0
  195.1280  173.9010  144.8260 C   0  0  0  0  0  3  0  0  0  0  0  0
  195.9520  174.0950  142.5930 N   0  0  0  0  0  0  0  0  0  0  0  0
  195.4790  173.3220  143.6060 C   0  0  0  0  0  3  0  0  0  0  0  0
  195.7600  176.0570  143.9410 C   0  0  0  0  0  3  0  0  0  0  0  0
  188.6590  174.0230  142.1680 C   0  0  2  0  0  3  0  0  0  0  0  0
  188.0340  172.9430  140.1120 O   0  0  0  0  0  0  0  0  0  0  0  0
  186.8760  172.2890  141.9760 O   0  0  0  0  0  1  0  0  0  0  0  0
  187.8530  173.0560  141.3550 C   0  0  0  0  0  0  0  0  0  0  0  0
  188.3120  175.4870  141.9300 C   0  0  0  0  0  2  0  0  0  0  0  0
  186.9650  175.7570  142.4020 N   0  0  0  0  0  2  0  0  0  0  0  0
  186.0470  178.1190  141.6440 O   0  0  0  0  0  0  0  0  0  0  0  0
  186.8450  177.4540  142.7300 S   0  0  0  0  0  0  0  0  0  0  0  0
  188.2180  178.0650  142.7680 O   0  0  0  0  0  0  0  0  0  0  0  0
  185.2230  176.8070  146.3780 C   0  0  0  0  0  3  0  0  0  0  0  0
  185.8710  176.6270  145.1530 C   0  0  0  0  0  3  0  0  0  0  0  0
  184.7320  178.0670  146.7290 C   0  0  0  0  0  3  0  0  0  0  0  0
  185.6880  180.0570  143.7740 O   0  0  0  0  0  1  0  0  0  0  0  0
  185.5400  178.9690  144.6290 C   0  0  0  0  0  0  0  0  0  0  0  0
  184.8920  179.1470  145.8560 C   0  0  0  0  0  3  0  0  0  0  0  0
  186.0300  177.7030  144.2720 C   0  0  0  0  0  0  0  0  0  0  0  0
  1 21  1  0  0  0  0
  1  2  1  0  0  0  0
  2  4  1  0  0  0  0
  3  2  2  0  0  0  0
  4  5  1  6  0  0  0
  4  6  1  0  0  0  0
  6 11  1  0  0  0  0
  8 10  1  0  0  0  0
  9 15  1  6  0  0  0
  9 10  1  0  0  0  0
 11  8  2  0  0  0  0
 12  7  1  6  0  0  0
 12  9  1  0  0  0  0
 12 10  1  0  0  0  0
 13 14  2  0  0  0  0
 14  7  1  0  0  0  0
 14 11  1  0  0  0  0
 16 20  1  0  0  0  0
 17 15  1  0  0  0  0
 18 16  2  0  0  0  0
 18 19  1  0  0  0  0
 19 17  2  0  0  0  0
 20 15  2  0  0  0  0
 21 25  1  6  0  0  0
 22 24  2  0  0  0  0
 24 23  1  0  0  0  0
 24 21  1  0  0  0  0
 25 26  1  0  0  0  0
 26 28  1  0  0  0  0
 27 28  2  0  0  0  0
 28 29  2  0  0  0  0
 28 36  1  0  0  0  0
 30 32  1  0  0  0  0
 31 30  2  0  0  0  0
 33 34  1  0  0  0  0
 34 35  1  0  0  0  0
 35 32  2  0  0  0  0
 36 34  2  0  0  0  0
 36 31  1  0  0  0  0
M  END
>  <MODEL>
4

>  <REMARK>
 VINA RESULT:      -6.9      1.736      2.538
  Name = 
  10 active torsions:
  status: ('A' for Active; 'I' for Inactive)
    1  A    between atoms: N_5  and  CA_26
    2  A    between atoms: C_6  and  C_12
    3  A    between atoms: C_9  and  C_19
    4  A    between atoms: C_9  and  C_27
    5  A    between atoms: S_10  and  N_13
    6  A    between atoms: S_10  and  C_32
    7  A    between atoms: N_13  and  C_30
    8  A    between atoms: C_20  and  C_27
    9  A    between atoms: CA_26  and  C_30
   10  A    between atoms: CA_26  and  C_34
                            x       y       z     vdW  Elec       q    Type
                         _______ _______ _______ _____ _____    ______ ____

>  <TORSDO>
F 10

$$$$
=
 OpenBabel11072408423D

 36 39  0  0  1  0  0  0  0  0999 V2000
  189.5280  174.1630  145.9260 N   0  0  0  0  0  2  0  0  0  0  0  0
  189.8060  173.2060  144.8870 C   0  0  0  0  0  0  0  0  0  0  0  0
  189.6350  171.9860  145.1420 O   0  0  0  0  0  0  0  0  0  0  0  0
  190.2220  173.5690  143.4890 C   0  0  2  0  0  3  0  0  0  0  0  0
  189.3560  172.9490  142.4110 C   0  0  0  0  0  1  0  0  0  0  0  0
  191.7010  173.3250  143.2360 C   0  0  0  0  0  2  0  0  0  0  0  0
  193.3680  176.6000  144.6420 N   0  0  0  0  0  2  0  0  0  0  0  0
  193.2110  173.7210  145.1230 C   0  0  0  0  0  3  0  0  0  0  0  0
  195.1760  175.5430  145.8930 C   0  0  2  0  0  3  0  0  0  0  0  0
  193.9440  174.6830  145.8490 N   0  0  0  0  0  0  0  0  0  0  0  0
  192.5340  174.2260  144.0860 C   0  0  0  0  0  0  0  0  0  0  0  0
  193.9360  176.1650  145.9280 C   0  0  2  0  0  3  0  0  0  0  0  0
  192.0610  176.1550  142.7530 O   0  0  0  0  0  0  0  0  0  0  0  0
  192.6210  175.6960  143.7830 C   0  0  0  0  0  0  0  0  0  0  0  0
  195.8930  175.5600  144.5650 C   0  0  0  0  0  0  0  0  0  0  0  0
  196.8340  176.7830  142.7090 C   0  0  0  0  0  3  0  0  0  0  0  0
  196.4160  174.3800  144.0230 C   0  0  0  0  0  3  0  0  0  0  0  0
  197.3120  175.6210  142.1890 N   0  0  0  0  0  0  0  0  0  0  0  0
  197.1200  174.4310  142.8190 C   0  0  0  0  0  3  0  0  0  0  0  0
  196.1240  176.7750  143.9100 C   0  0  0  0  0  3  0  0  0  0  0  0
  189.8340  175.5930  145.9790 C   0  0  2  0  0  3  0  0  0  0  0  0
  190.4690  177.1800  147.6720 O   0  0  0  0  0  0  0  0  0  0  0  0
  191.2360  175.0430  147.9680 O   0  0  0  0  0  1  0  0  0  0  0  0
  190.5180  175.9920  147.2520 C   0  0  0  0  0  0  0  0  0  0  0  0
  188.6230  176.4460  145.6220 C   0  0  0  0  0  2  0  0  0  0  0  0
  189.0240  177.5170  144.7250 N   0  0  0  0  0  2  0  0  0  0  0  0
  187.8680  176.0340  142.8650 O   0  0  0  0  0  0  0  0  0  0  0  0
  187.9980  177.4570  143.3300 S   0  0  0  0  0  0  0  0  0  0  0  0
  188.5970  178.2770  142.2210 O   0  0  0  0  0  0  0  0  0  0  0  0
  184.9060  179.0910  145.3610 C   0  0  0  0  0  3  0  0  0  0  0  0
  186.1700  178.6030  145.0170 C   0  0  0  0  0  3  0  0  0  0  0  0
  183.8660  179.0530  144.4290 C   0  0  0  0  0  3  0  0  0  0  0  0
  185.5560  177.5210  141.5310 O   0  0  0  0  0  1  0  0  0  0  0  0
  185.3540  178.0390  142.8060 C   0  0  0  0  0  0  0  0  0  0  0  0
  184.0910  178.5290  143.1530 C   0  0  0  0  0  3  0  0  0  0  0  0
  186.4000  178.0730  143.7420 C   0  0  0  0  0  0  0  0  0  0  0  0
  1 21  1  0  0  0  0
  2  3  2  0  0  0  0
  2  1  1  0  0  0  0
  4  5  1  6  0  0  0
  4  2  1  0  0  0  0
  6  4  1  0  0  0  0
  6 11  1  0  0  0  0
  8 10  1  0  0  0  0
  9 15  1  6  0  0  0
  9 12  1  0  0  0  0
 10  9  1  0  0  0  0
 10 12  1  0  0  0  0
 11  8  2  0  0  0  0
 12  7  1  6  0  0  0
 13 14  2  0  0  0  0
 14 11  1  0  0  0  0
 14  7  1  0  0  0  0
 16 20  1  0  0  0  0
 17 15  1  0  0  0  0
 18 16  2  0  0  0  0
 18 19  1  0  0  0  0
 19 17  2  0  0  0  0
 20 15  2  0  0  0  0
 21 25  1  1  0  0  0
 21 24  1  0  0  0  0
 24 22  2  0  0  0  0
 24 23  1  0  0  0  0
 26 25  1  0  0  0  0
 27 28  2  0  0  0  0
 28 36  1  0  0  0  0
 28 26  1  0  0  0  0
 29 28  2  0  0  0  0
 31 30  1  0  0  0  0
 32 30  2  0  0  0  0
 33 34  1  0  0  0  0
 34 35  2  0  0  0  0
 34 36  1  0  0  0  0
 35 32  1  0  0  0  0
 36 31  2  0  0  0  0
M  END
>  <MODEL>
5

>  <REMARK>
 VINA RESULT:      -6.8      2.043      3.498
  Name = 
  10 active torsions:
  status: ('A' for Active; 'I' for Inactive)
    1  A    between atoms: N_5  and  CA_26
    2  A    between atoms: C_6  and  C_12
    3  A    between atoms: C_9  and  C_19
    4  A    between atoms: C_9  and  C_27
    5  A    between atoms: S_10  and  N_13
    6  A    between atoms: S_10  and  C_32
    7  A    between atoms: N_13  and  C_30
    8  A    between atoms: C_20  and  C_27
    9  A    between atoms: CA_26  and  C_30
   10  A    between atoms: CA_26  and  C_34
                            x       y       z     vdW  Elec       q    Type
                         _______ _______ _______ _____ _____    ______ ____

>  <TORSDO>
F 10

$$$$
=
 OpenBabel11072408423D

 36 39  0  0  1  0  0  0  0  0999 V2000
  190.4310  172.8800  141.7100 N   0  0  0  0  0  2  0  0  0  0  0  0
  189.0310  173.0380  142.0050 C   0  0  0  0  0  0  0  0  0  0  0  0
  188.4270  172.0790  142.5490 O   0  0  0  0  0  0  0  0  0  0  0  0
  188.2520  174.3020  141.7690 C   0  0  2  0  0  3  0  0  0  0  0  0
  188.2070  174.7320  140.3170 C   0  0  0  0  0  1  0  0  0  0  0  0
  188.6860  175.4370  142.6820 C   0  0  0  0  0  2  0  0  0  0  0  0
  186.8640  178.8940  143.1380 N   0  0  0  0  0  2  0  0  0  0  0  0
  186.3150  176.0500  142.7450 C   0  0  0  0  0  3  0  0  0  0  0  0
  184.6900  178.0360  143.8350 C   0  0  2  0  0  3  0  0  0  0  0  0
  185.3850  177.1010  142.8850 N   0  0  0  0  0  0  0  0  0  0  0  0
  187.5920  176.4410  142.8270 C   0  0  0  0  0  0  0  0  0  0  0  0
  185.4620  178.5820  142.8190 C   0  0  2  0  0  3  0  0  0  0  0  0
  189.1100  178.2440  143.2370 O   0  0  0  0  0  0  0  0  0  0  0  0
  187.9130  177.8910  143.0670 C   0  0  0  0  0  0  0  0  0  0  0  0
  185.3170  178.0070  145.2070 C   0  0  0  0  0  0  0  0  0  0  0  0
  186.0850  179.1620  147.1830 C   0  0  0  0  0  3  0  0  0  0  0  0
  185.5800  176.7890  145.8450 C   0  0  0  0  0  3  0  0  0  0  0  0
  186.3540  177.9670  147.7730 N   0  0  0  0  0  0  0  0  0  0  0  0
  186.1120  176.7910  147.1350 C   0  0  0  0  0  3  0  0  0  0  0  0
  185.5530  179.2030  145.8930 C   0  0  0  0  0  3  0  0  0  0  0  0
  191.3140  173.7270  140.9070 C   0  0  2  0  0  3  0  0  0  0  0  0
  191.1240  173.5170  138.5180 O   0  0  0  0  0  0  0  0  0  0  0  0
  192.5690  172.0630  139.5370 O   0  0  0  0  0  1  0  0  0  0  0  0
  191.6610  173.1120  139.5850 C   0  0  0  0  0  0  0  0  0  0  0  0
  192.5140  174.2170  141.7070 C   0  0  0  0  0  2  0  0  0  0  0  0
  192.4470  173.6960  143.0610 N   0  0  0  0  0  2  0  0  0  0  0  0
  192.7010  176.3050  143.4140 O   0  0  0  0  0  0  0  0  0  0  0  0
  192.7900  174.9980  144.1520 S   0  0  0  0  0  0  0  0  0  0  0  0
  194.1790  174.8480  144.7060 O   0  0  0  0  0  0  0  0  0  0  0  0
  189.5380  174.1700  146.4090 C   0  0  0  0  0  3  0  0  0  0  0  0
  190.4830  174.1770  145.3800 C   0  0  0  0  0  3  0  0  0  0  0  0
  189.7190  174.9850  147.5280 C   0  0  0  0  0  3  0  0  0  0  0  0
  192.9100  176.6390  146.7000 O   0  0  0  0  0  1  0  0  0  0  0  0
  191.7950  175.8160  146.5900 C   0  0  0  0  0  0  0  0  0  0  0  0
  190.8470  175.8060  147.6190 C   0  0  0  0  0  3  0  0  0  0  0  0
  191.6130  174.9990  145.4620 C   0  0  0  0  0  0  0  0  0  0  0  0
  1  2  1  0  0  0  0
  2  3  2  0  0  0  0
  4  5  1  6  0  0  0
  4  2  1  0  0  0  0
  4  6  1  0  0  0  0
  6 11  1  0  0  0  0
  8 11  2  0  0  0  0
  8 10  1  0  0  0  0
  9 15  1  1  0  0  0
 10  9  1  0  0  0  0
 11 14  1  0  0  0  0
 12 10  1  0  0  0  0
 12  7  1  1  0  0  0
 12  9  1  0  0  0  0
 14  7  1  0  0  0  0
 14 13  2  0  0  0  0
 15 17  2  0  0  0  0
 15 20  1  0  0  0  0
 16 18  1  0  0  0  0
 17 19  1  0  0  0  0
 19 18  2  0  0  0  0
 20 16  2  0  0  0  0
 21 25  1  1  0  0  0
 21  1  1  0  0  0  0
 22 24  2  0  0  0  0
 23 24  1  0  0  0  0
 24 21  1  0  0  0  0
 25 26  1  0  0  0  0
 26 28  1  0  0  0  0
 27 28  2  0  0  0  0
 28 29  2  0  0  0  0
 28 36  1  0  0  0  0
 30 32  1  0  0  0  0
 31 36  1  0  0  0  0
 31 30  2  0  0  0  0
 32 35  2  0  0  0  0
 34 33  1  0  0  0  0
 34 35  1  0  0  0  0
 36 34  2  0  0  0  0
M  END
>  <MODEL>
6

>  <REMARK>
 VINA RESULT:      -6.8      2.793      7.578
  Name = 
  10 active torsions:
  status: ('A' for Active; 'I' for Inactive)
    1  A    between atoms: N_5  and  CA_26
    2  A    between atoms: C_6  and  C_12
    3  A    between atoms: C_9  and  C_19
    4  A    between atoms: C_9  and  C_27
    5  A    between atoms: S_10  and  N_13
    6  A    between atoms: S_10  and  C_32
    7  A    between atoms: N_13  and  C_30
    8  A    between atoms: C_20  and  C_27
    9  A    between atoms: CA_26  and  C_30
   10  A    between atoms: CA_26  and  C_34
                            x       y       z     vdW  Elec       q    Type
                         _______ _______ _______ _____ _____    ______ ____

>  <TORSDO>
F 10

$$$$
=
 OpenBabel11072408423D

 36 39  0  0  1  0  0  0  0  0999 V2000
  190.6120  176.1570  142.6600 N   0  0  0  0  0  2  0  0  0  0  0  0
  191.6540  176.8560  143.3660 C   0  0  0  0  0  0  0  0  0  0  0  0
  192.0760  177.9380  142.8820 O   0  0  0  0  0  0  0  0  0  0  0  0
  192.2270  176.4180  144.6850 C   0  0  2  0  0  3  0  0  0  0  0  0
  191.2670  176.5620  145.8480 C   0  0  0  0  0  1  0  0  0  0  0  0
  193.5740  177.0580  144.9800 C   0  0  0  0  0  2  0  0  0  0  0  0
  196.4960  174.6720  143.8670 N   0  0  0  0  0  2  0  0  0  0  0  0
  194.9330  175.4370  146.2150 C   0  0  0  0  0  3  0  0  0  0  0  0
  196.3690  173.0980  145.7260 C   0  0  2  0  0  3  0  0  0  0  0  0
  195.9740  174.4880  146.1380 N   0  0  0  0  0  0  0  0  0  0  0  0
  194.6450  176.0210  145.0460 C   0  0  0  0  0  0  0  0  0  0  0  0
  197.0290  174.1710  145.1430 C   0  0  2  0  0  3  0  0  0  0  0  0
  195.0680  176.1060  142.6930 O   0  0  0  0  0  0  0  0  0  0  0  0
  195.4020  175.6260  143.8090 C   0  0  0  0  0  0  0  0  0  0  0  0
  195.3010  172.4390  144.8890 C   0  0  0  0  0  0  0  0  0  0  0  0
  194.6530  171.1760  142.9350 C   0  0  0  0  0  3  0  0  0  0  0  0
  193.9850  172.3470  145.3560 C   0  0  0  0  0  3  0  0  0  0  0  0
  193.3760  171.1200  143.3990 N   0  0  0  0  0  0  0  0  0  0  0  0
  193.0270  171.6860  144.5850 C   0  0  0  0  0  3  0  0  0  0  0  0
  195.6400  171.8280  143.6760 C   0  0  0  0  0  3  0  0  0  0  0  0
  190.0920  174.8050  142.8710 C   0  0  2  0  0  3  0  0  0  0  0  0
  191.7650  173.5890  141.6420 O   0  0  0  0  0  1  0  0  0  0  0  0
  189.5970  173.2340  140.9980 O   0  0  0  0  0  0  0  0  0  0  0  0
  190.5410  173.8410  141.8150 C   0  0  0  0  0  0  0  0  0  0  0  0
  188.5900  174.8080  143.1230 C   0  0  0  0  0  2  0  0  0  0  0  0
  188.2680  175.7620  144.1710 N   0  0  0  0  0  2  0  0  0  0  0  0
  186.2070  176.1240  142.5550 O   0  0  0  0  0  0  0  0  0  0  0  0
  187.0650  176.8450  143.5560 S   0  0  0  0  0  0  0  0  0  0  0  0
  187.7280  178.0110  142.8760 O   0  0  0  0  0  0  0  0  0  0  0  0
  185.5590  177.4940  147.2530 C   0  0  0  0  0  3  0  0  0  0  0  0
  186.3580  177.0550  146.1940 C   0  0  0  0  0  3  0  0  0  0  0  0
  184.4460  178.2990  146.9990 C   0  0  0  0  0  3  0  0  0  0  0  0
  184.6030  178.6030  143.3270 O   0  0  0  0  0  1  0  0  0  0  0  0
  184.9310  178.2270  144.6250 C   0  0  0  0  0  0  0  0  0  0  0  0
  184.1340  178.6660  145.6870 C   0  0  0  0  0  3  0  0  0  0  0  0
  186.0490  177.4150  144.8770 C   0  0  0  0  0  0  0  0  0  0  0  0
  1 21  1  0  0  0  0
  1  2  1  0  0  0  0
  2  4  1  0  0  0  0
  3  2  2  0  0  0  0
  4  6  1  0  0  0  0
  4  5  1  1  0  0  0
  6 11  1  0  0  0  0
  9 15  1  6  0  0  0
  9 10  1  0  0  0  0
 10  8  1  0  0  0  0
 11  8  2  0  0  0  0
 12  7  1  6  0  0  0
 12  9  1  0  0  0  0
 12 10  1  0  0  0  0
 13 14  2  0  0  0  0
 14  7  1  0  0  0  0
 14 11  1  0  0  0  0
 15 17  1  0  0  0  0
 16 18  2  0  0  0  0
 16 20  1  0  0  0  0
 18 19  1  0  0  0  0
 19 17  2  0  0  0  0
 20 15  2  0  0  0  0
 21 25  1  6  0  0  0
 22 24  1  0  0  0  0
 23 24  2  0  0  0  0
 24 21  1  0  0  0  0
 25 26  1  0  0  0  0
 27 28  2  0  0  0  0
 28 26  1  0  0  0  0
 28 36  1  0  0  0  0
 29 28  2  0  0  0  0
 31 30  2  0  0  0  0
 32 30  1  0  0  0  0
 33 34  1  0  0  0  0
 34 36  2  0  0  0  0
 34 35  1  0  0  0  0
 35 32  2  0  0  0  0
 36 31  1  0  0  0  0
M  END
>  <MODEL>
7

>  <REMARK>
 VINA RESULT:      -6.6      1.745      2.523
  Name = 
  10 active torsions:
  status: ('A' for Active; 'I' for Inactive)
    1  A    between atoms: N_5  and  CA_26
    2  A    between atoms: C_6  and  C_12
    3  A    between atoms: C_9  and  C_19
    4  A    between atoms: C_9  and  C_27
    5  A    between atoms: S_10  and  N_13
    6  A    between atoms: S_10  and  C_32
    7  A    between atoms: N_13  and  C_30
    8  A    between atoms: C_20  and  C_27
    9  A    between atoms: CA_26  and  C_30
   10  A    between atoms: CA_26  and  C_34
                            x       y       z     vdW  Elec       q    Type
                         _______ _______ _______ _____ _____    ______ ____

>  <TORSDO>
F 10

$$$$
=
 OpenBabel11072408423D

 36 39  0  0  1  0  0  0  0  0999 V2000
  188.4790  172.5660  141.9920 N   0  0  0  0  0  2  0  0  0  0  0  0
  189.8120  172.1800  142.3740 C   0  0  0  0  0  0  0  0  0  0  0  0
  189.9430  171.2760  143.2390 O   0  0  0  0  0  0  0  0  0  0  0  0
  191.0660  172.7360  141.7590 C   0  0  2  0  0  3  0  0  0  0  0  0
  191.3030  172.2790  140.3340 C   0  0  0  0  0  1  0  0  0  0  0  0
  192.2920  172.5220  142.6320 C   0  0  0  0  0  2  0  0  0  0  0  0
  193.9790  175.0020  145.1770 N   0  0  0  0  0  2  0  0  0  0  0  0
  192.2890  174.9660  142.7930 C   0  0  0  0  0  3  0  0  0  0  0  0
  192.5650  176.9410  144.7410 C   0  0  2  0  0  3  0  0  0  0  0  0
  192.7430  176.0880  143.5170 N   0  0  0  0  0  0  0  0  0  0  0  0
  192.6860  173.7950  143.3040 C   0  0  0  0  0  0  0  0  0  0  0  0
  193.7880  176.3180  144.5450 C   0  0  2  0  0  3  0  0  0  0  0  0
  193.8190  172.6700  145.0850 O   0  0  0  0  0  0  0  0  0  0  0  0
  193.5250  173.7730  144.5520 C   0  0  0  0  0  0  0  0  0  0  0  0
  191.6390  176.2950  145.7420 C   0  0  0  0  0  0  0  0  0  0  0  0
  191.1850  175.5360  147.9890 C   0  0  0  0  0  3  0  0  0  0  0  0
  190.3190  175.9850  145.3960 C   0  0  0  0  0  3  0  0  0  0  0  0
  189.9140  175.2210  147.6220 N   0  0  0  0  0  0  0  0  0  0  0  0
  189.4680  175.4350  146.3560 C   0  0  0  0  0  3  0  0  0  0  0  0
  192.0680  176.0870  147.0580 C   0  0  0  0  0  3  0  0  0  0  0  0
  188.0360  173.7060  141.1880 C   0  0  2  0  0  3  0  0  0  0  0  0
  188.1940  172.3050  139.2390 O   0  0  0  0  0  1  0  0  0  0  0  0
  188.3670  174.5570  138.8660 O   0  0  0  0  0  0  0  0  0  0  0  0
  188.1940  173.4720  139.7160 C   0  0  0  0  0  0  0  0  0  0  0  0
  188.6320  175.0170  141.6840 C   0  0  0  0  0  2  0  0  0  0  0  0
  187.9910  175.4100  142.9280 N   0  0  0  0  0  2  0  0  0  0  0  0
  186.5580  177.1090  141.4950 O   0  0  0  0  0  0  0  0  0  0  0  0
  187.4020  177.0270  142.7370 S   0  0  0  0  0  0  0  0  0  0  0  0
  188.5580  177.9790  142.6010 O   0  0  0  0  0  0  0  0  0  0  0  0
  185.4860  176.8950  146.2960 C   0  0  0  0  0  3  0  0  0  0  0  0
  186.2680  176.5630  145.1860 C   0  0  0  0  0  3  0  0  0  0  0  0
  184.8500  178.1370  146.3530 C   0  0  0  0  0  3  0  0  0  0  0  0
  185.9120  179.6360  143.1560 O   0  0  0  0  0  1  0  0  0  0  0  0
  185.7790  178.7170  144.1900 C   0  0  0  0  0  0  0  0  0  0  0  0
  184.9970  179.0470  145.3020 C   0  0  0  0  0  3  0  0  0  0  0  0
  186.4170  177.4680  144.1290 C   0  0  0  0  0  0  0  0  0  0  0  0
  1  2  1  0  0  0  0
  2  3  2  0  0  0  0
  4  5  1  6  0  0  0
  4  2  1  0  0  0  0
  4  6  1  0  0  0  0
  6 11  1  0  0  0  0
  8 11  2  0  0  0  0
  8 10  1  0  0  0  0
  9 15  1  1  0  0  0
 10 12  1  0  0  0  0
 10  9  1  0  0  0  0
 11 14  1  0  0  0  0
 12  9  1  0  0  0  0
 12  7  1  1  0  0  0
 14 13  2  0  0  0  0
 14  7  1  0  0  0  0
 15 20  1  0  0  0  0
 17 15  2  0  0  0  0
 17 19  1  0  0  0  0
 18 16  1  0  0  0  0
 19 18  2  0  0  0  0
 20 16  2  0  0  0  0
 21 25  1  1  0  0  0
 21  1  1  0  0  0  0
 22 24  1  0  0  0  0
 23 24  2  0  0  0  0
 24 21  1  0  0  0  0
 25 26  1  0  0  0  0
 27 28  2  0  0  0  0
 28 26  1  0  0  0  0
 28 36  1  0  0  0  0
 29 28  2  0  0  0  0
 30 32  1  0  0  0  0
 31 30  2  0  0  0  0
 33 34  1  0  0  0  0
 34 35  1  0  0  0  0
 35 32  2  0  0  0  0
 36 34  2  0  0  0  0
 36 31  1  0  0  0  0
M  END
>  <MODEL>
8

>  <REMARK>
 VINA RESULT:      -6.6      2.159      4.154
  Name = 
  10 active torsions:
  status: ('A' for Active; 'I' for Inactive)
    1  A    between atoms: N_5  and  CA_26
    2  A    between atoms: C_6  and  C_12
    3  A    between atoms: C_9  and  C_19
    4  A    between atoms: C_9  and  C_27
    5  A    between atoms: S_10  and  N_13
    6  A    between atoms: S_10  and  C_32
    7  A    between atoms: N_13  and  C_30
    8  A    between atoms: C_20  and  C_27
    9  A    between atoms: CA_26  and  C_30
   10  A    between atoms: CA_26  and  C_34
                            x       y       z     vdW  Elec       q    Type
                         _______ _______ _______ _____ _____    ______ ____

>  <TORSDO>
F 10

$$$$
=
 OpenBabel11072408423D

 36 39  0  0  1  0  0  0  0  0999 V2000
  189.7780  173.9640  140.9250 N   0  0  0  0  0  2  0  0  0  0  0  0
  191.0960  173.7370  140.3930 C   0  0  0  0  0  0  0  0  0  0  0  0
  191.1960  173.1530  139.2830 O   0  0  0  0  0  0  0  0  0  0  0  0
  192.3660  174.2130  141.0410 C   0  0  2  0  0  3  0  0  0  0  0  0
  193.5120  174.4140  140.0700 C   0  0  0  0  0  1  0  0  0  0  0  0
  192.7740  173.3570  142.2290 C   0  0  0  0  0  2  0  0  0  0  0  0
  194.2520  174.4040  145.7210 N   0  0  0  0  0  2  0  0  0  0  0  0
  193.4910  175.5200  143.1290 C   0  0  0  0  0  3  0  0  0  0  0  0
  193.7380  176.7860  145.6000 C   0  0  2  0  0  3  0  0  0  0  0  0
  194.0190  176.2020  144.2450 N   0  0  0  0  0  0  0  0  0  0  0  0
  193.3140  174.2090  143.3290 C   0  0  0  0  0  0  0  0  0  0  0  0
  194.6980  175.7890  145.4990 C   0  0  2  0  0  3  0  0  0  0  0  0
  193.4040  172.3920  144.8830 O   0  0  0  0  0  0  0  0  0  0  0  0
  193.6580  173.6060  144.6630 C   0  0  0  0  0  0  0  0  0  0  0  0
  192.3880  176.3600  146.1230 C   0  0  0  0  0  0  0  0  0  0  0  0
  191.0400  175.2930  147.8180 C   0  0  0  0  0  3  0  0  0  0  0  0
  191.2140  176.7630  145.4760 C   0  0  0  0  0  3  0  0  0  0  0  0
  189.9140  175.6760  147.1580 N   0  0  0  0  0  0  0  0  0  0  0  0
  189.9760  176.4000  146.0090 C   0  0  0  0  0  3  0  0  0  0  0  0
  192.2970  175.6360  147.3170 C   0  0  0  0  0  3  0  0  0  0  0  0
  189.3780  174.4170  142.2580 C   0  0  2  0  0  3  0  0  0  0  0  0
  189.9320  173.4430  144.3870 O   0  0  0  0  0  1  0  0  0  0  0  0
  188.7540  172.1040  142.9530 O   0  0  0  0  0  0  0  0  0  0  0  0
  189.3700  173.3080  143.2660 C   0  0  0  0  0  0  0  0  0  0  0  0
  188.0980  175.2400  142.2180 C   0  0  0  0  0  2  0  0  0  0  0  0
  188.1040  176.2110  143.2990 N   0  0  0  0  0  2  0  0  0  0  0  0
  185.8900  176.7880  141.9720 O   0  0  0  0  0  0  0  0  0  0  0  0
  186.8280  177.3460  143.0050 S   0  0  0  0  0  0  0  0  0  0  0  0
  187.4020  178.6370  142.4920 O   0  0  0  0  0  0  0  0  0  0  0  0
  185.6620  177.2500  146.8760 C   0  0  0  0  0  3  0  0  0  0  0  0
  186.3640  177.0370  145.6870 C   0  0  0  0  0  3  0  0  0  0  0  0
  184.5260  178.0620  146.8800 C   0  0  0  0  0  3  0  0  0  0  0  0
  184.3450  179.0580  143.3330 O   0  0  0  0  0  1  0  0  0  0  0  0
  184.7930  178.4510  144.5020 C   0  0  0  0  0  0  0  0  0  0  0  0
  184.0930  178.6630  145.6940 C   0  0  0  0  0  3  0  0  0  0  0  0
  185.9330  177.6320  144.4950 C   0  0  0  0  0  0  0  0  0  0  0  0
  1 21  1  0  0  0  0
  2  1  1  0  0  0  0
  2  4  1  0  0  0  0
  3  2  2  0  0  0  0
  4  5  1  6  0  0  0
  4  6  1  0  0  0  0
  6 11  1  0  0  0  0
  8 11  2  0  0  0  0
  8 10  1  0  0  0  0
  9 15  1  1  0  0  0
 10 12  1  0  0  0  0
 10  9  1  0  0  0  0
 11 14  1  0  0  0  0
 12  9  1  0  0  0  0
 12  7  1  1  0  0  0
 14 13  2  0  0  0  0
 14  7  1  0  0  0  0
 15 20  1  0  0  0  0
 17 19  1  0  0  0  0
 17 15  2  0  0  0  0
 18 16  1  0  0  0  0
 19 18  2  0  0  0  0
 20 16  2  0  0  0  0
 21 25  1  6  0  0  0
 21 24  1  0  0  0  0
 23 24  2  0  0  0  0
 24 22  1  0  0  0  0
 25 26  1  0  0  0  0
 27 28  2  0  0  0  0
 28 26  1  0  0  0  0
 28 36  1  0  0  0  0
 29 28  2  0  0  0  0
 30 32  1  0  0  0  0
 31 30  2  0  0  0  0
 33 34  1  0  0  0  0
 34 35  1  0  0  0  0
 35 32  2  0  0  0  0
 36 34  2  0  0  0  0
 36 31  1  0  0  0  0
M  END
>  <MODEL>
9

>  <REMARK>
 VINA RESULT:      -6.6      1.845      3.882
  Name = 
  10 active torsions:
  status: ('A' for Active; 'I' for Inactive)
    1  A    between atoms: N_5  and  CA_26
    2  A    between atoms: C_6  and  C_12
    3  A    between atoms: C_9  and  C_19
    4  A    between atoms: C_9  and  C_27
    5  A    between atoms: S_10  and  N_13
    6  A    between atoms: S_10  and  C_32
    7  A    between atoms: N_13  and  C_30
    8  A    between atoms: C_20  and  C_27
    9  A    between atoms: CA_26  and  C_30
   10  A    between atoms: CA_26  and  C_34
                            x       y       z     vdW  Elec       q    Type
                         _______ _______ _______ _____ _____    ______ ____

>  <TORSDO>
F 10

$$$$
