=
 OpenBabel11062422363D

 67 73  0  0  1  0  0  0  0  0999 V2000
  196.7300  175.2120  143.9400 C   0  0  0  0  0  2  0  0  0  0  0  0
  194.5350  173.7670  144.4600 C   0  0  1  0  0  0  0  0  0  0  0  0
  195.9610  174.2770  144.9310 C   0  0  0  0  0  0  0  0  0  0  0  0
  195.1520  171.5990  141.0850 C   0  0  0  0  0  3  0  0  0  0  0  0
  195.6850  173.6780  142.3250 C   0  0  1  0  0  3  0  0  0  0  0  0
  194.6700  170.7420  142.2820 C   0  0  2  0  0  3  0  0  0  0  0  0
  196.1050  175.1410  142.5380 C   0  0  1  0  0  0  0  0  0  0  0  0
  194.5690  175.4850  142.5900 C   0  0  0  0  0  2  0  0  0  0  0  0
  196.4470  174.0910  146.1920 C   0  0  0  0  0  2  0  0  0  0  0  0
  194.3390  174.0100  142.9300 C   0  0  2  0  0  3  0  0  0  0  0  0
  194.4440  172.2320  144.6530 C   0  0  0  0  0  3  0  0  0  0  0  0
  194.4550  171.1780  143.7940 C   0  0  0  0  0  3  0  0  0  0  0  0
  196.8300  175.7080  141.4890 O   0  0  0  0  0  1  0  0  0  0  0  0
  195.5460  172.9020  141.0130 C   0  0  0  0  0  0  0  0  0  0  0  0
  195.7990  173.4670  139.6430 C   0  0  0  0  0  0  0  0  0  0  0  0
  197.0300  174.1370  139.3420 C   0  0  0  0  0  3  0  0  0  0  0  0
  197.1920  174.8870  138.1620 C   0  0  0  0  0  3  0  0  0  0  0  0
  194.7940  173.4420  138.6160 C   0  0  0  0  0  0  0  0  0  0  0  0
  194.9440  174.2970  137.5370 C   0  0  0  0  0  3  0  0  0  0  0  0
  196.0900  175.0660  137.3040 C   0  0  0  0  0  0  0  0  0  0  0  0
  190.0710  171.3270  139.6410 C   0  0  0  0  0  3  0  0  0  0  0  0
  193.3630  171.7920  137.6500 O   0  0  0  0  0  0  0  0  0  0  0  0
  191.9860  173.9760  140.4220 C   0  0  0  0  0  2  0  0  0  0  0  0
  192.3510  168.8960  137.6820 C   0  0  0  0  0  2  0  0  0  0  0  0
  189.9800  169.0980  137.7590 O   0  0  0  0  0  1  0  0  0  0  0  0
  194.2280  170.6480  137.7760 C   0  0  1  0  0  3  0  0  0  0  0  0
  193.5440  169.5450  136.9790 C   0  0  0  0  0  2  0  0  0  0  0  0
  191.2930  170.4600  139.2990 C   0  0  0  0  0  2  0  0  0  0  0  0
  192.3720  173.5870  138.9980 C   0  0  0  0  0  0  0  0  0  0  0  0
  191.5710  173.7610  138.0720 O   0  0  0  0  0  0  0  0  0  0  0  0
  191.4010  172.7640  141.1470 C   0  0  0  0  0  2  0  0  0  0  0  0
  190.1200  172.3780  140.4770 C   0  0  0  0  0  3  0  0  0  0  0  0
  193.5310  172.6280  138.7940 C   0  0  2  0  0  3  0  0  0  0  0  0
  191.1790  169.8300  137.8990 C   0  0  1  0  0  3  0  0  0  0  0  0
  195.5910  170.8760  137.1420 C   0  0  0  0  0  3  0  0  0  0  0  0
  196.6250  170.5720  137.7280 O   0  0  0  0  0  0  0  0  0  0  0  0
  196.1560  175.9510  136.1240 C   0  0  0  0  0  0  0  0  0  0  0  0
  195.0480  176.2540  135.5540 O   0  0  0  0  0  0  0  0  0  0  0  0
  197.3400  176.4480  135.6270 O   0  0  0  0  0  1  0  0  0  0  0  0
  193.4130  174.4640  145.1760 N   0  0  0  0  0  2  0  0  0  0  0  0
  193.4450  175.9780  145.1540 C   0  0  1  0  0  3  0  0  0  0  0  0
  190.7200  175.3800  146.4470 O   0  0  0  0  0  1  0  0  0  0  0  0
  191.1580  176.6690  146.0600 C   0  0  1  0  0  3  0  0  0  0  0  0
  192.0530  176.6030  144.8090 C   0  0  2  0  0  3  0  0  0  0  0  0
  190.0850  177.5200  145.7640 O   0  0  0  0  0  0  0  0  0  0  0  0
  191.2490  175.8640  143.6870 C   0  0  0  0  0  2  0  0  0  0  0  0
  189.1150  176.8400  144.9850 C   0  0  1  0  0  3  0  0  0  0  0  0
  189.6770  175.9990  143.7680 C   0  0  2  0  0  3  0  0  0  0  0  0
  188.0280  176.2380  145.9190 C   0  0  0  0  0  2  0  0  0  0  0  0
  187.3140  177.4120  146.6760 C   0  0  0  0  0  2  0  0  0  0  0  0
  185.3940  178.7440  146.0340 C   0  0  1  0  0  3  0  0  0  0  0  0
  184.2230  178.5630  145.3210 O   0  0  0  0  0  1  0  0  0  0  0  0
  185.1230  178.5560  147.5190 C   0  0  0  0  0  2  0  0  0  0  0  0
  185.7730  177.4150  146.7130 C   0  0  2  0  0  3  0  0  0  0  0  0
  188.9370  174.6510  143.5010 C   0  0  0  0  0  2  0  0  0  0  0  0
  188.2800  174.6410  142.1820 N   0  0  0  0  0  2  0  0  0  0  0  0
  187.5290  176.2350  140.6030 O   0  0  0  0  0  1  0  0  0  0  0  0
  187.6990  175.9860  141.9730 C   0  0  1  0  0  3  0  0  0  0  0  0
  186.3460  176.1710  142.6670 C   0  0  0  0  0  2  0  0  0  0  0  0
  185.8950  177.5930  142.4890 C   0  0  0  0  0  0  0  0  0  0  0  0
  186.8110  178.6230  142.6980 O   0  0  0  0  0  1  0  0  0  0  0  0
  184.7580  177.8300  141.9520 O   0  0  0  0  0  0  0  0  0  0  0  0
  194.0530  176.5060  146.4250 C   0  0  0  0  0  3  0  0  0  0  0  0
  194.7580  177.5070  146.4540 O   0  0  0  0  0  0  0  0  0  0  0  0
  195.4490  169.3930  142.3620 C   0  0  0  0  0  2  0  0  0  0  0  0
  197.6220  169.6020  142.9290 C   0  0  0  0  0  1  0  0  0  0  0  0
  196.7710  169.4420  141.8270 O   0  0  0  0  0  0  0  0  0  0  0  0
  1  3  1  0  0  0  0
  2 11  1  0  0  0  0
  2  3  1  0  0  0  0
  2 40  1  1  0  0  0
  3  9  2  0  0  0  0
  4  6  1  0  0  0  0
  5 14  1  6  0  0  0
  5  7  1  0  0  0  0
  5 10  1  0  0  0  0
  6 65  1  1  0  0  0
  6 12  1  0  0  0  0
  7 13  1  6  0  0  0
  7  8  1  0  0  0  0
  7  1  1  0  0  0  0
 10  8  1  1  0  0  0
 10  2  1  0  0  0  0
 12 11  2  0  0  0  0
 14  4  2  0  0  0  0
 15 14  1  0  0  0  0
 16 15  1  0  0  0  0
 17 16  2  0  0  0  0
 18 15  2  0  0  0  0
 19 18  1  0  0  0  0
 20 19  2  0  0  0  0
 20 17  1  0  0  0  0
 21 32  2  0  0  0  0
 22 26  1  0  0  0  0
 22 33  1  0  0  0  0
 23 31  1  0  0  0  0
 24 34  1  0  0  0  0
 26 35  1  6  0  0  0
 27 24  1  0  0  0  0
 27 26  1  0  0  0  0
 28 21  1  0  0  0  0
 29 23  1  0  0  0  0
 30 29  2  0  0  0  0
 32 31  1  0  0  0  0
 33 18  1  6  0  0  0
 33 29  1  0  0  0  0
 34 25  1  1  0  0  0
 34 28  1  0  0  0  0
 35 36  2  0  0  0  0
 37 20  1  0  0  0  0
 38 37  2  0  0  0  0
 39 37  1  0  0  0  0
 41 40  1  0  0  0  0
 41 63  1  1  0  0  0
 43 42  1  6  0  0  0
 44 41  1  1  0  0  0
 44 43  1  0  0  0  0
 45 43  1  0  0  0  0
 46 48  1  0  0  0  0
 46 44  1  0  0  0  0
 47 45  1  0  0  0  0
 47 49  1  1  0  0  0
 48 55  1  1  0  0  0
 48 47  1  0  0  0  0
 49 50  1  0  0  0  0
 51 52  1  6  0  0  0
 51 54  1  0  0  0  0
 51 53  1  0  0  0  0
 54 50  1  1  0  0  0
 54 53  1  0  0  0  0
 56 55  1  0  0  0  0
 58 57  1  6  0  0  0
 58 56  1  0  0  0  0
 58 59  1  0  0  0  0
 60 59  1  0  0  0  0
 60 61  1  0  0  0  0
 62 60  2  0  0  0  0
 63 64  2  0  0  0  0
 67 65  1  0  0  0  0
 67 66  1  0  0  0  0
M  END
>  <MODEL>
1

>  <REMARK>
 VINA RESULT:      -7.2      0.000      0.000
  Name = 
  18 active torsions:
  status: ('A' for Active; 'I' for Inactive)
    1  A    between atoms: C_2  and  C_65
    2  A    between atoms: C_4  and  N_43
    3  A    between atoms: C_13  and  N_47
    4  A    between atoms: C_13  and  C_55
    5  A    between atoms: C_14  and  C_29
    6  A    between atoms: C_15  and  C_18
    7  A    between atoms: C_15  and  O_63
    8  A    between atoms: C_20  and  CA_46
    9  A    between atoms: C_22  and  C_36
   10  A    between atoms: C_22  and  C_66
   11  A    between atoms: C_23  and  C_59
   12  A    between atoms: C_28  and  C_33
   13  A    between atoms: C_33  and  C_67
   14  A    between atoms: C_36  and  C_52
   15  A    between atoms: C_39  and  C_62
   16  A    between atoms: C_41  and  CA_46
   17  A    between atoms: N_43  and  CA_46
   18  A    between atoms: N_47  and  C_67
                            x       y       z     vdW  Elec       q    Type
                         _______ _______ _______ _____ _____    ______ ____

>  <TORSDO>
F 18

$$$$
=
 OpenBabel11062422363D

 67 73  0  0  1  0  0  0  0  0999 V2000
  196.4010  175.9040  143.3050 C   0  0  0  0  0  2  0  0  0  0  0  0
  194.4570  174.1060  143.7060 C   0  0  1  0  0  0  0  0  0  0  0  0
  195.7250  174.8730  144.2680 C   0  0  0  0  0  0  0  0  0  0  0  0
  195.7300  171.9970  140.4800 C   0  0  0  0  0  3  0  0  0  0  0  0
  195.7830  174.1690  141.6750 C   0  0  1  0  0  3  0  0  0  0  0  0
  195.3040  171.0980  141.6680 C   0  0  2  0  0  3  0  0  0  0  0  0
  195.9200  175.6880  141.8620 C   0  0  1  0  0  0  0  0  0  0  0  0
  194.3490  175.7540  141.7780 C   0  0  0  0  0  2  0  0  0  0  0  0
  196.1270  174.8070  145.5700 C   0  0  0  0  0  2  0  0  0  0  0  0
  194.3530  174.2710  142.1570 C   0  0  2  0  0  3  0  0  0  0  0  0
  194.6190  172.5840  143.9520 C   0  0  0  0  0  3  0  0  0  0  0  0
  194.8880  171.5270  143.1390 C   0  0  0  0  0  3  0  0  0  0  0  0
  196.6220  176.3480  140.8530 O   0  0  0  0  0  1  0  0  0  0  0  0
  195.8940  173.3470  140.3880 C   0  0  0  0  0  0  0  0  0  0  0  0
  196.1610  173.9130  139.0210 C   0  0  0  0  0  0  0  0  0  0  0  0
  197.2870  174.7690  138.7890 C   0  0  0  0  0  3  0  0  0  0  0  0
  197.4190  175.5080  137.5970 C   0  0  0  0  0  3  0  0  0  0  0  0
  195.2580  173.7000  137.9230 C   0  0  0  0  0  0  0  0  0  0  0  0
  195.3530  174.5420  136.8280 C   0  0  0  0  0  3  0  0  0  0  0  0
  196.3740  175.4830  136.6540 C   0  0  0  0  0  0  0  0  0  0  0  0
  190.8750  170.8610  138.6730 C   0  0  0  0  0  3  0  0  0  0  0  0
  194.1900  171.8200  136.9100 O   0  0  0  0  0  0  0  0  0  0  0  0
  192.2720  173.8020  139.5060 C   0  0  0  0  0  2  0  0  0  0  0  0
  193.6590  168.7980  136.9600 C   0  0  0  0  0  2  0  0  0  0  0  0
  191.2880  168.6110  136.8600 O   0  0  0  0  0  1  0  0  0  0  0  0
  195.2160  170.8350  137.1330 C   0  0  1  0  0  3  0  0  0  0  0  0
  194.7820  169.6200  136.3240 C   0  0  0  0  0  2  0  0  0  0  0  0
  192.2430  170.2000  138.4470 C   0  0  0  0  0  2  0  0  0  0  0  0
  192.8230  173.4540  138.1260 C   0  0  0  0  0  0  0  0  0  0  0  0
  192.0770  173.4770  137.1400 O   0  0  0  0  0  0  0  0  0  0  0  0
  191.8380  172.5250  140.2250 C   0  0  0  0  0  2  0  0  0  0  0  0
  190.6900  171.9220  139.4780 C   0  0  0  0  0  3  0  0  0  0  0  0
  194.1340  172.6940  138.0360 C   0  0  2  0  0  3  0  0  0  0  0  0
  192.3390  169.5320  137.0630 C   0  0  1  0  0  3  0  0  0  0  0  0
  196.5690  171.2710  136.5920 C   0  0  0  0  0  3  0  0  0  0  0  0
  197.5900  171.1610  137.2620 O   0  0  0  0  0  0  0  0  0  0  0  0
  196.3900  176.3380  135.4510 C   0  0  0  0  0  0  0  0  0  0  0  0
  197.4490  176.3160  134.7270 O   0  0  0  0  0  0  0  0  0  0  0  0
  195.3310  177.1410  135.0890 O   0  0  0  0  0  1  0  0  0  0  0  0
  193.1730  174.6100  144.3020 N   0  0  0  0  0  2  0  0  0  0  0  0
  193.1970  176.0250  144.8410 C   0  0  1  0  0  3  0  0  0  0  0  0
  190.1910  175.6350  145.3530 O   0  0  0  0  0  1  0  0  0  0  0  0
  190.8410  176.8910  145.3180 C   0  0  1  0  0  3  0  0  0  0  0  0
  192.0060  176.8900  144.3120 C   0  0  2  0  0  3  0  0  0  0  0  0
  189.9680  177.9230  144.9490 O   0  0  0  0  0  0  0  0  0  0  0  0
  191.4320  176.4560  142.9210 C   0  0  0  0  0  2  0  0  0  0  0  0
  189.1560  177.5180  143.8600 C   0  0  1  0  0  3  0  0  0  0  0  0
  189.9120  176.8020  142.6680 C   0  0  2  0  0  3  0  0  0  0  0  0
  187.8160  176.9430  144.3980 C   0  0  0  0  0  2  0  0  0  0  0  0
  187.0180  178.1000  145.0920 C   0  0  0  0  0  2  0  0  0  0  0  0
  185.9200  179.0310  143.1430 C   0  0  1  0  0  3  0  0  0  0  0  0
  184.8980  178.6720  142.2830 O   0  0  0  0  0  1  0  0  0  0  0  0
  185.3740  179.9390  144.2340 C   0  0  0  0  0  2  0  0  0  0  0  0
  185.6230  178.4490  144.5370 C   0  0  2  0  0  3  0  0  0  0  0  0
  189.1260  175.6320  141.9980 C   0  0  0  0  0  2  0  0  0  0  0  0
  189.7160  174.3220  142.3210 N   0  0  0  0  0  2  0  0  0  0  0  0
  187.9680  173.2140  141.1730 O   0  0  0  0  0  1  0  0  0  0  0  0
  188.6020  173.3520  142.4170 C   0  0  1  0  0  3  0  0  0  0  0  0
  189.0520  171.9640  142.8840 C   0  0  0  0  0  2  0  0  0  0  0  0
  190.0550  172.1210  143.9910 C   0  0  0  0  0  0  0  0  0  0  0  0
  189.6040  172.4410  145.2710 O   0  0  0  0  0  1  0  0  0  0  0  0
  191.2660  171.7560  143.7990 O   0  0  0  0  0  0  0  0  0  0  0  0
  193.3220  176.0100  146.3400 C   0  0  0  0  0  3  0  0  0  0  0  0
  193.8630  176.9120  146.9670 O   0  0  0  0  0  0  0  0  0  0  0  0
  196.2980  169.9120  141.8640 C   0  0  0  0  0  2  0  0  0  0  0  0
  194.9500  168.1680  142.3380 C   0  0  0  0  0  1  0  0  0  0  0  0
  195.9310  168.9980  142.8960 O   0  0  0  0  0  0  0  0  0  0  0  0
  1  3  1  0  0  0  0
  2 11  1  0  0  0  0
  2  3  1  0  0  0  0
  2 40  1  1  0  0  0
  3  9  2  0  0  0  0
  4  6  1  0  0  0  0
  5 14  1  6  0  0  0
  5  7  1  0  0  0  0
  5 10  1  0  0  0  0
  6 65  1  1  0  0  0
  6 12  1  0  0  0  0
  7 13  1  6  0  0  0
  7  1  1  0  0  0  0
  8  7  1  0  0  0  0
 10  8  1  1  0  0  0
 10  2  1  0  0  0  0
 12 11  2  0  0  0  0
 14  4  2  0  0  0  0
 15 14  1  0  0  0  0
 16 15  1  0  0  0  0
 17 16  2  0  0  0  0
 18 15  2  0  0  0  0
 19 18  1  0  0  0  0
 20 19  2  0  0  0  0
 20 17  1  0  0  0  0
 21 32  2  0  0  0  0
 22 26  1  0  0  0  0
 22 33  1  0  0  0  0
 23 31  1  0  0  0  0
 24 34  1  0  0  0  0
 26 35  1  6  0  0  0
 27 24  1  0  0  0  0
 27 26  1  0  0  0  0
 28 21  1  0  0  0  0
 29 23  1  0  0  0  0
 30 29  2  0  0  0  0
 32 31  1  0  0  0  0
 33 18  1  6  0  0  0
 33 29  1  0  0  0  0
 34 25  1  1  0  0  0
 34 28  1  0  0  0  0
 35 36  2  0  0  0  0
 37 20  1  0  0  0  0
 38 37  2  0  0  0  0
 39 37  1  0  0  0  0
 40 41  1  0  0  0  0
 41 63  1  1  0  0  0
 43 42  1  6  0  0  0
 44 41  1  1  0  0  0
 44 43  1  0  0  0  0
 45 43  1  0  0  0  0
 46 44  1  0  0  0  0
 47 49  1  1  0  0  0
 47 45  1  0  0  0  0
 48 55  1  1  0  0  0
 48 46  1  0  0  0  0
 48 47  1  0  0  0  0
 49 50  1  0  0  0  0
 51 52  1  6  0  0  0
 51 53  1  0  0  0  0
 51 54  1  0  0  0  0
 53 54  1  0  0  0  0
 54 50  1  1  0  0  0
 55 56  1  0  0  0  0
 56 58  1  0  0  0  0
 58 57  1  6  0  0  0
 58 59  1  0  0  0  0
 59 60  1  0  0  0  0
 60 61  1  0  0  0  0
 62 60  2  0  0  0  0
 63 64  2  0  0  0  0
 65 67  1  0  0  0  0
 66 67  1  0  0  0  0
M  END
>  <MODEL>
2

>  <REMARK>
 VINA RESULT:      -6.9      1.394      2.293
  Name = 
  18 active torsions:
  status: ('A' for Active; 'I' for Inactive)
    1  A    between atoms: C_2  and  C_65
    2  A    between atoms: C_4  and  N_43
    3  A    between atoms: C_13  and  N_47
    4  A    between atoms: C_13  and  C_55
    5  A    between atoms: C_14  and  C_29
    6  A    between atoms: C_15  and  C_18
    7  A    between atoms: C_15  and  O_63
    8  A    between atoms: C_20  and  CA_46
    9  A    between atoms: C_22  and  C_36
   10  A    between atoms: C_22  and  C_66
   11  A    between atoms: C_23  and  C_59
   12  A    between atoms: C_28  and  C_33
   13  A    between atoms: C_33  and  C_67
   14  A    between atoms: C_36  and  C_52
   15  A    between atoms: C_39  and  C_62
   16  A    between atoms: C_41  and  CA_46
   17  A    between atoms: N_43  and  CA_46
   18  A    between atoms: N_47  and  C_67
                            x       y       z     vdW  Elec       q    Type
                         _______ _______ _______ _____ _____    ______ ____

>  <TORSDO>
F 18

$$$$
=
 OpenBabel11062422363D

 67 73  0  0  1  0  0  0  0  0999 V2000
  189.4300  172.0140  143.3240 C   0  0  0  0  0  2  0  0  0  0  0  0
  189.9630  173.5320  141.1820 C   0  0  1  0  0  0  0  0  0  0  0  0
  188.8980  172.7240  142.0360 C   0  0  0  0  0  0  0  0  0  0  0  0
  192.7260  170.8290  139.9430 C   0  0  0  0  0  3  0  0  0  0  0  0
  191.3570  171.6570  141.8370 C   0  0  1  0  0  3  0  0  0  0  0  0
  191.8800  171.4140  138.7840 C   0  0  2  0  0  3  0  0  0  0  0  0
  190.9640  171.9300  143.2980 C   0  0  1  0  0  0  0  0  0  0  0  0
  191.6020  173.3570  143.1140 C   0  0  0  0  0  2  0  0  0  0  0  0
  187.5550  172.7730  141.8020 C   0  0  0  0  0  2  0  0  0  0  0  0
  191.4160  173.1510  141.6080 C   0  0  2  0  0  3  0  0  0  0  0  0
  189.8470  173.1280  139.6910 C   0  0  0  0  0  3  0  0  0  0  0  0
  190.6200  172.3780  138.8610 C   0  0  0  0  0  3  0  0  0  0  0  0
  191.5710  171.0980  144.2400 O   0  0  0  0  0  1  0  0  0  0  0  0
  192.6010  170.9470  141.2950 C   0  0  0  0  0  0  0  0  0  0  0  0
  193.7060  170.3750  142.1380 C   0  0  0  0  0  0  0  0  0  0  0  0
  193.4440  169.3230  143.0760 C   0  0  0  0  0  3  0  0  0  0  0  0
  194.3930  168.9470  144.0460 C   0  0  0  0  0  3  0  0  0  0  0  0
  195.0380  170.9150  142.1090 C   0  0  0  0  0  0  0  0  0  0  0  0
  195.8880  170.6100  143.1590 C   0  0  0  0  0  3  0  0  0  0  0  0
  195.5860  169.6840  144.1630 C   0  0  0  0  0  0  0  0  0  0  0  0
  196.2170  175.0230  139.0160 C   0  0  0  0  0  3  0  0  0  0  0  0
  196.5370  171.3840  140.3100 O   0  0  0  0  0  0  0  0  0  0  0  0
  194.6690  174.2690  141.9020 C   0  0  0  0  0  2  0  0  0  0  0  0
  196.9540  171.6470  137.2820 C   0  0  0  0  0  2  0  0  0  0  0  0
  197.9400  173.7970  137.0040 O   0  0  0  0  0  1  0  0  0  0  0  0
  196.0380  170.4320  139.3520 C   0  0  1  0  0  3  0  0  0  0  0  0
  197.0550  170.4410  138.2180 C   0  0  0  0  0  2  0  0  0  0  0  0
  195.9790  173.6170  138.4440 C   0  0  0  0  0  2  0  0  0  0  0  0
  195.7730  173.2290  141.7360 C   0  0  0  0  0  0  0  0  0  0  0  0
  196.9580  173.5650  141.8370 O   0  0  0  0  0  0  0  0  0  0  0  0
  194.2780  174.8290  140.5350 C   0  0  0  0  0  2  0  0  0  0  0  0
  195.4470  175.5730  139.9700 C   0  0  0  0  0  3  0  0  0  0  0  0
  195.4390  171.9170  141.0490 C   0  0  2  0  0  3  0  0  0  0  0  0
  197.2830  172.9710  137.9410 C   0  0  1  0  0  3  0  0  0  0  0  0
  196.0000  169.0160  139.9050 C   0  0  0  0  0  3  0  0  0  0  0  0
  195.0780  168.2520  139.6390 O   0  0  0  0  0  0  0  0  0  0  0  0
  196.5590  169.4270  145.2440 C   0  0  0  0  0  0  0  0  0  0  0  0
  196.0960  169.3000  146.4330 O   0  0  0  0  0  1  0  0  0  0  0  0
  197.9140  169.3230  145.0220 O   0  0  0  0  0  0  0  0  0  0  0  0
  189.8180  175.0180  141.3460 N   0  0  0  0  0  2  0  0  0  0  0  0
  188.6430  175.4870  142.1790 C   0  0  1  0  0  3  0  0  0  0  0  0
  189.7850  174.9190  144.9770 O   0  0  0  0  0  1  0  0  0  0  0  0
  190.2190  175.9680  144.1320 C   0  0  1  0  0  3  0  0  0  0  0  0
  189.0600  176.5160  143.2810 C   0  0  2  0  0  3  0  0  0  0  0  0
  190.7510  177.0410  144.8600 O   0  0  0  0  0  0  0  0  0  0  0  0
  187.9150  176.9480  144.2580 C   0  0  0  0  0  2  0  0  0  0  0  0
  189.9340  177.3300  145.9820 C   0  0  1  0  0  3  0  0  0  0  0  0
  188.3780  177.3980  145.7000 C   0  0  2  0  0  3  0  0  0  0  0  0
  190.4740  176.5710  147.2270 C   0  0  0  0  0  2  0  0  0  0  0  0
  192.0360  176.7020  147.2530 C   0  0  0  0  0  2  0  0  0  0  0  0
  194.2530  176.1610  146.4390 C   0  0  1  0  0  3  0  0  0  0  0  0
  195.2240  175.2080  146.6880 O   0  0  0  0  0  1  0  0  0  0  0  0
  193.4050  175.7290  145.2540 C   0  0  0  0  0  2  0  0  0  0  0  0
  192.8680  175.5360  146.6850 C   0  0  2  0  0  3  0  0  0  0  0  0
  187.4770  176.8200  146.8360 C   0  0  0  0  0  2  0  0  0  0  0  0
  186.0630  176.7490  146.4280 N   0  0  0  0  0  2  0  0  0  0  0  0
  186.2400  178.7020  147.7540 O   0  0  0  0  0  1  0  0  0  0  0  0
  185.3360  177.7870  147.1930 C   0  0  1  0  0  3  0  0  0  0  0  0
  184.3280  178.5660  146.3420 C   0  0  0  0  0  2  0  0  0  0  0  0
  184.9070  178.7830  144.9730 C   0  0  0  0  0  0  0  0  0  0  0  0
  184.4590  177.9910  143.9170 O   0  0  0  0  0  0  0  0  0  0  0  0
  185.6330  179.8140  144.7530 O   0  0  0  0  0  1  0  0  0  0  0  0
  187.5300  175.9650  141.2880 C   0  0  0  0  0  3  0  0  0  0  0  0
  187.6320  176.0100  140.0680 O   0  0  0  0  0  0  0  0  0  0  0  0
  191.4730  170.3040  137.7660 C   0  0  0  0  0  2  0  0  0  0  0  0
  190.2620  168.5750  138.5580 C   0  0  0  0  0  1  0  0  0  0  0  0
  191.5750  168.9740  138.2710 O   0  0  0  0  0  0  0  0  0  0  0  0
  2 40  1  1  0  0  0
  2 10  1  0  0  0  0
  2  3  1  0  0  0  0
  3  1  1  0  0  0  0
  4 14  2  0  0  0  0
  5 14  1  1  0  0  0
  5  7  1  0  0  0  0
  6 65  1  1  0  0  0
  6 12  1  0  0  0  0
  6  4  1  0  0  0  0
  7  1  1  0  0  0  0
  7 13  1  1  0  0  0
  8  7  1  0  0  0  0
  9  3  2  0  0  0  0
 10  5  1  0  0  0  0
 10  8  1  1  0  0  0
 11  2  1  0  0  0  0
 12 11  2  0  0  0  0
 14 15  1  0  0  0  0
 15 16  1  0  0  0  0
 16 17  2  0  0  0  0
 17 20  1  0  0  0  0
 18 15  2  0  0  0  0
 18 19  1  0  0  0  0
 19 20  2  0  0  0  0
 20 37  1  0  0  0  0
 21 32  2  0  0  0  0
 22 33  1  0  0  0  0
 24 34  1  0  0  0  0
 24 27  1  0  0  0  0
 26 35  1  1  0  0  0
 26 22  1  0  0  0  0
 27 26  1  0  0  0  0
 28 21  1  0  0  0  0
 29 30  2  0  0  0  0
 29 23  1  0  0  0  0
 31 23  1  0  0  0  0
 32 31  1  0  0  0  0
 33 29  1  0  0  0  0
 33 18  1  1  0  0  0
 34 25  1  6  0  0  0
 34 28  1  0  0  0  0
 36 35  2  0  0  0  0
 37 38  1  0  0  0  0
 39 37  2  0  0  0  0
 40 41  1  0  0  0  0
 41 63  1  6  0  0  0
 43 45  1  0  0  0  0
 43 42  1  1  0  0  0
 44 41  1  6  0  0  0
 44 43  1  0  0  0  0
 44 46  1  0  0  0  0
 45 47  1  0  0  0  0
 46 48  1  0  0  0  0
 47 49  1  1  0  0  0
 48 47  1  0  0  0  0
 48 55  1  1  0  0  0
 49 50  1  0  0  0  0
 51 54  1  0  0  0  0
 51 52  1  1  0  0  0
 53 51  1  0  0  0  0
 53 54  1  0  0  0  0
 54 50  1  6  0  0  0
 56 55  1  0  0  0  0
 56 58  1  0  0  0  0
 58 57  1  6  0  0  0
 59 58  1  0  0  0  0
 60 59  1  0  0  0  0
 61 60  2  0  0  0  0
 62 60  1  0  0  0  0
 64 63  2  0  0  0  0
 65 67  1  0  0  0  0
 67 66  1  0  0  0  0
M  END
>  <MODEL>
3

>  <REMARK>
 VINA RESULT:      -6.6      2.018      6.329
  Name = 
  18 active torsions:
  status: ('A' for Active; 'I' for Inactive)
    1  A    between atoms: C_2  and  C_65
    2  A    between atoms: C_4  and  N_43
    3  A    between atoms: C_13  and  N_47
    4  A    between atoms: C_13  and  C_55
    5  A    between atoms: C_14  and  C_29
    6  A    between atoms: C_15  and  C_18
    7  A    between atoms: C_15  and  O_63
    8  A    between atoms: C_20  and  CA_46
    9  A    between atoms: C_22  and  C_36
   10  A    between atoms: C_22  and  C_66
   11  A    between atoms: C_23  and  C_59
   12  A    between atoms: C_28  and  C_33
   13  A    between atoms: C_33  and  C_67
   14  A    between atoms: C_36  and  C_52
   15  A    between atoms: C_39  and  C_62
   16  A    between atoms: C_41  and  CA_46
   17  A    between atoms: N_43  and  CA_46
   18  A    between atoms: N_47  and  C_67
                            x       y       z     vdW  Elec       q    Type
                         _______ _______ _______ _____ _____    ______ ____

>  <TORSDO>
F 18

$$$$
=
 OpenBabel11062422363D

 67 73  0  0  1  0  0  0  0  0999 V2000
  194.2410  176.4640  144.1950 C   0  0  0  0  0  2  0  0  0  0  0  0
  192.5120  174.4570  144.5960 C   0  0  1  0  0  0  0  0  0  0  0  0
  193.5140  175.5220  145.2100 C   0  0  0  0  0  0  0  0  0  0  0  0
  194.7270  172.0560  142.1880 C   0  0  0  0  0  3  0  0  0  0  0  0
  194.2290  174.3830  142.8830 C   0  0  1  0  0  3  0  0  0  0  0  0
  194.1760  171.3260  143.4390 C   0  0  2  0  0  3  0  0  0  0  0  0
  194.1190  175.9110  142.7660 C   0  0  1  0  0  0  0  0  0  0  0  0
  192.6100  175.6870  142.3770 C   0  0  0  0  0  2  0  0  0  0  0  0
  193.6270  175.7640  146.5480 C   0  0  0  0  0  2  0  0  0  0  0  0
  192.7280  174.3200  143.0560 C   0  0  2  0  0  3  0  0  0  0  0  0
  192.8180  173.0570  145.1860 C   0  0  0  0  0  3  0  0  0  0  0  0
  193.3960  171.9340  144.6810 C   0  0  0  0  0  3  0  0  0  0  0  0
  194.9300  176.4910  141.7890 O   0  0  0  0  0  1  0  0  0  0  0  0
  194.7270  173.3750  141.8440 C   0  0  0  0  0  0  0  0  0  0  0  0
  195.2080  173.7230  140.4620 C   0  0  0  0  0  0  0  0  0  0  0  0
  196.3970  174.5010  140.2740 C   0  0  0  0  0  3  0  0  0  0  0  0
  196.7280  175.0500  139.0210 C   0  0  0  0  0  3  0  0  0  0  0  0
  194.4550  173.3750  139.2890 C   0  0  0  0  0  0  0  0  0  0  0  0
  194.7430  174.0420  138.1090 C   0  0  0  0  0  3  0  0  0  0  0  0
  195.8240  174.9160  137.9510 C   0  0  0  0  0  0  0  0  0  0  0  0
  189.8540  170.8210  139.6550 C   0  0  0  0  0  3  0  0  0  0  0  0
  193.5470  171.2850  138.5760 O   0  0  0  0  0  0  0  0  0  0  0  0
  191.1900  173.8850  140.0020 C   0  0  0  0  0  2  0  0  0  0  0  0
  192.8350  168.3870  139.2880 C   0  0  0  0  0  2  0  0  0  0  0  0
  190.5490  168.1660  138.6600 O   0  0  0  0  0  1  0  0  0  0  0  0
  194.4270  170.4040  139.2970 C   0  0  1  0  0  3  0  0  0  0  0  0
  194.1260  169.0120  138.7550 C   0  0  0  0  0  2  0  0  0  0  0  0
  191.1930  170.1300  139.9560 C   0  0  0  0  0  2  0  0  0  0  0  0
  192.0320  173.1790  138.9420 C   0  0  0  0  0  0  0  0  0  0  0  0
  191.5460  172.9310  137.8320 O   0  0  0  0  0  0  0  0  0  0  0  0
  190.5190  172.8480  140.9010 C   0  0  0  0  0  2  0  0  0  0  0  0
  189.5480  172.0590  140.0800 C   0  0  0  0  0  3  0  0  0  0  0  0
  193.2770  172.4310  139.3810 C   0  0  2  0  0  3  0  0  0  0  0  0
  191.5760  169.1140  138.8650 C   0  0  1  0  0  3  0  0  0  0  0  0
  195.8940  170.6840  139.0100 C   0  0  0  0  0  3  0  0  0  0  0  0
  196.7640  169.8600  139.2730 O   0  0  0  0  0  0  0  0  0  0  0  0
  196.0480  175.5810  136.6520 C   0  0  0  0  0  0  0  0  0  0  0  0
  195.0900  176.2920  136.1820 O   0  0  0  0  0  1  0  0  0  0  0  0
  197.2250  175.4660  135.9450 O   0  0  0  0  0  0  0  0  0  0  0  0
  191.0740  174.8300  144.8210 N   0  0  0  0  0  2  0  0  0  0  0  0
  190.5810  176.0600  144.0880 C   0  0  1  0  0  3  0  0  0  0  0  0
  189.2740  177.7840  141.9030 O   0  0  0  0  0  1  0  0  0  0  0  0
  189.2870  176.3690  141.9060 C   0  0  1  0  0  3  0  0  0  0  0  0
  189.2290  175.8130  143.3400 C   0  0  2  0  0  3  0  0  0  0  0  0
  188.1990  175.8340  141.2030 O   0  0  0  0  0  0  0  0  0  0  0  0
  187.9630  176.4180  144.0340 C   0  0  0  0  0  2  0  0  0  0  0  0
  187.0090  176.5300  141.5300 C   0  0  1  0  0  3  0  0  0  0  0  0
  186.7650  176.7900  143.0720 C   0  0  2  0  0  3  0  0  0  0  0  0
  186.7700  177.6650  140.4960 C   0  0  0  0  0  2  0  0  0  0  0  0
  186.1530  177.0370  139.1980 C   0  0  0  0  0  2  0  0  0  0  0  0
  186.2430  175.9060  137.0570 C   0  0  1  0  0  3  0  0  0  0  0  0
  186.5770  176.2230  135.7530 O   0  0  0  0  0  1  0  0  0  0  0  0
  187.4420  175.2840  137.7550 C   0  0  0  0  0  2  0  0  0  0  0  0
  187.0960  176.7630  138.0100 C   0  0  2  0  0  3  0  0  0  0  0  0
  186.1180  178.1690  143.4140 C   0  0  0  0  0  2  0  0  0  0  0  0
  186.5860  178.6850  144.7120 N   0  0  0  0  0  2  0  0  0  0  0  0
  184.3060  179.3200  144.6870 O   0  0  0  0  0  1  0  0  0  0  0  0
  185.3830  178.9850  145.5210 C   0  0  1  0  0  3  0  0  0  0  0  0
  184.9540  177.8170  146.4150 C   0  0  0  0  0  2  0  0  0  0  0  0
  186.0620  177.5040  147.3800 C   0  0  0  0  0  0  0  0  0  0  0  0
  187.0610  178.4530  147.5910 O   0  0  0  0  0  0  0  0  0  0  0  0
  185.9640  176.4800  148.1410 O   0  0  0  0  0  1  0  0  0  0  0  0
  190.5570  177.2450  145.0150 C   0  0  0  0  0  3  0  0  0  0  0  0
  190.4250  177.1330  146.2270 O   0  0  0  0  0  0  0  0  0  0  0  0
  195.2520  170.3860  144.0640 C   0  0  0  0  0  2  0  0  0  0  0  0
  194.6240  168.3930  144.9120 C   0  0  0  0  0  1  0  0  0  0  0  0
  194.8400  169.7330  145.2640 O   0  0  0  0  0  0  0  0  0  0  0  0
  1  3  1  0  0  0  0
  2 40  1  1  0  0  0
  2 11  1  0  0  0  0
  2  3  1  0  0  0  0
  3  9  2  0  0  0  0
  4  6  1  0  0  0  0
  5 14  1  6  0  0  0
  5 10  1  0  0  0  0
  6 65  1  1  0  0  0
  6 12  1  0  0  0  0
  7 13  1  6  0  0  0
  7  5  1  0  0  0  0
  7  1  1  0  0  0  0
  8  7  1  0  0  0  0
 10  8  1  6  0  0  0
 10  2  1  0  0  0  0
 12 11  2  0  0  0  0
 14  4  2  0  0  0  0
 15 14  1  0  0  0  0
 16 15  1  0  0  0  0
 17 16  2  0  0  0  0
 18 15  2  0  0  0  0
 19 18  1  0  0  0  0
 20 19  2  0  0  0  0
 20 17  1  0  0  0  0
 21 28  1  0  0  0  0
 21 32  2  0  0  0  0
 22 26  1  0  0  0  0
 22 33  1  0  0  0  0
 23 31  1  0  0  0  0
 26 35  1  6  0  0  0
 27 24  1  0  0  0  0
 27 26  1  0  0  0  0
 29 33  1  0  0  0  0
 29 23  1  0  0  0  0
 30 29  2  0  0  0  0
 32 31  1  0  0  0  0
 33 18  1  6  0  0  0
 34 25  1  1  0  0  0
 34 24  1  0  0  0  0
 34 28  1  0  0  0  0
 35 36  2  0  0  0  0
 37 20  1  0  0  0  0
 38 37  1  0  0  0  0
 39 37  2  0  0  0  0
 41 40  1  0  0  0  0
 41 63  1  1  0  0  0
 43 42  1  1  0  0  0
 43 44  1  0  0  0  0
 44 46  1  0  0  0  0
 44 41  1  1  0  0  0
 45 47  1  0  0  0  0
 45 43  1  0  0  0  0
 47 49  1  6  0  0  0
 47 48  1  0  0  0  0
 48 55  1  6  0  0  0
 48 46  1  0  0  0  0
 50 49  1  0  0  0  0
 51 52  1  6  0  0  0
 51 53  1  0  0  0  0
 51 54  1  0  0  0  0
 53 54  1  0  0  0  0
 54 50  1  1  0  0  0
 55 56  1  0  0  0  0
 56 58  1  0  0  0  0
 58 57  1  6  0  0  0
 58 59  1  0  0  0  0
 59 60  1  0  0  0  0
 60 61  2  0  0  0  0
 60 62  1  0  0  0  0
 63 64  2  0  0  0  0
 65 67  1  0  0  0  0
 66 67  1  0  0  0  0
M  END
>  <MODEL>
4

>  <REMARK>
 VINA RESULT:      -6.1      1.992      3.843
  Name = 
  18 active torsions:
  status: ('A' for Active; 'I' for Inactive)
    1  A    between atoms: C_2  and  C_65
    2  A    between atoms: C_4  and  N_43
    3  A    between atoms: C_13  and  N_47
    4  A    between atoms: C_13  and  C_55
    5  A    between atoms: C_14  and  C_29
    6  A    between atoms: C_15  and  C_18
    7  A    between atoms: C_15  and  O_63
    8  A    between atoms: C_20  and  CA_46
    9  A    between atoms: C_22  and  C_36
   10  A    between atoms: C_22  and  C_66
   11  A    between atoms: C_23  and  C_59
   12  A    between atoms: C_28  and  C_33
   13  A    between atoms: C_33  and  C_67
   14  A    between atoms: C_36  and  C_52
   15  A    between atoms: C_39  and  C_62
   16  A    between atoms: C_41  and  CA_46
   17  A    between atoms: N_43  and  CA_46
   18  A    between atoms: N_47  and  C_67
                            x       y       z     vdW  Elec       q    Type
                         _______ _______ _______ _____ _____    ______ ____

>  <TORSDO>
F 18

$$$$
=
 OpenBabel11062422363D

 67 73  0  0  1  0  0  0  0  0999 V2000
  189.4290  171.7790  143.2210 C   0  0  0  0  0  2  0  0  0  0  0  0
  189.9110  173.6110  141.3260 C   0  0  1  0  0  0  0  0  0  0  0  0
  188.8720  172.6600  142.0550 C   0  0  0  0  0  0  0  0  0  0  0  0
  192.7250  171.1890  139.6870 C   0  0  0  0  0  3  0  0  0  0  0  0
  191.3520  171.6930  141.6890 C   0  0  1  0  0  3  0  0  0  0  0  0
  191.8570  171.9190  138.6320 C   0  0  2  0  0  3  0  0  0  0  0  0
  190.9640  171.7370  143.1760 C   0  0  1  0  0  0  0  0  0  0  0  0
  191.5680  173.1900  143.2030 C   0  0  0  0  0  2  0  0  0  0  0  0
  187.5260  172.7110  141.8370 C   0  0  0  0  0  2  0  0  0  0  0  0
  191.3750  173.2060  141.6840 C   0  0  2  0  0  3  0  0  0  0  0  0
  189.7920  173.4300  139.7920 C   0  0  0  0  0  3  0  0  0  0  0  0
  190.5760  172.8300  138.8560 C   0  0  0  0  0  3  0  0  0  0  0  0
  191.5980  170.7880  143.9810 O   0  0  0  0  0  1  0  0  0  0  0  0
  192.6070  171.1010  141.0430 C   0  0  0  0  0  0  0  0  0  0  0  0
  193.7320  170.4370  141.7860 C   0  0  0  0  0  0  0  0  0  0  0  0
  193.4800  169.3320  142.6640 C   0  0  0  0  0  3  0  0  0  0  0  0
  194.4610  168.8590  143.5560 C   0  0  0  0  0  3  0  0  0  0  0  0
  195.0800  170.9330  141.7230 C   0  0  0  0  0  0  0  0  0  0  0  0
  195.9700  170.5290  142.7040 C   0  0  0  0  0  3  0  0  0  0  0  0
  195.6850  169.5460  143.6590 C   0  0  0  0  0  0  0  0  0  0  0  0
  196.1960  175.2040  138.8340 C   0  0  0  0  0  3  0  0  0  0  0  0
  196.5610  171.5080  139.9410 O   0  0  0  0  0  0  0  0  0  0  0  0
  194.6760  174.2900  141.6890 C   0  0  0  0  0  2  0  0  0  0  0  0
  196.9550  171.9280  136.9270 C   0  0  0  0  0  2  0  0  0  0  0  0
  197.9180  174.0990  136.7520 O   0  0  0  0  0  1  0  0  0  0  0  0
  196.0650  170.6010  138.9390 C   0  0  1  0  0  3  0  0  0  0  0  0
  197.0740  170.6780  137.8000 C   0  0  0  0  0  2  0  0  0  0  0  0
  195.9680  173.8260  138.1940 C   0  0  0  0  0  2  0  0  0  0  0  0
  195.7890  173.2700  141.4630 C   0  0  0  0  0  0  0  0  0  0  0  0
  196.9720  173.6130  141.5740 O   0  0  0  0  0  0  0  0  0  0  0  0
  194.2700  174.9140  140.3540 C   0  0  0  0  0  2  0  0  0  0  0  0
  195.4280  175.6980  139.8210 C   0  0  0  0  0  3  0  0  0  0  0  0
  195.4630  171.9910  140.7120 C   0  0  2  0  0  3  0  0  0  0  0  0
  197.2750  173.2200  137.6510 C   0  0  1  0  0  3  0  0  0  0  0  0
  196.0450  169.1580  139.4190 C   0  0  0  0  0  3  0  0  0  0  0  0
  195.0380  168.4660  139.3150 O   0  0  0  0  0  0  0  0  0  0  0  0
  196.7000  169.1840  144.6680 C   0  0  0  0  0  0  0  0  0  0  0  0
  197.6690  168.4350  144.2850 O   0  0  0  0  0  0  0  0  0  0  0  0
  196.6420  169.6130  145.9750 O   0  0  0  0  0  1  0  0  0  0  0  0
  189.7340  175.0530  141.7100 N   0  0  0  0  0  2  0  0  0  0  0  0
  188.3220  175.4850  142.0490 C   0  0  1  0  0  3  0  0  0  0  0  0
  187.6890  177.8120  143.9570 O   0  0  0  0  0  1  0  0  0  0  0  0
  187.0590  176.5460  144.0010 C   0  0  1  0  0  3  0  0  0  0  0  0
  188.0270  175.4240  143.5840 C   0  0  2  0  0  3  0  0  0  0  0  0
  186.5880  176.2390  145.2840 O   0  0  0  0  0  0  0  0  0  0  0  0
  189.2870  175.5170  144.5090 C   0  0  0  0  0  2  0  0  0  0  0  0
  187.5570  176.5800  146.2610 C   0  0  1  0  0  3  0  0  0  0  0  0
  189.0390  176.1210  145.9480 C   0  0  2  0  0  3  0  0  0  0  0  0
  187.2750  178.0120  146.7950 C   0  0  0  0  0  2  0  0  0  0  0  0
  185.8250  178.0470  147.3890 C   0  0  0  0  0  2  0  0  0  0  0  0
  184.5460  178.9830  145.5560 C   0  0  1  0  0  3  0  0  0  0  0  0
  184.1590  178.5990  144.2850 O   0  0  0  0  0  1  0  0  0  0  0  0
  183.4330  178.6690  146.5450 C   0  0  0  0  0  2  0  0  0  0  0  0
  184.6490  177.7290  146.4440 C   0  0  2  0  0  3  0  0  0  0  0  0
  190.1470  177.1300  146.3830 C   0  0  0  0  0  2  0  0  0  0  0  0
  190.8660  176.6690  147.5830 N   0  0  0  0  0  2  0  0  0  0  0  0
  192.3280  174.8630  147.1370 O   0  0  0  0  0  1  0  0  0  0  0  0
  192.2210  176.2620  147.1510 C   0  0  1  0  0  3  0  0  0  0  0  0
  192.5920  176.7870  145.7600 C   0  0  0  0  0  2  0  0  0  0  0  0
  194.0670  176.6010  145.5440 C   0  0  0  0  0  0  0  0  0  0  0  0
  194.5170  175.4400  144.9160 O   0  0  0  0  0  0  0  0  0  0  0  0
  194.8610  177.5850  145.7400 O   0  0  0  0  0  1  0  0  0  0  0  0
  188.0210  176.8200  141.4230 C   0  0  0  0  0  3  0  0  0  0  0  0
  187.1350  176.9740  140.5910 O   0  0  0  0  0  0  0  0  0  0  0  0
  191.4670  170.9630  137.4620 C   0  0  0  0  0  2  0  0  0  0  0  0
  191.2120  168.8950  136.6020 C   0  0  0  0  0  1  0  0  0  0  0  0
  191.5740  169.5750  137.7720 O   0  0  0  0  0  0  0  0  0  0  0  0
  2 10  1  0  0  0  0
  2 40  1  1  0  0  0
  2  3  1  0  0  0  0
  3  1  1  0  0  0  0
  4 14  2  0  0  0  0
  5 14  1  1  0  0  0
  5  7  1  0  0  0  0
  6 65  1  6  0  0  0
  6 12  1  0  0  0  0
  6  4  1  0  0  0  0
  7  8  1  0  0  0  0
  7  1  1  0  0  0  0
  7 13  1  1  0  0  0
  9  3  2  0  0  0  0
 10  5  1  0  0  0  0
 10  8  1  1  0  0  0
 11  2  1  0  0  0  0
 12 11  2  0  0  0  0
 14 15  1  0  0  0  0
 15 16  1  0  0  0  0
 16 17  2  0  0  0  0
 17 20  1  0  0  0  0
 18 15  2  0  0  0  0
 18 19  1  0  0  0  0
 19 20  2  0  0  0  0
 20 37  1  0  0  0  0
 21 32  2  0  0  0  0
 22 33  1  0  0  0  0
 24 34  1  0  0  0  0
 24 27  1  0  0  0  0
 26 35  1  1  0  0  0
 26 22  1  0  0  0  0
 27 26  1  0  0  0  0
 28 21  1  0  0  0  0
 29 30  2  0  0  0  0
 29 23  1  0  0  0  0
 31 23  1  0  0  0  0
 32 31  1  0  0  0  0
 33 29  1  0  0  0  0
 33 18  1  1  0  0  0
 34 25  1  6  0  0  0
 34 28  1  0  0  0  0
 36 35  2  0  0  0  0
 37 39  1  0  0  0  0
 38 37  2  0  0  0  0
 40 41  1  0  0  0  0
 41 63  1  1  0  0  0
 43 42  1  1  0  0  0
 43 45  1  0  0  0  0
 44 41  1  6  0  0  0
 44 43  1  0  0  0  0
 44 46  1  0  0  0  0
 45 47  1  0  0  0  0
 46 48  1  0  0  0  0
 47 49  1  6  0  0  0
 48 47  1  0  0  0  0
 48 55  1  6  0  0  0
 49 50  1  0  0  0  0
 51 52  1  6  0  0  0
 51 54  1  0  0  0  0
 51 53  1  0  0  0  0
 54 53  1  0  0  0  0
 54 50  1  1  0  0  0
 55 56  1  0  0  0  0
 58 57  1  6  0  0  0
 58 56  1  0  0  0  0
 59 58  1  0  0  0  0
 60 62  1  0  0  0  0
 60 59  1  0  0  0  0
 61 60  2  0  0  0  0
 64 63  2  0  0  0  0
 65 67  1  0  0  0  0
 66 67  1  0  0  0  0
M  END
>  <MODEL>
5

>  <REMARK>
 VINA RESULT:      -5.8      1.961      6.269
  Name = 
  18 active torsions:
  status: ('A' for Active; 'I' for Inactive)
    1  A    between atoms: C_2  and  C_65
    2  A    between atoms: C_4  and  N_43
    3  A    between atoms: C_13  and  N_47
    4  A    between atoms: C_13  and  C_55
    5  A    between atoms: C_14  and  C_29
    6  A    between atoms: C_15  and  C_18
    7  A    between atoms: C_15  and  O_63
    8  A    between atoms: C_20  and  CA_46
    9  A    between atoms: C_22  and  C_36
   10  A    between atoms: C_22  and  C_66
   11  A    between atoms: C_23  and  C_59
   12  A    between atoms: C_28  and  C_33
   13  A    between atoms: C_33  and  C_67
   14  A    between atoms: C_36  and  C_52
   15  A    between atoms: C_39  and  C_62
   16  A    between atoms: C_41  and  CA_46
   17  A    between atoms: N_43  and  CA_46
   18  A    between atoms: N_47  and  C_67
                            x       y       z     vdW  Elec       q    Type
                         _______ _______ _______ _____ _____    ______ ____

>  <TORSDO>
F 18

$$$$
=
 OpenBabel11062422363D

 67 73  0  0  1  0  0  0  0  0999 V2000
  194.7730  176.2310  143.0520 C   0  0  0  0  0  2  0  0  0  0  0  0
  193.4660  173.9130  143.3640 C   0  0  1  0  0  0  0  0  0  0  0  0
  194.2630  175.1150  144.0230 C   0  0  0  0  0  0  0  0  0  0  0  0
  196.0360  172.1080  140.7930 C   0  0  0  0  0  3  0  0  0  0  0  0
  195.1240  174.2570  141.6250 C   0  0  1  0  0  3  0  0  0  0  0  0
  195.6640  171.2210  142.0070 C   0  0  2  0  0  3  0  0  0  0  0  0
  194.7230  175.7410  141.5970 C   0  0  1  0  0  0  0  0  0  0  0  0
  193.2750  175.2550  141.2170 C   0  0  0  0  0  2  0  0  0  0  0  0
  194.3610  175.3020  145.3710 C   0  0  0  0  0  2  0  0  0  0  0  0
  193.6660  173.9010  141.8160 C   0  0  2  0  0  3  0  0  0  0  0  0
  194.0460  172.5670  143.8690 C   0  0  0  0  0  3  0  0  0  0  0  0
  194.8130  171.6030  143.2930 C   0  0  0  0  0  3  0  0  0  0  0  0
  195.3860  176.5150  140.6430 O   0  0  0  0  0  1  0  0  0  0  0  0
  195.7770  173.4190  140.5240 C   0  0  0  0  0  0  0  0  0  0  0  0
  196.1500  173.9250  139.1580 C   0  0  0  0  0  0  0  0  0  0  0  0
  197.2650  174.8080  138.9820 C   0  0  0  0  0  3  0  0  0  0  0  0
  197.4810  175.4900  137.7690 C   0  0  0  0  0  3  0  0  0  0  0  0
  195.3570  173.6240  137.9970 C   0  0  0  0  0  0  0  0  0  0  0  0
  195.5250  174.4130  136.8710 C   0  0  0  0  0  3  0  0  0  0  0  0
  196.5280  175.3800  136.7390 C   0  0  0  0  0  0  0  0  0  0  0  0
  190.9840  170.6940  138.3420 C   0  0  0  0  0  3  0  0  0  0  0  0
  194.5810  171.5260  137.1620 O   0  0  0  0  0  0  0  0  0  0  0  0
  192.0970  173.8210  138.8690 C   0  0  0  0  0  2  0  0  0  0  0  0
  194.1230  168.5360  137.6800 C   0  0  0  0  0  2  0  0  0  0  0  0
  191.8350  168.1820  137.1230 O   0  0  0  0  0  1  0  0  0  0  0  0
  195.5560  170.6670  137.7810 C   0  0  1  0  0  3  0  0  0  0  0  0
  195.3370  169.2990  137.1470 C   0  0  0  0  0  2  0  0  0  0  0  0
  192.3830  170.0920  138.5390 C   0  0  0  0  0  2  0  0  0  0  0  0
  192.9430  173.2630  137.7280 C   0  0  0  0  0  0  0  0  0  0  0  0
  192.4290  173.0580  136.6220 O   0  0  0  0  0  0  0  0  0  0  0  0
  191.5460  172.6710  139.7120 C   0  0  0  0  0  2  0  0  0  0  0  0
  190.6030  171.8700  138.8710 C   0  0  0  0  0  3  0  0  0  0  0  0
  194.2600  172.5850  138.0620 C   0  0  2  0  0  3  0  0  0  0  0  0
  192.7940  169.1900  137.3600 C   0  0  1  0  0  3  0  0  0  0  0  0
  196.9830  171.0830  137.4610 C   0  0  0  0  0  3  0  0  0  0  0  0
  197.9320  170.6530  138.1090 O   0  0  0  0  0  0  0  0  0  0  0  0
  196.6260  176.1740  135.4980 C   0  0  0  0  0  0  0  0  0  0  0  0
  197.2580  175.6490  134.5130 O   0  0  0  0  0  0  0  0  0  0  0  0
  196.0760  177.4300  135.3670 O   0  0  0  0  0  1  0  0  0  0  0  0
  191.9890  173.9920  143.6290 N   0  0  0  0  0  2  0  0  0  0  0  0
  191.5100  173.3750  144.9260 C   0  0  1  0  0  3  0  0  0  0  0  0
  188.7730  174.7750  144.9500 O   0  0  0  0  0  1  0  0  0  0  0  0
  189.4520  174.3250  146.1060 C   0  0  1  0  0  3  0  0  0  0  0  0
  190.9780  174.4410  145.9390 C   0  0  2  0  0  3  0  0  0  0  0  0
  189.0960  175.0620  147.2430 O   0  0  0  0  0  0  0  0  0  0  0  0
  191.3040  175.9280  145.5740 C   0  0  0  0  0  2  0  0  0  0  0  0
  189.0560  176.4470  146.9420 C   0  0  1  0  0  3  0  0  0  0  0  0
  190.2870  177.0080  146.1210 C   0  0  2  0  0  3  0  0  0  0  0  0
  187.6060  176.8530  146.5580 C   0  0  0  0  0  2  0  0  0  0  0  0
  187.2250  178.1520  147.3480 C   0  0  0  0  0  2  0  0  0  0  0  0
  185.0650  177.7670  146.3190 C   0  0  1  0  0  3  0  0  0  0  0  0
  183.8170  177.3160  146.7100 O   0  0  0  0  0  1  0  0  0  0  0  0
  185.0930  179.2870  146.3540 C   0  0  0  0  0  2  0  0  0  0  0  0
  185.7280  178.4870  147.5070 C   0  0  2  0  0  3  0  0  0  0  0  0
  189.9310  178.0970  145.0620 C   0  0  0  0  0  2  0  0  0  0  0  0
  190.2820  177.6680  143.6970 N   0  0  0  0  0  2  0  0  0  0  0  0
  189.1620  178.5850  141.8250 O   0  0  0  0  0  1  0  0  0  0  0  0
  189.0360  177.6900  142.8980 C   0  0  1  0  0  3  0  0  0  0  0  0
  188.6580  176.3150  142.3360 C   0  0  0  0  0  2  0  0  0  0  0  0
  187.1900  176.3030  142.0170 C   0  0  0  0  0  0  0  0  0  0  0  0
  186.3010  175.7710  142.9500 O   0  0  0  0  0  1  0  0  0  0  0  0
  186.7600  176.9620  141.0080 O   0  0  0  0  0  0  0  0  0  0  0  0
  190.5370  172.2620  144.6450 C   0  0  0  0  0  3  0  0  0  0  0  0
  190.8680  171.2160  144.1000 O   0  0  0  0  0  0  0  0  0  0  0  0
  196.9130  170.4710  142.5630 C   0  0  0  0  0  2  0  0  0  0  0  0
  197.3330  168.2560  142.5250 C   0  0  0  0  0  1  0  0  0  0  0  0
  197.3840  169.4110  141.7320 O   0  0  0  0  0  0  0  0  0  0  0  0
  1  3  1  0  0  0  0
  2 40  1  1  0  0  0
  2 11  1  0  0  0  0
  2  3  1  0  0  0  0
  3  9  2  0  0  0  0
  4  6  1  0  0  0  0
  5 14  1  6  0  0  0
  5 10  1  0  0  0  0
  6 65  1  1  0  0  0
  6 12  1  0  0  0  0
  7 13  1  6  0  0  0
  7  5  1  0  0  0  0
  7  1  1  0  0  0  0
  8  7  1  0  0  0  0
 10  8  1  6  0  0  0
 10  2  1  0  0  0  0
 12 11  2  0  0  0  0
 14  4  2  0  0  0  0
 15 14  1  0  0  0  0
 16 15  1  0  0  0  0
 17 16  2  0  0  0  0
 18 15  2  0  0  0  0
 19 18  1  0  0  0  0
 20 19  2  0  0  0  0
 20 17  1  0  0  0  0
 21 28  1  0  0  0  0
 21 32  2  0  0  0  0
 22 26  1  0  0  0  0
 22 33  1  0  0  0  0
 23 31  1  0  0  0  0
 26 35  1  6  0  0  0
 27 24  1  0  0  0  0
 27 26  1  0  0  0  0
 29 33  1  0  0  0  0
 29 23  1  0  0  0  0
 30 29  2  0  0  0  0
 32 31  1  0  0  0  0
 33 18  1  6  0  0  0
 34 25  1  1  0  0  0
 34 24  1  0  0  0  0
 34 28  1  0  0  0  0
 35 36  2  0  0  0  0
 37 20  1  0  0  0  0
 38 37  2  0  0  0  0
 39 37  1  0  0  0  0
 40 41  1  0  0  0  0
 41 63  1  6  0  0  0
 43 42  1  6  0  0  0
 43 45  1  0  0  0  0
 44 41  1  6  0  0  0
 44 43  1  0  0  0  0
 46 44  1  0  0  0  0
 46 48  1  0  0  0  0
 47 49  1  6  0  0  0
 47 45  1  0  0  0  0
 48 55  1  6  0  0  0
 48 47  1  0  0  0  0
 49 50  1  0  0  0  0
 51 53  1  0  0  0  0
 51 52  1  1  0  0  0
 51 54  1  0  0  0  0
 53 54  1  0  0  0  0
 54 50  1  6  0  0  0
 56 55  1  0  0  0  0
 58 57  1  6  0  0  0
 58 56  1  0  0  0  0
 59 58  1  0  0  0  0
 60 59  1  0  0  0  0
 60 61  1  0  0  0  0
 62 60  2  0  0  0  0
 64 63  2  0  0  0  0
 67 66  1  0  0  0  0
 67 65  1  0  0  0  0
M  END
>  <MODEL>
6

>  <REMARK>
 VINA RESULT:      -5.5      1.657      2.222
  Name = 
  18 active torsions:
  status: ('A' for Active; 'I' for Inactive)
    1  A    between atoms: C_2  and  C_65
    2  A    between atoms: C_4  and  N_43
    3  A    between atoms: C_13  and  N_47
    4  A    between atoms: C_13  and  C_55
    5  A    between atoms: C_14  and  C_29
    6  A    between atoms: C_15  and  C_18
    7  A    between atoms: C_15  and  O_63
    8  A    between atoms: C_20  and  CA_46
    9  A    between atoms: C_22  and  C_36
   10  A    between atoms: C_22  and  C_66
   11  A    between atoms: C_23  and  C_59
   12  A    between atoms: C_28  and  C_33
   13  A    between atoms: C_33  and  C_67
   14  A    between atoms: C_36  and  C_52
   15  A    between atoms: C_39  and  C_62
   16  A    between atoms: C_41  and  CA_46
   17  A    between atoms: N_43  and  CA_46
   18  A    between atoms: N_47  and  C_67
                            x       y       z     vdW  Elec       q    Type
                         _______ _______ _______ _____ _____    ______ ____

>  <TORSDO>
F 18

$$$$
=
 OpenBabel11062422363D

 67 73  0  0  1  0  0  0  0  0999 V2000
  197.2900  169.0480  139.1450 C   0  0  0  0  0  2  0  0  0  0  0  0
  195.2980  170.7430  138.5680 C   0  0  1  0  0  0  0  0  0  0  0  0
  196.6340  170.0220  138.1120 C   0  0  0  0  0  0  0  0  0  0  0  0
  196.2590  172.9900  141.8080 C   0  0  0  0  0  3  0  0  0  0  0  0
  196.4880  170.7940  140.6820 C   0  0  1  0  0  3  0  0  0  0  0  0
  195.8720  173.8370  140.5700 C   0  0  2  0  0  3  0  0  0  0  0  0
  196.7060  169.2780  140.5470 C   0  0  1  0  0  0  0  0  0  0  0  0
  195.1380  169.1410  140.5320 C   0  0  0  0  0  2  0  0  0  0  0  0
  197.1160  170.0720  136.8370 C   0  0  0  0  0  2  0  0  0  0  0  0
  195.0990  170.6120  140.1110 C   0  0  2  0  0  3  0  0  0  0  0  0
  195.4070  172.2630  138.2900 C   0  0  0  0  0  3  0  0  0  0  0  0
  195.5740  173.3520  139.0880 C   0  0  0  0  0  3  0  0  0  0  0  0
  197.3690  168.6770  141.6190 O   0  0  0  0  0  1  0  0  0  0  0  0
  196.4780  171.6520  141.9500 C   0  0  0  0  0  0  0  0  0  0  0  0
  196.6790  171.1340  143.3470 C   0  0  0  0  0  0  0  0  0  0  0  0
  197.7980  170.2970  143.6640 C   0  0  0  0  0  3  0  0  0  0  0  0
  197.8750  169.6000  144.8850 C   0  0  0  0  0  3  0  0  0  0  0  0
  195.7200  171.3750  144.3890 C   0  0  0  0  0  0  0  0  0  0  0  0
  195.7660  170.5710  145.5160 C   0  0  0  0  0  3  0  0  0  0  0  0
  196.7840  169.6460  145.7730 C   0  0  0  0  0  0  0  0  0  0  0  0
  191.3780  174.1580  143.2780 C   0  0  0  0  0  3  0  0  0  0  0  0
  194.5380  173.2290  145.3200 O   0  0  0  0  0  0  0  0  0  0  0  0
  192.8880  171.2460  142.5470 C   0  0  0  0  0  2  0  0  0  0  0  0
  193.9680  176.2440  145.2500 C   0  0  0  0  0  2  0  0  0  0  0  0
  191.5950  176.3960  145.1400 O   0  0  0  0  0  1  0  0  0  0  0  0
  195.5650  174.2310  145.1970 C   0  0  1  0  0  3  0  0  0  0  0  0
  195.0430  175.4320  145.9760 C   0  0  0  0  0  2  0  0  0  0  0  0
  192.7100  174.8370  143.6310 C   0  0  0  0  0  2  0  0  0  0  0  0
  193.3090  171.5880  143.9730 C   0  0  0  0  0  0  0  0  0  0  0  0
  192.4790  171.5450  144.8890 O   0  0  0  0  0  0  0  0  0  0  0  0
  192.5000  172.5240  141.8040 C   0  0  0  0  0  2  0  0  0  0  0  0
  191.2810  173.1030  142.4510 C   0  0  0  0  0  3  0  0  0  0  0  0
  194.5950  172.3660  144.1860 C   0  0  2  0  0  3  0  0  0  0  0  0
  192.6730  175.4920  145.0240 C   0  0  1  0  0  3  0  0  0  0  0  0
  196.8700  173.8090  145.8530 C   0  0  0  0  0  3  0  0  0  0  0  0
  197.9410  173.9080  145.2630 O   0  0  0  0  0  0  0  0  0  0  0  0
  196.7450  168.8310  147.0030 C   0  0  0  0  0  0  0  0  0  0  0  0
  197.8600  168.3670  147.4370 O   0  0  0  0  0  0  0  0  0  0  0  0
  195.5790  168.5580  147.6840 O   0  0  0  0  0  1  0  0  0  0  0  0
  194.0790  170.1640  137.9050 N   0  0  0  0  0  2  0  0  0  0  0  0
  192.7620  170.3850  138.6190 C   0  0  1  0  0  3  0  0  0  0  0  0
  192.6040  173.2170  137.4320 O   0  0  0  0  0  1  0  0  0  0  0  0
  192.2620  172.0350  136.7330 C   0  0  1  0  0  3  0  0  0  0  0  0
  191.6620  170.9790  137.6800 C   0  0  2  0  0  3  0  0  0  0  0  0
  191.3210  172.2770  135.7230 O   0  0  0  0  0  0  0  0  0  0  0  0
  190.4430  171.6360  138.4120 C   0  0  0  0  0  2  0  0  0  0  0  0
  190.3000  173.1390  136.1950 C   0  0  1  0  0  3  0  0  0  0  0  0
  189.7010  172.7820  137.6170 C   0  0  2  0  0  3  0  0  0  0  0  0
  190.6560  174.6090  135.8410 C   0  0  0  0  0  2  0  0  0  0  0  0
  189.5980  175.1470  134.8170 C   0  0  0  0  0  2  0  0  0  0  0  0
  187.4770  175.7400  135.8300 C   0  0  1  0  0  3  0  0  0  0  0  0
  187.0350  176.5390  136.8690 O   0  0  0  0  0  1  0  0  0  0  0  0
  187.3890  176.5090  134.5210 C   0  0  0  0  0  2  0  0  0  0  0  0
  188.7500  176.3670  135.2300 C   0  0  2  0  0  3  0  0  0  0  0  0
  189.3490  174.0120  138.5100 C   0  0  0  0  0  2  0  0  0  0  0  0
  187.9500  173.9700  138.9700 N   0  0  0  0  0  2  0  0  0  0  0  0
  188.3070  172.7160  140.9450 O   0  0  0  0  0  1  0  0  0  0  0  0
  187.9750  173.9870  140.4500 C   0  0  1  0  0  3  0  0  0  0  0  0
  188.9690  175.0010  141.0230 C   0  0  0  0  0  2  0  0  0  0  0  0
  188.2190  176.0190  141.8340 C   0  0  0  0  0  0  0  0  0  0  0  0
  188.8430  177.2250  142.1490 O   0  0  0  0  0  1  0  0  0  0  0  0
  186.9660  175.8590  142.0400 O   0  0  0  0  0  0  0  0  0  0  0  0
  192.3400  169.1310  139.3360 C   0  0  0  0  0  3  0  0  0  0  0  0
  191.7520  169.1500  140.4100 O   0  0  0  0  0  0  0  0  0  0  0  0
  196.8230  175.0630  140.4050 C   0  0  0  0  0  2  0  0  0  0  0  0
  196.4890  176.4380  142.1610 C   0  0  0  0  0  1  0  0  0  0  0  0
  196.2470  176.3120  140.7860 O   0  0  0  0  0  0  0  0  0  0  0  0
  1  7  1  0  0  0  0
  2 40  1  6  0  0  0
  2 10  1  0  0  0  0
  3  2  1  0  0  0  0
  3  1  1  0  0  0  0
  4 14  2  0  0  0  0
  5 14  1  1  0  0  0
  6 65  1  6  0  0  0
  6  4  1  0  0  0  0
  7  5  1  0  0  0  0
  7 13  1  1  0  0  0
  8  7  1  0  0  0  0
  9  3  2  0  0  0  0
 10  8  1  6  0  0  0
 10  5  1  0  0  0  0
 11  2  1  0  0  0  0
 11 12  2  0  0  0  0
 12  6  1  0  0  0  0
 14 15  1  0  0  0  0
 15 16  2  0  0  0  0
 15 18  1  0  0  0  0
 16 17  1  0  0  0  0
 17 20  2  0  0  0  0
 18 19  2  0  0  0  0
 19 20  1  0  0  0  0
 20 37  1  0  0  0  0
 21 28  1  0  0  0  0
 23 29  1  0  0  0  0
 24 27  1  0  0  0  0
 26 22  1  0  0  0  0
 26 35  1  1  0  0  0
 26 27  1  0  0  0  0
 28 34  1  0  0  0  0
 29 33  1  0  0  0  0
 29 30  2  0  0  0  0
 31 32  1  0  0  0  0
 31 23  1  0  0  0  0
 32 21  2  0  0  0  0
 33 18  1  1  0  0  0
 33 22  1  0  0  0  0
 34 25  1  6  0  0  0
 34 24  1  0  0  0  0
 36 35  2  0  0  0  0
 37 38  2  0  0  0  0
 37 39  1  0  0  0  0
 40 41  1  0  0  0  0
 41 63  1  6  0  0  0
 43 42  1  1  0  0  0
 43 44  1  0  0  0  0
 44 46  1  0  0  0  0
 44 41  1  1  0  0  0
 45 47  1  0  0  0  0
 45 43  1  0  0  0  0
 47 49  1  1  0  0  0
 47 48  1  0  0  0  0
 48 46  1  0  0  0  0
 48 55  1  1  0  0  0
 50 49  1  0  0  0  0
 51 52  1  1  0  0  0
 53 54  1  0  0  0  0
 53 51  1  0  0  0  0
 54 50  1  6  0  0  0
 54 51  1  0  0  0  0
 55 56  1  0  0  0  0
 56 58  1  0  0  0  0
 58 57  1  6  0  0  0
 58 59  1  0  0  0  0
 59 60  1  0  0  0  0
 60 62  2  0  0  0  0
 60 61  1  0  0  0  0
 63 64  2  0  0  0  0
 65 67  1  0  0  0  0
 67 66  1  0  0  0  0
M  END
>  <MODEL>
7

>  <REMARK>
 VINA RESULT:      -5.2      2.977      8.061
  Name = 
  18 active torsions:
  status: ('A' for Active; 'I' for Inactive)
    1  A    between atoms: C_2  and  C_65
    2  A    between atoms: C_4  and  N_43
    3  A    between atoms: C_13  and  N_47
    4  A    between atoms: C_13  and  C_55
    5  A    between atoms: C_14  and  C_29
    6  A    between atoms: C_15  and  C_18
    7  A    between atoms: C_15  and  O_63
    8  A    between atoms: C_20  and  CA_46
    9  A    between atoms: C_22  and  C_36
   10  A    between atoms: C_22  and  C_66
   11  A    between atoms: C_23  and  C_59
   12  A    between atoms: C_28  and  C_33
   13  A    between atoms: C_33  and  C_67
   14  A    between atoms: C_36  and  C_52
   15  A    between atoms: C_39  and  C_62
   16  A    between atoms: C_41  and  CA_46
   17  A    between atoms: N_43  and  CA_46
   18  A    between atoms: N_47  and  C_67
                            x       y       z     vdW  Elec       q    Type
                         _______ _______ _______ _____ _____    ______ ____

>  <TORSDO>
F 18

$$$$
=
 OpenBabel11062422363D

 67 73  0  0  1  0  0  0  0  0999 V2000
  193.6630  175.6460  141.9740 C   0  0  0  0  0  2  0  0  0  0  0  0
  193.8270  174.4110  144.3450 C   0  0  1  0  0  0  0  0  0  0  0  0
  194.3660  175.5370  143.3670 C   0  0  0  0  0  0  0  0  0  0  0  0
  194.4500  170.8670  142.4680 C   0  0  0  0  0  3  0  0  0  0  0  0
  193.6430  173.2010  142.2500 C   0  0  1  0  0  3  0  0  0  0  0  0
  195.3240  171.0500  143.7340 C   0  0  2  0  0  3  0  0  0  0  0  0
  192.8370  174.3820  141.6880 C   0  0  1  0  0  0  0  0  0  0  0  0
  191.8010  174.1150  142.8440 C   0  0  0  0  0  2  0  0  0  0  0  0
  195.2590  176.4960  143.7450 C   0  0  0  0  0  2  0  0  0  0  0  0
  192.9350  173.3890  143.5740 C   0  0  2  0  0  3  0  0  0  0  0  0
  195.0190  173.5890  144.8980 C   0  0  0  0  0  3  0  0  0  0  0  0
  195.4820  172.3340  144.6560 C   0  0  0  0  0  3  0  0  0  0  0  0
  192.3670  174.2120  140.3850 O   0  0  0  0  0  1  0  0  0  0  0  0
  193.6380  171.7370  141.8030 C   0  0  0  0  0  0  0  0  0  0  0  0
  192.7980  171.1750  140.6900 C   0  0  0  0  0  0  0  0  0  0  0  0
  191.6400  170.3810  140.9750 C   0  0  0  0  0  3  0  0  0  0  0  0
  190.9870  169.6410  139.9700 C   0  0  0  0  0  3  0  0  0  0  0  0
  193.1680  171.3300  139.3100 C   0  0  0  0  0  0  0  0  0  0  0  0
  192.5840  170.4850  138.3800 C   0  0  0  0  0  3  0  0  0  0  0  0
  191.5420  169.6000  138.6770 C   0  0  0  0  0  0  0  0  0  0  0  0
  197.5850  174.0510  138.3520 C   0  0  0  0  0  3  0  0  0  0  0  0
  193.9860  172.8100  137.6240 O   0  0  0  0  0  0  0  0  0  0  0  0
  196.4170  171.5190  140.2270 C   0  0  0  0  0  2  0  0  0  0  0  0
  194.4880  175.7020  136.7310 C   0  0  0  0  0  2  0  0  0  0  0  0
  196.7860  175.7410  136.1100 O   0  0  0  0  0  1  0  0  0  0  0  0
  193.0190  173.8660  137.7680 C   0  0  1  0  0  3  0  0  0  0  0  0
  193.2660  174.7940  136.5850 C   0  0  0  0  0  2  0  0  0  0  0  0
  196.1940  174.6910  138.2310 C   0  0  0  0  0  2  0  0  0  0  0  0
  195.5900  171.5040  138.9440 C   0  0  0  0  0  0  0  0  0  0  0  0
  196.1180  171.1780  137.8740 O   0  0  0  0  0  0  0  0  0  0  0  0
  196.9780  172.9200  140.4630 C   0  0  0  0  0  2  0  0  0  0  0  0
  197.9410  173.2410  139.3640 C   0  0  0  0  0  3  0  0  0  0  0  0
  194.2820  172.2730  138.9120 C   0  0  2  0  0  3  0  0  0  0  0  0
  195.8080  174.9610  136.7650 C   0  0  1  0  0  3  0  0  0  0  0  0
  191.5880  173.3650  137.6510 C   0  0  0  0  0  3  0  0  0  0  0  0
  190.6750  174.1160  137.3240 O   0  0  0  0  0  0  0  0  0  0  0  0
  190.9840  168.7370  137.6160 C   0  0  0  0  0  0  0  0  0  0  0  0
  189.7490  168.4070  137.7160 O   0  0  0  0  0  1  0  0  0  0  0  0
  191.7300  168.2860  136.5500 O   0  0  0  0  0  0  0  0  0  0  0  0
  193.0020  174.9760  145.4670 N   0  0  0  0  0  2  0  0  0  0  0  0
  193.1470  176.4620  145.7210 C   0  0  1  0  0  3  0  0  0  0  0  0
  190.4200  175.2980  146.5350 O   0  0  0  0  0  1  0  0  0  0  0  0
  190.8860  176.5820  146.9040 C   0  0  1  0  0  3  0  0  0  0  0  0
  191.7690  177.1960  145.8020 C   0  0  2  0  0  3  0  0  0  0  0  0
  189.8310  177.4740  147.1430 O   0  0  0  0  0  0  0  0  0  0  0  0
  190.9370  177.2010  144.4760 C   0  0  0  0  0  2  0  0  0  0  0  0
  188.8380  177.3440  146.1390 C   0  0  1  0  0  3  0  0  0  0  0  0
  189.3690  177.2950  144.6490 C   0  0  2  0  0  3  0  0  0  0  0  0
  187.7450  176.3480  146.6160 C   0  0  0  0  0  2  0  0  0  0  0  0
  186.5410  176.4090  145.6140 C   0  0  0  0  0  2  0  0  0  0  0  0
  185.1660  178.4050  145.5780 C   0  0  1  0  0  3  0  0  0  0  0  0
  183.8590  178.7340  145.2700 O   0  0  0  0  0  1  0  0  0  0  0  0
  185.2970  178.1790  147.0760 C   0  0  0  0  0  2  0  0  0  0  0  0
  185.2000  176.9680  146.1300 C   0  0  2  0  0  3  0  0  0  0  0  0
  188.5940  176.3240  143.7050 C   0  0  0  0  0  2  0  0  0  0  0  0
  189.0940  176.3930  142.3210 N   0  0  0  0  0  2  0  0  0  0  0  0
  187.9810  174.4480  141.5580 O   0  0  0  0  0  1  0  0  0  0  0  0
  188.0330  175.8460  141.4460 C   0  0  1  0  0  3  0  0  0  0  0  0
  186.6430  176.4060  141.7640 C   0  0  0  0  0  2  0  0  0  0  0  0
  186.3450  177.5410  140.8270 C   0  0  0  0  0  0  0  0  0  0  0  0
  186.6560  177.4000  139.4750 O   0  0  0  0  0  0  0  0  0  0  0  0
  185.6280  178.5200  141.2320 O   0  0  0  0  0  1  0  0  0  0  0  0
  194.0380  176.7030  146.9100 C   0  0  0  0  0  3  0  0  0  0  0  0
  194.9930  177.4680  146.8760 O   0  0  0  0  0  0  0  0  0  0  0  0
  196.7820  170.5500  143.4910 C   0  0  0  0  0  2  0  0  0  0  0  0
  197.0050  168.3130  143.6550 C   0  0  0  0  0  1  0  0  0  0  0  0
  197.2010  169.5050  144.3660 O   0  0  0  0  0  0  0  0  0  0  0  0
  1  3  1  0  0  0  0
  2 11  1  0  0  0  0
  2 40  1  1  0  0  0
  3  9  2  0  0  0  0
  3  2  1  0  0  0  0
  4  6  1  0  0  0  0
  5 14  1  6  0  0  0
  5 10  1  0  0  0  0
  6 65  1  6  0  0  0
  6 12  1  0  0  0  0
  7 13  1  6  0  0  0
  7  1  1  0  0  0  0
  7  5  1  0  0  0  0
  7  8  1  0  0  0  0
 10  8  1  6  0  0  0
 10  2  1  0  0  0  0
 12 11  2  0  0  0  0
 14  4  2  0  0  0  0
 15 16  1  0  0  0  0
 15 14  1  0  0  0  0
 17 16  2  0  0  0  0
 18 15  2  0  0  0  0
 19 20  2  0  0  0  0
 19 18  1  0  0  0  0
 20 17  1  0  0  0  0
 21 32  2  0  0  0  0
 22 26  1  0  0  0  0
 22 33  1  0  0  0  0
 23 31  1  0  0  0  0
 24 34  1  0  0  0  0
 26 35  1  6  0  0  0
 27 24  1  0  0  0  0
 27 26  1  0  0  0  0
 28 21  1  0  0  0  0
 29 23  1  0  0  0  0
 30 29  2  0  0  0  0
 32 31  1  0  0  0  0
 33 29  1  0  0  0  0
 33 18  1  6  0  0  0
 34 25  1  1  0  0  0
 34 28  1  0  0  0  0
 36 35  2  0  0  0  0
 37 38  1  0  0  0  0
 37 20  1  0  0  0  0
 39 37  2  0  0  0  0
 40 41  1  0  0  0  0
 41 63  1  1  0  0  0
 43 42  1  6  0  0  0
 43 45  1  0  0  0  0
 44 41  1  6  0  0  0
 44 43  1  0  0  0  0
 46 48  1  0  0  0  0
 46 44  1  0  0  0  0
 47 49  1  1  0  0  0
 47 45  1  0  0  0  0
 48 55  1  1  0  0  0
 48 47  1  0  0  0  0
 50 49  1  0  0  0  0
 51 52  1  1  0  0  0
 51 54  1  0  0  0  0
 51 53  1  0  0  0  0
 54 50  1  6  0  0  0
 54 53  1  0  0  0  0
 56 55  1  0  0  0  0
 58 57  1  1  0  0  0
 58 59  1  0  0  0  0
 58 56  1  0  0  0  0
 60 62  1  0  0  0  0
 60 59  1  0  0  0  0
 61 60  2  0  0  0  0
 64 63  2  0  0  0  0
 65 67  1  0  0  0  0
 66 67  1  0  0  0  0
M  END
>  <MODEL>
8

>  <REMARK>
 VINA RESULT:      -5.0      1.487      4.278
  Name = 
  18 active torsions:
  status: ('A' for Active; 'I' for Inactive)
    1  A    between atoms: C_2  and  C_65
    2  A    between atoms: C_4  and  N_43
    3  A    between atoms: C_13  and  N_47
    4  A    between atoms: C_13  and  C_55
    5  A    between atoms: C_14  and  C_29
    6  A    between atoms: C_15  and  C_18
    7  A    between atoms: C_15  and  O_63
    8  A    between atoms: C_20  and  CA_46
    9  A    between atoms: C_22  and  C_36
   10  A    between atoms: C_22  and  C_66
   11  A    between atoms: C_23  and  C_59
   12  A    between atoms: C_28  and  C_33
   13  A    between atoms: C_33  and  C_67
   14  A    between atoms: C_36  and  C_52
   15  A    between atoms: C_39  and  C_62
   16  A    between atoms: C_41  and  CA_46
   17  A    between atoms: N_43  and  CA_46
   18  A    between atoms: N_47  and  C_67
                            x       y       z     vdW  Elec       q    Type
                         _______ _______ _______ _____ _____    ______ ____

>  <TORSDO>
F 18

$$$$
=
 OpenBabel11062422363D

 67 73  0  0  1  0  0  0  0  0999 V2000
  195.4880  176.3780  143.1190 C   0  0  0  0  0  2  0  0  0  0  0  0
  194.0050  174.6130  144.4830 C   0  0  1  0  0  0  0  0  0  0  0  0
  194.9720  175.8690  144.5050 C   0  0  0  0  0  0  0  0  0  0  0  0
  196.1350  171.5600  142.8650 C   0  0  0  0  0  3  0  0  0  0  0  0
  195.5130  173.9540  142.6990 C   0  0  1  0  0  3  0  0  0  0  0  0
  195.7990  171.3440  144.3620 C   0  0  2  0  0  3  0  0  0  0  0  0
  195.2530  175.3150  142.0350 C   0  0  1  0  0  0  0  0  0  0  0  0
  193.7360  174.9000  141.9740 C   0  0  0  0  0  2  0  0  0  0  0  0
  195.2150  176.6100  145.6250 C   0  0  0  0  0  2  0  0  0  0  0  0
  194.0530  173.9040  143.0930 C   0  0  2  0  0  3  0  0  0  0  0  0
  194.5010  173.5580  145.5050 C   0  0  0  0  0  3  0  0  0  0  0  0
  195.1160  172.3510  145.3820 C   0  0  0  0  0  3  0  0  0  0  0  0
  195.8910  175.5070  140.8080 O   0  0  0  0  0  1  0  0  0  0  0  0
  195.9770  172.6450  142.0550 C   0  0  0  0  0  0  0  0  0  0  0  0
  196.2620  172.4550  140.5910 C   0  0  0  0  0  0  0  0  0  0  0  0
  197.5500  172.7720  140.0480 C   0  0  0  0  0  3  0  0  0  0  0  0
  197.7680  172.8440  138.6590 C   0  0  0  0  0  3  0  0  0  0  0  0
  195.2410  172.0420  139.6680 C   0  0  0  0  0  0  0  0  0  0  0  0
  195.4600  172.2550  138.3170 C   0  0  0  0  0  3  0  0  0  0  0  0
  196.6750  172.7000  137.7840 C   0  0  0  0  0  0  0  0  0  0  0  0
  190.2420  171.0170  141.0050 C   0  0  0  0  0  3  0  0  0  0  0  0
  193.9170  170.1180  140.1620 O   0  0  0  0  0  0  0  0  0  0  0  0
  192.1650  173.4460  139.7020 C   0  0  0  0  0  2  0  0  0  0  0  0
  192.6720  168.3040  142.3010 C   0  0  0  0  0  2  0  0  0  0  0  0
  190.3680  168.1880  141.7120 O   0  0  0  0  0  1  0  0  0  0  0  0
  194.6300  169.6500  141.3210 C   0  0  1  0  0  3  0  0  0  0  0  0
  194.0420  168.2770  141.6200 C   0  0  0  0  0  2  0  0  0  0  0  0
  191.4290  170.3850  141.7490 C   0  0  0  0  0  2  0  0  0  0  0  0
  192.8160  172.1290  139.2870 C   0  0  0  0  0  0  0  0  0  0  0  0
  192.2540  171.3950  138.4660 O   0  0  0  0  0  0  0  0  0  0  0  0
  191.3340  173.2330  140.9670 C   0  0  0  0  0  2  0  0  0  0  0  0
  190.2000  172.3110  140.6440 C   0  0  0  0  0  3  0  0  0  0  0  0
  193.9040  171.5450  140.1700 C   0  0  2  0  0  3  0  0  0  0  0  0
  191.5670  168.8830  141.4420 C   0  0  1  0  0  3  0  0  0  0  0  0
  196.1130  169.4510  141.0510 C   0  0  0  0  0  3  0  0  0  0  0  0
  196.5040  168.6790  140.1810 O   0  0  0  0  0  0  0  0  0  0  0  0
  196.8110  172.8990  136.3270 C   0  0  0  0  0  0  0  0  0  0  0  0
  197.9410  172.6050  135.7960 O   0  0  0  0  0  1  0  0  0  0  0  0
  195.7900  173.3800  135.5390 O   0  0  0  0  0  0  0  0  0  0  0  0
  192.5750  174.9860  144.7510 N   0  0  0  0  0  2  0  0  0  0  0  0
  192.3320  175.8920  145.9400 C   0  0  1  0  0  3  0  0  0  0  0  0
  189.3760  175.2010  145.4550 O   0  0  0  0  0  1  0  0  0  0  0  0
  189.8260  176.2740  146.2600 C   0  0  1  0  0  3  0  0  0  0  0  0
  191.1350  176.8730  145.7140 C   0  0  2  0  0  3  0  0  0  0  0  0
  188.8850  177.3100  146.3270 O   0  0  0  0  0  0  0  0  0  0  0  0
  190.8830  177.2860  144.2240 C   0  0  0  0  0  2  0  0  0  0  0  0
  188.3450  177.5700  145.0420 C   0  0  1  0  0  3  0  0  0  0  0  0
  189.3940  177.6740  143.8620 C   0  0  2  0  0  3  0  0  0  0  0  0
  187.0330  176.7560  144.8570 C   0  0  0  0  0  2  0  0  0  0  0  0
  186.2830  176.6980  146.2320 C   0  0  0  0  0  2  0  0  0  0  0  0
  184.9180  178.6390  145.7400 C   0  0  1  0  0  3  0  0  0  0  0  0
  183.7710  178.9200  145.0210 O   0  0  0  0  0  1  0  0  0  0  0  0
  184.5630  178.4080  147.2000 C   0  0  0  0  0  2  0  0  0  0  0  0
  184.8260  177.2000  146.2810 C   0  0  2  0  0  3  0  0  0  0  0  0
  188.9220  177.0670  142.5050 C   0  0  0  0  0  2  0  0  0  0  0  0
  188.4850  178.1120  141.5620 N   0  0  0  0  0  2  0  0  0  0  0  0
  186.9510  176.3620  141.1330 O   0  0  0  0  0  1  0  0  0  0  0  0
  187.1200  177.7550  141.1150 C   0  0  1  0  0  3  0  0  0  0  0  0
  186.0210  178.3840  141.9780 C   0  0  0  0  0  2  0  0  0  0  0  0
  184.7010  178.2320  141.2770 C   0  0  0  0  0  0  0  0  0  0  0  0
  183.5270  178.2910  142.0270 O   0  0  0  0  0  1  0  0  0  0  0  0
  184.6600  178.2650  139.9990 O   0  0  0  0  0  0  0  0  0  0  0  0
  192.2270  175.0800  147.2020 C   0  0  0  0  0  3  0  0  0  0  0  0
  193.0390  174.2130  147.5000 O   0  0  0  0  0  0  0  0  0  0  0  0
  197.0200  170.7590  145.1360 C   0  0  0  0  0  2  0  0  0  0  0  0
  197.0570  168.9640  146.5010 C   0  0  0  0  0  1  0  0  0  0  0  0
  196.7260  170.3260  146.4630 O   0  0  0  0  0  0  0  0  0  0  0  0
  1  3  1  0  0  0  0
  2  3  1  0  0  0  0
  2 40  1  1  0  0  0
  2 11  1  0  0  0  0
  3  9  2  0  0  0  0
  4  6  1  0  0  0  0
  5 14  1  6  0  0  0
  5 10  1  0  0  0  0
  6 65  1  1  0  0  0
  6 12  1  0  0  0  0
  7 13  1  6  0  0  0
  7  5  1  0  0  0  0
  7  1  1  0  0  0  0
  8  7  1  0  0  0  0
 10  8  1  6  0  0  0
 10  2  1  0  0  0  0
 12 11  2  0  0  0  0
 14  4  2  0  0  0  0
 15 14  1  0  0  0  0
 16 15  1  0  0  0  0
 17 16  2  0  0  0  0
 18 15  2  0  0  0  0
 19 18  1  0  0  0  0
 20 19  2  0  0  0  0
 20 17  1  0  0  0  0
 21 28  1  0  0  0  0
 22 33  1  0  0  0  0
 22 26  1  0  0  0  0
 23 31  1  0  0  0  0
 26 35  1  6  0  0  0
 26 27  1  0  0  0  0
 27 24  1  0  0  0  0
 29 23  1  0  0  0  0
 29 33  1  0  0  0  0
 30 29  2  0  0  0  0
 32 31  1  0  0  0  0
 32 21  2  0  0  0  0
 33 18  1  6  0  0  0
 34 25  1  1  0  0  0
 34 28  1  0  0  0  0
 34 24  1  0  0  0  0
 36 35  2  0  0  0  0
 37 20  1  0  0  0  0
 38 37  1  0  0  0  0
 39 37  2  0  0  0  0
 40 41  1  0  0  0  0
 41 63  1  1  0  0  0
 43 42  1  6  0  0  0
 43 45  1  0  0  0  0
 44 41  1  6  0  0  0
 44 43  1  0  0  0  0
 46 44  1  0  0  0  0
 47 49  1  6  0  0  0
 47 45  1  0  0  0  0
 48 55  1  6  0  0  0
 48 46  1  0  0  0  0
 48 47  1  0  0  0  0
 49 50  1  0  0  0  0
 51 52  1  6  0  0  0
 51 54  1  0  0  0  0
 51 53  1  0  0  0  0
 54 50  1  1  0  0  0
 54 53  1  0  0  0  0
 56 55  1  0  0  0  0
 58 57  1  1  0  0  0
 58 56  1  0  0  0  0
 58 59  1  0  0  0  0
 60 59  1  0  0  0  0
 60 61  1  0  0  0  0
 62 60  2  0  0  0  0
 63 64  2  0  0  0  0
 65 67  1  0  0  0  0
 67 66  1  0  0  0  0
M  END
>  <MODEL>
9

>  <REMARK>
 VINA RESULT:      -4.9      1.921      2.426
  Name = 
  18 active torsions:
  status: ('A' for Active; 'I' for Inactive)
    1  A    between atoms: C_2  and  C_65
    2  A    between atoms: C_4  and  N_43
    3  A    between atoms: C_13  and  N_47
    4  A    between atoms: C_13  and  C_55
    5  A    between atoms: C_14  and  C_29
    6  A    between atoms: C_15  and  C_18
    7  A    between atoms: C_15  and  O_63
    8  A    between atoms: C_20  and  CA_46
    9  A    between atoms: C_22  and  C_36
   10  A    between atoms: C_22  and  C_66
   11  A    between atoms: C_23  and  C_59
   12  A    between atoms: C_28  and  C_33
   13  A    between atoms: C_33  and  C_67
   14  A    between atoms: C_36  and  C_52
   15  A    between atoms: C_39  and  C_62
   16  A    between atoms: C_41  and  CA_46
   17  A    between atoms: N_43  and  CA_46
   18  A    between atoms: N_47  and  C_67
                            x       y       z     vdW  Elec       q    Type
                         _______ _______ _______ _____ _____    ______ ____

>  <TORSDO>
F 18

$$$$
