=
 OpenBabel11062421073D

 27 29  0  0  1  0  0  0  0  0999 V2000
  187.6490  176.4720  142.7270 C   0  0  0  0  0  0  0  0  0  0  0  0
  187.1580  175.2590  142.5120 C   0  0  0  0  0  3  0  0  0  0  0  0
  188.1940  174.5460  141.7830 C   0  0  0  0  0  0  0  0  0  0  0  0
  189.2380  175.2760  141.5630 N   0  0  0  0  0  0  0  0  0  0  0  0
  189.0230  176.5970  142.1370 C   0  0  2  0  0  3  0  0  0  0  0  0
  188.2530  172.8290  139.9580 N   0  0  0  0  0  1  0  0  0  0  0  0
  187.8460  172.2370  142.1640 O   0  0  0  0  0  0  0  0  0  0  0  0
  188.0870  173.1530  141.3340 C   0  0  0  0  0  0  0  0  0  0  0  0
  190.3910  178.2450  143.2250 O   0  0  0  0  0  1  0  0  0  0  0  0
  190.0870  176.8800  143.2030 C   0  0  1  0  0  3  0  0  0  0  0  0
  189.8150  175.6200  147.2880 C   0  0  0  0  0  2  0  0  0  0  0  0
  189.7050  178.2290  147.9910 Cl  0  0  0  0  0  0  0  0  0  0  0  0
  190.1020  177.2960  145.5880 O   0  0  0  0  0  0  0  0  0  0  0  0
  190.0820  174.9950  144.8740 C   0  0  0  0  0  2  0  0  0  0  0  0
  189.6260  176.4260  144.5870 C   0  0  2  0  0  3  0  0  0  0  0  0
  189.5240  174.5610  146.2270 C   0  0  0  0  0  2  0  0  0  0  0  0
  189.3860  176.9890  146.7580 C   0  0  1  0  0  3  0  0  0  0  0  0
  186.9060  177.5910  143.4070 C   0  0  2  0  0  3  0  0  0  0  0  0
  185.6460  177.1320  144.1650 C   0  0  2  0  0  3  0  0  0  0  0  0
  184.3240  178.8100  145.4780 C   0  0  0  0  0  3  0  0  0  0  0  0
  184.5710  178.7720  147.8290 O   0  0  0  0  0  0  0  0  0  0  0  0
  184.6720  178.2870  144.3000 C   0  0  0  0  0  3  0  0  0  0  0  0
  185.9980  176.4910  145.4950 C   0  0  0  0  0  3  0  0  0  0  0  0
  185.6470  177.0140  146.6710 C   0  0  0  0  0  3  0  0  0  0  0  0
  184.8420  178.2370  146.7230 C   0  0  0  0  0  0  0  0  0  0  0  0
  186.6190  178.7300  142.4260 C   0  0  0  0  0  2  0  0  0  0  0  0
  186.1160  178.2380  141.2210 O   0  0  0  0  0  1  0  0  0  0  0  0
  1 18  1  0  0  0  0
  2  1  2  0  0  0  0
  3  2  1  0  0  0  0
  4  3  2  0  0  0  0
  4  5  1  0  0  0  0
  5  1  1  0  0  0  0
  5 10  1  1  0  0  0
  6  8  1  0  0  0  0
  8  3  1  0  0  0  0
  8  7  2  0  0  0  0
 10  9  1  1  0  0  0
 13 17  1  0  0  0  0
 14 16  1  0  0  0  0
 15 10  1  6  0  0  0
 15 14  1  0  0  0  0
 15 13  1  0  0  0  0
 16 11  1  0  0  0  0
 17 11  1  0  0  0  0
 17 12  1  1  0  0  0
 18 26  1  6  0  0  0
 19 18  1  1  0  0  0
 19 22  1  0  0  0  0
 19 23  1  0  0  0  0
 20 25  1  0  0  0  0
 22 20  2  0  0  0  0
 23 24  2  0  0  0  0
 24 25  1  0  0  0  0
 25 21  2  0  0  0  0
 27 26  1  0  0  0  0
M  END
>  <MODEL>
1

>  <REMARK>
 VINA RESULT:      -7.1      0.000      0.000
  Name = 
  6 active torsions:
  status: ('A' for Active; 'I' for Inactive)
    1  A    between atoms: C_3  and  C_27
    2  A    between atoms: C_7  and  C_27
    3  A    between atoms: C_11  and  C_18
    4  A    between atoms: C_15  and  C_24
    5  A    between atoms: C_16  and  C_27
    6  A    between atoms: C_18  and  C_26
                            x       y       z     vdW  Elec       q    Type
                         _______ _______ _______ _____ _____    ______ ____

>  <TORSDO>
F 6

$$$$
=
 OpenBabel11062421073D

 27 29  0  0  1  0  0  0  0  0999 V2000
  188.3050  175.7700  142.1140 C   0  0  0  0  0  0  0  0  0  0  0  0
  187.9030  175.3290  140.9310 C   0  0  0  0  0  3  0  0  0  0  0  0
  188.8780  174.3230  140.5420 C   0  0  0  0  0  0  0  0  0  0  0  0
  189.8110  174.1700  141.4230 N   0  0  0  0  0  0  0  0  0  0  0  0
  189.5640  175.0730  142.5380 C   0  0  2  0  0  3  0  0  0  0  0  0
  188.2710  174.1360  138.1180 N   0  0  0  0  0  1  0  0  0  0  0  0
  189.2800  172.3810  139.2500 O   0  0  0  0  0  0  0  0  0  0  0  0
  188.8290  173.5560  139.2910 C   0  0  0  0  0  0  0  0  0  0  0  0
  189.9870  173.0180  143.7050 O   0  0  0  0  0  1  0  0  0  0  0  0
  189.3740  174.2680  143.8280 C   0  0  1  0  0  3  0  0  0  0  0  0
  191.4850  175.4590  147.3590 C   0  0  0  0  0  2  0  0  0  0  0  0
  193.4860  176.3290  145.7600 Cl  0  0  0  0  0  0  0  0  0  0  0  0
  191.3460  175.0480  144.9940 O   0  0  0  0  0  0  0  0  0  0  0  0
  189.4710  174.3620  146.3430 C   0  0  0  0  0  2  0  0  0  0  0  0
  189.9380  175.0090  145.0390 C   0  0  2  0  0  3  0  0  0  0  0  0
  189.9900  175.1880  147.5170 C   0  0  0  0  0  2  0  0  0  0  0  0
  191.7500  175.9960  145.9520 C   0  0  1  0  0  3  0  0  0  0  0  0
  187.6310  176.8680  142.8950 C   0  0  2  0  0  3  0  0  0  0  0  0
  186.2280  176.4960  143.4100 C   0  0  2  0  0  3  0  0  0  0  0  0
  184.4770  178.2810  143.5990 C   0  0  0  0  0  3  0  0  0  0  0  0
  183.9990  179.0910  145.7690 O   0  0  0  0  0  0  0  0  0  0  0  0
  185.1970  177.4510  142.8410 C   0  0  0  0  0  3  0  0  0  0  0  0
  186.1940  176.4170  144.9260 C   0  0  0  0  0  3  0  0  0  0  0  0
  185.4730  177.2460  145.6830 C   0  0  0  0  0  3  0  0  0  0  0  0
  184.6240  178.2620  145.0580 C   0  0  0  0  0  0  0  0  0  0  0  0
  187.6390  178.1800  142.1070 C   0  0  0  0  0  2  0  0  0  0  0  0
  188.9290  178.5010  141.6810 O   0  0  0  0  0  1  0  0  0  0  0  0
  1  5  1  0  0  0  0
  1 18  1  0  0  0  0
  2  1  2  0  0  0  0
  3  2  1  0  0  0  0
  3  4  2  0  0  0  0
  4  5  1  0  0  0  0
  5 10  1  1  0  0  0
  6  8  1  0  0  0  0
  7  8  2  0  0  0  0
  8  3  1  0  0  0  0
 10  9  1  6  0  0  0
 11 16  1  0  0  0  0
 13 15  1  0  0  0  0
 13 17  1  0  0  0  0
 14 16  1  0  0  0  0
 15 10  1  6  0  0  0
 15 14  1  0  0  0  0
 17 12  1  1  0  0  0
 17 11  1  0  0  0  0
 18 26  1  6  0  0  0
 19 18  1  1  0  0  0
 19 23  1  0  0  0  0
 20 25  1  0  0  0  0
 22 19  1  0  0  0  0
 22 20  2  0  0  0  0
 23 24  2  0  0  0  0
 25 24  1  0  0  0  0
 25 21  2  0  0  0  0
 27 26  1  0  0  0  0
M  END
>  <MODEL>
2

>  <REMARK>
 VINA RESULT:      -7.0      1.864      2.295
  Name = 
  6 active torsions:
  status: ('A' for Active; 'I' for Inactive)
    1  A    between atoms: C_3  and  C_27
    2  A    between atoms: C_7  and  C_27
    3  A    between atoms: C_11  and  C_18
    4  A    between atoms: C_15  and  C_24
    5  A    between atoms: C_16  and  C_27
    6  A    between atoms: C_18  and  C_26
                            x       y       z     vdW  Elec       q    Type
                         _______ _______ _______ _____ _____    ______ ____

>  <TORSDO>
F 6

$$$$
=
 OpenBabel11062421073D

 27 29  0  0  1  0  0  0  0  0999 V2000
  189.4850  175.6570  142.9830 C   0  0  0  0  0  0  0  0  0  0  0  0
  189.8140  174.8530  141.9810 C   0  0  0  0  0  3  0  0  0  0  0  0
  188.6190  174.7530  141.1590 C   0  0  0  0  0  0  0  0  0  0  0  0
  187.6320  175.4400  141.6320 N   0  0  0  0  0  0  0  0  0  0  0  0
  188.0590  176.1040  142.8550 C   0  0  2  0  0  3  0  0  0  0  0  0
  188.8250  172.5710  139.9420 N   0  0  0  0  0  1  0  0  0  0  0  0
  188.1700  174.5100  138.8480 O   0  0  0  0  0  0  0  0  0  0  0  0
  188.5210  173.9620  139.9260 C   0  0  0  0  0  0  0  0  0  0  0  0
  187.5150  177.9320  141.3950 O   0  0  0  0  0  1  0  0  0  0  0  0
  187.9420  177.6240  142.6900 C   0  0  1  0  0  3  0  0  0  0  0  0
  184.5420  178.7310  145.0480 C   0  0  0  0  0  2  0  0  0  0  0  0
  185.0560  176.5970  146.6280 Cl  0  0  0  0  0  0  0  0  0  0  0  0
  186.2970  177.2130  144.4180 O   0  0  0  0  0  0  0  0  0  0  0  0
  185.9780  179.1630  143.0370 C   0  0  0  0  0  2  0  0  0  0  0  0
  186.9800  178.2250  143.7130 C   0  0  2  0  0  3  0  0  0  0  0  0
  185.0980  179.8010  144.1090 C   0  0  0  0  0  2  0  0  0  0  0  0
  185.6890  177.8370  145.5220 C   0  0  1  0  0  3  0  0  0  0  0  0
  190.3950  176.0170  144.1280 C   0  0  2  0  0  3  0  0  0  0  0  0
  189.7520  175.8330  145.5160 C   0  0  2  0  0  3  0  0  0  0  0  0
  189.9900  177.6480  147.2290 C   0  0  0  0  0  3  0  0  0  0  0  0
  191.5440  177.2830  148.9740 O   0  0  0  0  0  0  0  0  0  0  0  0
  189.4180  177.1840  146.1160 C   0  0  0  0  0  3  0  0  0  0  0  0
  190.6180  174.9770  146.4220 C   0  0  0  0  0  3  0  0  0  0  0  0
  191.1880  175.4400  147.5360 C   0  0  0  0  0  3  0  0  0  0  0  0
  190.9520  176.8210  147.9640 C   0  0  0  0  0  0  0  0  0  0  0  0
  190.9880  177.4140  143.9360 C   0  0  0  0  0  2  0  0  0  0  0  0
  192.3490  177.4280  144.2450 O   0  0  0  0  0  1  0  0  0  0  0  0
  1 18  1  0  0  0  0
  2  1  2  0  0  0  0
  3  4  2  0  0  0  0
  3  2  1  0  0  0  0
  4  5  1  0  0  0  0
  5 10  1  6  0  0  0
  5  1  1  0  0  0  0
  7  8  2  0  0  0  0
  8  6  1  0  0  0  0
  8  3  1  0  0  0  0
 10  9  1  6  0  0  0
 11 17  1  0  0  0  0
 13 17  1  0  0  0  0
 14 15  1  0  0  0  0
 14 16  1  0  0  0  0
 15 10  1  6  0  0  0
 15 13  1  0  0  0  0
 16 11  1  0  0  0  0
 17 12  1  1  0  0  0
 18 26  1  6  0  0  0
 19 18  1  6  0  0  0
 19 22  1  0  0  0  0
 19 23  1  0  0  0  0
 20 25  1  0  0  0  0
 22 20  2  0  0  0  0
 23 24  2  0  0  0  0
 24 25  1  0  0  0  0
 25 21  2  0  0  0  0
 26 27  1  0  0  0  0
M  END
>  <MODEL>
3

>  <REMARK>
 VINA RESULT:      -7.0      1.978      4.619
  Name = 
  6 active torsions:
  status: ('A' for Active; 'I' for Inactive)
    1  A    between atoms: C_3  and  C_27
    2  A    between atoms: C_7  and  C_27
    3  A    between atoms: C_11  and  C_18
    4  A    between atoms: C_15  and  C_24
    5  A    between atoms: C_16  and  C_27
    6  A    between atoms: C_18  and  C_26
                            x       y       z     vdW  Elec       q    Type
                         _______ _______ _______ _____ _____    ______ ____

>  <TORSDO>
F 6

$$$$
=
 OpenBabel11062421073D

 27 29  0  0  1  0  0  0  0  0999 V2000
  189.2410  175.4000  143.2630 C   0  0  0  0  0  0  0  0  0  0  0  0
  189.6260  174.5820  142.2940 C   0  0  0  0  0  3  0  0  0  0  0  0
  188.5830  174.6590  141.2850 C   0  0  0  0  0  0  0  0  0  0  0  0
  187.6270  175.4610  141.6210 N   0  0  0  0  0  0  0  0  0  0  0  0
  187.9250  176.0360  142.9250 C   0  0  2  0  0  3  0  0  0  0  0  0
  189.0200  172.5580  139.9900 N   0  0  0  0  0  1  0  0  0  0  0  0
  188.2230  174.4740  138.9530 O   0  0  0  0  0  0  0  0  0  0  0  0
  188.5920  173.9150  140.0200 C   0  0  0  0  0  0  0  0  0  0  0  0
  187.6750  177.9680  141.5200 O   0  0  0  0  0  1  0  0  0  0  0  0
  188.0320  177.5610  142.8100 C   0  0  1  0  0  3  0  0  0  0  0  0
  184.8480  178.8430  145.3710 C   0  0  0  0  0  2  0  0  0  0  0  0
  185.6840  177.0110  147.1760 Cl  0  0  0  0  0  0  0  0  0  0  0  0
  186.6240  177.3390  144.7650 O   0  0  0  0  0  0  0  0  0  0  0  0
  186.0160  179.0300  143.1590 C   0  0  0  0  0  2  0  0  0  0  0  0
  187.1500  178.2630  143.8410 C   0  0  2  0  0  3  0  0  0  0  0  0
  185.2190  179.7800  144.2230 C   0  0  0  0  0  2  0  0  0  0  0  0
  186.1000  178.0950  145.8300 C   0  0  1  0  0  3  0  0  0  0  0  0
  189.9850  175.6100  144.5560 C   0  0  2  0  0  3  0  0  0  0  0  0
  191.4810  175.2520  144.4790 C   0  0  2  0  0  3  0  0  0  0  0  0
  192.8510  175.2470  146.5790 C   0  0  0  0  0  3  0  0  0  0  0  0
  194.3030  177.0820  146.9190 O   0  0  0  0  0  0  0  0  0  0  0  0
  191.9410  174.6610  145.7980 C   0  0  0  0  0  3  0  0  0  0  0  0
  192.3160  176.4390  144.0340 C   0  0  0  0  0  3  0  0  0  0  0  0
  193.2270  177.0220  144.8150 C   0  0  0  0  0  3  0  0  0  0  0  0
  193.4980  176.4920  146.1540 C   0  0  0  0  0  0  0  0  0  0  0  0
  189.2720  174.9110  145.7150 C   0  0  0  0  0  2  0  0  0  0  0  0
  188.8600  175.8330  146.6790 O   0  0  0  0  0  1  0  0  0  0  0  0
  1 18  1  0  0  0  0
  2  1  2  0  0  0  0
  3  4  2  0  0  0  0
  3  2  1  0  0  0  0
  4  5  1  0  0  0  0
  5 10  1  6  0  0  0
  5  1  1  0  0  0  0
  6  8  1  0  0  0  0
  7  8  2  0  0  0  0
  8  3  1  0  0  0  0
 10  9  1  6  0  0  0
 11 17  1  0  0  0  0
 13 17  1  0  0  0  0
 14 15  1  0  0  0  0
 14 16  1  0  0  0  0
 15 10  1  6  0  0  0
 15 13  1  0  0  0  0
 16 11  1  0  0  0  0
 17 12  1  1  0  0  0
 18 26  1  1  0  0  0
 19 18  1  1  0  0  0
 19 22  1  0  0  0  0
 22 20  2  0  0  0  0
 23 19  1  0  0  0  0
 23 24  2  0  0  0  0
 24 25  1  0  0  0  0
 25 20  1  0  0  0  0
 25 21  2  0  0  0  0
 26 27  1  0  0  0  0
M  END
>  <MODEL>
4

>  <REMARK>
 VINA RESULT:      -7.0      2.312      5.411
  Name = 
  6 active torsions:
  status: ('A' for Active; 'I' for Inactive)
    1  A    between atoms: C_3  and  C_27
    2  A    between atoms: C_7  and  C_27
    3  A    between atoms: C_11  and  C_18
    4  A    between atoms: C_15  and  C_24
    5  A    between atoms: C_16  and  C_27
    6  A    between atoms: C_18  and  C_26
                            x       y       z     vdW  Elec       q    Type
                         _______ _______ _______ _____ _____    ______ ____

>  <TORSDO>
F 6

$$$$
=
 OpenBabel11062421073D

 27 29  0  0  1  0  0  0  0  0999 V2000
  188.7830  175.6590  144.2690 C   0  0  0  0  0  0  0  0  0  0  0  0
  189.4090  174.8410  143.4340 C   0  0  0  0  0  3  0  0  0  0  0  0
  188.6110  174.8460  142.2180 C   0  0  0  0  0  0  0  0  0  0  0  0
  187.5700  175.6060  142.3110 N   0  0  0  0  0  0  0  0  0  0  0  0
  187.5470  176.2210  143.6310 C   0  0  2  0  0  3  0  0  0  0  0  0
  188.5050  174.5410  139.7330 N   0  0  0  0  0  1  0  0  0  0  0  0
  189.5860  173.0060  141.0940 O   0  0  0  0  0  0  0  0  0  0  0  0
  188.9320  174.0790  141.0090 C   0  0  0  0  0  0  0  0  0  0  0  0
  187.5520  178.1080  142.1460 O   0  0  0  0  0  1  0  0  0  0  0  0
  187.6090  177.7470  143.4950 C   0  0  1  0  0  3  0  0  0  0  0  0
  184.1000  178.6620  145.7730 C   0  0  0  0  0  2  0  0  0  0  0  0
  185.5860  178.3640  148.0130 Cl  0  0  0  0  0  0  0  0  0  0  0  0
  186.3720  177.9000  145.5690 O   0  0  0  0  0  0  0  0  0  0  0  0
  185.1450  178.2680  143.5270 C   0  0  0  0  0  2  0  0  0  0  0  0
  186.4760  178.4230  144.2650 C   0  0  2  0  0  3  0  0  0  0  0  0
  184.0660  179.0320  144.2910 C   0  0  0  0  0  2  0  0  0  0  0  0
  185.5360  178.7780  146.2840 C   0  0  1  0  0  3  0  0  0  0  0  0
  189.2130  175.9320  145.6860 C   0  0  2  0  0  3  0  0  0  0  0  0
  190.3090  177.0080  145.8090 C   0  0  2  0  0  3  0  0  0  0  0  0
  191.9740  177.2800  143.9540 C   0  0  0  0  0  3  0  0  0  0  0  0
  194.1440  176.4140  144.3230 O   0  0  0  0  0  0  0  0  0  0  0  0
  190.7410  177.4670  144.4300 C   0  0  0  0  0  3  0  0  0  0  0  0
  191.4660  176.5300  146.6670 C   0  0  0  0  0  3  0  0  0  0  0  0
  192.6980  176.3460  146.1920 C   0  0  0  0  0  3  0  0  0  0  0  0
  193.0010  176.6540  144.7920 C   0  0  0  0  0  0  0  0  0  0  0  0
  189.5840  174.6320  146.4030 C   0  0  0  0  0  2  0  0  0  0  0  0
  188.9410  174.5400  147.6390 O   0  0  0  0  0  1  0  0  0  0  0  0
  1 18  1  0  0  0  0
  2  1  2  0  0  0  0
  3  4  2  0  0  0  0
  3  2  1  0  0  0  0
  4  5  1  0  0  0  0
  5 10  1  6  0  0  0
  5  1  1  0  0  0  0
  6  8  1  0  0  0  0
  8  7  2  0  0  0  0
  8  3  1  0  0  0  0
 10  9  1  6  0  0  0
 11 17  1  0  0  0  0
 13 17  1  0  0  0  0
 14 15  1  0  0  0  0
 14 16  1  0  0  0  0
 15 10  1  6  0  0  0
 15 13  1  0  0  0  0
 16 11  1  0  0  0  0
 17 12  1  1  0  0  0
 18 26  1  6  0  0  0
 19 18  1  6  0  0  0
 19 23  1  0  0  0  0
 20 22  2  0  0  0  0
 20 25  1  0  0  0  0
 21 25  2  0  0  0  0
 22 19  1  0  0  0  0
 24 23  2  0  0  0  0
 25 24  1  0  0  0  0
 26 27  1  0  0  0  0
M  END
>  <MODEL>
5

>  <REMARK>
 VINA RESULT:      -6.8      2.097      5.268
  Name = 
  6 active torsions:
  status: ('A' for Active; 'I' for Inactive)
    1  A    between atoms: C_3  and  C_27
    2  A    between atoms: C_7  and  C_27
    3  A    between atoms: C_11  and  C_18
    4  A    between atoms: C_15  and  C_24
    5  A    between atoms: C_16  and  C_27
    6  A    between atoms: C_18  and  C_26
                            x       y       z     vdW  Elec       q    Type
                         _______ _______ _______ _____ _____    ______ ____

>  <TORSDO>
F 6

$$$$
=
 OpenBabel11062421073D

 27 29  0  0  1  0  0  0  0  0999 V2000
  188.6120  176.0570  143.1350 C   0  0  0  0  0  0  0  0  0  0  0  0
  188.0580  175.1080  142.3930 C   0  0  0  0  0  3  0  0  0  0  0  0
  189.1340  174.1810  142.0840 C   0  0  0  0  0  0  0  0  0  0  0  0
  190.2640  174.5450  142.5940 N   0  0  0  0  0  0  0  0  0  0  0  0
  190.0750  175.7880  143.3290 C   0  0  2  0  0  3  0  0  0  0  0  0
  188.1700  172.9760  140.1090 N   0  0  0  0  0  1  0  0  0  0  0  0
  189.5570  171.8990  141.6240 O   0  0  0  0  0  0  0  0  0  0  0  0
  188.9780  172.9630  141.2810 C   0  0  0  0  0  0  0  0  0  0  0  0
  190.3920  174.2170  145.1180 O   0  0  0  0  0  1  0  0  0  0  0  0
  190.4330  175.5790  144.8050 C   0  0  1  0  0  3  0  0  0  0  0  0
  194.5540  176.1680  145.8120 C   0  0  0  0  0  2  0  0  0  0  0  0
  195.1280  176.0060  143.1740 Cl  0  0  0  0  0  0  0  0  0  0  0  0
  192.7930  175.6180  144.2700 O   0  0  0  0  0  0  0  0  0  0  0  0
  192.1870  175.8730  146.5880 C   0  0  0  0  0  2  0  0  0  0  0  0
  191.8130  176.1480  145.1310 C   0  0  2  0  0  3  0  0  0  0  0  0
  193.5310  176.5340  146.8860 C   0  0  0  0  0  2  0  0  0  0  0  0
  193.9410  176.4140  144.4330 C   0  0  1  0  0  3  0  0  0  0  0  0
  187.8900  177.2730  143.6520 C   0  0  2  0  0  3  0  0  0  0  0  0
  186.6770  176.9460  144.5440 C   0  0  2  0  0  3  0  0  0  0  0  0
  185.2410  178.8160  145.3970 C   0  0  0  0  0  3  0  0  0  0  0  0
  185.5140  179.4330  147.6630 O   0  0  0  0  0  0  0  0  0  0  0  0
  185.6180  178.0200  144.3940 C   0  0  0  0  0  3  0  0  0  0  0  0
  187.0920  176.7160  145.9860 C   0  0  0  0  0  3  0  0  0  0  0  0
  186.7130  177.5100  146.9880 C   0  0  0  0  0  3  0  0  0  0  0  0
  185.8150  178.6400  146.7340 C   0  0  0  0  0  0  0  0  0  0  0  0
  187.5370  178.2260  142.5070 C   0  0  0  0  0  2  0  0  0  0  0  0
  188.6280  178.4140  141.6570 O   0  0  0  0  0  1  0  0  0  0  0  0
  1  5  1  0  0  0  0
  1 18  1  0  0  0  0
  2  1  2  0  0  0  0
  3  2  1  0  0  0  0
  3  4  2  0  0  0  0
  4  5  1  0  0  0  0
  5 10  1  1  0  0  0
  6  8  1  0  0  0  0
  8  7  2  0  0  0  0
  8  3  1  0  0  0  0
 10  9  1  6  0  0  0
 11 16  1  0  0  0  0
 13 17  1  0  0  0  0
 13 15  1  0  0  0  0
 14 16  1  0  0  0  0
 15 10  1  6  0  0  0
 15 14  1  0  0  0  0
 17 12  1  6  0  0  0
 17 11  1  0  0  0  0
 18 26  1  6  0  0  0
 19 18  1  6  0  0  0
 19 23  1  0  0  0  0
 20 25  1  0  0  0  0
 22 19  1  0  0  0  0
 22 20  2  0  0  0  0
 23 24  2  0  0  0  0
 25 24  1  0  0  0  0
 25 21  2  0  0  0  0
 27 26  1  0  0  0  0
M  END
>  <MODEL>
6

>  <REMARK>
 VINA RESULT:      -6.7      2.518      2.783
  Name = 
  6 active torsions:
  status: ('A' for Active; 'I' for Inactive)
    1  A    between atoms: C_3  and  C_27
    2  A    between atoms: C_7  and  C_27
    3  A    between atoms: C_11  and  C_18
    4  A    between atoms: C_15  and  C_24
    5  A    between atoms: C_16  and  C_27
    6  A    between atoms: C_18  and  C_26
                            x       y       z     vdW  Elec       q    Type
                         _______ _______ _______ _____ _____    ______ ____

>  <TORSDO>
F 6

$$$$
=
 OpenBabel11062421073D

 27 29  0  0  1  0  0  0  0  0999 V2000
  188.7710  176.4030  145.4990 C   0  0  0  0  0  0  0  0  0  0  0  0
  189.4220  176.9740  146.5030 C   0  0  0  0  0  3  0  0  0  0  0  0
  190.7630  176.4140  146.4630 C   0  0  0  0  0  0  0  0  0  0  0  0
  190.9140  175.5570  145.5070 N   0  0  0  0  0  0  0  0  0  0  0  0
  189.6630  175.4410  144.7710 C   0  0  2  0  0  3  0  0  0  0  0  0
  193.2010  176.6640  146.9880 N   0  0  0  0  0  1  0  0  0  0  0  0
  191.5680  177.1590  148.5600 O   0  0  0  0  0  0  0  0  0  0  0  0
  191.8410  176.7660  147.3950 C   0  0  0  0  0  0  0  0  0  0  0  0
  191.1720  176.3530  143.1410 O   0  0  0  0  0  1  0  0  0  0  0  0
  189.8800  175.8470  143.3090 C   0  0  1  0  0  3  0  0  0  0  0  0
  188.2410  172.7440  140.8530 C   0  0  0  0  0  2  0  0  0  0  0  0
  188.1300  174.5310  138.8260 Cl  0  0  0  0  0  0  0  0  0  0  0  0
  188.8150  175.0380  141.2920 O   0  0  0  0  0  0  0  0  0  0  0  0
  189.0590  173.4740  143.1090 C   0  0  0  0  0  2  0  0  0  0  0  0
  189.6530  174.6690  142.3620 C   0  0  2  0  0  3  0  0  0  0  0  0
  188.9330  172.3000  142.1410 C   0  0  0  0  0  2  0  0  0  0  0  0
  188.9180  174.0130  140.3340 C   0  0  1  0  0  3  0  0  0  0  0  0
  187.3190  176.6350  145.1760 C   0  0  2  0  0  3  0  0  0  0  0  0
  187.0840  177.6960  144.0850 C   0  0  2  0  0  3  0  0  0  0  0  0
  185.0690  179.1820  144.2320 C   0  0  0  0  0  3  0  0  0  0  0  0
  183.2670  178.6950  142.7820 O   0  0  0  0  0  0  0  0  0  0  0  0
  186.2930  178.8590  144.6540 C   0  0  0  0  0  3  0  0  0  0  0  0
  186.4460  177.0920  142.8480 C   0  0  0  0  0  3  0  0  0  0  0  0
  185.2230  177.4170  142.4250 C   0  0  0  0  0  3  0  0  0  0  0  0
  184.4460  178.4370  143.1340 C   0  0  0  0  0  0  0  0  0  0  0  0
  186.5150  176.9120  146.4490 C   0  0  0  0  0  2  0  0  0  0  0  0
  185.2140  176.4180  146.3370 O   0  0  0  0  0  1  0  0  0  0  0  0
  1  2  2  0  0  0  0
  3  2  1  0  0  0  0
  3  8  1  0  0  0  0
  4  3  2  0  0  0  0
  5 10  1  6  0  0  0
  5  1  1  0  0  0  0
  5  4  1  0  0  0  0
  6  8  1  0  0  0  0
  8  7  2  0  0  0  0
 10  9  1  1  0  0  0
 11 16  1  0  0  0  0
 13 15  1  0  0  0  0
 15 14  1  0  0  0  0
 15 10  1  1  0  0  0
 16 14  1  0  0  0  0
 17 12  1  6  0  0  0
 17 11  1  0  0  0  0
 17 13  1  0  0  0  0
 18  1  1  0  0  0  0
 18 26  1  1  0  0  0
 19 22  1  0  0  0  0
 19 18  1  1  0  0  0
 20 22  2  0  0  0  0
 21 25  2  0  0  0  0
 23 19  1  0  0  0  0
 24 23  2  0  0  0  0
 24 25  1  0  0  0  0
 25 20  1  0  0  0  0
 27 26  1  0  0  0  0
M  END
>  <MODEL>
7

>  <REMARK>
 VINA RESULT:      -6.6      3.006      5.169
  Name = 
  6 active torsions:
  status: ('A' for Active; 'I' for Inactive)
    1  A    between atoms: C_3  and  C_27
    2  A    between atoms: C_7  and  C_27
    3  A    between atoms: C_11  and  C_18
    4  A    between atoms: C_15  and  C_24
    5  A    between atoms: C_16  and  C_27
    6  A    between atoms: C_18  and  C_26
                            x       y       z     vdW  Elec       q    Type
                         _______ _______ _______ _____ _____    ______ ____

>  <TORSDO>
F 6

$$$$
=
 OpenBabel11062421073D

 27 29  0  0  1  0  0  0  0  0999 V2000
  189.2300  175.0360  143.5180 C   0  0  0  0  0  0  0  0  0  0  0  0
  190.1630  174.3780  142.8440 C   0  0  0  0  0  3  0  0  0  0  0  0
  189.6490  174.2570  141.4890 C   0  0  0  0  0  0  0  0  0  0  0  0
  188.4820  174.7950  141.3510 N   0  0  0  0  0  0  0  0  0  0  0  0
  188.0660  175.3610  142.6280 C   0  0  2  0  0  3  0  0  0  0  0  0
  191.6420  173.0220  140.6020 N   0  0  0  0  0  1  0  0  0  0  0  0
  189.8340  173.5380  139.2430 O   0  0  0  0  0  0  0  0  0  0  0  0
  190.3580  173.5970  140.3860 C   0  0  0  0  0  0  0  0  0  0  0  0
  187.8140  177.2200  141.1290 O   0  0  0  0  0  1  0  0  0  0  0  0
  187.8540  176.8720  142.4820 C   0  0  1  0  0  3  0  0  0  0  0  0
  184.4600  179.0410  143.9390 C   0  0  0  0  0  2  0  0  0  0  0  0
  183.1100  178.2260  141.7420 Cl  0  0  0  0  0  0  0  0  0  0  0  0
  185.6370  177.8120  142.2400 O   0  0  0  0  0  0  0  0  0  0  0  0
  186.8670  178.3950  144.2290 C   0  0  0  0  0  2  0  0  0  0  0  0
  186.5710  177.3250  143.1760 C   0  0  2  0  0  3  0  0  0  0  0  0
  185.5680  178.7500  144.9500 C   0  0  0  0  0  2  0  0  0  0  0  0
  184.4070  177.9060  142.9160 C   0  0  1  0  0  3  0  0  0  0  0  0
  189.2960  175.3530  144.9880 C   0  0  2  0  0  3  0  0  0  0  0  0
  190.1800  176.5680  145.3250 C   0  0  2  0  0  3  0  0  0  0  0  0
  192.0070  176.3220  147.0260 C   0  0  0  0  0  3  0  0  0  0  0  0
  191.6120  177.2410  149.1680 O   0  0  0  0  0  0  0  0  0  0  0  0
  191.5460  176.1020  145.7930 C   0  0  0  0  0  3  0  0  0  0  0  0
  189.4980  177.4970  146.3130 C   0  0  0  0  0  3  0  0  0  0  0  0
  189.9610  177.7180  147.5440 C   0  0  0  0  0  3  0  0  0  0  0  0
  191.2100  177.0920  147.9850 C   0  0  0  0  0  0  0  0  0  0  0  0
  189.6720  174.1100  145.7980 C   0  0  0  0  0  2  0  0  0  0  0  0
  189.0980  174.1470  147.0700 O   0  0  0  0  0  1  0  0  0  0  0  0
  1 18  1  0  0  0  0
  2  1  2  0  0  0  0
  3  2  1  0  0  0  0
  4  3  2  0  0  0  0
  4  5  1  0  0  0  0
  5 10  1  6  0  0  0
  5  1  1  0  0  0  0
  7  8  2  0  0  0  0
  8  6  1  0  0  0  0
  8  3  1  0  0  0  0
 10  9  1  6  0  0  0
 11 16  1  0  0  0  0
 13 17  1  0  0  0  0
 13 15  1  0  0  0  0
 14 16  1  0  0  0  0
 15 10  1  6  0  0  0
 15 14  1  0  0  0  0
 17 12  1  6  0  0  0
 17 11  1  0  0  0  0
 18 26  1  1  0  0  0
 19 18  1  1  0  0  0
 19 22  1  0  0  0  0
 19 23  1  0  0  0  0
 20 25  1  0  0  0  0
 22 20  2  0  0  0  0
 23 24  2  0  0  0  0
 24 25  1  0  0  0  0
 25 21  2  0  0  0  0
 26 27  1  0  0  0  0
M  END
>  <MODEL>
8

>  <REMARK>
 VINA RESULT:      -6.5      2.756      5.222
  Name = 
  6 active torsions:
  status: ('A' for Active; 'I' for Inactive)
    1  A    between atoms: C_3  and  C_27
    2  A    between atoms: C_7  and  C_27
    3  A    between atoms: C_11  and  C_18
    4  A    between atoms: C_15  and  C_24
    5  A    between atoms: C_16  and  C_27
    6  A    between atoms: C_18  and  C_26
                            x       y       z     vdW  Elec       q    Type
                         _______ _______ _______ _____ _____    ______ ____

>  <TORSDO>
F 6

$$$$
=
 OpenBabel11062421073D

 27 29  0  0  1  0  0  0  0  0999 V2000
  189.5860  176.0860  145.2070 C   0  0  0  0  0  0  0  0  0  0  0  0
  190.7170  176.6400  145.6180 C   0  0  0  0  0  3  0  0  0  0  0  0
  191.7460  176.1290  144.7270 C   0  0  0  0  0  0  0  0  0  0  0  0
  191.2740  175.3140  143.8420 N   0  0  0  0  0  0  0  0  0  0  0  0
  189.8360  175.1820  144.0350 C   0  0  2  0  0  3  0  0  0  0  0  0
  193.7610  176.7830  146.0650 N   0  0  0  0  0  1  0  0  0  0  0  0
  193.8710  176.5220  143.7630 O   0  0  0  0  0  0  0  0  0  0  0  0
  193.1680  176.4820  144.8070 C   0  0  0  0  0  0  0  0  0  0  0  0
  189.5750  176.9030  142.3800 O   0  0  0  0  0  1  0  0  0  0  0  0
  189.0970  175.6500  142.7760 C   0  0  1  0  0  3  0  0  0  0  0  0
  188.5140  172.6720  139.7530 C   0  0  0  0  0  2  0  0  0  0  0  0
  187.8180  174.6600  138.0570 Cl  0  0  0  0  0  0  0  0  0  0  0  0
  188.3280  174.9140  140.6020 O   0  0  0  0  0  0  0  0  0  0  0  0
  189.0770  173.2140  142.1370 C   0  0  0  0  0  2  0  0  0  0  0  0
  189.2500  174.6480  141.6330 C   0  0  2  0  0  3  0  0  0  0  0  0
  189.3240  172.2510  140.9780 C   0  0  0  0  0  2  0  0  0  0  0  0
  188.7440  174.1610  139.4900 C   0  0  1  0  0  3  0  0  0  0  0  0
  188.2460  176.2790  145.8660 C   0  0  2  0  0  3  0  0  0  0  0  0
  187.7510  177.7380  145.8570 C   0  0  2  0  0  3  0  0  0  0  0  0
  185.6650  178.3340  147.1130 C   0  0  0  0  0  3  0  0  0  0  0  0
  183.7050  178.6820  145.8360 O   0  0  0  0  0  0  0  0  0  0  0  0
  186.9630  178.0270  147.1200 C   0  0  0  0  0  3  0  0  0  0  0  0
  186.9810  178.0570  144.5890 C   0  0  0  0  0  3  0  0  0  0  0  0
  185.6840  178.3670  144.5830 C   0  0  0  0  0  3  0  0  0  0  0  0
  184.9430  178.4610  145.8430 C   0  0  0  0  0  0  0  0  0  0  0  0
  188.2330  175.6640  147.2670 C   0  0  0  0  0  2  0  0  0  0  0  0
  188.9480  174.4650  147.2940 O   0  0  0  0  0  1  0  0  0  0  0  0
  1  2  2  0  0  0  0
  1 18  1  0  0  0  0
  3  8  1  0  0  0  0
  3  2  1  0  0  0  0
  4  5  1  0  0  0  0
  4  3  2  0  0  0  0
  5 10  1  6  0  0  0
  5  1  1  0  0  0  0
  7  8  2  0  0  0  0
  8  6  1  0  0  0  0
 10  9  1  6  0  0  0
 11 16  1  0  0  0  0
 13 15  1  0  0  0  0
 15 14  1  0  0  0  0
 15 10  1  1  0  0  0
 16 14  1  0  0  0  0
 17 12  1  6  0  0  0
 17 11  1  0  0  0  0
 17 13  1  0  0  0  0
 18 26  1  1  0  0  0
 19 18  1  6  0  0  0
 19 22  1  0  0  0  0
 20 22  2  0  0  0  0
 21 25  2  0  0  0  0
 23 19  1  0  0  0  0
 24 23  2  0  0  0  0
 24 25  1  0  0  0  0
 25 20  1  0  0  0  0
 26 27  1  0  0  0  0
M  END
>  <MODEL>
9

>  <REMARK>
 VINA RESULT:      -6.5      3.120      5.265
  Name = 
  6 active torsions:
  status: ('A' for Active; 'I' for Inactive)
    1  A    between atoms: C_3  and  C_27
    2  A    between atoms: C_7  and  C_27
    3  A    between atoms: C_11  and  C_18
    4  A    between atoms: C_15  and  C_24
    5  A    between atoms: C_16  and  C_27
    6  A    between atoms: C_18  and  C_26
                            x       y       z     vdW  Elec       q    Type
                         _______ _______ _______ _____ _____    ______ ____

>  <TORSDO>
F 6

$$$$
