=
 OpenBabel11062420133D

 52 54  0  0  1  0  0  0  0  0999 V2000
  191.3480  177.5960  144.3430 O   0  0  0  0  0  0  0  0  0  0  0  0
  190.6340  176.7860  143.5970 C   0  0  0  0  0  0  0  0  0  0  0  0
  192.6210  177.3350  144.1710 C   0  0  0  0  0  3  0  0  0  0  0  0
  191.4460  175.9360  142.8740 C   0  0  0  0  0  3  0  0  0  0  0  0
  192.7230  176.3040  143.2520 C   0  0  0  0  0  0  0  0  0  0  0  0
  195.8380  175.5110  141.1770 C   0  0  1  0  0  3  0  0  0  0  0  0
  193.9720  175.6850  142.7740 C   0  0  0  0  0  0  0  0  0  0  0  0
  196.6470  176.4250  140.5000 O   0  0  0  0  0  1  0  0  0  0  0  0
  194.6280  176.2010  141.7290 C   0  0  0  0  0  3  0  0  0  0  0  0
  194.6550  174.2450  143.6350 S   0  0  0  0  0  0  0  0  0  0  0  0
  194.2490  173.5170  140.8990 C   0  0  0  0  0  2  0  0  0  0  0  0
  194.4260  172.9730  142.3170 C   0  0  2  0  0  3  0  0  0  0  0  0
  195.4860  174.2570  140.3230 C   0  0  1  0  0  3  0  0  0  0  0  0
  193.8890  174.6430  138.5460 C   0  0  0  0  0  1  0  0  0  0  0  0
  195.3080  174.6000  138.8950 N   0  0  0  0  0  0  0  0  0  0  0  0
  195.8440  173.4980  138.1020 C   0  0  0  0  0  2  0  0  0  0  0  0
  195.2940  173.5620  136.6870 C   0  0  0  0  0  1  0  0  0  0  0  0
  193.2320  172.0990  142.6510 C   0  0  0  0  0  2  0  0  0  0  0  0
  193.4180  170.6910  142.1040 C   0  0  0  0  0  2  0  0  0  0  0  0
  192.3610  169.7710  142.6840 C   0  0  0  0  0  2  0  0  0  0  0  0
  191.0270  170.0070  142.0040 C   0  0  0  0  0  2  0  0  0  0  0  0
  190.7320  168.8630  141.0460 C   0  0  0  0  0  2  0  0  0  0  0  0
  191.2890  169.1800  139.6660 C   0  0  0  0  0  2  0  0  0  0  0  0
  190.7110  170.5000  139.1840 C   0  0  0  0  0  2  0  0  0  0  0  0
  191.8020  171.4540  138.8130 C   0  0  0  0  0  3  0  0  0  0  0  0
  192.9750  171.0000  138.3700 C   0  0  0  0  0  2  0  0  0  0  0  0
  189.1430  176.8060  143.5190 C   0  0  2  0  0  3  0  0  0  0  0  0
  188.7300  177.2460  142.2520 O   0  0  0  0  0  0  0  0  0  0  0  0
  187.6610  176.4170  141.8900 C   0  0  1  0  0  3  0  0  0  0  0  0
  185.3500  176.8160  142.3050 F   0  0  0  0  0  0  0  0  0  0  0  0
  186.6640  178.5890  141.8540 F   0  0  0  0  0  0  0  0  0  0  0  0
  186.4270  177.2580  141.5610 C   0  0  0  0  0  0  0  0  0  0  0  0
  186.1130  177.1360  140.2200 F   0  0  0  0  0  0  0  0  0  0  0  0
  188.0580  175.5630  140.6870 C   0  0  0  0  0  2  0  0  0  0  0  0
  188.2210  173.4180  138.7680 O   0  0  0  0  0  1  0  0  0  0  0  0
  188.2260  174.1310  141.0780 C   0  0  0  0  0  0  0  0  0  0  0  0
  188.3160  173.8170  142.3280 N   0  0  0  0  0  2  0  0  0  0  0  0
  188.2960  173.1090  140.0830 N   0  0  0  0  0  2  0  0  0  0  0  0
  188.5450  177.6510  144.6570 C   0  0  0  0  0  2  0  0  0  0  0  0
  188.2390  176.8670  145.9400 C   0  0  1  0  0  3  0  0  0  0  0  0
  185.9000  177.5700  145.2820 C   0  0  0  0  0  2  0  0  0  0  0  0
  186.7210  178.1320  147.4760 C   0  0  0  0  0  2  0  0  0  0  0  0
  185.6100  179.0550  147.0380 C   0  0  0  0  0  2  0  0  0  0  0  0
  186.7880  177.0630  146.4090 C   0  0  2  0  0  3  0  0  0  0  0  0
  184.0730  179.0250  145.2820 C   0  0  0  0  0  1  0  0  0  0  0  0
  185.4860  178.9300  145.5960 N   0  0  0  0  0  0  0  0  0  0  0  0
  188.6050  175.3850  145.7900 C   0  0  0  0  0  2  0  0  0  0  0  0
  189.3870  174.8510  146.9840 C   0  0  0  0  0  2  0  0  0  0  0  0
  190.3290  175.9170  147.5140 C   0  0  0  0  0  2  0  0  0  0  0  0
  191.6310  175.2950  147.9840 C   0  0  0  0  0  2  0  0  0  0  0  0
  192.6310  175.3020  146.8460 C   0  0  0  0  0  2  0  0  0  0  0  0
  192.4790  174.1400  146.0910 O   0  0  0  0  0  1  0  0  0  0  0  0
  2  1  1  0  0  0  0
  3  1  1  0  0  0  0
  4  5  1  0  0  0  0
  4  2  2  0  0  0  0
  5  3  2  0  0  0  0
  6  8  1  6  0  0  0
  6  9  1  0  0  0  0
  7  5  1  0  0  0  0
  7 10  1  0  0  0  0
  9  7  2  0  0  0  0
 11 12  1  0  0  0  0
 12 18  1  1  0  0  0
 12 10  1  0  0  0  0
 13 15  1  6  0  0  0
 13 11  1  0  0  0  0
 13  6  1  0  0  0  0
 14 15  1  0  0  0  0
 16 15  1  0  0  0  0
 17 16  1  0  0  0  0
 19 18  1  0  0  0  0
 19 20  1  0  0  0  0
 21 20  1  0  0  0  0
 22 21  1  0  0  0  0
 23 22  1  0  0  0  0
 24 23  1  0  0  0  0
 25 24  1  0  0  0  0
 26 25  2  0  0  0  0
 27  2  1  0  0  0  0
 27 39  1  1  0  0  0
 28 27  1  0  0  0  0
 29 34  1  6  0  0  0
 29 28  1  0  0  0  0
 32 31  1  0  0  0  0
 32 29  1  0  0  0  0
 32 30  1  0  0  0  0
 33 32  1  0  0  0  0
 34 36  1  0  0  0  0
 35 38  1  0  0  0  0
 36 37  2  0  0  0  0
 38 36  1  0  0  0  0
 40 39  1  6  0  0  0
 41 46  1  0  0  0  0
 41 44  1  0  0  0  0
 43 42  1  0  0  0  0
 44 40  1  6  0  0  0
 44 42  1  0  0  0  0
 45 46  1  0  0  0  0
 46 43  1  0  0  0  0
 47 40  1  0  0  0  0
 47 48  1  0  0  0  0
 48 49  1  0  0  0  0
 49 50  1  0  0  0  0
 51 50  1  0  0  0  0
 52 51  1  0  0  0  0
M  END
>  <MODEL>
1

>  <REMARK>
 VINA RESULT:      -5.5      0.000      0.000
  Name = 
  25 active torsions:
  status: ('A' for Active; 'I' for Inactive)
    1  A    between atoms: O_1  and  C_23
    2  A    between atoms: O_1  and  C_33
    3  A    between atoms: C_3  and  C_7
    4  A    between atoms: C_3  and  C_19
    5  A    between atoms: C_7  and  C_46
    6  A    between atoms: C_11  and  C_35
    7  A    between atoms: C_13  and  N_14
    8  A    between atoms: N_14  and  C_50
    9  A    between atoms: C_15  and  C_23
   10  A    between atoms: C_17  and  C_52
   11  A    between atoms: C_18  and  C_25
   12  A    between atoms: C_19  and  C_52
   13  A    between atoms: C_20  and  C_49
   14  A    between atoms: C_23  and  C_30
   15  A    between atoms: C_25  and  C_33
   16  A    between atoms: C_28  and  C_36
   17  A    between atoms: C_28  and  C_40
   18  A    between atoms: C_30  and  C_46
   19  A    between atoms: C_31  and  C_46
   20  A    between atoms: C_33  and  C_38
   21  A    between atoms: C_35  and  C_47
   22  A    between atoms: C_36  and  C_51
   23  A    between atoms: C_40  and  C_48
   24  A    between atoms: C_44  and  C_48
   25  A    between atoms: C_47  and  C_51
                            x       y       z     vdW  Elec       q    Type
                         _______ _______ _______ _____ _____    ______ ____

>  <TORSDO>
F 25

$$$$
=
 OpenBabel11062420133D

 52 54  0  0  1  0  0  0  0  0999 V2000
  190.2720  172.0120  144.8720 O   0  0  0  0  0  0  0  0  0  0  0  0
  191.4310  172.5610  144.5970 C   0  0  0  0  0  0  0  0  0  0  0  0
  189.4580  172.9280  145.3410 C   0  0  0  0  0  3  0  0  0  0  0  0
  191.4180  173.9120  144.8800 C   0  0  0  0  0  3  0  0  0  0  0  0
  190.1390  174.1340  145.3550 C   0  0  0  0  0  0  0  0  0  0  0  0
  187.7620  176.8740  146.5690 C   0  0  1  0  0  3  0  0  0  0  0  0
  189.6080  175.4270  145.8190 C   0  0  0  0  0  0  0  0  0  0  0  0
  186.6590  176.7140  147.4080 O   0  0  0  0  0  1  0  0  0  0  0  0
  188.3300  175.5380  146.1980 C   0  0  0  0  0  3  0  0  0  0  0  0
  190.7000  176.8680  145.9270 S   0  0  0  0  0  0  0  0  0  0  0  0
  188.5150  177.5520  144.2120 C   0  0  0  0  0  2  0  0  0  0  0  0
  189.9510  177.9100  144.6000 C   0  0  2  0  0  3  0  0  0  0  0  0
  187.4610  177.7710  145.3310 C   0  0  1  0  0  3  0  0  0  0  0  0
  186.0780  177.3580  143.3880 C   0  0  0  0  0  1  0  0  0  0  0  0
  186.0820  177.5730  144.8340 N   0  0  0  0  0  0  0  0  0  0  0  0
  185.3580  178.8270  145.0180 C   0  0  0  0  0  2  0  0  0  0  0  0
  184.1150  178.8410  144.1430 C   0  0  0  0  0  1  0  0  0  0  0  0
  190.8160  177.8550  143.3560 C   0  0  0  0  0  2  0  0  0  0  0  0
  192.2940  177.8860  143.7180 C   0  0  0  0  0  2  0  0  0  0  0  0
  192.9910  176.6750  143.1310 C   0  0  0  0  0  2  0  0  0  0  0  0
  194.0170  176.1320  144.1060 C   0  0  0  0  0  2  0  0  0  0  0  0
  195.4090  176.5840  143.6880 C   0  0  0  0  0  2  0  0  0  0  0  0
  196.4230  175.4870  143.9760 C   0  0  0  0  0  2  0  0  0  0  0  0
  195.9010  174.6040  145.0970 C   0  0  0  0  0  2  0  0  0  0  0  0
  197.0210  173.8570  145.7500 C   0  0  0  0  0  3  0  0  0  0  0  0
  196.8730  172.5770  146.0910 C   0  0  0  0  0  2  0  0  0  0  0  0
  192.5970  171.8250  144.0240 C   0  0  2  0  0  3  0  0  0  0  0  0
  193.3290  171.2050  145.0490 O   0  0  0  0  0  0  0  0  0  0  0  0
  193.9740  170.1150  144.4510 C   0  0  1  0  0  3  0  0  0  0  0  0
  194.5530  168.1680  145.6940 F   0  0  0  0  0  0  0  0  0  0  0  0
  196.2250  169.4590  144.9140 F   0  0  0  0  0  0  0  0  0  0  0  0
  194.9450  169.4670  145.4390 C   0  0  0  0  0  0  0  0  0  0  0  0
  194.9470  170.1680  146.6310 F   0  0  0  0  0  0  0  0  0  0  0  0
  192.9350  169.0970  143.9840 C   0  0  0  0  0  2  0  0  0  0  0  0
  190.9010  168.5970  142.0020 O   0  0  0  0  0  1  0  0  0  0  0  0
  193.2420  168.6100  142.6050 C   0  0  0  0  0  0  0  0  0  0  0  0
  194.4700  168.4080  142.2600 N   0  0  0  0  0  2  0  0  0  0  0  0
  192.1930  168.3750  141.6650 N   0  0  0  0  0  2  0  0  0  0  0  0
  193.4670  172.7570  143.1630 C   0  0  0  0  0  2  0  0  0  0  0  0
  192.9580  172.9610  141.7310 C   0  0  1  0  0  3  0  0  0  0  0  0
  195.0000  171.7330  140.8810 C   0  0  0  0  0  2  0  0  0  0  0  0
  195.0020  174.1410  140.9010 C   0  0  0  0  0  2  0  0  0  0  0  0
  196.4030  173.5770  140.9190 C   0  0  0  0  0  2  0  0  0  0  0  0
  194.0990  172.9460  140.7010 C   0  0  2  0  0  3  0  0  0  0  0  0
  197.2980  171.4490  140.5820 C   0  0  0  0  0  1  0  0  0  0  0  0
  196.3050  172.1890  141.3360 N   0  0  0  0  0  0  0  0  0  0  0  0
  191.8510  171.9590  141.3830 C   0  0  0  0  0  2  0  0  0  0  0  0
  190.5590  172.6400  140.9480 C   0  0  0  0  0  2  0  0  0  0  0  0
  190.6630  174.1410  141.1470 C   0  0  0  0  0  2  0  0  0  0  0  0
  189.4220  174.6780  141.8360 C   0  0  0  0  0  2  0  0  0  0  0  0
  188.1900  174.0830  141.1850 C   0  0  0  0  0  2  0  0  0  0  0  0
  187.6200  173.1460  142.0460 O   0  0  0  0  0  1  0  0  0  0  0  0
  1  3  1  0  0  0  0
  2  1  1  0  0  0  0
  2  4  2  0  0  0  0
  3  5  2  0  0  0  0
  4  5  1  0  0  0  0
  5  7  1  0  0  0  0
  6  8  1  6  0  0  0
  7 10  1  0  0  0  0
  7  9  2  0  0  0  0
  9  6  1  0  0  0  0
 11 12  1  0  0  0  0
 11 13  1  0  0  0  0
 12 18  1  6  0  0  0
 12 10  1  0  0  0  0
 13 15  1  6  0  0  0
 13  6  1  0  0  0  0
 14 15  1  0  0  0  0
 15 16  1  0  0  0  0
 17 16  1  0  0  0  0
 18 19  1  0  0  0  0
 20 19  1  0  0  0  0
 20 21  1  0  0  0  0
 22 23  1  0  0  0  0
 22 21  1  0  0  0  0
 23 24  1  0  0  0  0
 24 25  1  0  0  0  0
 25 26  2  0  0  0  0
 27 39  1  1  0  0  0
 27  2  1  0  0  0  0
 27 28  1  0  0  0  0
 29 34  1  1  0  0  0
 29 28  1  0  0  0  0
 29 32  1  0  0  0  0
 31 32  1  0  0  0  0
 32 30  1  0  0  0  0
 32 33  1  0  0  0  0
 36 34  1  0  0  0  0
 37 36  2  0  0  0  0
 38 35  1  0  0  0  0
 38 36  1  0  0  0  0
 40 47  1  6  0  0  0
 40 39  1  0  0  0  0
 41 46  1  0  0  0  0
 42 43  1  0  0  0  0
 43 46  1  0  0  0  0
 44 41  1  0  0  0  0
 44 42  1  0  0  0  0
 44 40  1  1  0  0  0
 45 46  1  0  0  0  0
 48 49  1  0  0  0  0
 48 47  1  0  0  0  0
 49 50  1  0  0  0  0
 51 50  1  0  0  0  0
 51 52  1  0  0  0  0
M  END
>  <MODEL>
2

>  <REMARK>
 VINA RESULT:      -5.2      4.188      9.196
  Name = 
  25 active torsions:
  status: ('A' for Active; 'I' for Inactive)
    1  A    between atoms: O_1  and  C_23
    2  A    between atoms: O_1  and  C_33
    3  A    between atoms: C_3  and  C_7
    4  A    between atoms: C_3  and  C_19
    5  A    between atoms: C_7  and  C_46
    6  A    between atoms: C_11  and  C_35
    7  A    between atoms: C_13  and  N_14
    8  A    between atoms: N_14  and  C_50
    9  A    between atoms: C_15  and  C_23
   10  A    between atoms: C_17  and  C_52
   11  A    between atoms: C_18  and  C_25
   12  A    between atoms: C_19  and  C_52
   13  A    between atoms: C_20  and  C_49
   14  A    between atoms: C_23  and  C_30
   15  A    between atoms: C_25  and  C_33
   16  A    between atoms: C_28  and  C_36
   17  A    between atoms: C_28  and  C_40
   18  A    between atoms: C_30  and  C_46
   19  A    between atoms: C_31  and  C_46
   20  A    between atoms: C_33  and  C_38
   21  A    between atoms: C_35  and  C_47
   22  A    between atoms: C_36  and  C_51
   23  A    between atoms: C_40  and  C_48
   24  A    between atoms: C_44  and  C_48
   25  A    between atoms: C_47  and  C_51
                            x       y       z     vdW  Elec       q    Type
                         _______ _______ _______ _____ _____    ______ ____

>  <TORSDO>
F 25

$$$$
=
 OpenBabel11062420133D

 52 54  0  0  1  0  0  0  0  0999 V2000
  191.6150  174.4440  141.6880 O   0  0  0  0  0  0  0  0  0  0  0  0
  190.5500  174.1540  142.3970 C   0  0  0  0  0  0  0  0  0  0  0  0
  191.5330  173.8510  140.5200 C   0  0  0  0  0  3  0  0  0  0  0  0
  189.6940  173.3350  141.6900 C   0  0  0  0  0  3  0  0  0  0  0  0
  190.3390  173.1510  140.4830 C   0  0  0  0  0  0  0  0  0  0  0  0
  189.8160  170.2510  138.0430 C   0  0  1  0  0  3  0  0  0  0  0  0
  189.8470  172.3300  139.3620 C   0  0  0  0  0  0  0  0  0  0  0  0
  189.8430  168.8890  138.3440 O   0  0  0  0  0  1  0  0  0  0  0  0
  190.2300  171.0550  139.2380 C   0  0  0  0  0  3  0  0  0  0  0  0
  188.6760  173.0310  138.1720 S   0  0  0  0  0  0  0  0  0  0  0  0
  190.9650  172.1230  136.7170 C   0  0  0  0  0  2  0  0  0  0  0  0
  189.7520  173.0550  136.6730 C   0  0  2  0  0  3  0  0  0  0  0  0
  190.6250  170.6080  136.7600 C   0  0  1  0  0  3  0  0  0  0  0  0
  193.0370  170.5980  136.5610 C   0  0  0  0  0  1  0  0  0  0  0  0
  191.8350  169.7690  136.6250 N   0  0  0  0  0  0  0  0  0  0  0  0
  191.7770  169.1110  135.3240 C   0  0  0  0  0  2  0  0  0  0  0  0
  193.1740  168.6990  134.8880 C   0  0  0  0  0  1  0  0  0  0  0  0
  190.2390  174.4670  136.4130 C   0  0  0  0  0  2  0  0  0  0  0  0
  191.6860  174.4660  135.9410 C   0  0  0  0  0  2  0  0  0  0  0  0
  192.2400  175.8770  135.9860 C   0  0  0  0  0  2  0  0  0  0  0  0
  193.6580  175.8690  136.5230 C   0  0  0  0  0  2  0  0  0  0  0  0
  193.8340  174.7030  137.4850 C   0  0  0  0  0  2  0  0  0  0  0  0
  194.4610  175.1870  138.7840 C   0  0  0  0  0  2  0  0  0  0  0  0
  194.9880  173.9930  139.5610 C   0  0  0  0  0  2  0  0  0  0  0  0
  195.4260  174.4020  140.9320 C   0  0  0  0  0  3  0  0  0  0  0  0
  195.0680  175.5860  141.4300 C   0  0  0  0  0  2  0  0  0  0  0  0
  190.2880  174.6710  143.7730 C   0  0  2  0  0  3  0  0  0  0  0  0
  190.5770  173.6810  144.7250 O   0  0  0  0  0  0  0  0  0  0  0  0
  191.7510  174.0970  145.3650 C   0  0  1  0  0  3  0  0  0  0  0  0
  192.4500  172.0190  144.4350 F   0  0  0  0  0  0  0  0  0  0  0  0
  193.6800  173.8480  143.9770 F   0  0  0  0  0  0  0  0  0  0  0  0
  192.9250  173.2110  144.9450 C   0  0  0  0  0  0  0  0  0  0  0  0
  193.7250  172.9340  146.0380 F   0  0  0  0  0  0  0  0  0  0  0  0
  192.0360  175.5570  145.0160 C   0  0  0  0  0  2  0  0  0  0  0  0
  194.7170  176.6100  145.1310 O   0  0  0  0  0  1  0  0  0  0  0  0
  192.5710  176.2960  146.1990 C   0  0  0  0  0  0  0  0  0  0  0  0
  191.8110  176.4950  147.2250 N   0  0  0  0  0  2  0  0  0  0  0  0
  193.9100  176.7920  146.2020 N   0  0  0  0  0  2  0  0  0  0  0  0
  188.8510  175.2040  143.8970 C   0  0  0  0  0  2  0  0  0  0  0  0
  188.7240  176.5200  144.6740 C   0  0  1  0  0  3  0  0  0  0  0  0
  186.7730  177.3550  143.2960 C   0  0  0  0  0  2  0  0  0  0  0  0
  189.0170  177.8170  142.5540 C   0  0  0  0  0  2  0  0  0  0  0  0
  188.0270  177.8610  141.4140 C   0  0  0  0  0  2  0  0  0  0  0  0
  188.1760  177.6610  143.8000 C   0  0  2  0  0  3  0  0  0  0  0  0
  185.6970  177.8750  141.2900 C   0  0  0  0  0  1  0  0  0  0  0  0
  186.8300  177.1660  141.8540 N   0  0  0  0  0  0  0  0  0  0  0  0
  187.9100  176.3350  145.9600 C   0  0  0  0  0  2  0  0  0  0  0  0
  187.9800  177.5500  146.8780 C   0  0  0  0  0  2  0  0  0  0  0  0
  186.6130  177.8390  147.4710 C   0  0  0  0  0  2  0  0  0  0  0  0
  185.5510  176.9760  146.8140 C   0  0  0  0  0  2  0  0  0  0  0  0
  184.4940  177.8670  146.1930 C   0  0  0  0  0  2  0  0  0  0  0  0
  184.9220  179.1930  146.2400 O   0  0  0  0  0  1  0  0  0  0  0  0
  1  2  1  0  0  0  0
  2 27  1  0  0  0  0
  3  1  1  0  0  0  0
  4  2  2  0  0  0  0
  5  3  2  0  0  0  0
  5  4  1  0  0  0  0
  6  8  1  1  0  0  0
  6  9  1  0  0  0  0
  7  5  1  0  0  0  0
  9  7  2  0  0  0  0
 10  7  1  0  0  0  0
 11 13  1  0  0  0  0
 12 18  1  1  0  0  0
 12 11  1  0  0  0  0
 12 10  1  0  0  0  0
 13 15  1  1  0  0  0
 13  6  1  0  0  0  0
 14 15  1  0  0  0  0
 16 15  1  0  0  0  0
 17 16  1  0  0  0  0
 19 20  1  0  0  0  0
 19 18  1  0  0  0  0
 20 21  1  0  0  0  0
 21 22  1  0  0  0  0
 22 23  1  0  0  0  0
 23 24  1  0  0  0  0
 24 25  1  0  0  0  0
 25 26  2  0  0  0  0
 27 39  1  6  0  0  0
 27 28  1  0  0  0  0
 28 29  1  0  0  0  0
 29 34  1  6  0  0  0
 30 32  1  0  0  0  0
 31 32  1  0  0  0  0
 32 29  1  0  0  0  0
 32 33  1  0  0  0  0
 34 36  1  0  0  0  0
 35 38  1  0  0  0  0
 36 38  1  0  0  0  0
 36 37  2  0  0  0  0
 40 39  1  6  0  0  0
 40 47  1  0  0  0  0
 41 44  1  0  0  0  0
 42 44  1  0  0  0  0
 43 46  1  0  0  0  0
 43 42  1  0  0  0  0
 44 40  1  1  0  0  0
 45 46  1  0  0  0  0
 46 41  1  0  0  0  0
 47 48  1  0  0  0  0
 48 49  1  0  0  0  0
 50 49  1  0  0  0  0
 51 52  1  0  0  0  0
 51 50  1  0  0  0  0
M  END
>  <MODEL>
3

>  <REMARK>
 VINA RESULT:      -5.1      3.757      6.517
  Name = 
  25 active torsions:
  status: ('A' for Active; 'I' for Inactive)
    1  A    between atoms: O_1  and  C_23
    2  A    between atoms: O_1  and  C_33
    3  A    between atoms: C_3  and  C_7
    4  A    between atoms: C_3  and  C_19
    5  A    between atoms: C_7  and  C_46
    6  A    between atoms: C_11  and  C_35
    7  A    between atoms: C_13  and  N_14
    8  A    between atoms: N_14  and  C_50
    9  A    between atoms: C_15  and  C_23
   10  A    between atoms: C_17  and  C_52
   11  A    between atoms: C_18  and  C_25
   12  A    between atoms: C_19  and  C_52
   13  A    between atoms: C_20  and  C_49
   14  A    between atoms: C_23  and  C_30
   15  A    between atoms: C_25  and  C_33
   16  A    between atoms: C_28  and  C_36
   17  A    between atoms: C_28  and  C_40
   18  A    between atoms: C_30  and  C_46
   19  A    between atoms: C_31  and  C_46
   20  A    between atoms: C_33  and  C_38
   21  A    between atoms: C_35  and  C_47
   22  A    between atoms: C_36  and  C_51
   23  A    between atoms: C_40  and  C_48
   24  A    between atoms: C_44  and  C_48
   25  A    between atoms: C_47  and  C_51
                            x       y       z     vdW  Elec       q    Type
                         _______ _______ _______ _____ _____    ______ ____

>  <TORSDO>
F 25

$$$$
=
 OpenBabel11062420133D

 52 54  0  0  1  0  0  0  0  0999 V2000
  187.9350  175.3790  140.9130 O   0  0  0  0  0  0  0  0  0  0  0  0
  188.8780  175.0370  141.7600 C   0  0  0  0  0  0  0  0  0  0  0  0
  188.1170  174.7410  139.7810 C   0  0  0  0  0  3  0  0  0  0  0  0
  189.7420  174.1220  141.1940 C   0  0  0  0  0  3  0  0  0  0  0  0
  189.2370  173.9380  139.9220 C   0  0  0  0  0  0  0  0  0  0  0  0
  190.3390  170.8310  137.9800 C   0  0  1  0  0  3  0  0  0  0  0  0
  189.8120  173.0590  138.8890 C   0  0  0  0  0  0  0  0  0  0  0  0
  189.6650  169.6120  137.9000 O   0  0  0  0  0  1  0  0  0  0  0  0
  189.6650  171.7320  138.9710 C   0  0  0  0  0  3  0  0  0  0  0  0
  190.6800  173.7760  137.4700 S   0  0  0  0  0  0  0  0  0  0  0  0
  192.4820  171.9880  138.7860 C   0  0  0  0  0  2  0  0  0  0  0  0
  192.3880  173.1810  137.8320 C   0  0  2  0  0  3  0  0  0  0  0  0
  191.8650  170.6690  138.2460 C   0  0  1  0  0  3  0  0  0  0  0  0
  192.9270  169.9500  140.2990 C   0  0  0  0  0  1  0  0  0  0  0  0
  192.1460  169.5240  139.1390 N   0  0  0  0  0  0  0  0  0  0  0  0
  193.0280  168.6070  138.4240 C   0  0  0  0  0  2  0  0  0  0  0  0
  194.4690  168.8380  138.8470 C   0  0  0  0  0  1  0  0  0  0  0  0
  193.2170  174.3170  138.3990 C   0  0  0  0  0  2  0  0  0  0  0  0
  193.7960  175.1770  137.2840 C   0  0  0  0  0  2  0  0  0  0  0  0
  194.3670  174.2890  136.1960 C   0  0  0  0  0  2  0  0  0  0  0  0
  195.8730  174.1910  136.3310 C   0  0  0  0  0  2  0  0  0  0  0  0
  196.4430  175.5520  136.7030 C   0  0  0  0  0  2  0  0  0  0  0  0
  197.5730  175.3880  137.7080 C   0  0  0  0  0  2  0  0  0  0  0  0
  197.2800  174.1960  138.6030 C   0  0  0  0  0  2  0  0  0  0  0  0
  196.6630  174.6380  139.8920 C   0  0  0  0  0  3  0  0  0  0  0  0
  196.9820  175.8190  140.4240 C   0  0  0  0  0  2  0  0  0  0  0  0
  188.9790  175.5500  143.1590 C   0  0  2  0  0  3  0  0  0  0  0  0
  188.2010  176.7090  143.3070 O   0  0  0  0  0  0  0  0  0  0  0  0
  187.0750  176.3200  144.0440 C   0  0  1  0  0  3  0  0  0  0  0  0
  187.9040  177.9670  145.5520 F   0  0  0  0  0  0  0  0  0  0  0  0
  185.9610  176.9480  146.0630 F   0  0  0  0  0  0  0  0  0  0  0  0
  187.2110  176.7720  145.4980 C   0  0  0  0  0  0  0  0  0  0  0  0
  187.9110  175.8270  146.2260 F   0  0  0  0  0  0  0  0  0  0  0  0
  185.8190  176.9230  143.4170 C   0  0  0  0  0  2  0  0  0  0  0  0
  185.3110  179.4780  144.6510 O   0  0  0  0  0  1  0  0  0  0  0  0
  186.1240  178.2250  142.7500 C   0  0  0  0  0  0  0  0  0  0  0  0
  186.6500  178.2300  141.5710 N   0  0  0  0  0  2  0  0  0  0  0  0
  185.8460  179.4610  143.4090 N   0  0  0  0  0  2  0  0  0  0  0  0
  190.4470  175.7730  143.5580 C   0  0  0  0  0  2  0  0  0  0  0  0
  191.0150  174.7180  144.5150 C   0  0  1  0  0  3  0  0  0  0  0  0
  192.5460  176.6160  145.1880 C   0  0  0  0  0  2  0  0  0  0  0  0
  192.9520  174.4110  146.0700 C   0  0  0  0  0  2  0  0  0  0  0  0
  194.1990  175.2630  146.0880 C   0  0  0  0  0  2  0  0  0  0  0  0
  191.8430  175.3470  145.6480 C   0  0  2  0  0  3  0  0  0  0  0  0
  194.6170  177.5350  145.7570 C   0  0  0  0  0  1  0  0  0  0  0  0
  193.9810  176.3690  145.1730 N   0  0  0  0  0  0  0  0  0  0  0  0
  189.9130  173.7940  145.0470 C   0  0  0  0  0  2  0  0  0  0  0  0
  190.0890  172.3500  144.5930 C   0  0  0  0  0  2  0  0  0  0  0  0
  191.2610  172.2400  143.6340 C   0  0  0  0  0  2  0  0  0  0  0  0
  192.2970  171.2670  144.1650 C   0  0  0  0  0  2  0  0  0  0  0  0
  193.6570  171.6220  143.5990 C   0  0  0  0  0  2  0  0  0  0  0  0
  194.6500  171.0230  144.3730 O   0  0  0  0  0  1  0  0  0  0  0  0
  1  2  1  0  0  0  0
  2 27  1  0  0  0  0
  3  5  2  0  0  0  0
  3  1  1  0  0  0  0
  4  2  2  0  0  0  0
  5  4  1  0  0  0  0
  6  8  1  1  0  0  0
  6 13  1  0  0  0  0
  6  9  1  0  0  0  0
  7  9  2  0  0  0  0
  7  5  1  0  0  0  0
 10 12  1  0  0  0  0
 10  7  1  0  0  0  0
 12 18  1  1  0  0  0
 12 11  1  0  0  0  0
 13 11  1  0  0  0  0
 13 15  1  1  0  0  0
 15 14  1  0  0  0  0
 16 17  1  0  0  0  0
 16 15  1  0  0  0  0
 19 18  1  0  0  0  0
 20 21  1  0  0  0  0
 20 19  1  0  0  0  0
 21 22  1  0  0  0  0
 22 23  1  0  0  0  0
 23 24  1  0  0  0  0
 24 25  1  0  0  0  0
 25 26  2  0  0  0  0
 27 28  1  0  0  0  0
 27 39  1  6  0  0  0
 28 29  1  0  0  0  0
 29 34  1  6  0  0  0
 29 32  1  0  0  0  0
 32 30  1  0  0  0  0
 32 31  1  0  0  0  0
 32 33  1  0  0  0  0
 36 38  1  0  0  0  0
 36 34  1  0  0  0  0
 37 36  2  0  0  0  0
 38 35  1  0  0  0  0
 40 39  1  1  0  0  0
 40 47  1  0  0  0  0
 41 44  1  0  0  0  0
 42 43  1  0  0  0  0
 44 40  1  6  0  0  0
 44 42  1  0  0  0  0
 46 41  1  0  0  0  0
 46 45  1  0  0  0  0
 46 43  1  0  0  0  0
 48 47  1  0  0  0  0
 49 50  1  0  0  0  0
 49 48  1  0  0  0  0
 51 50  1  0  0  0  0
 51 52  1  0  0  0  0
M  END
>  <MODEL>
4

>  <REMARK>
 VINA RESULT:      -5.0      2.902      6.193
  Name = 
  25 active torsions:
  status: ('A' for Active; 'I' for Inactive)
    1  A    between atoms: O_1  and  C_23
    2  A    between atoms: O_1  and  C_33
    3  A    between atoms: C_3  and  C_7
    4  A    between atoms: C_3  and  C_19
    5  A    between atoms: C_7  and  C_46
    6  A    between atoms: C_11  and  C_35
    7  A    between atoms: C_13  and  N_14
    8  A    between atoms: N_14  and  C_50
    9  A    between atoms: C_15  and  C_23
   10  A    between atoms: C_17  and  C_52
   11  A    between atoms: C_18  and  C_25
   12  A    between atoms: C_19  and  C_52
   13  A    between atoms: C_20  and  C_49
   14  A    between atoms: C_23  and  C_30
   15  A    between atoms: C_25  and  C_33
   16  A    between atoms: C_28  and  C_36
   17  A    between atoms: C_28  and  C_40
   18  A    between atoms: C_30  and  C_46
   19  A    between atoms: C_31  and  C_46
   20  A    between atoms: C_33  and  C_38
   21  A    between atoms: C_35  and  C_47
   22  A    between atoms: C_36  and  C_51
   23  A    between atoms: C_40  and  C_48
   24  A    between atoms: C_44  and  C_48
   25  A    between atoms: C_47  and  C_51
                            x       y       z     vdW  Elec       q    Type
                         _______ _______ _______ _____ _____    ______ ____

>  <TORSDO>
F 25

$$$$
=
 OpenBabel11062420133D

 52 54  0  0  1  0  0  0  0  0999 V2000
  190.5480  171.6410  143.0130 O   0  0  0  0  0  0  0  0  0  0  0  0
  190.6240  172.8730  143.4590 C   0  0  0  0  0  0  0  0  0  0  0  0
  191.7500  171.2180  142.7010 C   0  0  0  0  0  3  0  0  0  0  0  0
  191.9300  173.3180  143.4620 C   0  0  0  0  0  3  0  0  0  0  0  0
  192.6440  172.2400  142.9750 C   0  0  0  0  0  0  0  0  0  0  0  0
  196.3150  173.2760  142.6880 C   0  0  1  0  0  3  0  0  0  0  0  0
  194.1010  172.2010  142.7620 C   0  0  0  0  0  0  0  0  0  0  0  0
  196.9820  174.2200  143.4700 O   0  0  0  0  0  1  0  0  0  0  0  0
  194.8510  173.2810  143.0050 C   0  0  0  0  0  3  0  0  0  0  0  0
  194.8950  170.6670  142.2160 S   0  0  0  0  0  0  0  0  0  0  0  0
  195.5290  172.7070  140.3140 C   0  0  0  0  0  2  0  0  0  0  0  0
  195.4390  171.1950  140.5330 C   0  0  2  0  0  3  0  0  0  0  0  0
  196.6080  173.4280  141.1660 C   0  0  1  0  0  3  0  0  0  0  0  0
  195.6540  175.2690  139.9180 C   0  0  0  0  0  1  0  0  0  0  0  0
  196.7590  174.8480  140.7770 N   0  0  0  0  0  0  0  0  0  0  0  0
  197.9410  174.9540  139.9280 C   0  0  0  0  0  2  0  0  0  0  0  0
  197.5480  175.4720  138.5540 C   0  0  0  0  0  1  0  0  0  0  0  0
  194.5100  170.6110  139.4870 C   0  0  0  0  0  2  0  0  0  0  0  0
  193.6490  171.6970  138.8560 C   0  0  0  0  0  2  0  0  0  0  0  0
  192.2030  171.5100  139.2700 C   0  0  0  0  0  2  0  0  0  0  0  0
  191.2760  172.1480  138.2540 C   0  0  0  0  0  2  0  0  0  0  0  0
  190.4510  171.0710  137.5660 C   0  0  0  0  0  2  0  0  0  0  0  0
  189.7160  171.6580  136.3710 C   0  0  0  0  0  2  0  0  0  0  0  0
  190.0200  173.1440  136.2770 C   0  0  0  0  0  2  0  0  0  0  0  0
  188.7940  173.9550  136.5580 C   0  0  0  0  0  3  0  0  0  0  0  0
  188.6630  175.1810  136.0480 C   0  0  0  0  0  2  0  0  0  0  0  0
  189.4530  173.6720  143.9290 C   0  0  2  0  0  3  0  0  0  0  0  0
  188.4350  173.6540  142.9620 O   0  0  0  0  0  0  0  0  0  0  0  0
  188.7100  174.7220  142.0990 C   0  0  1  0  0  3  0  0  0  0  0  0
  190.4210  174.4430  140.4650 F   0  0  0  0  0  0  0  0  0  0  0  0
  188.8510  172.8370  140.6370 F   0  0  0  0  0  0  0  0  0  0  0  0
  189.0830  174.1980  140.7110 C   0  0  0  0  0  0  0  0  0  0  0  0
  188.3340  174.8420  139.7430 F   0  0  0  0  0  0  0  0  0  0  0  0
  187.4900  175.6370  142.0100 C   0  0  0  0  0  2  0  0  0  0  0  0
  185.7550  177.5760  140.7690 O   0  0  0  0  0  1  0  0  0  0  0  0
  187.8980  177.0520  141.7570 C   0  0  0  0  0  0  0  0  0  0  0  0
  189.0740  177.4500  142.1130 N   0  0  0  0  0  2  0  0  0  0  0  0
  186.9970  177.9690  141.1330 N   0  0  0  0  0  2  0  0  0  0  0  0
  189.8780  175.1010  144.3060 C   0  0  0  0  0  2  0  0  0  0  0  0
  189.8690  175.3920  145.8130 C   0  0  1  0  0  3  0  0  0  0  0  0
  191.9690  176.5890  145.0680 C   0  0  0  0  0  2  0  0  0  0  0  0
  191.9340  175.5130  147.2220 C   0  0  0  0  0  2  0  0  0  0  0  0
  193.3400  175.6740  146.6960 C   0  0  0  0  0  2  0  0  0  0  0  0
  191.0600  176.2640  146.2440 C   0  0  2  0  0  3  0  0  0  0  0  0
  194.2830  176.8660  144.9260 C   0  0  0  0  0  1  0  0  0  0  0  0
  193.2430  175.9140  145.2670 N   0  0  0  0  0  0  0  0  0  0  0  0
  188.5270  175.9820  146.2600 C   0  0  0  0  0  2  0  0  0  0  0  0
  188.1560  177.2450  145.4930 C   0  0  0  0  0  2  0  0  0  0  0  0
  186.6470  177.3810  145.4020 C   0  0  0  0  0  2  0  0  0  0  0  0
  186.2680  178.6640  144.6830 C   0  0  0  0  0  2  0  0  0  0  0  0
  184.8000  178.6160  144.3120 C   0  0  0  0  0  2  0  0  0  0  0  0
  184.0290  178.8790  145.4430 O   0  0  0  0  0  1  0  0  0  0  0  0
  1  2  1  0  0  0  0
  2  4  2  0  0  0  0
  2 27  1  0  0  0  0
  3  5  2  0  0  0  0
  3  1  1  0  0  0  0
  5  4  1  0  0  0  0
  6  9  1  0  0  0  0
  6  8  1  1  0  0  0
  7  5  1  0  0  0  0
  7  9  2  0  0  0  0
 10  7  1  0  0  0  0
 11 12  1  0  0  0  0
 11 13  1  0  0  0  0
 12 18  1  6  0  0  0
 12 10  1  0  0  0  0
 13 15  1  6  0  0  0
 13  6  1  0  0  0  0
 14 15  1  0  0  0  0
 16 15  1  0  0  0  0
 17 16  1  0  0  0  0
 19 20  1  0  0  0  0
 19 18  1  0  0  0  0
 21 20  1  0  0  0  0
 22 21  1  0  0  0  0
 23 22  1  0  0  0  0
 24 23  1  0  0  0  0
 24 25  1  0  0  0  0
 26 25  2  0  0  0  0
 27 39  1  6  0  0  0
 28 27  1  0  0  0  0
 29 34  1  6  0  0  0
 29 28  1  0  0  0  0
 30 32  1  0  0  0  0
 31 32  1  0  0  0  0
 32 29  1  0  0  0  0
 33 32  1  0  0  0  0
 35 38  1  0  0  0  0
 36 34  1  0  0  0  0
 36 37  2  0  0  0  0
 38 36  1  0  0  0  0
 40 39  1  6  0  0  0
 40 47  1  0  0  0  0
 41 46  1  0  0  0  0
 41 44  1  0  0  0  0
 43 42  1  0  0  0  0
 44 40  1  6  0  0  0
 44 42  1  0  0  0  0
 45 46  1  0  0  0  0
 46 43  1  0  0  0  0
 48 47  1  0  0  0  0
 49 48  1  0  0  0  0
 50 49  1  0  0  0  0
 51 50  1  0  0  0  0
 51 52  1  0  0  0  0
M  END
>  <MODEL>
5

>  <REMARK>
 VINA RESULT:      -5.0      2.768      4.826
  Name = 
  25 active torsions:
  status: ('A' for Active; 'I' for Inactive)
    1  A    between atoms: O_1  and  C_23
    2  A    between atoms: O_1  and  C_33
    3  A    between atoms: C_3  and  C_7
    4  A    between atoms: C_3  and  C_19
    5  A    between atoms: C_7  and  C_46
    6  A    between atoms: C_11  and  C_35
    7  A    between atoms: C_13  and  N_14
    8  A    between atoms: N_14  and  C_50
    9  A    between atoms: C_15  and  C_23
   10  A    between atoms: C_17  and  C_52
   11  A    between atoms: C_18  and  C_25
   12  A    between atoms: C_19  and  C_52
   13  A    between atoms: C_20  and  C_49
   14  A    between atoms: C_23  and  C_30
   15  A    between atoms: C_25  and  C_33
   16  A    between atoms: C_28  and  C_36
   17  A    between atoms: C_28  and  C_40
   18  A    between atoms: C_30  and  C_46
   19  A    between atoms: C_31  and  C_46
   20  A    between atoms: C_33  and  C_38
   21  A    between atoms: C_35  and  C_47
   22  A    between atoms: C_36  and  C_51
   23  A    between atoms: C_40  and  C_48
   24  A    between atoms: C_44  and  C_48
   25  A    between atoms: C_47  and  C_51
                            x       y       z     vdW  Elec       q    Type
                         _______ _______ _______ _____ _____    ______ ____

>  <TORSDO>
F 25

$$$$
=
 OpenBabel11062420133D

 52 54  0  0  1  0  0  0  0  0999 V2000
  189.5090  174.2450  140.4520 O   0  0  0  0  0  0  0  0  0  0  0  0
  190.4010  174.0390  141.3930 C   0  0  0  0  0  0  0  0  0  0  0  0
  189.5880  173.2850  139.5620 C   0  0  0  0  0  3  0  0  0  0  0  0
  191.1210  172.8880  141.1470 C   0  0  0  0  0  3  0  0  0  0  0  0
  190.5840  172.4120  139.9660 C   0  0  0  0  0  0  0  0  0  0  0  0
  192.7590  169.6270  138.4990 C   0  0  1  0  0  3  0  0  0  0  0  0
  191.0190  171.1980  139.2530 C   0  0  0  0  0  0  0  0  0  0  0  0
  193.8990  169.0640  139.0740 O   0  0  0  0  0  1  0  0  0  0  0  0
  192.2940  170.7990  139.3080 C   0  0  0  0  0  3  0  0  0  0  0  0
  189.8120  170.2060  138.3350 S   0  0  0  0  0  0  0  0  0  0  0  0
  191.8720  170.9860  136.5120 C   0  0  0  0  0  2  0  0  0  0  0  0
  190.4250  170.5020  136.6200 C   0  0  2  0  0  3  0  0  0  0  0  0
  192.9410  169.9650  136.9890 C   0  0  1  0  0  3  0  0  0  0  0  0
  194.2890  171.6360  135.8720 C   0  0  0  0  0  1  0  0  0  0  0  0
  194.3140  170.4270  136.6930 N   0  0  0  0  0  0  0  0  0  0  0  0
  194.9490  169.4240  135.8440 C   0  0  0  0  0  2  0  0  0  0  0  0
  195.5240  170.0850  134.6020 C   0  0  0  0  0  1  0  0  0  0  0  0
  189.5270  171.5050  135.9210 C   0  0  0  0  0  2  0  0  0  0  0  0
  190.3510  172.5870  135.2360 C   0  0  0  0  0  2  0  0  0  0  0  0
  189.5770  173.8910  135.2260 C   0  0  0  0  0  2  0  0  0  0  0  0
  190.5170  175.0610  135.0130 C   0  0  0  0  0  2  0  0  0  0  0  0
  191.9330  174.6540  135.3900 C   0  0  0  0  0  2  0  0  0  0  0  0
  192.5270  175.6640  136.3600 C   0  0  0  0  0  2  0  0  0  0  0  0
  193.7130  175.0370  137.0730 C   0  0  0  0  0  2  0  0  0  0  0  0
  193.2780  174.3550  138.3310 C   0  0  0  0  0  3  0  0  0  0  0  0
  193.8020  174.7050  139.5060 C   0  0  0  0  0  2  0  0  0  0  0  0
  190.5870  174.9190  142.5850 C   0  0  2  0  0  3  0  0  0  0  0  0
  191.6510  174.4500  143.3710 O   0  0  0  0  0  0  0  0  0  0  0  0
  192.6530  175.4240  143.2760 C   0  0  1  0  0  3  0  0  0  0  0  0
  191.8370  175.8760  145.4670 F   0  0  0  0  0  0  0  0  0  0  0  0
  193.7500  176.8760  144.8250 F   0  0  0  0  0  0  0  0  0  0  0  0
  192.5050  176.4480  144.4020 C   0  0  0  0  0  0  0  0  0  0  0  0
  191.7750  177.5370  143.9600 F   0  0  0  0  0  0  0  0  0  0  0  0
  194.0260  174.7560  143.3430 C   0  0  0  0  0  2  0  0  0  0  0  0
  194.2240  172.1930  142.0390 O   0  0  0  0  0  1  0  0  0  0  0  0
  193.9550  173.4590  144.0810 C   0  0  0  0  0  0  0  0  0  0  0  0
  193.8100  173.4620  145.3640 N   0  0  0  0  0  2  0  0  0  0  0  0
  194.0550  172.2180  143.3820 N   0  0  0  0  0  2  0  0  0  0  0  0
  189.2780  175.0460  143.3840 C   0  0  0  0  0  2  0  0  0  0  0  0
  188.5350  176.3720  143.1810 C   0  0  1  0  0  3  0  0  0  0  0  0
  187.0320  177.1410  141.2980 C   0  0  0  0  0  2  0  0  0  0  0  0
  186.0460  176.5090  143.4020 C   0  0  0  0  0  2  0  0  0  0  0  0
  185.1510  177.4380  142.6180 C   0  0  0  0  0  2  0  0  0  0  0  0
  187.1870  176.1800  142.4670 C   0  0  2  0  0  3  0  0  0  0  0  0
  185.1610  178.2310  140.4230 C   0  0  0  0  0  1  0  0  0  0  0  0
  185.9750  178.0900  141.6150 N   0  0  0  0  0  0  0  0  0  0  0  0
  188.3870  177.1380  144.5010 C   0  0  0  0  0  2  0  0  0  0  0  0
  188.8050  176.3090  145.7100 C   0  0  0  0  0  2  0  0  0  0  0  0
  187.6650  176.2250  146.7090 C   0  0  0  0  0  2  0  0  0  0  0  0
  187.1490  177.6110  147.0500 C   0  0  0  0  0  2  0  0  0  0  0  0
  185.6430  177.5630  147.2030 C   0  0  0  0  0  2  0  0  0  0  0  0
  185.1490  178.8610  147.3160 O   0  0  0  0  0  1  0  0  0  0  0  0
  1  2  1  0  0  0  0
  2 27  1  0  0  0  0
  3  5  2  0  0  0  0
  3  1  1  0  0  0  0
  4  2  2  0  0  0  0
  5  4  1  0  0  0  0
  6  8  1  1  0  0  0
  6  9  1  0  0  0  0
  7  9  2  0  0  0  0
  7  5  1  0  0  0  0
 10  7  1  0  0  0  0
 11 12  1  0  0  0  0
 11 13  1  0  0  0  0
 12 18  1  1  0  0  0
 12 10  1  0  0  0  0
 13 15  1  1  0  0  0
 13  6  1  0  0  0  0
 14 15  1  0  0  0  0
 16 15  1  0  0  0  0
 17 16  1  0  0  0  0
 19 18  1  0  0  0  0
 20 19  1  0  0  0  0
 21 20  1  0  0  0  0
 21 22  1  0  0  0  0
 22 23  1  0  0  0  0
 23 24  1  0  0  0  0
 24 25  1  0  0  0  0
 25 26  2  0  0  0  0
 27 28  1  0  0  0  0
 27 39  1  1  0  0  0
 29 34  1  1  0  0  0
 29 28  1  0  0  0  0
 29 32  1  0  0  0  0
 32 31  1  0  0  0  0
 32 30  1  0  0  0  0
 33 32  1  0  0  0  0
 34 36  1  0  0  0  0
 35 38  1  0  0  0  0
 36 37  2  0  0  0  0
 38 36  1  0  0  0  0
 40 39  1  1  0  0  0
 40 47  1  0  0  0  0
 41 46  1  0  0  0  0
 41 44  1  0  0  0  0
 43 42  1  0  0  0  0
 44 40  1  1  0  0  0
 44 42  1  0  0  0  0
 45 46  1  0  0  0  0
 46 43  1  0  0  0  0
 47 48  1  0  0  0  0
 48 49  1  0  0  0  0
 49 50  1  0  0  0  0
 50 51  1  0  0  0  0
 51 52  1  0  0  0  0
M  END
>  <MODEL>
6

>  <REMARK>
 VINA RESULT:      -4.9      3.531      5.949
  Name = 
  25 active torsions:
  status: ('A' for Active; 'I' for Inactive)
    1  A    between atoms: O_1  and  C_23
    2  A    between atoms: O_1  and  C_33
    3  A    between atoms: C_3  and  C_7
    4  A    between atoms: C_3  and  C_19
    5  A    between atoms: C_7  and  C_46
    6  A    between atoms: C_11  and  C_35
    7  A    between atoms: C_13  and  N_14
    8  A    between atoms: N_14  and  C_50
    9  A    between atoms: C_15  and  C_23
   10  A    between atoms: C_17  and  C_52
   11  A    between atoms: C_18  and  C_25
   12  A    between atoms: C_19  and  C_52
   13  A    between atoms: C_20  and  C_49
   14  A    between atoms: C_23  and  C_30
   15  A    between atoms: C_25  and  C_33
   16  A    between atoms: C_28  and  C_36
   17  A    between atoms: C_28  and  C_40
   18  A    between atoms: C_30  and  C_46
   19  A    between atoms: C_31  and  C_46
   20  A    between atoms: C_33  and  C_38
   21  A    between atoms: C_35  and  C_47
   22  A    between atoms: C_36  and  C_51
   23  A    between atoms: C_40  and  C_48
   24  A    between atoms: C_44  and  C_48
   25  A    between atoms: C_47  and  C_51
                            x       y       z     vdW  Elec       q    Type
                         _______ _______ _______ _____ _____    ______ ____

>  <TORSDO>
F 25

$$$$
=
 OpenBabel11062420133D

 52 54  0  0  1  0  0  0  0  0999 V2000
  190.6150  172.3250  144.5750 O   0  0  0  0  0  0  0  0  0  0  0  0
  191.7880  172.8900  144.7380 C   0  0  0  0  0  0  0  0  0  0  0  0
  189.6750  173.1640  144.9390 C   0  0  0  0  0  3  0  0  0  0  0  0
  191.6540  174.1740  145.2270 C   0  0  0  0  0  3  0  0  0  0  0  0
  190.2880  174.3370  145.3480 C   0  0  0  0  0  0  0  0  0  0  0  0
  187.6850  176.6820  146.8840 C   0  0  1  0  0  3  0  0  0  0  0  0
  189.6080  175.5440  145.8500 C   0  0  0  0  0  0  0  0  0  0  0  0
  186.8100  176.3900  147.9310 O   0  0  0  0  0  1  0  0  0  0  0  0
  188.4260  175.4480  146.4680 C   0  0  0  0  0  3  0  0  0  0  0  0
  190.3960  177.1650  145.6760 S   0  0  0  0  0  0  0  0  0  0  0  0
  187.8410  177.2930  144.3980 C   0  0  0  0  0  2  0  0  0  0  0  0
  189.2250  177.9400  144.4790 C   0  0  2  0  0  3  0  0  0  0  0  0
  186.9900  177.4050  145.6920 C   0  0  1  0  0  3  0  0  0  0  0  0
  185.3020  176.8150  144.0610 C   0  0  0  0  0  1  0  0  0  0  0  0
  185.6090  176.9160  145.4860 N   0  0  0  0  0  0  0  0  0  0  0  0
  184.6960  177.9400  145.9830 C   0  0  0  0  0  2  0  0  0  0  0  0
  184.5550  179.0520  144.9560 C   0  0  0  0  0  1  0  0  0  0  0  0
  189.8380  177.9440  143.0920 C   0  0  0  0  0  2  0  0  0  0  0  0
  189.1230  176.9580  142.1790 C   0  0  0  0  0  2  0  0  0  0  0  0
  188.0960  177.6910  141.3370 C   0  0  0  0  0  2  0  0  0  0  0  0
  187.0960  176.7120  140.7540 C   0  0  0  0  0  2  0  0  0  0  0  0
  186.7950  177.0880  139.3110 C   0  0  0  0  0  2  0  0  0  0  0  0
  186.9960  175.8830  138.4040 C   0  0  0  0  0  2  0  0  0  0  0  0
  186.3080  176.1360  137.0740 C   0  0  0  0  0  2  0  0  0  0  0  0
  187.2670  176.7130  136.0810 C   0  0  0  0  0  3  0  0  0  0  0  0
  186.9830  176.6990  134.7780 C   0  0  0  0  0  2  0  0  0  0  0  0
  193.0900  172.2390  144.4080 C   0  0  2  0  0  3  0  0  0  0  0  0
  194.0660  172.5990  145.3510 O   0  0  0  0  0  0  0  0  0  0  0  0
  195.1380  171.7220  145.1450 C   0  0  1  0  0  3  0  0  0  0  0  0
  196.2660  173.8010  145.4230 F   0  0  0  0  0  0  0  0  0  0  0  0
  196.9690  172.0450  146.6460 F   0  0  0  0  0  0  0  0  0  0  0  0
  196.4640  172.4340  145.4190 C   0  0  0  0  0  0  0  0  0  0  0  0
  197.3810  172.1260  144.4300 F   0  0  0  0  0  0  0  0  0  0  0  0
  194.9890  170.5070  146.0590 C   0  0  0  0  0  2  0  0  0  0  0  0
  197.5280  169.1440  146.1420 O   0  0  0  0  0  1  0  0  0  0  0  0
  195.2590  169.2390  145.3140 C   0  0  0  0  0  0  0  0  0  0  0  0
  194.3220  168.7060  144.6030 N   0  0  0  0  0  2  0  0  0  0  0  0
  196.5390  168.6100  145.3890 N   0  0  0  0  0  2  0  0  0  0  0  0
  193.5190  172.5660  142.9670 C   0  0  0  0  0  2  0  0  0  0  0  0
  192.3680  172.9650  142.0350 C   0  0  1  0  0  3  0  0  0  0  0  0
  193.6450  173.9110  140.0670 C   0  0  0  0  0  2  0  0  0  0  0  0
  193.4260  175.2330  142.0680 C   0  0  0  0  0  2  0  0  0  0  0  0
  194.6230  175.6490  141.2480 C   0  0  0  0  0  2  0  0  0  0  0  0
  192.6950  174.2230  141.2140 C   0  0  2  0  0  3  0  0  0  0  0  0
  195.3580  175.1610  139.0880 C   0  0  0  0  0  1  0  0  0  0  0  0
  194.9210  174.5600  140.3330 N   0  0  0  0  0  0  0  0  0  0  0  0
  191.9330  171.7920  141.1490 C   0  0  0  0  0  2  0  0  0  0  0  0
  190.4170  171.6530  141.0630 C   0  0  0  0  0  2  0  0  0  0  0  0
  189.9090  172.2390  139.7580 C   0  0  0  0  0  2  0  0  0  0  0  0
  188.5820  172.9450  139.9690 C   0  0  0  0  0  2  0  0  0  0  0  0
  188.4340  173.3100  141.4320 C   0  0  0  0  0  2  0  0  0  0  0  0
  187.3010  172.6850  141.9510 O   0  0  0  0  0  1  0  0  0  0  0  0
  1  2  1  0  0  0  0
  1  3  1  0  0  0  0
  2  4  2  0  0  0  0
  3  5  2  0  0  0  0
  4  5  1  0  0  0  0
  5  7  1  0  0  0  0
  6  8  1  1  0  0  0
  7  9  2  0  0  0  0
  9  6  1  0  0  0  0
 10  7  1  0  0  0  0
 11 12  1  0  0  0  0
 11 13  1  0  0  0  0
 12 18  1  6  0  0  0
 12 10  1  0  0  0  0
 13 15  1  6  0  0  0
 13  6  1  0  0  0  0
 14 15  1  0  0  0  0
 15 16  1  0  0  0  0
 17 16  1  0  0  0  0
 19 18  1  0  0  0  0
 20 19  1  0  0  0  0
 21 20  1  0  0  0  0
 22 21  1  0  0  0  0
 23 22  1  0  0  0  0
 24 23  1  0  0  0  0
 25 24  1  0  0  0  0
 26 25  2  0  0  0  0
 27 39  1  6  0  0  0
 27  2  1  0  0  0  0
 27 28  1  0  0  0  0
 29 28  1  0  0  0  0
 29 32  1  0  0  0  0
 29 34  1  1  0  0  0
 32 30  1  0  0  0  0
 32 31  1  0  0  0  0
 33 32  1  0  0  0  0
 36 38  1  0  0  0  0
 36 34  1  0  0  0  0
 37 36  2  0  0  0  0
 38 35  1  0  0  0  0
 40 47  1  6  0  0  0
 40 39  1  0  0  0  0
 41 46  1  0  0  0  0
 41 44  1  0  0  0  0
 43 42  1  0  0  0  0
 44 40  1  1  0  0  0
 44 42  1  0  0  0  0
 45 46  1  0  0  0  0
 46 43  1  0  0  0  0
 48 47  1  0  0  0  0
 49 50  1  0  0  0  0
 49 48  1  0  0  0  0
 50 51  1  0  0  0  0
 51 52  1  0  0  0  0
M  END
>  <MODEL>
7

>  <REMARK>
 VINA RESULT:      -4.9      4.324      9.248
  Name = 
  25 active torsions:
  status: ('A' for Active; 'I' for Inactive)
    1  A    between atoms: O_1  and  C_23
    2  A    between atoms: O_1  and  C_33
    3  A    between atoms: C_3  and  C_7
    4  A    between atoms: C_3  and  C_19
    5  A    between atoms: C_7  and  C_46
    6  A    between atoms: C_11  and  C_35
    7  A    between atoms: C_13  and  N_14
    8  A    between atoms: N_14  and  C_50
    9  A    between atoms: C_15  and  C_23
   10  A    between atoms: C_17  and  C_52
   11  A    between atoms: C_18  and  C_25
   12  A    between atoms: C_19  and  C_52
   13  A    between atoms: C_20  and  C_49
   14  A    between atoms: C_23  and  C_30
   15  A    between atoms: C_25  and  C_33
   16  A    between atoms: C_28  and  C_36
   17  A    between atoms: C_28  and  C_40
   18  A    between atoms: C_30  and  C_46
   19  A    between atoms: C_31  and  C_46
   20  A    between atoms: C_33  and  C_38
   21  A    between atoms: C_35  and  C_47
   22  A    between atoms: C_36  and  C_51
   23  A    between atoms: C_40  and  C_48
   24  A    between atoms: C_44  and  C_48
   25  A    between atoms: C_47  and  C_51
                            x       y       z     vdW  Elec       q    Type
                         _______ _______ _______ _____ _____    ______ ____

>  <TORSDO>
F 25

$$$$
=
 OpenBabel11062420133D

 52 54  0  0  1  0  0  0  0  0999 V2000
  192.0970  172.7340  144.6890 O   0  0  0  0  0  0  0  0  0  0  0  0
  192.9640  173.0610  143.7590 C   0  0  0  0  0  0  0  0  0  0  0  0
  190.9710  172.3730  144.1230 C   0  0  0  0  0  3  0  0  0  0  0  0
  192.4170  172.9140  142.5010 C   0  0  0  0  0  3  0  0  0  0  0  0
  191.1340  172.4670  142.7510 C   0  0  0  0  0  0  0  0  0  0  0  0
  189.4350  171.3160  139.5230 C   0  0  1  0  0  3  0  0  0  0  0  0
  190.1140  172.1680  141.7310 C   0  0  0  0  0  0  0  0  0  0  0  0
  189.7910  170.2210  138.7340 O   0  0  0  0  0  1  0  0  0  0  0  0
  190.4480  171.5250  140.6070 C   0  0  0  0  0  3  0  0  0  0  0  0
  188.3860  172.6280  142.0180 S   0  0  0  0  0  0  0  0  0  0  0  0
  189.2310  173.8720  139.5850 C   0  0  0  0  0  2  0  0  0  0  0  0
  188.2010  173.9230  140.7150 C   0  0  2  0  0  3  0  0  0  0  0  0
  189.1590  172.6040  138.6910 C   0  0  1  0  0  3  0  0  0  0  0  0
  191.0160  173.7940  137.6950 C   0  0  0  0  0  1  0  0  0  0  0  0
  190.0590  172.7030  137.5210 N   0  0  0  0  0  0  0  0  0  0  0  0
  189.2530  173.1040  136.3730 C   0  0  0  0  0  2  0  0  0  0  0  0
  189.6670  174.4910  135.9080 C   0  0  0  0  0  1  0  0  0  0  0  0
  188.2510  175.2990  141.3510 C   0  0  0  0  0  2  0  0  0  0  0  0
  187.6080  176.3400  140.4440 C   0  0  0  0  0  2  0  0  0  0  0  0
  187.3670  177.6190  141.2220 C   0  0  0  0  0  2  0  0  0  0  0  0
  187.3420  177.3340  142.7110 C   0  0  0  0  0  2  0  0  0  0  0  0
  186.0540  177.8730  143.3130 C   0  0  0  0  0  2  0  0  0  0  0  0
  186.3280  178.4690  144.6860 C   0  0  0  0  0  2  0  0  0  0  0  0
  185.0770  179.1710  145.1870 C   0  0  0  0  0  2  0  0  0  0  0  0
  184.5210  178.4740  146.3880 C   0  0  0  0  0  3  0  0  0  0  0  0
  185.1200  177.3870  146.8760 C   0  0  0  0  0  2  0  0  0  0  0  0
  194.3640  173.5020  144.0310 C   0  0  2  0  0  3  0  0  0  0  0  0
  194.7380  173.1500  145.3370 O   0  0  0  0  0  0  0  0  0  0  0  0
  195.5440  172.0130  145.2100 C   0  0  1  0  0  3  0  0  0  0  0  0
  196.9890  173.5140  146.3640 F   0  0  0  0  0  0  0  0  0  0  0  0
  196.7990  171.4140  147.1550 F   0  0  0  0  0  0  0  0  0  0  0  0
  196.8370  172.1880  146.0090 C   0  0  0  0  0  0  0  0  0  0  0  0
  197.9240  171.8110  145.2410 F   0  0  0  0  0  0  0  0  0  0  0  0
  194.7800  170.7840  145.7010 C   0  0  0  0  0  2  0  0  0  0  0  0
  194.2280  170.0080  142.9800 O   0  0  0  0  0  1  0  0  0  0  0  0
  195.3190  169.5350  145.0840 C   0  0  0  0  0  0  0  0  0  0  0  0
  196.0810  168.7570  145.7810 N   0  0  0  0  0  2  0  0  0  0  0  0
  195.0090  169.1980  143.7320 N   0  0  0  0  0  2  0  0  0  0  0  0
  194.5290  175.0070  143.7580 C   0  0  0  0  0  2  0  0  0  0  0  0
  195.6920  175.6670  144.5110 C   0  0  1  0  0  3  0  0  0  0  0  0
  196.4460  176.3560  142.1970 C   0  0  0  0  0  2  0  0  0  0  0  0
  197.7090  174.6920  143.3960 C   0  0  0  0  0  2  0  0  0  0  0  0
  197.9160  174.5880  141.9040 C   0  0  0  0  0  2  0  0  0  0  0  0
  196.8930  175.9490  143.5930 C   0  0  2  0  0  3  0  0  0  0  0  0
  197.3760  175.9560  140.0920 C   0  0  0  0  0  1  0  0  0  0  0  0
  196.8250  175.3040  141.2640 N   0  0  0  0  0  0  0  0  0  0  0  0
  195.2310  176.9210  145.2630 C   0  0  0  0  0  2  0  0  0  0  0  0
  193.7130  177.0240  145.3560 C   0  0  0  0  0  2  0  0  0  0  0  0
  193.2120  176.3070  146.5970 C   0  0  0  0  0  2  0  0  0  0  0  0
  191.6980  176.3700  146.6770 C   0  0  0  0  0  2  0  0  0  0  0  0
  191.2350  175.7080  147.9590 C   0  0  0  0  0  2  0  0  0  0  0  0
  190.1210  174.9130  147.6910 O   0  0  0  0  0  1  0  0  0  0  0  0
  2 27  1  0  0  0  0
  2  1  1  0  0  0  0
  3  1  1  0  0  0  0
  4  5  1  0  0  0  0
  4  2  2  0  0  0  0
  5  3  2  0  0  0  0
  6  8  1  6  0  0  0
  6  9  1  0  0  0  0
  7 10  1  0  0  0  0
  7  5  1  0  0  0  0
  9  7  2  0  0  0  0
 11 12  1  0  0  0  0
 12 18  1  1  0  0  0
 12 10  1  0  0  0  0
 13 15  1  6  0  0  0
 13  6  1  0  0  0  0
 13 11  1  0  0  0  0
 15 14  1  0  0  0  0
 16 15  1  0  0  0  0
 17 16  1  0  0  0  0
 19 20  1  0  0  0  0
 19 18  1  0  0  0  0
 20 21  1  0  0  0  0
 21 22  1  0  0  0  0
 22 23  1  0  0  0  0
 23 24  1  0  0  0  0
 24 25  1  0  0  0  0
 25 26  2  0  0  0  0
 27 39  1  1  0  0  0
 27 28  1  0  0  0  0
 29 28  1  0  0  0  0
 29 34  1  1  0  0  0
 29 32  1  0  0  0  0
 32 30  1  0  0  0  0
 32 31  1  0  0  0  0
 33 32  1  0  0  0  0
 35 38  1  0  0  0  0
 36 34  1  0  0  0  0
 36 37  2  0  0  0  0
 38 36  1  0  0  0  0
 40 39  1  6  0  0  0
 40 47  1  0  0  0  0
 41 44  1  0  0  0  0
 42 44  1  0  0  0  0
 43 42  1  0  0  0  0
 44 40  1  1  0  0  0
 45 46  1  0  0  0  0
 46 43  1  0  0  0  0
 46 41  1  0  0  0  0
 47 48  1  0  0  0  0
 48 49  1  0  0  0  0
 49 50  1  0  0  0  0
 50 51  1  0  0  0  0
 52 51  1  0  0  0  0
M  END
>  <MODEL>
8

>  <REMARK>
 VINA RESULT:      -4.9      4.408      8.814
  Name = 
  25 active torsions:
  status: ('A' for Active; 'I' for Inactive)
    1  A    between atoms: O_1  and  C_23
    2  A    between atoms: O_1  and  C_33
    3  A    between atoms: C_3  and  C_7
    4  A    between atoms: C_3  and  C_19
    5  A    between atoms: C_7  and  C_46
    6  A    between atoms: C_11  and  C_35
    7  A    between atoms: C_13  and  N_14
    8  A    between atoms: N_14  and  C_50
    9  A    between atoms: C_15  and  C_23
   10  A    between atoms: C_17  and  C_52
   11  A    between atoms: C_18  and  C_25
   12  A    between atoms: C_19  and  C_52
   13  A    between atoms: C_20  and  C_49
   14  A    between atoms: C_23  and  C_30
   15  A    between atoms: C_25  and  C_33
   16  A    between atoms: C_28  and  C_36
   17  A    between atoms: C_28  and  C_40
   18  A    between atoms: C_30  and  C_46
   19  A    between atoms: C_31  and  C_46
   20  A    between atoms: C_33  and  C_38
   21  A    between atoms: C_35  and  C_47
   22  A    between atoms: C_36  and  C_51
   23  A    between atoms: C_40  and  C_48
   24  A    between atoms: C_44  and  C_48
   25  A    between atoms: C_47  and  C_51
                            x       y       z     vdW  Elec       q    Type
                         _______ _______ _______ _____ _____    ______ ____

>  <TORSDO>
F 25

$$$$
=
 OpenBabel11062420133D

 52 54  0  0  1  0  0  0  0  0999 V2000
  189.5990  175.2990  142.4060 O   0  0  0  0  0  0  0  0  0  0  0  0
  189.4540  174.4380  143.3860 C   0  0  0  0  0  0  0  0  0  0  0  0
  189.7130  174.6500  141.2720 C   0  0  0  0  0  3  0  0  0  0  0  0
  189.4620  173.1420  142.9100 C   0  0  0  0  0  3  0  0  0  0  0  0
  189.6250  173.2950  141.5470 C   0  0  0  0  0  0  0  0  0  0  0  0
  190.6160  170.0400  139.7980 C   0  0  1  0  0  3  0  0  0  0  0  0
  189.7170  172.2000  140.5650 C   0  0  0  0  0  0  0  0  0  0  0  0
  190.9040  168.8170  140.4060 O   0  0  0  0  0  1  0  0  0  0  0  0
  190.4360  171.1060  140.8360 C   0  0  0  0  0  3  0  0  0  0  0  0
  188.8110  172.3100  139.0010 S   0  0  0  0  0  0  0  0  0  0  0  0
  191.5810  171.9520  138.3850 C   0  0  0  0  0  2  0  0  0  0  0  0
  190.2380  172.4390  137.8380 C   0  0  2  0  0  3  0  0  0  0  0  0
  191.6470  170.4320  138.6970 C   0  0  1  0  0  3  0  0  0  0  0  0
  193.9780  171.0750  138.8030 C   0  0  0  0  0  1  0  0  0  0  0  0
  193.0170  170.0030  139.0530 N   0  0  0  0  0  0  0  0  0  0  0  0
  193.4060  168.9430  138.1290 C   0  0  0  0  0  2  0  0  0  0  0  0
  192.6490  169.0940  136.8190 C   0  0  0  0  0  1  0  0  0  0  0  0
  190.3970  173.8760  137.3800 C   0  0  0  0  0  2  0  0  0  0  0  0
  190.9940  173.9380  135.9800 C   0  0  0  0  0  2  0  0  0  0  0  0
  191.6970  175.2670  135.7810 C   0  0  0  0  0  2  0  0  0  0  0  0
  193.2000  175.0700  135.7550 C   0  0  0  0  0  2  0  0  0  0  0  0
  193.8180  175.6960  136.9970 C   0  0  0  0  0  2  0  0  0  0  0  0
  194.2430  174.6090  137.9730 C   0  0  0  0  0  2  0  0  0  0  0  0
  194.5670  175.2400  139.3160 C   0  0  0  0  0  2  0  0  0  0  0  0
  195.6110  174.4480  140.0380 C   0  0  0  0  0  3  0  0  0  0  0  0
  196.8940  174.5400  139.6870 C   0  0  0  0  0  2  0  0  0  0  0  0
  189.2740  174.8160  144.8190 C   0  0  2  0  0  3  0  0  0  0  0  0
  189.3370  176.2110  144.9640 O   0  0  0  0  0  0  0  0  0  0  0  0
  188.0120  176.6380  145.1170 C   0  0  1  0  0  3  0  0  0  0  0  0
  188.7610  177.7140  147.1060 F   0  0  0  0  0  0  0  0  0  0  0  0
  186.5470  177.6740  146.6970 F   0  0  0  0  0  0  0  0  0  0  0  0
  187.7270  176.9610  146.5850 C   0  0  0  0  0  0  0  0  0  0  0  0
  187.6240  175.7920  147.3170 F   0  0  0  0  0  0  0  0  0  0  0  0
  187.7650  177.8680  144.2460 C   0  0  0  0  0  2  0  0  0  0  0  0
  188.5810  178.3080  141.5160 O   0  0  0  0  0  1  0  0  0  0  0  0
  186.9030  177.5310  143.0730 C   0  0  0  0  0  0  0  0  0  0  0  0
  185.7390  177.0050  143.2670 N   0  0  0  0  0  2  0  0  0  0  0  0
  187.3580  177.7750  141.7420 N   0  0  0  0  0  2  0  0  0  0  0  0
  190.2920  174.0870  145.7120 C   0  0  0  0  0  2  0  0  0  0  0  0
  191.7470  174.5270  145.5100 C   0  0  1  0  0  3  0  0  0  0  0  0
  191.3700  175.7260  147.7050 C   0  0  0  0  0  2  0  0  0  0  0  0
  193.4320  176.0820  146.5130 C   0  0  0  0  0  2  0  0  0  0  0  0
  193.1160  177.2270  147.4440 C   0  0  0  0  0  2  0  0  0  0  0  0
  192.3890  175.0310  146.8130 C   0  0  2  0  0  3  0  0  0  0  0  0
  191.5660  177.5430  149.1590 C   0  0  0  0  0  1  0  0  0  0  0  0
  191.7040  177.1410  147.7720 N   0  0  0  0  0  0  0  0  0  0  0  0
  192.5780  173.4230  144.8440 C   0  0  0  0  0  2  0  0  0  0  0  0
  193.0650  173.8140  143.4540 C   0  0  0  0  0  2  0  0  0  0  0  0
  194.4320  174.4680  143.5400 C   0  0  0  0  0  2  0  0  0  0  0  0
  195.4480  173.5080  144.1330 C   0  0  0  0  0  2  0  0  0  0  0  0
  196.2720  174.2320  145.1780 C   0  0  0  0  0  2  0  0  0  0  0  0
  197.6210  174.1560  144.8360 O   0  0  0  0  0  1  0  0  0  0  0  0
  1  2  1  0  0  0  0
  2 27  1  0  0  0  0
  3  5  2  0  0  0  0
  3  1  1  0  0  0  0
  4  2  2  0  0  0  0
  5  4  1  0  0  0  0
  6  8  1  1  0  0  0
  6  9  1  0  0  0  0
  7  9  2  0  0  0  0
  7  5  1  0  0  0  0
 10  7  1  0  0  0  0
 11 13  1  0  0  0  0
 12 18  1  1  0  0  0
 12 11  1  0  0  0  0
 12 10  1  0  0  0  0
 13 15  1  1  0  0  0
 13  6  1  0  0  0  0
 14 15  1  0  0  0  0
 16 15  1  0  0  0  0
 17 16  1  0  0  0  0
 19 18  1  0  0  0  0
 20 19  1  0  0  0  0
 21 20  1  0  0  0  0
 21 22  1  0  0  0  0
 22 23  1  0  0  0  0
 23 24  1  0  0  0  0
 24 25  1  0  0  0  0
 26 25  2  0  0  0  0
 27 28  1  0  0  0  0
 27 39  1  1  0  0  0
 28 29  1  0  0  0  0
 29 34  1  6  0  0  0
 29 32  1  0  0  0  0
 32 31  1  0  0  0  0
 32 30  1  0  0  0  0
 32 33  1  0  0  0  0
 35 38  1  0  0  0  0
 36 37  2  0  0  0  0
 36 34  1  0  0  0  0
 38 36  1  0  0  0  0
 40 47  1  1  0  0  0
 40 39  1  0  0  0  0
 41 46  1  0  0  0  0
 42 44  1  0  0  0  0
 42 43  1  0  0  0  0
 43 46  1  0  0  0  0
 44 40  1  6  0  0  0
 44 41  1  0  0  0  0
 46 45  1  0  0  0  0
 48 49  1  0  0  0  0
 48 47  1  0  0  0  0
 49 50  1  0  0  0  0
 50 51  1  0  0  0  0
 52 51  1  0  0  0  0
M  END
>  <MODEL>
9

>  <REMARK>
 VINA RESULT:      -4.8      2.993      5.828
  Name = 
  25 active torsions:
  status: ('A' for Active; 'I' for Inactive)
    1  A    between atoms: O_1  and  C_23
    2  A    between atoms: O_1  and  C_33
    3  A    between atoms: C_3  and  C_7
    4  A    between atoms: C_3  and  C_19
    5  A    between atoms: C_7  and  C_46
    6  A    between atoms: C_11  and  C_35
    7  A    between atoms: C_13  and  N_14
    8  A    between atoms: N_14  and  C_50
    9  A    between atoms: C_15  and  C_23
   10  A    between atoms: C_17  and  C_52
   11  A    between atoms: C_18  and  C_25
   12  A    between atoms: C_19  and  C_52
   13  A    between atoms: C_20  and  C_49
   14  A    between atoms: C_23  and  C_30
   15  A    between atoms: C_25  and  C_33
   16  A    between atoms: C_28  and  C_36
   17  A    between atoms: C_28  and  C_40
   18  A    between atoms: C_30  and  C_46
   19  A    between atoms: C_31  and  C_46
   20  A    between atoms: C_33  and  C_38
   21  A    between atoms: C_35  and  C_47
   22  A    between atoms: C_36  and  C_51
   23  A    between atoms: C_40  and  C_48
   24  A    between atoms: C_44  and  C_48
   25  A    between atoms: C_47  and  C_51
                            x       y       z     vdW  Elec       q    Type
                         _______ _______ _______ _____ _____    ______ ____

>  <TORSDO>
F 25

$$$$
