=
 OpenBabel11062419223D

 50 53  0  0  1  0  0  0  0  0999 V2000
  192.7410  173.8890  138.8520 C   0  0  2  0  0  3  0  0  0  0  0  0
  191.9070  173.7260  139.8850 O   0  0  0  0  0  0  0  0  0  0  0  0
  191.9880  172.3240  140.1570 C   0  0  0  0  0  2  0  0  0  0  0  0
  190.6780  171.8430  140.6010 C   0  0  0  0  0  2  0  0  0  0  0  0
  189.8280  172.9260  141.2330 C   0  0  1  0  0  3  0  0  0  0  0  0
  188.6510  173.3530  140.3850 C   0  0  0  0  0  0  0  0  0  0  0  0
  188.1650  174.6670  140.3330 O   0  0  0  0  0  1  0  0  0  0  0  0
  188.1810  172.5010  139.5380 O   0  0  0  0  0  0  0  0  0  0  0  0
  189.3190  172.4020  142.5770 C   0  0  0  0  0  2  0  0  0  0  0  0
  189.7780  173.2810  143.7920 C   0  0  0  0  0  2  0  0  0  0  0  0
  189.6780  175.7770  143.8850 C   0  0  0  0  0  0  0  0  0  0  0  0
  187.2450  177.4820  143.1010 C   0  0  0  0  0  0  0  0  0  0  0  0
  186.1160  177.3690  142.4170 C   0  0  0  0  0  2  0  0  0  0  0  0
  188.8760  176.8070  144.7220 C   0  0  2  0  0  0  0  0  0  0  0  0
  186.4680  177.0900  145.4350 C   0  0  0  0  0  0  0  0  0  0  0  0
  188.8270  178.6110  141.6770 O   0  0  0  0  0  1  0  0  0  0  0  0
  190.1100  174.6510  143.3460 C   0  0  0  0  0  3  0  0  0  0  0  0
  185.1960  177.5380  145.0960 O   0  0  0  0  0  1  0  0  0  0  0  0
  189.5360  177.2360  146.0260 C   0  0  0  0  0  1  0  0  0  0  0  0
  190.7600  177.9970  143.6590 F   0  0  0  0  0  0  0  0  0  0  0  0
  187.4150  177.0990  144.5160 C   0  0  0  0  0  0  0  0  0  0  0  0
  188.5770  177.4840  142.4450 C   0  0  1  0  0  3  0  0  0  0  0  0
  189.5550  177.2990  143.5720 C   0  0  1  0  0  0  0  0  0  0  0  0
  186.7360  176.6840  146.8550 C   0  0  0  0  0  2  0  0  0  0  0  0
  186.3320  177.6670  147.7450 O   0  0  0  0  0  1  0  0  0  0  0  0
  193.9710  174.8150  139.1730 C   0  0  0  0  0  2  0  0  0  0  0  0
  196.4490  174.6530  141.9420 C   0  0  0  0  0  2  0  0  0  0  0  0
  193.9870  175.1960  142.1970 C   0  0  0  0  0  0  0  0  0  0  0  0
  197.3360  174.3320  140.7400 C   0  0  0  0  0  2  0  0  0  0  0  0
  193.1840  175.9990  141.6050 O   0  0  0  0  0  0  0  0  0  0  0  0
  195.0750  174.1620  140.0430 C   0  0  2  0  0  3  0  0  0  0  0  0
  195.0660  174.6010  141.4310 N   0  0  0  0  0  0  0  0  0  0  0  0
  196.4240  174.6220  139.5620 C   0  0  2  0  0  3  0  0  0  0  0  0
  193.4230  174.5820  146.3870 C   0  0  0  0  0  3  0  0  0  0  0  0
  193.7680  175.8520  145.9130 C   0  0  0  0  0  0  0  0  0  0  0  0
  193.4860  173.7370  144.1350 C   0  0  0  0  0  3  0  0  0  0  0  0
  193.3030  173.5130  145.4940 C   0  0  0  0  0  3  0  0  0  0  0  0
  193.8830  176.9380  146.8150 N   0  0  0  0  0  1  0  0  0  0  0  0
  193.8190  175.0040  143.6320 C   0  0  0  0  0  0  0  0  0  0  0  0
  193.9770  176.0590  144.5550 C   0  0  0  0  0  3  0  0  0  0  0  0
  197.8540  175.2510  137.5200 C   0  0  0  0  0  1  0  0  0  0  0  0
  196.9250  174.2380  138.1530 C   0  0  0  0  0  2  0  0  0  0  0  0
  192.0250  174.2450  137.5420 C   0  0  0  0  0  2  0  0  0  0  0  0
  190.6730  173.9070  137.5260 O   0  0  0  0  0  0  0  0  0  0  0  0
  190.3960  173.7630  136.1280 C   0  0  0  0  0  2  0  0  0  0  0  0
  189.5070  174.8180  135.6360 C   0  0  0  0  0  2  0  0  0  0  0  0
  188.3830  175.0030  136.5410 N   0  0  0  0  0  2  0  0  0  0  0  0
  186.2310  176.0140  137.2430 N   0  0  0  0  0  1  0  0  0  0  0  0
  187.3400  175.9440  136.3380 C   0  0  0  0  0  0  0  0  0  0  0  0
  187.3090  176.7100  135.3060 O   0  0  0  0  0  0  0  0  0  0  0  0
  1 43  1  6  0  0  0
  1 26  1  0  0  0  0
  1  2  1  0  0  0  0
  2  3  1  0  0  0  0
  3  4  1  0  0  0  0
  5  4  1  6  0  0  0
  5  9  1  0  0  0  0
  6  5  1  0  0  0  0
  7  6  1  0  0  0  0
  8  6  2  0  0  0  0
  9 10  1  0  0  0  0
 11 14  1  0  0  0  0
 12 21  1  0  0  0  0
 13 12  2  0  0  0  0
 14 19  1  1  0  0  0
 15 24  1  0  0  0  0
 17 10  1  0  0  0  0
 17 11  2  0  0  0  0
 18 15  1  0  0  0  0
 21 14  1  0  0  0  0
 21 15  2  0  0  0  0
 22 16  1  1  0  0  0
 22 12  1  0  0  0  0
 22 23  1  0  0  0  0
 23 20  1  1  0  0  0
 23 11  1  0  0  0  0
 23 14  1  0  0  0  0
 24 25  1  0  0  0  0
 28 39  1  0  0  0  0
 29 27  1  0  0  0  0
 30 28  2  0  0  0  0
 31 26  1  6  0  0  0
 31 32  1  0  0  0  0
 32 27  1  0  0  0  0
 32 28  1  0  0  0  0
 33 42  1  6  0  0  0
 33 31  1  0  0  0  0
 33 29  1  0  0  0  0
 35 34  1  0  0  0  0
 35 38  1  0  0  0  0
 36 37  1  0  0  0  0
 37 34  2  0  0  0  0
 39 36  2  0  0  0  0
 39 40  1  0  0  0  0
 40 35  2  0  0  0  0
 41 42  1  0  0  0  0
 44 43  1  0  0  0  0
 45 44  1  0  0  0  0
 46 45  1  0  0  0  0
 46 47  1  0  0  0  0
 49 47  1  0  0  0  0
 49 48  1  0  0  0  0
 50 49  2  0  0  0  0
M  END
>  <MODEL>
1

>  <REMARK>
 VINA RESULT:      -6.2      0.000      0.000
  Name = 
  18 active torsions:
  status: ('A' for Active; 'I' for Inactive)
    1  A    between atoms: C_2  and  C_22
    2  A    between atoms: C_2  and  O_45
    3  A    between atoms: C_5  and  C_22
    4  A    between atoms: C_5  and  C_31
    5  A    between atoms: C_6  and  C_21
    6  A    between atoms: C_6  and  N_28
    7  A    between atoms: C_8  and  C_13
    8  A    between atoms: C_9  and  C_11
    9  A    between atoms: C_9  and  C_23
   10  A    between atoms: C_11  and  C_18
   11  A    between atoms: C_11  and  C_32
   12  A    between atoms: C_15  and  C_23
   13  A    between atoms: C_17  and  C_18
   14  A    between atoms: C_17  and  O_46
   15  A    between atoms: C_19  and  C_42
   16  A    between atoms: C_21  and  O_45
   17  A    between atoms: C_22  and  O_46
   18  A    between atoms: C_38  and  C_50
                            x       y       z     vdW  Elec       q    Type
                         _______ _______ _______ _____ _____    ______ ____

>  <TORSDO>
F 18

$$$$
=
 OpenBabel11062419223D

 50 53  0  0  1  0  0  0  0  0999 V2000
  192.9310  173.2750  139.3120 C   0  0  2  0  0  3  0  0  0  0  0  0
  191.8190  173.3040  140.0570 O   0  0  0  0  0  0  0  0  0  0  0  0
  192.1760  172.5420  141.2130 C   0  0  0  0  0  2  0  0  0  0  0  0
  190.9620  172.0030  141.8280 C   0  0  0  0  0  2  0  0  0  0  0  0
  191.2120  171.3590  143.1750 C   0  0  1  0  0  3  0  0  0  0  0  0
  192.2340  170.2440  143.1400 C   0  0  0  0  0  0  0  0  0  0  0  0
  193.4590  170.2900  143.8210 O   0  0  0  0  0  1  0  0  0  0  0  0
  191.8850  169.1280  142.5980 O   0  0  0  0  0  0  0  0  0  0  0  0
  191.6850  172.4480  144.1390 C   0  0  0  0  0  2  0  0  0  0  0  0
  190.5280  173.3960  144.6090 C   0  0  0  0  0  2  0  0  0  0  0  0
  190.0600  175.8420  144.3850 C   0  0  0  0  0  0  0  0  0  0  0  0
  187.4400  177.0530  143.3300 C   0  0  0  0  0  0  0  0  0  0  0  0
  186.3710  176.6890  142.6370 C   0  0  0  0  0  2  0  0  0  0  0  0
  189.0800  176.8330  145.0640 C   0  0  2  0  0  0  0  0  0  0  0  0
  186.6270  176.8330  145.6750 C   0  0  0  0  0  0  0  0  0  0  0  0
  188.9000  178.2270  141.8160 O   0  0  0  0  0  1  0  0  0  0  0  0
  190.6750  174.7370  144.0030 C   0  0  0  0  0  3  0  0  0  0  0  0
  185.3190  177.0390  145.2500 O   0  0  0  0  0  1  0  0  0  0  0  0
  189.6110  177.5100  146.3200 C   0  0  0  0  0  1  0  0  0  0  0  0
  190.8140  178.1560  143.9080 F   0  0  0  0  0  0  0  0  0  0  0  0
  187.6010  176.8730  144.7870 C   0  0  0  0  0  0  0  0  0  0  0  0
  188.7850  177.1760  142.7140 C   0  0  1  0  0  3  0  0  0  0  0  0
  189.7290  177.2780  143.8800 C   0  0  1  0  0  0  0  0  0  0  0  0
  186.8880  176.6470  147.1410 C   0  0  0  0  0  2  0  0  0  0  0  0
  186.1450  177.5350  147.9020 O   0  0  0  0  0  1  0  0  0  0  0  0
  193.7330  174.6280  139.3220 C   0  0  0  0  0  2  0  0  0  0  0  0
  196.5830  175.8110  141.3980 C   0  0  0  0  0  2  0  0  0  0  0  0
  194.1900  175.5500  142.1910 C   0  0  0  0  0  0  0  0  0  0  0  0
  197.2770  175.5830  140.0560 C   0  0  0  0  0  2  0  0  0  0  0  0
  193.0530  175.9180  141.7330 O   0  0  0  0  0  0  0  0  0  0  0  0
  195.1440  174.5490  139.9580 C   0  0  2  0  0  3  0  0  0  0  0  0
  195.2430  175.2120  141.2510 N   0  0  0  0  0  0  0  0  0  0  0  0
  196.1140  175.3310  139.1140 C   0  0  2  0  0  3  0  0  0  0  0  0
  194.7590  175.7370  146.4210 C   0  0  0  0  0  3  0  0  0  0  0  0
  195.4420  174.7730  145.6720 C   0  0  0  0  0  0  0  0  0  0  0  0
  193.7000  176.5310  144.4120 C   0  0  0  0  0  3  0  0  0  0  0  0
  193.8650  176.6070  145.7890 C   0  0  0  0  0  3  0  0  0  0  0  0
  196.3540  173.8960  146.3080 N   0  0  0  0  0  1  0  0  0  0  0  0
  194.3830  175.5840  143.6350 C   0  0  0  0  0  0  0  0  0  0  0  0
  195.2470  174.6870  144.2990 C   0  0  0  0  0  3  0  0  0  0  0  0
  197.6010  173.9140  137.5680 C   0  0  0  0  0  1  0  0  0  0  0  0
  196.4390  174.8770  137.6740 C   0  0  0  0  0  2  0  0  0  0  0  0
  192.7070  172.6990  137.9070 C   0  0  0  0  0  2  0  0  0  0  0  0
  191.4720  172.0750  137.7410 O   0  0  0  0  0  0  0  0  0  0  0  0
  190.9010  172.7860  136.6370 C   0  0  0  0  0  2  0  0  0  0  0  0
  189.4540  172.9630  136.7920 C   0  0  0  0  0  2  0  0  0  0  0  0
  189.1690  173.9540  137.8190 N   0  0  0  0  0  2  0  0  0  0  0  0
  188.3160  174.6930  140.0260 N   0  0  0  0  0  1  0  0  0  0  0  0
  188.4950  173.6730  139.0360 C   0  0  0  0  0  0  0  0  0  0  0  0
  188.0890  172.4890  139.3280 O   0  0  0  0  0  0  0  0  0  0  0  0
  1 43  1  6  0  0  0
  1 26  1  0  0  0  0
  1  2  1  0  0  0  0
  2  3  1  0  0  0  0
  3  4  1  0  0  0  0
  5  4  1  6  0  0  0
  5  9  1  0  0  0  0
  6  5  1  0  0  0  0
  6  7  1  0  0  0  0
  8  6  2  0  0  0  0
  9 10  1  0  0  0  0
 11 14  1  0  0  0  0
 12 21  1  0  0  0  0
 13 12  2  0  0  0  0
 14 19  1  1  0  0  0
 15 24  1  0  0  0  0
 17 11  2  0  0  0  0
 17 10  1  0  0  0  0
 18 15  1  0  0  0  0
 21 14  1  0  0  0  0
 21 15  2  0  0  0  0
 22 16  1  6  0  0  0
 22 12  1  0  0  0  0
 22 23  1  0  0  0  0
 23 20  1  1  0  0  0
 23 11  1  0  0  0  0
 23 14  1  0  0  0  0
 24 25  1  0  0  0  0
 28 39  1  0  0  0  0
 29 27  1  0  0  0  0
 30 28  2  0  0  0  0
 31 26  1  6  0  0  0
 31 32  1  0  0  0  0
 32 27  1  0  0  0  0
 32 28  1  0  0  0  0
 33 42  1  6  0  0  0
 33 31  1  0  0  0  0
 33 29  1  0  0  0  0
 35 38  1  0  0  0  0
 35 34  2  0  0  0  0
 36 37  2  0  0  0  0
 37 34  1  0  0  0  0
 39 40  2  0  0  0  0
 39 36  1  0  0  0  0
 40 35  1  0  0  0  0
 41 42  1  0  0  0  0
 44 43  1  0  0  0  0
 45 46  1  0  0  0  0
 45 44  1  0  0  0  0
 46 47  1  0  0  0  0
 47 49  1  0  0  0  0
 49 50  2  0  0  0  0
 49 48  1  0  0  0  0
M  END
>  <MODEL>
2

>  <REMARK>
 VINA RESULT:      -6.2      1.716      2.369
  Name = 
  18 active torsions:
  status: ('A' for Active; 'I' for Inactive)
    1  A    between atoms: C_2  and  C_22
    2  A    between atoms: C_2  and  O_45
    3  A    between atoms: C_5  and  C_22
    4  A    between atoms: C_5  and  C_31
    5  A    between atoms: C_6  and  C_21
    6  A    between atoms: C_6  and  N_28
    7  A    between atoms: C_8  and  C_13
    8  A    between atoms: C_9  and  C_11
    9  A    between atoms: C_9  and  C_23
   10  A    between atoms: C_11  and  C_18
   11  A    between atoms: C_11  and  C_32
   12  A    between atoms: C_15  and  C_23
   13  A    between atoms: C_17  and  C_18
   14  A    between atoms: C_17  and  O_46
   15  A    between atoms: C_19  and  C_42
   16  A    between atoms: C_21  and  O_45
   17  A    between atoms: C_22  and  O_46
   18  A    between atoms: C_38  and  C_50
                            x       y       z     vdW  Elec       q    Type
                         _______ _______ _______ _____ _____    ______ ____

>  <TORSDO>
F 18

$$$$
=
 OpenBabel11062419223D

 50 53  0  0  1  0  0  0  0  0999 V2000
  193.7010  170.6770  141.8960 C   0  0  2  0  0  3  0  0  0  0  0  0
  192.7830  171.6050  141.6010 O   0  0  0  0  0  0  0  0  0  0  0  0
  191.5840  171.0790  142.1730 C   0  0  0  0  0  2  0  0  0  0  0  0
  190.4430  171.4630  141.3390 C   0  0  0  0  0  2  0  0  0  0  0  0
  189.8320  172.7900  141.7400 C   0  0  1  0  0  3  0  0  0  0  0  0
  188.7470  173.2720  140.8020 C   0  0  0  0  0  0  0  0  0  0  0  0
  188.1050  172.4490  139.8670 O   0  0  0  0  0  0  0  0  0  0  0  0
  188.2720  174.4550  140.9930 O   0  0  0  0  0  1  0  0  0  0  0  0
  189.2520  172.6360  143.1470 C   0  0  0  0  0  2  0  0  0  0  0  0
  190.0290  173.4700  144.2250 C   0  0  0  0  0  2  0  0  0  0  0  0
  189.8220  175.9620  144.1870 C   0  0  0  0  0  0  0  0  0  0  0  0
  187.3490  177.5180  143.2350 C   0  0  0  0  0  0  0  0  0  0  0  0
  186.2510  177.3220  142.5210 C   0  0  0  0  0  2  0  0  0  0  0  0
  188.9490  176.9960  144.9420 C   0  0  2  0  0  0  0  0  0  0  0  0
  186.5080  177.2100  145.5600 C   0  0  0  0  0  0  0  0  0  0  0  0
  188.9320  178.6420  141.8080 O   0  0  0  0  0  1  0  0  0  0  0  0
  190.3190  174.8290  143.7210 C   0  0  0  0  0  3  0  0  0  0  0  0
  185.2310  177.5840  145.1560 O   0  0  0  0  0  1  0  0  0  0  0  0
  189.5440  177.5170  146.2430 C   0  0  0  0  0  1  0  0  0  0  0  0
  190.8180  178.2120  143.8830 F   0  0  0  0  0  0  0  0  0  0  0  0
  187.4850  177.2130  144.6740 C   0  0  0  0  0  0  0  0  0  0  0  0
  188.7020  177.5450  142.6250 C   0  0  1  0  0  3  0  0  0  0  0  0
  189.6470  177.4590  143.7920 C   0  0  1  0  0  0  0  0  0  0  0  0
  186.7410  176.8870  147.0060 C   0  0  0  0  0  2  0  0  0  0  0  0
  185.6980  177.3390  147.7990 O   0  0  0  0  0  1  0  0  0  0  0  0
  195.0550  171.2730  142.4290 C   0  0  0  0  0  2  0  0  0  0  0  0
  196.1750  172.4580  145.7710 C   0  0  0  0  0  2  0  0  0  0  0  0
  194.6810  173.7420  144.1760 C   0  0  0  0  0  0  0  0  0  0  0  0
  196.8640  171.0970  145.7010 C   0  0  0  0  0  2  0  0  0  0  0  0
  194.7440  174.0280  142.9300 O   0  0  0  0  0  0  0  0  0  0  0  0
  195.2510  171.1880  143.9630 C   0  0  2  0  0  3  0  0  0  0  0  0
  195.2400  172.4820  144.6300 N   0  0  0  0  0  0  0  0  0  0  0  0
  196.6360  170.6780  144.2600 C   0  0  2  0  0  3  0  0  0  0  0  0
  193.1540  176.7200  146.8320 C   0  0  0  0  0  3  0  0  0  0  0  0
  192.6190  175.4280  146.8580 C   0  0  0  0  0  0  0  0  0  0  0  0
  194.6420  176.0560  145.0620 C   0  0  0  0  0  3  0  0  0  0  0  0
  194.1570  177.0410  145.9120 C   0  0  0  0  0  3  0  0  0  0  0  0
  191.6090  175.0980  147.7950 N   0  0  0  0  0  1  0  0  0  0  0  0
  194.1330  174.7480  145.0770 C   0  0  0  0  0  0  0  0  0  0  0  0
  193.0910  174.4570  145.9830 C   0  0  0  0  0  3  0  0  0  0  0  0
  196.5780  168.1670  144.8050 C   0  0  0  0  0  1  0  0  0  0  0  0
  197.0450  169.2460  143.8530 C   0  0  0  0  0  2  0  0  0  0  0  0
  193.8790  169.6250  140.7920 C   0  0  0  0  0  2  0  0  0  0  0  0
  193.7020  170.1230  139.5030 O   0  0  0  0  0  0  0  0  0  0  0  0
  192.6520  169.2990  138.9840 C   0  0  0  0  0  2  0  0  0  0  0  0
  191.8830  169.9860  137.9420 C   0  0  0  0  0  2  0  0  0  0  0  0
  191.9020  171.4240  138.1600 N   0  0  0  0  0  2  0  0  0  0  0  0
  190.9760  173.7170  137.9770 N   0  0  0  0  0  1  0  0  0  0  0  0
  190.9220  172.3210  137.6580 C   0  0  0  0  0  0  0  0  0  0  0  0
  189.9180  171.9110  136.9680 O   0  0  0  0  0  0  0  0  0  0  0  0
  1 43  1  6  0  0  0
  1 26  1  0  0  0  0
  2  1  1  0  0  0  0
  2  3  1  0  0  0  0
  4  3  1  0  0  0  0
  5  4  1  6  0  0  0
  5  9  1  0  0  0  0
  6  8  1  0  0  0  0
  6  5  1  0  0  0  0
  7  6  2  0  0  0  0
  9 10  1  0  0  0  0
 11 14  1  0  0  0  0
 12 21  1  0  0  0  0
 13 12  2  0  0  0  0
 14 19  1  1  0  0  0
 15 24  1  0  0  0  0
 17 11  2  0  0  0  0
 17 10  1  0  0  0  0
 18 15  1  0  0  0  0
 21 14  1  0  0  0  0
 21 15  2  0  0  0  0
 22 16  1  1  0  0  0
 22 12  1  0  0  0  0
 22 23  1  0  0  0  0
 23 20  1  1  0  0  0
 23 11  1  0  0  0  0
 23 14  1  0  0  0  0
 24 25  1  0  0  0  0
 28 32  1  0  0  0  0
 28 39  1  0  0  0  0
 29 27  1  0  0  0  0
 30 28  2  0  0  0  0
 31 26  1  6  0  0  0
 31 33  1  0  0  0  0
 31 32  1  0  0  0  0
 32 27  1  0  0  0  0
 33 42  1  1  0  0  0
 33 29  1  0  0  0  0
 34 35  1  0  0  0  0
 35 38  1  0  0  0  0
 36 39  2  0  0  0  0
 36 37  1  0  0  0  0
 37 34  2  0  0  0  0
 39 40  1  0  0  0  0
 40 35  2  0  0  0  0
 42 41  1  0  0  0  0
 44 43  1  0  0  0  0
 45 44  1  0  0  0  0
 46 47  1  0  0  0  0
 46 45  1  0  0  0  0
 49 48  1  0  0  0  0
 49 47  1  0  0  0  0
 50 49  2  0  0  0  0
M  END
>  <MODEL>
3

>  <REMARK>
 VINA RESULT:      -6.0      2.660      3.671
  Name = 
  18 active torsions:
  status: ('A' for Active; 'I' for Inactive)
    1  A    between atoms: C_2  and  C_22
    2  A    between atoms: C_2  and  O_45
    3  A    between atoms: C_5  and  C_22
    4  A    between atoms: C_5  and  C_31
    5  A    between atoms: C_6  and  C_21
    6  A    between atoms: C_6  and  N_28
    7  A    between atoms: C_8  and  C_13
    8  A    between atoms: C_9  and  C_11
    9  A    between atoms: C_9  and  C_23
   10  A    between atoms: C_11  and  C_18
   11  A    between atoms: C_11  and  C_32
   12  A    between atoms: C_15  and  C_23
   13  A    between atoms: C_17  and  C_18
   14  A    between atoms: C_17  and  O_46
   15  A    between atoms: C_19  and  C_42
   16  A    between atoms: C_21  and  O_45
   17  A    between atoms: C_22  and  O_46
   18  A    between atoms: C_38  and  C_50
                            x       y       z     vdW  Elec       q    Type
                         _______ _______ _______ _____ _____    ______ ____

>  <TORSDO>
F 18

$$$$
=
 OpenBabel11062419223D

 50 53  0  0  1  0  0  0  0  0999 V2000
  191.7200  175.1660  143.1040 C   0  0  2  0  0  3  0  0  0  0  0  0
  192.2010  174.0560  143.6760 O   0  0  0  0  0  0  0  0  0  0  0  0
  193.1580  173.5820  142.7260 C   0  0  0  0  0  2  0  0  0  0  0  0
  194.1440  174.6340  142.4690 C   0  0  0  0  0  2  0  0  0  0  0  0
  195.3440  174.5640  143.3890 C   0  0  1  0  0  3  0  0  0  0  0  0
  196.0270  173.2130  143.4020 C   0  0  0  0  0  0  0  0  0  0  0  0
  196.8810  172.7630  142.3860 O   0  0  0  0  0  0  0  0  0  0  0  0
  195.9530  172.5150  144.4840 O   0  0  0  0  0  1  0  0  0  0  0  0
  196.3450  175.6310  142.9420 C   0  0  0  0  0  2  0  0  0  0  0  0
  195.8730  176.4210  141.6720 C   0  0  0  0  0  2  0  0  0  0  0  0
  195.8920  175.2280  139.4740 C   0  0  0  0  0  0  0  0  0  0  0  0
  195.5070  172.2020  139.1000 C   0  0  0  0  0  0  0  0  0  0  0  0
  195.5540  171.0860  139.8130 C   0  0  0  0  0  2  0  0  0  0  0  0
  194.8360  174.4570  138.6420 C   0  0  2  0  0  0  0  0  0  0  0  0
  193.0690  172.7120  139.1130 C   0  0  0  0  0  0  0  0  0  0  0  0
  197.5810  172.3550  137.8850 O   0  0  0  0  0  1  0  0  0  0  0  0
  196.5040  175.8710  140.4530 C   0  0  0  0  0  3  0  0  0  0  0  0
  192.7790  171.3640  139.2910 O   0  0  0  0  0  1  0  0  0  0  0  0
  194.0390  175.3060  137.6610 C   0  0  0  0  0  1  0  0  0  0  0  0
  196.7440  174.9660  137.1600 F   0  0  0  0  0  0  0  0  0  0  0  0
  194.3290  173.0850  138.9940 C   0  0  0  0  0  0  0  0  0  0  0  0
  196.7220  172.9880  138.7700 C   0  0  1  0  0  3  0  0  0  0  0  0
  196.1970  174.3020  138.2590 C   0  0  1  0  0  0  0  0  0  0  0  0
  191.9320  173.6840  138.9890 C   0  0  0  0  0  2  0  0  0  0  0  0
  190.7230  173.0270  138.8200 O   0  0  0  0  0  1  0  0  0  0  0  0
  191.5440  176.3680  144.1030 C   0  0  0  0  0  2  0  0  0  0  0  0
  189.8510  176.9580  147.3610 C   0  0  0  0  0  2  0  0  0  0  0  0
  188.8610  177.4380  145.0780 C   0  0  0  0  0  0  0  0  0  0  0  0
  191.1970  176.4080  147.8300 C   0  0  0  0  0  2  0  0  0  0  0  0
  189.2820  178.0460  144.0330 O   0  0  0  0  0  0  0  0  0  0  0  0
  191.0050  175.9820  145.5040 C   0  0  2  0  0  3  0  0  0  0  0  0
  189.8220  176.7290  145.9050 N   0  0  0  0  0  0  0  0  0  0  0  0
  192.0120  176.3780  146.5500 C   0  0  2  0  0  3  0  0  0  0  0  0
  184.7230  177.7510  146.0910 C   0  0  0  0  0  3  0  0  0  0  0  0
  185.2510  178.5560  145.0770 C   0  0  0  0  0  0  0  0  0  0  0  0
  186.9000  176.7900  146.4440 C   0  0  0  0  0  3  0  0  0  0  0  0
  185.5590  176.8790  146.7950 C   0  0  0  0  0  3  0  0  0  0  0  0
  184.4060  179.4360  144.3570 N   0  0  0  0  0  1  0  0  0  0  0  0
  187.4520  177.5750  145.4210 C   0  0  0  0  0  0  0  0  0  0  0  0
  186.6010  178.4800  144.7540 C   0  0  0  0  0  3  0  0  0  0  0  0
  194.5610  176.6360  146.3440 C   0  0  0  0  0  1  0  0  0  0  0  0
  193.3990  175.7010  146.5960 C   0  0  0  0  0  2  0  0  0  0  0  0
  190.4900  174.9110  142.2210 C   0  0  0  0  0  2  0  0  0  0  0  0
  189.3270  174.6350  142.9370 O   0  0  0  0  0  0  0  0  0  0  0  0
  188.4180  174.2060  141.9170 C   0  0  0  0  0  2  0  0  0  0  0  0
  188.3330  175.1720  140.8190 C   0  0  0  0  0  2  0  0  0  0  0  0
  187.1530  176.0100  140.9670 N   0  0  0  0  0  2  0  0  0  0  0  0
  185.9780  178.1780  141.2250 N   0  0  0  0  0  1  0  0  0  0  0  0
  187.1900  177.4160  141.1590 C   0  0  0  0  0  0  0  0  0  0  0  0
  188.2990  178.0650  141.2040 O   0  0  0  0  0  0  0  0  0  0  0  0
  1 43  1  1  0  0  0
  1  2  1  0  0  0  0
  1 26  1  0  0  0  0
  3  2  1  0  0  0  0
  4  3  1  0  0  0  0
  5  4  1  6  0  0  0
  5  6  1  0  0  0  0
  6  8  1  0  0  0  0
  7  6  2  0  0  0  0
  9  5  1  0  0  0  0
 10  9  1  0  0  0  0
 11 17  2  0  0  0  0
 12 13  2  0  0  0  0
 14 19  1  6  0  0  0
 14 21  1  0  0  0  0
 14 11  1  0  0  0  0
 15 18  1  0  0  0  0
 17 10  1  0  0  0  0
 21 12  1  0  0  0  0
 21 15  2  0  0  0  0
 22 16  1  6  0  0  0
 22 12  1  0  0  0  0
 23 20  1  6  0  0  0
 23 14  1  0  0  0  0
 23 22  1  0  0  0  0
 23 11  1  0  0  0  0
 24 15  1  0  0  0  0
 25 24  1  0  0  0  0
 27 29  1  0  0  0  0
 28 39  1  0  0  0  0
 28 32  1  0  0  0  0
 30 28  2  0  0  0  0
 31 26  1  6  0  0  0
 31 32  1  0  0  0  0
 31 33  1  0  0  0  0
 32 27  1  0  0  0  0
 33 42  1  1  0  0  0
 33 29  1  0  0  0  0
 34 37  1  0  0  0  0
 35 34  2  0  0  0  0
 36 37  2  0  0  0  0
 38 35  1  0  0  0  0
 39 36  1  0  0  0  0
 40 35  1  0  0  0  0
 40 39  2  0  0  0  0
 41 42  1  0  0  0  0
 43 44  1  0  0  0  0
 45 44  1  0  0  0  0
 46 47  1  0  0  0  0
 46 45  1  0  0  0  0
 47 49  1  0  0  0  0
 49 50  2  0  0  0  0
 49 48  1  0  0  0  0
M  END
>  <MODEL>
4

>  <REMARK>
 VINA RESULT:      -6.0      2.952      8.096
  Name = 
  18 active torsions:
  status: ('A' for Active; 'I' for Inactive)
    1  A    between atoms: C_2  and  C_22
    2  A    between atoms: C_2  and  O_45
    3  A    between atoms: C_5  and  C_22
    4  A    between atoms: C_5  and  C_31
    5  A    between atoms: C_6  and  C_21
    6  A    between atoms: C_6  and  N_28
    7  A    between atoms: C_8  and  C_13
    8  A    between atoms: C_9  and  C_11
    9  A    between atoms: C_9  and  C_23
   10  A    between atoms: C_11  and  C_18
   11  A    between atoms: C_11  and  C_32
   12  A    between atoms: C_15  and  C_23
   13  A    between atoms: C_17  and  C_18
   14  A    between atoms: C_17  and  O_46
   15  A    between atoms: C_19  and  C_42
   16  A    between atoms: C_21  and  O_45
   17  A    between atoms: C_22  and  O_46
   18  A    between atoms: C_38  and  C_50
                            x       y       z     vdW  Elec       q    Type
                         _______ _______ _______ _____ _____    ______ ____

>  <TORSDO>
F 18

$$$$
=
 OpenBabel11062419223D

 50 53  0  0  1  0  0  0  0  0999 V2000
  191.4590  175.4040  142.8560 C   0  0  2  0  0  3  0  0  0  0  0  0
  192.5410  175.3770  142.0680 O   0  0  0  0  0  0  0  0  0  0  0  0
  193.4800  174.6050  142.8210 C   0  0  0  0  0  2  0  0  0  0  0  0
  194.5110  174.0880  141.9190 C   0  0  0  0  0  2  0  0  0  0  0  0
  194.4350  174.6770  140.5260 C   0  0  1  0  0  3  0  0  0  0  0  0
  195.5440  175.6570  140.2140 C   0  0  0  0  0  0  0  0  0  0  0  0
  195.8420  176.7730  141.0090 O   0  0  0  0  0  1  0  0  0  0  0  0
  196.3620  175.3540  139.2650 O   0  0  0  0  0  0  0  0  0  0  0  0
  194.4840  173.5230  139.5230 C   0  0  0  0  0  2  0  0  0  0  0  0
  194.8110  172.1420  140.1910 C   0  0  0  0  0  2  0  0  0  0  0  0
  193.2010  171.1840  138.5360 C   0  0  0  0  0  0  0  0  0  0  0  0
  190.1620  171.6390  138.5550 C   0  0  0  0  0  0  0  0  0  0  0  0
  189.2130  172.0530  139.3810 C   0  0  0  0  0  2  0  0  0  0  0  0
  192.2790  171.7780  137.4400 C   0  0  2  0  0  0  0  0  0  0  0  0
  190.6660  173.7160  137.2750 C   0  0  0  0  0  0  0  0  0  0  0  0
  190.0670  169.2320  138.5150 O   0  0  0  0  0  1  0  0  0  0  0  0
  194.0280  171.0600  139.5600 C   0  0  0  0  0  3  0  0  0  0  0  0
  189.3810  174.1880  137.5190 O   0  0  0  0  0  1  0  0  0  0  0  0
  192.9150  171.9130  136.0630 C   0  0  0  0  0  1  0  0  0  0  0  0
  192.4800  169.3520  137.0290 F   0  0  0  0  0  0  0  0  0  0  0  0
  191.0060  172.5250  137.7300 C   0  0  0  0  0  0  0  0  0  0  0  0
  190.8660  170.3440  138.7360 C   0  0  1  0  0  3  0  0  0  0  0  0
  192.0500  170.4240  137.8120 C   0  0  1  0  0  0  0  0  0  0  0  0
  191.5940  174.5480  136.4390 C   0  0  0  0  0  2  0  0  0  0  0  0
  190.8900  175.3930  135.5950 O   0  0  0  0  0  1  0  0  0  0  0  0
  191.5080  176.5240  143.9590 C   0  0  0  0  0  2  0  0  0  0  0  0
  189.8810  176.9860  147.2700 C   0  0  0  0  0  2  0  0  0  0  0  0
  188.8280  177.5100  145.0250 C   0  0  0  0  0  0  0  0  0  0  0  0
  191.2480  176.4500  147.6920 C   0  0  0  0  0  2  0  0  0  0  0  0
  189.2120  178.1570  143.9890 O   0  0  0  0  0  0  0  0  0  0  0  0
  191.0100  176.0880  145.3590 C   0  0  2  0  0  3  0  0  0  0  0  0
  189.8220  176.7980  145.8090 N   0  0  0  0  0  0  0  0  0  0  0  0
  192.0330  176.4740  146.3930 C   0  0  2  0  0  3  0  0  0  0  0  0
  184.7080  177.7090  146.1370 C   0  0  0  0  0  3  0  0  0  0  0  0
  185.2150  178.6070  145.1920 C   0  0  0  0  0  0  0  0  0  0  0  0
  186.8940  176.7280  146.3600 C   0  0  0  0  0  3  0  0  0  0  0  0
  185.5590  176.7780  146.7410 C   0  0  0  0  0  3  0  0  0  0  0  0
  184.3540  179.5460  144.5730 N   0  0  0  0  0  1  0  0  0  0  0  0
  187.4250  177.6080  145.4050 C   0  0  0  0  0  0  0  0  0  0  0  0
  186.5590  178.5680  144.8400 C   0  0  0  0  0  3  0  0  0  0  0  0
  194.5780  176.8050  146.2530 C   0  0  0  0  0  1  0  0  0  0  0  0
  193.4340  175.8240  146.3880 C   0  0  0  0  0  2  0  0  0  0  0  0
  191.0660  174.0220  143.3950 C   0  0  0  0  0  2  0  0  0  0  0  0
  190.0190  173.4200  142.7000 O   0  0  0  0  0  0  0  0  0  0  0  0
  188.8900  174.2220  143.0640 C   0  0  0  0  0  2  0  0  0  0  0  0
  187.9440  174.3690  141.9550 C   0  0  0  0  0  2  0  0  0  0  0  0
  187.9890  175.7230  141.4220 N   0  0  0  0  0  2  0  0  0  0  0  0
  187.1480  178.0390  141.1490 N   0  0  0  0  0  1  0  0  0  0  0  0
  186.9920  176.7070  141.6530 C   0  0  0  0  0  0  0  0  0  0  0  0
  185.9580  176.4660  142.3790 O   0  0  0  0  0  0  0  0  0  0  0  0
  1 43  1  1  0  0  0
  1 26  1  0  0  0  0
  2  3  1  0  0  0  0
  2  1  1  0  0  0  0
  4  3  1  0  0  0  0
  5  9  1  6  0  0  0
  5  4  1  0  0  0  0
  6  5  1  0  0  0  0
  6  7  1  0  0  0  0
  8  6  2  0  0  0  0
  9 10  1  0  0  0  0
 11 17  2  0  0  0  0
 12 22  1  0  0  0  0
 12 13  2  0  0  0  0
 14 19  1  6  0  0  0
 14 21  1  0  0  0  0
 14 23  1  0  0  0  0
 14 11  1  0  0  0  0
 15 18  1  0  0  0  0
 15 21  2  0  0  0  0
 17 10  1  0  0  0  0
 21 12  1  0  0  0  0
 22 16  1  6  0  0  0
 23 20  1  6  0  0  0
 23 11  1  0  0  0  0
 23 22  1  0  0  0  0
 24 15  1  0  0  0  0
 25 24  1  0  0  0  0
 27 29  1  0  0  0  0
 28 39  1  0  0  0  0
 28 32  1  0  0  0  0
 30 28  2  0  0  0  0
 31 26  1  6  0  0  0
 31 32  1  0  0  0  0
 31 33  1  0  0  0  0
 32 27  1  0  0  0  0
 33 42  1  1  0  0  0
 33 29  1  0  0  0  0
 34 37  1  0  0  0  0
 35 34  2  0  0  0  0
 36 37  2  0  0  0  0
 38 35  1  0  0  0  0
 39 36  1  0  0  0  0
 40 35  1  0  0  0  0
 40 39  2  0  0  0  0
 41 42  1  0  0  0  0
 44 45  1  0  0  0  0
 44 43  1  0  0  0  0
 46 45  1  0  0  0  0
 47 49  1  0  0  0  0
 47 46  1  0  0  0  0
 48 49  1  0  0  0  0
 49 50  2  0  0  0  0
M  END
>  <MODEL>
5

>  <REMARK>
 VINA RESULT:      -6.0      2.964      7.937
  Name = 
  18 active torsions:
  status: ('A' for Active; 'I' for Inactive)
    1  A    between atoms: C_2  and  C_22
    2  A    between atoms: C_2  and  O_45
    3  A    between atoms: C_5  and  C_22
    4  A    between atoms: C_5  and  C_31
    5  A    between atoms: C_6  and  C_21
    6  A    between atoms: C_6  and  N_28
    7  A    between atoms: C_8  and  C_13
    8  A    between atoms: C_9  and  C_11
    9  A    between atoms: C_9  and  C_23
   10  A    between atoms: C_11  and  C_18
   11  A    between atoms: C_11  and  C_32
   12  A    between atoms: C_15  and  C_23
   13  A    between atoms: C_17  and  C_18
   14  A    between atoms: C_17  and  O_46
   15  A    between atoms: C_19  and  C_42
   16  A    between atoms: C_21  and  O_45
   17  A    between atoms: C_22  and  O_46
   18  A    between atoms: C_38  and  C_50
                            x       y       z     vdW  Elec       q    Type
                         _______ _______ _______ _____ _____    ______ ____

>  <TORSDO>
F 18

$$$$
=
 OpenBabel11062419223D

 50 53  0  0  1  0  0  0  0  0999 V2000
  192.0840  174.4410  143.5970 C   0  0  2  0  0  3  0  0  0  0  0  0
  193.2220  174.5630  142.9020 O   0  0  0  0  0  0  0  0  0  0  0  0
  192.7760  174.9710  141.6060 C   0  0  0  0  0  2  0  0  0  0  0  0
  193.3120  174.0510  140.6010 C   0  0  0  0  0  2  0  0  0  0  0  0
  194.3100  174.7040  139.6680 C   0  0  1  0  0  3  0  0  0  0  0  0
  195.7520  174.5130  140.0830 C   0  0  0  0  0  0  0  0  0  0  0  0
  196.7880  175.3870  139.7220 O   0  0  0  0  0  0  0  0  0  0  0  0
  196.0090  173.5970  140.9530 O   0  0  0  0  0  1  0  0  0  0  0  0
  194.1040  174.1170  138.2710 C   0  0  0  0  0  2  0  0  0  0  0  0
  192.8790  174.7420  137.5170 C   0  0  0  0  0  2  0  0  0  0  0  0
  190.8120  173.3460  137.6910 C   0  0  0  0  0  0  0  0  0  0  0  0
  190.3330  171.1470  139.7830 C   0  0  0  0  0  0  0  0  0  0  0  0
  191.0220  170.4010  140.6340 C   0  0  0  0  0  2  0  0  0  0  0  0
  189.6770  173.2010  138.7370 C   0  0  2  0  0  0  0  0  0  0  0  0
  189.5380  172.9960  141.2520 C   0  0  0  0  0  0  0  0  0  0  0  0
  189.8720  169.7790  137.8540 O   0  0  0  0  0  1  0  0  0  0  0  0
  191.9380  173.6850  137.0880 C   0  0  0  0  0  3  0  0  0  0  0  0
  189.6110  172.1580  142.3600 O   0  0  0  0  0  1  0  0  0  0  0  0
  188.4880  174.1300  138.5340 C   0  0  0  0  0  1  0  0  0  0  0  0
  188.9100  172.1540  136.6370 F   0  0  0  0  0  0  0  0  0  0  0  0
  189.8420  172.5110  140.0640 C   0  0  0  0  0  0  0  0  0  0  0  0
  190.4230  170.9660  138.3120 C   0  0  1  0  0  3  0  0  0  0  0  0
  189.7660  172.1920  137.7390 C   0  0  1  0  0  0  0  0  0  0  0  0
  189.0440  174.4000  141.4410 C   0  0  0  0  0  2  0  0  0  0  0  0
  187.7460  174.4170  141.9260 O   0  0  0  0  0  1  0  0  0  0  0  0
  191.5150  175.8090  144.1250 C   0  0  0  0  0  2  0  0  0  0  0  0
  189.9900  177.2290  147.2050 C   0  0  0  0  0  2  0  0  0  0  0  0
  188.8870  177.1290  144.9260 C   0  0  0  0  0  0  0  0  0  0  0  0
  191.3570  176.7960  147.7320 C   0  0  0  0  0  2  0  0  0  0  0  0
  189.2550  177.4470  143.7420 O   0  0  0  0  0  0  0  0  0  0  0  0
  191.0470  175.7980  145.6020 C   0  0  2  0  0  3  0  0  0  0  0  0
  189.8870  176.6390  145.8570 N   0  0  0  0  0  0  0  0  0  0  0  0
  192.1060  176.4310  146.4640 C   0  0  2  0  0  3  0  0  0  0  0  0
  184.8000  177.7440  146.0050 C   0  0  0  0  0  3  0  0  0  0  0  0
  185.3660  178.5020  144.9750 C   0  0  0  0  0  0  0  0  0  0  0  0
  186.9080  176.6330  146.3310 C   0  0  0  0  0  3  0  0  0  0  0  0
  185.5830  176.8200  146.7020 C   0  0  0  0  0  3  0  0  0  0  0  0
  184.5730  179.4340  144.2610 N   0  0  0  0  0  1  0  0  0  0  0  0
  187.4970  177.3680  145.2910 C   0  0  0  0  0  0  0  0  0  0  0  0
  186.7010  178.3270  144.6300 C   0  0  0  0  0  3  0  0  0  0  0  0
  194.6420  176.5930  146.0760 C   0  0  0  0  0  1  0  0  0  0  0  0
  193.4930  175.7680  146.6120 C   0  0  0  0  0  2  0  0  0  0  0  0
  192.1390  173.3400  144.6650 C   0  0  0  0  0  2  0  0  0  0  0  0
  193.4260  172.8820  144.9400 O   0  0  0  0  0  0  0  0  0  0  0  0
  193.3080  171.4670  144.7550 C   0  0  0  0  0  2  0  0  0  0  0  0
  194.6140  170.8030  144.7640 C   0  0  0  0  0  2  0  0  0  0  0  0
  194.9110  170.2800  146.0890 N   0  0  0  0  0  2  0  0  0  0  0  0
  194.9170  168.5270  147.8430 N   0  0  0  0  0  1  0  0  0  0  0  0
  194.5230  168.9930  146.5460 C   0  0  0  0  0  0  0  0  0  0  0  0
  193.8740  168.1750  145.7960 O   0  0  0  0  0  0  0  0  0  0  0  0
  1 26  1  1  0  0  0
  1 43  1  0  0  0  0
  2  1  1  0  0  0  0
  3  2  1  0  0  0  0
  4  3  1  0  0  0  0
  5  9  1  6  0  0  0
  5  6  1  0  0  0  0
  5  4  1  0  0  0  0
  6  8  1  0  0  0  0
  7  6  2  0  0  0  0
 10  9  1  0  0  0  0
 11 23  1  0  0  0  0
 11 14  1  0  0  0  0
 12 21  1  0  0  0  0
 12 13  2  0  0  0  0
 14 19  1  6  0  0  0
 14 21  1  0  0  0  0
 15 24  1  0  0  0  0
 15 18  1  0  0  0  0
 17 10  1  0  0  0  0
 17 11  2  0  0  0  0
 21 15  2  0  0  0  0
 22 16  1  1  0  0  0
 22 12  1  0  0  0  0
 23 20  1  6  0  0  0
 23 22  1  0  0  0  0
 23 14  1  0  0  0  0
 24 25  1  0  0  0  0
 27 29  1  0  0  0  0
 28 39  1  0  0  0  0
 28 32  1  0  0  0  0
 30 28  2  0  0  0  0
 31 26  1  6  0  0  0
 31 32  1  0  0  0  0
 31 33  1  0  0  0  0
 32 27  1  0  0  0  0
 33 42  1  1  0  0  0
 33 29  1  0  0  0  0
 34 37  1  0  0  0  0
 35 34  2  0  0  0  0
 36 37  2  0  0  0  0
 38 35  1  0  0  0  0
 39 36  1  0  0  0  0
 40 35  1  0  0  0  0
 40 39  2  0  0  0  0
 41 42  1  0  0  0  0
 43 44  1  0  0  0  0
 45 46  1  0  0  0  0
 45 44  1  0  0  0  0
 46 47  1  0  0  0  0
 47 49  1  0  0  0  0
 49 48  1  0  0  0  0
 50 49  2  0  0  0  0
M  END
>  <MODEL>
6

>  <REMARK>
 VINA RESULT:      -5.9      3.321      8.369
  Name = 
  18 active torsions:
  status: ('A' for Active; 'I' for Inactive)
    1  A    between atoms: C_2  and  C_22
    2  A    between atoms: C_2  and  O_45
    3  A    between atoms: C_5  and  C_22
    4  A    between atoms: C_5  and  C_31
    5  A    between atoms: C_6  and  C_21
    6  A    between atoms: C_6  and  N_28
    7  A    between atoms: C_8  and  C_13
    8  A    between atoms: C_9  and  C_11
    9  A    between atoms: C_9  and  C_23
   10  A    between atoms: C_11  and  C_18
   11  A    between atoms: C_11  and  C_32
   12  A    between atoms: C_15  and  C_23
   13  A    between atoms: C_17  and  C_18
   14  A    between atoms: C_17  and  O_46
   15  A    between atoms: C_19  and  C_42
   16  A    between atoms: C_21  and  O_45
   17  A    between atoms: C_22  and  O_46
   18  A    between atoms: C_38  and  C_50
                            x       y       z     vdW  Elec       q    Type
                         _______ _______ _______ _____ _____    ______ ____

>  <TORSDO>
F 18

$$$$
=
 OpenBabel11062419223D

 50 53  0  0  1  0  0  0  0  0999 V2000
  191.1160  175.5630  142.5410 C   0  0  2  0  0  3  0  0  0  0  0  0
  191.7880  174.4510  142.2200 O   0  0  0  0  0  0  0  0  0  0  0  0
  193.1430  174.8980  142.1290 C   0  0  0  0  0  2  0  0  0  0  0  0
  194.0380  173.7410  142.1880 C   0  0  0  0  0  2  0  0  0  0  0  0
  195.4550  174.0600  141.7620 C   0  0  1  0  0  3  0  0  0  0  0  0
  196.4600  174.0070  142.8920 C   0  0  0  0  0  0  0  0  0  0  0  0
  197.3950  175.0200  143.1500 O   0  0  0  0  0  0  0  0  0  0  0  0
  196.3350  173.0630  143.7610 O   0  0  0  0  0  1  0  0  0  0  0  0
  195.8600  173.0600  140.6780 C   0  0  0  0  0  2  0  0  0  0  0  0
  194.9070  173.0860  139.4330 C   0  0  0  0  0  2  0  0  0  0  0  0
  193.0920  171.4630  138.8670 C   0  0  0  0  0  0  0  0  0  0  0  0
  190.7670  170.6900  140.7230 C   0  0  0  0  0  0  0  0  0  0  0  0
  190.4410  170.7530  142.0050 C   0  0  0  0  0  2  0  0  0  0  0  0
  191.5620  171.5720  138.6410 C   0  0  2  0  0  0  0  0  0  0  0  0
  189.6270  172.7060  139.8060 C   0  0  0  0  0  0  0  0  0  0  0  0
  191.5190  168.4420  140.2930 O   0  0  0  0  0  1  0  0  0  0  0  0
  194.3450  171.7430  139.1800 C   0  0  0  0  0  3  0  0  0  0  0  0
  188.6890  172.6520  140.8310 O   0  0  0  0  0  1  0  0  0  0  0  0
  191.1390  171.8520  137.2050 C   0  0  0  0  0  1  0  0  0  0  0  0
  192.3080  169.3970  137.7410 F   0  0  0  0  0  0  0  0  0  0  0  0
  190.5630  171.7780  139.7460 C   0  0  0  0  0  0  0  0  0  0  0  0
  191.8340  169.7900  140.2160 C   0  0  1  0  0  3  0  0  0  0  0  0
  192.0970  170.2650  138.8130 C   0  0  1  0  0  0  0  0  0  0  0  0
  189.4950  173.7770  138.7630 C   0  0  0  0  0  2  0  0  0  0  0  0
  188.1700  173.9670  138.4010 O   0  0  0  0  0  1  0  0  0  0  0  0
  191.5770  176.2110  143.8980 C   0  0  0  0  0  2  0  0  0  0  0  0
  190.2510  175.9510  147.3630 C   0  0  0  0  0  2  0  0  0  0  0  0
  189.1710  177.2350  145.4640 C   0  0  0  0  0  0  0  0  0  0  0  0
  191.5310  175.1250  147.4800 C   0  0  0  0  0  2  0  0  0  0  0  0
  189.5960  178.0850  144.6060 O   0  0  0  0  0  0  0  0  0  0  0  0
  191.0960  175.4740  145.1730 C   0  0  2  0  0  3  0  0  0  0  0  0
  190.0740  176.1940  145.9190 N   0  0  0  0  0  0  0  0  0  0  0  0
  192.2300  175.3990  146.1610 C   0  0  2  0  0  3  0  0  0  0  0  0
  185.2050  177.7840  146.9550 C   0  0  0  0  0  3  0  0  0  0  0  0
  186.2450  178.5820  147.4420 C   0  0  0  0  0  0  0  0  0  0  0  0
  186.7700  176.6290  145.5390 C   0  0  0  0  0  3  0  0  0  0  0  0
  185.4740  176.7860  146.0130 C   0  0  0  0  0  3  0  0  0  0  0  0
  185.9740  179.5990  148.3900 N   0  0  0  0  0  1  0  0  0  0  0  0
  187.8290  177.4250  146.0000 C   0  0  0  0  0  0  0  0  0  0  0  0
  187.5430  178.3970  146.9820 C   0  0  0  0  0  3  0  0  0  0  0  0
  194.7880  175.3680  145.9120 C   0  0  0  0  0  1  0  0  0  0  0  0
  193.4980  174.5810  145.8340 C   0  0  0  0  0  2  0  0  0  0  0  0
  189.5940  175.4110  142.4140 C   0  0  0  0  0  2  0  0  0  0  0  0
  188.9340  176.5880  142.0640 O   0  0  0  0  0  0  0  0  0  0  0  0
  187.7760  176.1110  141.3710 C   0  0  0  0  0  2  0  0  0  0  0  0
  187.0010  177.2080  140.7840 C   0  0  0  0  0  2  0  0  0  0  0  0
  186.8520  178.2950  141.7390 N   0  0  0  0  0  2  0  0  0  0  0  0
  185.6970  179.5190  143.5600 N   0  0  0  0  0  1  0  0  0  0  0  0
  185.7330  178.4580  142.5980 C   0  0  0  0  0  0  0  0  0  0  0  0
  184.7530  177.6260  142.5980 O   0  0  0  0  0  0  0  0  0  0  0  0
  1 43  1  1  0  0  0
  1 26  1  0  0  0  0
  2  1  1  0  0  0  0
  3  4  1  0  0  0  0
  3  2  1  0  0  0  0
  5  9  1  6  0  0  0
  5  4  1  0  0  0  0
  5  6  1  0  0  0  0
  6  7  2  0  0  0  0
  6  8  1  0  0  0  0
 10  9  1  0  0  0  0
 11 17  2  0  0  0  0
 12 13  2  0  0  0  0
 14 19  1  6  0  0  0
 14 23  1  0  0  0  0
 14 11  1  0  0  0  0
 14 21  1  0  0  0  0
 15 18  1  0  0  0  0
 17 10  1  0  0  0  0
 21 15  2  0  0  0  0
 21 12  1  0  0  0  0
 22 16  1  6  0  0  0
 22 12  1  0  0  0  0
 23 20  1  6  0  0  0
 23 11  1  0  0  0  0
 23 22  1  0  0  0  0
 24 15  1  0  0  0  0
 25 24  1  0  0  0  0
 27 29  1  0  0  0  0
 28 32  1  0  0  0  0
 28 39  1  0  0  0  0
 30 28  2  0  0  0  0
 31 26  1  6  0  0  0
 31 32  1  0  0  0  0
 31 33  1  0  0  0  0
 32 27  1  0  0  0  0
 33 42  1  6  0  0  0
 33 29  1  0  0  0  0
 34 35  1  0  0  0  0
 35 38  1  0  0  0  0
 36 39  2  0  0  0  0
 36 37  1  0  0  0  0
 37 34  2  0  0  0  0
 39 40  1  0  0  0  0
 40 35  2  0  0  0  0
 42 41  1  0  0  0  0
 44 43  1  0  0  0  0
 45 44  1  0  0  0  0
 46 45  1  0  0  0  0
 46 47  1  0  0  0  0
 47 49  1  0  0  0  0
 49 50  2  0  0  0  0
 49 48  1  0  0  0  0
M  END
>  <MODEL>
7

>  <REMARK>
 VINA RESULT:      -5.9      3.098      7.622
  Name = 
  18 active torsions:
  status: ('A' for Active; 'I' for Inactive)
    1  A    between atoms: C_2  and  C_22
    2  A    between atoms: C_2  and  O_45
    3  A    between atoms: C_5  and  C_22
    4  A    between atoms: C_5  and  C_31
    5  A    between atoms: C_6  and  C_21
    6  A    between atoms: C_6  and  N_28
    7  A    between atoms: C_8  and  C_13
    8  A    between atoms: C_9  and  C_11
    9  A    between atoms: C_9  and  C_23
   10  A    between atoms: C_11  and  C_18
   11  A    between atoms: C_11  and  C_32
   12  A    between atoms: C_15  and  C_23
   13  A    between atoms: C_17  and  C_18
   14  A    between atoms: C_17  and  O_46
   15  A    between atoms: C_19  and  C_42
   16  A    between atoms: C_21  and  O_45
   17  A    between atoms: C_22  and  O_46
   18  A    between atoms: C_38  and  C_50
                            x       y       z     vdW  Elec       q    Type
                         _______ _______ _______ _____ _____    ______ ____

>  <TORSDO>
F 18

$$$$
=
 OpenBabel11062419223D

 50 53  0  0  1  0  0  0  0  0999 V2000
  192.7010  173.4840  138.8040 C   0  0  2  0  0  3  0  0  0  0  0  0
  191.4510  173.9190  139.0060 O   0  0  0  0  0  0  0  0  0  0  0  0
  191.1310  173.4150  140.3040 C   0  0  0  0  0  2  0  0  0  0  0  0
  190.1870  172.3030  140.1710 C   0  0  0  0  0  2  0  0  0  0  0  0
  189.7310  171.7450  141.5030 C   0  0  1  0  0  3  0  0  0  0  0  0
  190.7350  170.8200  142.1550 C   0  0  0  0  0  0  0  0  0  0  0  0
  190.8170  169.4470  141.8860 O   0  0  0  0  0  0  0  0  0  0  0  0
  191.6710  171.3550  142.8630 O   0  0  0  0  0  1  0  0  0  0  0  0
  189.4480  172.9240  142.4360 C   0  0  0  0  0  2  0  0  0  0  0  0
  187.9760  173.4530  142.3270 C   0  0  0  0  0  2  0  0  0  0  0  0
  188.2850  175.9030  142.7200 C   0  0  0  0  0  0  0  0  0  0  0  0
  186.4530  177.6630  144.4490 C   0  0  0  0  0  0  0  0  0  0  0  0
  185.2380  177.6350  144.9770 C   0  0  0  0  0  2  0  0  0  0  0  0
  188.6240  176.7760  143.9560 C   0  0  2  0  0  0  0  0  0  0  0  0
  187.8570  176.9000  146.3610 C   0  0  0  0  0  0  0  0  0  0  0  0
  186.3350  179.0270  142.4680 O   0  0  0  0  0  1  0  0  0  0  0  0
  187.9640  174.8810  141.9460 C   0  0  0  0  0  3  0  0  0  0  0  0
  186.9040  177.3700  147.2590 O   0  0  0  0  0  1  0  0  0  0  0  0
  190.1100  177.0090  144.1950 C   0  0  0  0  0  1  0  0  0  0  0  0
  188.9790  178.1500  141.9370 F   0  0  0  0  0  0  0  0  0  0  0  0
  187.6540  177.0680  145.0680 C   0  0  0  0  0  0  0  0  0  0  0  0
  186.6840  177.7900  142.9880 C   0  0  1  0  0  3  0  0  0  0  0  0
  188.1380  177.4520  142.8030 C   0  0  1  0  0  0  0  0  0  0  0  0
  189.1140  176.2840  146.9000 C   0  0  0  0  0  2  0  0  0  0  0  0
  188.9690  174.9180  147.0820 O   0  0  0  0  0  1  0  0  0  0  0  0
  193.7980  174.3730  139.4960 C   0  0  0  0  0  2  0  0  0  0  0  0
  196.0020  174.0940  142.4780 C   0  0  0  0  0  2  0  0  0  0  0  0
  193.7040  175.1610  142.4390 C   0  0  0  0  0  0  0  0  0  0  0  0
  196.8740  173.4340  141.4120 C   0  0  0  0  0  2  0  0  0  0  0  0
  193.1320  176.0210  141.6820 O   0  0  0  0  0  0  0  0  0  0  0  0
  194.6780  173.6350  140.5370 C   0  0  2  0  0  3  0  0  0  0  0  0
  194.6760  174.2560  141.8540 N   0  0  0  0  0  0  0  0  0  0  0  0
  196.1230  173.7370  140.1280 C   0  0  2  0  0  3  0  0  0  0  0  0
  192.7510  175.2860  146.6020 C   0  0  0  0  0  3  0  0  0  0  0  0
  193.6300  176.2320  146.0630 C   0  0  0  0  0  0  0  0  0  0  0  0
  192.5410  174.2650  144.4340 C   0  0  0  0  0  3  0  0  0  0  0  0
  192.2210  174.2830  145.7850 C   0  0  0  0  0  3  0  0  0  0  0  0
  194.1630  177.2550  146.8860 N   0  0  0  0  0  1  0  0  0  0  0  0
  193.4080  175.2090  143.8650 C   0  0  0  0  0  0  0  0  0  0  0  0
  193.9660  176.1870  144.7150 C   0  0  0  0  0  3  0  0  0  0  0  0
  196.2320  171.6080  138.6920 C   0  0  0  0  0  1  0  0  0  0  0  0
  196.6170  173.0660  138.8290 C   0  0  0  0  0  2  0  0  0  0  0  0
  193.0020  173.1630  137.3330 C   0  0  0  0  0  2  0  0  0  0  0  0
  192.2170  172.1390  136.8050 O   0  0  0  0  0  0  0  0  0  0  0  0
  191.6170  172.7550  135.6610 C   0  0  0  0  0  2  0  0  0  0  0  0
  190.2190  172.3510  135.4930 C   0  0  0  0  0  2  0  0  0  0  0  0
  189.4240  172.7790  136.6350 N   0  0  0  0  0  2  0  0  0  0  0  0
  188.0950  174.4190  137.9350 N   0  0  0  0  0  1  0  0  0  0  0  0
  188.9300  174.0980  136.8160 C   0  0  0  0  0  0  0  0  0  0  0  0
  189.1480  175.0270  135.9550 O   0  0  0  0  0  0  0  0  0  0  0  0
  1 43  1  6  0  0  0
  1  2  1  0  0  0  0
  1 26  1  0  0  0  0
  2  3  1  0  0  0  0
  4  3  1  0  0  0  0
  5  4  1  6  0  0  0
  5  6  1  0  0  0  0
  5  9  1  0  0  0  0
  6  8  1  0  0  0  0
  7  6  2  0  0  0  0
 10  9  1  0  0  0  0
 11 23  1  0  0  0  0
 11 14  1  0  0  0  0
 12 13  2  0  0  0  0
 12 21  1  0  0  0  0
 14 19  1  1  0  0  0
 14 21  1  0  0  0  0
 15 24  1  0  0  0  0
 15 18  1  0  0  0  0
 17 10  1  0  0  0  0
 17 11  2  0  0  0  0
 21 15  2  0  0  0  0
 22 16  1  1  0  0  0
 22 12  1  0  0  0  0
 23 20  1  6  0  0  0
 23 22  1  0  0  0  0
 23 14  1  0  0  0  0
 24 25  1  0  0  0  0
 28 39  1  0  0  0  0
 29 27  1  0  0  0  0
 30 28  2  0  0  0  0
 31 26  1  6  0  0  0
 31 32  1  0  0  0  0
 32 28  1  0  0  0  0
 32 27  1  0  0  0  0
 33 42  1  6  0  0  0
 33 31  1  0  0  0  0
 33 29  1  0  0  0  0
 35 34  1  0  0  0  0
 35 38  1  0  0  0  0
 36 37  1  0  0  0  0
 37 34  2  0  0  0  0
 39 36  2  0  0  0  0
 39 40  1  0  0  0  0
 40 35  2  0  0  0  0
 41 42  1  0  0  0  0
 44 43  1  0  0  0  0
 45 44  1  0  0  0  0
 46 45  1  0  0  0  0
 46 47  1  0  0  0  0
 47 49  1  0  0  0  0
 49 48  1  0  0  0  0
 50 49  2  0  0  0  0
M  END
>  <MODEL>
8

>  <REMARK>
 VINA RESULT:      -5.9      1.695      2.161
  Name = 
  18 active torsions:
  status: ('A' for Active; 'I' for Inactive)
    1  A    between atoms: C_2  and  C_22
    2  A    between atoms: C_2  and  O_45
    3  A    between atoms: C_5  and  C_22
    4  A    between atoms: C_5  and  C_31
    5  A    between atoms: C_6  and  C_21
    6  A    between atoms: C_6  and  N_28
    7  A    between atoms: C_8  and  C_13
    8  A    between atoms: C_9  and  C_11
    9  A    between atoms: C_9  and  C_23
   10  A    between atoms: C_11  and  C_18
   11  A    between atoms: C_11  and  C_32
   12  A    between atoms: C_15  and  C_23
   13  A    between atoms: C_17  and  C_18
   14  A    between atoms: C_17  and  O_46
   15  A    between atoms: C_19  and  C_42
   16  A    between atoms: C_21  and  O_45
   17  A    between atoms: C_22  and  O_46
   18  A    between atoms: C_38  and  C_50
                            x       y       z     vdW  Elec       q    Type
                         _______ _______ _______ _____ _____    ______ ____

>  <TORSDO>
F 18

$$$$
=
 OpenBabel11062419223D

 50 53  0  0  1  0  0  0  0  0999 V2000
  191.1820  175.0730  143.0540 C   0  0  2  0  0  3  0  0  0  0  0  0
  192.3330  174.4590  143.3530 O   0  0  0  0  0  0  0  0  0  0  0  0
  193.2890  175.1310  142.5290 C   0  0  0  0  0  2  0  0  0  0  0  0
  194.2970  175.7660  143.3800 C   0  0  0  0  0  2  0  0  0  0  0  0
  195.6010  174.9970  143.4350 C   0  0  1  0  0  3  0  0  0  0  0  0
  196.7130  175.6210  142.6210 C   0  0  0  0  0  0  0  0  0  0  0  0
  197.1820  175.0920  141.4110 O   0  0  0  0  0  0  0  0  0  0  0  0
  197.1320  176.7890  142.9740 O   0  0  0  0  0  1  0  0  0  0  0  0
  196.0350  174.9080  144.8990 C   0  0  0  0  0  2  0  0  0  0  0  0
  197.3730  174.1140  145.0950 C   0  0  0  0  0  2  0  0  0  0  0  0
  196.6300  171.7910  144.5450 C   0  0  0  0  0  0  0  0  0  0  0  0
  193.7210  170.9340  144.0480 C   0  0  0  0  0  0  0  0  0  0  0  0
  192.4910  171.3770  144.2630 C   0  0  0  0  0  2  0  0  0  0  0  0
  195.9920  171.1140  143.3040 C   0  0  2  0  0  0  0  0  0  0  0  0
  194.1190  171.6580  141.6970 C   0  0  0  0  0  0  0  0  0  0  0  0
  194.1910  169.2930  145.7480 O   0  0  0  0  0  1  0  0  0  0  0  0
  197.0960  172.6920  145.3910 C   0  0  0  0  0  3  0  0  0  0  0  0
  192.7510  171.6320  141.4490 O   0  0  0  0  0  1  0  0  0  0  0  0
  196.9830  170.5520  142.2940 C   0  0  0  0  0  1  0  0  0  0  0  0
  196.8570  169.3330  144.7790 F   0  0  0  0  0  0  0  0  0  0  0  0
  194.5590  171.3030  142.8890 C   0  0  0  0  0  0  0  0  0  0  0  0
  194.6050  170.4730  145.1470 C   0  0  1  0  0  3  0  0  0  0  0  0
  195.9700  170.3790  144.5230 C   0  0  1  0  0  0  0  0  0  0  0  0
  195.0500  172.0160  140.5760 C   0  0  0  0  0  2  0  0  0  0  0  0
  194.8800  171.1710  139.4900 O   0  0  0  0  0  1  0  0  0  0  0  0
  190.9640  176.4220  143.8330 C   0  0  0  0  0  2  0  0  0  0  0  0
  189.1960  177.5870  146.8900 C   0  0  0  0  0  2  0  0  0  0  0  0
  188.3670  177.8670  144.5120 C   0  0  0  0  0  0  0  0  0  0  0  0
  190.4530  176.9700  147.5010 C   0  0  0  0  0  2  0  0  0  0  0  0
  188.8970  178.2930  143.4270 O   0  0  0  0  0  0  0  0  0  0  0  0
  190.3240  176.2730  145.2370 C   0  0  2  0  0  3  0  0  0  0  0  0
  189.2090  177.1780  145.4730 N   0  0  0  0  0  0  0  0  0  0  0  0
  191.3180  176.6970  146.2840 C   0  0  2  0  0  3  0  0  0  0  0  0
  184.2790  178.8860  145.2190 C   0  0  0  0  0  3  0  0  0  0  0  0
  184.8600  177.8230  145.9190 C   0  0  0  0  0  0  0  0  0  0  0  0
  186.3550  179.2380  144.0560 C   0  0  0  0  0  3  0  0  0  0  0  0
  185.0270  179.5840  144.2650 C   0  0  0  0  0  3  0  0  0  0  0  0
  184.1080  177.1190  146.8910 N   0  0  0  0  0  1  0  0  0  0  0  0
  186.9660  178.1850  144.7530 C   0  0  0  0  0  0  0  0  0  0  0  0
  186.1820  177.4670  145.6800 C   0  0  0  0  0  3  0  0  0  0  0  0
  193.8170  176.7390  146.8870 C   0  0  0  0  0  1  0  0  0  0  0  0
  192.6230  175.8970  146.4930 C   0  0  0  0  0  2  0  0  0  0  0  0
  189.9660  174.1360  143.0890 C   0  0  0  0  0  2  0  0  0  0  0  0
  189.8840  173.2750  141.9960 O   0  0  0  0  0  0  0  0  0  0  0  0
  188.7110  173.7330  141.3150 C   0  0  0  0  0  2  0  0  0  0  0  0
  188.0780  174.8550  142.0130 C   0  0  0  0  0  2  0  0  0  0  0  0
  187.8160  175.9480  141.0890 N   0  0  0  0  0  2  0  0  0  0  0  0
  186.5510  177.9160  140.2660 N   0  0  0  0  0  1  0  0  0  0  0  0
  186.6980  176.8190  141.1760 C   0  0  0  0  0  0  0  0  0  0  0  0
  185.8230  176.7050  142.1110 O   0  0  0  0  0  0  0  0  0  0  0  0
  1 43  1  1  0  0  0
  1  2  1  0  0  0  0
  1 26  1  0  0  0  0
  3  2  1  0  0  0  0
  3  4  1  0  0  0  0
  5  4  1  1  0  0  0
  5  9  1  0  0  0  0
  6  8  1  0  0  0  0
  6  5  1  0  0  0  0
  7  6  2  0  0  0  0
  9 10  1  0  0  0  0
 10 17  1  0  0  0  0
 11 17  2  0  0  0  0
 12 13  2  0  0  0  0
 12 22  1  0  0  0  0
 14 19  1  6  0  0  0
 14 23  1  0  0  0  0
 14 11  1  0  0  0  0
 15 21  2  0  0  0  0
 18 15  1  0  0  0  0
 21 14  1  0  0  0  0
 21 12  1  0  0  0  0
 22 16  1  6  0  0  0
 23 11  1  0  0  0  0
 23 20  1  1  0  0  0
 23 22  1  0  0  0  0
 24 15  1  0  0  0  0
 25 24  1  0  0  0  0
 27 29  1  0  0  0  0
 28 39  1  0  0  0  0
 28 32  1  0  0  0  0
 30 28  2  0  0  0  0
 31 26  1  6  0  0  0
 31 32  1  0  0  0  0
 31 33  1  0  0  0  0
 32 27  1  0  0  0  0
 33 42  1  1  0  0  0
 33 29  1  0  0  0  0
 34 35  1  0  0  0  0
 35 38  1  0  0  0  0
 36 37  1  0  0  0  0
 36 39  2  0  0  0  0
 37 34  2  0  0  0  0
 39 40  1  0  0  0  0
 40 35  2  0  0  0  0
 42 41  1  0  0  0  0
 44 43  1  0  0  0  0
 45 44  1  0  0  0  0
 45 46  1  0  0  0  0
 47 49  1  0  0  0  0
 47 46  1  0  0  0  0
 48 49  1  0  0  0  0
 49 50  2  0  0  0  0
M  END
>  <MODEL>
9

>  <REMARK>
 VINA RESULT:      -5.9      3.540      8.413
  Name = 
  18 active torsions:
  status: ('A' for Active; 'I' for Inactive)
    1  A    between atoms: C_2  and  C_22
    2  A    between atoms: C_2  and  O_45
    3  A    between atoms: C_5  and  C_22
    4  A    between atoms: C_5  and  C_31
    5  A    between atoms: C_6  and  C_21
    6  A    between atoms: C_6  and  N_28
    7  A    between atoms: C_8  and  C_13
    8  A    between atoms: C_9  and  C_11
    9  A    between atoms: C_9  and  C_23
   10  A    between atoms: C_11  and  C_18
   11  A    between atoms: C_11  and  C_32
   12  A    between atoms: C_15  and  C_23
   13  A    between atoms: C_17  and  C_18
   14  A    between atoms: C_17  and  O_46
   15  A    between atoms: C_19  and  C_42
   16  A    between atoms: C_21  and  O_45
   17  A    between atoms: C_22  and  O_46
   18  A    between atoms: C_38  and  C_50
                            x       y       z     vdW  Elec       q    Type
                         _______ _______ _______ _____ _____    ______ ____

>  <TORSDO>
F 18

$$$$
