=
 OpenBabel11062420043D

 42 46  0  0  1  0  0  0  0  0999 V2000
  190.5080  176.9930  143.1430 O   0  0  0  0  0  0  0  0  0  0  0  0
  189.5300  172.8290  144.0790 C   0  0  0  0  0  1  0  0  0  0  0  0
  189.8680  174.2380  143.6970 C   0  0  0  0  0  0  0  0  0  0  0  0
  190.8480  176.4640  144.2350 C   0  0  0  0  0  0  0  0  0  0  0  0
  191.5890  177.2870  145.2430 C   0  0  0  0  0  2  0  0  0  0  0  0
  191.2040  176.9120  146.5680 O   0  0  0  0  0  0  0  0  0  0  0  0
  191.0370  174.5000  145.8700 C   0  0  2  0  0  3  0  0  0  0  0  0
  190.5380  175.0400  144.5510 C   0  0  0  0  0  0  0  0  0  0  0  0
  190.8000  175.2670  148.1270 O   0  0  0  0  0  0  0  0  0  0  0  0
  191.0080  175.5720  146.9220 C   0  0  0  0  0  0  0  0  0  0  0  0
  193.5450  173.6340  145.5530 C   0  0  0  0  0  0  0  0  0  0  0  0
  192.4080  174.0060  145.7050 C   0  0  0  0  0  0  0  0  0  0  0  0
  197.5630  172.3870  145.0300 C   0  0  0  0  0  3  0  0  0  0  0  0
  195.2280  171.8790  145.3970 C   0  0  0  0  0  3  0  0  0  0  0  0
  197.2530  173.7490  144.9670 C   0  0  0  0  0  3  0  0  0  0  0  0
  196.5530  171.4470  145.2360 C   0  0  0  0  0  3  0  0  0  0  0  0
  195.9260  174.1880  145.0950 C   0  0  0  0  0  0  0  0  0  0  0  0
  194.9080  173.2420  145.3360 C   0  0  0  0  0  0  0  0  0  0  0  0
  195.6140  175.6540  144.9750 C   0  0  0  0  0  2  0  0  0  0  0  0
  196.5950  176.6150  142.9560 C   0  0  0  0  0  3  0  0  0  0  0  0
  194.0450  175.6670  142.5710 S   0  0  0  0  0  0  0  0  0  0  0  0
  196.3010  175.4460  140.9240 N   0  0  0  0  0  0  0  0  0  0  0  0
  196.5990  176.7670  141.4760 C   0  0  0  0  0  2  0  0  0  0  0  0
  194.8580  175.1830  140.9770 C   0  0  0  0  0  2  0  0  0  0  0  0
  195.5270  176.0690  143.5370 C   0  0  0  0  0  0  0  0  0  0  0  0
  196.7810  175.3060  139.5420 C   0  0  0  0  0  3  0  0  0  0  0  0
  197.9410  174.3210  139.3990 C   0  0  0  0  0  1  0  0  0  0  0  0
  195.6390  174.9200  138.6150 C   0  0  0  0  0  1  0  0  0  0  0  0
  189.4840  174.7250  142.4400 O   0  0  0  0  0  0  0  0  0  0  0  0
  187.1470  176.4840  142.1200 C   0  0  0  0  0  0  0  0  0  0  0  0
  188.2980  174.3370  141.7500 C   0  0  2  0  0  3  0  0  0  0  0  0
  187.4610  175.8420  139.8280 C   0  0  0  0  0  2  0  0  0  0  0  0
  188.4230  174.7220  140.2590 C   0  0  0  0  0  2  0  0  0  0  0  0
  187.3460  176.8480  140.8860 N   0  0  0  0  0  0  0  0  0  0  0  0
  187.1020  175.0160  142.4320 C   0  0  0  0  0  2  0  0  0  0  0  0
  187.1310  177.4810  143.1490 N   0  0  0  0  0  2  0  0  0  0  0  0
  187.8210  177.1110  145.5170 C   0  0  0  0  0  3  0  0  0  0  0  0
  186.1260  176.8960  147.2320 C   0  0  0  0  0  3  0  0  0  0  0  0
  185.4800  177.2600  144.9260 C   0  0  0  0  0  3  0  0  0  0  0  0
  186.8230  177.2890  144.5420 C   0  0  0  0  0  0  0  0  0  0  0  0
  187.4720  176.9170  146.8570 C   0  0  0  0  0  3  0  0  0  0  0  0
  185.1310  177.0680  146.2640 C   0  0  0  0  0  3  0  0  0  0  0  0
  1  4  2  0  0  0  0
  3  2  1  0  0  0  0
  3  8  2  0  0  0  0
  4  8  1  0  0  0  0
  4  5  1  0  0  0  0
  5  6  1  0  0  0  0
  6 10  1  0  0  0  0
  7 12  1  6  0  0  0
  7 10  1  0  0  0  0
  8  7  1  0  0  0  0
 10  9  2  0  0  0  0
 11 12  3  0  0  0  0
 13 16  1  0  0  0  0
 15 13  2  0  0  0  0
 15 17  1  0  0  0  0
 16 14  2  0  0  0  0
 17 18  2  0  0  0  0
 18 14  1  0  0  0  0
 18 11  1  0  0  0  0
 19 17  1  0  0  0  0
 20 25  2  0  0  0  0
 21 25  1  0  0  0  0
 22 24  1  0  0  0  0
 22 23  1  0  0  0  0
 23 20  1  0  0  0  0
 24 21  1  0  0  0  0
 25 19  1  0  0  0  0
 26 22  1  0  0  0  0
 27 26  1  0  0  0  0
 28 26  1  0  0  0  0
 29  3  1  0  0  0  0
 30 35  1  0  0  0  0
 30 36  1  0  0  0  0
 31 35  1  0  0  0  0
 31 29  1  1  0  0  0
 32 33  1  0  0  0  0
 32 34  1  0  0  0  0
 33 31  1  0  0  0  0
 34 30  2  0  0  0  0
 36 40  1  0  0  0  0
 37 41  1  0  0  0  0
 39 42  2  0  0  0  0
 40 39  1  0  0  0  0
 40 37  2  0  0  0  0
 41 38  2  0  0  0  0
 42 38  1  0  0  0  0
M  END
>  <MODEL>
1

>  <REMARK>
 VINA RESULT:      -8.2      0.000      0.000
  Name = 
  8 active torsions:
  status: ('A' for Active; 'I' for Inactive)
    1  A    between atoms: C_3  and  N_30
    2  A    between atoms: O_4  and  C_11
    3  A    between atoms: O_4  and  C_22
    4  A    between atoms: C_7  and  C_29
    5  A    between atoms: C_12  and  C_28
    6  A    between atoms: C_12  and  C_42
    7  A    between atoms: C_14  and  C_26
    8  A    between atoms: C_32  and  N_38
                            x       y       z     vdW  Elec       q    Type
                         _______ _______ _______ _____ _____    ______ ____

>  <TORSDO>
F 8

$$$$
=
 OpenBabel11062420043D

 42 46  0  0  1  0  0  0  0  0999 V2000
  191.2300  176.3750  142.6840 O   0  0  0  0  0  0  0  0  0  0  0  0
  189.6860  172.6290  144.3440 C   0  0  0  0  0  1  0  0  0  0  0  0
  190.2130  173.8840  143.7170 C   0  0  0  0  0  0  0  0  0  0  0  0
  191.5210  176.0000  143.8500 C   0  0  0  0  0  0  0  0  0  0  0  0
  192.4020  176.8670  144.6950 C   0  0  0  0  0  2  0  0  0  0  0  0
  192.0050  176.7910  146.0670 O   0  0  0  0  0  0  0  0  0  0  0  0
  191.4700  174.3460  145.8070 C   0  0  2  0  0  3  0  0  0  0  0  0
  191.0170  174.7150  144.4140 C   0  0  0  0  0  0  0  0  0  0  0  0
  191.4120  175.5210  147.8930 O   0  0  0  0  0  0  0  0  0  0  0  0
  191.6270  175.5770  146.6520 C   0  0  0  0  0  0  0  0  0  0  0  0
  193.7820  173.0150  145.6560 C   0  0  0  0  0  0  0  0  0  0  0  0
  192.7490  173.6340  145.7280 C   0  0  0  0  0  0  0  0  0  0  0  0
  197.2680  170.6070  145.5180 C   0  0  0  0  0  3  0  0  0  0  0  0
  194.8680  170.8340  145.6970 C   0  0  0  0  0  3  0  0  0  0  0  0
  197.3860  171.9940  145.3880 C   0  0  0  0  0  3  0  0  0  0  0  0
  196.0100  170.0200  145.6640 C   0  0  0  0  0  3  0  0  0  0  0  0
  196.2470  172.8130  145.3890 C   0  0  0  0  0  0  0  0  0  0  0  0
  194.9770  172.2250  145.5680 C   0  0  0  0  0  0  0  0  0  0  0  0
  196.3980  174.2960  145.1980 C   0  0  0  0  0  2  0  0  0  0  0  0
  196.1280  173.7000  142.8450 C   0  0  0  0  0  3  0  0  0  0  0  0
  196.1930  176.4140  143.2720 S   0  0  0  0  0  0  0  0  0  0  0  0
  194.5440  174.9110  141.5770 N   0  0  0  0  0  0  0  0  0  0  0  0
  195.7430  174.0810  141.4600 C   0  0  0  0  0  2  0  0  0  0  0  0
  194.9080  176.2860  141.9420 C   0  0  0  0  0  2  0  0  0  0  0  0
  196.2870  174.6670  143.7500 C   0  0  0  0  0  0  0  0  0  0  0  0
  193.7560  174.9180  140.3370 C   0  0  0  0  0  3  0  0  0  0  0  0
  194.6100  174.8230  139.0730 C   0  0  0  0  0  1  0  0  0  0  0  0
  192.7140  173.8090  140.3590 C   0  0  0  0  0  1  0  0  0  0  0  0
  189.8680  174.1960  142.3950 O   0  0  0  0  0  0  0  0  0  0  0  0
  187.5410  175.9440  141.9630 C   0  0  0  0  0  0  0  0  0  0  0  0
  188.6720  173.7650  141.7490 C   0  0  2  0  0  3  0  0  0  0  0  0
  187.8270  175.1250  139.7240 C   0  0  0  0  0  2  0  0  0  0  0  0
  188.7840  174.0330  140.2310 C   0  0  0  0  0  2  0  0  0  0  0  0
  187.7290  176.2100  140.7020 N   0  0  0  0  0  0  0  0  0  0  0  0
  187.4880  174.5050  142.3880 C   0  0  0  0  0  2  0  0  0  0  0  0
  187.5430  177.0180  142.9120 N   0  0  0  0  0  2  0  0  0  0  0  0
  185.9310  176.8580  144.8090 C   0  0  0  0  0  3  0  0  0  0  0  0
  186.7670  176.8040  147.0800 C   0  0  0  0  0  3  0  0  0  0  0  0
  188.3130  176.9550  145.2220 C   0  0  0  0  0  3  0  0  0  0  0  0
  187.2470  176.9360  144.3180 C   0  0  0  0  0  0  0  0  0  0  0  0
  185.6940  176.7910  146.1850 C   0  0  0  0  0  3  0  0  0  0  0  0
  188.0760  176.8860  146.5950 C   0  0  0  0  0  3  0  0  0  0  0  0
  1  4  2  0  0  0  0
  3  2  1  0  0  0  0
  3  8  2  0  0  0  0
  4  8  1  0  0  0  0
  4  5  1  0  0  0  0
  5  6  1  0  0  0  0
  6 10  1  0  0  0  0
  7 12  1  6  0  0  0
  7 10  1  0  0  0  0
  8  7  1  0  0  0  0
 10  9  2  0  0  0  0
 11 12  3  0  0  0  0
 13 16  1  0  0  0  0
 15 17  1  0  0  0  0
 15 13  2  0  0  0  0
 16 14  2  0  0  0  0
 17 18  2  0  0  0  0
 18 11  1  0  0  0  0
 18 14  1  0  0  0  0
 19 17  1  0  0  0  0
 20 25  2  0  0  0  0
 21 25  1  0  0  0  0
 22 24  1  0  0  0  0
 23 22  1  0  0  0  0
 23 20  1  0  0  0  0
 24 21  1  0  0  0  0
 25 19  1  0  0  0  0
 26 28  1  0  0  0  0
 26 22  1  0  0  0  0
 27 26  1  0  0  0  0
 29  3  1  0  0  0  0
 30 35  1  0  0  0  0
 30 36  1  0  0  0  0
 31 35  1  0  0  0  0
 31 29  1  1  0  0  0
 32 33  1  0  0  0  0
 32 34  1  0  0  0  0
 33 31  1  0  0  0  0
 34 30  2  0  0  0  0
 36 40  1  0  0  0  0
 37 41  1  0  0  0  0
 39 42  2  0  0  0  0
 40 37  2  0  0  0  0
 40 39  1  0  0  0  0
 41 38  2  0  0  0  0
 42 38  1  0  0  0  0
M  END
>  <MODEL>
2

>  <REMARK>
 VINA RESULT:      -8.1      1.156      1.673
  Name = 
  8 active torsions:
  status: ('A' for Active; 'I' for Inactive)
    1  A    between atoms: C_3  and  N_30
    2  A    between atoms: O_4  and  C_11
    3  A    between atoms: O_4  and  C_22
    4  A    between atoms: C_7  and  C_29
    5  A    between atoms: C_12  and  C_28
    6  A    between atoms: C_12  and  C_42
    7  A    between atoms: C_14  and  C_26
    8  A    between atoms: C_32  and  N_38
                            x       y       z     vdW  Elec       q    Type
                         _______ _______ _______ _____ _____    ______ ____

>  <TORSDO>
F 8

$$$$
=
 OpenBabel11062420043D

 42 46  0  0  1  0  0  0  0  0999 V2000
  189.6990  173.0780  144.6070 O   0  0  0  0  0  0  0  0  0  0  0  0
  191.0290  176.8220  142.7690 C   0  0  0  0  0  1  0  0  0  0  0  0
  190.5510  175.5220  143.3410 C   0  0  0  0  0  0  0  0  0  0  0  0
  189.7470  174.1530  145.2600 C   0  0  0  0  0  0  0  0  0  0  0  0
  189.3570  174.1450  146.7060 C   0  0  0  0  0  2  0  0  0  0  0  0
  190.1640  175.0680  147.4420 O   0  0  0  0  0  0  0  0  0  0  0  0
  190.1520  176.6720  145.5030 C   0  0  2  0  0  3  0  0  0  0  0  0
  190.1780  175.4370  144.6350 C   0  0  0  0  0  0  0  0  0  0  0  0
  191.0960  177.1630  147.6490 O   0  0  0  0  0  0  0  0  0  0  0  0
  190.4970  176.3250  146.9230 C   0  0  0  0  0  0  0  0  0  0  0  0
  187.7000  177.7310  145.4170 C   0  0  0  0  0  0  0  0  0  0  0  0
  188.8150  177.2720  145.4520 C   0  0  0  0  0  0  0  0  0  0  0  0
  183.6690  179.0430  145.3580 C   0  0  0  0  0  3  0  0  0  0  0  0
  185.5650  178.1060  146.5300 C   0  0  0  0  0  3  0  0  0  0  0  0
  184.4460  179.1580  144.2010 C   0  0  0  0  0  3  0  0  0  0  0  0
  184.2260  178.5260  146.5280 C   0  0  0  0  0  3  0  0  0  0  0  0
  185.7950  178.7710  144.2020 C   0  0  0  0  0  0  0  0  0  0  0  0
  186.3500  178.2180  145.3750 C   0  0  0  0  0  0  0  0  0  0  0  0
  186.6210  178.9510  142.9590 C   0  0  0  0  0  2  0  0  0  0  0  0
  185.7450  178.1750  140.8150 C   0  0  0  0  0  3  0  0  0  0  0  0
  186.9720  176.1880  142.2630 S   0  0  0  0  0  0  0  0  0  0  0  0
  187.1090  176.7450  139.5210 N   0  0  0  0  0  0  0  0  0  0  0  0
  185.7220  177.1600  139.7280 C   0  0  0  0  0  2  0  0  0  0  0  0
  187.5090  175.7670  140.5390 C   0  0  0  0  0  2  0  0  0  0  0  0
  186.3420  177.8620  141.9660 C   0  0  0  0  0  0  0  0  0  0  0  0
  187.3200  176.1810  138.1800 C   0  0  0  0  0  3  0  0  0  0  0  0
  187.8500  174.7470  138.2000 C   0  0  0  0  0  1  0  0  0  0  0  0
  186.0430  176.2650  137.3570 C   0  0  0  0  0  1  0  0  0  0  0  0
  190.4900  174.3860  142.5210 O   0  0  0  0  0  0  0  0  0  0  0  0
  192.7660  172.5230  142.4670 C   0  0  0  0  0  0  0  0  0  0  0  0
  191.3050  174.1750  141.3700 C   0  0  2  0  0  3  0  0  0  0  0  0
  191.5980  171.7580  140.5150 C   0  0  0  0  0  2  0  0  0  0  0  0
  190.7170  173.0180  140.5310 C   0  0  0  0  0  2  0  0  0  0  0  0
  192.1970  171.5390  141.8330 N   0  0  0  0  0  0  0  0  0  0  0  0
  192.7380  173.8870  141.8420 C   0  0  0  0  0  2  0  0  0  0  0  0
  193.2630  172.3050  143.7940 N   0  0  0  0  0  2  0  0  0  0  0  0
  195.4160  173.2140  144.6630 C   0  0  0  0  0  3  0  0  0  0  0  0
  195.3830  175.0550  146.2360 C   0  0  0  0  0  3  0  0  0  0  0  0
  193.3050  174.1570  145.3750 C   0  0  0  0  0  3  0  0  0  0  0  0
  194.0110  173.2290  144.6060 C   0  0  0  0  0  0  0  0  0  0  0  0
  196.0980  174.1260  145.4750 C   0  0  0  0  0  3  0  0  0  0  0  0
  193.9850  175.0680  146.1840 C   0  0  0  0  0  3  0  0  0  0  0  0
  1  4  2  0  0  0  0
  2  3  1  0  0  0  0
  3  8  2  0  0  0  0
  4  5  1  0  0  0  0
  5  6  1  0  0  0  0
  7 12  1  1  0  0  0
  7 10  1  0  0  0  0
  8  4  1  0  0  0  0
  8  7  1  0  0  0  0
 10  6  1  0  0  0  0
 10  9  2  0  0  0  0
 11 12  3  0  0  0  0
 13 16  1  0  0  0  0
 15 17  1  0  0  0  0
 15 13  2  0  0  0  0
 16 14  2  0  0  0  0
 17 18  2  0  0  0  0
 18 11  1  0  0  0  0
 18 14  1  0  0  0  0
 19 17  1  0  0  0  0
 20 25  2  0  0  0  0
 22 23  1  0  0  0  0
 22 24  1  0  0  0  0
 23 20  1  0  0  0  0
 24 21  1  0  0  0  0
 25 21  1  0  0  0  0
 25 19  1  0  0  0  0
 26 27  1  0  0  0  0
 26 22  1  0  0  0  0
 28 26  1  0  0  0  0
 29  3  1  0  0  0  0
 30 36  1  0  0  0  0
 31 35  1  0  0  0  0
 31 29  1  1  0  0  0
 32 33  1  0  0  0  0
 32 34  1  0  0  0  0
 33 31  1  0  0  0  0
 34 30  2  0  0  0  0
 35 30  1  0  0  0  0
 36 40  1  0  0  0  0
 37 41  1  0  0  0  0
 39 42  2  0  0  0  0
 40 37  2  0  0  0  0
 40 39  1  0  0  0  0
 41 38  2  0  0  0  0
 42 38  1  0  0  0  0
M  END
>  <MODEL>
3

>  <REMARK>
 VINA RESULT:      -7.9      2.613      8.140
  Name = 
  8 active torsions:
  status: ('A' for Active; 'I' for Inactive)
    1  A    between atoms: C_3  and  N_30
    2  A    between atoms: O_4  and  C_11
    3  A    between atoms: O_4  and  C_22
    4  A    between atoms: C_7  and  C_29
    5  A    between atoms: C_12  and  C_28
    6  A    between atoms: C_12  and  C_42
    7  A    between atoms: C_14  and  C_26
    8  A    between atoms: C_32  and  N_38
                            x       y       z     vdW  Elec       q    Type
                         _______ _______ _______ _____ _____    ______ ____

>  <TORSDO>
F 8

$$$$
=
 OpenBabel11062420043D

 42 46  0  0  1  0  0  0  0  0999 V2000
  188.5420  174.6340  143.4050 O   0  0  0  0  0  0  0  0  0  0  0  0
  192.4910  176.4180  142.7750 C   0  0  0  0  0  1  0  0  0  0  0  0
  191.1390  175.8310  143.0500 C   0  0  0  0  0  0  0  0  0  0  0  0
  189.3890  174.1070  142.6370 C   0  0  0  0  0  0  0  0  0  0  0  0
  189.0290  172.8500  141.9080 C   0  0  0  0  0  2  0  0  0  0  0  0
  189.6310  172.8390  140.6110 O   0  0  0  0  0  0  0  0  0  0  0  0
  191.6940  173.9530  141.5260 C   0  0  2  0  0  3  0  0  0  0  0  0
  190.7440  174.6970  142.4340 C   0  0  0  0  0  0  0  0  0  0  0  0
  191.4870  173.1420  139.2820 O   0  0  0  0  0  0  0  0  0  0  0  0
  190.9410  173.2890  140.4090 C   0  0  0  0  0  0  0  0  0  0  0  0
  192.9980  172.1260  142.9770 C   0  0  0  0  0  0  0  0  0  0  0  0
  192.4170  172.9420  142.3040 C   0  0  0  0  0  0  0  0  0  0  0  0
  194.8970  169.2590  145.4550 C   0  0  0  0  0  3  0  0  0  0  0  0
  193.9210  169.9000  143.3380 C   0  0  0  0  0  3  0  0  0  0  0  0
  194.6560  170.5440  145.9510 C   0  0  0  0  0  3  0  0  0  0  0  0
  194.5400  168.9340  144.1460 C   0  0  0  0  0  3  0  0  0  0  0  0
  194.0670  171.5260  145.1410 C   0  0  0  0  0  0  0  0  0  0  0  0
  193.6750  171.1900  143.8280 C   0  0  0  0  0  0  0  0  0  0  0  0
  193.8630  172.9130  145.6830 C   0  0  0  0  0  2  0  0  0  0  0  0
  196.0720  173.2750  144.7050 C   0  0  0  0  0  3  0  0  0  0  0  0
  194.9440  175.5720  145.7050 S   0  0  0  0  0  0  0  0  0  0  0  0
  196.3680  175.1710  143.3260 N   0  0  0  0  0  0  0  0  0  0  0  0
  197.0930  174.2010  144.1460 C   0  0  0  0  0  2  0  0  0  0  0  0
  195.7680  176.2100  144.1720 C   0  0  0  0  0  2  0  0  0  0  0  0
  195.0330  173.7940  145.3600 C   0  0  0  0  0  0  0  0  0  0  0  0
  197.2340  175.7920  142.3140 C   0  0  0  0  0  3  0  0  0  0  0  0
  197.9410  174.7800  141.4140 C   0  0  0  0  0  1  0  0  0  0  0  0
  196.4460  176.7880  141.4760 C   0  0  0  0  0  1  0  0  0  0  0  0
  190.2800  176.4680  143.9570 O   0  0  0  0  0  0  0  0  0  0  0  0
  188.4580  176.4360  146.2670 C   0  0  0  0  0  0  0  0  0  0  0  0
  190.6590  176.9020  145.2610 C   0  0  2  0  0  3  0  0  0  0  0  0
  190.3210  175.2690  147.2310 C   0  0  0  0  0  2  0  0  0  0  0  0
  191.2170  175.7010  146.0590 C   0  0  0  0  0  2  0  0  0  0  0  0
  188.9090  175.3660  146.8550 N   0  0  0  0  0  0  0  0  0  0  0  0
  189.4300  177.5310  145.9340 C   0  0  0  0  0  2  0  0  0  0  0  0
  187.0950  176.4700  145.8250 N   0  0  0  0  0  2  0  0  0  0  0  0
  186.5740  177.9970  143.9240 C   0  0  0  0  0  3  0  0  0  0  0  0
  184.9930  179.8020  144.2460 C   0  0  0  0  0  3  0  0  0  0  0  0
  185.5120  178.3030  146.0760 C   0  0  0  0  0  3  0  0  0  0  0  0
  186.3910  177.5900  145.2580 C   0  0  0  0  0  0  0  0  0  0  0  0
  185.8750  179.0990  143.4210 C   0  0  0  0  0  3  0  0  0  0  0  0
  184.8130  179.4020  145.5740 C   0  0  0  0  0  3  0  0  0  0  0  0
  2  3  1  0  0  0  0
  3 29  1  0  0  0  0
  4  1  2  0  0  0  0
  5  4  1  0  0  0  0
  6  5  1  0  0  0  0
  7 12  1  1  0  0  0
  7  8  1  0  0  0  0
  8  4  1  0  0  0  0
  8  3  2  0  0  0  0
  9 10  2  0  0  0  0
 10  6  1  0  0  0  0
 10  7  1  0  0  0  0
 11 18  1  0  0  0  0
 12 11  3  0  0  0  0
 13 15  1  0  0  0  0
 14 18  2  0  0  0  0
 14 16  1  0  0  0  0
 16 13  2  0  0  0  0
 17 19  1  0  0  0  0
 17 15  2  0  0  0  0
 18 17  1  0  0  0  0
 20 25  2  0  0  0  0
 22 23  1  0  0  0  0
 22 24  1  0  0  0  0
 23 20  1  0  0  0  0
 24 21  1  0  0  0  0
 25 19  1  0  0  0  0
 25 21  1  0  0  0  0
 26 22  1  0  0  0  0
 27 26  1  0  0  0  0
 28 26  1  0  0  0  0
 30 34  2  0  0  0  0
 31 29  1  6  0  0  0
 31 35  1  0  0  0  0
 31 33  1  0  0  0  0
 33 32  1  0  0  0  0
 34 32  1  0  0  0  0
 35 30  1  0  0  0  0
 36 30  1  0  0  0  0
 37 40  1  0  0  0  0
 38 42  2  0  0  0  0
 40 36  1  0  0  0  0
 40 39  2  0  0  0  0
 41 37  2  0  0  0  0
 41 38  1  0  0  0  0
 42 39  1  0  0  0  0
M  END
>  <MODEL>
4

>  <REMARK>
 VINA RESULT:      -7.7      2.160      4.289
  Name = 
  8 active torsions:
  status: ('A' for Active; 'I' for Inactive)
    1  A    between atoms: C_3  and  N_30
    2  A    between atoms: O_4  and  C_11
    3  A    between atoms: O_4  and  C_22
    4  A    between atoms: C_7  and  C_29
    5  A    between atoms: C_12  and  C_28
    6  A    between atoms: C_12  and  C_42
    7  A    between atoms: C_14  and  C_26
    8  A    between atoms: C_32  and  N_38
                            x       y       z     vdW  Elec       q    Type
                         _______ _______ _______ _____ _____    ______ ____

>  <TORSDO>
F 8

$$$$
=
 OpenBabel11062420043D

 42 46  0  0  1  0  0  0  0  0999 V2000
  190.5170  177.0570  143.0690 O   0  0  0  0  0  0  0  0  0  0  0  0
  189.6110  172.8700  143.9780 C   0  0  0  0  0  1  0  0  0  0  0  0
  189.9240  174.2880  143.6050 C   0  0  0  0  0  0  0  0  0  0  0  0
  190.8790  176.5220  144.1510 C   0  0  0  0  0  0  0  0  0  0  0  0
  191.6210  177.3460  145.1570 C   0  0  0  0  0  2  0  0  0  0  0  0
  191.2590  176.9540  146.4830 O   0  0  0  0  0  0  0  0  0  0  0  0
  191.1170  174.5460  145.7650 C   0  0  2  0  0  3  0  0  0  0  0  0
  190.5940  175.0920  144.4580 C   0  0  0  0  0  0  0  0  0  0  0  0
  190.9000  175.2890  148.0320 O   0  0  0  0  0  0  0  0  0  0  0  0
  191.0870  175.6080  146.8270 C   0  0  0  0  0  0  0  0  0  0  0  0
  193.6260  173.6760  145.4610 C   0  0  0  0  0  0  0  0  0  0  0  0
  192.4930  174.0740  145.5780 C   0  0  0  0  0  0  0  0  0  0  0  0
  197.6430  172.3630  145.1320 C   0  0  0  0  0  3  0  0  0  0  0  0
  196.0160  174.1370  145.3580 C   0  0  0  0  0  3  0  0  0  0  0  0
  196.6120  171.4190  145.1590 C   0  0  0  0  0  3  0  0  0  0  0  0
  197.3510  173.7230  145.2410 C   0  0  0  0  0  3  0  0  0  0  0  0
  195.2760  171.8210  145.3080 C   0  0  0  0  0  0  0  0  0  0  0  0
  194.9760  173.1970  145.3860 C   0  0  0  0  0  0  0  0  0  0  0  0
  194.1910  170.7830  145.3830 C   0  0  0  0  0  2  0  0  0  0  0  0
  192.3520  170.4750  143.8060 C   0  0  0  0  0  3  0  0  0  0  0  0
  194.8270  170.2000  142.6460 S   0  0  0  0  0  0  0  0  0  0  0  0
  192.5370  171.4970  141.6840 N   0  0  0  0  0  0  0  0  0  0  0  0
  191.8570  170.4210  142.4050 C   0  0  0  0  0  2  0  0  0  0  0  0
  193.8940  171.0820  141.3080 C   0  0  0  0  0  2  0  0  0  0  0  0
  193.6680  170.4520  144.0170 C   0  0  0  0  0  0  0  0  0  0  0  0
  191.7950  171.9130  140.4860 C   0  0  0  0  0  3  0  0  0  0  0  0
  190.3170  171.5260  140.5220 C   0  0  0  0  0  1  0  0  0  0  0  0
  191.9480  173.4080  140.2550 C   0  0  0  0  0  1  0  0  0  0  0  0
  189.5160  174.7810  142.3570 O   0  0  0  0  0  0  0  0  0  0  0  0
  187.1540  176.5140  142.0890 C   0  0  0  0  0  0  0  0  0  0  0  0
  188.3250  174.3840  141.6820 C   0  0  2  0  0  3  0  0  0  0  0  0
  187.4410  175.8980  139.7870 C   0  0  0  0  0  2  0  0  0  0  0  0
  188.4230  174.7850  140.1920 C   0  0  0  0  0  2  0  0  0  0  0  0
  187.3290  176.8920  140.8560 N   0  0  0  0  0  0  0  0  0  0  0  0
  187.1300  175.0430  142.3880 C   0  0  0  0  0  2  0  0  0  0  0  0
  187.1410  177.5010  143.1290 N   0  0  0  0  0  2  0  0  0  0  0  0
  185.5610  177.0060  144.9940 C   0  0  0  0  0  3  0  0  0  0  0  0
  186.3900  176.9210  147.2660 C   0  0  0  0  0  3  0  0  0  0  0  0
  187.9060  177.3960  145.4380 C   0  0  0  0  0  3  0  0  0  0  0  0
  186.8560  177.2910  144.5240 C   0  0  0  0  0  0  0  0  0  0  0  0
  185.3310  176.8210  146.3600 C   0  0  0  0  0  3  0  0  0  0  0  0
  187.6780  177.2100  146.8020 C   0  0  0  0  0  3  0  0  0  0  0  0
  1  4  2  0  0  0  0
  3  2  1  0  0  0  0
  3  8  2  0  0  0  0
  4  8  1  0  0  0  0
  4  5  1  0  0  0  0
  5  6  1  0  0  0  0
  6 10  1  0  0  0  0
  7 12  1  6  0  0  0
  7 10  1  0  0  0  0
  8  7  1  0  0  0  0
 10  9  2  0  0  0  0
 11 12  3  0  0  0  0
 13 15  2  0  0  0  0
 13 16  1  0  0  0  0
 14 18  1  0  0  0  0
 15 17  1  0  0  0  0
 16 14  2  0  0  0  0
 17 19  1  0  0  0  0
 17 18  2  0  0  0  0
 18 11  1  0  0  0  0
 20 25  2  0  0  0  0
 21 25  1  0  0  0  0
 22 23  1  0  0  0  0
 23 20  1  0  0  0  0
 24 22  1  0  0  0  0
 24 21  1  0  0  0  0
 25 19  1  0  0  0  0
 26 27  1  0  0  0  0
 26 22  1  0  0  0  0
 28 26  1  0  0  0  0
 29  3  1  0  0  0  0
 30 35  1  0  0  0  0
 30 36  1  0  0  0  0
 31 29  1  1  0  0  0
 31 35  1  0  0  0  0
 32 33  1  0  0  0  0
 32 34  1  0  0  0  0
 33 31  1  0  0  0  0
 34 30  2  0  0  0  0
 36 40  1  0  0  0  0
 37 41  1  0  0  0  0
 39 42  2  0  0  0  0
 40 37  2  0  0  0  0
 40 39  1  0  0  0  0
 41 38  2  0  0  0  0
 42 38  1  0  0  0  0
M  END
>  <MODEL>
5

>  <REMARK>
 VINA RESULT:      -7.7      2.154      3.200
  Name = 
  8 active torsions:
  status: ('A' for Active; 'I' for Inactive)
    1  A    between atoms: C_3  and  N_30
    2  A    between atoms: O_4  and  C_11
    3  A    between atoms: O_4  and  C_22
    4  A    between atoms: C_7  and  C_29
    5  A    between atoms: C_12  and  C_28
    6  A    between atoms: C_12  and  C_42
    7  A    between atoms: C_14  and  C_26
    8  A    between atoms: C_32  and  N_38
                            x       y       z     vdW  Elec       q    Type
                         _______ _______ _______ _____ _____    ______ ____

>  <TORSDO>
F 8

$$$$
=
 OpenBabel11062420043D

 42 46  0  0  1  0  0  0  0  0999 V2000
  190.4430  172.1890  144.2720 O   0  0  0  0  0  0  0  0  0  0  0  0
  189.0840  175.6450  141.9510 C   0  0  0  0  0  1  0  0  0  0  0  0
  189.5650  174.5020  142.7930 C   0  0  0  0  0  0  0  0  0  0  0  0
  190.5210  172.2120  143.0150 C   0  0  0  0  0  0  0  0  0  0  0  0
  191.0740  171.0200  142.2970 C   0  0  0  0  0  2  0  0  0  0  0  0
  190.4020  170.8360  141.0490 O   0  0  0  0  0  0  0  0  0  0  0  0
  190.2640  173.3280  140.7220 C   0  0  2  0  0  3  0  0  0  0  0  0
  190.0800  173.3940  142.2190 C   0  0  0  0  0  0  0  0  0  0  0  0
  189.5980  171.7170  139.0790 O   0  0  0  0  0  0  0  0  0  0  0  0
  190.0690  171.9220  140.2300 C   0  0  0  0  0  0  0  0  0  0  0  0
  192.7320  174.1640  140.1310 C   0  0  0  0  0  0  0  0  0  0  0  0
  191.6120  173.7890  140.3770 C   0  0  0  0  0  0  0  0  0  0  0  0
  196.7450  175.3400  139.4320 C   0  0  0  0  0  3  0  0  0  0  0  0
  194.7840  174.0630  138.8210 C   0  0  0  0  0  3  0  0  0  0  0  0
  196.0450  175.8910  140.5100 C   0  0  0  0  0  3  0  0  0  0  0  0
  196.1160  174.4320  138.5780 C   0  0  0  0  0  3  0  0  0  0  0  0
  194.7040  175.5520  140.7420 C   0  0  0  0  0  0  0  0  0  0  0  0
  194.0770  174.6100  139.9000 C   0  0  0  0  0  0  0  0  0  0  0  0
  193.9610  176.1950  141.8790 C   0  0  0  0  0  2  0  0  0  0  0  0
  193.5170  174.4940  143.5740 C   0  0  0  0  0  3  0  0  0  0  0  0
  195.7680  175.9790  144.0990 S   0  0  0  0  0  0  0  0  0  0  0  0
  195.3450  173.2230  144.3640 N   0  0  0  0  0  0  0  0  0  0  0  0
  193.9910  173.6550  144.7070 C   0  0  0  0  0  2  0  0  0  0  0  0
  196.3110  174.2930  144.6430 C   0  0  0  0  0  2  0  0  0  0  0  0
  194.2750  175.5170  143.1800 C   0  0  0  0  0  0  0  0  0  0  0  0
  195.7340  172.0020  145.0850 C   0  0  0  0  0  3  0  0  0  0  0  0
  196.8170  172.2370  146.1380 C   0  0  0  0  0  1  0  0  0  0  0  0
  194.5150  171.3420  145.7140 C   0  0  0  0  0  1  0  0  0  0  0  0
  189.4780  174.5870  144.1900 O   0  0  0  0  0  0  0  0  0  0  0  0
  188.2920  176.2660  146.2950 C   0  0  0  0  0  0  0  0  0  0  0  0
  190.2350  175.4890  144.9940 C   0  0  2  0  0  3  0  0  0  0  0  0
  190.0690  175.2630  147.5600 C   0  0  0  0  0  2  0  0  0  0  0  0
  190.7240  174.7560  146.2640 C   0  0  0  0  0  2  0  0  0  0  0  0
  188.6540  175.5650  147.3300 N   0  0  0  0  0  0  0  0  0  0  0  0
  189.3490  176.7000  145.3210 C   0  0  0  0  0  2  0  0  0  0  0  0
  186.8960  176.4690  146.0410 N   0  0  0  0  0  2  0  0  0  0  0  0
  185.9420  176.7900  143.7600 C   0  0  0  0  0  3  0  0  0  0  0  0
  185.1890  178.9890  143.0820 C   0  0  0  0  0  3  0  0  0  0  0  0
  186.1160  178.6520  145.2950 C   0  0  0  0  0  3  0  0  0  0  0  0
  186.3080  177.2960  145.0200 C   0  0  0  0  0  0  0  0  0  0  0  0
  185.3840  177.6360  142.7960 C   0  0  0  0  0  3  0  0  0  0  0  0
  185.5570  179.4960  144.3330 C   0  0  0  0  0  3  0  0  0  0  0  0
  2  3  1  0  0  0  0
  3 29  1  0  0  0  0
  4  1  2  0  0  0  0
  5  4  1  0  0  0  0
  6  5  1  0  0  0  0
  7 12  1  1  0  0  0
  7  8  1  0  0  0  0
  8  3  2  0  0  0  0
  8  4  1  0  0  0  0
  9 10  2  0  0  0  0
 10  7  1  0  0  0  0
 10  6  1  0  0  0  0
 11 12  3  0  0  0  0
 13 15  1  0  0  0  0
 14 18  2  0  0  0  0
 15 17  2  0  0  0  0
 16 14  1  0  0  0  0
 16 13  2  0  0  0  0
 17 19  1  0  0  0  0
 18 11  1  0  0  0  0
 18 17  1  0  0  0  0
 19 25  1  0  0  0  0
 20 23  1  0  0  0  0
 21 24  1  0  0  0  0
 22 24  1  0  0  0  0
 22 23  1  0  0  0  0
 22 26  1  0  0  0  0
 25 20  2  0  0  0  0
 25 21  1  0  0  0  0
 26 28  1  0  0  0  0
 26 27  1  0  0  0  0
 30 34  2  0  0  0  0
 31 29  1  6  0  0  0
 31 35  1  0  0  0  0
 31 33  1  0  0  0  0
 33 32  1  0  0  0  0
 34 32  1  0  0  0  0
 35 30  1  0  0  0  0
 36 30  1  0  0  0  0
 37 40  1  0  0  0  0
 38 42  2  0  0  0  0
 40 39  2  0  0  0  0
 40 36  1  0  0  0  0
 41 38  1  0  0  0  0
 41 37  2  0  0  0  0
 42 39  1  0  0  0  0
M  END
>  <MODEL>
6

>  <REMARK>
 VINA RESULT:      -7.7      2.214      5.302
  Name = 
  8 active torsions:
  status: ('A' for Active; 'I' for Inactive)
    1  A    between atoms: C_3  and  N_30
    2  A    between atoms: O_4  and  C_11
    3  A    between atoms: O_4  and  C_22
    4  A    between atoms: C_7  and  C_29
    5  A    between atoms: C_12  and  C_28
    6  A    between atoms: C_12  and  C_42
    7  A    between atoms: C_14  and  C_26
    8  A    between atoms: C_32  and  N_38
                            x       y       z     vdW  Elec       q    Type
                         _______ _______ _______ _____ _____    ______ ____

>  <TORSDO>
F 8

$$$$
=
 OpenBabel11062420043D

 42 46  0  0  1  0  0  0  0  0999 V2000
  189.5480  177.9240  144.5350 O   0  0  0  0  0  0  0  0  0  0  0  0
  189.6910  173.5700  144.0990 C   0  0  0  0  0  1  0  0  0  0  0  0
  189.6370  175.0650  144.1840 C   0  0  0  0  0  0  0  0  0  0  0  0
  190.1930  177.2010  145.3390 C   0  0  0  0  0  0  0  0  0  0  0  0
  190.9120  177.8470  146.4830 C   0  0  0  0  0  2  0  0  0  0  0  0
  190.8730  177.0010  147.6350 O   0  0  0  0  0  0  0  0  0  0  0  0
  191.1060  174.9600  146.1810 C   0  0  2  0  0  3  0  0  0  0  0  0
  190.2640  175.7200  145.1840 C   0  0  0  0  0  0  0  0  0  0  0  0
  191.1350  174.9160  148.5760 O   0  0  0  0  0  0  0  0  0  0  0  0
  191.0420  175.6150  147.5310 C   0  0  0  0  0  0  0  0  0  0  0  0
  193.6370  174.8540  145.3290 C   0  0  0  0  0  0  0  0  0  0  0  0
  192.4960  174.9230  145.7150 C   0  0  0  0  0  0  0  0  0  0  0  0
  197.6840  174.4860  144.1230 C   0  0  0  0  0  3  0  0  0  0  0  0
  195.9360  174.1740  145.7640 C   0  0  0  0  0  3  0  0  0  0  0  0
  196.7480  175.0210  143.2320 C   0  0  0  0  0  3  0  0  0  0  0  0
  197.2820  174.0530  145.3870 C   0  0  0  0  0  3  0  0  0  0  0  0
  195.3940  175.1170  143.5880 C   0  0  0  0  0  0  0  0  0  0  0  0
  194.9910  174.7090  144.8770 C   0  0  0  0  0  0  0  0  0  0  0  0
  194.4000  175.6500  142.5950 C   0  0  0  0  0  2  0  0  0  0  0  0
  193.1250  173.6550  141.9960 C   0  0  0  0  0  3  0  0  0  0  0  0
  194.5570  174.6930  139.8930 S   0  0  0  0  0  0  0  0  0  0  0  0
  191.9480  173.6740  139.9470 N   0  0  0  0  0  0  0  0  0  0  0  0
  192.5200  172.7820  140.9550 C   0  0  0  0  0  2  0  0  0  0  0  0
  192.9960  174.1660  139.0440 C   0  0  0  0  0  2  0  0  0  0  0  0
  193.9970  174.5890  141.6150 C   0  0  0  0  0  0  0  0  0  0  0  0
  190.8880  173.0180  139.1680 C   0  0  0  0  0  3  0  0  0  0  0  0
  191.4210  172.0680  138.0960 C   0  0  0  0  0  1  0  0  0  0  0  0
  189.9200  172.2910  140.0900 C   0  0  0  0  0  1  0  0  0  0  0  0
  188.9280  175.7880  143.2150 O   0  0  0  0  0  0  0  0  0  0  0  0
  186.5830  177.3530  142.3740 C   0  0  0  0  0  0  0  0  0  0  0  0
  187.8720  175.2540  142.4190 C   0  0  2  0  0  3  0  0  0  0  0  0
  187.2510  176.4860  140.2380 C   0  0  0  0  0  2  0  0  0  0  0  0
  188.1910  175.4810  140.9240 C   0  0  0  0  0  2  0  0  0  0  0  0
  186.9390  177.5930  141.1450 N   0  0  0  0  0  0  0  0  0  0  0  0
  186.5600  175.9290  142.8470 C   0  0  0  0  0  2  0  0  0  0  0  0
  186.3740  178.4540  143.2680 N   0  0  0  0  0  2  0  0  0  0  0  0
  186.6890  178.0150  145.7030 C   0  0  0  0  0  3  0  0  0  0  0  0
  184.8190  178.2900  147.2150 C   0  0  0  0  0  3  0  0  0  0  0  0
  184.5370  178.7150  144.8470 C   0  0  0  0  0  3  0  0  0  0  0  0
  185.8780  178.3970  144.6180 C   0  0  0  0  0  0  0  0  0  0  0  0
  186.1590  177.9640  146.9960 C   0  0  0  0  0  3  0  0  0  0  0  0
  184.0090  178.6660  146.1370 C   0  0  0  0  0  3  0  0  0  0  0  0
  1  4  2  0  0  0  0
  2  3  1  0  0  0  0
  3  8  2  0  0  0  0
  4  5  1  0  0  0  0
  5  6  1  0  0  0  0
  7 12  1  6  0  0  0
  7 10  1  0  0  0  0
  8  4  1  0  0  0  0
  8  7  1  0  0  0  0
 10  6  1  0  0  0  0
 10  9  2  0  0  0  0
 11 12  3  0  0  0  0
 13 16  1  0  0  0  0
 15 17  1  0  0  0  0
 15 13  2  0  0  0  0
 16 14  2  0  0  0  0
 17 18  2  0  0  0  0
 18 11  1  0  0  0  0
 18 14  1  0  0  0  0
 19 17  1  0  0  0  0
 21 25  1  0  0  0  0
 22 23  1  0  0  0  0
 23 20  1  0  0  0  0
 24 21  1  0  0  0  0
 24 22  1  0  0  0  0
 25 20  2  0  0  0  0
 25 19  1  0  0  0  0
 26 22  1  0  0  0  0
 26 28  1  0  0  0  0
 27 26  1  0  0  0  0
 29  3  1  0  0  0  0
 30 35  1  0  0  0  0
 30 36  1  0  0  0  0
 31 35  1  0  0  0  0
 31 29  1  1  0  0  0
 32 33  1  0  0  0  0
 32 34  1  0  0  0  0
 33 31  1  0  0  0  0
 34 30  2  0  0  0  0
 36 40  1  0  0  0  0
 37 41  1  0  0  0  0
 39 42  2  0  0  0  0
 40 39  1  0  0  0  0
 40 37  2  0  0  0  0
 41 38  2  0  0  0  0
 42 38  1  0  0  0  0
M  END
>  <MODEL>
7

>  <REMARK>
 VINA RESULT:      -7.7      1.857      2.730
  Name = 
  8 active torsions:
  status: ('A' for Active; 'I' for Inactive)
    1  A    between atoms: C_3  and  N_30
    2  A    between atoms: O_4  and  C_11
    3  A    between atoms: O_4  and  C_22
    4  A    between atoms: C_7  and  C_29
    5  A    between atoms: C_12  and  C_28
    6  A    between atoms: C_12  and  C_42
    7  A    between atoms: C_14  and  C_26
    8  A    between atoms: C_32  and  N_38
                            x       y       z     vdW  Elec       q    Type
                         _______ _______ _______ _____ _____    ______ ____

>  <TORSDO>
F 8

$$$$
=
 OpenBabel11062420043D

 42 46  0  0  1  0  0  0  0  0999 V2000
  189.8350  178.2890  143.2180 O   0  0  0  0  0  0  0  0  0  0  0  0
  189.5170  174.1500  141.8240 C   0  0  0  0  0  1  0  0  0  0  0  0
  189.5970  175.5850  142.2470 C   0  0  0  0  0  0  0  0  0  0  0  0
  190.6890  177.4180  143.5340 C   0  0  0  0  0  0  0  0  0  0  0  0
  191.8300  177.8050  144.4230 C   0  0  0  0  0  2  0  0  0  0  0  0
  192.1750  176.7200  145.2870 O   0  0  0  0  0  0  0  0  0  0  0  0
  191.7040  175.0660  143.4500 C   0  0  2  0  0  3  0  0  0  0  0  0
  190.5990  176.0120  143.0450 C   0  0  0  0  0  0  0  0  0  0  0  0
  192.6380  174.4830  145.5770 O   0  0  0  0  0  0  0  0  0  0  0  0
  192.2020  175.3980  144.8280 C   0  0  0  0  0  0  0  0  0  0  0  0
  193.7120  175.2160  141.6920 C   0  0  0  0  0  0  0  0  0  0  0  0
  192.8070  175.1690  142.4890 C   0  0  0  0  0  0  0  0  0  0  0  0
  196.8730  175.0450  138.8720 C   0  0  0  0  0  3  0  0  0  0  0  0
  194.5940  174.5570  139.5180 C   0  0  0  0  0  3  0  0  0  0  0  0
  197.0760  175.6960  140.0930 C   0  0  0  0  0  3  0  0  0  0  0  0
  195.6310  174.4820  138.5760 C   0  0  0  0  0  3  0  0  0  0  0  0
  196.0360  175.8040  141.0290 C   0  0  0  0  0  0  0  0  0  0  0  0
  194.7900  175.2070  140.7450 C   0  0  0  0  0  0  0  0  0  0  0  0
  196.2660  176.5510  142.3130 C   0  0  0  0  0  2  0  0  0  0  0  0
  195.9090  175.6150  144.5400 C   0  0  0  0  0  3  0  0  0  0  0  0
  197.9410  174.3800  143.1630 S   0  0  0  0  0  0  0  0  0  0  0  0
  195.9310  173.2630  144.7630 N   0  0  0  0  0  0  0  0  0  0  0  0
  196.1000  174.5070  145.5140 C   0  0  0  0  0  2  0  0  0  0  0  0
  197.1580  172.9380  144.0260 C   0  0  0  0  0  2  0  0  0  0  0  0
  196.6360  175.6120  143.4230 C   0  0  0  0  0  0  0  0  0  0  0  0
  195.5630  172.1380  145.6360 C   0  0  0  0  0  3  0  0  0  0  0  0
  194.3420  171.3620  145.1440 C   0  0  0  0  0  1  0  0  0  0  0  0
  196.7460  171.2020  145.8290 C   0  0  0  0  0  1  0  0  0  0  0  0
  188.6220  176.4920  141.8080 O   0  0  0  0  0  0  0  0  0  0  0  0
  186.1320  177.8700  142.5540 C   0  0  0  0  0  0  0  0  0  0  0  0
  187.3400  176.1210  141.3080 C   0  0  2  0  0  3  0  0  0  0  0  0
  185.9070  177.9380  140.1650 C   0  0  0  0  0  2  0  0  0  0  0  0
  187.0440  176.9130  140.0140 C   0  0  0  0  0  2  0  0  0  0  0  0
  185.9750  178.5850  141.4770 N   0  0  0  0  0  0  0  0  0  0  0  0
  186.3000  176.3850  142.4070 C   0  0  0  0  0  2  0  0  0  0  0  0
  186.2890  178.5320  143.8160 N   0  0  0  0  0  2  0  0  0  0  0  0
  185.2290  177.7130  145.9200 C   0  0  0  0  0  3  0  0  0  0  0  0
  186.6140  176.7380  147.6490 C   0  0  0  0  0  3  0  0  0  0  0  0
  187.6200  177.5360  145.5960 C   0  0  0  0  0  3  0  0  0  0  0  0
  186.3650  177.9190  145.1160 C   0  0  0  0  0  0  0  0  0  0  0  0
  185.3550  177.1230  147.1810 C   0  0  0  0  0  3  0  0  0  0  0  0
  187.7460  176.9460  146.8540 C   0  0  0  0  0  3  0  0  0  0  0  0
  1  4  2  0  0  0  0
  2  3  1  0  0  0  0
  3  8  2  0  0  0  0
  4  5  1  0  0  0  0
  5  6  1  0  0  0  0
  7 12  1  6  0  0  0
  7 10  1  0  0  0  0
  8  7  1  0  0  0  0
  8  4  1  0  0  0  0
 10  6  1  0  0  0  0
 10  9  2  0  0  0  0
 11 12  3  0  0  0  0
 13 15  1  0  0  0  0
 14 18  2  0  0  0  0
 15 17  2  0  0  0  0
 16 13  2  0  0  0  0
 16 14  1  0  0  0  0
 17 19  1  0  0  0  0
 18 17  1  0  0  0  0
 18 11  1  0  0  0  0
 19 25  1  0  0  0  0
 20 23  1  0  0  0  0
 21 25  1  0  0  0  0
 21 24  1  0  0  0  0
 22 23  1  0  0  0  0
 22 26  1  0  0  0  0
 24 22  1  0  0  0  0
 25 20  2  0  0  0  0
 26 28  1  0  0  0  0
 27 26  1  0  0  0  0
 29  3  1  0  0  0  0
 30 36  1  0  0  0  0
 31 29  1  1  0  0  0
 31 35  1  0  0  0  0
 32 34  1  0  0  0  0
 33 32  1  0  0  0  0
 33 31  1  0  0  0  0
 34 30  2  0  0  0  0
 35 30  1  0  0  0  0
 36 40  1  0  0  0  0
 37 41  1  0  0  0  0
 39 42  2  0  0  0  0
 40 39  1  0  0  0  0
 40 37  2  0  0  0  0
 41 38  2  0  0  0  0
 42 38  1  0  0  0  0
M  END
>  <MODEL>
8

>  <REMARK>
 VINA RESULT:      -7.6      1.703      3.812
  Name = 
  8 active torsions:
  status: ('A' for Active; 'I' for Inactive)
    1  A    between atoms: C_3  and  N_30
    2  A    between atoms: O_4  and  C_11
    3  A    between atoms: O_4  and  C_22
    4  A    between atoms: C_7  and  C_29
    5  A    between atoms: C_12  and  C_28
    6  A    between atoms: C_12  and  C_42
    7  A    between atoms: C_14  and  C_26
    8  A    between atoms: C_32  and  N_38
                            x       y       z     vdW  Elec       q    Type
                         _______ _______ _______ _____ _____    ______ ____

>  <TORSDO>
F 8

$$$$
=
 OpenBabel11062420043D

 42 46  0  0  1  0  0  0  0  0999 V2000
  192.0210  176.2470  142.7590 O   0  0  0  0  0  0  0  0  0  0  0  0
  193.9140  176.8320  146.6630 C   0  0  0  0  0  1  0  0  0  0  0  0
  193.2140  176.6110  145.3570 C   0  0  0  0  0  0  0  0  0  0  0  0
  193.2650  176.1250  142.9140 C   0  0  0  0  0  0  0  0  0  0  0  0
  194.1180  175.7900  141.7300 C   0  0  0  0  0  2  0  0  0  0  0  0
  195.3860  176.4420  141.8310 O   0  0  0  0  0  0  0  0  0  0  0  0
  195.4060  176.0840  144.3220 C   0  0  2  0  0  3  0  0  0  0  0  0
  193.9140  176.3010  144.2450 C   0  0  0  0  0  0  0  0  0  0  0  0
  197.2400  176.9940  143.0790 O   0  0  0  0  0  0  0  0  0  0  0  0
  196.0680  176.5310  143.0500 C   0  0  0  0  0  0  0  0  0  0  0  0
  195.8770  173.4810  144.7040 C   0  0  0  0  0  0  0  0  0  0  0  0
  195.6790  174.6610  144.5460 C   0  0  0  0  0  0  0  0  0  0  0  0
  196.5670  169.3260  145.1880 C   0  0  0  0  0  3  0  0  0  0  0  0
  196.6930  171.5950  146.0140 C   0  0  0  0  0  3  0  0  0  0  0  0
  195.9370  169.7870  144.0280 C   0  0  0  0  0  3  0  0  0  0  0  0
  196.9390  170.2250  146.1890 C   0  0  0  0  0  3  0  0  0  0  0  0
  195.6590  171.1520  143.8580 C   0  0  0  0  0  0  0  0  0  0  0  0
  196.0630  172.0660  144.8530 C   0  0  0  0  0  0  0  0  0  0  0  0
  194.9380  171.6150  142.6230 C   0  0  0  0  0  2  0  0  0  0  0  0
  192.7330  172.4880  143.2080 C   0  0  0  0  0  3  0  0  0  0  0  0
  192.6510  169.9320  142.2030 S   0  0  0  0  0  0  0  0  0  0  0  0
  190.9600  172.1080  141.6930 N   0  0  0  0  0  0  0  0  0  0  0  0
  191.2520  172.4190  143.0920 C   0  0  0  0  0  2  0  0  0  0  0  0
  191.1300  170.6710  141.4420 C   0  0  0  0  0  2  0  0  0  0  0  0
  193.4540  171.4540  142.7740 C   0  0  0  0  0  0  0  0  0  0  0  0
  189.6040  172.5220  141.3080 C   0  0  0  0  0  3  0  0  0  0  0  0
  188.5780  172.3630  142.4290 C   0  0  0  0  0  1  0  0  0  0  0  0
  189.6090  173.9530  140.7910 C   0  0  0  0  0  1  0  0  0  0  0  0
  191.8180  176.7270  145.2920 O   0  0  0  0  0  0  0  0  0  0  0  0
  189.1100  175.5980  145.5140 C   0  0  0  0  0  0  0  0  0  0  0  0
  190.9710  176.9360  146.4190 C   0  0  2  0  0  3  0  0  0  0  0  0
  190.0060  174.8640  147.6170 C   0  0  0  0  0  2  0  0  0  0  0  0
  191.2060  175.8120  147.4530 C   0  0  0  0  0  2  0  0  0  0  0  0
  189.3770  174.6110  146.3190 N   0  0  0  0  0  0  0  0  0  0  0  0
  189.5170  176.9840  145.9250 C   0  0  0  0  0  2  0  0  0  0  0  0
  188.5800  175.3170  144.2130 N   0  0  0  0  0  2  0  0  0  0  0  0
  188.9780  177.2400  142.6750 C   0  0  0  0  0  3  0  0  0  0  0  0
  187.1470  178.1000  141.3460 C   0  0  0  0  0  3  0  0  0  0  0  0
  186.7860  176.2300  142.8420 C   0  0  0  0  0  3  0  0  0  0  0  0
  188.1270  176.2690  143.2330 C   0  0  0  0  0  0  0  0  0  0  0  0
  188.4880  178.1510  141.7340 C   0  0  0  0  0  3  0  0  0  0  0  0
  186.2970  177.1380  141.9020 C   0  0  0  0  0  3  0  0  0  0  0  0
  1  4  2  0  0  0  0
  3  2  1  0  0  0  0
  4  8  1  0  0  0  0
  5  6  1  0  0  0  0
  5  4  1  0  0  0  0
  6 10  1  0  0  0  0
  7 12  1  6  0  0  0
  8  7  1  0  0  0  0
  8  3  2  0  0  0  0
 10  9  2  0  0  0  0
 10  7  1  0  0  0  0
 11 18  1  0  0  0  0
 12 11  3  0  0  0  0
 13 16  1  0  0  0  0
 14 16  2  0  0  0  0
 15 13  2  0  0  0  0
 17 15  1  0  0  0  0
 17 18  2  0  0  0  0
 18 14  1  0  0  0  0
 19 25  1  0  0  0  0
 19 17  1  0  0  0  0
 21 25  1  0  0  0  0
 22 23  1  0  0  0  0
 23 20  1  0  0  0  0
 24 22  1  0  0  0  0
 24 21  1  0  0  0  0
 25 20  2  0  0  0  0
 26 22  1  0  0  0  0
 26 27  1  0  0  0  0
 28 26  1  0  0  0  0
 29  3  1  0  0  0  0
 30 35  1  0  0  0  0
 30 34  2  0  0  0  0
 31 29  1  6  0  0  0
 31 33  1  0  0  0  0
 33 32  1  0  0  0  0
 34 32  1  0  0  0  0
 35 31  1  0  0  0  0
 36 30  1  0  0  0  0
 37 40  1  0  0  0  0
 38 41  1  0  0  0  0
 38 42  2  0  0  0  0
 39 40  2  0  0  0  0
 40 36  1  0  0  0  0
 41 37  2  0  0  0  0
 42 39  1  0  0  0  0
M  END
>  <MODEL>
9

>  <REMARK>
 VINA RESULT:      -7.5      2.668      5.272
  Name = 
  8 active torsions:
  status: ('A' for Active; 'I' for Inactive)
    1  A    between atoms: C_3  and  N_30
    2  A    between atoms: O_4  and  C_11
    3  A    between atoms: O_4  and  C_22
    4  A    between atoms: C_7  and  C_29
    5  A    between atoms: C_12  and  C_28
    6  A    between atoms: C_12  and  C_42
    7  A    between atoms: C_14  and  C_26
    8  A    between atoms: C_32  and  N_38
                            x       y       z     vdW  Elec       q    Type
                         _______ _______ _______ _____ _____    ______ ____

>  <TORSDO>
F 8

$$$$
