=
 OpenBabel11062421143D

 33 37  0  0  1  0  0  0  0  0999 V2000
  191.5400  173.5030  144.3460 O   0  0  0  0  0  0  0  0  0  0  0  0
  194.8770  175.5660  145.9000 C   0  0  0  0  0  2  0  0  0  0  0  0
  195.9790  173.2950  145.6990 N   0  0  0  0  0  2  0  0  0  0  0  0
  193.7000  173.5070  145.1910 N   0  0  0  0  0  0  0  0  0  0  0  0
  192.4030  174.1020  145.0370 C   0  0  0  0  0  0  0  0  0  0  0  0
  194.1960  176.4360  144.9290 N   0  0  0  0  0  0  0  0  0  0  0  0
  194.7960  174.0880  145.5850 C   0  0  0  0  0  0  0  0  0  0  0  0
  192.0040  175.3730  145.7290 C   0  0  2  0  0  3  0  0  0  0  0  0
  192.7760  176.6260  145.2830 C   0  0  2  0  0  3  0  0  0  0  0  0
  190.6070  175.1400  147.7700 C   0  0  0  0  0  2  0  0  0  0  0  0
  191.3810  176.4360  147.8810 C   0  0  0  0  0  2  0  0  0  0  0  0
  192.0250  175.2200  147.2450 C   0  0  0  0  0  3  0  0  0  0  0  0
  197.1780  173.8470  146.0110 O   0  0  0  0  0  0  0  0  0  0  0  0
  197.9020  173.8250  144.8180 C   0  0  0  0  0  1  0  0  0  0  0  0
  191.9960  177.4300  144.2440 C   0  0  0  0  0  2  0  0  0  0  0  0
  190.2580  176.8410  142.5660 C   0  0  0  0  0  2  0  0  0  0  0  0
  189.4180  177.7590  145.0840 S   0  0  0  0  0  0  0  0  0  0  0  0
  190.6130  176.8390  144.0450 C   0  0  2  0  0  3  0  0  0  0  0  0
  188.0690  175.5400  142.4790 C   0  0  1  0  0  3  0  0  0  0  0  0
  187.8810  177.4720  144.1110 C   0  0  1  0  0  3  0  0  0  0  0  0
  187.1990  176.4540  141.2130 Cl  0  0  0  0  0  0  0  0  0  0  0  0
  189.5760  175.5250  142.2220 C   0  0  0  0  0  2  0  0  0  0  0  0
  187.6790  175.9670  143.8960 C   0  0  0  0  0  2  0  0  0  0  0  0
  184.5460  179.1770  144.3900 C   0  0  0  0  0  2  0  0  0  0  0  0
  184.4380  178.9590  145.9010 C   0  0  0  0  0  2  0  0  0  0  0  0
  186.1290  177.0710  145.6920 C   0  0  0  0  0  2  0  0  0  0  0  0
  185.7060  178.3830  143.7730 C   0  0  0  0  0  2  0  0  0  0  0  0
  186.7200  178.0710  144.7850 N   0  0  0  0  0  0  0  0  0  0  0  0
  184.7740  177.5160  146.2730 C   0  0  0  0  0  2  0  0  0  0  0  0
  194.3900  176.0030  143.5390 C   0  0  0  0  0  2  0  0  0  0  0  0
  195.7890  176.3540  143.0720 C   0  0  0  0  0  3  0  0  0  0  0  0
  195.7630  176.6740  141.7340 O   0  0  0  0  0  0  0  0  0  0  0  0
  196.1840  175.4560  142.1070 O   0  0  0  0  0  0  0  0  0  0  0  0
  1  5  2  0  0  0  0
  3 13  1  0  0  0  0
  4  7  2  0  0  0  0
  5  4  1  0  0  0  0
  5  8  1  0  0  0  0
  6  9  1  0  0  0  0
  6  2  1  0  0  0  0
  7  3  1  0  0  0  0
  7  2  1  0  0  0  0
  8 12  1  1  0  0  0
  9 15  1  6  0  0  0
  9  8  1  0  0  0  0
 10 11  1  0  0  0  0
 12 10  1  0  0  0  0
 12 11  1  0  0  0  0
 14 13  1  0  0  0  0
 16 18  1  0  0  0  0
 18 15  1  6  0  0  0
 18 17  1  0  0  0  0
 19 21  1  6  0  0  0
 19 23  1  0  0  0  0
 20 23  1  1  0  0  0
 20 28  1  0  0  0  0
 20 17  1  0  0  0  0
 22 19  1  0  0  0  0
 22 16  1  0  0  0  0
 24 25  1  0  0  0  0
 25 29  1  0  0  0  0
 26 29  1  0  0  0  0
 27 24  1  0  0  0  0
 27 28  1  0  0  0  0
 28 26  1  0  0  0  0
 30  6  1  0  0  0  0
 31 30  1  0  0  0  0
 32 33  1  0  0  0  0
 32 31  1  0  0  0  0
 33 31  1  0  0  0  0
M  END
>  <MODEL>
1

>  <REMARK>
 VINA RESULT:      -7.6      0.000      0.000
  Name = 
  7 active torsions:
  status: ('A' for Active; 'I' for Inactive)
    1  A    between atoms: C_6  and  C_32
    2  A    between atoms: C_9  and  C_11
    3  A    between atoms: C_11  and  C_29
    4  A    between atoms: N_13  and  O_21
    5  A    between atoms: N_16  and  C_32
    6  A    between atoms: N_20  and  C_24
    7  A    between atoms: C_22  and  C_26
                            x       y       z     vdW  Elec       q    Type
                         _______ _______ _______ _____ _____    ______ ____

>  <TORSDO>
F 7

$$$$
=
 OpenBabel11062421143D

 33 37  0  0  1  0  0  0  0  0999 V2000
  192.4010  174.0350  141.6570 O   0  0  0  0  0  0  0  0  0  0  0  0
  193.7200  173.1830  145.5740 C   0  0  0  0  0  2  0  0  0  0  0  0
  195.6310  172.0610  144.3490 N   0  0  0  0  0  2  0  0  0  0  0  0
  193.8570  172.9660  143.1120 N   0  0  0  0  0  0  0  0  0  0  0  0
  192.6030  173.6000  142.8190 C   0  0  0  0  0  0  0  0  0  0  0  0
  193.1810  174.5520  145.5460 N   0  0  0  0  0  0  0  0  0  0  0  0
  194.3750  172.7380  144.2840 C   0  0  0  0  0  0  0  0  0  0  0  0
  191.4880  173.6970  143.8200 C   0  0  2  0  0  3  0  0  0  0  0  0
  191.7920  174.5700  145.0480 C   0  0  2  0  0  3  0  0  0  0  0  0
  190.4230  171.5990  143.0210 C   0  0  0  0  0  2  0  0  0  0  0  0
  189.4810  172.2530  144.0080 C   0  0  0  0  0  2  0  0  0  0  0  0
  190.9790  172.3210  144.2310 C   0  0  0  0  0  3  0  0  0  0  0  0
  196.2770  171.8730  145.5270 O   0  0  0  0  0  0  0  0  0  0  0  0
  197.2650  170.9280  145.2430 C   0  0  0  0  0  1  0  0  0  0  0  0
  191.2240  175.9800  144.8930 C   0  0  0  0  0  2  0  0  0  0  0  0
  189.9130  176.5350  142.8540 C   0  0  0  0  0  2  0  0  0  0  0  0
  188.6460  176.7610  145.3510 S   0  0  0  0  0  0  0  0  0  0  0  0
  189.8510  175.9310  144.2480 C   0  0  2  0  0  3  0  0  0  0  0  0
  187.6020  176.0530  141.8950 C   0  0  1  0  0  3  0  0  0  0  0  0
  187.4000  177.2890  144.1020 C   0  0  1  0  0  3  0  0  0  0  0  0
  187.3160  177.5540  140.9670 Cl  0  0  0  0  0  0  0  0  0  0  0  0
  189.0830  175.6770  141.9090 C   0  0  0  0  0  2  0  0  0  0  0  0
  186.9470  176.0750  143.2790 C   0  0  0  0  0  2  0  0  0  0  0  0
  184.0200  178.9060  144.3390 C   0  0  0  0  0  2  0  0  0  0  0  0
  184.0090  178.9130  145.8700 C   0  0  0  0  0  2  0  0  0  0  0  0
  185.7630  177.0710  145.8330 C   0  0  0  0  0  2  0  0  0  0  0  0
  185.1740  178.0670  143.7730 C   0  0  0  0  0  2  0  0  0  0  0  0
  186.2570  177.9430  144.7530 N   0  0  0  0  0  0  0  0  0  0  0  0
  184.4260  177.5540  146.4280 C   0  0  0  0  0  2  0  0  0  0  0  0
  194.0570  175.4970  144.8410 C   0  0  0  0  0  2  0  0  0  0  0  0
  194.9320  176.2380  145.8330 C   0  0  0  0  0  3  0  0  0  0  0  0
  194.1430  176.8330  146.7910 O   0  0  0  0  0  0  0  0  0  0  0  0
  194.6320  177.5810  145.7900 O   0  0  0  0  0  0  0  0  0  0  0  0
  1  5  2  0  0  0  0
  3 13  1  0  0  0  0
  4  7  2  0  0  0  0
  5  4  1  0  0  0  0
  5  8  1  0  0  0  0
  6  2  1  0  0  0  0
  7  3  1  0  0  0  0
  7  2  1  0  0  0  0
  8 12  1  1  0  0  0
  8  9  1  0  0  0  0
  9 15  1  6  0  0  0
  9  6  1  0  0  0  0
 10 11  1  0  0  0  0
 10 12  1  0  0  0  0
 11 12  1  0  0  0  0
 14 13  1  0  0  0  0
 16 18  1  0  0  0  0
 18 15  1  1  0  0  0
 18 17  1  0  0  0  0
 19 21  1  1  0  0  0
 19 22  1  0  0  0  0
 19 23  1  0  0  0  0
 20 23  1  1  0  0  0
 20 28  1  0  0  0  0
 20 17  1  0  0  0  0
 22 16  1  0  0  0  0
 24 25  1  0  0  0  0
 25 29  1  0  0  0  0
 26 29  1  0  0  0  0
 27 24  1  0  0  0  0
 27 28  1  0  0  0  0
 28 26  1  0  0  0  0
 30  6  1  0  0  0  0
 30 31  1  0  0  0  0
 31 32  1  0  0  0  0
 33 31  1  0  0  0  0
 33 32  1  0  0  0  0
M  END
>  <MODEL>
2

>  <REMARK>
 VINA RESULT:      -7.4      1.974      2.604
  Name = 
  7 active torsions:
  status: ('A' for Active; 'I' for Inactive)
    1  A    between atoms: C_6  and  C_32
    2  A    between atoms: C_9  and  C_11
    3  A    between atoms: C_11  and  C_29
    4  A    between atoms: N_13  and  O_21
    5  A    between atoms: N_16  and  C_32
    6  A    between atoms: N_20  and  C_24
    7  A    between atoms: C_22  and  C_26
                            x       y       z     vdW  Elec       q    Type
                         _______ _______ _______ _____ _____    ______ ____

>  <TORSDO>
F 7

$$$$
=
 OpenBabel11062421143D

 33 37  0  0  1  0  0  0  0  0999 V2000
  192.2050  174.5090  140.9060 O   0  0  0  0  0  0  0  0  0  0  0  0
  192.0330  173.6550  145.0350 C   0  0  0  0  0  2  0  0  0  0  0  0
  193.8630  172.0060  144.4510 N   0  0  0  0  0  2  0  0  0  0  0  0
  192.8340  173.2260  142.7330 N   0  0  0  0  0  0  0  0  0  0  0  0
  191.9330  174.1260  142.0730 C   0  0  0  0  0  0  0  0  0  0  0  0
  191.8990  175.1080  144.8490 N   0  0  0  0  0  0  0  0  0  0  0  0
  192.9030  172.9660  144.0070 C   0  0  0  0  0  0  0  0  0  0  0  0
  190.6350  174.5710  142.6840 C   0  0  2  0  0  3  0  0  0  0  0  0
  190.7750  175.4320  143.9490 C   0  0  2  0  0  3  0  0  0  0  0  0
  189.3640  172.7390  141.5880 C   0  0  0  0  0  2  0  0  0  0  0  0
  188.3660  173.6800  142.2280 C   0  0  0  0  0  2  0  0  0  0  0  0
  189.6890  173.3990  142.9130 C   0  0  0  0  0  3  0  0  0  0  0  0
  194.0580  171.7530  145.7690 O   0  0  0  0  0  0  0  0  0  0  0  0
  195.1280  170.8570  145.8050 C   0  0  0  0  0  1  0  0  0  0  0  0
  190.6640  176.9230  143.6340 C   0  0  0  0  0  2  0  0  0  0  0  0
  188.7720  176.6100  145.2170 C   0  0  0  0  0  2  0  0  0  0  0  0
  188.1990  177.5400  142.6290 S   0  0  0  0  0  0  0  0  0  0  0  0
  189.3160  177.4600  144.0790 C   0  0  2  0  0  3  0  0  0  0  0  0
  186.6980  177.8850  145.9700 C   0  0  1  0  0  3  0  0  0  0  0  0
  186.5750  177.3910  143.4840 C   0  0  1  0  0  3  0  0  0  0  0  0
  185.6010  176.5240  146.3490 Cl  0  0  0  0  0  0  0  0  0  0  0  0
  188.1550  177.5270  146.2640 C   0  0  0  0  0  2  0  0  0  0  0  0
  186.4640  178.4670  144.5730 C   0  0  0  0  0  2  0  0  0  0  0  0
  183.1790  178.3690  142.2160 C   0  0  0  0  0  2  0  0  0  0  0  0
  183.4840  177.9730  140.7690 C   0  0  0  0  0  2  0  0  0  0  0  0
  185.9640  178.1600  141.3020 C   0  0  0  0  0  2  0  0  0  0  0  0
  184.4380  178.3660  143.0940 C   0  0  0  0  0  2  0  0  0  0  0  0
  185.4700  177.4960  142.5210 N   0  0  0  0  0  0  0  0  0  0  0  0
  184.8340  178.5280  140.3210 C   0  0  0  0  0  2  0  0  0  0  0  0
  193.1580  175.7520  144.4520 C   0  0  0  0  0  2  0  0  0  0  0  0
  194.0590  175.9270  145.6580 C   0  0  0  0  0  3  0  0  0  0  0  0
  193.4290  176.7120  146.5960 O   0  0  0  0  0  0  0  0  0  0  0  0
  194.3650  177.2610  145.8070 O   0  0  0  0  0  0  0  0  0  0  0  0
  1  5  2  0  0  0  0
  3 13  1  0  0  0  0
  4  7  2  0  0  0  0
  5  8  1  0  0  0  0
  5  4  1  0  0  0  0
  6  2  1  0  0  0  0
  7  3  1  0  0  0  0
  7  2  1  0  0  0  0
  8 12  1  1  0  0  0
  8  9  1  0  0  0  0
  9 15  1  6  0  0  0
  9  6  1  0  0  0  0
 10 11  1  0  0  0  0
 10 12  1  0  0  0  0
 11 12  1  0  0  0  0
 13 14  1  0  0  0  0
 16 22  1  0  0  0  0
 17 20  1  0  0  0  0
 17 18  1  0  0  0  0
 18 15  1  6  0  0  0
 18 16  1  0  0  0  0
 19 22  1  0  0  0  0
 19 21  1  6  0  0  0
 20 28  1  6  0  0  0
 20 23  1  0  0  0  0
 23 19  1  0  0  0  0
 24 27  1  0  0  0  0
 25 24  1  0  0  0  0
 26 28  1  0  0  0  0
 28 27  1  0  0  0  0
 29 25  1  0  0  0  0
 29 26  1  0  0  0  0
 30  6  1  0  0  0  0
 30 31  1  0  0  0  0
 31 33  1  0  0  0  0
 31 32  1  0  0  0  0
 33 32  1  0  0  0  0
M  END
>  <MODEL>
3

>  <REMARK>
 VINA RESULT:      -7.3      2.599      3.899
  Name = 
  7 active torsions:
  status: ('A' for Active; 'I' for Inactive)
    1  A    between atoms: C_6  and  C_32
    2  A    between atoms: C_9  and  C_11
    3  A    between atoms: C_11  and  C_29
    4  A    between atoms: N_13  and  O_21
    5  A    between atoms: N_16  and  C_32
    6  A    between atoms: N_20  and  C_24
    7  A    between atoms: C_22  and  C_26
                            x       y       z     vdW  Elec       q    Type
                         _______ _______ _______ _____ _____    ______ ____

>  <TORSDO>
F 7

$$$$
=
 OpenBabel11062421143D

 33 37  0  0  1  0  0  0  0  0999 V2000
  193.6860  173.2690  145.5950 O   0  0  0  0  0  0  0  0  0  0  0  0
  193.4850  176.2870  142.6530 C   0  0  0  0  0  2  0  0  0  0  0  0
  196.0000  176.0040  142.6380 N   0  0  0  0  0  2  0  0  0  0  0  0
  194.7240  174.7930  144.1880 N   0  0  0  0  0  0  0  0  0  0  0  0
  193.5830  174.3270  144.9240 C   0  0  0  0  0  0  0  0  0  0  0  0
  192.3720  175.3480  142.4410 N   0  0  0  0  0  0  0  0  0  0  0  0
  194.7410  175.6570  143.2150 C   0  0  0  0  0  0  0  0  0  0  0  0
  192.2930  175.0910  144.9910 C   0  0  2  0  0  3  0  0  0  0  0  0
  191.5430  175.2180  143.6550 C   0  0  2  0  0  3  0  0  0  0  0  0
  193.2760  176.2900  146.9320 C   0  0  0  0  0  2  0  0  0  0  0  0
  191.7730  176.4510  146.9990 C   0  0  0  0  0  2  0  0  0  0  0  0
  192.4760  176.4500  145.6550 C   0  0  0  0  0  3  0  0  0  0  0  0
  196.0890  176.8230  141.5610 O   0  0  0  0  0  0  0  0  0  0  0  0
  196.6150  176.0220  140.5460 C   0  0  0  0  0  1  0  0  0  0  0  0
  190.4400  174.1690  143.5250 C   0  0  0  0  0  2  0  0  0  0  0  0
  189.1300  175.7820  142.1570 C   0  0  0  0  0  2  0  0  0  0  0  0
  188.6290  175.6660  144.9190 S   0  0  0  0  0  0  0  0  0  0  0  0
  189.0890  174.8390  143.3510 C   0  0  2  0  0  3  0  0  0  0  0  0
  186.7050  176.5220  141.9020 C   0  0  1  0  0  3  0  0  0  0  0  0
  187.5240  176.9830  144.2590 C   0  0  1  0  0  3  0  0  0  0  0  0
  186.9350  178.2310  141.4300 Cl  0  0  0  0  0  0  0  0  0  0  0  0
  187.8340  175.6380  141.3720 C   0  0  0  0  0  2  0  0  0  0  0  0
  186.4230  176.3500  143.3970 C   0  0  0  0  0  2  0  0  0  0  0  0
  184.9230  178.9940  146.0720 C   0  0  0  0  0  2  0  0  0  0  0  0
  185.7010  179.0170  147.3910 C   0  0  0  0  0  2  0  0  0  0  0  0
  186.9960  176.9780  146.5940 C   0  0  0  0  0  2  0  0  0  0  0  0
  185.5330  178.0190  145.0570 C   0  0  0  0  0  2  0  0  0  0  0  0
  186.9480  177.7760  145.3550 N   0  0  0  0  0  0  0  0  0  0  0  0
  186.2100  177.6230  147.7510 C   0  0  0  0  0  2  0  0  0  0  0  0
  192.8100  174.0540  141.9020 C   0  0  0  0  0  2  0  0  0  0  0  0
  192.5970  174.0130  140.4020 C   0  0  0  0  0  3  0  0  0  0  0  0
  191.2820  173.7130  140.1290 O   0  0  0  0  0  0  0  0  0  0  0  0
  192.2070  172.7460  140.0320 O   0  0  0  0  0  0  0  0  0  0  0  0
  2  7  1  0  0  0  0
  3  7  1  0  0  0  0
  4  5  1  0  0  0  0
  5  8  1  0  0  0  0
  5  1  2  0  0  0  0
  6  2  1  0  0  0  0
  6  9  1  0  0  0  0
  7  4  2  0  0  0  0
  8 12  1  6  0  0  0
  9 15  1  6  0  0  0
  9  8  1  0  0  0  0
 10 11  1  0  0  0  0
 12 10  1  0  0  0  0
 12 11  1  0  0  0  0
 13  3  1  0  0  0  0
 14 13  1  0  0  0  0
 16 18  1  0  0  0  0
 18 15  1  1  0  0  0
 18 17  1  0  0  0  0
 19 21  1  1  0  0  0
 19 23  1  0  0  0  0
 20 23  1  1  0  0  0
 20 17  1  0  0  0  0
 20 28  1  0  0  0  0
 22 19  1  0  0  0  0
 22 16  1  0  0  0  0
 24 25  1  0  0  0  0
 25 29  1  0  0  0  0
 26 29  1  0  0  0  0
 27 28  1  0  0  0  0
 27 24  1  0  0  0  0
 28 26  1  0  0  0  0
 30  6  1  0  0  0  0
 31 30  1  0  0  0  0
 32 31  1  0  0  0  0
 33 32  1  0  0  0  0
 33 31  1  0  0  0  0
M  END
>  <MODEL>
4

>  <REMARK>
 VINA RESULT:      -7.2      2.083      2.922
  Name = 
  7 active torsions:
  status: ('A' for Active; 'I' for Inactive)
    1  A    between atoms: C_6  and  C_32
    2  A    between atoms: C_9  and  C_11
    3  A    between atoms: C_11  and  C_29
    4  A    between atoms: N_13  and  O_21
    5  A    between atoms: N_16  and  C_32
    6  A    between atoms: N_20  and  C_24
    7  A    between atoms: C_22  and  C_26
                            x       y       z     vdW  Elec       q    Type
                         _______ _______ _______ _____ _____    ______ ____

>  <TORSDO>
F 7

$$$$
=
 OpenBabel11062421143D

 33 37  0  0  1  0  0  0  0  0999 V2000
  193.1900  173.0910  145.5990 O   0  0  0  0  0  0  0  0  0  0  0  0
  192.5480  175.8380  142.4610 C   0  0  0  0  0  2  0  0  0  0  0  0
  194.4420  174.5590  141.3740 N   0  0  0  0  0  2  0  0  0  0  0  0
  193.8110  174.0180  143.5650 N   0  0  0  0  0  0  0  0  0  0  0  0
  193.1230  174.0790  144.8240 C   0  0  0  0  0  0  0  0  0  0  0  0
  191.2420  175.4260  143.0000 N   0  0  0  0  0  0  0  0  0  0  0  0
  193.6190  174.7710  142.5210 C   0  0  0  0  0  0  0  0  0  0  0  0
  192.3880  175.3010  145.2910 C   0  0  2  0  0  3  0  0  0  0  0  0
  191.1570  175.6800  144.4510 C   0  0  2  0  0  3  0  0  0  0  0  0
  194.5680  176.0520  146.2170 C   0  0  0  0  0  2  0  0  0  0  0  0
  193.4710  176.8000  146.9430 C   0  0  0  0  0  2  0  0  0  0  0  0
  193.3270  176.4890  145.4660 C   0  0  0  0  0  3  0  0  0  0  0  0
  194.2400  175.2390  140.2170 O   0  0  0  0  0  0  0  0  0  0  0  0
  193.9770  174.2520  139.2660 C   0  0  0  0  0  1  0  0  0  0  0  0
  189.8640  175.1660  145.0810 C   0  0  0  0  0  2  0  0  0  0  0  0
  187.8510  176.0360  146.2520 C   0  0  0  0  0  2  0  0  0  0  0  0
  187.9800  176.2990  143.4580 S   0  0  0  0  0  0  0  0  0  0  0  0
  188.8090  176.2570  145.0920 C   0  0  2  0  0  3  0  0  0  0  0  0
  186.4000  178.1320  146.2290 C   0  0  1  0  0  3  0  0  0  0  0  0
  186.3540  177.0030  143.9580 C   0  0  1  0  0  3  0  0  0  0  0  0
  184.8140  177.4330  146.6690 Cl  0  0  0  0  0  0  0  0  0  0  0  0
  187.5490  177.3800  146.9020 C   0  0  0  0  0  2  0  0  0  0  0  0
  186.5710  178.3170  144.7190 C   0  0  0  0  0  2  0  0  0  0  0  0
  183.4130  178.2940  142.0110 C   0  0  0  0  0  2  0  0  0  0  0  0
  183.9820  177.8620  140.6560 C   0  0  0  0  0  2  0  0  0  0  0  0
  186.2970  177.8150  141.7070 C   0  0  0  0  0  2  0  0  0  0  0  0
  184.4500  178.1760  143.1360 C   0  0  0  0  0  2  0  0  0  0  0  0
  185.4940  177.2080  142.7830 N   0  0  0  0  0  0  0  0  0  0  0  0
  185.4430  178.2840  140.5140 C   0  0  0  0  0  2  0  0  0  0  0  0
  190.8830  174.0490  142.6360 C   0  0  0  0  0  2  0  0  0  0  0  0
  190.5590  173.9680  141.1570 C   0  0  0  0  0  3  0  0  0  0  0  0
  189.6460  172.9620  140.9380 O   0  0  0  0  0  0  0  0  0  0  0  0
  190.9420  172.7360  140.6750 O   0  0  0  0  0  0  0  0  0  0  0  0
  2  7  1  0  0  0  0
  2  6  1  0  0  0  0
  3  7  1  0  0  0  0
  4  5  1  0  0  0  0
  5  8  1  0  0  0  0
  5  1  2  0  0  0  0
  6  9  1  0  0  0  0
  7  4  2  0  0  0  0
  8 12  1  6  0  0  0
  9 15  1  1  0  0  0
  9  8  1  0  0  0  0
 10 11  1  0  0  0  0
 12 10  1  0  0  0  0
 12 11  1  0  0  0  0
 13  3  1  0  0  0  0
 14 13  1  0  0  0  0
 16 22  1  0  0  0  0
 17 20  1  0  0  0  0
 17 18  1  0  0  0  0
 18 15  1  6  0  0  0
 18 16  1  0  0  0  0
 19 21  1  6  0  0  0
 19 22  1  0  0  0  0
 20 28  1  6  0  0  0
 20 23  1  0  0  0  0
 23 19  1  0  0  0  0
 24 27  1  0  0  0  0
 25 24  1  0  0  0  0
 26 28  1  0  0  0  0
 28 27  1  0  0  0  0
 29 25  1  0  0  0  0
 29 26  1  0  0  0  0
 30  6  1  0  0  0  0
 31 30  1  0  0  0  0
 32 31  1  0  0  0  0
 33 32  1  0  0  0  0
 33 31  1  0  0  0  0
M  END
>  <MODEL>
5

>  <REMARK>
 VINA RESULT:      -7.1      2.621      4.185
  Name = 
  7 active torsions:
  status: ('A' for Active; 'I' for Inactive)
    1  A    between atoms: C_6  and  C_32
    2  A    between atoms: C_9  and  C_11
    3  A    between atoms: C_11  and  C_29
    4  A    between atoms: N_13  and  O_21
    5  A    between atoms: N_16  and  C_32
    6  A    between atoms: N_20  and  C_24
    7  A    between atoms: C_22  and  C_26
                            x       y       z     vdW  Elec       q    Type
                         _______ _______ _______ _____ _____    ______ ____

>  <TORSDO>
F 7

$$$$
=
 OpenBabel11062421143D

 33 37  0  0  1  0  0  0  0  0999 V2000
  193.7740  172.9590  144.4380 O   0  0  0  0  0  0  0  0  0  0  0  0
  195.2340  175.7290  141.6080 C   0  0  0  0  0  2  0  0  0  0  0  0
  197.0110  173.9600  141.2610 N   0  0  0  0  0  2  0  0  0  0  0  0
  195.4040  173.6490  142.9390 N   0  0  0  0  0  0  0  0  0  0  0  0
  194.2930  173.9160  143.8080 C   0  0  0  0  0  0  0  0  0  0  0  0
  193.7650  175.7000  141.5250 N   0  0  0  0  0  0  0  0  0  0  0  0
  195.8680  174.4090  141.9900 C   0  0  0  0  0  0  0  0  0  0  0  0
  193.7710  175.3010  144.0580 C   0  0  2  0  0  3  0  0  0  0  0  0
  193.1480  175.9910  142.8340 C   0  0  2  0  0  3  0  0  0  0  0  0
  195.1790  175.6230  146.0800 C   0  0  0  0  0  2  0  0  0  0  0  0
  194.2350  176.8020  145.9760 C   0  0  0  0  0  2  0  0  0  0  0  0
  194.8200  176.1870  144.7200 C   0  0  0  0  0  3  0  0  0  0  0  0
  197.4940  174.6510  140.1980 O   0  0  0  0  0  0  0  0  0  0  0  0
  197.5710  173.7120  139.1680 C   0  0  0  0  0  1  0  0  0  0  0  0
  191.6260  175.8630  142.8270 C   0  0  0  0  0  2  0  0  0  0  0  0
  190.7330  174.8260  144.9040 C   0  0  0  0  0  2  0  0  0  0  0  0
  189.6270  177.2650  144.0530 S   0  0  0  0  0  0  0  0  0  0  0  0
  191.0640  176.1390  144.2090 C   0  0  2  0  0  3  0  0  0  0  0  0
  190.1170  175.5460  147.2690 C   0  0  1  0  0  3  0  0  0  0  0  0
  188.7000  176.7910  145.5720 C   0  0  1  0  0  3  0  0  0  0  0  0
  188.7880  174.4030  147.6200 Cl  0  0  0  0  0  0  0  0  0  0  0  0
  191.1710  174.9170  146.3590 C   0  0  0  0  0  2  0  0  0  0  0  0
  189.6160  176.9140  146.7960 C   0  0  0  0  0  2  0  0  0  0  0  0
  185.9290  179.0900  144.5060 C   0  0  0  0  0  2  0  0  0  0  0  0
  185.1630  178.9570  145.8260 C   0  0  0  0  0  2  0  0  0  0  0  0
  186.4080  176.7830  146.2630 C   0  0  0  0  0  2  0  0  0  0  0  0
  187.0720  178.0720  144.3970 C   0  0  0  0  0  2  0  0  0  0  0  0
  187.4960  177.6200  145.7250 N   0  0  0  0  0  0  0  0  0  0  0  0
  185.0420  177.4940  146.2450 C   0  0  0  0  0  2  0  0  0  0  0  0
  193.2510  174.4700  140.9070 C   0  0  0  0  0  2  0  0  0  0  0  0
  193.4470  174.5190  139.4050 C   0  0  0  0  0  3  0  0  0  0  0  0
  192.7470  173.4920  138.8140 O   0  0  0  0  0  0  0  0  0  0  0  0
  194.0710  173.3640  138.9900 O   0  0  0  0  0  0  0  0  0  0  0  0
  2  7  1  0  0  0  0
  3  7  1  0  0  0  0
  4  5  1  0  0  0  0
  5  8  1  0  0  0  0
  5  1  2  0  0  0  0
  6  2  1  0  0  0  0
  6  9  1  0  0  0  0
  7  4  2  0  0  0  0
  8 12  1  6  0  0  0
  9 15  1  6  0  0  0
  9  8  1  0  0  0  0
 11 10  1  0  0  0  0
 12 11  1  0  0  0  0
 12 10  1  0  0  0  0
 13  3  1  0  0  0  0
 14 13  1  0  0  0  0
 16 22  1  0  0  0  0
 17 18  1  0  0  0  0
 17 20  1  0  0  0  0
 18 15  1  6  0  0  0
 18 16  1  0  0  0  0
 19 21  1  6  0  0  0
 20 28  1  1  0  0  0
 20 23  1  0  0  0  0
 22 19  1  0  0  0  0
 23 19  1  0  0  0  0
 24 25  1  0  0  0  0
 25 29  1  0  0  0  0
 27 24  1  0  0  0  0
 27 28  1  0  0  0  0
 28 26  1  0  0  0  0
 29 26  1  0  0  0  0
 30  6  1  0  0  0  0
 31 30  1  0  0  0  0
 32 33  1  0  0  0  0
 32 31  1  0  0  0  0
 33 31  1  0  0  0  0
M  END
>  <MODEL>
6

>  <REMARK>
 VINA RESULT:      -6.9      2.709      3.604
  Name = 
  7 active torsions:
  status: ('A' for Active; 'I' for Inactive)
    1  A    between atoms: C_6  and  C_32
    2  A    between atoms: C_9  and  C_11
    3  A    between atoms: C_11  and  C_29
    4  A    between atoms: N_13  and  O_21
    5  A    between atoms: N_16  and  C_32
    6  A    between atoms: N_20  and  C_24
    7  A    between atoms: C_22  and  C_26
                            x       y       z     vdW  Elec       q    Type
                         _______ _______ _______ _____ _____    ______ ____

>  <TORSDO>
F 7

$$$$
=
 OpenBabel11062421143D

 33 37  0  0  1  0  0  0  0  0999 V2000
  191.4660  178.0620  144.4400 O   0  0  0  0  0  0  0  0  0  0  0  0
  187.9230  175.7690  144.3970 C   0  0  0  0  0  2  0  0  0  0  0  0
  186.8280  178.0420  144.1900 N   0  0  0  0  0  2  0  0  0  0  0  0
  189.1510  177.9170  144.4750 N   0  0  0  0  0  0  0  0  0  0  0  0
  190.4550  177.3550  144.6860 C   0  0  0  0  0  0  0  0  0  0  0  0
  188.9440  175.0740  143.5960 N   0  0  0  0  0  0  0  0  0  0  0  0
  188.0220  177.2790  144.3680 C   0  0  0  0  0  0  0  0  0  0  0  0
  190.6670  175.9850  145.2620 C   0  0  2  0  0  3  0  0  0  0  0  0
  190.1660  174.8270  144.3850 C   0  0  2  0  0  3  0  0  0  0  0  0
  190.9140  176.7880  147.6010 C   0  0  0  0  0  2  0  0  0  0  0  0
  191.1890  175.3000  147.5880 C   0  0  0  0  0  2  0  0  0  0  0  0
  190.1210  175.8810  146.6810 C   0  0  0  0  0  3  0  0  0  0  0  0
  185.6280  177.4460  143.9770 O   0  0  0  0  0  0  0  0  0  0  0  0
  185.3470  177.6820  142.6310 C   0  0  0  0  0  1  0  0  0  0  0  0
  191.2980  174.2090  143.5660 C   0  0  0  0  0  2  0  0  0  0  0  0
  193.6520  174.9610  143.2810 C   0  0  0  0  0  2  0  0  0  0  0  0
  193.1400  172.8320  145.0410 S   0  0  0  0  0  0  0  0  0  0  0  0
  192.6300  174.4110  144.2650 C   0  0  2  0  0  3  0  0  0  0  0  0
  195.6640  175.4920  144.7510 C   0  0  1  0  0  3  0  0  0  0  0  0
  194.9660  173.0720  145.0560 C   0  0  1  0  0  3  0  0  0  0  0  0
  196.9980  175.0260  143.6560 Cl  0  0  0  0  0  0  0  0  0  0  0  0
  194.4690  176.0420  143.9740 C   0  0  0  0  0  2  0  0  0  0  0  0
  195.3070  174.3930  145.7570 C   0  0  0  0  0  2  0  0  0  0  0  0
  195.2950  169.6230  146.5040 C   0  0  0  0  0  2  0  0  0  0  0  0
  196.8150  169.7160  146.6620 C   0  0  0  0  0  2  0  0  0  0  0  0
  196.8260  171.5710  144.9230 C   0  0  0  0  0  2  0  0  0  0  0  0
  194.7290  170.7850  145.6770 C   0  0  0  0  0  2  0  0  0  0  0  0
  195.6340  171.9380  145.7090 N   0  0  0  0  0  0  0  0  0  0  0  0
  197.4680  170.2520  145.3900 C   0  0  0  0  0  2  0  0  0  0  0  0
  189.2110  175.7360  142.3120 C   0  0  0  0  0  2  0  0  0  0  0  0
  188.2410  175.2410  141.2580 C   0  0  0  0  0  3  0  0  0  0  0  0
  188.1920  173.8660  141.2820 O   0  0  0  0  0  0  0  0  0  0  0  0
  188.9210  174.4780  140.3360 O   0  0  0  0  0  0  0  0  0  0  0  0
  1  5  2  0  0  0  0
  3  7  1  0  0  0  0
  4  5  1  0  0  0  0
  5  8  1  0  0  0  0
  6  9  1  0  0  0  0
  6  2  1  0  0  0  0
  7  2  1  0  0  0  0
  7  4  2  0  0  0  0
  8 12  1  1  0  0  0
  9 15  1  6  0  0  0
  9  8  1  0  0  0  0
 11 10  1  0  0  0  0
 12 11  1  0  0  0  0
 12 10  1  0  0  0  0
 13  3  1  0  0  0  0
 14 13  1  0  0  0  0
 16 22  1  0  0  0  0
 16 18  1  0  0  0  0
 17 20  1  0  0  0  0
 18 15  1  6  0  0  0
 18 17  1  0  0  0  0
 19 21  1  6  0  0  0
 19 23  1  0  0  0  0
 20 28  1  1  0  0  0
 20 23  1  0  0  0  0
 22 19  1  0  0  0  0
 24 25  1  0  0  0  0
 26 29  1  0  0  0  0
 26 28  1  0  0  0  0
 27 28  1  0  0  0  0
 27 24  1  0  0  0  0
 29 25  1  0  0  0  0
 30  6  1  0  0  0  0
 31 32  1  0  0  0  0
 31 30  1  0  0  0  0
 33 31  1  0  0  0  0
 33 32  1  0  0  0  0
M  END
>  <MODEL>
7

>  <REMARK>
 VINA RESULT:      -6.9      3.388      8.458
  Name = 
  7 active torsions:
  status: ('A' for Active; 'I' for Inactive)
    1  A    between atoms: C_6  and  C_32
    2  A    between atoms: C_9  and  C_11
    3  A    between atoms: C_11  and  C_29
    4  A    between atoms: N_13  and  O_21
    5  A    between atoms: N_16  and  C_32
    6  A    between atoms: N_20  and  C_24
    7  A    between atoms: C_22  and  C_26
                            x       y       z     vdW  Elec       q    Type
                         _______ _______ _______ _____ _____    ______ ____

>  <TORSDO>
F 7

$$$$
=
 OpenBabel11062421143D

 33 37  0  0  1  0  0  0  0  0999 V2000
  190.4980  178.0310  144.3650 O   0  0  0  0  0  0  0  0  0  0  0  0
  186.5950  176.4620  144.0240 C   0  0  0  0  0  2  0  0  0  0  0  0
  185.9290  178.8580  144.4990 N   0  0  0  0  0  2  0  0  0  0  0  0
  188.1980  178.2730  144.5510 N   0  0  0  0  0  0  0  0  0  0  0  0
  189.3830  177.4640  144.5030 C   0  0  0  0  0  0  0  0  0  0  0  0
  187.4420  175.8460  142.9910 N   0  0  0  0  0  0  0  0  0  0  0  0
  186.9680  177.8860  144.3760 C   0  0  0  0  0  0  0  0  0  0  0  0
  189.3590  175.9750  144.6890 C   0  0  2  0  0  3  0  0  0  0  0  0
  188.6250  175.1940  143.5870 C   0  0  2  0  0  3  0  0  0  0  0  0
  189.7860  176.1410  147.1310 C   0  0  0  0  0  2  0  0  0  0  0  0
  189.8660  174.6800  146.7430 C   0  0  0  0  0  2  0  0  0  0  0  0
  188.8530  175.5880  146.0740 C   0  0  0  0  0  3  0  0  0  0  0  0
  184.6330  178.5520  144.2380 O   0  0  0  0  0  0  0  0  0  0  0  0
  183.9620  178.7970  145.4370 C   0  0  0  0  0  1  0  0  0  0  0  0
  189.5950  174.6360  142.5480 C   0  0  0  0  0  2  0  0  0  0  0  0
  191.9940  175.1010  142.0870 C   0  0  0  0  0  2  0  0  0  0  0  0
  191.3520  172.8630  143.6580 S   0  0  0  0  0  0  0  0  0  0  0  0
  191.0020  174.5770  143.1140 C   0  0  2  0  0  3  0  0  0  0  0  0
  194.1920  175.1840  143.3750 C   0  0  1  0  0  3  0  0  0  0  0  0
  193.1860  172.8580  143.4970 C   0  0  1  0  0  3  0  0  0  0  0  0
  195.3360  174.6800  142.0960 Cl  0  0  0  0  0  0  0  0  0  0  0  0
  193.0190  175.9750  142.7960 C   0  0  0  0  0  2  0  0  0  0  0  0
  193.7780  174.0290  144.2920 C   0  0  0  0  0  2  0  0  0  0  0  0
  194.8620  170.4570  145.8480 C   0  0  0  0  0  2  0  0  0  0  0  0
  194.5620  169.2290  144.9820 C   0  0  0  0  0  2  0  0  0  0  0  0
  192.6940  170.5450  143.8660 C   0  0  0  0  0  2  0  0  0  0  0  0
  194.1060  171.7020  145.3650 C   0  0  0  0  0  2  0  0  0  0  0  0
  193.7440  171.5760  143.9500 N   0  0  0  0  0  0  0  0  0  0  0  0
  193.1020  169.2180  144.5330 C   0  0  0  0  0  2  0  0  0  0  0  0
  187.7820  176.7720  141.9030 C   0  0  0  0  0  2  0  0  0  0  0  0
  186.5970  176.9440  140.9740 C   0  0  0  0  0  3  0  0  0  0  0  0
  186.9550  177.7390  139.9100 O   0  0  0  0  0  0  0  0  0  0  0  0
  186.2520  178.2750  140.9190 O   0  0  0  0  0  0  0  0  0  0  0  0
  1  5  2  0  0  0  0
  2  7  1  0  0  0  0
  5  4  1  0  0  0  0
  5  8  1  0  0  0  0
  6  9  1  0  0  0  0
  6  2  1  0  0  0  0
  7  3  1  0  0  0  0
  7  4  2  0  0  0  0
  8 12  1  1  0  0  0
  9 15  1  6  0  0  0
  9  8  1  0  0  0  0
 11 10  1  0  0  0  0
 12 11  1  0  0  0  0
 12 10  1  0  0  0  0
 13  3  1  0  0  0  0
 13 14  1  0  0  0  0
 16 22  1  0  0  0  0
 16 18  1  0  0  0  0
 18 15  1  6  0  0  0
 18 17  1  0  0  0  0
 19 21  1  6  0  0  0
 19 23  1  0  0  0  0
 20 17  1  0  0  0  0
 20 28  1  1  0  0  0
 20 23  1  0  0  0  0
 22 19  1  0  0  0  0
 25 24  1  0  0  0  0
 26 28  1  0  0  0  0
 26 29  1  0  0  0  0
 27 24  1  0  0  0  0
 28 27  1  0  0  0  0
 29 25  1  0  0  0  0
 30  6  1  0  0  0  0
 31 30  1  0  0  0  0
 32 33  1  0  0  0  0
 32 31  1  0  0  0  0
 33 31  1  0  0  0  0
M  END
>  <MODEL>
8

>  <REMARK>
 VINA RESULT:      -6.8      3.751      8.351
  Name = 
  7 active torsions:
  status: ('A' for Active; 'I' for Inactive)
    1  A    between atoms: C_6  and  C_32
    2  A    between atoms: C_9  and  C_11
    3  A    between atoms: C_11  and  C_29
    4  A    between atoms: N_13  and  O_21
    5  A    between atoms: N_16  and  C_32
    6  A    between atoms: N_20  and  C_24
    7  A    between atoms: C_22  and  C_26
                            x       y       z     vdW  Elec       q    Type
                         _______ _______ _______ _____ _____    ______ ____

>  <TORSDO>
F 7

$$$$
=
 OpenBabel11062421143D

 33 37  0  0  1  0  0  0  0  0999 V2000
  193.0710  174.5820  139.6330 O   0  0  0  0  0  0  0  0  0  0  0  0
  194.7390  173.4210  143.3310 C   0  0  0  0  0  2  0  0  0  0  0  0
  196.5880  172.5190  141.8570 N   0  0  0  0  0  2  0  0  0  0  0  0
  194.6840  173.4510  140.8570 N   0  0  0  0  0  0  0  0  0  0  0  0
  193.3850  174.0470  140.7270 C   0  0  0  0  0  0  0  0  0  0  0  0
  194.1430  174.7580  143.4830 N   0  0  0  0  0  0  0  0  0  0  0  0
  195.3050  173.1360  141.9570 C   0  0  0  0  0  0  0  0  0  0  0  0
  192.3520  173.9910  141.8150 C   0  0  2  0  0  3  0  0  0  0  0  0
  192.7180  174.7560  143.0980 C   0  0  2  0  0  3  0  0  0  0  0  0
  191.3230  171.9280  140.8900 C   0  0  0  0  0  2  0  0  0  0  0  0
  190.4290  172.4360  142.0000 C   0  0  0  0  0  2  0  0  0  0  0  0
  191.9350  172.5580  142.1240 C   0  0  0  0  0  3  0  0  0  0  0  0
  197.3360  172.2490  142.9570 O   0  0  0  0  0  0  0  0  0  0  0  0
  197.5120  170.8640  142.9360 C   0  0  0  0  0  1  0  0  0  0  0  0
  192.0810  176.1440  143.1290 C   0  0  0  0  0  2  0  0  0  0  0  0
  191.0710  175.0420  145.1160 C   0  0  0  0  0  2  0  0  0  0  0  0
  189.8990  177.4140  144.1720 S   0  0  0  0  0  0  0  0  0  0  0  0
  191.3810  176.3760  144.4560 C   0  0  2  0  0  3  0  0  0  0  0  0
  190.2010  175.7070  147.4170 C   0  0  1  0  0  3  0  0  0  0  0  0
  188.8690  176.8740  145.6000 C   0  0  1  0  0  3  0  0  0  0  0  0
  188.9190  174.4830  147.6460 Cl  0  0  0  0  0  0  0  0  0  0  0  0
  191.3690  175.1490  146.6050 C   0  0  0  0  0  2  0  0  0  0  0  0
  189.6620  177.0450  146.9030 C   0  0  0  0  0  2  0  0  0  0  0  0
  186.0440  178.9660  144.2790 C   0  0  0  0  0  2  0  0  0  0  0  0
  185.1950  178.8140  145.5440 C   0  0  0  0  0  2  0  0  0  0  0  0
  186.5380  176.7350  146.1270 C   0  0  0  0  0  2  0  0  0  0  0  0
  187.2530  178.0210  144.2790 C   0  0  0  0  0  2  0  0  0  0  0  0
  187.6080  177.6280  145.6460 N   0  0  0  0  0  0  0  0  0  0  0  0
  185.1350  177.3560  145.9930 C   0  0  0  0  0  2  0  0  0  0  0  0
  194.9190  175.8090  142.8120 C   0  0  0  0  0  2  0  0  0  0  0  0
  195.9870  176.3440  143.7440 C   0  0  0  0  0  3  0  0  0  0  0  0
  196.9070  177.0710  143.0230 O   0  0  0  0  0  0  0  0  0  0  0  0
  197.2070  175.8160  143.3880 O   0  0  0  0  0  0  0  0  0  0  0  0
  1  5  2  0  0  0  0
  2  6  1  0  0  0  0
  3  7  1  0  0  0  0
  3 13  1  0  0  0  0
  4  7  2  0  0  0  0
  5  4  1  0  0  0  0
  5  8  1  0  0  0  0
  7  2  1  0  0  0  0
  8 12  1  1  0  0  0
  8  9  1  0  0  0  0
  9 15  1  6  0  0  0
  9  6  1  0  0  0  0
 10 11  1  0  0  0  0
 10 12  1  0  0  0  0
 11 12  1  0  0  0  0
 14 13  1  0  0  0  0
 16 22  1  0  0  0  0
 17 18  1  0  0  0  0
 17 20  1  0  0  0  0
 18 15  1  6  0  0  0
 18 16  1  0  0  0  0
 19 21  1  6  0  0  0
 20 28  1  1  0  0  0
 20 23  1  0  0  0  0
 22 19  1  0  0  0  0
 23 19  1  0  0  0  0
 24 27  1  0  0  0  0
 24 25  1  0  0  0  0
 25 29  1  0  0  0  0
 27 28  1  0  0  0  0
 28 26  1  0  0  0  0
 29 26  1  0  0  0  0
 30  6  1  0  0  0  0
 30 31  1  0  0  0  0
 32 33  1  0  0  0  0
 32 31  1  0  0  0  0
 33 31  1  0  0  0  0
M  END
>  <MODEL>
9

>  <REMARK>
 VINA RESULT:      -6.8      2.696      3.703
  Name = 
  7 active torsions:
  status: ('A' for Active; 'I' for Inactive)
    1  A    between atoms: C_6  and  C_32
    2  A    between atoms: C_9  and  C_11
    3  A    between atoms: C_11  and  C_29
    4  A    between atoms: N_13  and  O_21
    5  A    between atoms: N_16  and  C_32
    6  A    between atoms: N_20  and  C_24
    7  A    between atoms: C_22  and  C_26
                            x       y       z     vdW  Elec       q    Type
                         _______ _______ _______ _____ _____    ______ ____

>  <TORSDO>
F 7

$$$$
