=
 OpenBabel11062422543D

 29 32  0  0  1  0  0  0  0  0999 V2000
  185.5230  178.1840  143.0350 C   0  0  1  0  0  3  0  0  0  0  0  0
  183.3480  179.1080  143.6270 N   0  0  0  0  0  1  0  0  0  0  0  0
  186.7550  177.3240  139.8670 C   0  0  0  0  0  0  0  0  0  0  0  0
  186.1920  178.3660  147.0520 C   0  0  0  0  0  0  0  0  0  0  0  0
  187.1680  177.6570  144.7810 N   0  0  0  0  0  0  0  0  0  0  0  0
  186.6400  177.2370  143.4700 C   0  0  2  0  0  3  0  0  0  0  0  0
  187.5560  177.1430  142.2320 C   0  0  2  0  0  0  0  0  0  0  0  0
  186.9550  177.2020  138.6510 O   0  0  0  0  0  0  0  0  0  0  0  0
  184.1190  178.6340  146.4470 N   0  0  0  0  0  0  0  0  0  0  0  0
  187.3460  178.3520  147.8850 N   0  0  0  0  0  1  0  0  0  0  0  0
  186.1460  178.0700  145.7110 C   0  0  0  0  0  0  0  0  0  0  0  0
  185.3440  177.9210  141.6620 O   0  0  0  0  0  0  0  0  0  0  0  0
  184.8260  178.2650  145.3590 C   0  0  0  0  0  0  0  0  0  0  0  0
  186.5470  177.4520  141.1510 C   0  0  0  0  0  0  0  0  0  0  0  0
  184.9570  178.7000  147.4790 N   0  0  0  0  0  2  0  0  0  0  0  0
  184.3050  178.0640  143.9540 C   0  0  2  0  0  3  0  0  0  0  0  0
  187.0890  174.7730  142.4130 O   0  0  0  0  0  1  0  0  0  0  0  0
  188.0570  175.7090  142.0480 C   0  0  0  0  0  2  0  0  0  0  0  0
  188.7310  178.1390  142.2140 C   0  0  0  0  0  2  0  0  0  0  0  0
  190.0940  177.4870  142.4140 C   0  0  0  0  0  1  0  0  0  0  0  0
  188.5220  177.3430  145.2230 C   0  0  0  0  0  2  0  0  0  0  0  0
  188.6190  175.8770  145.6360 C   0  0  0  0  0  2  0  0  0  0  0  0
  190.9990  176.6520  146.0050 C   0  0  0  0  0  2  0  0  0  0  0  0
  190.5950  174.3250  145.3260 C   0  0  0  0  0  2  0  0  0  0  0  0
  193.4220  176.7890  145.3800 C   0  0  0  0  0  1  0  0  0  0  0  0
  192.0670  176.1940  145.0330 C   0  0  1  0  0  3  0  0  0  0  0  0
  192.8270  174.1740  146.1070 O   0  0  0  0  0  1  0  0  0  0  0  0
  190.0180  175.4940  146.1170 C   0  0  2  0  0  3  0  0  0  0  0  0
  192.0450  174.6720  145.0600 C   0  0  1  0  0  3  0  0  0  0  0  0
  1 12  1  6  0  0  0
  1  6  1  0  0  0  0
  1 16  1  0  0  0  0
  3 14  2  0  0  0  0
  4 15  1  0  0  0  0
  4 10  1  0  0  0  0
  5 21  1  0  0  0  0
  5 11  1  0  0  0  0
  6  5  1  1  0  0  0
  7 18  1  6  0  0  0
  7  6  1  0  0  0  0
  8  3  2  0  0  0  0
  9 15  1  0  0  0  0
 11  4  2  0  0  0  0
 13 11  1  0  0  0  0
 13  9  2  0  0  0  0
 14 12  1  0  0  0  0
 14  7  1  0  0  0  0
 16  2  1  6  0  0  0
 16 13  1  0  0  0  0
 18 17  1  0  0  0  0
 19  7  1  0  0  0  0
 19 20  1  0  0  0  0
 21 22  1  0  0  0  0
 23 28  1  0  0  0  0
 24 28  1  0  0  0  0
 26 29  1  0  0  0  0
 26 25  1  1  0  0  0
 26 23  1  0  0  0  0
 28 22  1  6  0  0  0
 29 24  1  0  0  0  0
 29 27  1  1  0  0  0
M  END
>  <MODEL>
1

>  <REMARK>
 VINA RESULT:      -7.1      0.000      0.000
  Name = 
  5 active torsions:
  status: ('A' for Active; 'I' for Inactive)
    1  A    between atoms: C_2  and  N_12
    2  A    between atoms: C_2  and  C_23
    3  A    between atoms: C_4  and  C_14
    4  A    between atoms: C_8  and  C_14
    5  A    between atoms: C_23  and  C_25
                            x       y       z     vdW  Elec       q    Type
                         _______ _______ _______ _____ _____    ______ ____

>  <TORSDO>
F 5

$$$$
=
 OpenBabel11062422543D

 29 32  0  0  1  0  0  0  0  0999 V2000
  192.1830  174.9040  143.0740 C   0  0  1  0  0  3  0  0  0  0  0  0
  194.6100  175.0700  143.1970 N   0  0  0  0  0  1  0  0  0  0  0  0
  190.1930  173.7370  140.4340 C   0  0  0  0  0  0  0  0  0  0  0  0
  192.3350  176.4700  146.8350 C   0  0  0  0  0  0  0  0  0  0  0  0
  190.7870  175.6820  144.9380 N   0  0  0  0  0  0  0  0  0  0  0  0
  190.8630  175.5620  143.4710 C   0  0  2  0  0  3  0  0  0  0  0  0
  189.7990  174.7770  142.6770 C   0  0  2  0  0  0  0  0  0  0  0  0
  189.7610  173.1990  139.4060 O   0  0  0  0  0  0  0  0  0  0  0  0
  194.1960  176.5770  145.7130 N   0  0  0  0  0  0  0  0  0  0  0  0
  191.4380  176.5350  147.9390 N   0  0  0  0  0  1  0  0  0  0  0  0
  192.0280  176.0880  145.5510 C   0  0  0  0  0  0  0  0  0  0  0  0
  192.0040  174.5200  141.7300 O   0  0  0  0  0  0  0  0  0  0  0  0
  193.2290  176.1530  144.8740 C   0  0  0  0  0  0  0  0  0  0  0  0
  190.6480  174.3060  141.5190 C   0  0  0  0  0  0  0  0  0  0  0  0
  193.6490  176.7650  146.9120 N   0  0  0  0  0  2  0  0  0  0  0  0
  193.3750  175.8030  143.4100 C   0  0  2  0  0  3  0  0  0  0  0  0
  187.4420  175.1870  142.2980 O   0  0  0  0  0  1  0  0  0  0  0  0
  188.7210  175.7260  142.1490 C   0  0  0  0  0  2  0  0  0  0  0  0
  189.1630  173.5940  143.4330 C   0  0  0  0  0  2  0  0  0  0  0  0
  190.1050  172.4130  143.6320 C   0  0  0  0  0  1  0  0  0  0  0  0
  189.5210  175.7490  145.6590 C   0  0  0  0  0  2  0  0  0  0  0  0
  188.8930  177.1320  145.5020 C   0  0  0  0  0  2  0  0  0  0  0  0
  186.7820  178.0370  144.4400 C   0  0  0  0  0  2  0  0  0  0  0  0
  186.7550  177.4370  146.8220 C   0  0  0  0  0  2  0  0  0  0  0  0
  184.7480  179.4990  144.4180 C   0  0  0  0  0  1  0  0  0  0  0  0
  185.9480  179.0290  145.2230 C   0  0  1  0  0  3  0  0  0  0  0  0
  184.4320  177.5470  146.3690 O   0  0  0  0  0  1  0  0  0  0  0  0
  187.3660  177.0830  145.4710 C   0  0  2  0  0  3  0  0  0  0  0  0
  185.5740  178.3390  146.5270 C   0  0  1  0  0  3  0  0  0  0  0  0
  1 12  1  6  0  0  0
  1 16  1  0  0  0  0
  1  6  1  0  0  0  0
  3 14  2  0  0  0  0
  4 15  1  0  0  0  0
  4 10  1  0  0  0  0
  5 11  1  0  0  0  0
  5 21  1  0  0  0  0
  6  5  1  1  0  0  0
  7 18  1  6  0  0  0
  7 19  1  0  0  0  0
  7  6  1  0  0  0  0
  8  3  2  0  0  0  0
  9 15  1  0  0  0  0
 11  4  2  0  0  0  0
 13 11  1  0  0  0  0
 13  9  2  0  0  0  0
 14 12  1  0  0  0  0
 14  7  1  0  0  0  0
 16  2  1  1  0  0  0
 16 13  1  0  0  0  0
 18 17  1  0  0  0  0
 19 20  1  0  0  0  0
 22 21  1  0  0  0  0
 23 26  1  0  0  0  0
 23 28  1  0  0  0  0
 26 25  1  6  0  0  0
 26 29  1  0  0  0  0
 28 22  1  1  0  0  0
 28 24  1  0  0  0  0
 29 27  1  6  0  0  0
 29 24  1  0  0  0  0
M  END
>  <MODEL>
2

>  <REMARK>
 VINA RESULT:      -6.8      3.331      6.462
  Name = 
  5 active torsions:
  status: ('A' for Active; 'I' for Inactive)
    1  A    between atoms: C_2  and  N_12
    2  A    between atoms: C_2  and  C_23
    3  A    between atoms: C_4  and  C_14
    4  A    between atoms: C_8  and  C_14
    5  A    between atoms: C_23  and  C_25
                            x       y       z     vdW  Elec       q    Type
                         _______ _______ _______ _____ _____    ______ ____

>  <TORSDO>
F 5

$$$$
=
 OpenBabel11062422543D

 29 32  0  0  1  0  0  0  0  0999 V2000
  191.8690  174.1900  143.4710 C   0  0  1  0  0  3  0  0  0  0  0  0
  192.6220  171.9960  142.7280 N   0  0  0  0  0  1  0  0  0  0  0  0
  193.1750  176.2120  146.0210 C   0  0  0  0  0  0  0  0  0  0  0  0
  189.0470  173.7090  140.5690 C   0  0  0  0  0  0  0  0  0  0  0  0
  189.8990  175.2410  142.4500 N   0  0  0  0  0  0  0  0  0  0  0  0
  190.6510  175.0800  143.7080 C   0  0  2  0  0  3  0  0  0  0  0  0
  191.2180  176.3010  144.4620 C   0  0  2  0  0  0  0  0  0  0  0  0
  193.8850  176.7390  146.8870 O   0  0  0  0  0  0  0  0  0  0  0  0
  190.1580  171.9100  141.0850 N   0  0  0  0  0  0  0  0  0  0  0  0
  188.1770  174.5770  139.8520 N   0  0  0  0  0  1  0  0  0  0  0  0
  189.7870  174.0240  141.6830 C   0  0  2  0  0  3  0  0  0  0  0  0
  192.6860  174.3900  144.6020 O   0  0  0  0  0  0  0  0  0  0  0  0
  190.4870  172.8710  141.9720 C   0  0  0  0  0  0  0  0  0  0  0  0
  192.4250  175.6580  145.1050 C   0  0  0  0  0  0  0  0  0  0  0  0
  189.2830  172.4250  140.2260 N   0  0  0  0  0  0  0  0  0  0  0  0
  191.4520  172.7580  143.1310 C   0  0  2  0  0  3  0  0  0  0  0  0
  189.4460  175.6930  145.9970 O   0  0  0  0  0  1  0  0  0  0  0  0
  190.2490  176.7470  145.5590 C   0  0  0  0  0  2  0  0  0  0  0  0
  191.6170  177.4910  143.5680 C   0  0  0  0  0  2  0  0  0  0  0  0
  190.9480  178.8030  143.9570 C   0  0  0  0  0  1  0  0  0  0  0  0
  189.0460  176.3940  142.1840 C   0  0  0  0  0  2  0  0  0  0  0  0
  187.7200  176.2580  142.9280 C   0  0  0  0  0  2  0  0  0  0  0  0
  186.4440  177.3420  144.8250 C   0  0  0  0  0  2  0  0  0  0  0  0
  186.4200  178.4060  142.6110 C   0  0  0  0  0  2  0  0  0  0  0  0
  184.4400  178.4920  145.7930 C   0  0  0  0  0  1  0  0  0  0  0  0
  185.0760  177.9240  144.5360 C   0  0  1  0  0  3  0  0  0  0  0  0
  185.6570  180.1930  143.9650 O   0  0  0  0  0  1  0  0  0  0  0  0
  187.2660  177.5710  143.5640 C   0  0  2  0  0  3  0  0  0  0  0  0
  185.2750  178.9570  143.4350 C   0  0  1  0  0  3  0  0  0  0  0  0
  1  6  1  0  0  0  0
  1 12  1  1  0  0  0
  3  8  2  0  0  0  0
  6  5  1  6  0  0  0
  6  7  1  0  0  0  0
  7 19  1  6  0  0  0
  7 14  1  0  0  0  0
  7 18  1  0  0  0  0
  9 13  2  0  0  0  0
 10  4  1  0  0  0  0
 11  4  1  6  0  0  0
 11 13  1  0  0  0  0
 11  5  1  0  0  0  0
 12 14  1  0  0  0  0
 13 16  1  0  0  0  0
 14  3  2  0  0  0  0
 15  4  2  0  0  0  0
 15  9  1  0  0  0  0
 16  2  1  6  0  0  0
 16  1  1  0  0  0  0
 18 17  1  0  0  0  0
 19 20  1  0  0  0  0
 21  5  1  0  0  0  0
 21 22  1  0  0  0  0
 24 29  1  0  0  0  0
 24 28  1  0  0  0  0
 26 23  1  0  0  0  0
 26 25  1  1  0  0  0
 28 22  1  6  0  0  0
 28 23  1  0  0  0  0
 29 27  1  1  0  0  0
 29 26  1  0  0  0  0
M  END
>  <MODEL>
3

>  <REMARK>
 VINA RESULT:      -6.8      3.522      7.421
  Name = 
  5 active torsions:
  status: ('A' for Active; 'I' for Inactive)
    1  A    between atoms: C_2  and  N_12
    2  A    between atoms: C_2  and  C_23
    3  A    between atoms: C_4  and  C_14
    4  A    between atoms: C_8  and  C_14
    5  A    between atoms: C_23  and  C_25
                            x       y       z     vdW  Elec       q    Type
                         _______ _______ _______ _____ _____    ______ ____

>  <TORSDO>
F 5

$$$$
=
 OpenBabel11062422543D

 29 32  0  0  1  0  0  0  0  0999 V2000
  191.8760  175.1140  144.5560 C   0  0  1  0  0  3  0  0  0  0  0  0
  193.9670  174.2430  143.6590 N   0  0  0  0  0  1  0  0  0  0  0  0
  191.2910  176.6740  147.6410 C   0  0  0  0  0  0  0  0  0  0  0  0
  190.3290  173.7780  141.0290 C   0  0  0  0  0  0  0  0  0  0  0  0
  189.7870  174.8860  143.2850 N   0  0  0  0  0  0  0  0  0  0  0  0
  190.3660  174.8990  144.6410 C   0  0  2  0  0  3  0  0  0  0  0  0
  189.9010  175.9200  145.6990 C   0  0  2  0  0  0  0  0  0  0  0  0
  191.3960  177.2600  148.7260 O   0  0  0  0  0  0  0  0  0  0  0  0
  192.3320  173.0640  141.4880 N   0  0  0  0  0  0  0  0  0  0  0  0
  189.1470  174.0410  140.2800 N   0  0  0  0  0  1  0  0  0  0  0  0
  190.5830  174.1630  142.3230 C   0  0  2  0  0  3  0  0  0  0  0  0
  192.2650  175.4610  145.8650 O   0  0  0  0  0  0  0  0  0  0  0  0
  191.8610  173.7090  142.5750 C   0  0  0  0  0  0  0  0  0  0  0  0
  191.1790  176.0550  146.4950 C   0  0  0  0  0  0  0  0  0  0  0  0
  191.3960  173.1110  140.5430 N   0  0  0  0  0  0  0  0  0  0  0  0
  192.5700  173.9210  143.8940 C   0  0  2  0  0  3  0  0  0  0  0  0
  187.6980  176.1290  146.6830 O   0  0  0  0  0  1  0  0  0  0  0  0
  188.8220  175.3060  146.5940 C   0  0  0  0  0  2  0  0  0  0  0  0
  189.4370  177.2780  145.1360 C   0  0  0  0  0  2  0  0  0  0  0  0
  190.5370  178.0570  144.4250 C   0  0  0  0  0  1  0  0  0  0  0  0
  188.3970  175.2360  143.0190 C   0  0  0  0  0  2  0  0  0  0  0  0
  188.3220  176.4760  142.1310 C   0  0  0  0  0  2  0  0  0  0  0  0
  187.0460  178.6030  142.6330 C   0  0  0  0  0  2  0  0  0  0  0  0
  185.9960  176.4380  143.1290 C   0  0  0  0  0  2  0  0  0  0  0  0
  185.5940  180.0430  144.0800 C   0  0  0  0  0  1  0  0  0  0  0  0
  186.2560  178.6840  143.9230 C   0  0  1  0  0  3  0  0  0  0  0  0
  184.1080  177.8680  143.1960 O   0  0  0  0  0  1  0  0  0  0  0  0
  186.9520  177.1520  142.1820 C   0  0  2  0  0  3  0  0  0  0  0  0
  185.2700  177.5250  143.8940 C   0  0  1  0  0  3  0  0  0  0  0  0
  1  6  1  0  0  0  0
  1 12  1  1  0  0  0
  3  8  2  0  0  0  0
  6  5  1  6  0  0  0
  6  7  1  0  0  0  0
  7 19  1  6  0  0  0
  7 14  1  0  0  0  0
  7 18  1  0  0  0  0
  9 13  2  0  0  0  0
 10  4  1  0  0  0  0
 11  4  1  6  0  0  0
 11 13  1  0  0  0  0
 11  5  1  0  0  0  0
 12 14  1  0  0  0  0
 13 16  1  0  0  0  0
 14  3  2  0  0  0  0
 15  4  2  0  0  0  0
 15  9  1  0  0  0  0
 16  2  1  6  0  0  0
 16  1  1  0  0  0  0
 18 17  1  0  0  0  0
 20 19  1  0  0  0  0
 21  5  1  0  0  0  0
 22 21  1  0  0  0  0
 23 26  1  0  0  0  0
 24 29  1  0  0  0  0
 26 25  1  6  0  0  0
 28 22  1  1  0  0  0
 28 23  1  0  0  0  0
 28 24  1  0  0  0  0
 29 27  1  6  0  0  0
 29 26  1  0  0  0  0
M  END
>  <MODEL>
4

>  <REMARK>
 VINA RESULT:      -6.6      3.362      7.462
  Name = 
  5 active torsions:
  status: ('A' for Active; 'I' for Inactive)
    1  A    between atoms: C_2  and  N_12
    2  A    between atoms: C_2  and  C_23
    3  A    between atoms: C_4  and  C_14
    4  A    between atoms: C_8  and  C_14
    5  A    between atoms: C_23  and  C_25
                            x       y       z     vdW  Elec       q    Type
                         _______ _______ _______ _____ _____    ______ ____

>  <TORSDO>
F 5

$$$$
=
 OpenBabel11062422543D

 29 32  0  0  1  0  0  0  0  0999 V2000
  191.5980  173.7840  143.9440 C   0  0  1  0  0  3  0  0  0  0  0  0
  191.4730  171.6580  142.7620 N   0  0  0  0  0  1  0  0  0  0  0  0
  194.2180  175.0630  145.8910 C   0  0  0  0  0  0  0  0  0  0  0  0
  187.8460  174.3250  142.4450 C   0  0  0  0  0  0  0  0  0  0  0  0
  189.6880  175.3280  143.9320 N   0  0  0  0  0  0  0  0  0  0  0  0
  190.8080  174.8180  144.7440 C   0  0  2  0  0  3  0  0  0  0  0  0
  191.8890  175.7670  145.3010 C   0  0  2  0  0  0  0  0  0  0  0  0
  195.3090  175.2950  146.4280 O   0  0  0  0  0  0  0  0  0  0  0  0
  188.6190  172.2970  142.2900 N   0  0  0  0  0  0  0  0  0  0  0  0
  186.9940  175.4460  142.2350 N   0  0  0  0  0  1  0  0  0  0  0  0
  189.0090  174.3050  143.1750 C   0  0  2  0  0  3  0  0  0  0  0  0
  192.8100  173.6350  144.6470 O   0  0  0  0  0  0  0  0  0  0  0  0
  189.4790  173.0140  143.0430 C   0  0  0  0  0  0  0  0  0  0  0  0
  193.0660  174.8190  145.3240 C   0  0  0  0  0  0  0  0  0  0  0  0
  187.6250  173.1020  141.9210 N   0  0  0  0  0  0  0  0  0  0  0  0
  190.7620  172.5300  143.6800 C   0  0  2  0  0  3  0  0  0  0  0  0
  190.7740  175.2120  147.3770 O   0  0  0  0  0  1  0  0  0  0  0  0
  191.5520  176.1760  146.7360 C   0  0  0  0  0  2  0  0  0  0  0  0
  192.1770  177.0080  144.4320 C   0  0  0  0  0  2  0  0  0  0  0  0
  192.8640  176.6880  143.1110 C   0  0  0  0  0  1  0  0  0  0  0  0
  189.0920  176.6410  144.1480 C   0  0  0  0  0  2  0  0  0  0  0  0
  188.3950  176.6920  145.5050 C   0  0  0  0  0  2  0  0  0  0  0  0
  186.5990  178.0580  144.3610 C   0  0  0  0  0  2  0  0  0  0  0  0
  186.2930  177.4190  146.7130 C   0  0  0  0  0  2  0  0  0  0  0  0
  184.9310  179.9260  144.2790 C   0  0  0  0  0  1  0  0  0  0  0  0
  185.9490  179.1880  145.1320 C   0  0  1  0  0  3  0  0  0  0  0  0
  184.0810  178.0400  146.1330 O   0  0  0  0  0  1  0  0  0  0  0  0
  186.8980  176.9750  145.3870 C   0  0  2  0  0  3  0  0  0  0  0  0
  185.3540  178.5610  146.3850 C   0  0  1  0  0  3  0  0  0  0  0  0
  1 12  1  1  0  0  0
  1  6  1  0  0  0  0
  3  8  2  0  0  0  0
  5 21  1  0  0  0  0
  6  5  1  6  0  0  0
  6  7  1  0  0  0  0
  7 19  1  6  0  0  0
  7 14  1  0  0  0  0
  7 18  1  0  0  0  0
  9 13  2  0  0  0  0
 10  4  1  0  0  0  0
 11  4  1  6  0  0  0
 11  5  1  0  0  0  0
 12 14  1  0  0  0  0
 13 11  1  0  0  0  0
 13 16  1  0  0  0  0
 14  3  2  0  0  0  0
 15  9  1  0  0  0  0
 15  4  2  0  0  0  0
 16  2  1  6  0  0  0
 16  1  1  0  0  0  0
 18 17  1  0  0  0  0
 20 19  1  0  0  0  0
 21 22  1  0  0  0  0
 23 26  1  0  0  0  0
 23 28  1  0  0  0  0
 26 25  1  6  0  0  0
 26 29  1  0  0  0  0
 28 22  1  1  0  0  0
 28 24  1  0  0  0  0
 29 27  1  6  0  0  0
 29 24  1  0  0  0  0
M  END
>  <MODEL>
5

>  <REMARK>
 VINA RESULT:      -6.5      3.424      7.102
  Name = 
  5 active torsions:
  status: ('A' for Active; 'I' for Inactive)
    1  A    between atoms: C_2  and  N_12
    2  A    between atoms: C_2  and  C_23
    3  A    between atoms: C_4  and  C_14
    4  A    between atoms: C_8  and  C_14
    5  A    between atoms: C_23  and  C_25
                            x       y       z     vdW  Elec       q    Type
                         _______ _______ _______ _____ _____    ______ ____

>  <TORSDO>
F 5

$$$$
=
 OpenBabel11062422543D

 29 32  0  0  1  0  0  0  0  0999 V2000
  187.3200  177.5860  146.2070 C   0  0  1  0  0  3  0  0  0  0  0  0
  185.3930  178.5960  147.3050 N   0  0  0  0  0  1  0  0  0  0  0  0
  190.3440  176.5180  147.6230 C   0  0  0  0  0  0  0  0  0  0  0  0
  185.0680  178.0340  142.8390 C   0  0  0  0  0  0  0  0  0  0  0  0
  187.3380  177.2680  143.7720 N   0  0  0  0  0  0  0  0  0  0  0  0
  188.1770  177.5800  144.9430 C   0  0  2  0  0  3  0  0  0  0  0  0
  189.3890  176.7010  145.3160 C   0  0  2  0  0  0  0  0  0  0  0  0
  191.2460  176.1530  148.3880 O   0  0  0  0  0  0  0  0  0  0  0  0
  184.3450  179.1150  144.5840 N   0  0  0  0  0  0  0  0  0  0  0  0
  185.0800  177.4680  141.5330 N   0  0  0  0  0  1  0  0  0  0  0  0
  186.0530  177.9240  143.7900 C   0  0  2  0  0  3  0  0  0  0  0  0
  188.2440  177.5360  147.2700 O   0  0  0  0  0  0  0  0  0  0  0  0
  185.5570  178.6040  144.8830 C   0  0  0  0  0  0  0  0  0  0  0  0
  189.3920  176.9030  146.8140 C   0  0  0  0  0  0  0  0  0  0  0  0
  184.0460  178.7610  143.3360 N   0  0  0  0  0  0  0  0  0  0  0  0
  186.3100  178.7370  146.1870 C   0  0  2  0  0  3  0  0  0  0  0  0
  190.4730  178.5790  144.2380 O   0  0  0  0  0  1  0  0  0  0  0  0
  190.6740  177.2890  144.7320 C   0  0  0  0  0  2  0  0  0  0  0  0
  189.2510  175.2110  144.9450 C   0  0  0  0  0  2  0  0  0  0  0  0
  190.5710  174.4490  144.9620 C   0  0  0  0  0  1  0  0  0  0  0  0
  187.8740  176.6690  142.5550 C   0  0  0  0  0  2  0  0  0  0  0  0
  187.3520  175.2440  142.3900 C   0  0  0  0  0  2  0  0  0  0  0  0
  188.2530  172.9500  141.8160 C   0  0  0  0  0  2  0  0  0  0  0  0
  189.6300  174.9270  141.3330 C   0  0  0  0  0  2  0  0  0  0  0  0
  190.0660  171.2240  141.7340 C   0  0  0  0  0  1  0  0  0  0  0  0
  189.7110  172.6560  142.0970 C   0  0  1  0  0  3  0  0  0  0  0  0
  190.7180  173.2960  140.0020 O   0  0  0  0  0  1  0  0  0  0  0  0
  188.1960  174.4190  141.4200 C   0  0  2  0  0  3  0  0  0  0  0  0
  190.5130  173.6960  141.3270 C   0  0  1  0  0  3  0  0  0  0  0  0
  1 12  1  1  0  0  0
  3  8  2  0  0  0  0
  4 15  2  0  0  0  0
  5 11  1  0  0  0  0
  6  5  1  6  0  0  0
  6  7  1  0  0  0  0
  6  1  1  0  0  0  0
  7 18  1  6  0  0  0
  7 14  1  0  0  0  0
  9 13  2  0  0  0  0
 10  4  1  0  0  0  0
 11  4  1  1  0  0  0
 11 13  1  0  0  0  0
 13 16  1  0  0  0  0
 14 12  1  0  0  0  0
 14  3  2  0  0  0  0
 15  9  1  0  0  0  0
 16  1  1  0  0  0  0
 16  2  1  1  0  0  0
 17 18  1  0  0  0  0
 19 20  1  0  0  0  0
 19  7  1  0  0  0  0
 21  5  1  0  0  0  0
 22 21  1  0  0  0  0
 23 26  1  0  0  0  0
 24 28  1  0  0  0  0
 26 25  1  6  0  0  0
 28 23  1  0  0  0  0
 28 22  1  1  0  0  0
 29 27  1  6  0  0  0
 29 24  1  0  0  0  0
 29 26  1  0  0  0  0
M  END
>  <MODEL>
6

>  <REMARK>
 VINA RESULT:      -6.5      2.516      5.063
  Name = 
  5 active torsions:
  status: ('A' for Active; 'I' for Inactive)
    1  A    between atoms: C_2  and  N_12
    2  A    between atoms: C_2  and  C_23
    3  A    between atoms: C_4  and  C_14
    4  A    between atoms: C_8  and  C_14
    5  A    between atoms: C_23  and  C_25
                            x       y       z     vdW  Elec       q    Type
                         _______ _______ _______ _____ _____    ______ ____

>  <TORSDO>
F 5

$$$$
=
 OpenBabel11062422543D

 29 32  0  0  1  0  0  0  0  0999 V2000
  186.6810  177.0560  141.1020 C   0  0  1  0  0  3  0  0  0  0  0  0
  185.8630  177.1120  138.8090 N   0  0  0  0  0  1  0  0  0  0  0  0
  186.0340  179.2970  143.7200 C   0  0  0  0  0  0  0  0  0  0  0  0
  188.6080  173.6860  139.8570 C   0  0  0  0  0  0  0  0  0  0  0  0
  188.2370  175.2980  141.8250 N   0  0  0  0  0  0  0  0  0  0  0  0
  187.8720  176.7160  141.9970 C   0  0  2  0  0  3  0  0  0  0  0  0
  187.4750  177.2790  143.3780 C   0  0  2  0  0  0  0  0  0  0  0  0
  185.5670  180.1720  144.4590 O   0  0  0  0  0  0  0  0  0  0  0  0
  187.7750  174.9150  138.2670 N   0  0  0  0  0  0  0  0  0  0  0  0
  189.2010  172.5650  140.5030 N   0  0  0  0  0  1  0  0  0  0  0  0
  188.1920  174.8510  140.4540 C   0  0  2  0  0  3  0  0  0  0  0  0
  186.2020  178.2860  141.5930 O   0  0  0  0  0  0  0  0  0  0  0  0
  187.6580  175.5970  139.4240 C   0  0  0  0  0  0  0  0  0  0  0  0
  186.5280  178.3710  142.9400 C   0  0  0  0  0  0  0  0  0  0  0  0
  188.3510  173.7460  138.5340 N   0  0  0  0  0  0  0  0  0  0  0  0
  187.0590  176.9720  139.6220 C   0  0  2  0  0  3  0  0  0  0  0  0
  189.7320  178.1300  143.1630 O   0  0  0  0  0  1  0  0  0  0  0  0
  188.6870  177.9160  144.0620 C   0  0  0  0  0  2  0  0  0  0  0  0
  186.7850  176.2710  144.3180 C   0  0  0  0  0  2  0  0  0  0  0  0
  186.9400  176.6040  145.7970 C   0  0  0  0  0  1  0  0  0  0  0  0
  188.9230  174.5300  142.8580 C   0  0  0  0  0  2  0  0  0  0  0  0
  190.4300  174.7650  142.7810 C   0  0  0  0  0  2  0  0  0  0  0  0
  190.1240  174.4590  145.2740 C   0  0  0  0  0  2  0  0  0  0  0  0
  192.0520  175.7460  144.4590 C   0  0  0  0  0  2  0  0  0  0  0  0
  190.1160  175.2910  147.6380 C   0  0  0  0  0  1  0  0  0  0  0  0
  190.3930  175.6390  146.1850 C   0  0  1  0  0  3  0  0  0  0  0  0
  192.7270  175.3080  146.6870 O   0  0  0  0  0  1  0  0  0  0  0  0
  191.1220  174.5840  144.1320 C   0  0  2  0  0  3  0  0  0  0  0  0
  191.8310  176.0630  145.9230 C   0  0  1  0  0  3  0  0  0  0  0  0
  1 12  1  1  0  0  0
  1  6  1  0  0  0  0
  3  8  2  0  0  0  0
  4 11  1  0  0  0  0
  4 10  1  0  0  0  0
  5 21  1  0  0  0  0
  6  5  1  1  0  0  0
  6  7  1  0  0  0  0
  7 18  1  1  0  0  0
  7 19  1  0  0  0  0
  9 15  1  0  0  0  0
  9 13  2  0  0  0  0
 11 13  1  1  0  0  0
 11  5  1  0  0  0  0
 12 14  1  0  0  0  0
 13 16  1  0  0  0  0
 14  7  1  0  0  0  0
 14  3  2  0  0  0  0
 15  4  2  0  0  0  0
 16  2  1  6  0  0  0
 16  1  1  0  0  0  0
 17 18  1  0  0  0  0
 19 20  1  0  0  0  0
 22 21  1  0  0  0  0
 23 26  1  0  0  0  0
 24 29  1  0  0  0  0
 26 25  1  1  0  0  0
 28 22  1  6  0  0  0
 28 24  1  0  0  0  0
 28 23  1  0  0  0  0
 29 26  1  0  0  0  0
 29 27  1  1  0  0  0
M  END
>  <MODEL>
7

>  <REMARK>
 VINA RESULT:      -6.4      3.108      5.129
  Name = 
  5 active torsions:
  status: ('A' for Active; 'I' for Inactive)
    1  A    between atoms: C_2  and  N_12
    2  A    between atoms: C_2  and  C_23
    3  A    between atoms: C_4  and  C_14
    4  A    between atoms: C_8  and  C_14
    5  A    between atoms: C_23  and  C_25
                            x       y       z     vdW  Elec       q    Type
                         _______ _______ _______ _____ _____    ______ ____

>  <TORSDO>
F 5

$$$$
=
 OpenBabel11062422543D

 29 32  0  0  1  0  0  0  0  0999 V2000
  188.8780  175.7240  143.5490 C   0  0  1  0  0  3  0  0  0  0  0  0
  186.7370  175.6720  142.3870 N   0  0  0  0  0  1  0  0  0  0  0  0
  189.7090  177.3390  146.5480 C   0  0  0  0  0  0  0  0  0  0  0  0
  190.1200  173.4160  140.4270 C   0  0  0  0  0  0  0  0  0  0  0  0
  190.8410  174.6050  142.5890 N   0  0  0  0  0  0  0  0  0  0  0  0
  190.3950  175.7700  143.3740 C   0  0  2  0  0  3  0  0  0  0  0  0
  190.9280  176.0270  144.7990 C   0  0  2  0  0  0  0  0  0  0  0  0
  189.6920  177.9160  147.6430 O   0  0  0  0  0  0  0  0  0  0  0  0
  188.1910  174.3850  140.1500 N   0  0  0  0  0  0  0  0  0  0  0  0
  191.2160  172.5390  140.1930 N   0  0  0  0  0  1  0  0  0  0  0  0
  189.9790  174.2910  141.4760 C   0  0  2  0  0  3  0  0  0  0  0  0
  188.6060  176.6460  144.5790 O   0  0  0  0  0  0  0  0  0  0  0  0
  188.7450  174.8750  141.2780 C   0  0  0  0  0  0  0  0  0  0  0  0
  189.7290  176.7290  145.3920 C   0  0  0  0  0  0  0  0  0  0  0  0
  189.0300  173.4900  139.6340 N   0  0  0  0  0  0  0  0  0  0  0  0
  188.1590  175.9110  142.2110 C   0  0  2  0  0  3  0  0  0  0  0  0
  191.9410  177.9690  143.7640 O   0  0  0  0  0  1  0  0  0  0  0  0
  192.1060  177.0040  144.7580 C   0  0  0  0  0  2  0  0  0  0  0  0
  191.2970  174.7600  145.5950 C   0  0  0  0  0  2  0  0  0  0  0  0
  192.3960  174.9800  146.6280 C   0  0  0  0  0  1  0  0  0  0  0  0
  192.1890  174.0570  142.6900 C   0  0  0  0  0  2  0  0  0  0  0  0
  193.1890  174.9720  141.9870 C   0  0  0  0  0  2  0  0  0  0  0  0
  194.6910  173.9870  143.7690 C   0  0  0  0  0  2  0  0  0  0  0  0
  195.3990  176.0350  142.6120 C   0  0  0  0  0  2  0  0  0  0  0  0
  196.1980  174.1660  145.7630 C   0  0  0  0  0  1  0  0  0  0  0  0
  195.3750  174.9290  144.7380 C   0  0  1  0  0  3  0  0  0  0  0  0
  197.4480  175.3460  143.5810 O   0  0  0  0  0  1  0  0  0  0  0  0
  194.6270  174.7320  142.4440 C   0  0  2  0  0  3  0  0  0  0  0  0
  196.1980  175.8890  143.8900 C   0  0  1  0  0  3  0  0  0  0  0  0
  1 12  1  1  0  0  0
  3  8  2  0  0  0  0
  5 21  1  0  0  0  0
  6  5  1  1  0  0  0
  6  1  1  0  0  0  0
  6  7  1  0  0  0  0
  7 18  1  6  0  0  0
  7 14  1  0  0  0  0
  7 19  1  0  0  0  0
  9 13  2  0  0  0  0
 10  4  1  0  0  0  0
 11  4  1  1  0  0  0
 11  5  1  0  0  0  0
 12 14  1  0  0  0  0
 13 11  1  0  0  0  0
 13 16  1  0  0  0  0
 14  3  2  0  0  0  0
 15  9  1  0  0  0  0
 15  4  2  0  0  0  0
 16  2  1  1  0  0  0
 16  1  1  0  0  0  0
 17 18  1  0  0  0  0
 19 20  1  0  0  0  0
 22 21  1  0  0  0  0
 23 26  1  0  0  0  0
 24 29  1  0  0  0  0
 26 25  1  1  0  0  0
 28 22  1  1  0  0  0
 28 24  1  0  0  0  0
 28 23  1  0  0  0  0
 29 27  1  6  0  0  0
 29 26  1  0  0  0  0
M  END
>  <MODEL>
8

>  <REMARK>
 VINA RESULT:      -6.2      3.666      6.264
  Name = 
  5 active torsions:
  status: ('A' for Active; 'I' for Inactive)
    1  A    between atoms: C_2  and  N_12
    2  A    between atoms: C_2  and  C_23
    3  A    between atoms: C_4  and  C_14
    4  A    between atoms: C_8  and  C_14
    5  A    between atoms: C_23  and  C_25
                            x       y       z     vdW  Elec       q    Type
                         _______ _______ _______ _____ _____    ______ ____

>  <TORSDO>
F 5

$$$$
=
 OpenBabel11062422543D

 29 32  0  0  1  0  0  0  0  0999 V2000
  188.3110  175.5460  142.2990 C   0  0  1  0  0  3  0  0  0  0  0  0
  188.1900  174.5180  140.0940 N   0  0  0  0  0  1  0  0  0  0  0  0
  186.6950  178.4290  143.4690 C   0  0  0  0  0  0  0  0  0  0  0  0
  190.8700  172.4750  143.0960 C   0  0  0  0  0  0  0  0  0  0  0  0
  189.7720  174.6030  144.0320 N   0  0  0  0  0  0  0  0  0  0  0  0
  189.2210  175.8560  143.4850 C   0  0  2  0  0  3  0  0  0  0  0  0
  188.3840  176.8110  144.3610 C   0  0  2  0  0  0  0  0  0  0  0  0
  185.9420  179.3980  143.6320 O   0  0  0  0  0  0  0  0  0  0  0  0
  190.4040  172.7660  140.9910 N   0  0  0  0  0  0  0  0  0  0  0  0
  191.3690  171.8560  144.2770 N   0  0  0  0  0  1  0  0  0  0  0  0
  190.1750  173.6570  143.0200 C   0  0  2  0  0  3  0  0  0  0  0  0
  187.5790  176.7320  142.0870 O   0  0  0  0  0  0  0  0  0  0  0  0
  189.8830  173.8030  141.6790 C   0  0  0  0  0  0  0  0  0  0  0  0
  187.4900  177.4060  143.2980 C   0  0  0  0  0  0  0  0  0  0  0  0
  191.0020  171.9540  141.8590 N   0  0  0  0  0  0  0  0  0  0  0  0
  189.1070  174.9750  141.1230 C   0  0  2  0  0  3  0  0  0  0  0  0
  190.2740  178.2930  144.0500 O   0  0  0  0  0  1  0  0  0  0  0  0
  189.2700  177.9160  144.9420 C   0  0  0  0  0  2  0  0  0  0  0  0
  187.5650  176.1260  145.4730 C   0  0  0  0  0  2  0  0  0  0  0  0
  187.6050  176.8600  146.8070 C   0  0  0  0  0  1  0  0  0  0  0  0
  190.2090  174.4720  145.4180 C   0  0  0  0  0  2  0  0  0  0  0  0
  191.3120  175.4830  145.7240 C   0  0  0  0  0  2  0  0  0  0  0  0
  193.5790  174.3640  145.6210 C   0  0  0  0  0  2  0  0  0  0  0  0
  193.2790  176.5490  144.5400 C   0  0  0  0  0  2  0  0  0  0  0  0
  196.0800  174.3770  145.7620 C   0  0  0  0  0  1  0  0  0  0  0  0
  194.8150  175.2180  145.8090 C   0  0  1  0  0  3  0  0  0  0  0  0
  195.2970  175.8310  143.5280 O   0  0  0  0  0  1  0  0  0  0  0  0
  192.5730  175.2460  144.8950 C   0  0  2  0  0  3  0  0  0  0  0  0
  194.7590  176.2930  144.7330 C   0  0  1  0  0  3  0  0  0  0  0  0
  1 12  1  6  0  0  0
  1  6  1  0  0  0  0
  3  8  2  0  0  0  0
  4 10  1  0  0  0  0
  5 21  1  0  0  0  0
  6  5  1  1  0  0  0
  6  7  1  0  0  0  0
  7 18  1  1  0  0  0
  7 19  1  0  0  0  0
  9 13  2  0  0  0  0
  9 15  1  0  0  0  0
 11 13  1  1  0  0  0
 11  4  1  0  0  0  0
 11  5  1  0  0  0  0
 12 14  1  0  0  0  0
 14  3  2  0  0  0  0
 14  7  1  0  0  0  0
 15  4  2  0  0  0  0
 16  2  1  6  0  0  0
 16 13  1  0  0  0  0
 16  1  1  0  0  0  0
 17 18  1  0  0  0  0
 19 20  1  0  0  0  0
 21 22  1  0  0  0  0
 23 26  1  0  0  0  0
 24 29  1  0  0  0  0
 24 28  1  0  0  0  0
 26 25  1  6  0  0  0
 28 23  1  0  0  0  0
 28 22  1  1  0  0  0
 29 27  1  6  0  0  0
 29 26  1  0  0  0  0
M  END
>  <MODEL>
9

>  <REMARK>
 VINA RESULT:      -6.2      3.318      5.396
  Name = 
  5 active torsions:
  status: ('A' for Active; 'I' for Inactive)
    1  A    between atoms: C_2  and  N_12
    2  A    between atoms: C_2  and  C_23
    3  A    between atoms: C_4  and  C_14
    4  A    between atoms: C_8  and  C_14
    5  A    between atoms: C_23  and  C_25
                            x       y       z     vdW  Elec       q    Type
                         _______ _______ _______ _____ _____    ______ ____

>  <TORSDO>
F 5

$$$$
