=
 OpenBabel11062421273D

 31 35  0  0  1  0  0  0  0  0999 V2000
  189.7830  171.4210  141.9620 N   0  0  0  0  0  2  0  0  0  0  0  0
  189.7700  173.7300  142.7970 C   0  0  2  0  0  3  0  0  0  0  0  0
  190.5430  173.2350  144.0130 C   0  0  0  0  0  0  0  0  0  0  0  0
  189.0580  173.1440  140.5850 F   0  0  0  0  0  0  0  0  0  0  0  0
  189.9660  172.8160  141.5760 C   0  0  2  0  0  3  0  0  0  0  0  0
  190.7620  171.1060  142.9200 N   0  0  0  0  0  2  0  0  0  0  0  0
  191.0190  171.9830  144.0210 C   0  0  0  0  0  3  0  0  0  0  0  0
  189.5980  174.6060  145.9050 C   0  0  0  0  0  2  0  0  0  0  0  0
  192.0550  174.6220  145.4740 C   0  0  2  0  0  3  0  0  0  0  0  0
  189.9470  174.9060  147.3650 C   0  0  0  0  0  2  0  0  0  0  0  0
  192.3720  175.1060  146.8430 C   0  0  1  0  0  3  0  0  0  0  0  0
  194.1750  175.4310  145.0610 C   0  0  2  0  0  3  0  0  0  0  0  0
  192.9620  174.7990  144.5750 N   0  0  0  0  0  2  0  0  0  0  0  0
  193.7750  176.2430  146.6450 S   0  0  0  0  0  0  0  0  0  0  0  0
  190.7540  174.0900  145.1590 N   0  0  0  0  0  0  0  0  0  0  0  0
  194.6600  176.4540  144.0570 C   0  0  0  0  0  1  0  0  0  0  0  0
  191.1660  175.8200  147.4370 C   0  0  0  0  0  2  0  0  0  0  0  0
  190.1410  175.1680  142.4290 C   0  0  0  0  0  2  0  0  0  0  0  0
  188.9510  175.9980  142.3160 N   0  0  0  0  0  2  0  0  0  0  0  0
  186.2920  178.7440  145.3930 O   0  0  0  0  0  0  0  0  0  0  0  0
  187.1760  178.4310  144.3530 C   0  0  1  0  0  3  0  0  0  0  0  0
  186.0480  176.3560  143.4120 C   0  0  0  0  0  1  0  0  0  0  0  0
  188.3060  177.5260  144.8300 C   0  0  0  0  0  2  0  0  0  0  0  0
  185.1370  179.2140  144.7400 C   0  0  1  0  0  3  0  0  0  0  0  0
  185.0680  178.5970  143.3500 C   0  0  0  0  0  2  0  0  0  0  0  0
  188.4610  178.3760  141.7680 C   0  0  0  0  0  2  0  0  0  0  0  0
  189.3730  177.3820  142.4980 C   0  0  1  0  0  3  0  0  0  0  0  0
  183.9050  178.8230  145.5330 C   0  0  0  0  0  1  0  0  0  0  0  0
  186.3550  177.8370  143.2160 C   0  0  1  0  0  0  0  0  0  0  0  0
  186.9570  178.0620  141.8240 C   0  0  0  0  0  2  0  0  0  0  0  0
  189.5580  177.7230  143.9770 C   0  0  0  0  0  2  0  0  0  0  0  0
  1  6  1  0  0  0  0
  2 18  1  6  0  0  0
  2  3  1  0  0  0  0
  3  7  2  0  0  0  0
  3 15  1  0  0  0  0
  5  4  1  6  0  0  0
  5  1  1  0  0  0  0
  5  2  1  0  0  0  0
  6  7  1  0  0  0  0
  8 10  1  0  0  0  0
  9 13  1  6  0  0  0
  9 11  1  0  0  0  0
 10 17  1  0  0  0  0
 11 17  1  6  0  0  0
 12 16  1  6  0  0  0
 12 14  1  0  0  0  0
 13 12  1  0  0  0  0
 14 11  1  0  0  0  0
 15  9  1  0  0  0  0
 15  8  1  0  0  0  0
 19 18  1  0  0  0  0
 21 23  1  1  0  0  0
 21 20  1  0  0  0  0
 24 20  1  0  0  0  0
 24 28  1  1  0  0  0
 25 24  1  0  0  0  0
 26 30  1  0  0  0  0
 26 27  1  0  0  0  0
 27 19  1  1  0  0  0
 27 31  1  0  0  0  0
 29 25  1  0  0  0  0
 29 22  1  1  0  0  0
 29 21  1  0  0  0  0
 30 29  1  0  0  0  0
 31 23  1  0  0  0  0
M  END
>  <MODEL>
1

>  <REMARK>
 VINA RESULT:      -8.1      0.000      0.000
  Name = 
  4 active torsions:
  status: ('A' for Active; 'I' for Inactive)
    1  A    between atoms: C_4  and  C_25
    2  A    between atoms: C_6  and  N_23
    3  A    between atoms: N_8  and  C_25
    4  A    between atoms: N_8  and  C_26
                            x       y       z     vdW  Elec       q    Type
                         _______ _______ _______ _____ _____    ______ ____

>  <TORSDO>
F 4

$$$$
=
 OpenBabel11062421273D

 31 35  0  0  1  0  0  0  0  0999 V2000
  190.2270  172.5810  141.4420 N   0  0  0  0  0  2  0  0  0  0  0  0
  190.8480  173.3610  143.6870 C   0  0  2  0  0  3  0  0  0  0  0  0
  191.9200  174.2210  143.0300 C   0  0  0  0  0  0  0  0  0  0  0  0
  188.8840  172.0540  143.2610 F   0  0  0  0  0  0  0  0  0  0  0  0
  189.6950  173.0370  142.7220 C   0  0  2  0  0  3  0  0  0  0  0  0
  190.9910  173.6270  140.8950 N   0  0  0  0  0  2  0  0  0  0  0  0
  191.9380  174.3400  141.6960 C   0  0  0  0  0  3  0  0  0  0  0  0
  193.0260  176.3600  143.7750 C   0  0  0  0  0  2  0  0  0  0  0  0
  193.9600  174.1650  144.5050 C   0  0  2  0  0  3  0  0  0  0  0  0
  193.6170  176.9340  145.0660 C   0  0  0  0  0  2  0  0  0  0  0  0
  194.6940  174.7690  145.6480 C   0  0  1  0  0  3  0  0  0  0  0  0
  195.4850  172.4700  144.8570 C   0  0  2  0  0  3  0  0  0  0  0  0
  194.3700  173.0120  144.1010 N   0  0  0  0  0  2  0  0  0  0  0  0
  196.2610  173.8540  145.7580 S   0  0  0  0  0  0  0  0  0  0  0  0
  192.9220  174.8950  143.8240 N   0  0  0  0  0  0  0  0  0  0  0  0
  196.4850  171.8350  143.9150 C   0  0  0  0  0  1  0  0  0  0  0  0
  194.9390  176.2490  145.3890 C   0  0  0  0  0  2  0  0  0  0  0  0
  190.2910  174.0080  144.9560 C   0  0  0  0  0  2  0  0  0  0  0  0
  189.5490  175.2180  144.6400 N   0  0  0  0  0  2  0  0  0  0  0  0
  185.9770  177.8630  146.7190 O   0  0  0  0  0  0  0  0  0  0  0  0
  187.2610  177.5200  146.2800 C   0  0  1  0  0  3  0  0  0  0  0  0
  186.6930  176.3570  144.0920 C   0  0  0  0  0  1  0  0  0  0  0  0
  187.6950  176.1620  146.8180 C   0  0  0  0  0  2  0  0  0  0  0  0
  185.5720  178.8910  145.8470 C   0  0  1  0  0  3  0  0  0  0  0  0
  186.3030  178.7340  144.5220 C   0  0  0  0  0  2  0  0  0  0  0  0
  189.8600  177.6570  145.0290 C   0  0  0  0  0  2  0  0  0  0  0  0
  189.9550  176.2360  145.6000 C   0  0  1  0  0  3  0  0  0  0  0  0
  184.0760  178.8070  145.6160 C   0  0  0  0  0  1  0  0  0  0  0  0
  187.2630  177.6040  144.7580 C   0  0  1  0  0  0  0  0  0  0  0  0
  188.6300  177.9370  144.1500 C   0  0  0  0  0  2  0  0  0  0  0  0
  189.2170  176.0810  146.9300 C   0  0  0  0  0  2  0  0  0  0  0  0
  1  5  1  0  0  0  0
  2 18  1  1  0  0  0
  3  2  1  0  0  0  0
  3 15  1  0  0  0  0
  5  4  1  1  0  0  0
  5  2  1  0  0  0  0
  6  1  1  0  0  0  0
  6  7  1  0  0  0  0
  7  3  2  0  0  0  0
  8 15  1  0  0  0  0
  8 10  1  0  0  0  0
  9 13  1  6  0  0  0
  9 11  1  0  0  0  0
 10 17  1  0  0  0  0
 11 17  1  6  0  0  0
 11 14  1  0  0  0  0
 12 16  1  6  0  0  0
 12 14  1  0  0  0  0
 13 12  1  0  0  0  0
 15  9  1  0  0  0  0
 19 18  1  0  0  0  0
 21 20  1  0  0  0  0
 21 23  1  6  0  0  0
 23 31  1  0  0  0  0
 24 28  1  6  0  0  0
 24 20  1  0  0  0  0
 25 29  1  0  0  0  0
 25 24  1  0  0  0  0
 26 27  1  0  0  0  0
 27 19  1  6  0  0  0
 27 31  1  0  0  0  0
 29 22  1  6  0  0  0
 29 21  1  0  0  0  0
 30 29  1  0  0  0  0
 30 26  1  0  0  0  0
M  END
>  <MODEL>
2

>  <REMARK>
 VINA RESULT:      -7.8      1.905      2.857
  Name = 
  4 active torsions:
  status: ('A' for Active; 'I' for Inactive)
    1  A    between atoms: C_4  and  C_25
    2  A    between atoms: C_6  and  N_23
    3  A    between atoms: N_8  and  C_25
    4  A    between atoms: N_8  and  C_26
                            x       y       z     vdW  Elec       q    Type
                         _______ _______ _______ _____ _____    ______ ____

>  <TORSDO>
F 4

$$$$
=
 OpenBabel11062421273D

 31 35  0  0  1  0  0  0  0  0999 V2000
  189.7830  171.3230  142.3880 N   0  0  0  0  0  2  0  0  0  0  0  0
  190.1180  173.6980  142.9220 C   0  0  2  0  0  3  0  0  0  0  0  0
  191.3160  173.2810  143.7650 C   0  0  0  0  0  0  0  0  0  0  0  0
  188.5670  172.9450  141.2570 F   0  0  0  0  0  0  0  0  0  0  0  0
  189.7980  172.6690  141.8240 C   0  0  2  0  0  3  0  0  0  0  0  0
  191.0660  171.0550  142.8970 N   0  0  0  0  0  2  0  0  0  0  0  0
  191.7510  172.0150  143.7060 C   0  0  0  0  0  3  0  0  0  0  0  0
  191.2270  174.8510  145.7350 C   0  0  0  0  0  2  0  0  0  0  0  0
  193.2920  174.7330  144.3400 C   0  0  2  0  0  3  0  0  0  0  0  0
  192.1440  175.2650  146.8890 C   0  0  0  0  0  2  0  0  0  0  0  0
  194.1410  175.3250  145.4070 C   0  0  1  0  0  3  0  0  0  0  0  0
  195.0560  175.4200  143.0220 C   0  0  2  0  0  3  0  0  0  0  0  0
  193.7500  174.7950  143.1370 N   0  0  0  0  0  2  0  0  0  0  0  0
  195.3380  176.3850  144.5440 S   0  0  0  0  0  0  0  0  0  0  0  0
  191.9770  174.2260  144.6360 N   0  0  0  0  0  0  0  0  0  0  0  0
  195.0850  176.3300  141.8140 C   0  0  0  0  0  1  0  0  0  0  0  0
  193.2830  176.1350  146.3690 C   0  0  0  0  0  2  0  0  0  0  0  0
  190.3110  175.0790  142.2940 C   0  0  0  0  0  2  0  0  0  0  0  0
  189.1120  175.8890  142.4390 N   0  0  0  0  0  2  0  0  0  0  0  0
  186.3850  178.6190  145.4700 O   0  0  0  0  0  0  0  0  0  0  0  0
  187.2990  178.3110  144.4560 C   0  0  1  0  0  3  0  0  0  0  0  0
  186.1780  176.2660  143.4440 C   0  0  0  0  0  1  0  0  0  0  0  0
  188.4010  177.3850  144.9550 C   0  0  0  0  0  2  0  0  0  0  0  0
  185.2580  179.1140  144.7870 C   0  0  1  0  0  3  0  0  0  0  0  0
  185.2280  178.5200  143.3870 C   0  0  0  0  0  2  0  0  0  0  0  0
  188.6690  178.2810  141.9140 C   0  0  0  0  0  2  0  0  0  0  0  0
  189.5430  177.2630  142.6580 C   0  0  1  0  0  3  0  0  0  0  0  0
  183.9950  178.7260  145.5320 C   0  0  0  0  0  1  0  0  0  0  0  0
  186.5100  177.7460  143.2820 C   0  0  1  0  0  0  0  0  0  0  0  0
  187.1600  177.9850  141.9150 C   0  0  0  0  0  2  0  0  0  0  0  0
  189.6840  177.5780  144.1480 C   0  0  0  0  0  2  0  0  0  0  0  0
  1  6  1  0  0  0  0
  2 18  1  6  0  0  0
  2  3  1  0  0  0  0
  3 15  1  0  0  0  0
  5  4  1  1  0  0  0
  5  1  1  0  0  0  0
  5  2  1  0  0  0  0
  6  7  1  0  0  0  0
  7  3  2  0  0  0  0
  8 10  1  0  0  0  0
  9 13  1  6  0  0  0
  9 15  1  0  0  0  0
  9 11  1  0  0  0  0
 11 17  1  1  0  0  0
 12 16  1  6  0  0  0
 12 13  1  0  0  0  0
 12 14  1  0  0  0  0
 14 11  1  0  0  0  0
 15  8  1  0  0  0  0
 17 10  1  0  0  0  0
 18 19  1  0  0  0  0
 21 23  1  1  0  0  0
 21 20  1  0  0  0  0
 24 20  1  0  0  0  0
 24 28  1  1  0  0  0
 25 24  1  0  0  0  0
 26 30  1  0  0  0  0
 26 27  1  0  0  0  0
 27 19  1  1  0  0  0
 27 31  1  0  0  0  0
 29 25  1  0  0  0  0
 29 22  1  1  0  0  0
 29 21  1  0  0  0  0
 30 29  1  0  0  0  0
 31 23  1  0  0  0  0
M  END
>  <MODEL>
3

>  <REMARK>
 VINA RESULT:      -7.8      0.925      1.224
  Name = 
  4 active torsions:
  status: ('A' for Active; 'I' for Inactive)
    1  A    between atoms: C_4  and  C_25
    2  A    between atoms: C_6  and  N_23
    3  A    between atoms: N_8  and  C_25
    4  A    between atoms: N_8  and  C_26
                            x       y       z     vdW  Elec       q    Type
                         _______ _______ _______ _____ _____    ______ ____

>  <TORSDO>
F 4

$$$$
=
 OpenBabel11062421273D

 31 35  0  0  1  0  0  0  0  0999 V2000
  190.2290  171.9020  144.4760 N   0  0  0  0  0  2  0  0  0  0  0  0
  191.6710  173.8130  145.0260 C   0  0  2  0  0  3  0  0  0  0  0  0
  192.5220  173.4470  143.8170 C   0  0  0  0  0  0  0  0  0  0  0  0
  189.5660  173.4200  146.1030 F   0  0  0  0  0  0  0  0  0  0  0  0
  190.2270  173.3010  144.8930 C   0  0  2  0  0  3  0  0  0  0  0  0
  190.8500  171.8280  143.2170 N   0  0  0  0  0  2  0  0  0  0  0  0
  192.0820  172.5110  142.9660 C   0  0  0  0  0  3  0  0  0  0  0  0
  194.0250  174.8340  142.3430 C   0  0  0  0  0  2  0  0  0  0  0  0
  194.9300  173.8340  144.4420 C   0  0  2  0  0  3  0  0  0  0  0  0
  195.0800  175.9290  142.5210 C   0  0  0  0  0  2  0  0  0  0  0  0
  196.0720  174.7840  144.4950 C   0  0  1  0  0  3  0  0  0  0  0  0
  196.3050  172.6280  145.8470 C   0  0  2  0  0  3  0  0  0  0  0  0
  195.0570  172.7410  145.1140 N   0  0  0  0  0  2  0  0  0  0  0  0
  197.4800  173.8210  145.1210 S   0  0  0  0  0  0  0  0  0  0  0  0
  193.7990  174.0830  143.5860 N   0  0  0  0  0  0  0  0  0  0  0  0
  196.8480  171.2200  145.7240 C   0  0  0  0  0  1  0  0  0  0  0  0
  196.3580  175.3370  143.1060 C   0  0  0  0  0  2  0  0  0  0  0  0
  191.6600  175.3210  145.2840 C   0  0  0  0  0  2  0  0  0  0  0  0
  190.6870  175.9880  144.4330 N   0  0  0  0  0  2  0  0  0  0  0  0
  186.2290  178.0260  144.2270 O   0  0  0  0  0  0  0  0  0  0  0  0
  187.6240  177.9430  144.2980 C   0  0  1  0  0  3  0  0  0  0  0  0
  188.0330  175.9400  142.7860 C   0  0  0  0  0  1  0  0  0  0  0  0
  188.0760  177.0750  145.4670 C   0  0  0  0  0  2  0  0  0  0  0  0
  185.9730  178.4880  142.9220 C   0  0  1  0  0  3  0  0  0  0  0  0
  187.1230  178.0770  142.0160 C   0  0  0  0  0  2  0  0  0  0  0  0
  190.4290  178.3710  143.7620 C   0  0  0  0  0  2  0  0  0  0  0  0
  190.5670  177.3600  144.9080 C   0  0  1  0  0  3  0  0  0  0  0  0
  184.6790  177.8860  142.4090 C   0  0  0  0  0  1  0  0  0  0  0  0
  188.1250  177.4540  142.9450 C   0  0  1  0  0  0  0  0  0  0  0  0
  189.5380  177.9280  142.5900 C   0  0  0  0  0  2  0  0  0  0  0  0
  189.4610  177.4970  145.9550 C   0  0  0  0  0  2  0  0  0  0  0  0
  1  5  1  0  0  0  0
  2 18  1  6  0  0  0
  3  2  1  0  0  0  0
  5  2  1  0  0  0  0
  5  4  1  1  0  0  0
  6  1  1  0  0  0  0
  7  6  1  0  0  0  0
  7  3  2  0  0  0  0
  8 10  1  0  0  0  0
  8 15  1  0  0  0  0
  9 11  1  0  0  0  0
  9 13  1  6  0  0  0
 10 17  1  0  0  0  0
 11 17  1  6  0  0  0
 11 14  1  0  0  0  0
 12 16  1  6  0  0  0
 13 12  1  0  0  0  0
 14 12  1  0  0  0  0
 15  3  1  0  0  0  0
 15  9  1  0  0  0  0
 19 18  1  0  0  0  0
 20 21  1  0  0  0  0
 21 23  1  1  0  0  0
 23 31  1  0  0  0  0
 24 28  1  6  0  0  0
 24 20  1  0  0  0  0
 25 24  1  0  0  0  0
 25 29  1  0  0  0  0
 26 27  1  0  0  0  0
 27 19  1  6  0  0  0
 27 31  1  0  0  0  0
 29 22  1  6  0  0  0
 29 21  1  0  0  0  0
 30 29  1  0  0  0  0
 30 26  1  0  0  0  0
M  END
>  <MODEL>
4

>  <REMARK>
 VINA RESULT:      -7.4      2.258      3.550
  Name = 
  4 active torsions:
  status: ('A' for Active; 'I' for Inactive)
    1  A    between atoms: C_4  and  C_25
    2  A    between atoms: C_6  and  N_23
    3  A    between atoms: N_8  and  C_25
    4  A    between atoms: N_8  and  C_26
                            x       y       z     vdW  Elec       q    Type
                         _______ _______ _______ _____ _____    ______ ____

>  <TORSDO>
F 4

$$$$
=
 OpenBabel11062421273D

 31 35  0  0  1  0  0  0  0  0999 V2000
  194.3240  175.4310  146.1040 N   0  0  0  0  0  2  0  0  0  0  0  0
  191.9510  175.0960  145.5660 C   0  0  2  0  0  3  0  0  0  0  0  0
  192.3670  173.8860  144.7400 C   0  0  0  0  0  0  0  0  0  0  0  0
  192.7010  176.6680  147.2130 F   0  0  0  0  0  0  0  0  0  0  0  0
  192.9760  175.4280  146.6630 C   0  0  2  0  0  3  0  0  0  0  0  0
  194.5910  174.1410  145.6140 N   0  0  0  0  0  2  0  0  0  0  0  0
  193.6310  173.4490  144.8100 C   0  0  0  0  0  3  0  0  0  0  0  0
  190.6410  172.0830  144.3870 C   0  0  0  0  0  2  0  0  0  0  0  0
  191.3720  173.4900  142.4610 C   0  0  2  0  0  3  0  0  0  0  0  0
  189.3110  171.9250  143.6460 C   0  0  0  0  0  2  0  0  0  0  0  0
  190.1580  173.1680  141.6650 C   0  0  1  0  0  3  0  0  0  0  0  0
  192.1800  174.0540  140.3760 C   0  0  2  0  0  3  0  0  0  0  0  0
  192.3930  173.9240  141.8060 N   0  0  0  0  0  2  0  0  0  0  0  0
  190.7250  173.0410  139.9430 S   0  0  0  0  0  0  0  0  0  0  0  0
  191.4240  173.2160  143.8740 N   0  0  0  0  0  0  0  0  0  0  0  0
  193.4000  173.5620  139.6270 C   0  0  0  0  0  1  0  0  0  0  0  0
  189.5520  171.8560  142.1420 C   0  0  0  0  0  2  0  0  0  0  0  0
  190.5670  174.9160  146.1910 C   0  0  0  0  0  2  0  0  0  0  0  0
  189.5470  175.5870  145.4000 N   0  0  0  0  0  2  0  0  0  0  0  0
  185.7570  178.2970  143.8630 O   0  0  0  0  0  0  0  0  0  0  0  0
  187.0310  177.9960  144.3570 C   0  0  1  0  0  3  0  0  0  0  0  0
  187.5500  175.8970  143.0190 C   0  0  0  0  0  1  0  0  0  0  0  0
  186.9580  177.1130  145.5970 C   0  0  0  0  0  2  0  0  0  0  0  0
  185.9890  178.7430  142.5480 C   0  0  1  0  0  3  0  0  0  0  0  0
  187.2780  178.1210  142.0330 C   0  0  0  0  0  2  0  0  0  0  0  0
  189.8960  177.9530  144.7130 C   0  0  0  0  0  2  0  0  0  0  0  0
  189.5120  176.9780  145.8330 C   0  0  1  0  0  3  0  0  0  0  0  0
  184.8330  178.3340  141.6560 C   0  0  0  0  0  1  0  0  0  0  0  0
  187.8330  177.3830  143.2160 C   0  0  1  0  0  0  0  0  0  0  0  0
  189.3450  177.6120  143.3180 C   0  0  0  0  0  2  0  0  0  0  0  0
  188.1780  177.3280  146.4920 C   0  0  0  0  0  2  0  0  0  0  0  0
  1  5  1  0  0  0  0
  2 18  1  1  0  0  0
  2  5  1  0  0  0  0
  3  7  2  0  0  0  0
  3  2  1  0  0  0  0
  5  4  1  6  0  0  0
  6  1  1  0  0  0  0
  7  6  1  0  0  0  0
  9 13  1  6  0  0  0
  9 15  1  0  0  0  0
 10  8  1  0  0  0  0
 11 17  1  1  0  0  0
 11  9  1  0  0  0  0
 12 16  1  6  0  0  0
 12 13  1  0  0  0  0
 14 12  1  0  0  0  0
 14 11  1  0  0  0  0
 15  8  1  0  0  0  0
 15  3  1  0  0  0  0
 17 10  1  0  0  0  0
 19 18  1  0  0  0  0
 20 21  1  0  0  0  0
 21 23  1  1  0  0  0
 23 31  1  0  0  0  0
 24 28  1  6  0  0  0
 24 20  1  0  0  0  0
 25 24  1  0  0  0  0
 25 29  1  0  0  0  0
 26 27  1  0  0  0  0
 27 19  1  6  0  0  0
 27 31  1  0  0  0  0
 29 22  1  6  0  0  0
 29 30  1  0  0  0  0
 29 21  1  0  0  0  0
 30 26  1  0  0  0  0
M  END
>  <MODEL>
5

>  <REMARK>
 VINA RESULT:      -7.2      2.701      4.348
  Name = 
  4 active torsions:
  status: ('A' for Active; 'I' for Inactive)
    1  A    between atoms: C_4  and  C_25
    2  A    between atoms: C_6  and  N_23
    3  A    between atoms: N_8  and  C_25
    4  A    between atoms: N_8  and  C_26
                            x       y       z     vdW  Elec       q    Type
                         _______ _______ _______ _____ _____    ______ ____

>  <TORSDO>
F 4

$$$$
=
 OpenBabel11062421273D

 31 35  0  0  1  0  0  0  0  0999 V2000
  189.2450  173.1240  141.2760 N   0  0  0  0  0  2  0  0  0  0  0  0
  189.0490  175.5370  141.6920 C   0  0  2  0  0  3  0  0  0  0  0  0
  187.5720  175.3100  141.9870 C   0  0  0  0  0  0  0  0  0  0  0  0
  191.1570  174.4360  141.3970 F   0  0  0  0  0  0  0  0  0  0  0  0
  189.8870  174.2680  141.9180 C   0  0  2  0  0  3  0  0  0  0  0  0
  187.9860  172.9450  141.8740 N   0  0  0  0  0  2  0  0  0  0  0  0
  187.1100  174.0560  142.0880 C   0  0  0  0  0  3  0  0  0  0  0  0
  186.5010  177.3870  141.0450 C   0  0  0  0  0  2  0  0  0  0  0  0
  186.0660  176.7370  143.4140 C   0  0  2  0  0  3  0  0  0  0  0  0
  185.1260  178.0610  141.0760 C   0  0  0  0  0  2  0  0  0  0  0  0
  184.8300  177.5580  143.4940 C   0  0  1  0  0  3  0  0  0  0  0  0
  185.9190  176.8960  145.7100 C   0  0  2  0  0  3  0  0  0  0  0  0
  186.6200  176.4160  144.5320 N   0  0  0  0  0  2  0  0  0  0  0  0
  184.8090  178.2430  145.1780 S   0  0  0  0  0  0  0  0  0  0  0  0
  186.6640  176.4230  142.1410 N   0  0  0  0  0  0  0  0  0  0  0  0
  186.9150  177.4110  146.7260 C   0  0  0  0  0  1  0  0  0  0  0  0
  184.8690  178.6660  142.4510 C   0  0  0  0  0  2  0  0  0  0  0  0
  189.6270  176.6890  142.5160 C   0  0  0  0  0  2  0  0  0  0  0  0
  189.8060  176.2960  143.9050 N   0  0  0  0  0  2  0  0  0  0  0  0
  194.6030  176.3660  144.9320 O   0  0  0  0  0  0  0  0  0  0  0  0
  193.2430  176.6840  145.0250 C   0  0  1  0  0  3  0  0  0  0  0  0
  192.2140  174.4110  144.5370 C   0  0  0  0  0  1  0  0  0  0  0  0
  192.6840  177.1560  143.6890 C   0  0  0  0  0  2  0  0  0  0  0  0
  194.8600  175.5890  146.0780 C   0  0  1  0  0  3  0  0  0  0  0  0
  193.5710  174.9060  146.5120 C   0  0  0  0  0  2  0  0  0  0  0  0
  190.6050  177.1640  146.0960 C   0  0  0  0  0  2  0  0  0  0  0  0
  190.3110  177.4610  144.6210 C   0  0  1  0  0  3  0  0  0  0  0  0
  195.9100  174.5420  145.7630 C   0  0  0  0  0  1  0  0  0  0  0  0
  192.5250  175.4660  145.5930 C   0  0  1  0  0  0  0  0  0  0  0  0
  191.2540  175.7990  146.3820 C   0  0  0  0  0  2  0  0  0  0  0  0
  191.4980  178.0960  143.8950 C   0  0  0  0  0  2  0  0  0  0  0  0
  1  6  1  0  0  0  0
  1  5  1  0  0  0  0
  2  5  1  0  0  0  0
  2  3  1  0  0  0  0
  2 18  1  1  0  0  0
  3  7  2  0  0  0  0
  3 15  1  0  0  0  0
  5  4  1  6  0  0  0
  6  7  1  0  0  0  0
  8 10  1  0  0  0  0
  8 15  1  0  0  0  0
  9 11  1  0  0  0  0
  9 13  1  1  0  0  0
 10 17  1  0  0  0  0
 11 17  1  6  0  0  0
 11 14  1  0  0  0  0
 12 16  1  1  0  0  0
 13 12  1  0  0  0  0
 14 12  1  0  0  0  0
 15  9  1  0  0  0  0
 18 19  1  0  0  0  0
 20 21  1  0  0  0  0
 20 24  1  0  0  0  0
 21 23  1  6  0  0  0
 21 29  1  0  0  0  0
 23 31  1  0  0  0  0
 24 28  1  6  0  0  0
 24 25  1  0  0  0  0
 26 30  1  0  0  0  0
 27 19  1  6  0  0  0
 27 26  1  0  0  0  0
 29 22  1  6  0  0  0
 29 30  1  0  0  0  0
 29 25  1  0  0  0  0
 31 27  1  0  0  0  0
M  END
>  <MODEL>
6

>  <REMARK>
 VINA RESULT:      -7.2      2.934      6.612
  Name = 
  4 active torsions:
  status: ('A' for Active; 'I' for Inactive)
    1  A    between atoms: C_4  and  C_25
    2  A    between atoms: C_6  and  N_23
    3  A    between atoms: N_8  and  C_25
    4  A    between atoms: N_8  and  C_26
                            x       y       z     vdW  Elec       q    Type
                         _______ _______ _______ _____ _____    ______ ____

>  <TORSDO>
F 4

$$$$
=
 OpenBabel11062421273D

 31 35  0  0  1  0  0  0  0  0999 V2000
  190.2980  175.6100  147.4080 N   0  0  0  0  0  2  0  0  0  0  0  0
  189.3260  175.2380  145.1830 C   0  0  2  0  0  3  0  0  0  0  0  0
  189.0870  176.7400  145.0980 C   0  0  0  0  0  0  0  0  0  0  0  0
  190.4820  173.5270  146.4000 F   0  0  0  0  0  0  0  0  0  0  0  0
  190.4680  174.8870  146.1510 C   0  0  2  0  0  3  0  0  0  0  0  0
  190.3530  176.9860  147.1260 N   0  0  0  0  0  2  0  0  0  0  0  0
  189.6140  177.5410  146.0330 C   0  0  0  0  0  3  0  0  0  0  0  0
  188.9480  177.9870  142.9120 C   0  0  0  0  0  2  0  0  0  0  0  0
  186.8560  177.4080  144.1410 C   0  0  2  0  0  3  0  0  0  0  0  0
  188.1020  177.9390  141.6380 C   0  0  0  0  0  2  0  0  0  0  0  0
  186.0090  177.5590  142.9280 C   0  0  1  0  0  3  0  0  0  0  0  0
  184.8160  177.6700  145.1860 C   0  0  2  0  0  3  0  0  0  0  0  0
  186.2530  177.4780  145.2780 N   0  0  0  0  0  2  0  0  0  0  0  0
  184.4510  178.2910  143.5100 S   0  0  0  0  0  0  0  0  0  0  0  0
  188.2890  177.3070  144.0350 N   0  0  0  0  0  0  0  0  0  0  0  0
  184.3650  178.6740  146.2250 C   0  0  0  0  0  1  0  0  0  0  0  0
  186.6980  178.4650  141.9180 C   0  0  0  0  0  2  0  0  0  0  0  0
  189.6070  174.6230  143.8110 C   0  0  0  0  0  2  0  0  0  0  0  0
  191.0310  174.3950  143.6250 N   0  0  0  0  0  2  0  0  0  0  0  0
  195.8410  174.4810  142.6600 O   0  0  0  0  0  0  0  0  0  0  0  0
  194.5090  174.9090  142.6970 C   0  0  1  0  0  3  0  0  0  0  0  0
  193.8210  174.0420  144.9860 C   0  0  0  0  0  1  0  0  0  0  0  0
  193.5690  173.8740  142.0900 C   0  0  0  0  0  2  0  0  0  0  0  0
  196.5010  175.3120  143.5850 C   0  0  1  0  0  3  0  0  0  0  0  0
  195.5000  175.7860  144.6270 C   0  0  0  0  0  2  0  0  0  0  0  0
  192.1640  176.5470  143.0920 C   0  0  0  0  0  2  0  0  0  0  0  0
  191.4750  175.2840  142.5590 C   0  0  1  0  0  3  0  0  0  0  0  0
  197.6170  174.5400  144.2630 C   0  0  0  0  0  1  0  0  0  0  0  0
  194.1800  175.2610  144.1420 C   0  0  1  0  0  0  0  0  0  0  0  0
  193.0970  176.3350  144.2960 C   0  0  0  0  0  2  0  0  0  0  0  0
  192.3180  174.5410  141.5220 C   0  0  0  0  0  2  0  0  0  0  0  0
  2 18  1  6  0  0  0
  2  5  1  0  0  0  0
  3  2  1  0  0  0  0
  3  7  2  0  0  0  0
  5  4  1  1  0  0  0
  5  1  1  0  0  0  0
  6  1  1  0  0  0  0
  7  6  1  0  0  0  0
  8 15  1  0  0  0  0
  9 13  1  1  0  0  0
 10 17  1  0  0  0  0
 10  8  1  0  0  0  0
 11 17  1  6  0  0  0
 11 14  1  0  0  0  0
 11  9  1  0  0  0  0
 12 13  1  0  0  0  0
 12 16  1  1  0  0  0
 14 12  1  0  0  0  0
 15  9  1  0  0  0  0
 15  3  1  0  0  0  0
 19 18  1  0  0  0  0
 20 21  1  0  0  0  0
 20 24  1  0  0  0  0
 21 23  1  1  0  0  0
 21 29  1  0  0  0  0
 24 28  1  1  0  0  0
 24 25  1  0  0  0  0
 26 30  1  0  0  0  0
 27 26  1  0  0  0  0
 27 19  1  1  0  0  0
 29 30  1  0  0  0  0
 29 25  1  0  0  0  0
 29 22  1  1  0  0  0
 31 23  1  0  0  0  0
 31 27  1  0  0  0  0
M  END
>  <MODEL>
7

>  <REMARK>
 VINA RESULT:      -7.1      3.445      7.570
  Name = 
  4 active torsions:
  status: ('A' for Active; 'I' for Inactive)
    1  A    between atoms: C_4  and  C_25
    2  A    between atoms: C_6  and  N_23
    3  A    between atoms: N_8  and  C_25
    4  A    between atoms: N_8  and  C_26
                            x       y       z     vdW  Elec       q    Type
                         _______ _______ _______ _____ _____    ______ ____

>  <TORSDO>
F 4

$$$$
=
 OpenBabel11062421273D

 31 35  0  0  1  0  0  0  0  0999 V2000
  195.8860  176.6850  143.9760 N   0  0  0  0  0  2  0  0  0  0  0  0
  193.8180  175.4820  144.5310 C   0  0  2  0  0  3  0  0  0  0  0  0
  194.3830  174.2810  143.7830 C   0  0  0  0  0  0  0  0  0  0  0  0
  194.3780  177.6110  145.4780 F   0  0  0  0  0  0  0  0  0  0  0  0
  194.9260  176.4180  145.0420 C   0  0  2  0  0  3  0  0  0  0  0  0
  196.4680  175.4610  143.6030 N   0  0  0  0  0  2  0  0  0  0  0  0
  195.6590  174.3030  143.3780 C   0  0  0  0  0  3  0  0  0  0  0  0
  193.8440  171.8460  144.1460 C   0  0  0  0  0  2  0  0  0  0  0  0
  192.5900  173.1480  142.4260 C   0  0  2  0  0  3  0  0  0  0  0  0
  192.5910  170.9730  144.2630 C   0  0  0  0  0  2  0  0  0  0  0  0
  191.4600  172.1810  142.4050 C   0  0  1  0  0  3  0  0  0  0  0  0
  191.6880  173.7320  140.3850 C   0  0  2  0  0  3  0  0  0  0  0  0
  192.7090  173.9190  141.4010 N   0  0  0  0  0  2  0  0  0  0  0  0
  190.9220  172.1010  140.6710 S   0  0  0  0  0  0  0  0  0  0  0  0
  193.5580  173.1310  143.4920 N   0  0  0  0  0  0  0  0  0  0  0  0
  192.3160  173.7790  139.0090 C   0  0  0  0  0  1  0  0  0  0  0  0
  191.9280  170.8190  142.8990 C   0  0  0  0  0  2  0  0  0  0  0  0
  192.9200  175.0620  145.6960 C   0  0  0  0  0  2  0  0  0  0  0  0
  191.6310  175.7320  145.6260 N   0  0  0  0  0  2  0  0  0  0  0  0
  187.0780  177.3850  144.8430 O   0  0  0  0  0  0  0  0  0  0  0  0
  188.1320  176.4720  144.9730 C   0  0  1  0  0  3  0  0  0  0  0  0
  189.4190  177.5410  146.8880 C   0  0  0  0  0  1  0  0  0  0  0  0
  189.3020  176.8330  144.0660 C   0  0  0  0  0  2  0  0  0  0  0  0
  186.2870  177.1710  145.9870 C   0  0  1  0  0  3  0  0  0  0  0  0
  187.1640  176.6150  147.1000 C   0  0  0  0  0  2  0  0  0  0  0  0
  189.6920  174.1800  145.7780 C   0  0  0  0  0  2  0  0  0  0  0  0
  190.7320  174.8610  144.8800 C   0  0  1  0  0  3  0  0  0  0  0  0
  185.6650  178.4800  146.4340 C   0  0  0  0  0  1  0  0  0  0  0  0
  188.5010  176.4050  146.4500 C   0  0  1  0  0  0  0  0  0  0  0  0
  189.0940  175.0610  146.8880 C   0  0  0  0  0  2  0  0  0  0  0  0
  190.1040  175.5880  143.6910 C   0  0  0  0  0  2  0  0  0  0  0  0
  1  5  1  0  0  0  0
  2  5  1  0  0  0  0
  2 18  1  1  0  0  0
  3  2  1  0  0  0  0
  5  4  1  6  0  0  0
  6  1  1  0  0  0  0
  7  6  1  0  0  0  0
  7  3  2  0  0  0  0
  8 10  1  0  0  0  0
  9 13  1  6  0  0  0
  9 15  1  0  0  0  0
 11  9  1  0  0  0  0
 11 17  1  6  0  0  0
 12 16  1  6  0  0  0
 12 14  1  0  0  0  0
 12 13  1  0  0  0  0
 14 11  1  0  0  0  0
 15  3  1  0  0  0  0
 15  8  1  0  0  0  0
 17 10  1  0  0  0  0
 19 18  1  0  0  0  0
 20 21  1  0  0  0  0
 20 24  1  0  0  0  0
 21 23  1  6  0  0  0
 21 29  1  0  0  0  0
 24 28  1  1  0  0  0
 24 25  1  0  0  0  0
 26 30  1  0  0  0  0
 27 19  1  1  0  0  0
 27 26  1  0  0  0  0
 29 22  1  1  0  0  0
 29 30  1  0  0  0  0
 29 25  1  0  0  0  0
 31 23  1  0  0  0  0
 31 27  1  0  0  0  0
M  END
>  <MODEL>
8

>  <REMARK>
 VINA RESULT:      -7.1      2.994      5.156
  Name = 
  4 active torsions:
  status: ('A' for Active; 'I' for Inactive)
    1  A    between atoms: C_4  and  C_25
    2  A    between atoms: C_6  and  N_23
    3  A    between atoms: N_8  and  C_25
    4  A    between atoms: N_8  and  C_26
                            x       y       z     vdW  Elec       q    Type
                         _______ _______ _______ _____ _____    ______ ____

>  <TORSDO>
F 4

$$$$
=
 OpenBabel11062421273D

 31 35  0  0  1  0  0  0  0  0999 V2000
  192.3240  177.1680  144.9740 N   0  0  0  0  0  2  0  0  0  0  0  0
  190.1530  176.0390  145.1890 C   0  0  2  0  0  3  0  0  0  0  0  0
  189.5590  177.1380  144.3180 C   0  0  0  0  0  0  0  0  0  0  0  0
  192.2100  175.0560  145.9320 F   0  0  0  0  0  0  0  0  0  0  0  0
  191.6630  175.8670  144.9530 C   0  0  2  0  0  3  0  0  0  0  0  0
  191.7900  177.9400  143.9280 N   0  0  0  0  0  2  0  0  0  0  0  0
  190.3770  178.0110  143.7160 C   0  0  0  0  0  3  0  0  0  0  0  0
  187.5760  177.5410  142.8150 C   0  0  0  0  0  2  0  0  0  0  0  0
  187.2370  177.3190  145.2770 C   0  0  2  0  0  3  0  0  0  0  0  0
  186.1480  177.0100  142.6660 C   0  0  0  0  0  2  0  0  0  0  0  0
  185.7940  176.9970  145.1290 C   0  0  1  0  0  3  0  0  0  0  0  0
  186.5590  177.8250  147.4230 C   0  0  2  0  0  3  0  0  0  0  0  0
  187.6170  177.7490  146.4310 N   0  0  0  0  0  2  0  0  0  0  0  0
  184.9680  177.8060  146.5300 S   0  0  0  0  0  0  0  0  0  0  0  0
  188.1290  177.2600  144.1480 N   0  0  0  0  0  0  0  0  0  0  0  0
  186.6940  179.1030  148.2220 C   0  0  0  0  0  1  0  0  0  0  0  0
  185.2730  177.5290  143.8020 C   0  0  0  0  0  2  0  0  0  0  0  0
  189.4440  174.6990  144.9850 C   0  0  0  0  0  2  0  0  0  0  0  0
  189.3920  174.3480  143.5740 N   0  0  0  0  0  2  0  0  0  0  0  0
  190.5610  172.8630  139.0460 O   0  0  0  0  0  0  0  0  0  0  0  0
  190.2290  172.7770  140.4040 C   0  0  1  0  0  3  0  0  0  0  0  0
  188.5650  174.6910  140.5820 C   0  0  0  0  0  1  0  0  0  0  0  0
  191.1770  173.6020  141.2660 C   0  0  0  0  0  2  0  0  0  0  0  0
  189.4070  172.4140  138.3760 C   0  0  1  0  0  3  0  0  0  0  0  0
  188.1920  172.6680  139.2560 C   0  0  0  0  0  2  0  0  0  0  0  0
  188.9430  172.0030  142.8700 C   0  0  0  0  0  2  0  0  0  0  0  0
  189.9510  173.0080  143.4430 C   0  0  1  0  0  3  0  0  0  0  0  0
  189.2520  173.1620  137.0650 C   0  0  0  0  0  1  0  0  0  0  0  0
  188.7670  173.1800  140.5450 C   0  0  1  0  0  0  0  0  0  0  0  0
  188.0500  172.5320  141.7350 C   0  0  0  0  0  2  0  0  0  0  0  0
  191.2740  173.0230  142.6760 C   0  0  0  0  0  2  0  0  0  0  0  0
  2 18  1  6  0  0  0
  3  2  1  0  0  0  0
  5  1  1  0  0  0  0
  5  2  1  0  0  0  0
  5  4  1  1  0  0  0
  6  1  1  0  0  0  0
  7  6  1  0  0  0  0
  7  3  2  0  0  0  0
  8 15  1  0  0  0  0
  9 13  1  6  0  0  0
 10  8  1  0  0  0  0
 10 17  1  0  0  0  0
 11 17  1  6  0  0  0
 11  9  1  0  0  0  0
 11 14  1  0  0  0  0
 12 16  1  6  0  0  0
 13 12  1  0  0  0  0
 14 12  1  0  0  0  0
 15  3  1  0  0  0  0
 15  9  1  0  0  0  0
 19 18  1  0  0  0  0
 20 21  1  0  0  0  0
 21 29  1  0  0  0  0
 21 23  1  1  0  0  0
 23 31  1  0  0  0  0
 24 28  1  6  0  0  0
 24 20  1  0  0  0  0
 24 25  1  0  0  0  0
 25 29  1  0  0  0  0
 26 27  1  0  0  0  0
 27 19  1  6  0  0  0
 29 22  1  1  0  0  0
 29 30  1  0  0  0  0
 30 26  1  0  0  0  0
 31 27  1  0  0  0  0
M  END
>  <MODEL>
9

>  <REMARK>
 VINA RESULT:      -7.1      3.446      6.690
  Name = 
  4 active torsions:
  status: ('A' for Active; 'I' for Inactive)
    1  A    between atoms: C_4  and  C_25
    2  A    between atoms: C_6  and  N_23
    3  A    between atoms: N_8  and  C_25
    4  A    between atoms: N_8  and  C_26
                            x       y       z     vdW  Elec       q    Type
                         _______ _______ _______ _____ _____    ______ ____

>  <TORSDO>
F 4

$$$$
