=
 OpenBabel11062419133D

 54 56  0  0  1  0  0  0  0  0999 V2000
  188.6100  175.9170  142.7700 C   0  0  2  0  0  3  0  0  0  0  0  0
  187.9820  176.4210  144.0720 C   0  0  0  0  0  2  0  0  0  0  0  0
  189.4720  177.1440  147.4990 O   0  0  0  0  0  0  0  0  0  0  0  0
  188.5320  177.2060  146.4220 C   0  0  1  0  0  3  0  0  0  0  0  0
  188.8870  176.2240  145.2910 C   0  0  2  0  0  3  0  0  0  0  0  0
  191.5960  176.7410  148.2770 O   0  0  0  0  0  0  0  0  0  0  0  0
  191.2050  176.2340  146.0690 O   0  0  0  0  0  0  0  0  0  0  0  0
  190.7930  176.7220  147.3120 C   0  0  0  0  0  0  0  0  0  0  0  0
  190.3770  176.3510  144.9140 C   0  0  2  0  0  3  0  0  0  0  0  0
  190.6740  177.6200  144.2270 C   0  0  0  0  0  0  0  0  0  0  0  0
  190.9010  178.6190  143.6850 N   0  0  0  0  0  0  0  0  0  0  0  0
  187.1200  176.9770  146.9620 C   0  0  0  0  0  2  0  0  0  0  0  0
  186.2450  178.2060  146.7780 C   0  0  0  0  0  2  0  0  0  0  0  0
  184.8380  177.8030  146.3700 C   0  0  0  0  0  3  0  0  0  0  0  0
  184.7250  176.4310  146.4510 F   0  0  0  0  0  0  0  0  0  0  0  0
  183.9190  178.3870  147.2240 F   0  0  0  0  0  0  0  0  0  0  0  0
  187.8740  176.4380  141.5430 C   0  0  0  0  0  2  0  0  0  0  0  0
  187.4660  177.8930  141.7270 C   0  0  0  0  0  2  0  0  0  0  0  0
  185.3720  178.0770  140.3640 C   0  0  0  0  0  3  0  0  0  0  0  0
  185.2080  178.1360  142.7780 C   0  0  0  0  0  3  0  0  0  0  0  0
  183.8200  178.2560  142.6770 C   0  0  0  0  0  3  0  0  0  0  0  0
  185.9870  178.0530  141.6200 C   0  0  0  0  0  0  0  0  0  0  0  0
  183.1980  178.2900  141.4190 C   0  0  0  0  0  0  0  0  0  0  0  0
  183.9850  178.1920  140.2640 C   0  0  0  0  0  3  0  0  0  0  0  0
  180.9890  179.0670  142.3410 N   0  0  0  0  0  2  0  0  0  0  0  0
  181.1420  177.9620  140.2890 O   0  0  0  0  0  0  0  0  0  0  0  0
  181.7340  178.4070  141.3120 C   0  0  0  0  0  0  0  0  0  0  0  0
  179.5990  179.2210  142.2420 N   0  0  0  0  0  2  0  0  0  0  0  0
  178.0710  177.2550  142.6030 C   0  0  0  0  0  1  0  0  0  0  0  0
  178.7010  178.5100  143.0910 C   0  0  0  0  0  0  0  0  0  0  0  0
  178.3490  179.0540  144.5930 S   0  0  0  0  0  0  0  0  0  0  0  0
  188.7290  174.4060  142.7110 C   0  0  0  0  0  2  0  0  0  0  0  0
  189.5610  173.9840  141.5040 C   0  0  0  0  0  2  0  0  0  0  0  0
  190.6020  172.9120  141.8580 C   0  0  1  0  0  0  0  0  0  0  0  0
  190.2530  172.3140  143.0730 O   0  0  0  0  0  1  0  0  0  0  0  0
  190.6590  171.8740  140.7500 C   0  0  0  0  0  0  0  0  0  0  0  0
  191.8030  171.0250  140.5440 N   0  0  0  0  0  0  0  0  0  0  0  0
  189.6920  171.7960  139.9420 O   0  0  0  0  0  0  0  0  0  0  0  0
  191.7370  169.1690  142.1360 C   0  0  0  0  0  1  0  0  0  0  0  0
  192.5100  170.3870  141.6540 C   0  0  0  0  0  2  0  0  0  0  0  0
  192.3130  170.8370  139.1880 C   0  0  0  0  0  2  0  0  0  0  0  0
  192.7380  172.1660  138.5780 C   0  0  1  0  0  3  0  0  0  0  0  0
  194.7530  172.5860  137.4450 N   0  0  0  0  0  2  0  0  0  0  0  0
  194.2040  172.3980  138.7740 C   0  0  0  0  0  2  0  0  0  0  0  0
  192.5530  172.1200  137.1410 N   0  0  0  0  0  2  0  0  0  0  0  0
  193.6540  172.8040  136.5930 N   0  0  0  0  0  2  0  0  0  0  0  0
  191.9990  173.5500  142.0090 C   0  0  1  0  0  3  0  0  0  0  0  0
  192.0830  174.7950  141.3710 O   0  0  0  0  0  1  0  0  0  0  0  0
  192.4780  173.6580  143.4560 C   0  0  0  0  0  2  0  0  0  0  0  0
  193.8300  174.1010  143.5290 O   0  0  0  0  0  0  0  0  0  0  0  0
  194.6450  177.2590  145.4510 C   0  0  0  0  0  1  0  0  0  0  0  0
  194.1660  176.2900  144.4150 C   0  0  0  0  0  3  0  0  0  0  0  0
  194.2880  174.9610  144.5380 C   0  0  0  0  0  0  0  0  0  0  0  0
  194.9160  174.3600  145.7560 C   0  0  0  0  0  1  0  0  0  0  0  0
  1 17  1  6  0  0  0
  1  2  1  0  0  0  0
  4 12  1  1  0  0  0
  4  3  1  0  0  0  0
  5  2  1  6  0  0  0
  5  4  1  0  0  0  0
  7  8  1  0  0  0  0
  8  3  1  0  0  0  0
  8  6  2  0  0  0  0
  9 10  1  1  0  0  0
  9  5  1  0  0  0  0
  9  7  1  0  0  0  0
 11 10  3  0  0  0  0
 13 12  1  0  0  0  0
 14 15  1  0  0  0  0
 14 13  1  0  0  0  0
 14 16  1  0  0  0  0
 17 18  1  0  0  0  0
 19 22  1  0  0  0  0
 21 20  1  0  0  0  0
 22 18  1  0  0  0  0
 22 20  2  0  0  0  0
 23 21  2  0  0  0  0
 24 19  2  0  0  0  0
 24 23  1  0  0  0  0
 26 27  2  0  0  0  0
 27 23  1  0  0  0  0
 27 25  1  0  0  0  0
 28 25  1  0  0  0  0
 28 30  1  0  0  0  0
 29 30  1  0  0  0  0
 30 31  2  0  0  0  0
 32  1  1  0  0  0  0
 33 34  1  0  0  0  0
 33 32  1  0  0  0  0
 34 47  1  0  0  0  0
 34 35  1  1  0  0  0
 36 34  1  0  0  0  0
 37 36  1  0  0  0  0
 37 40  1  0  0  0  0
 38 36  2  0  0  0  0
 40 39  1  0  0  0  0
 41 37  1  0  0  0  0
 42 44  1  0  0  0  0
 42 41  1  1  0  0  0
 43 44  1  0  0  0  0
 45 42  1  0  0  0  0
 46 45  1  0  0  0  0
 46 43  1  0  0  0  0
 47 48  1  1  0  0  0
 47 49  1  0  0  0  0
 49 50  1  0  0  0  0
 50 53  1  0  0  0  0
 52 53  2  0  0  0  0
 52 51  1  0  0  0  0
 53 54  1  0  0  0  0
M  END
>  <MODEL>
1

>  <REMARK>
 VINA RESULT:      -6.7      0.000      0.000
  Name = 
  23 active torsions:
  status: ('A' for Active; 'I' for Inactive)
    1  A    between atoms: C_1  and  C_31
    2  A    between atoms: C_4  and  C_34
    3  A    between atoms: C_4  and  C_41
    4  A    between atoms: C_5  and  C_27
    5  A    between atoms: C_7  and  C_54
    6  A    between atoms: C_8  and  C_48
    7  A    between atoms: N_10  and  N_25
    8  A    between atoms: C_12  and  C_17
    9  A    between atoms: C_15  and  C_16
   10  A    between atoms: C_15  and  C_33
   11  A    between atoms: C_16  and  C_41
   12  A    between atoms: C_17  and  C_27
   13  A    between atoms: C_21  and  C_24
   14  A    between atoms: C_21  and  C_26
   15  A    between atoms: N_25  and  C_35
   16  A    between atoms: C_26  and  C_33
   17  A    between atoms: C_31  and  N_43
   18  A    between atoms: C_32  and  C_49
   19  A    between atoms: C_33  and  C_48
   20  A    between atoms: C_34  and  O_45
   21  A    between atoms: C_37  and  C_41
   22  A    between atoms: C_42  and  O_45
   23  A    between atoms: N_43  and  C_52
                            x       y       z     vdW  Elec       q    Type
                         _______ _______ _______ _____ _____    ______ ____

>  <TORSDO>
F 23

$$$$
=
 OpenBabel11062419133D

 54 56  0  0  1  0  0  0  0  0999 V2000
  188.3620  174.7860  142.0650 C   0  0  2  0  0  3  0  0  0  0  0  0
  189.1540  174.6390  140.7640 C   0  0  0  0  0  2  0  0  0  0  0  0
  190.7580  171.5410  139.2400 O   0  0  0  0  0  0  0  0  0  0  0  0
  190.6870  172.8380  139.8410 C   0  0  1  0  0  3  0  0  0  0  0  0
  189.2540  173.1870  140.2840 C   0  0  2  0  0  3  0  0  0  0  0  0
  189.7850  169.8340  138.0500 O   0  0  0  0  0  0  0  0  0  0  0  0
  188.4040  171.5660  138.6630 O   0  0  0  0  0  0  0  0  0  0  0  0
  189.6560  170.9480  138.6150 C   0  0  0  0  0  0  0  0  0  0  0  0
  188.2530  172.8990  139.1480 C   0  0  2  0  0  3  0  0  0  0  0  0
  188.3910  173.8440  138.0250 C   0  0  0  0  0  0  0  0  0  0  0  0
  188.4980  174.5810  137.1380 N   0  0  0  0  0  0  0  0  0  0  0  0
  191.6840  172.9190  140.9970 C   0  0  0  0  0  2  0  0  0  0  0  0
  191.6050  171.6910  141.8900 C   0  0  0  0  0  2  0  0  0  0  0  0
  192.4180  171.8990  143.1560 C   0  0  0  0  0  3  0  0  0  0  0  0
  191.7720  171.2870  144.2080 F   0  0  0  0  0  0  0  0  0  0  0  0
  193.6730  171.3360  143.0020 F   0  0  0  0  0  0  0  0  0  0  0  0
  188.0630  176.2450  142.3880 C   0  0  0  0  0  2  0  0  0  0  0  0
  187.6220  177.0010  141.1440 C   0  0  0  0  0  2  0  0  0  0  0  0
  185.4750  177.7680  140.1060 C   0  0  0  0  0  3  0  0  0  0  0  0
  185.5770  177.4720  142.5050 C   0  0  0  0  0  3  0  0  0  0  0  0
  184.2360  177.8520  142.6060 C   0  0  0  0  0  3  0  0  0  0  0  0
  186.2000  177.4370  141.2550 C   0  0  0  0  0  0  0  0  0  0  0  0
  183.5060  178.1950  141.4570 C   0  0  0  0  0  0  0  0  0  0  0  0
  184.1340  178.1430  140.2050 C   0  0  0  0  0  3  0  0  0  0  0  0
  181.1990  178.3490  140.4660 N   0  0  0  0  0  2  0  0  0  0  0  0
  181.6530  179.0880  142.6330 O   0  0  0  0  0  0  0  0  0  0  0  0
  182.0900  178.5850  141.5600 C   0  0  0  0  0  0  0  0  0  0  0  0
  179.8390  178.6790  140.5560 N   0  0  0  0  0  2  0  0  0  0  0  0
  178.4960  177.2420  142.1240 C   0  0  0  0  0  1  0  0  0  0  0  0
  178.8330  177.6870  140.7460 C   0  0  0  0  0  0  0  0  0  0  0  0
  178.0440  177.0280  139.4740 S   0  0  0  0  0  0  0  0  0  0  0  0
  189.0270  174.1100  143.2490 C   0  0  0  0  0  2  0  0  0  0  0  0
  190.2290  174.9240  143.7210 C   0  0  0  0  0  2  0  0  0  0  0  0
  190.3140  175.0050  145.2510 C   0  0  1  0  0  0  0  0  0  0  0  0
  190.6200  173.7390  145.7640 O   0  0  0  0  0  1  0  0  0  0  0  0
  191.3790  176.0130  145.6490 C   0  0  0  0  0  0  0  0  0  0  0  0
  192.2090  176.6820  144.6830 N   0  0  0  0  0  0  0  0  0  0  0  0
  191.5840  176.2250  146.8770 O   0  0  0  0  0  0  0  0  0  0  0  0
  191.1330  178.6230  143.6550 C   0  0  0  0  0  1  0  0  0  0  0  0
  191.6740  177.2190  143.4330 C   0  0  0  0  0  2  0  0  0  0  0  0
  193.6460  176.7800  144.9290 C   0  0  0  0  0  2  0  0  0  0  0  0
  194.4370  176.1160  143.8100 C   0  0  1  0  0  3  0  0  0  0  0  0
  196.5680  175.1460  144.0100 N   0  0  0  0  0  2  0  0  0  0  0  0
  195.8960  176.4290  143.9320 C   0  0  0  0  0  2  0  0  0  0  0  0
  194.3490  174.6760  143.9430 N   0  0  0  0  0  2  0  0  0  0  0  0
  195.6240  174.1830  143.6070 N   0  0  0  0  0  2  0  0  0  0  0  0
  188.9610  175.4570  145.8410 C   0  0  1  0  0  3  0  0  0  0  0  0
  188.7440  174.9340  147.1230 O   0  0  0  0  0  1  0  0  0  0  0  0
  188.7590  176.9710  145.8410 C   0  0  0  0  0  2  0  0  0  0  0  0
  188.0700  177.4080  147.0080 O   0  0  0  0  0  0  0  0  0  0  0  0
  184.9220  179.1320  145.8050 C   0  0  0  0  0  1  0  0  0  0  0  0
  186.3080  178.5740  145.9020 C   0  0  0  0  0  3  0  0  0  0  0  0
  186.7570  177.8990  146.9690 C   0  0  0  0  0  0  0  0  0  0  0  0
  185.8680  177.6540  148.1490 C   0  0  0  0  0  1  0  0  0  0  0  0
  1  2  1  6  0  0  0
  1 17  1  0  0  0  0
  1 32  1  0  0  0  0
  3  4  1  0  0  0  0
  4  5  1  0  0  0  0
  4 12  1  1  0  0  0
  5  2  1  6  0  0  0
  6  8  2  0  0  0  0
  7  9  1  0  0  0  0
  8  7  1  0  0  0  0
  8  3  1  0  0  0  0
  9 10  1  6  0  0  0
  9  5  1  0  0  0  0
 11 10  3  0  0  0  0
 12 13  1  0  0  0  0
 13 14  1  0  0  0  0
 14 15  1  0  0  0  0
 16 14  1  0  0  0  0
 18 22  1  0  0  0  0
 18 17  1  0  0  0  0
 19 24  2  0  0  0  0
 19 22  1  0  0  0  0
 20 21  1  0  0  0  0
 22 20  2  0  0  0  0
 23 27  1  0  0  0  0
 23 21  2  0  0  0  0
 24 23  1  0  0  0  0
 25 28  1  0  0  0  0
 25 27  1  0  0  0  0
 27 26  2  0  0  0  0
 28 30  1  0  0  0  0
 30 29  1  0  0  0  0
 31 30  2  0  0  0  0
 32 33  1  0  0  0  0
 33 34  1  0  0  0  0
 34 36  1  0  0  0  0
 34 35  1  1  0  0  0
 34 47  1  0  0  0  0
 36 38  2  0  0  0  0
 37 41  1  0  0  0  0
 37 36  1  0  0  0  0
 40 39  1  0  0  0  0
 40 37  1  0  0  0  0
 42 44  1  0  0  0  0
 42 45  1  0  0  0  0
 42 41  1  1  0  0  0
 44 43  1  0  0  0  0
 46 45  1  0  0  0  0
 46 43  1  0  0  0  0
 47 49  1  0  0  0  0
 47 48  1  1  0  0  0
 49 50  1  0  0  0  0
 51 52  1  0  0  0  0
 52 53  2  0  0  0  0
 53 50  1  0  0  0  0
 53 54  1  0  0  0  0
M  END
>  <MODEL>
2

>  <REMARK>
 VINA RESULT:      -6.7      3.055      6.764
  Name = 
  23 active torsions:
  status: ('A' for Active; 'I' for Inactive)
    1  A    between atoms: C_1  and  C_31
    2  A    between atoms: C_4  and  C_34
    3  A    between atoms: C_4  and  C_41
    4  A    between atoms: C_5  and  C_27
    5  A    between atoms: C_7  and  C_54
    6  A    between atoms: C_8  and  C_48
    7  A    between atoms: N_10  and  N_25
    8  A    between atoms: C_12  and  C_17
    9  A    between atoms: C_15  and  C_16
   10  A    between atoms: C_15  and  C_33
   11  A    between atoms: C_16  and  C_41
   12  A    between atoms: C_17  and  C_27
   13  A    between atoms: C_21  and  C_24
   14  A    between atoms: C_21  and  C_26
   15  A    between atoms: N_25  and  C_35
   16  A    between atoms: C_26  and  C_33
   17  A    between atoms: C_31  and  N_43
   18  A    between atoms: C_32  and  C_49
   19  A    between atoms: C_33  and  C_48
   20  A    between atoms: C_34  and  O_45
   21  A    between atoms: C_37  and  C_41
   22  A    between atoms: C_42  and  O_45
   23  A    between atoms: N_43  and  C_52
                            x       y       z     vdW  Elec       q    Type
                         _______ _______ _______ _____ _____    ______ ____

>  <TORSDO>
F 23

$$$$
=
 OpenBabel11062419133D

 54 56  0  0  1  0  0  0  0  0999 V2000
  192.8970  174.7580  144.0740 C   0  0  2  0  0  3  0  0  0  0  0  0
  194.3850  175.0860  143.9310 C   0  0  0  0  0  2  0  0  0  0  0  0
  197.2230  172.7580  142.9200 O   0  0  0  0  0  0  0  0  0  0  0  0
  196.4230  173.5810  143.7760 C   0  0  1  0  0  3  0  0  0  0  0  0
  195.1440  174.0700  143.0720 C   0  0  2  0  0  3  0  0  0  0  0  0
  197.9390  172.1640  140.8190 O   0  0  0  0  0  0  0  0  0  0  0  0
  196.2450  173.7150  140.9190 O   0  0  0  0  0  0  0  0  0  0  0  0
  197.1740  172.8670  141.5260 C   0  0  0  0  0  0  0  0  0  0  0  0
  195.4790  174.6450  141.6820 C   0  0  2  0  0  3  0  0  0  0  0  0
  196.2080  175.9240  141.7660 C   0  0  0  0  0  0  0  0  0  0  0  0
  196.7740  176.9320  141.8280 N   0  0  0  0  0  0  0  0  0  0  0  0
  196.1160  172.8240  145.0690 C   0  0  0  0  0  2  0  0  0  0  0  0
  196.0300  171.3250  144.8320 C   0  0  0  0  0  2  0  0  0  0  0  0
  194.5830  170.8910  144.6820 C   0  0  0  0  0  3  0  0  0  0  0  0
  194.4550  170.1510  143.5250 F   0  0  0  0  0  0  0  0  0  0  0  0
  194.2150  170.1110  145.7640 F   0  0  0  0  0  0  0  0  0  0  0  0
  192.6250  173.8570  145.2710 C   0  0  0  0  0  2  0  0  0  0  0  0
  192.4500  174.6740  146.5430 C   0  0  0  0  0  2  0  0  0  0  0  0
  189.9470  174.5790  146.5130 C   0  0  0  0  0  3  0  0  0  0  0  0
  191.0360  176.7320  146.7050 C   0  0  0  0  0  3  0  0  0  0  0  0
  189.7870  177.3550  146.7630 C   0  0  0  0  0  3  0  0  0  0  0  0
  191.1170  175.3430  146.5730 C   0  0  0  0  0  0  0  0  0  0  0  0
  188.6090  176.5950  146.6940 C   0  0  0  0  0  0  0  0  0  0  0  0
  188.6990  175.2010  146.5760 C   0  0  0  0  0  3  0  0  0  0  0  0
  186.1930  176.7350  146.0080 N   0  0  0  0  0  2  0  0  0  0  0  0
  187.1230  178.2400  147.5310 O   0  0  0  0  0  0  0  0  0  0  0  0
  187.2920  177.2490  146.7650 C   0  0  0  0  0  0  0  0  0  0  0  0
  184.9210  177.3200  146.0890 N   0  0  0  0  0  2  0  0  0  0  0  0
  183.3400  179.1640  145.4350 C   0  0  0  0  0  1  0  0  0  0  0  0
  184.4470  178.2300  145.0990 C   0  0  0  0  0  0  0  0  0  0  0  0
  185.0990  178.2650  143.6000 S   0  0  0  0  0  0  0  0  0  0  0  0
  192.2950  174.1610  142.8160 C   0  0  0  0  0  2  0  0  0  0  0  0
  191.6000  172.8400  143.1340 C   0  0  0  0  0  2  0  0  0  0  0  0
  190.6250  172.4120  142.0290 C   0  0  1  0  0  0  0  0  0  0  0  0
  190.6210  173.3790  141.0180 O   0  0  0  0  0  1  0  0  0  0  0  0
  191.0450  171.0620  141.4740 C   0  0  0  0  0  0  0  0  0  0  0  0
  191.9960  170.9290  140.4020 N   0  0  0  0  0  0  0  0  0  0  0  0
  190.4930  170.0220  141.9290 O   0  0  0  0  0  0  0  0  0  0  0  0
  194.4370  170.8100  140.2930 C   0  0  0  0  0  1  0  0  0  0  0  0
  193.2220  171.7230  140.3430 C   0  0  0  0  0  2  0  0  0  0  0  0
  191.7030  170.0100  139.3040 C   0  0  0  0  0  2  0  0  0  0  0  0
  191.4390  170.7720  138.0130 C   0  0  1  0  0  3  0  0  0  0  0  0
  191.5800  169.8960  135.8360 N   0  0  0  0  0  2  0  0  0  0  0  0
  192.4000  170.3540  136.9420 C   0  0  0  0  0  2  0  0  0  0  0  0
  190.1300  170.4210  137.5020 N   0  0  0  0  0  2  0  0  0  0  0  0
  190.2730  170.3460  136.1030 N   0  0  0  0  0  2  0  0  0  0  0  0
  189.1930  172.2900  142.5930 C   0  0  1  0  0  3  0  0  0  0  0  0
  189.1840  172.2000  143.9920 O   0  0  0  0  0  1  0  0  0  0  0  0
  188.2440  173.3900  142.1220 C   0  0  0  0  0  2  0  0  0  0  0  0
  188.2390  174.4970  143.0170 O   0  0  0  0  0  0  0  0  0  0  0  0
  190.0770  177.8000  142.8050 C   0  0  0  0  0  1  0  0  0  0  0  0
  189.6470  176.4160  143.1810 C   0  0  0  0  0  3  0  0  0  0  0  0
  188.6030  175.7910  142.6180 C   0  0  0  0  0  0  0  0  0  0  0  0
  187.7980  176.4600  141.5470 C   0  0  0  0  0  1  0  0  0  0  0  0
  1 32  1  6  0  0  0
  1 17  1  0  0  0  0
  2  1  1  0  0  0  0
  3  4  1  0  0  0  0
  4 12  1  1  0  0  0
  5  4  1  0  0  0  0
  5  2  1  1  0  0  0
  6  8  2  0  0  0  0
  7  8  1  0  0  0  0
  7  9  1  0  0  0  0
  8  3  1  0  0  0  0
  9 10  1  1  0  0  0
  9  5  1  0  0  0  0
 10 11  3  0  0  0  0
 13 12  1  0  0  0  0
 14 13  1  0  0  0  0
 14 16  1  0  0  0  0
 15 14  1  0  0  0  0
 17 18  1  0  0  0  0
 18 22  1  0  0  0  0
 19 22  2  0  0  0  0
 19 24  1  0  0  0  0
 20 21  2  0  0  0  0
 22 20  1  0  0  0  0
 23 21  1  0  0  0  0
 23 27  1  0  0  0  0
 24 23  2  0  0  0  0
 25 28  1  0  0  0  0
 25 27  1  0  0  0  0
 27 26  2  0  0  0  0
 30 29  1  0  0  0  0
 30 28  1  0  0  0  0
 31 30  2  0  0  0  0
 32 33  1  0  0  0  0
 34 35  1  6  0  0  0
 34 47  1  0  0  0  0
 34 33  1  0  0  0  0
 36 38  2  0  0  0  0
 36 34  1  0  0  0  0
 37 36  1  0  0  0  0
 39 40  1  0  0  0  0
 40 37  1  0  0  0  0
 41 37  1  0  0  0  0
 42 41  1  1  0  0  0
 43 46  1  0  0  0  0
 43 44  1  0  0  0  0
 44 42  1  0  0  0  0
 45 42  1  0  0  0  0
 46 45  1  0  0  0  0
 47 48  1  1  0  0  0
 49 47  1  0  0  0  0
 49 50  1  0  0  0  0
 51 52  1  0  0  0  0
 53 50  1  0  0  0  0
 53 52  2  0  0  0  0
 54 53  1  0  0  0  0
M  END
>  <MODEL>
3

>  <REMARK>
 VINA RESULT:      -6.4      3.974      6.918
  Name = 
  23 active torsions:
  status: ('A' for Active; 'I' for Inactive)
    1  A    between atoms: C_1  and  C_31
    2  A    between atoms: C_4  and  C_34
    3  A    between atoms: C_4  and  C_41
    4  A    between atoms: C_5  and  C_27
    5  A    between atoms: C_7  and  C_54
    6  A    between atoms: C_8  and  C_48
    7  A    between atoms: N_10  and  N_25
    8  A    between atoms: C_12  and  C_17
    9  A    between atoms: C_15  and  C_16
   10  A    between atoms: C_15  and  C_33
   11  A    between atoms: C_16  and  C_41
   12  A    between atoms: C_17  and  C_27
   13  A    between atoms: C_21  and  C_24
   14  A    between atoms: C_21  and  C_26
   15  A    between atoms: N_25  and  C_35
   16  A    between atoms: C_26  and  C_33
   17  A    between atoms: C_31  and  N_43
   18  A    between atoms: C_32  and  C_49
   19  A    between atoms: C_33  and  C_48
   20  A    between atoms: C_34  and  O_45
   21  A    between atoms: C_37  and  C_41
   22  A    between atoms: C_42  and  O_45
   23  A    between atoms: N_43  and  C_52
                            x       y       z     vdW  Elec       q    Type
                         _______ _______ _______ _____ _____    ______ ____

>  <TORSDO>
F 23

$$$$
=
 OpenBabel11062419133D

 54 56  0  0  1  0  0  0  0  0999 V2000
  188.1140  176.2810  142.4820 C   0  0  2  0  0  3  0  0  0  0  0  0
  187.6740  176.6860  143.8910 C   0  0  0  0  0  2  0  0  0  0  0  0
  189.2440  176.3050  147.3380 O   0  0  0  0  0  0  0  0  0  0  0  0
  188.3260  176.7690  146.3430 C   0  0  1  0  0  3  0  0  0  0  0  0
  188.5370  176.0620  144.9920 C   0  0  2  0  0  3  0  0  0  0  0  0
  191.2840  175.4220  147.9190 O   0  0  0  0  0  0  0  0  0  0  0  0
  190.8300  175.5470  145.6690 O   0  0  0  0  0  0  0  0  0  0  0  0
  190.4890  175.7610  147.0070 C   0  0  0  0  0  0  0  0  0  0  0  0
  190.0300  176.0670  144.6080 C   0  0  2  0  0  3  0  0  0  0  0  0
  190.5120  177.4120  144.2490 C   0  0  0  0  0  0  0  0  0  0  0  0
  190.8940  178.4710  143.9730 N   0  0  0  0  0  0  0  0  0  0  0  0
  186.8950  176.6150  146.8570 C   0  0  0  0  0  2  0  0  0  0  0  0
  186.3940  177.8940  147.5090 C   0  0  0  0  0  2  0  0  0  0  0  0
  185.0330  178.2770  146.9550 C   0  0  0  0  0  3  0  0  0  0  0  0
  185.1790  179.3660  146.1220 F   0  0  0  0  0  0  0  0  0  0  0  0
  184.5080  177.2190  146.2340 F   0  0  0  0  0  0  0  0  0  0  0  0
  187.3760  177.0680  141.4070 C   0  0  0  0  0  2  0  0  0  0  0  0
  186.7930  178.3550  141.9730 C   0  0  0  0  0  2  0  0  0  0  0  0
  184.5130  178.5830  142.9830 C   0  0  0  0  0  3  0  0  0  0  0  0
  184.7070  178.2170  140.5990 C   0  0  0  0  0  3  0  0  0  0  0  0
  183.3160  178.2620  140.4820 C   0  0  0  0  0  3  0  0  0  0  0  0
  185.3070  178.3710  141.8520 C   0  0  0  0  0  0  0  0  0  0  0  0
  182.5130  178.4660  141.6150 C   0  0  0  0  0  0  0  0  0  0  0  0
  183.1230  178.6330  142.8660 C   0  0  0  0  0  3  0  0  0  0  0  0
  180.4160  178.1690  140.2570 N   0  0  0  0  0  2  0  0  0  0  0  0
  180.3440  178.8450  142.4910 O   0  0  0  0  0  0  0  0  0  0  0  0
  181.0470  178.5240  141.4920 C   0  0  0  0  0  0  0  0  0  0  0  0
  179.0200  178.1820  140.1280 N   0  0  0  0  0  2  0  0  0  0  0  0
  178.1360  179.6230  138.2650 C   0  0  0  0  0  1  0  0  0  0  0  0
  178.3120  179.3490  139.7160 C   0  0  0  0  0  0  0  0  0  0  0  0
  177.6930  180.3940  140.8110 S   0  0  0  0  0  0  0  0  0  0  0  0
  187.9910  174.7910  142.2230 C   0  0  0  0  0  2  0  0  0  0  0  0
  188.7820  174.4000  140.9780 C   0  0  0  0  0  2  0  0  0  0  0  0
  189.4370  173.0190  141.1130 C   0  0  1  0  0  0  0  0  0  0  0  0
  188.7280  172.2620  142.0510 O   0  0  0  0  0  1  0  0  0  0  0  0
  189.4420  172.3240  139.7610 C   0  0  0  0  0  0  0  0  0  0  0  0
  190.6160  171.6930  139.2200 N   0  0  0  0  0  0  0  0  0  0  0  0
  188.3920  172.3570  139.0600 O   0  0  0  0  0  0  0  0  0  0  0  0
  190.8400  169.5340  140.3480 C   0  0  0  0  0  1  0  0  0  0  0  0
  191.5030  170.8670  140.0370 C   0  0  0  0  0  2  0  0  0  0  0  0
  190.9690  171.9300  137.8230 C   0  0  0  0  0  2  0  0  0  0  0  0
  191.1520  173.4170  137.5510 C   0  0  1  0  0  3  0  0  0  0  0  0
  193.0710  174.4330  136.6510 N   0  0  0  0  0  2  0  0  0  0  0  0
  192.5500  173.8490  137.8720 C   0  0  0  0  0  2  0  0  0  0  0  0
  190.9950  173.6740  136.1340 N   0  0  0  0  0  2  0  0  0  0  0  0
  191.9600  174.6480  135.8140 N   0  0  0  0  0  2  0  0  0  0  0  0
  190.8940  173.1610  141.6000 C   0  0  1  0  0  3  0  0  0  0  0  0
  191.4430  174.4060  141.2650 O   0  0  0  0  0  1  0  0  0  0  0  0
  191.0810  172.8770  143.0890 C   0  0  0  0  0  2  0  0  0  0  0  0
  192.3600  173.3060  143.5480 O   0  0  0  0  0  0  0  0  0  0  0  0
  194.8980  171.4610  145.6640 C   0  0  0  0  0  1  0  0  0  0  0  0
  193.8220  172.3890  145.1940 C   0  0  0  0  0  3  0  0  0  0  0  0
  193.3630  172.4060  143.9350 C   0  0  0  0  0  0  0  0  0  0  0  0
  193.9090  171.4620  142.9090 C   0  0  0  0  0  1  0  0  0  0  0  0
  1 17  1  6  0  0  0
  1  2  1  0  0  0  0
  4 12  1  1  0  0  0
  4  3  1  0  0  0  0
  5  2  1  6  0  0  0
  5  4  1  0  0  0  0
  7  8  1  0  0  0  0
  8  3  1  0  0  0  0
  8  6  2  0  0  0  0
  9 10  1  1  0  0  0
  9  5  1  0  0  0  0
  9  7  1  0  0  0  0
 11 10  3  0  0  0  0
 12 13  1  0  0  0  0
 14 13  1  0  0  0  0
 15 14  1  0  0  0  0
 16 14  1  0  0  0  0
 17 18  1  0  0  0  0
 20 22  1  0  0  0  0
 21 20  2  0  0  0  0
 21 23  1  0  0  0  0
 22 18  1  0  0  0  0
 22 19  2  0  0  0  0
 23 24  2  0  0  0  0
 24 19  1  0  0  0  0
 25 27  1  0  0  0  0
 27 23  1  0  0  0  0
 27 26  2  0  0  0  0
 28 25  1  0  0  0  0
 29 30  1  0  0  0  0
 30 28  1  0  0  0  0
 30 31  2  0  0  0  0
 32  1  1  0  0  0  0
 33 34  1  0  0  0  0
 33 32  1  0  0  0  0
 34 47  1  0  0  0  0
 34 35  1  1  0  0  0
 36 34  1  0  0  0  0
 37 36  1  0  0  0  0
 37 40  1  0  0  0  0
 38 36  2  0  0  0  0
 40 39  1  0  0  0  0
 41 37  1  0  0  0  0
 42 41  1  6  0  0  0
 42 44  1  0  0  0  0
 43 44  1  0  0  0  0
 45 42  1  0  0  0  0
 46 45  1  0  0  0  0
 46 43  1  0  0  0  0
 47 48  1  1  0  0  0
 47 49  1  0  0  0  0
 49 50  1  0  0  0  0
 50 53  1  0  0  0  0
 52 51  1  0  0  0  0
 53 52  2  0  0  0  0
 54 53  1  0  0  0  0
M  END
>  <MODEL>
4

>  <REMARK>
 VINA RESULT:      -6.4      1.784      2.198
  Name = 
  23 active torsions:
  status: ('A' for Active; 'I' for Inactive)
    1  A    between atoms: C_1  and  C_31
    2  A    between atoms: C_4  and  C_34
    3  A    between atoms: C_4  and  C_41
    4  A    between atoms: C_5  and  C_27
    5  A    between atoms: C_7  and  C_54
    6  A    between atoms: C_8  and  C_48
    7  A    between atoms: N_10  and  N_25
    8  A    between atoms: C_12  and  C_17
    9  A    between atoms: C_15  and  C_16
   10  A    between atoms: C_15  and  C_33
   11  A    between atoms: C_16  and  C_41
   12  A    between atoms: C_17  and  C_27
   13  A    between atoms: C_21  and  C_24
   14  A    between atoms: C_21  and  C_26
   15  A    between atoms: N_25  and  C_35
   16  A    between atoms: C_26  and  C_33
   17  A    between atoms: C_31  and  N_43
   18  A    between atoms: C_32  and  C_49
   19  A    between atoms: C_33  and  C_48
   20  A    between atoms: C_34  and  O_45
   21  A    between atoms: C_37  and  C_41
   22  A    between atoms: C_42  and  O_45
   23  A    between atoms: N_43  and  C_52
                            x       y       z     vdW  Elec       q    Type
                         _______ _______ _______ _____ _____    ______ ____

>  <TORSDO>
F 23

$$$$
=
 OpenBabel11062419133D

 54 56  0  0  1  0  0  0  0  0999 V2000
  188.6830  176.7580  142.0410 C   0  0  2  0  0  3  0  0  0  0  0  0
  188.8840  177.3650  143.4320 C   0  0  0  0  0  2  0  0  0  0  0  0
  188.1120  176.1660  146.9610 O   0  0  0  0  0  0  0  0  0  0  0  0
  188.1840  177.0690  145.8530 C   0  0  1  0  0  3  0  0  0  0  0  0
  188.6420  176.3630  144.5640 C   0  0  2  0  0  3  0  0  0  0  0  0
  188.8300  174.2710  148.0440 O   0  0  0  0  0  0  0  0  0  0  0  0
  189.6770  174.6240  145.9360 O   0  0  0  0  0  0  0  0  0  0  0  0
  188.8850  175.0010  147.0240 C   0  0  0  0  0  0  0  0  0  0  0  0
  189.8930  175.5050  144.8350 C   0  0  2  0  0  3  0  0  0  0  0  0
  191.0900  176.3240  145.0940 C   0  0  0  0  0  0  0  0  0  0  0  0
  192.0280  176.9740  145.2930 N   0  0  0  0  0  0  0  0  0  0  0  0
  186.8360  177.7700  145.6790 C   0  0  0  0  0  2  0  0  0  0  0  0
  185.8520  177.3670  146.7650 C   0  0  0  0  0  2  0  0  0  0  0  0
  185.0850  178.5780  147.2670 C   0  0  0  0  0  3  0  0  0  0  0  0
  185.9730  179.6080  147.4920 F   0  0  0  0  0  0  0  0  0  0  0  0
  184.1620  178.9730  146.3140 F   0  0  0  0  0  0  0  0  0  0  0  0
  187.4740  177.3530  141.3300 C   0  0  0  0  0  2  0  0  0  0  0  0
  186.7490  178.3500  142.2230 C   0  0  0  0  0  2  0  0  0  0  0  0
  184.3630  178.5740  142.9490 C   0  0  0  0  0  3  0  0  0  0  0  0
  184.8480  178.2600  140.5990 C   0  0  0  0  0  3  0  0  0  0  0  0
  183.4820  178.3190  140.3120 C   0  0  0  0  0  3  0  0  0  0  0  0
  185.2890  178.3810  141.9190 C   0  0  0  0  0  0  0  0  0  0  0  0
  182.5470  178.5030  141.3420 C   0  0  0  0  0  0  0  0  0  0  0  0
  182.9980  178.6380  142.6610 C   0  0  0  0  0  3  0  0  0  0  0  0
  180.4040  179.8140  141.1870 N   0  0  0  0  0  2  0  0  0  0  0  0
  180.5030  177.5550  140.6070 O   0  0  0  0  0  0  0  0  0  0  0  0
  181.1070  178.5760  141.0390 C   0  0  0  0  0  0  0  0  0  0  0  0
  179.0420  179.9150  140.8700 N   0  0  0  0  0  2  0  0  0  0  0  0
  178.0060  179.9940  138.5790 C   0  0  0  0  0  1  0  0  0  0  0  0
  178.5810  180.6860  139.7630 C   0  0  0  0  0  0  0  0  0  0  0  0
  178.6740  182.3180  139.7730 S   0  0  0  0  0  0  0  0  0  0  0  0
  188.5920  175.2440  142.0580 C   0  0  0  0  0  2  0  0  0  0  0  0
  189.8930  174.6270  141.5510 C   0  0  0  0  0  2  0  0  0  0  0  0
  189.8330  173.0950  141.5070 C   0  0  1  0  0  0  0  0  0  0  0  0
  188.5120  172.6780  141.7070 O   0  0  0  0  0  1  0  0  0  0  0  0
  190.3500  172.6040  140.1640 C   0  0  0  0  0  0  0  0  0  0  0  0
  189.4810  172.0650  139.1520 N   0  0  0  0  0  0  0  0  0  0  0  0
  191.5940  172.6120  139.9550 O   0  0  0  0  0  0  0  0  0  0  0  0
  188.4050  174.0250  138.1580 C   0  0  0  0  0  1  0  0  0  0  0  0
  188.1930  172.6740  138.8250 C   0  0  0  0  0  2  0  0  0  0  0  0
  189.8690  170.8370  138.4640 C   0  0  0  0  0  2  0  0  0  0  0  0
  190.7030  171.1450  137.2280 C   0  0  1  0  0  3  0  0  0  0  0  0
  191.4100  169.5900  135.6130 N   0  0  0  0  0  2  0  0  0  0  0  0
  191.6870  170.0470  136.9620 C   0  0  0  0  0  2  0  0  0  0  0  0
  189.8460  171.1720  136.0600 N   0  0  0  0  0  2  0  0  0  0  0  0
  190.5880  170.5710  135.0270 N   0  0  0  0  0  2  0  0  0  0  0  0
  190.7110  172.4900  142.6240 C   0  0  1  0  0  3  0  0  0  0  0  0
  190.9110  171.1140  142.4500 O   0  0  0  0  0  1  0  0  0  0  0  0
  192.0470  173.2050  142.8180 C   0  0  0  0  0  2  0  0  0  0  0  0
  193.1020  172.2820  143.0730 O   0  0  0  0  0  0  0  0  0  0  0  0
  196.1460  171.8560  145.2820 C   0  0  0  0  0  1  0  0  0  0  0  0
  195.0020  171.6100  144.3490 C   0  0  0  0  0  3  0  0  0  0  0  0
  194.1640  172.5740  143.9410 C   0  0  0  0  0  0  0  0  0  0  0  0
  194.3420  173.9870  144.4020 C   0  0  0  0  0  1  0  0  0  0  0  0
  1 17  1  1  0  0  0
  1 32  1  0  0  0  0
  1  2  1  0  0  0  0
  3  8  1  0  0  0  0
  4 12  1  6  0  0  0
  4  3  1  0  0  0  0
  5  2  1  6  0  0  0
  5  9  1  0  0  0  0
  5  4  1  0  0  0  0
  7  8  1  0  0  0  0
  8  6  2  0  0  0  0
  9 10  1  1  0  0  0
  9  7  1  0  0  0  0
 10 11  3  0  0  0  0
 12 13  1  0  0  0  0
 13 14  1  0  0  0  0
 14 15  1  0  0  0  0
 16 14  1  0  0  0  0
 17 18  1  0  0  0  0
 20 22  1  0  0  0  0
 21 20  2  0  0  0  0
 21 23  1  0  0  0  0
 22 18  1  0  0  0  0
 22 19  2  0  0  0  0
 23 24  2  0  0  0  0
 24 19  1  0  0  0  0
 26 27  2  0  0  0  0
 27 25  1  0  0  0  0
 27 23  1  0  0  0  0
 28 25  1  0  0  0  0
 29 30  1  0  0  0  0
 30 31  2  0  0  0  0
 30 28  1  0  0  0  0
 33 32  1  0  0  0  0
 34 33  1  0  0  0  0
 34 35  1  1  0  0  0
 34 47  1  0  0  0  0
 36 34  1  0  0  0  0
 37 36  1  0  0  0  0
 38 36  2  0  0  0  0
 39 40  1  0  0  0  0
 40 37  1  0  0  0  0
 41 37  1  0  0  0  0
 42 41  1  1  0  0  0
 43 44  1  0  0  0  0
 44 42  1  0  0  0  0
 45 42  1  0  0  0  0
 46 43  1  0  0  0  0
 46 45  1  0  0  0  0
 47 48  1  6  0  0  0
 47 49  1  0  0  0  0
 49 50  1  0  0  0  0
 50 53  1  0  0  0  0
 52 51  1  0  0  0  0
 53 52  2  0  0  0  0
 53 54  1  0  0  0  0
M  END
>  <MODEL>
5

>  <REMARK>
 VINA RESULT:      -6.2      2.230      2.849
  Name = 
  23 active torsions:
  status: ('A' for Active; 'I' for Inactive)
    1  A    between atoms: C_1  and  C_31
    2  A    between atoms: C_4  and  C_34
    3  A    between atoms: C_4  and  C_41
    4  A    between atoms: C_5  and  C_27
    5  A    between atoms: C_7  and  C_54
    6  A    between atoms: C_8  and  C_48
    7  A    between atoms: N_10  and  N_25
    8  A    between atoms: C_12  and  C_17
    9  A    between atoms: C_15  and  C_16
   10  A    between atoms: C_15  and  C_33
   11  A    between atoms: C_16  and  C_41
   12  A    between atoms: C_17  and  C_27
   13  A    between atoms: C_21  and  C_24
   14  A    between atoms: C_21  and  C_26
   15  A    between atoms: N_25  and  C_35
   16  A    between atoms: C_26  and  C_33
   17  A    between atoms: C_31  and  N_43
   18  A    between atoms: C_32  and  C_49
   19  A    between atoms: C_33  and  C_48
   20  A    between atoms: C_34  and  O_45
   21  A    between atoms: C_37  and  C_41
   22  A    between atoms: C_42  and  O_45
   23  A    between atoms: N_43  and  C_52
                            x       y       z     vdW  Elec       q    Type
                         _______ _______ _______ _____ _____    ______ ____

>  <TORSDO>
F 23

$$$$
=
 OpenBabel11062419133D

 54 56  0  0  1  0  0  0  0  0999 V2000
  193.3790  173.2360  144.7570 C   0  0  2  0  0  3  0  0  0  0  0  0
  194.2590  174.1110  143.8610 C   0  0  0  0  0  2  0  0  0  0  0  0
  196.8970  172.8570  141.4190 O   0  0  0  0  0  0  0  0  0  0  0  0
  196.3640  173.4180  142.6240 C   0  0  1  0  0  3  0  0  0  0  0  0
  194.8260  173.3550  142.6550 C   0  0  2  0  0  3  0  0  0  0  0  0
  196.6940  172.3630  139.1850 O   0  0  0  0  0  0  0  0  0  0  0  0
  194.8240  173.2160  140.2150 O   0  0  0  0  0  0  0  0  0  0  0  0
  196.1610  172.8120  140.2300 C   0  0  0  0  0  0  0  0  0  0  0  0
  194.2370  173.8800  141.3320 C   0  0  2  0  0  3  0  0  0  0  0  0
  194.4110  175.3360  141.1790 C   0  0  0  0  0  0  0  0  0  0  0  0
  194.5550  176.4790  141.0590 N   0  0  0  0  0  0  0  0  0  0  0  0
  196.9950  172.7250  143.8320 C   0  0  0  0  0  2  0  0  0  0  0  0
  197.6000  173.7300  144.7990 C   0  0  0  0  0  2  0  0  0  0  0  0
  197.0330  173.5360  146.1940 C   0  0  0  0  0  3  0  0  0  0  0  0
  196.1120  174.5300  146.4450 F   0  0  0  0  0  0  0  0  0  0  0  0
  196.4080  172.3040  146.2760 F   0  0  0  0  0  0  0  0  0  0  0  0
  193.5860  171.7520  144.4840 C   0  0  0  0  0  2  0  0  0  0  0  0
  192.2560  171.0460  144.2600 C   0  0  0  0  0  2  0  0  0  0  0  0
  190.7220  171.2120  142.2880 C   0  0  0  0  0  3  0  0  0  0  0  0
  192.9820  170.4170  141.9500 C   0  0  0  0  0  3  0  0  0  0  0  0
  192.7280  170.2850  140.5830 C   0  0  0  0  0  3  0  0  0  0  0  0
  191.9770  170.8740  142.8050 C   0  0  0  0  0  0  0  0  0  0  0  0
  191.4680  170.6130  140.0590 C   0  0  0  0  0  0  0  0  0  0  0  0
  190.4690  171.0840  140.9210 C   0  0  0  0  0  3  0  0  0  0  0  0
  190.8780  171.6410  137.8390 N   0  0  0  0  0  2  0  0  0  0  0  0
  191.3050  169.3560  138.0560 O   0  0  0  0  0  0  0  0  0  0  0  0
  191.2020  170.4840  138.6160 C   0  0  0  0  0  0  0  0  0  0  0  0
  190.6560  171.5470  136.4580 N   0  0  0  0  0  2  0  0  0  0  0  0
  191.7760  170.2840  134.5930 C   0  0  0  0  0  1  0  0  0  0  0  0
  191.7310  171.4390  135.5280 C   0  0  0  0  0  0  0  0  0  0  0  0
  192.9170  172.5640  135.4730 S   0  0  0  0  0  0  0  0  0  0  0  0
  191.9060  173.5870  144.6730 C   0  0  0  0  0  2  0  0  0  0  0  0
  191.7260  175.0030  144.1320 C   0  0  0  0  0  2  0  0  0  0  0  0
  190.2530  175.4350  144.1050 C   0  0  1  0  0  0  0  0  0  0  0  0
  189.4490  174.3560  144.4890 O   0  0  0  0  0  1  0  0  0  0  0  0
  190.0510  176.6120  145.0450 C   0  0  0  0  0  0  0  0  0  0  0  0
  189.5350  176.4560  146.3790 N   0  0  0  0  0  0  0  0  0  0  0  0
  190.2860  177.7760  144.6170 O   0  0  0  0  0  0  0  0  0  0  0  0
  191.2630  175.7710  147.9700 C   0  0  0  0  0  1  0  0  0  0  0  0
  189.9740  175.3780  147.2640 C   0  0  0  0  0  2  0  0  0  0  0  0
  188.4960  177.3690  146.8490 C   0  0  0  0  0  2  0  0  0  0  0  0
  187.1240  176.7110  146.7880 C   0  0  1  0  0  3  0  0  0  0  0  0
  185.0540  177.8200  146.8580 N   0  0  0  0  0  2  0  0  0  0  0  0
  186.1600  177.4050  147.6990 C   0  0  0  0  0  2  0  0  0  0  0  0
  186.5690  176.8710  145.4600 N   0  0  0  0  0  2  0  0  0  0  0  0
  185.1960  177.1160  145.6470 N   0  0  0  0  0  2  0  0  0  0  0  0
  189.8460  175.8660  142.6800 C   0  0  1  0  0  3  0  0  0  0  0  0
  190.3680  175.0100  141.7010 O   0  0  0  0  0  1  0  0  0  0  0  0
  188.3400  176.0380  142.4910 C   0  0  0  0  0  2  0  0  0  0  0  0
  188.0280  177.2850  141.8760 O   0  0  0  0  0  0  0  0  0  0  0  0
  184.3830  178.2490  141.5460 C   0  0  0  0  0  1  0  0  0  0  0  0
  185.7490  177.9560  142.0830 C   0  0  0  0  0  3  0  0  0  0  0  0
  186.7720  177.5550  141.3150 C   0  0  0  0  0  0  0  0  0  0  0  0
  186.5980  177.3860  139.8380 C   0  0  0  0  0  1  0  0  0  0  0  0
  1  2  1  6  0  0  0
  3  4  1  0  0  0  0
  4  5  1  0  0  0  0
  4 12  1  1  0  0  0
  5  2  1  1  0  0  0
  6  8  2  0  0  0  0
  7  8  1  0  0  0  0
  7  9  1  0  0  0  0
  8  3  1  0  0  0  0
  9 10  1  6  0  0  0
  9  5  1  0  0  0  0
 11 10  3  0  0  0  0
 12 13  1  0  0  0  0
 13 14  1  0  0  0  0
 14 16  1  0  0  0  0
 14 15  1  0  0  0  0
 17  1  1  0  0  0  0
 18 17  1  0  0  0  0
 19 22  1  0  0  0  0
 20 22  2  0  0  0  0
 21 20  1  0  0  0  0
 22 18  1  0  0  0  0
 23 21  2  0  0  0  0
 23 24  1  0  0  0  0
 24 19  2  0  0  0  0
 25 27  1  0  0  0  0
 26 27  2  0  0  0  0
 27 23  1  0  0  0  0
 28 25  1  0  0  0  0
 29 30  1  0  0  0  0
 30 28  1  0  0  0  0
 31 30  2  0  0  0  0
 32  1  1  0  0  0  0
 33 32  1  0  0  0  0
 34 33  1  0  0  0  0
 34 35  1  1  0  0  0
 34 36  1  0  0  0  0
 36 37  1  0  0  0  0
 37 41  1  0  0  0  0
 37 40  1  0  0  0  0
 38 36  2  0  0  0  0
 40 39  1  0  0  0  0
 42 41  1  6  0  0  0
 42 44  1  0  0  0  0
 43 44  1  0  0  0  0
 45 46  1  0  0  0  0
 45 42  1  0  0  0  0
 46 43  1  0  0  0  0
 47 48  1  6  0  0  0
 47 34  1  0  0  0  0
 49 47  1  0  0  0  0
 50 49  1  0  0  0  0
 51 52  1  0  0  0  0
 53 50  1  0  0  0  0
 53 52  2  0  0  0  0
 54 53  1  0  0  0  0
M  END
>  <MODEL>
6

>  <REMARK>
 VINA RESULT:      -6.1      4.408     10.230
  Name = 
  23 active torsions:
  status: ('A' for Active; 'I' for Inactive)
    1  A    between atoms: C_1  and  C_31
    2  A    between atoms: C_4  and  C_34
    3  A    between atoms: C_4  and  C_41
    4  A    between atoms: C_5  and  C_27
    5  A    between atoms: C_7  and  C_54
    6  A    between atoms: C_8  and  C_48
    7  A    between atoms: N_10  and  N_25
    8  A    between atoms: C_12  and  C_17
    9  A    between atoms: C_15  and  C_16
   10  A    between atoms: C_15  and  C_33
   11  A    between atoms: C_16  and  C_41
   12  A    between atoms: C_17  and  C_27
   13  A    between atoms: C_21  and  C_24
   14  A    between atoms: C_21  and  C_26
   15  A    between atoms: N_25  and  C_35
   16  A    between atoms: C_26  and  C_33
   17  A    between atoms: C_31  and  N_43
   18  A    between atoms: C_32  and  C_49
   19  A    between atoms: C_33  and  C_48
   20  A    between atoms: C_34  and  O_45
   21  A    between atoms: C_37  and  C_41
   22  A    between atoms: C_42  and  O_45
   23  A    between atoms: N_43  and  C_52
                            x       y       z     vdW  Elec       q    Type
                         _______ _______ _______ _____ _____    ______ ____

>  <TORSDO>
F 23

$$$$
=
 OpenBabel11062419133D

 54 56  0  0  1  0  0  0  0  0999 V2000
  190.5220  177.0790  143.0970 C   0  0  2  0  0  3  0  0  0  0  0  0
  190.2690  177.5040  144.5460 C   0  0  0  0  0  2  0  0  0  0  0  0
  188.0290  176.0760  147.2720 O   0  0  0  0  0  0  0  0  0  0  0  0
  188.5820  177.0570  146.3880 C   0  0  1  0  0  3  0  0  0  0  0  0
  189.5520  176.4310  145.3700 C   0  0  2  0  0  3  0  0  0  0  0  0
  188.1930  174.0760  148.3910 O   0  0  0  0  0  0  0  0  0  0  0  0
  189.8760  174.5510  146.8990 O   0  0  0  0  0  0  0  0  0  0  0  0
  188.6910  174.8780  147.5630 C   0  0  0  0  0  0  0  0  0  0  0  0
  190.5560  175.5010  146.0810 C   0  0  2  0  0  3  0  0  0  0  0  0
  191.5240  176.2470  146.9040 C   0  0  0  0  0  0  0  0  0  0  0  0
  192.2820  176.8400  147.5490 N   0  0  0  0  0  0  0  0  0  0  0  0
  187.4490  177.8260  145.7080 C   0  0  0  0  0  2  0  0  0  0  0  0
  186.2130  176.9590  145.5320 C   0  0  0  0  0  2  0  0  0  0  0  0
  184.9980  177.6310  146.1480 C   0  0  0  0  0  3  0  0  0  0  0  0
  185.1570  177.6720  147.5170 F   0  0  0  0  0  0  0  0  0  0  0  0
  184.8830  178.9220  145.6640 F   0  0  0  0  0  0  0  0  0  0  0  0
  189.2360  177.0490  142.2800 C   0  0  0  0  0  2  0  0  0  0  0  0
  188.5450  178.4050  142.2990 C   0  0  0  0  0  2  0  0  0  0  0  0
  186.8930  177.7070  140.5500 C   0  0  0  0  0  3  0  0  0  0  0  0
  186.0840  178.7620  142.5720 C   0  0  0  0  0  3  0  0  0  0  0  0
  184.7720  178.6390  142.1070 C   0  0  0  0  0  3  0  0  0  0  0  0
  187.1470  178.3020  141.7900 C   0  0  0  0  0  0  0  0  0  0  0  0
  184.5120  178.0510  140.8600 C   0  0  0  0  0  0  0  0  0  0  0  0
  185.5820  177.5800  140.0880 C   0  0  0  0  0  3  0  0  0  0  0  0
  182.0730  178.6550  140.9880 N   0  0  0  0  0  2  0  0  0  0  0  0
  182.8830  177.1660  139.3840 O   0  0  0  0  0  0  0  0  0  0  0  0
  183.1290  177.9110  140.3740 C   0  0  0  0  0  0  0  0  0  0  0  0
  180.7550  178.5650  140.5190 N   0  0  0  0  0  2  0  0  0  0  0  0
  178.4570  177.6370  140.9520 C   0  0  0  0  0  1  0  0  0  0  0  0
  179.6490  178.4020  141.4040 C   0  0  0  0  0  0  0  0  0  0  0  0
  179.6690  179.0420  142.9090 S   0  0  0  0  0  0  0  0  0  0  0  0
  191.2500  175.7530  142.9830 C   0  0  0  0  0  2  0  0  0  0  0  0
  192.6110  175.9480  142.3220 C   0  0  0  0  0  2  0  0  0  0  0  0
  193.7730  175.6690  143.2850 C   0  0  1  0  0  0  0  0  0  0  0  0
  193.7160  176.5730  144.3510 O   0  0  0  0  0  1  0  0  0  0  0  0
  193.6810  174.2400  143.7920 C   0  0  0  0  0  0  0  0  0  0  0  0
  193.6270  173.1070  142.9060 N   0  0  0  0  0  0  0  0  0  0  0  0
  193.5860  174.0430  145.0360 O   0  0  0  0  0  0  0  0  0  0  0  0
  193.6260  172.9060  140.4680 C   0  0  0  0  0  1  0  0  0  0  0  0
  194.4800  173.0000  141.7240 C   0  0  0  0  0  2  0  0  0  0  0  0
  192.6480  172.0530  143.1620 C   0  0  0  0  0  2  0  0  0  0  0  0
  193.1960  171.0290  144.1470 C   0  0  1  0  0  3  0  0  0  0  0  0
  193.7830  168.8080  143.6510 N   0  0  0  0  0  2  0  0  0  0  0  0
  192.6350  169.6680  143.8680 C   0  0  0  0  0  2  0  0  0  0  0  0
  194.6260  170.8920  143.9590 N   0  0  0  0  0  2  0  0  0  0  0  0
  194.9030  169.5210  144.1180 N   0  0  0  0  0  2  0  0  0  0  0  0
  195.1250  175.8500  142.5630 C   0  0  1  0  0  3  0  0  0  0  0  0
  194.9960  176.5960  141.3830 O   0  0  0  0  0  1  0  0  0  0  0  0
  196.2270  176.4330  143.4460 C   0  0  0  0  0  2  0  0  0  0  0  0
  197.3560  175.5680  143.5140 O   0  0  0  0  0  0  0  0  0  0  0  0
  196.8330  172.8490  146.0950 C   0  0  0  0  0  1  0  0  0  0  0  0
  196.9020  174.1680  145.3910 C   0  0  0  0  0  3  0  0  0  0  0  0
  197.3010  174.3040  144.1190 C   0  0  0  0  0  0  0  0  0  0  0  0
  197.7000  173.1080  143.3110 C   0  0  0  0  0  1  0  0  0  0  0  0
  1 17  1  6  0  0  0
  1  2  1  0  0  0  0
  3  8  1  0  0  0  0
  4 12  1  6  0  0  0
  4  3  1  0  0  0  0
  5  2  1  1  0  0  0
  5  9  1  0  0  0  0
  5  4  1  0  0  0  0
  7  8  1  0  0  0  0
  8  6  2  0  0  0  0
  9  7  1  0  0  0  0
  9 10  1  1  0  0  0
 10 11  3  0  0  0  0
 13 12  1  0  0  0  0
 13 14  1  0  0  0  0
 14 15  1  0  0  0  0
 16 14  1  0  0  0  0
 17 18  1  0  0  0  0
 19 22  1  0  0  0  0
 21 20  1  0  0  0  0
 22 18  1  0  0  0  0
 22 20  2  0  0  0  0
 23 21  2  0  0  0  0
 24 19  2  0  0  0  0
 24 23  1  0  0  0  0
 26 27  2  0  0  0  0
 27 23  1  0  0  0  0
 27 25  1  0  0  0  0
 28 25  1  0  0  0  0
 28 30  1  0  0  0  0
 29 30  1  0  0  0  0
 30 31  2  0  0  0  0
 32  1  1  0  0  0  0
 33 32  1  0  0  0  0
 33 34  1  0  0  0  0
 34 36  1  0  0  0  0
 34 35  1  1  0  0  0
 36 38  2  0  0  0  0
 37 41  1  0  0  0  0
 37 36  1  0  0  0  0
 39 40  1  0  0  0  0
 40 37  1  0  0  0  0
 42 41  1  6  0  0  0
 43 44  1  0  0  0  0
 43 46  1  0  0  0  0
 44 42  1  0  0  0  0
 45 46  1  0  0  0  0
 45 42  1  0  0  0  0
 47 48  1  6  0  0  0
 47 34  1  0  0  0  0
 47 49  1  0  0  0  0
 49 50  1  0  0  0  0
 50 53  1  0  0  0  0
 52 51  1  0  0  0  0
 53 52  2  0  0  0  0
 54 53  1  0  0  0  0
M  END
>  <MODEL>
7

>  <REMARK>
 VINA RESULT:      -6.1      2.611      3.624
  Name = 
  23 active torsions:
  status: ('A' for Active; 'I' for Inactive)
    1  A    between atoms: C_1  and  C_31
    2  A    between atoms: C_4  and  C_34
    3  A    between atoms: C_4  and  C_41
    4  A    between atoms: C_5  and  C_27
    5  A    between atoms: C_7  and  C_54
    6  A    between atoms: C_8  and  C_48
    7  A    between atoms: N_10  and  N_25
    8  A    between atoms: C_12  and  C_17
    9  A    between atoms: C_15  and  C_16
   10  A    between atoms: C_15  and  C_33
   11  A    between atoms: C_16  and  C_41
   12  A    between atoms: C_17  and  C_27
   13  A    between atoms: C_21  and  C_24
   14  A    between atoms: C_21  and  C_26
   15  A    between atoms: N_25  and  C_35
   16  A    between atoms: C_26  and  C_33
   17  A    between atoms: C_31  and  N_43
   18  A    between atoms: C_32  and  C_49
   19  A    between atoms: C_33  and  C_48
   20  A    between atoms: C_34  and  O_45
   21  A    between atoms: C_37  and  C_41
   22  A    between atoms: C_42  and  O_45
   23  A    between atoms: N_43  and  C_52
                            x       y       z     vdW  Elec       q    Type
                         _______ _______ _______ _____ _____    ______ ____

>  <TORSDO>
F 23

$$$$
=
 OpenBabel11062419133D

 54 56  0  0  1  0  0  0  0  0999 V2000
  190.3760  173.6200  142.4070 C   0  0  2  0  0  3  0  0  0  0  0  0
  191.0600  174.1330  141.1370 C   0  0  0  0  0  2  0  0  0  0  0  0
  192.9950  172.4990  138.2950 O   0  0  0  0  0  0  0  0  0  0  0  0
  192.6470  173.4960  139.2610 C   0  0  1  0  0  3  0  0  0  0  0  0
  191.5500  173.0050  140.2230 C   0  0  2  0  0  3  0  0  0  0  0  0
  192.4340  170.6800  137.0090 O   0  0  0  0  0  0  0  0  0  0  0  0
  190.8630  171.3710  138.5390 O   0  0  0  0  0  0  0  0  0  0  0  0
  192.1020  171.4970  137.9040 C   0  0  0  0  0  0  0  0  0  0  0  0
  190.3850  172.3720  139.4360 C   0  0  2  0  0  3  0  0  0  0  0  0
  189.6090  173.3720  138.6820 C   0  0  0  0  0  0  0  0  0  0  0  0
  189.0000  174.1630  138.0950 N   0  0  0  0  0  0  0  0  0  0  0  0
  193.9040  173.9500  140.0030 C   0  0  0  0  0  2  0  0  0  0  0  0
  194.5890  175.1040  139.2890 C   0  0  0  0  0  2  0  0  0  0  0  0
  196.0740  174.8290  139.1320 C   0  0  0  0  0  3  0  0  0  0  0  0
  196.2460  173.5250  138.7180 F   0  0  0  0  0  0  0  0  0  0  0  0
  196.6090  175.6830  138.1840 F   0  0  0  0  0  0  0  0  0  0  0  0
  189.1710  174.4710  142.7880 C   0  0  0  0  0  2  0  0  0  0  0  0
  188.7600  175.3820  141.6400 C   0  0  0  0  0  2  0  0  0  0  0  0
  187.2160  177.3130  141.2410 C   0  0  0  0  0  3  0  0  0  0  0  0
  186.7410  175.7900  143.0610 C   0  0  0  0  0  3  0  0  0  0  0  0
  185.5970  176.5270  143.3750 C   0  0  0  0  0  3  0  0  0  0  0  0
  187.5560  176.1860  141.9970 C   0  0  0  0  0  0  0  0  0  0  0  0
  185.2550  177.6640  142.6270 C   0  0  0  0  0  0  0  0  0  0  0  0
  186.0700  178.0470  141.5530 C   0  0  0  0  0  3  0  0  0  0  0  0
  182.8870  178.3420  142.1140 N   0  0  0  0  0  0  0  0  0  0  0  0
  184.0120  179.1470  143.9950 O   0  0  0  0  0  0  0  0  0  0  0  0
  184.0440  178.4360  142.9510 C   0  0  0  0  0  0  0  0  0  0  0  0
  181.7110  179.0400  142.4240 N   0  0  0  0  0  0  0  0  0  0  0  0
  180.3920  180.0290  140.5240 C   0  0  0  0  0  1  0  0  0  0  0  0
  180.5640  178.9950  141.5780 C   0  0  0  0  0  0  0  0  0  0  0  0
  179.4330  177.8250  141.7490 S   0  0  0  0  0  0  0  0  0  0  0  0
  191.3230  173.4910  143.5850 C   0  0  0  0  0  2  0  0  0  0  0  0
  192.3830  174.5880  143.5390 C   0  0  0  0  0  2  0  0  0  0  0  0
  192.4400  175.4000  144.8390 C   0  0  1  0  0  0  0  0  0  0  0  0
  191.6500  174.7740  145.8090 O   0  0  0  0  0  1  0  0  0  0  0  0
  193.8810  175.5050  145.3110 C   0  0  0  0  0  0  0  0  0  0  0  0
  195.0000  175.2800  144.4350 N   0  0  0  0  0  0  0  0  0  0  0  0
  194.1030  175.7380  146.5320 O   0  0  0  0  0  0  0  0  0  0  0  0
  196.4760  176.1320  142.6800 C   0  0  0  0  0  1  0  0  0  0  0  0
  195.0430  175.8090  143.0730 C   0  0  0  0  0  2  0  0  0  0  0  0
  196.1070  174.4470  144.8980 C   0  0  0  0  0  2  0  0  0  0  0  0
  195.6140  173.0680  145.3150 C   0  0  1  0  0  3  0  0  0  0  0  0
  196.2540  171.0210  144.3530 N   0  0  0  0  0  2  0  0  0  0  0  0
  195.4230  172.1870  144.1190 C   0  0  0  0  0  2  0  0  0  0  0  0
  196.6310  172.4090  146.1090 N   0  0  0  0  0  2  0  0  0  0  0  0
  196.6070  171.0580  145.7150 N   0  0  0  0  0  2  0  0  0  0  0  0
  191.8920  176.8250  144.6080 C   0  0  1  0  0  3  0  0  0  0  0  0
  191.4820  177.0220  143.2830 O   0  0  0  0  0  1  0  0  0  0  0  0
  190.7810  177.2270  145.5770 C   0  0  0  0  0  2  0  0  0  0  0  0
  189.4910  176.9630  145.0340 O   0  0  0  0  0  0  0  0  0  0  0  0
  186.6100  176.5540  147.4550 C   0  0  0  0  0  1  0  0  0  0  0  0
  187.8690  176.3490  146.6710 C   0  0  0  0  0  3  0  0  0  0  0  0
  188.3090  177.2130  145.7460 C   0  0  0  0  0  0  0  0  0  0  0  0
  187.5480  178.4680  145.4480 C   0  0  0  0  0  1  0  0  0  0  0  0
  1  2  1  6  0  0  0
  1 17  1  0  0  0  0
  1 32  1  0  0  0  0
  3  4  1  0  0  0  0
  4 12  1  1  0  0  0
  4  5  1  0  0  0  0
  5  2  1  6  0  0  0
  6  8  2  0  0  0  0
  7  9  1  0  0  0  0
  8  3  1  0  0  0  0
  8  7  1  0  0  0  0
  9 10  1  6  0  0  0
  9  5  1  0  0  0  0
 11 10  3  0  0  0  0
 13 12  1  0  0  0  0
 14 13  1  0  0  0  0
 15 14  1  0  0  0  0
 16 14  1  0  0  0  0
 18 22  1  0  0  0  0
 18 17  1  0  0  0  0
 19 24  2  0  0  0  0
 19 22  1  0  0  0  0
 20 21  1  0  0  0  0
 22 20  2  0  0  0  0
 23 27  1  0  0  0  0
 23 21  2  0  0  0  0
 24 23  1  0  0  0  0
 25 28  2  0  0  0  0
 25 27  1  0  0  0  0
 27 26  2  0  0  0  0
 29 30  1  0  0  0  0
 30 31  2  0  0  0  0
 30 28  1  0  0  0  0
 33 32  1  0  0  0  0
 33 34  1  0  0  0  0
 34 36  1  0  0  0  0
 34 35  1  1  0  0  0
 36 38  2  0  0  0  0
 37 41  1  0  0  0  0
 37 36  1  0  0  0  0
 39 40  1  0  0  0  0
 40 37  1  0  0  0  0
 42 41  1  6  0  0  0
 42 45  1  0  0  0  0
 43 46  1  0  0  0  0
 44 43  1  0  0  0  0
 44 42  1  0  0  0  0
 46 45  1  0  0  0  0
 47 48  1  6  0  0  0
 47 34  1  0  0  0  0
 47 49  1  0  0  0  0
 50 49  1  0  0  0  0
 50 53  1  0  0  0  0
 52 51  1  0  0  0  0
 53 52  2  0  0  0  0
 54 53  1  0  0  0  0
M  END
>  <MODEL>
8

>  <REMARK>
 VINA RESULT:      -6.0      3.828      7.220
  Name = 
  23 active torsions:
  status: ('A' for Active; 'I' for Inactive)
    1  A    between atoms: C_1  and  C_31
    2  A    between atoms: C_4  and  C_34
    3  A    between atoms: C_4  and  C_41
    4  A    between atoms: C_5  and  C_27
    5  A    between atoms: C_7  and  C_54
    6  A    between atoms: C_8  and  C_48
    7  A    between atoms: N_10  and  N_25
    8  A    between atoms: C_12  and  C_17
    9  A    between atoms: C_15  and  C_16
   10  A    between atoms: C_15  and  C_33
   11  A    between atoms: C_16  and  C_41
   12  A    between atoms: C_17  and  C_27
   13  A    between atoms: C_21  and  C_24
   14  A    between atoms: C_21  and  C_26
   15  A    between atoms: N_25  and  C_35
   16  A    between atoms: C_26  and  C_33
   17  A    between atoms: C_31  and  N_43
   18  A    between atoms: C_32  and  C_49
   19  A    between atoms: C_33  and  C_48
   20  A    between atoms: C_34  and  O_45
   21  A    between atoms: C_37  and  C_41
   22  A    between atoms: C_42  and  O_45
   23  A    between atoms: N_43  and  C_52
                            x       y       z     vdW  Elec       q    Type
                         _______ _______ _______ _____ _____    ______ ____

>  <TORSDO>
F 23

$$$$
=
 OpenBabel11062419133D

 54 56  0  0  1  0  0  0  0  0999 V2000
  192.2600  173.5160  145.1000 C   0  0  2  0  0  3  0  0  0  0  0  0
  191.7030  174.2110  143.8550 C   0  0  0  0  0  2  0  0  0  0  0  0
  190.2610  177.6690  143.1810 O   0  0  0  0  0  0  0  0  0  0  0  0
  190.3760  176.2440  143.1140 C   0  0  1  0  0  3  0  0  0  0  0  0
  191.4670  175.7110  144.0600 C   0  0  2  0  0  3  0  0  0  0  0  0
  191.1980  179.7340  143.5520 O   0  0  0  0  0  0  0  0  0  0  0  0
  192.5250  177.9140  144.0130 O   0  0  0  0  0  0  0  0  0  0  0  0
  191.3310  178.4850  143.5660 C   0  0  0  0  0  0  0  0  0  0  0  0
  192.7710  176.5150  143.8880 C   0  0  2  0  0  3  0  0  0  0  0  0
  193.4270  176.2490  142.5950 C   0  0  0  0  0  0  0  0  0  0  0  0
  193.9490  176.0390  141.5830 N   0  0  0  0  0  0  0  0  0  0  0  0
  189.0130  175.6090  143.3910 C   0  0  0  0  0  2  0  0  0  0  0  0
  188.2500  175.3400  142.1030 C   0  0  0  0  0  2  0  0  0  0  0  0
  187.3200  176.4970  141.7830 C   0  0  0  0  0  3  0  0  0  0  0  0
  187.1420  177.2560  142.9190 F   0  0  0  0  0  0  0  0  0  0  0  0
  187.8810  177.2850  140.7920 F   0  0  0  0  0  0  0  0  0  0  0  0
  192.8300  174.5130  146.1010 C   0  0  0  0  0  2  0  0  0  0  0  0
  192.0240  174.5120  147.3920 C   0  0  0  0  0  2  0  0  0  0  0  0
  190.8100  176.6800  147.0760 C   0  0  0  0  0  3  0  0  0  0  0  0
  189.5320  174.6300  147.2150 C   0  0  0  0  0  3  0  0  0  0  0  0
  188.3520  175.3580  147.0410 C   0  0  0  0  0  3  0  0  0  0  0  0
  190.7620  175.2920  147.2390 C   0  0  0  0  0  0  0  0  0  0  0  0
  188.3930  176.7520  146.8870 C   0  0  0  0  0  0  0  0  0  0  0  0
  189.6320  177.4070  146.8980 C   0  0  0  0  0  3  0  0  0  0  0  0
  186.2660  177.1940  145.6180 N   0  0  0  0  0  2  0  0  0  0  0  0
  186.8460  178.4370  147.5060 O   0  0  0  0  0  0  0  0  0  0  0  0
  187.1510  177.5190  146.6940 C   0  0  0  0  0  0  0  0  0  0  0  0
  185.0600  177.8870  145.4370 N   0  0  0  0  0  2  0  0  0  0  0  0
  185.5070  180.0860  144.3010 C   0  0  0  0  0  1  0  0  0  0  0  0
  184.8500  178.7530  144.3240 C   0  0  0  0  0  0  0  0  0  0  0  0
  183.8960  178.3060  143.0730 S   0  0  0  0  0  0  0  0  0  0  0  0
  193.2870  172.4470  144.7770 C   0  0  0  0  0  2  0  0  0  0  0  0
  193.6110  172.4530  143.2860 C   0  0  0  0  0  2  0  0  0  0  0  0
  193.9810  171.0580  142.7640 C   0  0  1  0  0  0  0  0  0  0  0  0
  193.9190  170.1390  143.8170 O   0  0  0  0  0  1  0  0  0  0  0  0
  193.0240  170.6610  141.6520 C   0  0  0  0  0  0  0  0  0  0  0  0
  192.2980  171.6290  140.8750 N   0  0  0  0  0  0  0  0  0  0  0  0
  192.8120  169.4340  141.4460 O   0  0  0  0  0  0  0  0  0  0  0  0
  193.8010  172.5400  139.1730 C   0  0  0  0  0  1  0  0  0  0  0  0
  192.9210  172.8530  140.3730 C   0  0  0  0  0  2  0  0  0  0  0  0
  190.8750  171.4140  140.6230 C   0  0  0  0  0  2  0  0  0  0  0  0
  190.2640  172.6040  139.8940 C   0  0  1  0  0  3  0  0  0  0  0  0
  188.8130  172.4990  138.0490 N   0  0  0  0  0  2  0  0  0  0  0  0
  190.2080  172.3520  138.4190 C   0  0  0  0  0  2  0  0  0  0  0  0
  188.8830  172.7650  140.3020 N   0  0  0  0  0  2  0  0  0  0  0  0
  188.1820  173.1310  139.1370 N   0  0  0  0  0  2  0  0  0  0  0  0
  195.4180  171.0590  142.2010 C   0  0  1  0  0  3  0  0  0  0  0  0
  195.8610  172.3510  141.8880 O   0  0  0  0  0  1  0  0  0  0  0  0
  196.4340  170.3460  143.0920 C   0  0  0  0  0  2  0  0  0  0  0  0
  197.3270  171.2680  143.7100 O   0  0  0  0  0  0  0  0  0  0  0  0
  196.8650  173.7840  146.5000 C   0  0  0  0  0  1  0  0  0  0  0  0
  197.1020  173.1410  145.1690 C   0  0  0  0  0  3  0  0  0  0  0  0
  197.0870  171.8150  144.9780 C   0  0  0  0  0  0  0  0  0  0  0  0
  196.8140  170.8820  146.1170 C   0  0  0  0  0  1  0  0  0  0  0  0
  1  2  1  6  0  0  0
  1 17  1  0  0  0  0
  3  8  1  0  0  0  0
  4  3  1  0  0  0  0
  4 12  1  1  0  0  0
  4  5  1  0  0  0  0
  5  2  1  6  0  0  0
  6  8  2  0  0  0  0
  8  7  1  0  0  0  0
  9 10  1  6  0  0  0
  9  7  1  0  0  0  0
  9  5  1  0  0  0  0
 11 10  3  0  0  0  0
 13 12  1  0  0  0  0
 14 13  1  0  0  0  0
 14 15  1  0  0  0  0
 16 14  1  0  0  0  0
 17 18  1  0  0  0  0
 19 22  1  0  0  0  0
 20 22  2  0  0  0  0
 21 20  1  0  0  0  0
 22 18  1  0  0  0  0
 23 24  1  0  0  0  0
 23 21  2  0  0  0  0
 24 19  2  0  0  0  0
 25 27  1  0  0  0  0
 27 23  1  0  0  0  0
 27 26  2  0  0  0  0
 28 25  1  0  0  0  0
 29 30  1  0  0  0  0
 30 28  1  0  0  0  0
 31 30  2  0  0  0  0
 32  1  1  0  0  0  0
 33 32  1  0  0  0  0
 34 33  1  0  0  0  0
 34 35  1  1  0  0  0
 36 34  1  0  0  0  0
 37 36  1  0  0  0  0
 38 36  2  0  0  0  0
 39 40  1  0  0  0  0
 40 37  1  0  0  0  0
 41 37  1  0  0  0  0
 42 45  1  0  0  0  0
 42 41  1  1  0  0  0
 43 44  1  0  0  0  0
 43 46  1  0  0  0  0
 44 42  1  0  0  0  0
 46 45  1  0  0  0  0
 47 48  1  1  0  0  0
 47 34  1  0  0  0  0
 47 49  1  0  0  0  0
 49 50  1  0  0  0  0
 50 53  1  0  0  0  0
 52 51  1  0  0  0  0
 53 52  2  0  0  0  0
 53 54  1  0  0  0  0
M  END
>  <MODEL>
9

>  <REMARK>
 VINA RESULT:      -6.0      3.415      5.477
  Name = 
  23 active torsions:
  status: ('A' for Active; 'I' for Inactive)
    1  A    between atoms: C_1  and  C_31
    2  A    between atoms: C_4  and  C_34
    3  A    between atoms: C_4  and  C_41
    4  A    between atoms: C_5  and  C_27
    5  A    between atoms: C_7  and  C_54
    6  A    between atoms: C_8  and  C_48
    7  A    between atoms: N_10  and  N_25
    8  A    between atoms: C_12  and  C_17
    9  A    between atoms: C_15  and  C_16
   10  A    between atoms: C_15  and  C_33
   11  A    between atoms: C_16  and  C_41
   12  A    between atoms: C_17  and  C_27
   13  A    between atoms: C_21  and  C_24
   14  A    between atoms: C_21  and  C_26
   15  A    between atoms: N_25  and  C_35
   16  A    between atoms: C_26  and  C_33
   17  A    between atoms: C_31  and  N_43
   18  A    between atoms: C_32  and  C_49
   19  A    between atoms: C_33  and  C_48
   20  A    between atoms: C_34  and  O_45
   21  A    between atoms: C_37  and  C_41
   22  A    between atoms: C_42  and  O_45
   23  A    between atoms: N_43  and  C_52
                            x       y       z     vdW  Elec       q    Type
                         _______ _______ _______ _____ _____    ______ ____

>  <TORSDO>
F 23

$$$$
