=
 OpenBabel11062418513D

 37 41  0  0  1  0  0  0  0  0999 V2000
  189.4280  174.8180  144.6280 N   0  0  0  0  0  0  0  0  0  0  0  0
  190.8060  176.3430  145.8210 C   0  0  0  0  0  3  0  0  0  0  0  0
  191.3680  175.7230  143.5560 C   0  0  0  0  0  0  0  0  0  0  0  0
  192.2780  175.8200  142.3740 C   0  0  0  0  0  1  0  0  0  0  0  0
  189.6770  175.5220  145.7640 C   0  0  0  0  0  0  0  0  0  0  0  0
  191.6580  176.4500  144.7190 C   0  0  0  0  0  0  0  0  0  0  0  0
  190.2310  174.8950  143.5310 C   0  0  0  0  0  0  0  0  0  0  0  0
  189.2560  172.2700  143.8490 O   0  0  0  0  0  0  0  0  0  0  0  0
  187.8920  172.5050  141.8600 C   0  0  0  0  0  2  0  0  0  0  0  0
  187.1410  174.9770  142.3690 O   0  0  0  0  0  1  0  0  0  0  0  0
  188.2930  174.2320  140.2320 C   0  0  2  0  0  3  0  0  0  0  0  0
  189.9080  174.0770  142.3090 C   0  0  2  0  0  3  0  0  0  0  0  0
  189.3480  174.9210  141.1440 C   0  0  2  0  0  3  0  0  0  0  0  0
  187.8710  175.3180  141.2280 C   0  0  0  0  0  0  0  0  0  0  0  0
  188.0190  172.8510  140.5020 O   0  0  0  0  0  0  0  0  0  0  0  0
  189.1940  172.7570  142.5730 C   0  0  1  0  0  0  0  0  0  0  0  0
  190.8040  170.8010  142.2310 O   0  0  0  0  0  0  0  0  0  0  0  0
  187.5720  176.5520  140.6560 O   0  0  0  0  0  1  0  0  0  0  0  0
  190.0140  171.6620  142.7030 C   0  0  0  0  0  0  0  0  0  0  0  0
  189.0340  174.4890  147.7850 O   0  0  0  0  0  0  0  0  0  0  0  0
  188.7690  175.3700  146.9270 C   0  0  0  0  0  0  0  0  0  0  0  0
  187.6010  176.1790  147.1240 N   0  0  0  0  0  2  0  0  0  0  0  0
  185.7410  179.2120  145.8370 C   0  0  0  0  0  2  0  0  0  0  0  0
  186.3260  178.2430  146.8630 C   0  0  0  0  0  2  0  0  0  0  0  0
  187.0330  177.0980  146.1480 C   0  0  2  0  0  3  0  0  0  0  0  0
  184.7660  178.4840  144.9110 C   0  0  2  0  0  3  0  0  0  0  0  0
  185.4750  177.3250  144.2100 C   0  0  0  0  0  2  0  0  0  0  0  0
  186.0460  176.3610  145.2440 C   0  0  0  0  0  2  0  0  0  0  0  0
  184.1750  178.6230  142.7860 C   0  0  0  0  0  1  0  0  0  0  0  0
  184.2750  179.3750  143.9560 O   0  0  0  0  0  0  0  0  0  0  0  0
  192.7870  177.2760  144.7610 O   0  0  0  0  0  0  0  0  0  0  0  0
  193.9760  176.9360  145.4650 C   0  0  0  0  0  2  0  0  0  0  0  0
  194.7800  175.9160  144.6780 C   0  0  1  0  0  3  0  0  0  0  0  0
  196.0000  176.5440  144.2060 N   0  0  0  0  0  1  0  0  0  0  0  0
  195.1410  174.7340  145.5610 C   0  0  0  0  0  2  0  0  0  0  0  0
  193.6170  173.1210  144.6160 N   0  0  0  0  0  2  0  0  0  0  0  0
  194.0060  173.7680  145.6510 C   0  0  0  0  0  3  0  0  0  0  0  0
  1  5  1  0  0  0  0
  3  6  2  0  0  0  0
  4  3  1  0  0  0  0
  5  2  2  0  0  0  0
  5 21  1  0  0  0  0
  6 31  1  0  0  0  0
  6  2  1  0  0  0  0
  7  3  1  0  0  0  0
  7  1  2  0  0  0  0
 11 15  1  1  0  0  0
 11 13  1  0  0  0  0
 11 14  1  0  0  0  0
 12 16  1  0  0  0  0
 12  7  1  1  0  0  0
 13 14  1  1  0  0  0
 13 12  1  0  0  0  0
 14 10  1  0  0  0  0
 15  9  1  0  0  0  0
 16  9  1  6  0  0  0
 16 19  1  0  0  0  0
 16  8  1  0  0  0  0
 17 19  2  0  0  0  0
 18 14  1  0  0  0  0
 19  8  1  0  0  0  0
 21 22  1  0  0  0  0
 21 20  2  0  0  0  0
 23 24  1  0  0  0  0
 25 24  1  0  0  0  0
 25 22  1  1  0  0  0
 26 30  1  6  0  0  0
 26 23  1  0  0  0  0
 27 26  1  0  0  0  0
 27 28  1  0  0  0  0
 28 25  1  0  0  0  0
 29 30  1  0  0  0  0
 31 32  1  0  0  0  0
 33 34  1  1  0  0  0
 33 32  1  0  0  0  0
 33 35  1  0  0  0  0
 35 37  1  0  0  0  0
 36 37  2  0  0  0  0
M  END
>  <MODEL>
1

>  <REMARK>
 VINA RESULT:      -7.3      0.000      0.000
  Name = 
  9 active torsions:
  status: ('A' for Active; 'I' for Inactive)
    1  A    between atoms: O_1  and  C_16
    2  A    between atoms: O_1  and  C_25
    3  A    between atoms: C_4  and  C_16
    4  A    between atoms: C_4  and  C_37
    5  A    between atoms: C_12  and  C_34
    6  A    between atoms: C_17  and  C_18
    7  A    between atoms: O_27  and  C_30
    8  A    between atoms: C_29  and  N_31
    9  A    between atoms: C_36  and  C_37
                            x       y       z     vdW  Elec       q    Type
                         _______ _______ _______ _____ _____    ______ ____

>  <TORSDO>
F 9

$$$$
=
 OpenBabel11062418513D

 37 41  0  0  1  0  0  0  0  0999 V2000
  188.9520  176.2670  143.2020 N   0  0  0  0  0  0  0  0  0  0  0  0
  187.8180  175.2080  141.4010 C   0  0  0  0  0  3  0  0  0  0  0  0
  189.0550  173.8830  142.9970 C   0  0  0  0  0  0  0  0  0  0  0  0
  189.5430  172.5550  143.4770 C   0  0  0  0  0  1  0  0  0  0  0  0
  188.1660  176.3690  142.0960 C   0  0  0  0  0  0  0  0  0  0  0  0
  188.2580  173.9590  141.8470 C   0  0  0  0  0  0  0  0  0  0  0  0
  189.4010  175.0700  143.6700 C   0  0  0  0  0  0  0  0  0  0  0  0
  192.1800  175.4310  143.3770 O   0  0  0  0  0  0  0  0  0  0  0  0
  192.2930  176.5380  145.5290 C   0  0  0  0  0  2  0  0  0  0  0  0
  190.0690  177.9110  145.2140 O   0  0  0  0  0  1  0  0  0  0  0  0
  190.5320  176.3450  147.1590 C   0  0  2  0  0  3  0  0  0  0  0  0
  190.2810  175.0270  144.8900 C   0  0  2  0  0  3  0  0  0  0  0  0
  189.6050  175.6120  146.1490 C   0  0  2  0  0  3  0  0  0  0  0  0
  189.5710  177.1380  146.2670 C   0  0  0  0  0  0  0  0  0  0  0  0
  191.9360  176.3190  146.8730 O   0  0  0  0  0  0  0  0  0  0  0  0
  191.7320  175.4370  144.6680 C   0  0  1  0  0  0  0  0  0  0  0  0
  193.2490  173.3820  144.7290 O   0  0  0  0  0  0  0  0  0  0  0  0
  188.4480  177.6430  146.9190 O   0  0  0  0  0  1  0  0  0  0  0  0
  192.5980  174.4060  144.3940 C   0  0  0  0  0  0  0  0  0  0  0  0
  188.1060  178.1020  140.4990 O   0  0  0  0  0  0  0  0  0  0  0  0
  187.7340  177.7100  141.6340 C   0  0  0  0  0  0  0  0  0  0  0  0
  186.9090  178.5830  142.4170 N   0  0  0  0  0  2  0  0  0  0  0  0
  185.2970  176.9450  145.4220 C   0  0  0  0  0  2  0  0  0  0  0  0
  185.6600  177.1580  143.9540 C   0  0  0  0  0  2  0  0  0  0  0  0
  186.5530  178.3850  143.8150 C   0  0  2  0  0  3  0  0  0  0  0  0
  184.5900  178.1800  145.9810 C   0  0  2  0  0  3  0  0  0  0  0  0
  185.4810  179.4120  145.8230 C   0  0  0  0  0  2  0  0  0  0  0  0
  185.8280  179.6180  144.3520 C   0  0  0  0  0  2  0  0  0  0  0  0
  185.4330  178.4490  148.0060 C   0  0  0  0  0  1  0  0  0  0  0  0
  184.3040  177.9830  147.3330 O   0  0  0  0  0  0  0  0  0  0  0  0
  187.9080  172.7880  141.1640 O   0  0  0  0  0  0  0  0  0  0  0  0
  188.1720  172.5830  139.7810 C   0  0  0  0  0  2  0  0  0  0  0  0
  189.6240  172.1860  139.5760 C   0  0  1  0  0  3  0  0  0  0  0  0
  189.6820  171.1010  138.6160 N   0  0  0  0  0  1  0  0  0  0  0  0
  190.4230  173.3630  139.0430 C   0  0  0  0  0  2  0  0  0  0  0  0
  191.9040  172.8520  140.8760 N   0  0  0  0  0  2  0  0  0  0  0  0
  191.6660  173.5720  139.8450 C   0  0  0  0  0  3  0  0  0  0  0  0
  1  7  1  0  0  0  0
  2  6  2  0  0  0  0
  2  5  1  0  0  0  0
  3  4  1  0  0  0  0
  3  7  2  0  0  0  0
  5  1  2  0  0  0  0
  6  3  1  0  0  0  0
  8 19  1  0  0  0  0
  8 16  1  0  0  0  0
  9 15  1  0  0  0  0
 10 14  1  0  0  0  0
 11 15  1  6  0  0  0
 12  7  1  6  0  0  0
 12 13  1  0  0  0  0
 13 14  1  6  0  0  0
 13 11  1  0  0  0  0
 14 18  1  0  0  0  0
 14 11  1  0  0  0  0
 16 12  1  0  0  0  0
 16  9  1  1  0  0  0
 19 16  1  0  0  0  0
 19 17  2  0  0  0  0
 20 21  2  0  0  0  0
 21  5  1  0  0  0  0
 21 22  1  0  0  0  0
 23 26  1  0  0  0  0
 24 23  1  0  0  0  0
 25 22  1  6  0  0  0
 25 24  1  0  0  0  0
 25 28  1  0  0  0  0
 26 30  1  1  0  0  0
 27 26  1  0  0  0  0
 28 27  1  0  0  0  0
 30 29  1  0  0  0  0
 31  6  1  0  0  0  0
 32 31  1  0  0  0  0
 33 34  1  6  0  0  0
 33 32  1  0  0  0  0
 35 33  1  0  0  0  0
 35 37  1  0  0  0  0
 37 36  2  0  0  0  0
M  END
>  <MODEL>
2

>  <REMARK>
 VINA RESULT:      -7.2      2.431      5.529
  Name = 
  9 active torsions:
  status: ('A' for Active; 'I' for Inactive)
    1  A    between atoms: O_1  and  C_16
    2  A    between atoms: O_1  and  C_25
    3  A    between atoms: C_4  and  C_16
    4  A    between atoms: C_4  and  C_37
    5  A    between atoms: C_12  and  C_34
    6  A    between atoms: C_17  and  C_18
    7  A    between atoms: O_27  and  C_30
    8  A    between atoms: C_29  and  N_31
    9  A    between atoms: C_36  and  C_37
                            x       y       z     vdW  Elec       q    Type
                         _______ _______ _______ _____ _____    ______ ____

>  <TORSDO>
F 9

$$$$
=
 OpenBabel11062418513D

 37 41  0  0  1  0  0  0  0  0999 V2000
  190.5340  174.4790  143.6100 N   0  0  0  0  0  0  0  0  0  0  0  0
  188.3700  174.7570  142.6650 C   0  0  0  0  0  3  0  0  0  0  0  0
  189.4130  176.5800  143.8580 C   0  0  0  0  0  0  0  0  0  0  0  0
  189.3680  177.9780  144.3830 C   0  0  0  0  0  1  0  0  0  0  0  0
  189.4950  173.9620  142.8990 C   0  0  0  0  0  0  0  0  0  0  0  0
  188.3220  176.0700  143.1410 C   0  0  0  0  0  0  0  0  0  0  0  0
  190.5270  175.7530  144.0900 C   0  0  0  0  0  0  0  0  0  0  0  0
  190.9350  174.7970  146.7090 O   0  0  0  0  0  0  0  0  0  0  0  0
  193.3360  174.9600  146.4250 C   0  0  0  0  0  2  0  0  0  0  0  0
  193.3520  174.0480  143.9550 O   0  0  0  0  0  1  0  0  0  0  0  0
  194.3290  176.2790  144.6750 C   0  0  2  0  0  3  0  0  0  0  0  0
  191.7020  176.2590  144.8830 C   0  0  2  0  0  3  0  0  0  0  0  0
  192.9470  176.5400  144.0130 C   0  0  2  0  0  3  0  0  0  0  0  0
  193.7880  175.3280  143.6020 C   0  0  0  0  0  0  0  0  0  0  0  0
  194.3160  175.9000  146.0570 O   0  0  0  0  0  0  0  0  0  0  0  0
  191.9640  175.5380  146.2000 C   0  0  1  0  0  0  0  0  0  0  0  0
  191.2750  177.0180  148.1660 O   0  0  0  0  0  0  0  0  0  0  0  0
  194.3970  175.4450  142.3550 O   0  0  0  0  0  1  0  0  0  0  0  0
  191.3760  176.1040  147.3050 C   0  0  0  0  0  0  0  0  0  0  0  0
  189.6830  171.6430  143.2820 O   0  0  0  0  0  0  0  0  0  0  0  0
  189.5650  172.5580  142.4270 C   0  0  0  0  0  0  0  0  0  0  0  0
  189.5040  172.1900  141.0420 N   0  0  0  0  0  2  0  0  0  0  0  0
  188.3340  174.0360  137.9550 C   0  0  0  0  0  2  0  0  0  0  0  0
  188.2670  173.0600  139.1280 C   0  0  0  0  0  2  0  0  0  0  0  0
  189.5690  173.1110  139.9170 C   0  0  2  0  0  3  0  0  0  0  0  0
  189.5170  173.6980  137.0460 C   0  0  2  0  0  3  0  0  0  0  0  0
  190.8190  173.7320  137.8460 C   0  0  0  0  0  2  0  0  0  0  0  0
  190.7430  172.7470  139.0080 C   0  0  0  0  0  2  0  0  0  0  0  0
  190.9490  174.8480  135.8180 C   0  0  0  0  0  1  0  0  0  0  0  0
  189.5860  174.6250  136.0050 O   0  0  0  0  0  0  0  0  0  0  0  0
  187.2040  176.8780  142.9050 O   0  0  0  0  0  0  0  0  0  0  0  0
  185.9230  176.6220  143.4660 C   0  0  0  0  0  2  0  0  0  0  0  0
  185.6690  177.5470  144.6440 C   0  0  1  0  0  3  0  0  0  0  0  0
  184.4260  178.2620  144.4190 N   0  0  0  0  0  1  0  0  0  0  0  0
  185.5540  176.7460  145.9290 C   0  0  0  0  0  2  0  0  0  0  0  0
  187.6440  176.0820  146.9330 N   0  0  0  0  0  2  0  0  0  0  0  0
  186.7380  176.9780  146.8110 C   0  0  0  0  0  3  0  0  0  0  0  0
  1  7  1  0  0  0  0
  2  5  1  0  0  0  0
  2  6  2  0  0  0  0
  3  7  2  0  0  0  0
  3  4  1  0  0  0  0
  5  1  2  0  0  0  0
  6  3  1  0  0  0  0
  8 19  1  0  0  0  0
 11 15  1  1  0  0  0
 12  7  1  6  0  0  0
 12 16  1  0  0  0  0
 13 14  1  6  0  0  0
 13 11  1  0  0  0  0
 13 12  1  0  0  0  0
 14 10  1  0  0  0  0
 14 11  1  0  0  0  0
 15  9  1  0  0  0  0
 16  9  1  1  0  0  0
 16  8  1  0  0  0  0
 16 19  1  0  0  0  0
 18 14  1  0  0  0  0
 19 17  2  0  0  0  0
 21  5  1  0  0  0  0
 21 20  2  0  0  0  0
 22 21  1  0  0  0  0
 23 24  1  0  0  0  0
 24 25  1  0  0  0  0
 25 22  1  1  0  0  0
 26 30  1  6  0  0  0
 26 27  1  0  0  0  0
 26 23  1  0  0  0  0
 27 28  1  0  0  0  0
 28 25  1  0  0  0  0
 29 30  1  0  0  0  0
 31  6  1  0  0  0  0
 31 32  1  0  0  0  0
 32 33  1  0  0  0  0
 33 34  1  6  0  0  0
 33 35  1  0  0  0  0
 35 37  1  0  0  0  0
 37 36  2  0  0  0  0
M  END
>  <MODEL>
3

>  <REMARK>
 VINA RESULT:      -7.0      2.472      7.322
  Name = 
  9 active torsions:
  status: ('A' for Active; 'I' for Inactive)
    1  A    between atoms: O_1  and  C_16
    2  A    between atoms: O_1  and  C_25
    3  A    between atoms: C_4  and  C_16
    4  A    between atoms: C_4  and  C_37
    5  A    between atoms: C_12  and  C_34
    6  A    between atoms: C_17  and  C_18
    7  A    between atoms: O_27  and  C_30
    8  A    between atoms: C_29  and  N_31
    9  A    between atoms: C_36  and  C_37
                            x       y       z     vdW  Elec       q    Type
                         _______ _______ _______ _____ _____    ______ ____

>  <TORSDO>
F 9

$$$$
=
 OpenBabel11062418513D

 37 41  0  0  1  0  0  0  0  0999 V2000
  192.6700  174.7420  145.1610 N   0  0  0  0  0  0  0  0  0  0  0  0
  190.5930  173.5870  145.1740 C   0  0  0  0  0  3  0  0  0  0  0  0
  192.2290  173.1130  143.4620 C   0  0  0  0  0  0  0  0  0  0  0  0
  192.6410  172.3680  142.2340 C   0  0  0  0  0  1  0  0  0  0  0  0
  191.4600  174.5220  145.7430 C   0  0  0  0  0  0  0  0  0  0  0  0
  190.9710  172.8750  144.0330 C   0  0  0  0  0  0  0  0  0  0  0  0
  193.0780  174.0700  144.0490 C   0  0  0  0  0  0  0  0  0  0  0  0
  193.4950  176.5570  142.7920 O   0  0  0  0  0  0  0  0  0  0  0  0
  195.8080  176.5660  143.5120 C   0  0  0  0  0  2  0  0  0  0  0  0
  195.3190  175.6160  145.9180 O   0  0  0  0  0  1  0  0  0  0  0  0
  196.9230  174.5660  144.2530 C   0  0  2  0  0  3  0  0  0  0  0  0
  194.4220  174.3730  143.4450 C   0  0  2  0  0  3  0  0  0  0  0  0
  195.5970  173.7550  144.2340 C   0  0  2  0  0  3  0  0  0  0  0  0
  196.0380  174.4920  145.5020 C   0  0  0  0  0  0  0  0  0  0  0  0
  196.9570  175.7550  143.4550 O   0  0  0  0  0  0  0  0  0  0  0  0
  194.6230  175.8080  142.9750 C   0  0  1  0  0  0  0  0  0  0  0  0
  194.5650  175.9160  140.4220 O   0  0  0  0  0  0  0  0  0  0  0  0
  196.5190  173.6640  146.5140 O   0  0  0  0  0  1  0  0  0  0  0  0
  194.3280  176.0390  141.6530 C   0  0  0  0  0  0  0  0  0  0  0  0
  191.7000  175.1100  148.0150 O   0  0  0  0  0  0  0  0  0  0  0  0
  191.0770  175.3090  146.9400 C   0  0  0  0  0  0  0  0  0  0  0  0
  190.0300  176.2900  146.9340 N   0  0  0  0  0  2  0  0  0  0  0  0
  188.5340  177.9150  143.8630 C   0  0  0  0  0  2  0  0  0  0  0  0
  189.5250  177.6950  145.0040 C   0  0  0  0  0  2  0  0  0  0  0  0
  189.0810  176.5090  145.8520 C   0  0  2  0  0  3  0  0  0  0  0  0
  187.1290  178.1570  144.4160 C   0  0  2  0  0  3  0  0  0  0  0  0
  186.6950  176.9740  145.2810 C   0  0  0  0  0  2  0  0  0  0  0  0
  187.6870  176.7700  146.4220 C   0  0  0  0  0  2  0  0  0  0  0  0
  185.2030  177.4130  143.6290 C   0  0  0  0  0  1  0  0  0  0  0  0
  186.2320  178.3140  143.3590 O   0  0  0  0  0  0  0  0  0  0  0  0
  190.1140  171.9290  143.4590 O   0  0  0  0  0  0  0  0  0  0  0  0
  188.8660  172.2660  142.8650 C   0  0  0  0  0  2  0  0  0  0  0  0
  189.0690  173.2770  141.7510 C   0  0  1  0  0  3  0  0  0  0  0  0
  188.5180  172.7390  140.5220 N   0  0  0  0  0  1  0  0  0  0  0  0
  188.3600  174.5790  142.0830 C   0  0  0  0  0  2  0  0  0  0  0  0
  187.3870  176.4180  140.8650 N   0  0  0  0  0  2  0  0  0  0  0  0
  188.1910  175.4220  140.8610 C   0  0  0  0  0  3  0  0  0  0  0  0
  1  5  1  0  0  0  0
  2  5  2  0  0  0  0
  3  6  2  0  0  0  0
  3  7  1  0  0  0  0
  4  3  1  0  0  0  0
  5 21  1  0  0  0  0
  6  2  1  0  0  0  0
  7  1  2  0  0  0  0
  8 16  1  0  0  0  0
 11 15  1  6  0  0  0
 11 14  1  0  0  0  0
 12  7  1  1  0  0  0
 12 13  1  0  0  0  0
 13 11  1  0  0  0  0
 13 14  1  1  0  0  0
 14 10  1  0  0  0  0
 14 18  1  0  0  0  0
 15  9  1  0  0  0  0
 16 12  1  0  0  0  0
 16  9  1  1  0  0  0
 17 19  2  0  0  0  0
 19  8  1  0  0  0  0
 19 16  1  0  0  0  0
 21 20  2  0  0  0  0
 22 21  1  0  0  0  0
 23 26  1  0  0  0  0
 23 24  1  0  0  0  0
 24 25  1  0  0  0  0
 25 28  1  0  0  0  0
 25 22  1  1  0  0  0
 26 30  1  6  0  0  0
 26 27  1  0  0  0  0
 27 28  1  0  0  0  0
 30 29  1  0  0  0  0
 31  6  1  0  0  0  0
 32 31  1  0  0  0  0
 33 34  1  6  0  0  0
 33 35  1  0  0  0  0
 33 32  1  0  0  0  0
 37 36  2  0  0  0  0
 37 35  1  0  0  0  0
M  END
>  <MODEL>
4

>  <REMARK>
 VINA RESULT:      -7.0      2.524      6.000
  Name = 
  9 active torsions:
  status: ('A' for Active; 'I' for Inactive)
    1  A    between atoms: O_1  and  C_16
    2  A    between atoms: O_1  and  C_25
    3  A    between atoms: C_4  and  C_16
    4  A    between atoms: C_4  and  C_37
    5  A    between atoms: C_12  and  C_34
    6  A    between atoms: C_17  and  C_18
    7  A    between atoms: O_27  and  C_30
    8  A    between atoms: C_29  and  N_31
    9  A    between atoms: C_36  and  C_37
                            x       y       z     vdW  Elec       q    Type
                         _______ _______ _______ _____ _____    ______ ____

>  <TORSDO>
F 9

$$$$
=
 OpenBabel11062418513D

 37 41  0  0  1  0  0  0  0  0999 V2000
  191.3270  174.6290  143.9210 N   0  0  0  0  0  0  0  0  0  0  0  0
  189.0400  175.2650  143.7970 C   0  0  0  0  0  3  0  0  0  0  0  0
  190.7660  176.9550  143.8320 C   0  0  0  0  0  0  0  0  0  0  0  0
  191.1710  178.3930  143.8290 C   0  0  0  0  0  1  0  0  0  0  0  0
  190.0160  174.2680  143.8590 C   0  0  0  0  0  0  0  0  0  0  0  0
  189.4070  176.6130  143.7810 C   0  0  0  0  0  0  0  0  0  0  0  0
  191.7270  175.9300  143.9060 C   0  0  0  0  0  0  0  0  0  0  0  0
  193.1620  175.2350  146.2300 O   0  0  0  0  0  0  0  0  0  0  0  0
  195.1570  174.8370  144.9140 C   0  0  0  0  0  2  0  0  0  0  0  0
  193.9060  173.6500  142.9250 O   0  0  0  0  0  1  0  0  0  0  0  0
  195.4020  175.6880  142.6760 C   0  0  2  0  0  3  0  0  0  0  0  0
  193.1930  176.2620  143.9930 C   0  0  2  0  0  3  0  0  0  0  0  0
  193.9210  176.1590  142.6350 C   0  0  2  0  0  3  0  0  0  0  0  0
  194.3010  174.7530  142.1620 C   0  0  0  0  0  0  0  0  0  0  0  0
  195.9750  175.4910  143.9740 O   0  0  0  0  0  0  0  0  0  0  0  0
  193.9310  175.6680  145.1860 C   0  0  1  0  0  0  0  0  0  0  0  0
  194.4380  177.4900  146.9050 O   0  0  0  0  0  0  0  0  0  0  0  0
  194.2750  174.5820  140.7800 O   0  0  0  0  0  1  0  0  0  0  0  0
  194.0030  176.4780  146.2940 C   0  0  0  0  0  0  0  0  0  0  0  0
  189.5990  172.2580  145.0200 O   0  0  0  0  0  0  0  0  0  0  0  0
  189.6560  172.8300  143.9010 C   0  0  0  0  0  0  0  0  0  0  0  0
  189.3670  172.0570  142.7280 N   0  0  0  0  0  2  0  0  0  0  0  0
  188.4740  173.3910  139.3020 C   0  0  0  0  0  2  0  0  0  0  0  0
  188.2500  172.9250  140.7390 C   0  0  0  0  0  2  0  0  0  0  0  0
  189.5760  172.4920  141.3540 C   0  0  2  0  0  3  0  0  0  0  0  0
  189.1040  172.2730  138.4700 C   0  0  2  0  0  3  0  0  0  0  0  0
  190.4240  171.8300  139.1010 C   0  0  0  0  0  2  0  0  0  0  0  0
  190.1850  171.3580  140.5310 C   0  0  0  0  0  2  0  0  0  0  0  0
  190.3690  173.6620  137.3060 C   0  0  0  0  0  1  0  0  0  0  0  0
  189.3390  172.7320  137.1730 O   0  0  0  0  0  0  0  0  0  0  0  0
  188.4380  177.6210  143.7100 O   0  0  0  0  0  0  0  0  0  0  0  0
  187.4110  177.6480  142.7270 C   0  0  0  0  0  2  0  0  0  0  0  0
  186.3170  178.6200  143.1340 C   0  0  1  0  0  3  0  0  0  0  0  0
  185.0590  178.1740  142.5670 N   0  0  0  0  0  1  0  0  0  0  0  0
  186.1890  178.6690  144.6460 C   0  0  0  0  0  2  0  0  0  0  0  0
  185.4800  176.7460  145.9180 N   0  0  0  0  0  2  0  0  0  0  0  0
  185.1580  177.7000  145.1270 C   0  0  0  0  0  3  0  0  0  0  0  0
  2  5  1  0  0  0  0
  3  7  2  0  0  0  0
  4  3  1  0  0  0  0
  5 21  1  0  0  0  0
  5  1  2  0  0  0  0
  6  2  2  0  0  0  0
  6  3  1  0  0  0  0
  7  1  1  0  0  0  0
  8 19  1  0  0  0  0
 11 15  1  1  0  0  0
 12  7  1  6  0  0  0
 12 16  1  0  0  0  0
 13 14  1  6  0  0  0
 13 11  1  0  0  0  0
 13 12  1  0  0  0  0
 14 11  1  0  0  0  0
 14 10  1  0  0  0  0
 15  9  1  0  0  0  0
 16  9  1  6  0  0  0
 16  8  1  0  0  0  0
 16 19  1  0  0  0  0
 18 14  1  0  0  0  0
 19 17  2  0  0  0  0
 21 20  2  0  0  0  0
 22 21  1  0  0  0  0
 23 24  1  0  0  0  0
 24 25  1  0  0  0  0
 25 22  1  1  0  0  0
 26 30  1  6  0  0  0
 26 27  1  0  0  0  0
 26 23  1  0  0  0  0
 27 28  1  0  0  0  0
 28 25  1  0  0  0  0
 30 29  1  0  0  0  0
 31  6  1  0  0  0  0
 32 33  1  0  0  0  0
 32 31  1  0  0  0  0
 33 34  1  6  0  0  0
 33 35  1  0  0  0  0
 35 37  1  0  0  0  0
 37 36  2  0  0  0  0
M  END
>  <MODEL>
5

>  <REMARK>
 VINA RESULT:      -6.9      2.524      7.174
  Name = 
  9 active torsions:
  status: ('A' for Active; 'I' for Inactive)
    1  A    between atoms: O_1  and  C_16
    2  A    between atoms: O_1  and  C_25
    3  A    between atoms: C_4  and  C_16
    4  A    between atoms: C_4  and  C_37
    5  A    between atoms: C_12  and  C_34
    6  A    between atoms: C_17  and  C_18
    7  A    between atoms: O_27  and  C_30
    8  A    between atoms: C_29  and  N_31
    9  A    between atoms: C_36  and  C_37
                            x       y       z     vdW  Elec       q    Type
                         _______ _______ _______ _____ _____    ______ ____

>  <TORSDO>
F 9

$$$$
=
 OpenBabel11062418513D

 37 41  0  0  1  0  0  0  0  0999 V2000
  189.0390  175.2010  143.8520 N   0  0  0  0  0  0  0  0  0  0  0  0
  191.3560  174.7690  144.1580 C   0  0  0  0  0  3  0  0  0  0  0  0
  190.5830  177.0310  143.8110 C   0  0  0  0  0  0  0  0  0  0  0  0
  190.8710  178.4890  143.6580 C   0  0  0  0  0  1  0  0  0  0  0  0
  190.0400  174.3080  144.0760 C   0  0  0  0  0  0  0  0  0  0  0  0
  191.6370  176.1310  144.0280 C   0  0  0  0  0  0  0  0  0  0  0  0
  189.2690  176.5370  143.7210 C   0  0  0  0  0  0  0  0  0  0  0  0
  187.2760  175.7830  141.8760 O   0  0  0  0  0  0  0  0  0  0  0  0
  185.5930  176.9420  143.1770 C   0  0  0  0  0  2  0  0  0  0  0  0
  186.5220  176.1750  145.5190 O   0  0  0  0  0  1  0  0  0  0  0  0
  186.1680  178.5940  144.8300 C   0  0  2  0  0  3  0  0  0  0  0  0
  188.1180  177.4710  143.4580 C   0  0  2  0  0  3  0  0  0  0  0  0
  187.6830  178.2660  144.7080 C   0  0  2  0  0  3  0  0  0  0  0  0
  186.8080  177.5270  145.7250 C   0  0  0  0  0  0  0  0  0  0  0  0
  185.3410  178.2140  143.7240 O   0  0  0  0  0  0  0  0  0  0  0  0
  186.9880  176.8980  142.6120 C   0  0  1  0  0  0  0  0  0  0  0  0
  187.0430  177.9100  140.2660 O   0  0  0  0  0  0  0  0  0  0  0  0
  187.0070  177.9150  147.0480 O   0  0  0  0  0  1  0  0  0  0  0  0
  187.0830  177.1410  141.2630 C   0  0  0  0  0  0  0  0  0  0  0  0
  189.6640  172.3470  145.3310 O   0  0  0  0  0  0  0  0  0  0  0  0
  189.7150  172.8650  144.1860 C   0  0  0  0  0  0  0  0  0  0  0  0
  189.4520  172.0300  143.0500 N   0  0  0  0  0  2  0  0  0  0  0  0
  188.5390  173.0830  139.5330 C   0  0  0  0  0  2  0  0  0  0  0  0
  188.3180  172.6810  140.9900 C   0  0  0  0  0  2  0  0  0  0  0  0
  189.6590  172.4030  141.6580 C   0  0  2  0  0  3  0  0  0  0  0  0
  189.2860  171.9800  138.7830 C   0  0  2  0  0  3  0  0  0  0  0  0
  190.6220  171.6910  139.4670 C   0  0  0  0  0  2  0  0  0  0  0  0
  190.3870  171.2820  140.9170 C   0  0  0  0  0  2  0  0  0  0  0  0
  189.4470  173.7750  137.5040 C   0  0  0  0  0  1  0  0  0  0  0  0
  189.5150  172.3830  137.4660 O   0  0  0  0  0  0  0  0  0  0  0  0
  192.9510  176.6060  144.1170 O   0  0  0  0  0  0  0  0  0  0  0  0
  194.0920  175.7600  144.0510 C   0  0  0  0  0  2  0  0  0  0  0  0
  195.0710  176.1100  145.1570 C   0  0  1  0  0  3  0  0  0  0  0  0
  194.5630  177.2550  145.8890 N   0  0  0  0  0  1  0  0  0  0  0  0
  195.2280  174.9410  146.1140 C   0  0  0  0  0  2  0  0  0  0  0  0
  197.1910  173.5900  146.4860 N   0  0  0  0  0  2  0  0  0  0  0  0
  196.3130  174.0200  145.6590 C   0  0  0  0  0  3  0  0  0  0  0  0
  1  5  1  0  0  0  0
  3  6  2  0  0  0  0
  4  3  1  0  0  0  0
  5  2  2  0  0  0  0
  5 21  1  0  0  0  0
  6 31  1  0  0  0  0
  6  2  1  0  0  0  0
  7  3  1  0  0  0  0
  7  1  2  0  0  0  0
  8 16  1  0  0  0  0
  9 15  1  0  0  0  0
 10 14  1  0  0  0  0
 11 15  1  6  0  0  0
 11 14  1  0  0  0  0
 12  7  1  1  0  0  0
 12 13  1  0  0  0  0
 13 11  1  0  0  0  0
 13 14  1  1  0  0  0
 14 18  1  0  0  0  0
 16  9  1  1  0  0  0
 16 12  1  0  0  0  0
 17 19  2  0  0  0  0
 19  8  1  0  0  0  0
 19 16  1  0  0  0  0
 21 20  2  0  0  0  0
 22 21  1  0  0  0  0
 23 24  1  0  0  0  0
 24 25  1  0  0  0  0
 25 22  1  1  0  0  0
 26 30  1  6  0  0  0
 26 27  1  0  0  0  0
 26 23  1  0  0  0  0
 27 28  1  0  0  0  0
 28 25  1  0  0  0  0
 30 29  1  0  0  0  0
 32 31  1  0  0  0  0
 32 33  1  0  0  0  0
 33 34  1  1  0  0  0
 33 35  1  0  0  0  0
 37 35  1  0  0  0  0
 37 36  2  0  0  0  0
M  END
>  <MODEL>
6

>  <REMARK>
 VINA RESULT:      -6.8      2.082      5.604
  Name = 
  9 active torsions:
  status: ('A' for Active; 'I' for Inactive)
    1  A    between atoms: O_1  and  C_16
    2  A    between atoms: O_1  and  C_25
    3  A    between atoms: C_4  and  C_16
    4  A    between atoms: C_4  and  C_37
    5  A    between atoms: C_12  and  C_34
    6  A    between atoms: C_17  and  C_18
    7  A    between atoms: O_27  and  C_30
    8  A    between atoms: C_29  and  N_31
    9  A    between atoms: C_36  and  C_37
                            x       y       z     vdW  Elec       q    Type
                         _______ _______ _______ _____ _____    ______ ____

>  <TORSDO>
F 9

$$$$
=
 OpenBabel11062418513D

 37 41  0  0  1  0  0  0  0  0999 V2000
  191.4020  174.6020  143.9480 N   0  0  0  0  0  0  0  0  0  0  0  0
  189.1220  175.2670  143.8450 C   0  0  0  0  0  3  0  0  0  0  0  0
  190.8680  176.9350  143.8840 C   0  0  0  0  0  0  0  0  0  0  0  0
  191.2910  178.3680  143.8910 C   0  0  0  0  0  1  0  0  0  0  0  0
  190.0860  174.2580  143.8910 C   0  0  0  0  0  0  0  0  0  0  0  0
  189.5050  176.6110  143.8390 C   0  0  0  0  0  0  0  0  0  0  0  0
  191.8180  175.8980  143.9430 C   0  0  0  0  0  0  0  0  0  0  0  0
  193.2310  175.2790  146.3010 O   0  0  0  0  0  0  0  0  0  0  0  0
  195.2260  174.7970  145.0130 C   0  0  0  0  0  2  0  0  0  0  0  0
  193.9660  173.5470  143.0680 O   0  0  0  0  0  1  0  0  0  0  0  0
  195.4940  175.5500  142.7420 C   0  0  2  0  0  3  0  0  0  0  0  0
  193.2880  176.2110  144.0230 C   0  0  2  0  0  3  0  0  0  0  0  0
  194.0200  176.0410  142.6750 C   0  0  2  0  0  3  0  0  0  0  0  0
  194.3810  174.6110  142.2620 C   0  0  0  0  0  0  0  0  0  0  0  0
  196.0580  175.3990  144.0510 O   0  0  0  0  0  0  0  0  0  0  0  0
  194.0110  175.6570  145.2440 C   0  0  1  0  0  0  0  0  0  0  0  0
  194.5380  177.5410  146.8880 O   0  0  0  0  0  0  0  0  0  0  0  0
  194.3590  174.3830  140.8880 O   0  0  0  0  0  1  0  0  0  0  0  0
  194.0910  176.5110  146.3170 C   0  0  0  0  0  0  0  0  0  0  0  0
  189.6420  172.2450  145.0370 O   0  0  0  0  0  0  0  0  0  0  0  0
  189.7090  172.8240  143.9220 C   0  0  0  0  0  0  0  0  0  0  0  0
  189.4140  172.0630  142.7430 N   0  0  0  0  0  2  0  0  0  0  0  0
  188.5640  173.5140  139.3540 C   0  0  0  0  0  2  0  0  0  0  0  0
  188.3300  173.0410  140.7880 C   0  0  0  0  0  2  0  0  0  0  0  0
  189.6310  172.5050  141.3730 C   0  0  2  0  0  3  0  0  0  0  0  0
  189.0980  172.3690  138.4940 C   0  0  2  0  0  3  0  0  0  0  0  0
  190.3930  171.8220  139.0950 C   0  0  0  0  0  2  0  0  0  0  0  0
  190.1440  171.3440  140.5220 C   0  0  0  0  0  2  0  0  0  0  0  0
  188.9410  174.1650  137.2180 C   0  0  0  0  0  1  0  0  0  0  0  0
  189.3440  172.8310  137.2010 O   0  0  0  0  0  0  0  0  0  0  0  0
  188.5480  177.6310  143.7840 O   0  0  0  0  0  0  0  0  0  0  0  0
  187.3190  177.5860  144.4980 C   0  0  0  0  0  2  0  0  0  0  0  0
  186.1470  177.6570  143.5340 C   0  0  1  0  0  3  0  0  0  0  0  0
  184.9830  178.1480  144.2460 N   0  0  0  0  0  1  0  0  0  0  0  0
  186.4620  178.6040  142.3880 C   0  0  0  0  0  2  0  0  0  0  0  0
  187.0880  176.9250  140.7730 N   0  0  0  0  0  2  0  0  0  0  0  0
  186.3270  177.9120  141.0710 C   0  0  0  0  0  3  0  0  0  0  0  0
  2  5  1  0  0  0  0
  3  4  1  0  0  0  0
  3  7  2  0  0  0  0
  5 21  1  0  0  0  0
  5  1  2  0  0  0  0
  6  2  2  0  0  0  0
  6  3  1  0  0  0  0
  7  1  1  0  0  0  0
  8 19  1  0  0  0  0
 11 15  1  1  0  0  0
 12  7  1  6  0  0  0
 12 16  1  0  0  0  0
 13 14  1  6  0  0  0
 13 11  1  0  0  0  0
 13 12  1  0  0  0  0
 14 11  1  0  0  0  0
 14 10  1  0  0  0  0
 15  9  1  0  0  0  0
 16  9  1  6  0  0  0
 16  8  1  0  0  0  0
 16 19  1  0  0  0  0
 18 14  1  0  0  0  0
 19 17  2  0  0  0  0
 21 20  2  0  0  0  0
 22 21  1  0  0  0  0
 23 24  1  0  0  0  0
 24 25  1  0  0  0  0
 25 22  1  1  0  0  0
 26 30  1  6  0  0  0
 26 27  1  0  0  0  0
 26 23  1  0  0  0  0
 27 28  1  0  0  0  0
 28 25  1  0  0  0  0
 30 29  1  0  0  0  0
 31  6  1  0  0  0  0
 31 32  1  0  0  0  0
 33 34  1  1  0  0  0
 33 32  1  0  0  0  0
 35 33  1  0  0  0  0
 36 37  2  0  0  0  0
 37 35  1  0  0  0  0
M  END
>  <MODEL>
7

>  <REMARK>
 VINA RESULT:      -6.8      2.575      7.128
  Name = 
  9 active torsions:
  status: ('A' for Active; 'I' for Inactive)
    1  A    between atoms: O_1  and  C_16
    2  A    between atoms: O_1  and  C_25
    3  A    between atoms: C_4  and  C_16
    4  A    between atoms: C_4  and  C_37
    5  A    between atoms: C_12  and  C_34
    6  A    between atoms: C_17  and  C_18
    7  A    between atoms: O_27  and  C_30
    8  A    between atoms: C_29  and  N_31
    9  A    between atoms: C_36  and  C_37
                            x       y       z     vdW  Elec       q    Type
                         _______ _______ _______ _____ _____    ______ ____

>  <TORSDO>
F 9

$$$$
=
 OpenBabel11062418513D

 37 41  0  0  1  0  0  0  0  0999 V2000
  192.7610  174.8180  143.1350 N   0  0  0  0  0  0  0  0  0  0  0  0
  190.7360  175.3880  144.2420 C   0  0  0  0  0  3  0  0  0  0  0  0
  192.8540  175.6940  145.3610 C   0  0  0  0  0  0  0  0  0  0  0  0
  193.6350  176.1030  146.5680 C   0  0  0  0  0  1  0  0  0  0  0  0
  191.4030  174.9090  143.1120 C   0  0  0  0  0  0  0  0  0  0  0  0
  191.4550  175.7850  145.3720 C   0  0  0  0  0  0  0  0  0  0  0  0
  193.4990  175.1950  144.2140 C   0  0  0  0  0  0  0  0  0  0  0  0
  194.6420  172.6200  144.2330 O   0  0  0  0  0  0  0  0  0  0  0  0
  196.4710  173.3890  142.8420 C   0  0  0  0  0  2  0  0  0  0  0  0
  194.9730  174.8840  141.2750 O   0  0  0  0  0  1  0  0  0  0  0  0
  196.9820  175.7270  142.5810 C   0  0  2  0  0  3  0  0  0  0  0  0
  194.9980  175.0550  144.1800 C   0  0  2  0  0  3  0  0  0  0  0  0
  195.6920  176.1480  143.3400 C   0  0  2  0  0  3  0  0  0  0  0  0
  195.6730  175.9640  141.8200 C   0  0  0  0  0  0  0  0  0  0  0  0
  197.4550  174.3950  142.8160 O   0  0  0  0  0  0  0  0  0  0  0  0
  195.5200  173.6370  143.9830 C   0  0  1  0  0  0  0  0  0  0  0  0
  196.4850  172.7400  146.1730 O   0  0  0  0  0  0  0  0  0  0  0  0
  195.6250  177.1530  141.0940 O   0  0  0  0  0  1  0  0  0  0  0  0
  195.7960  172.9470  145.1390 C   0  0  0  0  0  0  0  0  0  0  0  0
  191.2610  173.7240  141.0780 O   0  0  0  0  0  0  0  0  0  0  0  0
  190.6650  174.4580  141.9080 C   0  0  0  0  0  0  0  0  0  0  0  0
  189.3020  174.8150  141.6410 N   0  0  0  0  0  2  0  0  0  0  0  0
  186.2470  176.4400  143.1690 C   0  0  0  0  0  2  0  0  0  0  0  0
  187.0560  175.4060  142.3890 C   0  0  0  0  0  2  0  0  0  0  0  0
  188.5270  175.8050  142.3760 C   0  0  2  0  0  3  0  0  0  0  0  0
  186.4140  177.8280  142.5490 C   0  0  2  0  0  3  0  0  0  0  0  0
  187.8920  178.2150  142.5220 C   0  0  0  0  0  2  0  0  0  0  0  0
  188.6870  177.1810  141.7310 C   0  0  0  0  0  2  0  0  0  0  0  0
  184.4130  178.2400  143.3930 C   0  0  0  0  0  1  0  0  0  0  0  0
  185.7020  178.7640  143.3000 O   0  0  0  0  0  0  0  0  0  0  0  0
  190.7980  176.2750  146.5060 O   0  0  0  0  0  0  0  0  0  0  0  0
  189.5500  176.9550  146.4520 C   0  0  0  0  0  2  0  0  0  0  0  0
  188.4050  175.9640  146.5670 C   0  0  1  0  0  3  0  0  0  0  0  0
  188.8270  174.8540  147.4000 N   0  0  0  0  0  1  0  0  0  0  0  0
  187.1950  176.6270  147.2010 C   0  0  0  0  0  2  0  0  0  0  0  0
  185.7800  178.5330  146.7770 N   0  0  0  0  0  2  0  0  0  0  0  0
  186.8710  177.9160  146.5180 C   0  0  0  0  0  3  0  0  0  0  0  0
  1  7  1  0  0  0  0
  2  6  2  0  0  0  0
  3  6  1  0  0  0  0
  3  4  1  0  0  0  0
  5  1  2  0  0  0  0
  5  2  1  0  0  0  0
  6 31  1  0  0  0  0
  7  3  2  0  0  0  0
  8 19  1  0  0  0  0
 10 14  1  0  0  0  0
 11 15  1  1  0  0  0
 11 13  1  0  0  0  0
 12  7  1  6  0  0  0
 13 14  1  6  0  0  0
 13 12  1  0  0  0  0
 14 11  1  0  0  0  0
 15  9  1  0  0  0  0
 16  9  1  6  0  0  0
 16 12  1  0  0  0  0
 16  8  1  0  0  0  0
 16 19  1  0  0  0  0
 18 14  1  0  0  0  0
 19 17  2  0  0  0  0
 20 21  2  0  0  0  0
 21  5  1  0  0  0  0
 22 21  1  0  0  0  0
 24 23  1  0  0  0  0
 25 22  1  6  0  0  0
 25 24  1  0  0  0  0
 26 23  1  0  0  0  0
 26 30  1  1  0  0  0
 27 26  1  0  0  0  0
 28 25  1  0  0  0  0
 28 27  1  0  0  0  0
 30 29  1  0  0  0  0
 32 31  1  0  0  0  0
 32 33  1  0  0  0  0
 33 35  1  0  0  0  0
 33 34  1  1  0  0  0
 37 36  2  0  0  0  0
 37 35  1  0  0  0  0
M  END
>  <MODEL>
8

>  <REMARK>
 VINA RESULT:      -6.4      2.676      6.018
  Name = 
  9 active torsions:
  status: ('A' for Active; 'I' for Inactive)
    1  A    between atoms: O_1  and  C_16
    2  A    between atoms: O_1  and  C_25
    3  A    between atoms: C_4  and  C_16
    4  A    between atoms: C_4  and  C_37
    5  A    between atoms: C_12  and  C_34
    6  A    between atoms: C_17  and  C_18
    7  A    between atoms: O_27  and  C_30
    8  A    between atoms: C_29  and  N_31
    9  A    between atoms: C_36  and  C_37
                            x       y       z     vdW  Elec       q    Type
                         _______ _______ _______ _____ _____    ______ ____

>  <TORSDO>
F 9

$$$$
=
 OpenBabel11062418513D

 37 41  0  0  1  0  0  0  0  0999 V2000
  190.1840  174.9410  144.4440 N   0  0  0  0  0  0  0  0  0  0  0  0
  189.1100  176.7040  145.6220 C   0  0  0  0  0  3  0  0  0  0  0  0
  188.7570  176.4440  143.2470 C   0  0  0  0  0  0  0  0  0  0  0  0
  188.1290  176.9070  141.9720 C   0  0  0  0  0  1  0  0  0  0  0  0
  189.9490  175.5870  145.6180 C   0  0  0  0  0  0  0  0  0  0  0  0
  188.5080  177.1390  144.4390 C   0  0  0  0  0  0  0  0  0  0  0  0
  189.6160  175.3300  143.2700 C   0  0  0  0  0  0  0  0  0  0  0  0
  192.1290  174.0840  142.9930 O   0  0  0  0  0  0  0  0  0  0  0  0
  191.1330  172.3030  141.6870 C   0  0  0  0  0  2  0  0  0  0  0  0
  188.9670  172.0940  143.1690 O   0  0  0  0  0  1  0  0  0  0  0  0
  188.9650  172.5250  140.6660 C   0  0  2  0  0  3  0  0  0  0  0  0
  189.9300  174.5800  142.0030 C   0  0  2  0  0  3  0  0  0  0  0  0
  188.7000  173.8720  141.3960 C   0  0  2  0  0  3  0  0  0  0  0  0
  188.2820  172.5460  142.0380 C   0  0  0  0  0  0  0  0  0  0  0  0
  190.3350  172.1230  140.5420 O   0  0  0  0  0  0  0  0  0  0  0  0
  191.2190  173.7680  142.0230 C   0  0  1  0  0  0  0  0  0  0  0  0
  193.0070  174.9170  140.6050 O   0  0  0  0  0  0  0  0  0  0  0  0
  186.9110  172.3000  142.0130 O   0  0  0  0  0  1  0  0  0  0  0  0
  192.3300  174.4180  141.5420 C   0  0  0  0  0  0  0  0  0  0  0  0
  189.9260  174.9460  147.8870 O   0  0  0  0  0  0  0  0  0  0  0  0
  190.6210  175.1170  146.8530 C   0  0  0  0  0  0  0  0  0  0  0  0
  192.0280  174.8450  146.9280 N   0  0  0  0  0  2  0  0  0  0  0  0
  195.0300  174.3720  144.6750 C   0  0  0  0  0  2  0  0  0  0  0  0
  194.0080  174.0300  145.7580 C   0  0  0  0  0  2  0  0  0  0  0  0
  193.0100  175.1720  145.9040 C   0  0  2  0  0  3  0  0  0  0  0  0
  195.7590  175.6710  145.0210 C   0  0  2  0  0  3  0  0  0  0  0  0
  194.7530  176.8090  145.1850 C   0  0  0  0  0  2  0  0  0  0  0  0
  193.7450  176.4610  146.2750 C   0  0  0  0  0  2  0  0  0  0  0  0
  195.8550  176.3410  142.9170 C   0  0  0  0  0  1  0  0  0  0  0  0
  196.6570  175.9870  144.0010 O   0  0  0  0  0  0  0  0  0  0  0  0
  187.6580  178.2510  144.4320 O   0  0  0  0  0  0  0  0  0  0  0  0
  186.5600  178.4000  145.3230 C   0  0  0  0  0  2  0  0  0  0  0  0
  185.3060  178.7790  144.5550 C   0  0  1  0  0  3  0  0  0  0  0  0
  185.5300  180.0480  143.8880 N   0  0  0  0  0  1  0  0  0  0  0  0
  184.9840  177.7220  143.5120 C   0  0  0  0  0  2  0  0  0  0  0  0
  184.5020  178.1690  141.1920 N   0  0  0  0  0  2  0  0  0  0  0  0
  184.1450  178.2910  142.4150 C   0  0  0  0  0  3  0  0  0  0  0  0
  1  5  1  0  0  0  0
  3  7  1  0  0  0  0
  3  6  2  0  0  0  0
  4  3  1  0  0  0  0
  5  2  2  0  0  0  0
  5 21  1  0  0  0  0
  6  2  1  0  0  0  0
  7  1  2  0  0  0  0
 11 15  1  1  0  0  0
 11 13  1  0  0  0  0
 11 14  1  0  0  0  0
 12 16  1  0  0  0  0
 12  7  1  1  0  0  0
 13 12  1  0  0  0  0
 13 14  1  1  0  0  0
 14 10  1  0  0  0  0
 15  9  1  0  0  0  0
 16  9  1  6  0  0  0
 16  8  1  0  0  0  0
 17 19  2  0  0  0  0
 18 14  1  0  0  0  0
 19 16  1  0  0  0  0
 19  8  1  0  0  0  0
 21 22  1  0  0  0  0
 21 20  2  0  0  0  0
 23 26  1  0  0  0  0
 23 24  1  0  0  0  0
 24 25  1  0  0  0  0
 25 28  1  0  0  0  0
 25 22  1  1  0  0  0
 26 30  1  6  0  0  0
 26 27  1  0  0  0  0
 27 28  1  0  0  0  0
 29 30  1  0  0  0  0
 31  6  1  0  0  0  0
 31 32  1  0  0  0  0
 33 34  1  6  0  0  0
 33 32  1  0  0  0  0
 35 33  1  0  0  0  0
 36 37  2  0  0  0  0
 37 35  1  0  0  0  0
M  END
>  <MODEL>
9

>  <REMARK>
 VINA RESULT:      -6.4      2.371      6.712
  Name = 
  9 active torsions:
  status: ('A' for Active; 'I' for Inactive)
    1  A    between atoms: O_1  and  C_16
    2  A    between atoms: O_1  and  C_25
    3  A    between atoms: C_4  and  C_16
    4  A    between atoms: C_4  and  C_37
    5  A    between atoms: C_12  and  C_34
    6  A    between atoms: C_17  and  C_18
    7  A    between atoms: O_27  and  C_30
    8  A    between atoms: C_29  and  N_31
    9  A    between atoms: C_36  and  C_37
                            x       y       z     vdW  Elec       q    Type
                         _______ _______ _______ _____ _____    ______ ____

>  <TORSDO>
F 9

$$$$
