=
 OpenBabel11072409113D

 39 45  0  0  1  0  0  0  0  0999 V2000
  187.4310  177.4700  146.8610 C   0  0  0  0  0  3  0  0  0  0  0  0
  187.8000  176.7530  144.0520 C   0  0  0  0  0  0  0  0  0  0  0  0
  191.1760  176.5860  145.3830 C   0  0  2  0  0  3  0  0  0  0  0  0
  192.0490  173.9090  143.9120 P   0  0  1  0  0  0  0  0  0  0  0  0
  188.4840  174.6140  141.1310 C   0  0  2  0  0  3  0  0  0  0  0  0
  190.3050  174.2780  144.2500 C   0  0  2  0  0  0  0  0  0  0  0  0
  188.4610  176.4310  146.4630 C   0  0  0  0  0  2  0  0  0  0  0  0
  193.2500  176.6750  146.6540 O   0  0  0  0  0  1  0  0  0  0  0  0
  189.8920  173.4910  145.4820 C   0  0  0  0  0  1  0  0  0  0  0  0
  186.7020  177.5810  144.5600 C   0  0  0  0  0  0  0  0  0  0  0  0
  189.5710  173.7750  143.1360 O   0  0  0  0  0  0  0  0  0  0  0  0
  188.7310  176.3100  144.9550 C   0  0  0  0  0  0  0  0  0  0  0  0
  189.3980  174.8120  142.2790 N   0  0  2  0  0  0  0  0  0  0  0  0
  193.0140  174.6340  145.2600 C   0  0  2  0  0  3  0  0  0  0  0  0
  185.0430  179.0600  144.9380 N   0  0  0  0  0  0  0  0  0  0  0  0
  192.5980  176.0710  145.5770 C   0  0  1  0  0  0  0  0  0  0  0  0
  187.8170  176.4010  142.6980 O   0  0  0  0  0  0  0  0  0  0  0  0
  192.2850  172.2340  143.8580 O   0  0  0  0  0  1  0  0  0  0  0  0
  185.5490  178.8700  146.0940 N   0  0  0  0  0  0  0  0  0  0  0  0
  186.6030  177.9360  145.9380 C   0  0  0  0  0  0  0  0  0  0  0  0
  190.1210  175.8290  144.5390 C   0  0  1  0  0  3  0  0  0  0  0  0
  192.4620  174.5170  142.5910 O   0  0  0  0  0  0  0  0  0  0  0  0
  187.9600  175.0280  142.4190 C   0  0  1  0  0  3  0  0  0  0  0  0
  185.7410  178.2690  143.9610 C   0  0  0  0  0  0  0  0  0  0  0  0
  192.3070  177.0360  144.4530 C   0  0  0  0  0  2  0  0  0  0  0  0
  185.5030  178.3180  142.4800 C   0  0  0  0  0  2  0  0  0  0  0  0
  182.2140  178.0710  140.5250 C   0  0  0  0  0  1  0  0  0  0  0  0
  183.6610  178.1990  140.8550 C   0  0  0  0  0  3  0  0  0  0  0  0
  184.0540  178.1870  142.1270 C   0  0  0  0  0  3  0  0  0  0  0  0
  188.1990  173.1380  140.8790 C   0  0  0  0  0  2  0  0  0  0  0  0
  189.8400  173.0590  136.7840 F   0  0  0  0  0  0  0  0  0  0  0  0
  188.1360  172.8610  139.3820 C   0  0  0  0  0  3  0  0  0  0  0  0
  189.3730  172.0920  138.9470 C   0  0  0  0  0  2  0  0  0  0  0  0
  188.6120  174.0750  138.5910 C   0  0  0  0  0  2  0  0  0  0  0  0
  189.8310  173.2970  138.1480 C   0  0  0  0  0  0  0  0  0  0  0  0
  191.0130  173.8380  138.6210 F   0  0  0  0  0  0  0  0  0  0  0  0
  194.5040  174.5670  144.9550 C   0  0  0  0  0  2  0  0  0  0  0  0
  195.1240  173.3470  145.6120 C   0  0  0  0  0  2  0  0  0  0  0  0
  196.5720  173.6340  145.9460 C   0  0  0  0  0  1  0  0  0  0  0  0
  2 10  1  0  0  0  0
  2 12  2  0  0  0  0
  3 25  1  6  0  0  0
  3 16  1  0  0  0  0
  4 22  2  6  0  0  0
  4  6  1  0  0  0  0
  4 14  1  0  0  0  0
  5 30  1  1  0  0  0
  5 13  1  0  0  0  0
  5 23  1  0  0  0  0
  6 21  1  0  0  0  0
  6  9  1  1  0  0  0
  7  1  1  0  0  0  0
 10 20  1  0  0  0  0
 11  6  1  0  0  0  0
 12  7  1  0  0  0  0
 13 23  1  0  0  0  0
 13 11  1  1  0  0  0
 14 37  1  6  0  0  0
 14 16  1  0  0  0  0
 15 19  2  0  0  0  0
 16  8  1  1  0  0  0
 17  2  1  0  0  0  0
 18  4  1  0  0  0  0
 20 19  1  0  0  0  0
 20  1  2  0  0  0  0
 21 12  1  1  0  0  0
 21  3  1  0  0  0  0
 23 17  1  6  0  0  0
 24 10  2  0  0  0  0
 24 15  1  0  0  0  0
 25 16  1  0  0  0  0
 26 24  1  0  0  0  0
 27 28  1  0  0  0  0
 28 29  2  0  0  0  0
 29 26  1  0  0  0  0
 31 35  1  0  0  0  0
 32 30  1  0  0  0  0
 33 32  1  0  0  0  0
 34 32  1  0  0  0  0
 35 34  1  0  0  0  0
 35 36  1  0  0  0  0
 35 33  1  0  0  0  0
 37 38  1  0  0  0  0
 38 39  1  0  0  0  0
M  END
>  <MODEL>
1

>  <REMARK>
 VINA RESULT:      -8.9      0.000      0.000
  Name = 
  6 active torsions:
  status: ('A' for Active; 'I' for Inactive)
    1  A    between atoms: C_1  and  C_31
    2  A    between atoms: C_1  and  C_36
    3  A    between atoms: C_7  and  C_35
    4  A    between atoms: C_14  and  C_35
    5  A    between atoms: C_19  and  C_38
    6  A    between atoms: C_20  and  C_38
                            x       y       z     vdW  Elec       q    Type
                         _______ _______ _______ _____ _____    ______ ____

>  <TORSDO>
F 6

$$$$
=
 OpenBabel11072409113D

 39 45  0  0  1  0  0  0  0  0999 V2000
  188.8900  172.6600  140.6440 C   0  0  0  0  0  3  0  0  0  0  0  0
  191.1360  174.3010  141.5410 C   0  0  0  0  0  0  0  0  0  0  0  0
  188.3060  175.7940  143.2580 C   0  0  2  0  0  3  0  0  0  0  0  0
  189.7200  176.2030  146.0720 P   0  0  1  0  0  0  0  0  0  0  0  0
  193.6770  175.6570  143.8400 C   0  0  2  0  0  3  0  0  0  0  0  0
  190.2850  174.9360  144.9050 C   0  0  2  0  0  0  0  0  0  0  0  0
  188.9310  173.1980  142.0620 C   0  0  0  0  0  2  0  0  0  0  0  0
  186.1510  176.5190  144.1290 O   0  0  0  0  0  1  0  0  0  0  0  0
  189.7230  173.5990  145.3580 C   0  0  0  0  0  1  0  0  0  0  0  0
  191.1000  173.5660  140.2730 C   0  0  0  0  0  0  0  0  0  0  0  0
  191.7040  174.8850  145.0320 O   0  0  0  0  0  0  0  0  0  0  0  0
  190.0290  174.2340  142.3450 C   0  0  0  0  0  0  0  0  0  0  0  0
  192.2140  175.6900  144.0660 N   0  0  2  0  0  0  0  0  0  0  0  0
  187.9310  176.3650  145.8540 C   0  0  2  0  0  3  0  0  0  0  0  0
  191.2970  172.7790  138.1700 N   0  0  0  0  0  0  0  0  0  0  0  0
  187.5230  176.4630  144.3830 C   0  0  1  0  0  0  0  0  0  0  0  0
  192.3080  174.9770  141.9020 O   0  0  0  0  0  0  0  0  0  0  0  0
  190.0750  175.7280  147.6580 O   0  0  0  0  0  1  0  0  0  0  0  0
  190.1470  172.3670  138.5410 N   0  0  0  0  0  0  0  0  0  0  0  0
  189.9530  172.8200  139.8690 C   0  0  0  0  0  0  0  0  0  0  0  0
  189.7460  175.2570  143.4460 C   0  0  1  0  0  3  0  0  0  0  0  0
  190.4010  177.5210  145.7780 O   0  0  0  0  0  0  0  0  0  0  0  0
  192.8150  174.6920  143.1840 C   0  0  1  0  0  3  0  0  0  0  0  0
  191.9150  173.5280  139.2290 C   0  0  0  0  0  0  0  0  0  0  0  0
  188.3290  177.3160  143.4340 C   0  0  0  0  0  2  0  0  0  0  0  0
  193.2190  174.2630  139.1200 C   0  0  0  0  0  2  0  0  0  0  0  0
  196.4170  173.2290  140.9640 C   0  0  0  0  0  1  0  0  0  0  0  0
  195.2750  174.0340  140.4500 C   0  0  0  0  0  3  0  0  0  0  0  0
  194.3720  173.4700  139.6510 C   0  0  0  0  0  3  0  0  0  0  0  0
  194.4180  175.0160  145.0080 C   0  0  0  0  0  2  0  0  0  0  0  0
  197.6860  172.0750  145.3770 F   0  0  0  0  0  0  0  0  0  0  0  0
  195.2980  173.8760  144.5120 C   0  0  0  0  0  3  0  0  0  0  0  0
  195.3900  172.7950  145.5760 C   0  0  0  0  0  2  0  0  0  0  0  0
  196.7720  174.2060  144.7210 C   0  0  0  0  0  2  0  0  0  0  0  0
  196.8590  173.1160  145.7650 C   0  0  0  0  0  0  0  0  0  0  0  0
  197.1440  173.6050  147.0280 F   0  0  0  0  0  0  0  0  0  0  0  0
  187.3970  177.5570  146.6340 C   0  0  0  0  0  2  0  0  0  0  0  0
  186.1910  177.1500  147.4630 C   0  0  0  0  0  2  0  0  0  0  0  0
  185.0300  178.0690  147.1500 C   0  0  0  0  0  1  0  0  0  0  0  0
  1  7  1  0  0  0  0
  2 17  1  0  0  0  0
  2 12  2  0  0  0  0
  3 25  1  6  0  0  0
  3 21  1  0  0  0  0
  3 16  1  0  0  0  0
  4 22  2  6  0  0  0
  4 18  1  0  0  0  0
  5 13  1  0  0  0  0
  5 30  1  1  0  0  0
  6 11  1  0  0  0  0
  6  9  1  1  0  0  0
  6  4  1  0  0  0  0
  7 12  1  0  0  0  0
 10  2  1  0  0  0  0
 13 11  1  1  0  0  0
 14  4  1  0  0  0  0
 14 37  1  1  0  0  0
 15 19  2  0  0  0  0
 15 24  1  0  0  0  0
 16  8  1  6  0  0  0
 16 14  1  0  0  0  0
 19 20  1  0  0  0  0
 20 10  1  0  0  0  0
 20  1  2  0  0  0  0
 21 12  1  6  0  0  0
 21  6  1  0  0  0  0
 23 17  1  6  0  0  0
 23  5  1  0  0  0  0
 23 13  1  0  0  0  0
 24 10  2  0  0  0  0
 25 16  1  0  0  0  0
 26 24  1  0  0  0  0
 26 29  1  0  0  0  0
 28 27  1  0  0  0  0
 29 28  2  0  0  0  0
 31 35  1  0  0  0  0
 32 34  1  0  0  0  0
 32 30  1  0  0  0  0
 32 33  1  0  0  0  0
 33 35  1  0  0  0  0
 34 35  1  0  0  0  0
 35 36  1  0  0  0  0
 37 38  1  0  0  0  0
 39 38  1  0  0  0  0
M  END
>  <MODEL>
2

>  <REMARK>
 VINA RESULT:      -8.1      3.799      7.999
  Name = 
  6 active torsions:
  status: ('A' for Active; 'I' for Inactive)
    1  A    between atoms: C_1  and  C_31
    2  A    between atoms: C_1  and  C_36
    3  A    between atoms: C_7  and  C_35
    4  A    between atoms: C_14  and  C_35
    5  A    between atoms: C_19  and  C_38
    6  A    between atoms: C_20  and  C_38
                            x       y       z     vdW  Elec       q    Type
                         _______ _______ _______ _____ _____    ______ ____

>  <TORSDO>
F 6

$$$$
=
 OpenBabel11072409113D

 39 45  0  0  1  0  0  0  0  0999 V2000
  192.9250  175.5340  145.8180 C   0  0  0  0  0  3  0  0  0  0  0  0
  191.0480  174.0960  144.1010 C   0  0  0  0  0  0  0  0  0  0  0  0
  188.9060  176.4460  145.8560 C   0  0  2  0  0  3  0  0  0  0  0  0
  187.1330  177.3040  143.3640 P   0  0  1  0  0  0  0  0  0  0  0  0
  188.7110  173.5320  141.3080 C   0  0  2  0  0  3  0  0  0  0  0  0
  188.8140  176.6550  143.1510 C   0  0  2  0  0  0  0  0  0  0  0  0
  191.7480  176.2570  145.1910 C   0  0  0  0  0  3  0  0  0  0  0  0
  187.8500  178.1010  147.2960 O   0  0  0  0  0  1  0  0  0  0  0  0
  189.7440  177.8340  142.9230 C   0  0  0  0  0  1  0  0  0  0  0  0
  192.3200  173.5480  144.5810 C   0  0  0  0  0  0  0  0  0  0  0  0
  188.7880  175.8730  141.9600 O   0  0  0  0  0  0  0  0  0  0  0  0
  190.7060  175.3580  144.5100 C   0  0  0  0  0  0  0  0  0  0  0  0
  188.5740  174.5880  142.3380 N   0  0  2  0  0  0  0  0  0  0  0  0
  187.1100  178.2130  144.9290 C   0  0  2  0  0  3  0  0  0  0  0  0
  194.0560  172.3100  145.3130 N   0  0  0  0  0  0  0  0  0  0  0  0
  187.7650  177.4360  146.0710 C   0  0  1  0  0  0  0  0  0  0  0  0
  190.2770  173.3440  143.2070 O   0  0  0  0  0  0  0  0  0  0  0  0
  186.7470  178.3390  142.0810 O   0  0  0  0  0  0  0  0  0  0  0  0
  194.2300  173.4400  145.8790 N   0  0  0  0  0  0  0  0  0  0  0  0
  193.1720  174.2830  145.4570 C   0  0  2  0  0  3  0  0  0  0  0  0
  189.2700  175.8810  144.4610 C   0  0  1  0  0  3  0  0  0  0  0  0
  186.1390  176.1660  143.4080 O   0  0  0  0  0  1  0  0  0  0  0  0
  189.8780  174.0050  142.0290 C   0  0  1  0  0  3  0  0  0  0  0  0
  192.8730  172.3470  144.4960 C   0  0  0  0  0  0  0  0  0  0  0  0
  187.5010  175.9580  146.2250 C   0  0  0  0  0  2  0  0  0  0  0  0
  192.2870  171.1710  143.7700 C   0  0  0  0  0  2  0  0  0  0  0  0
  192.6450  170.8440  139.9680 C   0  0  0  0  0  1  0  0  0  0  0  0
  192.0610  171.0160  141.3270 C   0  0  0  0  0  3  0  0  0  0  0  0
  192.8550  171.0040  142.3960 C   0  0  0  0  0  3  0  0  0  0  0  0
  188.6760  174.1080  139.8970 C   0  0  0  0  0  2  0  0  0  0  0  0
  189.4040  171.1910  136.6690 F   0  0  0  0  0  0  0  0  0  0  0  0
  188.2590  173.0340  138.9000 C   0  0  0  0  0  3  0  0  0  0  0  0
  189.2130  171.8550  138.9820 C   0  0  0  0  0  2  0  0  0  0  0  0
  188.7840  173.3630  137.5070 C   0  0  0  0  0  2  0  0  0  0  0  0
  189.7180  172.1760  137.5890 C   0  0  0  0  0  0  0  0  0  0  0  0
  191.0520  172.5420  137.5720 F   0  0  0  0  0  0  0  0  0  0  0  0
  185.6900  178.6110  145.3020 C   0  0  0  0  0  2  0  0  0  0  0  0
  185.1520  179.6360  144.3200 C   0  0  0  0  0  2  0  0  0  0  0  0
  183.7950  179.1920  143.8180 C   0  0  0  0  0  1  0  0  0  0  0  0
  2 12  2  0  0  0  0
  2 10  1  0  0  0  0
  3 16  1  0  0  0  0
  3 25  1  1  0  0  0
  4 18  2  6  0  0  0
  4 22  1  0  0  0  0
  4 14  1  0  0  0  0
  5 30  1  6  0  0  0
  5 23  1  0  0  0  0
  5 13  1  0  0  0  0
  6  9  1  6  0  0  0
  6  4  1  0  0  0  0
  6 21  1  0  0  0  0
  7  1  2  0  0  0  0
 10 20  1  0  0  0  0
 11  6  1  0  0  0  0
 12  7  1  0  0  0  0
 13 11  1  6  0  0  0
 14 37  1  1  0  0  0
 14 16  1  0  0  0  0
 15 19  2  0  0  0  0
 16 25  1  0  0  0  0
 16  8  1  1  0  0  0
 17  2  1  0  0  0  0
 20  1  1  1  0  0  0
 20 19  1  0  0  0  0
 21 12  1  1  0  0  0
 21  3  1  0  0  0  0
 23 13  1  0  0  0  0
 23 17  1  1  0  0  0
 24 10  2  0  0  0  0
 24 15  1  0  0  0  0
 26 24  1  0  0  0  0
 27 28  1  0  0  0  0
 28 29  2  0  0  0  0
 29 26  1  0  0  0  0
 31 35  1  0  0  0  0
 32 33  1  0  0  0  0
 32 30  1  0  0  0  0
 34 35  1  0  0  0  0
 34 32  1  0  0  0  0
 35 33  1  0  0  0  0
 36 35  1  0  0  0  0
 38 37  1  0  0  0  0
 39 38  1  0  0  0  0
M  END
>  <MODEL>
3

>  <REMARK>
 VINA RESULT:      -8.0      2.553      6.798
  Name = 
  6 active torsions:
  status: ('A' for Active; 'I' for Inactive)
    1  A    between atoms: C_1  and  C_31
    2  A    between atoms: C_1  and  C_36
    3  A    between atoms: C_7  and  C_35
    4  A    between atoms: C_14  and  C_35
    5  A    between atoms: C_19  and  C_38
    6  A    between atoms: C_20  and  C_38
                            x       y       z     vdW  Elec       q    Type
                         _______ _______ _______ _____ _____    ______ ____

>  <TORSDO>
F 6

$$$$
=
 OpenBabel11072409113D

 39 45  0  0  1  0  0  0  0  0999 V2000
  185.4180  178.1840  141.5700 C   0  0  0  0  0  3  0  0  0  0  0  0
  186.5670  177.1680  144.0580 C   0  0  0  0  0  0  0  0  0  0  0  0
  187.7980  174.8180  141.5780 C   0  0  2  0  0  3  0  0  0  0  0  0
  190.7690  174.6000  142.6800 P   0  0  1  0  0  0  0  0  0  0  0  0
  189.1540  176.3970  146.5660 C   0  0  2  0  0  3  0  0  0  0  0  0
  189.7450  176.0610  143.0030 C   0  0  2  0  0  0  0  0  0  0  0  0
  186.8050  177.5700  141.5820 C   0  0  0  0  0  3  0  0  0  0  0  0
  188.3210  173.4570  139.6290 O   0  0  0  0  0  1  0  0  0  0  0  0
  190.1630  177.1490  142.0280 C   0  0  0  0  0  1  0  0  0  0  0  0
  185.3360  177.9600  143.9750 C   0  0  0  0  0  0  0  0  0  0  0  0
  190.0770  176.4940  144.3200 O   0  0  0  0  0  0  0  0  0  0  0  0
  187.2040  176.8610  142.8860 C   0  0  0  0  0  0  0  0  0  0  0  0
  189.1650  175.9400  145.1570 N   0  0  2  0  0  0  0  0  0  0  0  0
  190.2880  173.9640  141.0550 C   0  0  2  0  0  3  0  0  0  0  0  0
  183.3150  178.9320  144.2050 N   0  0  0  0  0  0  0  0  0  0  0  0
  188.7720  173.8720  140.8830 C   0  0  1  0  0  0  0  0  0  0  0  0
  187.0660  176.8180  145.3180 O   0  0  0  0  0  0  0  0  0  0  0  0
  192.4060  175.0300  142.6790 O   0  0  0  0  0  0  0  0  0  0  0  0
  183.5310  178.9780  142.9480 N   0  0  0  0  0  0  0  0  0  0  0  0
  184.7990  178.3870  142.7240 C   0  0  0  0  0  0  0  0  0  0  0  0
  188.2120  175.7170  142.7690 C   0  0  1  0  0  3  0  0  0  0  0  0
  190.5260  173.5500  143.7410 O   0  0  0  0  0  1  0  0  0  0  0  0
  188.4180  177.1320  145.5550 C   0  0  1  0  0  3  0  0  0  0  0  0
  184.4230  178.3040  144.8720 C   0  0  1  0  0  3  0  0  0  0  0  0
  187.9170  173.3540  142.0140 C   0  0  0  0  0  2  0  0  0  0  0  0
  184.4750  177.9710  146.3350 C   0  0  0  0  0  2  0  0  0  0  0  0
  187.0660  179.4160  148.7630 C   0  0  0  0  0  1  0  0  0  0  0  0
  186.2160  178.4590  148.0010 C   0  0  0  0  0  3  0  0  0  0  0  0
  185.3410  178.9160  147.1080 C   0  0  0  0  0  3  0  0  0  0  0  0
  190.4400  177.1250  146.9380 C   0  0  0  0  0  2  0  0  0  0  0  0
  194.2850  174.9620  146.8880 F   0  0  0  0  0  0  0  0  0  0  0  0
  191.4660  176.1390  147.4830 C   0  0  0  0  0  3  0  0  0  0  0  0
  192.8390  176.7890  147.5190 C   0  0  0  0  0  2  0  0  0  0  0  0
  191.9400  175.1950  146.3840 C   0  0  0  0  0  2  0  0  0  0  0  0
  193.3090  175.8350  146.4380 C   0  0  0  0  0  0  0  0  0  0  0  0
  193.6460  176.4800  145.2610 F   0  0  0  0  0  0  0  0  0  0  0  0
  190.9370  172.6140  140.7890 C   0  0  0  0  0  2  0  0  0  0  0  0
  192.1520  172.7780  139.8930 C   0  0  0  0  0  2  0  0  0  0  0  0
  191.7900  173.6420  138.7040 C   0  0  0  0  0  1  0  0  0  0  0  0
  1  7  2  0  0  0  0
  1 20  1  0  0  0  0
  2 17  1  0  0  0  0
  3 25  1  1  0  0  0
  3 21  1  0  0  0  0
  4 18  2  6  0  0  0
  4  6  1  0  0  0  0
  4 22  1  0  0  0  0
  5 30  1  6  0  0  0
  6  9  1  6  0  0  0
  6 11  1  0  0  0  0
  7 12  1  0  0  0  0
 10  2  1  0  0  0  0
 10 24  1  0  0  0  0
 12  2  2  0  0  0  0
 13 11  1  6  0  0  0
 13 23  1  0  0  0  0
 13  5  1  0  0  0  0
 14 37  1  1  0  0  0
 14  4  1  0  0  0  0
 15 24  1  0  0  0  0
 16  8  1  6  0  0  0
 16 14  1  0  0  0  0
 16  3  1  0  0  0  0
 16 25  1  0  0  0  0
 19 15  2  0  0  0  0
 20 19  1  0  0  0  0
 20 10  2  0  0  0  0
 21 12  1  6  0  0  0
 21  6  1  0  0  0  0
 23 17  1  1  0  0  0
 23  5  1  0  0  0  0
 24 26  1  6  0  0  0
 26 29  1  0  0  0  0
 28 27  1  0  0  0  0
 29 28  2  0  0  0  0
 30 32  1  0  0  0  0
 32 33  1  0  0  0  0
 34 35  1  0  0  0  0
 34 32  1  0  0  0  0
 35 31  1  0  0  0  0
 35 33  1  0  0  0  0
 36 35  1  0  0  0  0
 38 37  1  0  0  0  0
 39 38  1  0  0  0  0
M  END
>  <MODEL>
4

>  <REMARK>
 VINA RESULT:      -7.8      2.865      5.982
  Name = 
  6 active torsions:
  status: ('A' for Active; 'I' for Inactive)
    1  A    between atoms: C_1  and  C_31
    2  A    between atoms: C_1  and  C_36
    3  A    between atoms: C_7  and  C_35
    4  A    between atoms: C_14  and  C_35
    5  A    between atoms: C_19  and  C_38
    6  A    between atoms: C_20  and  C_38
                            x       y       z     vdW  Elec       q    Type
                         _______ _______ _______ _____ _____    ______ ____

>  <TORSDO>
F 6

$$$$
=
 OpenBabel11072409113D

 39 45  0  0  1  0  0  0  0  0999 V2000
  194.7790  175.8890  146.2580 C   0  0  0  0  0  3  0  0  0  0  0  0
  193.5230  174.0310  144.3840 C   0  0  0  0  0  0  0  0  0  0  0  0
  190.6820  175.7800  145.8170 C   0  0  2  0  0  3  0  0  0  0  0  0
  189.0550  176.1710  143.1170 P   0  0  1  0  0  0  0  0  0  0  0  0
  191.7370  172.9040  141.3640 C   0  0  2  0  0  3  0  0  0  0  0  0
  190.8560  175.9570  143.1140 C   0  0  2  0  0  0  0  0  0  0  0  0
  193.5410  176.2990  145.4820 C   0  0  0  0  0  3  0  0  0  0  0  0
  189.0920  177.1240  147.0790 O   0  0  0  0  0  1  0  0  0  0  0  0
  191.4890  177.3300  142.9570 C   0  0  0  0  0  1  0  0  0  0  0  0
  194.8270  173.8140  145.0200 C   0  0  0  0  0  0  0  0  0  0  0  0
  191.1620  175.1920  141.9510 O   0  0  0  0  0  0  0  0  0  0  0  0
  192.8370  175.1690  144.7140 C   0  0  0  0  0  0  0  0  0  0  0  0
  191.2270  173.8950  142.3410 N   0  0  2  0  0  0  0  0  0  0  0  0
  188.6280  177.0480  144.6420 C   0  0  2  0  0  3  0  0  0  0  0  0
  196.7160  173.0440  145.9790 N   0  0  0  0  0  0  0  0  0  0  0  0
  189.3160  176.4580  145.8740 C   0  0  1  0  0  0  0  0  0  0  0  0
  193.0710  173.1110  143.4310 O   0  0  0  0  0  0  0  0  0  0  0  0
  188.5790  177.0780  141.7690 O   0  0  0  0  0  0  0  0  0  0  0  0
  196.5410  174.1830  146.5270 N   0  0  0  0  0  0  0  0  0  0  0  0
  195.3650  174.7380  145.9640 C   0  0  2  0  0  3  0  0  0  0  0  0
  191.3320  175.3210  144.4890 C   0  0  1  0  0  3  0  0  0  0  0  0
  188.3720  174.8230  143.0830 O   0  0  0  0  0  1  0  0  0  0  0  0
  192.6610  173.6510  142.1970 C   0  0  1  0  0  3  0  0  0  0  0  0
  195.6630  172.7870  145.0330 C   0  0  0  0  0  0  0  0  0  0  0  0
  189.4070  174.9600  146.0400 C   0  0  0  0  0  2  0  0  0  0  0  0
  195.4720  171.5020  144.2810 C   0  0  0  0  0  2  0  0  0  0  0  0
  194.9500  168.8250  146.9750 C   0  0  0  0  0  1  0  0  0  0  0  0
  194.7610  170.0250  146.1150 C   0  0  0  0  0  3  0  0  0  0  0  0
  195.6410  170.2970  145.1530 C   0  0  0  0  0  3  0  0  0  0  0  0
  191.7260  173.4520  139.9420 C   0  0  0  0  0  2  0  0  0  0  0  0
  187.6990  173.0600  138.1830 F   0  0  0  0  0  0  0  0  0  0  0  0
  190.6530  172.7540  139.1160 C   0  0  0  0  0  3  0  0  0  0  0  0
  190.0140  173.7440  138.1560 C   0  0  0  0  0  2  0  0  0  0  0  0
  189.3470  172.6680  139.8970 C   0  0  0  0  0  2  0  0  0  0  0  0
  188.7130  173.6400  138.9270 C   0  0  0  0  0  0  0  0  0  0  0  0
  188.3460  174.8320  139.5250 F   0  0  0  0  0  0  0  0  0  0  0  0
  187.1200  177.0830  144.8410 C   0  0  0  0  0  2  0  0  0  0  0  0
  186.5820  178.4760  144.5710 C   0  0  0  0  0  2  0  0  0  0  0  0
  185.6360  178.8770  145.6820 C   0  0  0  0  0  1  0  0  0  0  0  0
  2 12  2  0  0  0  0
  2 10  1  0  0  0  0
  3 16  1  0  0  0  0
  3 25  1  1  0  0  0
  4 18  2  6  0  0  0
  4 14  1  0  0  0  0
  5 30  1  6  0  0  0
  5 23  1  0  0  0  0
  5 13  1  0  0  0  0
  6  9  1  6  0  0  0
  6  4  1  0  0  0  0
  6 21  1  0  0  0  0
  7  1  2  0  0  0  0
 10 24  2  0  0  0  0
 10 20  1  0  0  0  0
 11  6  1  0  0  0  0
 12  7  1  0  0  0  0
 13 11  1  6  0  0  0
 14 37  1  1  0  0  0
 14 16  1  0  0  0  0
 15 19  2  0  0  0  0
 16 25  1  0  0  0  0
 16  8  1  1  0  0  0
 17  2  1  0  0  0  0
 20  1  1  1  0  0  0
 20 19  1  0  0  0  0
 21 12  1  1  0  0  0
 21  3  1  0  0  0  0
 22  4  1  0  0  0  0
 23 13  1  0  0  0  0
 23 17  1  1  0  0  0
 24 15  1  0  0  0  0
 26 24  1  0  0  0  0
 26 29  1  0  0  0  0
 28 27  1  0  0  0  0
 29 28  2  0  0  0  0
 31 35  1  0  0  0  0
 32 34  1  0  0  0  0
 32 30  1  0  0  0  0
 33 35  1  0  0  0  0
 33 32  1  0  0  0  0
 35 36  1  0  0  0  0
 35 34  1  0  0  0  0
 38 37  1  0  0  0  0
 38 39  1  0  0  0  0
M  END
>  <MODEL>
5

>  <REMARK>
 VINA RESULT:      -7.8      2.895      7.564
  Name = 
  6 active torsions:
  status: ('A' for Active; 'I' for Inactive)
    1  A    between atoms: C_1  and  C_31
    2  A    between atoms: C_1  and  C_36
    3  A    between atoms: C_7  and  C_35
    4  A    between atoms: C_14  and  C_35
    5  A    between atoms: C_19  and  C_38
    6  A    between atoms: C_20  and  C_38
                            x       y       z     vdW  Elec       q    Type
                         _______ _______ _______ _____ _____    ______ ____

>  <TORSDO>
F 6

$$$$
=
 OpenBabel11072409113D

 39 45  0  0  1  0  0  0  0  0999 V2000
  189.0310  172.3080  139.4990 C   0  0  0  0  0  3  0  0  0  0  0  0
  191.2960  173.8820  140.4650 C   0  0  0  0  0  0  0  0  0  0  0  0
  188.4600  175.4540  142.1010 C   0  0  2  0  0  3  0  0  0  0  0  0
  189.8030  175.8200  144.9560 P   0  0  1  0  0  0  0  0  0  0  0  0
  193.8060  175.1630  142.8390 C   0  0  2  0  0  3  0  0  0  0  0  0
  190.3650  174.5380  143.8030 C   0  0  2  0  0  0  0  0  0  0  0  0
  189.0460  172.8440  140.9190 C   0  0  0  0  0  2  0  0  0  0  0  0
  186.3030  176.2400  142.9100 O   0  0  0  0  0  1  0  0  0  0  0  0
  189.7510  173.2180  144.2370 C   0  0  0  0  0  1  0  0  0  0  0  0
  191.2760  173.1500  139.1950 C   0  0  0  0  0  0  0  0  0  0  0  0
  191.7780  174.4470  143.9710 O   0  0  0  0  0  0  0  0  0  0  0  0
  190.1650  173.8470  141.2360 C   0  0  0  0  0  0  0  0  0  0  0  0
  192.3380  175.2380  143.0230 N   0  0  2  0  0  0  0  0  0  0  0  0
  188.0260  176.0340  144.6850 C   0  0  2  0  0  3  0  0  0  0  0  0
  191.5110  172.3600  137.0960 N   0  0  0  0  0  0  0  0  0  0  0  0
  187.6640  176.1440  143.2040 C   0  0  1  0  0  0  0  0  0  0  0  0
  192.4750  174.5240  140.8610 O   0  0  0  0  0  0  0  0  0  0  0  0
  190.0970  175.3330  146.5500 O   0  0  0  0  0  1  0  0  0  0  0  0
  190.3400  171.9810  137.4330 N   0  0  0  0  0  0  0  0  0  0  0  0
  190.1200  172.4380  138.7560 C   0  0  0  0  0  0  0  0  0  0  0  0
  189.8780  174.8770  142.3300 C   0  0  1  0  0  3  0  0  0  0  0  0
  190.5300  177.1180  144.6850 O   0  0  0  0  0  0  0  0  0  0  0  0
  192.9360  174.2230  142.1570 C   0  0  1  0  0  3  0  0  0  0  0  0
  192.1200  173.0910  138.1750 C   0  0  0  0  0  0  0  0  0  0  0  0
  188.5220  176.9750  142.2800 C   0  0  0  0  0  2  0  0  0  0  0  0
  193.4470  173.7880  138.1050 C   0  0  0  0  0  2  0  0  0  0  0  0
  196.6290  172.7430  139.9710 C   0  0  0  0  0  1  0  0  0  0  0  0
  195.5350  173.5660  139.3860 C   0  0  0  0  0  3  0  0  0  0  0  0
  194.5530  172.9770  138.7060 C   0  0  0  0  0  3  0  0  0  0  0  0
  194.4940  174.5000  144.0270 C   0  0  0  0  0  2  0  0  0  0  0  0
  194.7220  177.5340  147.2220 F   0  0  0  0  0  0  0  0  0  0  0  0
  195.2060  175.5460  144.8760 C   0  0  0  0  0  3  0  0  0  0  0  0
  194.9280  175.2930  146.3480 C   0  0  0  0  0  2  0  0  0  0  0  0
  194.3860  176.8300  144.9420 C   0  0  0  0  0  2  0  0  0  0  0  0
  194.1300  176.5800  146.4110 C   0  0  0  0  0  0  0  0  0  0  0  0
  192.7920  176.3700  146.6940 F   0  0  0  0  0  0  0  0  0  0  0  0
  187.5030  177.2390  145.4520 C   0  0  0  0  0  2  0  0  0  0  0  0
  186.7030  176.7910  146.6620 C   0  0  0  0  0  2  0  0  0  0  0  0
  185.2330  177.0660  146.4240 C   0  0  0  0  0  1  0  0  0  0  0  0
  1  7  1  0  0  0  0
  2 17  1  0  0  0  0
  2 12  2  0  0  0  0
  3 25  1  6  0  0  0
  3 21  1  0  0  0  0
  3 16  1  0  0  0  0
  4 22  2  6  0  0  0
  4 18  1  0  0  0  0
  5 13  1  0  0  0  0
  5 30  1  1  0  0  0
  6 11  1  0  0  0  0
  6  9  1  1  0  0  0
  6  4  1  0  0  0  0
  7 12  1  0  0  0  0
 10  2  1  0  0  0  0
 13 11  1  1  0  0  0
 14  4  1  0  0  0  0
 14 37  1  1  0  0  0
 15 19  2  0  0  0  0
 15 24  1  0  0  0  0
 16  8  1  6  0  0  0
 16 14  1  0  0  0  0
 19 20  1  0  0  0  0
 20 10  1  0  0  0  0
 20  1  2  0  0  0  0
 21 12  1  6  0  0  0
 21  6  1  0  0  0  0
 23 17  1  6  0  0  0
 23  5  1  0  0  0  0
 23 13  1  0  0  0  0
 24 10  2  0  0  0  0
 25 16  1  0  0  0  0
 26 24  1  0  0  0  0
 26 29  1  0  0  0  0
 28 27  1  0  0  0  0
 29 28  2  0  0  0  0
 30 32  1  0  0  0  0
 32 34  1  0  0  0  0
 32 33  1  0  0  0  0
 33 35  1  0  0  0  0
 34 35  1  0  0  0  0
 35 36  1  0  0  0  0
 35 31  1  0  0  0  0
 37 38  1  0  0  0  0
 39 38  1  0  0  0  0
M  END
>  <MODEL>
6

>  <REMARK>
 VINA RESULT:      -7.5      3.695      8.210
  Name = 
  6 active torsions:
  status: ('A' for Active; 'I' for Inactive)
    1  A    between atoms: C_1  and  C_31
    2  A    between atoms: C_1  and  C_36
    3  A    between atoms: C_7  and  C_35
    4  A    between atoms: C_14  and  C_35
    5  A    between atoms: C_19  and  C_38
    6  A    between atoms: C_20  and  C_38
                            x       y       z     vdW  Elec       q    Type
                         _______ _______ _______ _____ _____    ______ ____

>  <TORSDO>
F 6

$$$$
=
 OpenBabel11072409113D

 39 45  0  0  1  0  0  0  0  0999 V2000
  193.0440  177.1520  145.3290 C   0  0  0  0  0  3  0  0  0  0  0  0
  191.6480  174.9870  143.9490 C   0  0  0  0  0  0  0  0  0  0  0  0
  188.9410  176.8140  145.5360 C   0  0  2  0  0  3  0  0  0  0  0  0
  186.9190  176.7330  143.0880 P   0  0  1  0  0  0  0  0  0  0  0  0
  189.5170  173.3520  141.4260 C   0  0  2  0  0  3  0  0  0  0  0  0
  188.7110  176.5940  142.8410 C   0  0  2  0  0  0  0  0  0  0  0  0
  191.6840  177.3920  144.7000 C   0  0  0  0  0  3  0  0  0  0  0  0
  187.4700  178.2660  146.8240 O   0  0  0  0  0  1  0  0  0  0  0  0
  189.2280  177.9510  142.3970 C   0  0  0  0  0  1  0  0  0  0  0  0
  193.0410  174.9200  144.4030 C   0  0  0  0  0  0  0  0  0  0  0  0
  188.8920  175.6770  141.7650 O   0  0  0  0  0  0  0  0  0  0  0  0
  190.9480  176.1330  144.2160 C   0  0  0  0  0  0  0  0  0  0  0  0
  189.0930  174.4560  142.3190 N   0  0  2  0  0  0  0  0  0  0  0  0
  186.6640  177.8090  144.5210 C   0  0  2  0  0  3  0  0  0  0  0  0
  195.0930  174.3770  145.1630 N   0  0  0  0  0  0  0  0  0  0  0  0
  187.5590  177.4370  145.7040 C   0  0  1  0  0  0  0  0  0  0  0  0
  191.1200  173.9180  143.2160 O   0  0  0  0  0  0  0  0  0  0  0  0
  186.1980  177.4090  141.7140 O   0  0  0  0  0  0  0  0  0  0  0  0
  194.9290  175.5770  145.5650 N   0  0  0  0  0  0  0  0  0  0  0  0
  193.6510  175.9940  145.1150 C   0  0  2  0  0  3  0  0  0  0  0  0
  189.4200  176.1890  144.2030 C   0  0  1  0  0  3  0  0  0  0  0  0
  186.3230  175.3690  143.3490 O   0  0  0  0  0  1  0  0  0  0  0  0
  190.5040  174.2510  141.9950 C   0  0  1  0  0  3  0  0  0  0  0  0
  193.9320  173.9400  144.4340 C   0  0  0  0  0  0  0  0  0  0  0  0
  187.7650  175.9860  146.0640 C   0  0  0  0  0  2  0  0  0  0  0  0
  193.7150  172.5510  143.9100 C   0  0  0  0  0  2  0  0  0  0  0  0
  194.8950  169.7100  146.1970 C   0  0  0  0  0  1  0  0  0  0  0  0
  194.8520  170.7390  145.1210 C   0  0  0  0  0  3  0  0  0  0  0  0
  193.7790  171.5150  144.9870 C   0  0  0  0  0  3  0  0  0  0  0  0
  189.2660  173.6810  139.9590 C   0  0  0  0  0  2  0  0  0  0  0  0
  191.0280  172.4640  136.1020 F   0  0  0  0  0  0  0  0  0  0  0  0
  190.1470  172.8160  139.0670 C   0  0  0  0  0  3  0  0  0  0  0  0
  191.0050  173.6990  138.1760 C   0  0  0  0  0  2  0  0  0  0  0  0
  189.3690  172.3400  137.8450 C   0  0  0  0  0  2  0  0  0  0  0  0
  190.2390  173.2070  136.9640 C   0  0  0  0  0  0  0  0  0  0  0  0
  189.5290  174.2120  136.3320 F   0  0  0  0  0  0  0  0  0  0  0  0
  185.2010  177.8130  144.9400 C   0  0  0  0  0  2  0  0  0  0  0  0
  184.5210  179.0890  144.4780 C   0  0  0  0  0  2  0  0  0  0  0  0
  185.5620  180.1660  144.2630 C   0  0  0  0  0  1  0  0  0  0  0  0
  2 12  2  0  0  0  0
  2 10  1  0  0  0  0
  3 16  1  0  0  0  0
  3 25  1  1  0  0  0
  4 18  2  6  0  0  0
  4 22  1  0  0  0  0
  4 14  1  0  0  0  0
  5 30  1  6  0  0  0
  5 23  1  0  0  0  0
  5 13  1  0  0  0  0
  6  9  1  6  0  0  0
  6  4  1  0  0  0  0
  6 21  1  0  0  0  0
  7  1  2  0  0  0  0
 10 24  2  0  0  0  0
 10 20  1  0  0  0  0
 11  6  1  0  0  0  0
 12  7  1  0  0  0  0
 13 11  1  6  0  0  0
 14 37  1  1  0  0  0
 14 16  1  0  0  0  0
 15 19  2  0  0  0  0
 16 25  1  0  0  0  0
 16  8  1  1  0  0  0
 17  2  1  0  0  0  0
 20  1  1  1  0  0  0
 20 19  1  0  0  0  0
 21 12  1  6  0  0  0
 21  3  1  0  0  0  0
 23 13  1  0  0  0  0
 23 17  1  1  0  0  0
 24 15  1  0  0  0  0
 26 24  1  0  0  0  0
 26 29  1  0  0  0  0
 28 27  1  0  0  0  0
 29 28  2  0  0  0  0
 31 35  1  0  0  0  0
 32 30  1  0  0  0  0
 33 32  1  0  0  0  0
 34 32  1  0  0  0  0
 35 34  1  0  0  0  0
 35 33  1  0  0  0  0
 36 35  1  0  0  0  0
 38 37  1  0  0  0  0
 39 38  1  0  0  0  0
M  END
>  <MODEL>
7

>  <REMARK>
 VINA RESULT:      -7.4      2.637      7.146
  Name = 
  6 active torsions:
  status: ('A' for Active; 'I' for Inactive)
    1  A    between atoms: C_1  and  C_31
    2  A    between atoms: C_1  and  C_36
    3  A    between atoms: C_7  and  C_35
    4  A    between atoms: C_14  and  C_35
    5  A    between atoms: C_19  and  C_38
    6  A    between atoms: C_20  and  C_38
                            x       y       z     vdW  Elec       q    Type
                         _______ _______ _______ _____ _____    ______ ____

>  <TORSDO>
F 6

$$$$
=
 OpenBabel11072409113D

 39 45  0  0  1  0  0  0  0  0999 V2000
  187.0940  178.0900  141.8810 C   0  0  0  0  0  3  0  0  0  0  0  0
  187.9130  176.4310  144.1430 C   0  0  0  0  0  0  0  0  0  0  0  0
  188.0330  174.1110  141.3510 C   0  0  2  0  0  3  0  0  0  0  0  0
  190.7610  172.6870  142.1360 P   0  0  1  0  0  0  0  0  0  0  0  0
  190.1580  174.4680  146.3080 C   0  0  2  0  0  3  0  0  0  0  0  0
  190.3800  174.3720  142.6890 C   0  0  2  0  0  0  0  0  0  0  0  0
  188.1470  177.0130  141.7030 C   0  0  0  0  0  3  0  0  0  0  0  0
  187.8970  172.8990  139.2440 O   0  0  0  0  0  1  0  0  0  0  0  0
  191.1210  175.3400  141.7820 C   0  0  0  0  0  1  0  0  0  0  0  0
  187.0670  177.6230  144.2520 C   0  0  0  0  0  0  0  0  0  0  0  0
  190.9240  174.4900  144.0010 O   0  0  0  0  0  0  0  0  0  0  0  0
  188.3230  176.0550  142.8910 C   0  0  0  0  0  0  0  0  0  0  0  0
  189.9180  174.2130  144.8690 N   0  0  2  0  0  0  0  0  0  0  0  0
  189.9880  172.4730  140.5140 C   0  0  2  0  0  3  0  0  0  0  0  0
  185.5750  179.2340  144.7640 N   0  0  0  0  0  0  0  0  0  0  0  0
  188.5400  172.9650  140.4810 C   0  0  1  0  0  0  0  0  0  0  0  0
  188.3150  175.7730  145.3110 O   0  0  0  0  0  0  0  0  0  0  0  0
  192.4370  172.4830  142.0160 O   0  0  0  0  0  0  0  0  0  0  0  0
  185.7230  179.3480  143.5020 N   0  0  0  0  0  0  0  0  0  0  0  0
  186.6620  178.3650  143.1030 C   0  0  0  0  0  0  0  0  0  0  0  0
  188.8200  174.6450  142.5730 C   0  0  1  0  0  3  0  0  0  0  0  0
  190.2020  171.6800  143.1160 O   0  0  0  0  0  1  0  0  0  0  0  0
  189.6970  175.5380  145.4440 C   0  0  1  0  0  3  0  0  0  0  0  0
  186.4020  178.1670  145.2600 C   0  0  1  0  0  3  0  0  0  0  0  0
  187.6170  172.6640  141.6380 C   0  0  0  0  0  2  0  0  0  0  0  0
  186.4060  177.6640  146.6750 C   0  0  0  0  0  2  0  0  0  0  0  0
  189.6860  178.6660  148.3880 C   0  0  0  0  0  1  0  0  0  0  0  0
  188.6920  177.9640  147.5290 C   0  0  0  0  0  3  0  0  0  0  0  0
  187.4210  178.3600  147.5270 C   0  0  0  0  0  3  0  0  0  0  0  0
  191.6420  174.6220  146.6190 C   0  0  0  0  0  2  0  0  0  0  0  0
  194.6220  177.8590  146.2990 F   0  0  0  0  0  0  0  0  0  0  0  0
  192.0820  176.0620  146.3830 C   0  0  0  0  0  3  0  0  0  0  0  0
  193.2430  176.0920  145.4030 C   0  0  0  0  0  2  0  0  0  0  0  0
  193.0120  176.5270  147.4980 C   0  0  0  0  0  2  0  0  0  0  0  0
  194.1570  176.5730  146.5120 C   0  0  0  0  0  0  0  0  0  0  0  0
  195.1590  175.6670  146.8130 F   0  0  0  0  0  0  0  0  0  0  0  0
  190.0670  171.0220  140.0640 C   0  0  0  0  0  2  0  0  0  0  0  0
  191.2490  170.8190  139.1340 C   0  0  0  0  0  2  0  0  0  0  0  0
  191.2940  171.9450  138.1220 C   0  0  0  0  0  1  0  0  0  0  0  0
  1 20  1  0  0  0  0
  2 10  1  0  0  0  0
  2 17  1  0  0  0  0
  3 25  1  1  0  0  0
  3 21  1  0  0  0  0
  4 18  2  6  0  0  0
  4  6  1  0  0  0  0
  4 22  1  0  0  0  0
  5 30  1  6  0  0  0
  6  9  1  6  0  0  0
  6 11  1  0  0  0  0
  7  1  2  0  0  0  0
  7 12  1  0  0  0  0
 10 24  1  0  0  0  0
 12  2  2  0  0  0  0
 13 11  1  6  0  0  0
 13 23  1  0  0  0  0
 13  5  1  0  0  0  0
 14 37  1  1  0  0  0
 14  4  1  0  0  0  0
 15 24  1  0  0  0  0
 16  8  1  6  0  0  0
 16 14  1  0  0  0  0
 16  3  1  0  0  0  0
 16 25  1  0  0  0  0
 19 15  2  0  0  0  0
 20 19  1  0  0  0  0
 20 10  2  0  0  0  0
 21  6  1  0  0  0  0
 21 12  1  6  0  0  0
 23 17  1  1  0  0  0
 23  5  1  0  0  0  0
 24 26  1  6  0  0  0
 26 29  1  0  0  0  0
 28 27  1  0  0  0  0
 29 28  2  0  0  0  0
 31 35  1  0  0  0  0
 32 30  1  0  0  0  0
 32 34  1  0  0  0  0
 33 32  1  0  0  0  0
 33 35  1  0  0  0  0
 35 36  1  0  0  0  0
 35 34  1  0  0  0  0
 38 37  1  0  0  0  0
 39 38  1  0  0  0  0
M  END
>  <MODEL>
8

>  <REMARK>
 VINA RESULT:      -7.3      3.157      6.266
  Name = 
  6 active torsions:
  status: ('A' for Active; 'I' for Inactive)
    1  A    between atoms: C_1  and  C_31
    2  A    between atoms: C_1  and  C_36
    3  A    between atoms: C_7  and  C_35
    4  A    between atoms: C_14  and  C_35
    5  A    between atoms: C_19  and  C_38
    6  A    between atoms: C_20  and  C_38
                            x       y       z     vdW  Elec       q    Type
                         _______ _______ _______ _____ _____    ______ ____

>  <TORSDO>
F 6

$$$$
=
 OpenBabel11072409113D

 39 45  0  0  1  0  0  0  0  0999 V2000
  186.7160  177.8600  141.4820 C   0  0  0  0  0  3  0  0  0  0  0  0
  187.2960  176.4650  143.9840 C   0  0  0  0  0  0  0  0  0  0  0  0
  188.3320  174.0680  141.4600 C   0  0  2  0  0  3  0  0  0  0  0  0
  191.0250  173.1470  142.8710 P   0  0  1  0  0  0  0  0  0  0  0  0
  189.3190  174.9990  146.6920 C   0  0  2  0  0  3  0  0  0  0  0  0
  190.2900  174.7710  143.2040 C   0  0  2  0  0  0  0  0  0  0  0  0
  187.9340  176.9620  141.5980 C   0  0  0  0  0  3  0  0  0  0  0  0
  188.8150  172.7530  139.4690 O   0  0  0  0  0  1  0  0  0  0  0  0
  191.0460  175.8040  142.3850 C   0  0  0  0  0  1  0  0  0  0  0  0
  186.2750  177.5070  143.8320 C   0  0  0  0  0  0  0  0  0  0  0  0
  190.5290  175.0380  144.5840 O   0  0  0  0  0  0  0  0  0  0  0  0
  188.0050  176.1030  142.8690 C   0  0  0  0  0  0  0  0  0  0  0  0
  189.4210  174.6410  145.2580 N   0  0  2  0  0  0  0  0  0  0  0  0
  190.6410  172.7350  141.1510 C   0  0  2  0  0  3  0  0  0  0  0  0
  184.4840  178.8730  143.9150 N   0  0  0  0  0  0  0  0  0  0  0  0
  189.1740  172.9810  140.7990 C   0  0  1  0  0  0  0  0  0  0  0  0
  187.5440  175.9370  145.2560 O   0  0  0  0  0  0  0  0  0  0  0  0
  192.7020  173.2150  143.0950 O   0  0  0  0  0  0  0  0  0  0  0  0
  184.8680  178.9510  142.7010 N   0  0  0  0  0  0  0  0  0  0  0  0
  186.0060  178.1170  142.5710 C   0  0  0  0  0  0  0  0  0  0  0  0
  188.7630  174.7790  142.7660 C   0  0  1  0  0  3  0  0  0  0  0  0
  190.4360  172.1100  143.7990 O   0  0  0  0  0  1  0  0  0  0  0  0
  188.8890  175.9380  145.6730 C   0  0  1  0  0  3  0  0  0  0  0  0
  185.3430  177.9800  144.6460 C   0  0  1  0  0  3  0  0  0  0  0  0
  188.0900  172.5880  141.7730 C   0  0  0  0  0  2  0  0  0  0  0  0
  185.1340  177.5520  146.0690 C   0  0  0  0  0  2  0  0  0  0  0  0
  187.0060  179.5140  148.7790 C   0  0  0  0  0  1  0  0  0  0  0  0
  186.6240  178.4550  147.8040 C   0  0  0  0  0  3  0  0  0  0  0  0
  185.5370  178.6080  147.0510 C   0  0  0  0  0  3  0  0  0  0  0  0
  190.6680  175.4080  147.2720 C   0  0  0  0  0  2  0  0  0  0  0  0
  191.4230  179.1820  149.4290 F   0  0  0  0  0  0  0  0  0  0  0  0
  190.7510  176.9250  147.3940 C   0  0  0  0  0  3  0  0  0  0  0  0
  192.0710  177.3200  148.0360 C   0  0  0  0  0  2  0  0  0  0  0  0
  190.0040  177.4050  148.6320 C   0  0  0  0  0  2  0  0  0  0  0  0
  191.3190  177.8120  149.2570 C   0  0  0  0  0  0  0  0  0  0  0  0
  191.6170  177.0900  150.3990 F   0  0  0  0  0  0  0  0  0  0  0  0
  191.0280  171.2960  140.8410 C   0  0  0  0  0  2  0  0  0  0  0  0
  192.1180  171.2570  139.7840 C   0  0  0  0  0  2  0  0  0  0  0  0
  192.4530  172.6680  139.3520 C   0  0  0  0  0  1  0  0  0  0  0  0
  1  7  2  0  0  0  0
  1 20  1  0  0  0  0
  2 17  1  0  0  0  0
  3 25  1  1  0  0  0
  3 21  1  0  0  0  0
  4 18  2  1  0  0  0
  4  6  1  0  0  0  0
  4 22  1  0  0  0  0
  5 30  1  6  0  0  0
  6  9  1  6  0  0  0
  6 11  1  0  0  0  0
  7 12  1  0  0  0  0
 10  2  1  0  0  0  0
 10 24  1  0  0  0  0
 12  2  2  0  0  0  0
 13 11  1  6  0  0  0
 13 23  1  0  0  0  0
 13  5  1  0  0  0  0
 14 37  1  1  0  0  0
 14  4  1  0  0  0  0
 15 24  1  0  0  0  0
 16  8  1  6  0  0  0
 16 14  1  0  0  0  0
 16  3  1  0  0  0  0
 16 25  1  0  0  0  0
 19 15  2  0  0  0  0
 20 19  1  0  0  0  0
 20 10  2  0  0  0  0
 21 12  1  6  0  0  0
 21  6  1  0  0  0  0
 23 17  1  1  0  0  0
 23  5  1  0  0  0  0
 24 26  1  6  0  0  0
 26 29  1  0  0  0  0
 28 27  1  0  0  0  0
 29 28  2  0  0  0  0
 30 32  1  0  0  0  0
 32 33  1  0  0  0  0
 32 34  1  0  0  0  0
 33 35  1  0  0  0  0
 34 35  1  0  0  0  0
 35 31  1  0  0  0  0
 35 36  1  0  0  0  0
 38 37  1  0  0  0  0
 39 38  1  0  0  0  0
M  END
>  <MODEL>
9

>  <REMARK>
 VINA RESULT:      -7.3      3.852      6.457
  Name = 
  6 active torsions:
  status: ('A' for Active; 'I' for Inactive)
    1  A    between atoms: C_1  and  C_31
    2  A    between atoms: C_1  and  C_36
    3  A    between atoms: C_7  and  C_35
    4  A    between atoms: C_14  and  C_35
    5  A    between atoms: C_19  and  C_38
    6  A    between atoms: C_20  and  C_38
                            x       y       z     vdW  Elec       q    Type
                         _______ _______ _______ _____ _____    ______ ____

>  <TORSDO>
F 6

$$$$
