=
 OpenBabel11062422093D

 27 29  0  0  1  0  0  0  0  0999 V2000
  186.7690  177.3940  145.0750 C   0  0  0  0  0  0  0  0  0  0  0  0
  188.8630  175.6460  145.9510 C   0  0  0  0  0  0  0  0  0  0  0  0
  186.8360  176.2810  142.9290 C   0  0  0  0  0  3  0  0  0  0  0  0
  187.3660  177.5940  146.4360 C   0  0  0  0  0  2  0  0  0  0  0  0
  187.9010  176.2600  146.9440 C   0  0  0  0  0  2  0  0  0  0  0  0
  187.4270  176.5290  144.1740 C   0  0  0  0  0  0  0  0  0  0  0  0
  188.6830  175.8220  144.6100 C   0  0  0  0  0  0  0  0  0  0  0  0
  185.0210  177.8130  143.4330 C   0  0  0  0  0  0  0  0  0  0  0  0
  185.5770  178.0460  144.7020 C   0  0  0  0  0  0  0  0  0  0  0  0
  185.6530  176.9190  142.5580 C   0  0  0  0  0  3  0  0  0  0  0  0
  192.2240  175.3040  143.0900 C   0  0  0  0  0  0  0  0  0  0  0  0
  189.0920  175.1550  142.1810 C   0  0  0  0  0  1  0  0  0  0  0  0
  193.3670  175.9410  142.8680 C   0  0  0  0  0  2  0  0  0  0  0  0
  190.0040  173.7940  144.0550 C   0  0  0  0  0  2  0  0  0  0  0  0
  191.0270  173.1380  143.1310 C   0  0  0  0  0  2  0  0  0  0  0  0
  192.2240  173.9060  143.0650 O   0  0  0  0  0  0  0  0  0  0  0  0
  189.6800  175.2230  143.5950 C   0  0  2  0  0  0  0  0  0  0  0  0
  190.9880  176.0640  143.5290 C   0  0  2  0  0  3  0  0  0  0  0  0
  190.9840  178.4960  143.9710 N   0  0  0  0  0  1  0  0  0  0  0  0
  190.8370  177.4780  142.9430 C   0  0  0  0  0  2  0  0  0  0  0  0
  183.8400  178.4680  143.0630 O   0  0  0  0  0  0  0  0  0  0  0  0
  183.1690  178.2140  141.8360 C   0  0  0  0  0  1  0  0  0  0  0  0
  183.9640  178.3200  146.4110 O   0  0  0  0  0  1  0  0  0  0  0  0
  184.9050  179.0010  145.6390 C   0  0  0  0  0  2  0  0  0  0  0  0
  189.9090  174.8470  146.4280 O   0  0  0  0  0  0  0  0  0  0  0  0
  192.2210  175.2290  146.9220 C   0  0  0  0  0  1  0  0  0  0  0  0
  190.8010  175.2740  147.4460 C   0  0  0  0  0  2  0  0  0  0  0  0
  1  4  1  0  0  0  0
  2 25  1  0  0  0  0
  2  5  1  0  0  0  0
  3  6  1  0  0  0  0
  4  5  1  0  0  0  0
  6  7  1  0  0  0  0
  6  1  2  0  0  0  0
  7  2  2  0  0  0  0
  8  9  2  0  0  0  0
  9  1  1  0  0  0  0
  9 24  1  0  0  0  0
 10  3  2  0  0  0  0
 10  8  1  0  0  0  0
 11 18  1  0  0  0  0
 13 11  2  0  0  0  0
 15 14  1  0  0  0  0
 16 11  1  0  0  0  0
 16 15  1  0  0  0  0
 17 12  1  6  0  0  0
 17 14  1  0  0  0  0
 17  7  1  0  0  0  0
 18 20  1  6  0  0  0
 18 17  1  0  0  0  0
 20 19  1  0  0  0  0
 21  8  1  0  0  0  0
 22 21  1  0  0  0  0
 24 23  1  0  0  0  0
 25 27  1  0  0  0  0
 26 27  1  0  0  0  0
M  END
>  <MODEL>
1

>  <REMARK>
 VINA RESULT:      -7.0      0.000      0.000
  Name = 
  6 active torsions:
  status: ('A' for Active; 'I' for Inactive)
    1  A    between atoms: O_2  and  C_21
    2  A    between atoms: C_4  and  O_18
    3  A    between atoms: C_9  and  C_25
    4  A    between atoms: C_16  and  C_22
    5  A    between atoms: C_17  and  C_23
    6  A    between atoms: O_18  and  C_24
                            x       y       z     vdW  Elec       q    Type
                         _______ _______ _______ _____ _____    ______ ____

>  <TORSDO>
F 6

$$$$
=
 OpenBabel11062422093D

 27 29  0  0  1  0  0  0  0  0999 V2000
  187.6330  177.6130  143.9810 C   0  0  0  0  0  0  0  0  0  0  0  0
  190.2130  176.6640  143.1730 C   0  0  0  0  0  0  0  0  0  0  0  0
  188.2360  177.0910  146.2640 C   0  0  0  0  0  3  0  0  0  0  0  0
  187.9620  177.5450  142.5200 C   0  0  0  0  0  2  0  0  0  0  0  0
  189.4690  177.6860  142.3420 C   0  0  0  0  0  2  0  0  0  0  0  0
  188.4970  176.9680  144.8930 C   0  0  0  0  0  0  0  0  0  0  0  0
  189.7210  176.2590  144.3790 C   0  0  0  0  0  0  0  0  0  0  0  0
  186.2330  178.3860  145.8160 C   0  0  0  0  0  0  0  0  0  0  0  0
  186.4960  178.3080  144.4380 C   0  0  0  0  0  0  0  0  0  0  0  0
  187.1160  177.7840  146.7220 C   0  0  0  0  0  3  0  0  0  0  0  0
  192.1620  173.2690  144.8440 C   0  0  0  0  0  0  0  0  0  0  0  0
  189.5720  174.6040  146.3150 C   0  0  0  0  0  1  0  0  0  0  0  0
  192.5910  172.1690  144.2380 C   0  0  0  0  0  2  0  0  0  0  0  0
  191.6630  175.8800  145.8790 C   0  0  0  0  0  2  0  0  0  0  0  0
  192.4860  174.8840  146.6920 C   0  0  0  0  0  2  0  0  0  0  0  0
  192.9370  173.8070  145.8770 O   0  0  0  0  0  0  0  0  0  0  0  0
  190.4620  175.1930  145.2150 C   0  0  2  0  0  0  0  0  0  0  0  0
  190.9550  174.0190  144.3200 C   0  0  2  0  0  3  0  0  0  0  0  0
  189.8490  173.2350  142.2520 N   0  0  0  0  0  1  0  0  0  0  0  0
  189.8480  173.1470  143.7040 C   0  0  0  0  0  2  0  0  0  0  0  0
  185.0970  179.0710  146.2660 O   0  0  0  0  0  0  0  0  0  0  0  0
  183.9240  178.4080  146.7180 C   0  0  0  0  0  1  0  0  0  0  0  0
  184.5150  178.0690  143.1670 O   0  0  0  0  0  1  0  0  0  0  0  0
  185.5540  178.9500  143.4680 C   0  0  0  0  0  2  0  0  0  0  0  0
  191.4420  176.1800  142.7100 O   0  0  0  0  0  0  0  0  0  0  0  0
  193.8280  176.0470  142.8690 C   0  0  0  0  0  1  0  0  0  0  0  0
  192.6290  176.9600  142.7170 C   0  0  0  0  0  2  0  0  0  0  0  0
  1  9  2  0  0  0  0
  1  6  1  0  0  0  0
  2  7  2  0  0  0  0
  3 10  1  0  0  0  0
  4  1  1  0  0  0  0
  5  4  1  0  0  0  0
  5  2  1  0  0  0  0
  6  3  2  0  0  0  0
  7  6  1  0  0  0  0
  7 17  1  0  0  0  0
  8 21  1  0  0  0  0
  8 10  2  0  0  0  0
  9  8  1  0  0  0  0
 11 16  1  0  0  0  0
 13 11  2  0  0  0  0
 14 15  1  0  0  0  0
 16 15  1  0  0  0  0
 17 14  1  0  0  0  0
 17 12  1  1  0  0  0
 18 20  1  1  0  0  0
 18 11  1  0  0  0  0
 18 17  1  0  0  0  0
 19 20  1  0  0  0  0
 21 22  1  0  0  0  0
 23 24  1  0  0  0  0
 24  9  1  0  0  0  0
 25 27  1  0  0  0  0
 25  2  1  0  0  0  0
 27 26  1  0  0  0  0
M  END
>  <MODEL>
2

>  <REMARK>
 VINA RESULT:      -6.6      1.895      3.636
  Name = 
  6 active torsions:
  status: ('A' for Active; 'I' for Inactive)
    1  A    between atoms: O_2  and  C_21
    2  A    between atoms: C_4  and  O_18
    3  A    between atoms: C_9  and  C_25
    4  A    between atoms: C_16  and  C_22
    5  A    between atoms: C_17  and  C_23
    6  A    between atoms: O_18  and  C_24
                            x       y       z     vdW  Elec       q    Type
                         _______ _______ _______ _____ _____    ______ ____

>  <TORSDO>
F 6

$$$$
=
 OpenBabel11062422093D

 27 29  0  0  1  0  0  0  0  0999 V2000
  187.3490  177.4660  143.8190 C   0  0  0  0  0  0  0  0  0  0  0  0
  188.7020  175.5610  145.4770 C   0  0  0  0  0  0  0  0  0  0  0  0
  187.7770  176.0180  141.9300 C   0  0  0  0  0  3  0  0  0  0  0  0
  187.5700  177.7850  145.2670 C   0  0  0  0  0  2  0  0  0  0  0  0
  187.6510  176.4840  146.0560 C   0  0  0  0  0  2  0  0  0  0  0  0
  188.0370  176.3660  143.2620 C   0  0  0  0  0  0  0  0  0  0  0  0
  188.9440  175.5410  144.1350 C   0  0  0  0  0  0  0  0  0  0  0  0
  186.2560  177.8930  141.6860 C   0  0  0  0  0  0  0  0  0  0  0  0
  186.4720  178.2370  143.0310 C   0  0  0  0  0  0  0  0  0  0  0  0
  186.9050  176.7740  141.1480 C   0  0  0  0  0  3  0  0  0  0  0  0
  192.5390  174.0700  143.9530 C   0  0  0  0  0  0  0  0  0  0  0  0
  189.9520  174.5360  142.0170 C   0  0  0  0  0  1  0  0  0  0  0  0
  193.8120  174.4030  144.1260 C   0  0  0  0  0  2  0  0  0  0  0  0
  189.8210  173.2180  144.1230 C   0  0  0  0  0  2  0  0  0  0  0  0
  190.8930  172.2500  143.6290 C   0  0  0  0  0  2  0  0  0  0  0  0
  192.1970  172.7140  143.9640 O   0  0  0  0  0  0  0  0  0  0  0  0
  190.0370  174.6230  143.5450 C   0  0  2  0  0  0  0  0  0  0  0  0
  191.4600  175.1330  143.9160 C   0  0  2  0  0  3  0  0  0  0  0  0
  191.8990  177.5410  144.2650 N   0  0  0  0  0  1  0  0  0  0  0  0
  191.8700  176.4730  143.2800 C   0  0  0  0  0  2  0  0  0  0  0  0
  185.3890  178.6660  140.9040 O   0  0  0  0  0  0  0  0  0  0  0  0
  184.0710  178.2520  140.5740 C   0  0  0  0  0  1  0  0  0  0  0  0
  184.5210  179.0640  144.0840 O   0  0  0  0  0  1  0  0  0  0  0  0
  185.7800  179.4330  143.6080 C   0  0  0  0  0  2  0  0  0  0  0  0
  189.3830  174.6890  146.3350 O   0  0  0  0  0  0  0  0  0  0  0  0
  191.2140  175.6930  147.5070 C   0  0  0  0  0  1  0  0  0  0  0  0
  189.8360  175.0740  147.6230 C   0  0  0  0  0  2  0  0  0  0  0  0
  1  4  1  0  0  0  0
  2  5  1  0  0  0  0
  2 25  1  0  0  0  0
  3  6  2  0  0  0  0
  4  5  1  0  0  0  0
  6  1  1  0  0  0  0
  6  7  1  0  0  0  0
  7  2  2  0  0  0  0
  8  9  1  0  0  0  0
  9 24  1  0  0  0  0
  9  1  2  0  0  0  0
 10  8  2  0  0  0  0
 10  3  1  0  0  0  0
 11 16  1  0  0  0  0
 11 13  2  0  0  0  0
 15 16  1  0  0  0  0
 15 14  1  0  0  0  0
 17 12  1  6  0  0  0
 17 18  1  0  0  0  0
 17 14  1  0  0  0  0
 17  7  1  0  0  0  0
 18 20  1  6  0  0  0
 18 11  1  0  0  0  0
 20 19  1  0  0  0  0
 21  8  1  0  0  0  0
 22 21  1  0  0  0  0
 24 23  1  0  0  0  0
 25 27  1  0  0  0  0
 26 27  1  0  0  0  0
M  END
>  <MODEL>
3

>  <REMARK>
 VINA RESULT:      -6.5      1.313      1.499
  Name = 
  6 active torsions:
  status: ('A' for Active; 'I' for Inactive)
    1  A    between atoms: O_2  and  C_21
    2  A    between atoms: C_4  and  O_18
    3  A    between atoms: C_9  and  C_25
    4  A    between atoms: C_16  and  C_22
    5  A    between atoms: C_17  and  C_23
    6  A    between atoms: O_18  and  C_24
                            x       y       z     vdW  Elec       q    Type
                         _______ _______ _______ _____ _____    ______ ____

>  <TORSDO>
F 6

$$$$
=
 OpenBabel11062422093D

 27 29  0  0  1  0  0  0  0  0999 V2000
  188.5380  176.2890  145.6100 C   0  0  0  0  0  0  0  0  0  0  0  0
  190.7790  174.5330  145.2960 C   0  0  0  0  0  0  0  0  0  0  0  0
  188.9920  177.1460  143.3950 C   0  0  0  0  0  3  0  0  0  0  0  0
  188.9560  175.4260  146.7620 C   0  0  0  0  0  2  0  0  0  0  0  0
  189.6390  174.1740  146.2230 C   0  0  0  0  0  2  0  0  0  0  0  0
  189.4100  176.4020  144.5050 C   0  0  0  0  0  0  0  0  0  0  0  0
  190.7100  175.6430  144.5070 C   0  0  0  0  0  0  0  0  0  0  0  0
  186.9200  177.7390  144.5110 C   0  0  0  0  0  0  0  0  0  0  0  0
  187.3020  176.9660  145.6210 C   0  0  0  0  0  0  0  0  0  0  0  0
  187.7670  177.8130  143.3980 C   0  0  0  0  0  3  0  0  0  0  0  0
  194.4530  175.6770  143.4550 C   0  0  0  0  0  0  0  0  0  0  0  0
  191.7460  177.4550  143.0400 C   0  0  0  0  0  1  0  0  0  0  0  0
  195.6780  175.7090  143.9630 C   0  0  0  0  0  2  0  0  0  0  0  0
  191.8770  175.0550  142.3960 C   0  0  0  0  0  2  0  0  0  0  0  0
  193.0420  175.3330  141.4500 C   0  0  0  0  0  2  0  0  0  0  0  0
  194.2890  175.2490  142.1340 O   0  0  0  0  0  0  0  0  0  0  0  0
  191.8850  176.0280  143.5830 C   0  0  2  0  0  0  0  0  0  0  0  0
  193.2450  175.9340  144.3340 C   0  0  2  0  0  3  0  0  0  0  0  0
  193.5440  176.3080  146.7590 N   0  0  0  0  0  1  0  0  0  0  0  0
  193.4520  176.9590  145.4620 C   0  0  0  0  0  2  0  0  0  0  0  0
  185.6940  178.4170  144.5290 O   0  0  0  0  0  0  0  0  0  0  0  0
  185.5840  179.8170  144.3120 C   0  0  0  0  0  1  0  0  0  0  0  0
  186.6240  177.9790  147.6490 O   0  0  0  0  0  1  0  0  0  0  0  0
  186.3990  176.8850  146.8120 C   0  0  0  0  0  2  0  0  0  0  0  0
  191.8840  173.6760  145.2200 O   0  0  0  0  0  0  0  0  0  0  0  0
  193.2280  172.0200  144.1310 C   0  0  0  0  0  1  0  0  0  0  0  0
  191.8350  172.4100  144.5800 C   0  0  0  0  0  2  0  0  0  0  0  0
  1  9  1  0  0  0  0
  1  4  1  0  0  0  0
  2  5  1  0  0  0  0
  3 10  2  0  0  0  0
  3  6  1  0  0  0  0
  5  4  1  0  0  0  0
  6  7  1  0  0  0  0
  6  1  2  0  0  0  0
  7  2  2  0  0  0  0
  8 21  1  0  0  0  0
  8  9  2  0  0  0  0
  9 24  1  0  0  0  0
 10  8  1  0  0  0  0
 11 13  2  0  0  0  0
 11 18  1  0  0  0  0
 14 17  1  0  0  0  0
 15 16  1  0  0  0  0
 15 14  1  0  0  0  0
 16 11  1  0  0  0  0
 17 12  1  6  0  0  0
 17 18  1  0  0  0  0
 17  7  1  0  0  0  0
 18 20  1  6  0  0  0
 20 19  1  0  0  0  0
 22 21  1  0  0  0  0
 24 23  1  0  0  0  0
 25  2  1  0  0  0  0
 26 27  1  0  0  0  0
 27 25  1  0  0  0  0
M  END
>  <MODEL>
4

>  <REMARK>
 VINA RESULT:      -6.4      2.014      2.920
  Name = 
  6 active torsions:
  status: ('A' for Active; 'I' for Inactive)
    1  A    between atoms: O_2  and  C_21
    2  A    between atoms: C_4  and  O_18
    3  A    between atoms: C_9  and  C_25
    4  A    between atoms: C_16  and  C_22
    5  A    between atoms: C_17  and  C_23
    6  A    between atoms: O_18  and  C_24
                            x       y       z     vdW  Elec       q    Type
                         _______ _______ _______ _____ _____    ______ ____

>  <TORSDO>
F 6

$$$$
=
 OpenBabel11062422093D

 27 29  0  0  1  0  0  0  0  0999 V2000
  187.3140  177.5420  143.7930 C   0  0  0  0  0  0  0  0  0  0  0  0
  188.8080  175.6330  145.3190 C   0  0  0  0  0  0  0  0  0  0  0  0
  187.9130  176.3100  141.8010 C   0  0  0  0  0  3  0  0  0  0  0  0
  187.4760  177.7530  145.2690 C   0  0  0  0  0  2  0  0  0  0  0  0
  187.6650  176.4000  145.9460 C   0  0  0  0  0  2  0  0  0  0  0  0
  188.1130  176.5630  143.1630 C   0  0  0  0  0  0  0  0  0  0  0  0
  189.0770  175.7520  143.9880 C   0  0  0  0  0  0  0  0  0  0  0  0
  186.2260  178.0500  141.6750 C   0  0  0  0  0  0  0  0  0  0  0  0
  186.3830  178.2940  143.0500 C   0  0  0  0  0  0  0  0  0  0  0  0
  186.9890  177.0470  141.0620 C   0  0  0  0  0  3  0  0  0  0  0  0
  190.8030  173.7260  141.1530 C   0  0  0  0  0  0  0  0  0  0  0  0
  191.0300  174.1580  144.3810 C   0  0  0  0  0  1  0  0  0  0  0  0
  190.5510  172.8210  140.2170 C   0  0  0  0  0  2  0  0  0  0  0  0
  191.2200  176.0420  142.7670 C   0  0  0  0  0  2  0  0  0  0  0  0
  192.4040  175.3770  142.0710 C   0  0  0  0  0  2  0  0  0  0  0  0
  191.9640  174.4970  141.0400 O   0  0  0  0  0  0  0  0  0  0  0  0
  190.2630  174.9940  143.3520 C   0  0  2  0  0  0  0  0  0  0  0  0
  189.7770  174.0360  142.2240 C   0  0  2  0  0  3  0  0  0  0  0  0
  187.6380  172.8160  142.0120 N   0  0  0  0  0  1  0  0  0  0  0  0
  188.9240  172.8440  142.6900 C   0  0  0  0  0  2  0  0  0  0  0  0
  185.3060  178.8060  140.9380 O   0  0  0  0  0  0  0  0  0  0  0  0
  184.0510  178.2920  140.5120 C   0  0  0  0  0  1  0  0  0  0  0  0
  184.3340  178.8480  144.0960 O   0  0  0  0  0  1  0  0  0  0  0  0
  185.5700  179.3660  143.7080 C   0  0  0  0  0  2  0  0  0  0  0  0
  189.5520  174.7560  146.1180 O   0  0  0  0  0  0  0  0  0  0  0  0
  191.0280  175.5870  147.8110 C   0  0  0  0  0  1  0  0  0  0  0  0
  189.6970  174.9250  147.5200 C   0  0  0  0  0  2  0  0  0  0  0  0
  1  4  1  0  0  0  0
  2  5  1  0  0  0  0
  2 25  1  0  0  0  0
  3  6  2  0  0  0  0
  4  5  1  0  0  0  0
  6  1  1  0  0  0  0
  6  7  1  0  0  0  0
  7  2  2  0  0  0  0
  8  9  1  0  0  0  0
  9 24  1  0  0  0  0
  9  1  2  0  0  0  0
 10  8  2  0  0  0  0
 10  3  1  0  0  0  0
 11 18  1  0  0  0  0
 13 11  2  0  0  0  0
 14 17  1  0  0  0  0
 15 14  1  0  0  0  0
 16 11  1  0  0  0  0
 16 15  1  0  0  0  0
 17  7  1  0  0  0  0
 17 12  1  1  0  0  0
 18 20  1  1  0  0  0
 18 17  1  0  0  0  0
 19 20  1  0  0  0  0
 21  8  1  0  0  0  0
 22 21  1  0  0  0  0
 24 23  1  0  0  0  0
 25 27  1  0  0  0  0
 27 26  1  0  0  0  0
M  END
>  <MODEL>
5

>  <REMARK>
 VINA RESULT:      -6.4      1.980      2.640
  Name = 
  6 active torsions:
  status: ('A' for Active; 'I' for Inactive)
    1  A    between atoms: O_2  and  C_21
    2  A    between atoms: C_4  and  O_18
    3  A    between atoms: C_9  and  C_25
    4  A    between atoms: C_16  and  C_22
    5  A    between atoms: C_17  and  C_23
    6  A    between atoms: O_18  and  C_24
                            x       y       z     vdW  Elec       q    Type
                         _______ _______ _______ _____ _____    ______ ____

>  <TORSDO>
F 6

$$$$
=
 OpenBabel11062422093D

 27 29  0  0  1  0  0  0  0  0999 V2000
  187.2370  176.5170  143.7460 C   0  0  0  0  0  0  0  0  0  0  0  0
  189.4510  175.2480  142.4440 C   0  0  0  0  0  0  0  0  0  0  0  0
  188.6910  176.9620  145.6270 C   0  0  0  0  0  3  0  0  0  0  0  0
  187.0190  175.8470  142.4230 C   0  0  0  0  0  2  0  0  0  0  0  0
  188.3260  175.8600  141.6380 C   0  0  0  0  0  2  0  0  0  0  0  0
  188.4510  176.2800  144.4270 C   0  0  0  0  0  0  0  0  0  0  0  0
  189.4890  175.3880  143.8000 C   0  0  0  0  0  0  0  0  0  0  0  0
  186.5070  178.0150  145.5220 C   0  0  0  0  0  0  0  0  0  0  0  0
  186.2610  177.3700  144.2970 C   0  0  0  0  0  0  0  0  0  0  0  0
  187.7300  177.8120  146.1730 C   0  0  0  0  0  3  0  0  0  0  0  0
  192.2380  172.7180  144.4580 C   0  0  0  0  0  0  0  0  0  0  0  0
  190.3160  174.7590  146.1310 C   0  0  0  0  0  1  0  0  0  0  0  0
  192.5130  171.4350  144.2640 C   0  0  0  0  0  2  0  0  0  0  0  0
  191.8980  175.5500  144.3800 C   0  0  0  0  0  2  0  0  0  0  0  0
  193.0860  174.9460  145.1260 C   0  0  0  0  0  2  0  0  0  0  0  0
  193.2930  173.5900  144.7450 O   0  0  0  0  0  0  0  0  0  0  0  0
  190.6190  174.7390  144.6280 C   0  0  2  0  0  0  0  0  0  0  0  0
  190.8450  173.2570  144.2070 C   0  0  2  0  0  3  0  0  0  0  0  0
  188.9970  171.8690  143.3300 N   0  0  0  0  0  1  0  0  0  0  0  0
  189.6920  172.2930  144.5340 C   0  0  0  0  0  2  0  0  0  0  0  0
  185.5300  178.8560  146.0700 O   0  0  0  0  0  0  0  0  0  0  0  0
  184.8130  178.5350  147.2540 C   0  0  0  0  0  1  0  0  0  0  0  0
  185.0370  178.7080  142.7770 O   0  0  0  0  0  1  0  0  0  0  0  0
  184.9530  177.5840  143.5990 C   0  0  0  0  0  2  0  0  0  0  0  0
  190.4820  174.5830  141.7700 O   0  0  0  0  0  0  0  0  0  0  0  0
  191.2500  172.6640  140.5610 C   0  0  0  0  0  1  0  0  0  0  0  0
  190.2640  173.8130  140.5970 C   0  0  0  0  0  2  0  0  0  0  0  0
  1  9  2  0  0  0  0
  1  6  1  0  0  0  0
  2  7  2  0  0  0  0
  3 10  1  0  0  0  0
  4  1  1  0  0  0  0
  5  4  1  0  0  0  0
  5  2  1  0  0  0  0
  6  3  2  0  0  0  0
  7  6  1  0  0  0  0
  7 17  1  0  0  0  0
  8 21  1  0  0  0  0
  8 10  2  0  0  0  0
  9  8  1  0  0  0  0
 11 16  1  0  0  0  0
 13 11  2  0  0  0  0
 14 17  1  0  0  0  0
 14 15  1  0  0  0  0
 16 15  1  0  0  0  0
 17 12  1  1  0  0  0
 18 11  1  0  0  0  0
 18 20  1  1  0  0  0
 18 17  1  0  0  0  0
 19 20  1  0  0  0  0
 21 22  1  0  0  0  0
 23 24  1  0  0  0  0
 24  9  1  0  0  0  0
 25  2  1  0  0  0  0
 26 27  1  0  0  0  0
 27 25  1  0  0  0  0
M  END
>  <MODEL>
6

>  <REMARK>
 VINA RESULT:      -6.3      2.072      4.074
  Name = 
  6 active torsions:
  status: ('A' for Active; 'I' for Inactive)
    1  A    between atoms: O_2  and  C_21
    2  A    between atoms: C_4  and  O_18
    3  A    between atoms: C_9  and  C_25
    4  A    between atoms: C_16  and  C_22
    5  A    between atoms: C_17  and  C_23
    6  A    between atoms: O_18  and  C_24
                            x       y       z     vdW  Elec       q    Type
                         _______ _______ _______ _____ _____    ______ ____

>  <TORSDO>
F 6

$$$$
=
 OpenBabel11062422093D

 27 29  0  0  1  0  0  0  0  0999 V2000
  187.8340  176.4760  146.0480 C   0  0  0  0  0  0  0  0  0  0  0  0
  190.0660  174.7470  145.5660 C   0  0  0  0  0  0  0  0  0  0  0  0
  187.1990  176.1830  143.7330 C   0  0  0  0  0  3  0  0  0  0  0  0
  188.8340  176.2520  147.1420 C   0  0  0  0  0  2  0  0  0  0  0  0
  189.4790  174.8840  146.9530 C   0  0  0  0  0  2  0  0  0  0  0  0
  188.1590  176.0430  144.7440 C   0  0  0  0  0  0  0  0  0  0  0  0
  189.4750  175.3550  144.4980 C   0  0  0  0  0  0  0  0  0  0  0  0
  185.6640  177.2620  145.2720 C   0  0  0  0  0  0  0  0  0  0  0  0
  186.5970  177.0970  146.3100 C   0  0  0  0  0  0  0  0  0  0  0  0
  185.9710  176.7910  143.9890 C   0  0  0  0  0  3  0  0  0  0  0  0
  192.4400  175.1010  141.9950 C   0  0  0  0  0  0  0  0  0  0  0  0
  189.3270  176.0860  142.0580 C   0  0  0  0  0  1  0  0  0  0  0  0
  193.6840  175.5220  141.8070 C   0  0  0  0  0  2  0  0  0  0  0  0
  190.0060  173.7700  142.6630 C   0  0  0  0  0  2  0  0  0  0  0  0
  190.6390  173.5550  141.2900 C   0  0  0  0  0  2  0  0  0  0  0  0
  191.9970  173.9840  141.2800 O   0  0  0  0  0  0  0  0  0  0  0  0
  190.0900  175.2430  143.0860 C   0  0  2  0  0  0  0  0  0  0  0  0
  191.5750  175.7100  143.0800 C   0  0  2  0  0  3  0  0  0  0  0  0
  192.4240  177.4310  144.6380 N   0  0  0  0  0  1  0  0  0  0  0  0
  191.7980  177.2090  143.3450 C   0  0  0  0  0  2  0  0  0  0  0  0
  184.4390  177.8860  145.5360 O   0  0  0  0  0  0  0  0  0  0  0  0
  183.9950  179.0410  144.8360 C   0  0  0  0  0  1  0  0  0  0  0  0
  186.5070  178.9740  147.7480 O   0  0  0  0  0  1  0  0  0  0  0  0
  186.2720  177.6000  147.6830 C   0  0  0  0  0  2  0  0  0  0  0  0
  191.1960  173.9390  145.3860 O   0  0  0  0  0  0  0  0  0  0  0  0
  193.5420  173.4640  145.3300 C   0  0  0  0  0  1  0  0  0  0  0  0
  192.4210  174.1650  146.0670 C   0  0  0  0  0  2  0  0  0  0  0  0
  1  9  1  0  0  0  0
  1  4  1  0  0  0  0
  2  5  1  0  0  0  0
  3 10  2  0  0  0  0
  3  6  1  0  0  0  0
  5  4  1  0  0  0  0
  6  1  2  0  0  0  0
  7  6  1  0  0  0  0
  7  2  2  0  0  0  0
  8 21  1  0  0  0  0
  8  9  2  0  0  0  0
  9 24  1  0  0  0  0
 10  8  1  0  0  0  0
 11 18  1  0  0  0  0
 13 11  2  0  0  0  0
 14 17  1  0  0  0  0
 15 14  1  0  0  0  0
 16 15  1  0  0  0  0
 16 11  1  0  0  0  0
 17 12  1  6  0  0  0
 17  7  1  0  0  0  0
 18 17  1  0  0  0  0
 18 20  1  6  0  0  0
 20 19  1  0  0  0  0
 22 21  1  0  0  0  0
 24 23  1  0  0  0  0
 25  2  1  0  0  0  0
 25 27  1  0  0  0  0
 26 27  1  0  0  0  0
M  END
>  <MODEL>
7

>  <REMARK>
 VINA RESULT:      -6.2      1.449      1.893
  Name = 
  6 active torsions:
  status: ('A' for Active; 'I' for Inactive)
    1  A    between atoms: O_2  and  C_21
    2  A    between atoms: C_4  and  O_18
    3  A    between atoms: C_9  and  C_25
    4  A    between atoms: C_16  and  C_22
    5  A    between atoms: C_17  and  C_23
    6  A    between atoms: O_18  and  C_24
                            x       y       z     vdW  Elec       q    Type
                         _______ _______ _______ _____ _____    ______ ____

>  <TORSDO>
F 6

$$$$
=
 OpenBabel11062422093D

 27 29  0  0  1  0  0  0  0  0999 V2000
  188.6620  177.2700  144.2540 C   0  0  0  0  0  0  0  0  0  0  0  0
  191.4220  177.0420  143.5210 C   0  0  0  0  0  0  0  0  0  0  0  0
  189.3300  177.0190  146.5640 C   0  0  0  0  0  3  0  0  0  0  0  0
  189.0310  177.2430  142.8010 C   0  0  0  0  0  2  0  0  0  0  0  0
  190.4450  177.7880  142.6380 C   0  0  0  0  0  2  0  0  0  0  0  0
  189.6470  176.9230  145.2040 C   0  0  0  0  0  0  0  0  0  0  0  0
  191.0320  176.5610  144.7350 C   0  0  0  0  0  0  0  0  0  0  0  0
  187.0590  177.6920  146.0370 C   0  0  0  0  0  0  0  0  0  0  0  0
  187.3670  177.6400  144.6670 C   0  0  0  0  0  0  0  0  0  0  0  0
  188.0520  177.3910  146.9780 C   0  0  0  0  0  3  0  0  0  0  0  0
  193.6880  173.8010  145.3980 C   0  0  0  0  0  0  0  0  0  0  0  0
  191.4600  175.5380  147.0340 C   0  0  0  0  0  1  0  0  0  0  0  0
  194.0220  172.5670  145.0400 C   0  0  0  0  0  2  0  0  0  0  0  0
  193.3000  176.6060  145.7440 C   0  0  0  0  0  2  0  0  0  0  0  0
  194.3560  175.8760  146.5710 C   0  0  0  0  0  2  0  0  0  0  0  0
  194.6580  174.6040  146.0070 O   0  0  0  0  0  0  0  0  0  0  0  0
  192.0170  175.7730  145.6250 C   0  0  2  0  0  0  0  0  0  0  0  0
  192.3460  174.3830  145.0040 C   0  0  2  0  0  3  0  0  0  0  0  0
  190.6960  173.1930  143.6000 N   0  0  0  0  0  1  0  0  0  0  0  0
  191.1770  173.3850  144.9580 C   0  0  0  0  0  2  0  0  0  0  0  0
  185.7680  178.0530  146.4440 O   0  0  0  0  0  0  0  0  0  0  0  0
  185.5180  179.0610  147.4140 C   0  0  0  0  0  1  0  0  0  0  0  0
  185.6090  176.8010  143.3230 O   0  0  0  0  0  1  0  0  0  0  0  0
  186.3070  177.9620  143.6590 C   0  0  0  0  0  2  0  0  0  0  0  0
  192.7480  176.9010  143.0930 O   0  0  0  0  0  0  0  0  0  0  0  0
  194.5890  175.6280  142.2430 C   0  0  0  0  0  1  0  0  0  0  0  0
  193.1330  176.0050  142.0620 C   0  0  0  0  0  2  0  0  0  0  0  0
  1  9  2  0  0  0  0
  1  6  1  0  0  0  0
  2  7  2  0  0  0  0
  3 10  1  0  0  0  0
  4  1  1  0  0  0  0
  5  4  1  0  0  0  0
  5  2  1  0  0  0  0
  6  3  2  0  0  0  0
  7  6  1  0  0  0  0
  7 17  1  0  0  0  0
  8 21  1  0  0  0  0
  8 10  2  0  0  0  0
  9  8  1  0  0  0  0
 11 16  1  0  0  0  0
 13 11  2  0  0  0  0
 14 15  1  0  0  0  0
 16 15  1  0  0  0  0
 17 14  1  0  0  0  0
 17 12  1  1  0  0  0
 18 20  1  1  0  0  0
 18 11  1  0  0  0  0
 18 17  1  0  0  0  0
 19 20  1  0  0  0  0
 21 22  1  0  0  0  0
 23 24  1  0  0  0  0
 24  9  1  0  0  0  0
 25  2  1  0  0  0  0
 27 26  1  0  0  0  0
 27 25  1  0  0  0  0
M  END
>  <MODEL>
8

>  <REMARK>
 VINA RESULT:      -6.2      2.159      4.230
  Name = 
  6 active torsions:
  status: ('A' for Active; 'I' for Inactive)
    1  A    between atoms: O_2  and  C_21
    2  A    between atoms: C_4  and  O_18
    3  A    between atoms: C_9  and  C_25
    4  A    between atoms: C_16  and  C_22
    5  A    between atoms: C_17  and  C_23
    6  A    between atoms: O_18  and  C_24
                            x       y       z     vdW  Elec       q    Type
                         _______ _______ _______ _____ _____    ______ ____

>  <TORSDO>
F 6

$$$$
=
 OpenBabel11062422093D

 27 29  0  0  1  0  0  0  0  0999 V2000
  193.6150  175.0960  143.1250 C   0  0  0  0  0  0  0  0  0  0  0  0
  190.8070  174.5460  143.2650 C   0  0  0  0  0  0  0  0  0  0  0  0
  193.6570  175.1260  145.5420 C   0  0  0  0  0  3  0  0  0  0  0  0
  192.8190  175.0340  141.8560 C   0  0  0  0  0  2  0  0  0  0  0  0
  191.6220  174.1140  142.0660 C   0  0  0  0  0  2  0  0  0  0  0  0
  192.9190  175.1420  144.3520 C   0  0  0  0  0  0  0  0  0  0  0  0
  191.4140  175.1040  144.3510 C   0  0  0  0  0  0  0  0  0  0  0  0
  195.7450  175.1240  144.3040 C   0  0  0  0  0  0  0  0  0  0  0  0
  195.0230  175.1020  143.0980 C   0  0  0  0  0  0  0  0  0  0  0  0
  195.0510  175.1250  145.5210 C   0  0  0  0  0  3  0  0  0  0  0  0
  188.2610  176.6330  146.0360 C   0  0  0  0  0  0  0  0  0  0  0  0
  191.4500  176.2600  146.6260 C   0  0  0  0  0  1  0  0  0  0  0  0
  187.3140  177.5430  145.8440 C   0  0  0  0  0  2  0  0  0  0  0  0
  189.9390  174.3310  146.1930 C   0  0  0  0  0  2  0  0  0  0  0  0
  189.0530  174.7100  147.3770 C   0  0  0  0  0  2  0  0  0  0  0  0
  188.0400  175.6310  146.9850 O   0  0  0  0  0  0  0  0  0  0  0  0
  190.5820  175.5750  145.5640 C   0  0  2  0  0  0  0  0  0  0  0  0
  189.4750  176.5790  145.1310 C   0  0  2  0  0  3  0  0  0  0  0  0
  189.8510  178.0380  143.1710 N   0  0  0  0  0  1  0  0  0  0  0  0
  189.9790  177.9380  144.6160 C   0  0  0  0  0  2  0  0  0  0  0  0
  197.1450  175.1370  144.2740 O   0  0  0  0  0  0  0  0  0  0  0  0
  197.9360  174.0420  144.7150 C   0  0  0  0  0  1  0  0  0  0  0  0
  196.0350  176.4140  141.4100 O   0  0  0  0  0  1  0  0  0  0  0  0
  195.7620  175.1020  141.7960 C   0  0  0  0  0  2  0  0  0  0  0  0
  189.4270  174.3120  143.2650 O   0  0  0  0  0  0  0  0  0  0  0  0
  187.4470  175.3240  142.3760 C   0  0  0  0  0  1  0  0  0  0  0  0
  188.6280  174.4170  142.0970 C   0  0  0  0  0  2  0  0  0  0  0  0
  1  6  1  0  0  0  0
  2 25  1  0  0  0  0
  2  7  2  0  0  0  0
  4  5  1  0  0  0  0
  4  1  1  0  0  0  0
  5  2  1  0  0  0  0
  6  3  2  0  0  0  0
  7  6  1  0  0  0  0
  7 17  1  0  0  0  0
  8 10  2  0  0  0  0
  9  1  2  0  0  0  0
  9  8  1  0  0  0  0
 10  3  1  0  0  0  0
 11 16  1  0  0  0  0
 13 11  2  0  0  0  0
 14 15  1  0  0  0  0
 16 15  1  0  0  0  0
 17 14  1  0  0  0  0
 17 12  1  1  0  0  0
 18 20  1  1  0  0  0
 18 17  1  0  0  0  0
 18 11  1  0  0  0  0
 19 20  1  0  0  0  0
 21  8  1  0  0  0  0
 21 22  1  0  0  0  0
 23 24  1  0  0  0  0
 24  9  1  0  0  0  0
 27 26  1  0  0  0  0
 27 25  1  0  0  0  0
M  END
>  <MODEL>
9

>  <REMARK>
 VINA RESULT:      -6.2      2.476      7.726
  Name = 
  6 active torsions:
  status: ('A' for Active; 'I' for Inactive)
    1  A    between atoms: O_2  and  C_21
    2  A    between atoms: C_4  and  O_18
    3  A    between atoms: C_9  and  C_25
    4  A    between atoms: C_16  and  C_22
    5  A    between atoms: C_17  and  C_23
    6  A    between atoms: O_18  and  C_24
                            x       y       z     vdW  Elec       q    Type
                         _______ _______ _______ _____ _____    ______ ____

>  <TORSDO>
F 6

$$$$
