=
 OpenBabel11062421313D

 55 62  0  0  1  0  0  0  0  0999 V2000
  190.9740  171.6870  140.0090 C   0  0  2  0  0  3  0  0  0  0  0  0
  192.4780  172.1050  143.4600 C   0  0  0  0  0  0  0  0  0  0  0  0
  194.2440  174.2020  141.1940 C   0  0  2  0  0  3  0  0  0  0  0  0
  193.1070  173.3430  145.4570 C   0  0  0  0  0  3  0  0  0  0  0  0
  194.3610  172.7270  141.2450 C   0  0  0  0  0  0  0  0  0  0  0  0
  196.7110  175.4350  143.2880 N   0  0  0  0  0  2  0  0  0  0  0  0
  194.0310  172.3530  145.7890 C   0  0  0  0  0  3  0  0  0  0  0  0
  194.1640  171.2220  144.9800 C   0  0  0  0  0  3  0  0  0  0  0  0
  195.4520  172.2020  141.8790 C   0  0  0  0  0  0  0  0  0  0  0  0
  196.3820  173.1220  142.6050 C   0  0  0  0  0  2  0  0  0  0  0  0
  193.7210  168.6380  143.8790 N   0  0  0  0  0  1  0  0  0  0  0  0
  195.0270  176.2140  141.9600 C   0  0  1  0  0  3  0  0  0  0  0  0
  195.7150  170.7210  142.0360 C   0  0  0  0  0  2  0  0  0  0  0  0
  193.3770  171.0700  143.8260 C   0  0  0  0  0  0  0  0  0  0  0  0
  192.0290  171.9050  141.0530 C   0  0  0  0  0  0  0  0  0  0  0  0
  195.9420  176.4630  143.0790 C   0  0  0  0  0  2  0  0  0  0  0  0
  191.6450  172.0250  142.2950 N   0  0  0  0  0  0  0  0  0  0  0  0
  193.3810  171.9150  140.6670 O   0  0  0  0  0  0  0  0  0  0  0  0
  192.3340  173.2150  144.3010 C   0  0  0  0  0  3  0  0  0  0  0  0
  194.4970  169.8050  141.8660 C   0  0  0  0  0  2  0  0  0  0  0  0
  195.4830  174.9950  141.2850 C   0  0  1  0  0  3  0  0  0  0  0  0
  193.2030  174.9020  141.6280 C   0  0  0  0  0  3  0  0  0  0  0  0
  196.3700  174.4360  142.3310 C   0  0  1  0  0  3  0  0  0  0  0  0
  193.7090  176.1900  142.1280 C   0  0  0  0  0  3  0  0  0  0  0  0
  193.4890  169.7930  143.0240 C   0  0  1  0  0  3  0  0  0  0  0  0
  191.3950  172.1310  137.6850 O   0  0  0  0  0  1  0  0  0  0  0  0
  191.5470  171.1630  138.6830 C   0  0  2  0  0  3  0  0  0  0  0  0
  190.9810  169.8310  138.2500 C   0  0  0  0  0  0  0  0  0  0  0  0
  191.5980  168.7980  138.4770 O   0  0  0  0  0  0  0  0  0  0  0  0
  189.7000  169.7560  137.4790 C   0  0  0  0  0  1  0  0  0  0  0  0
  190.1060  172.9250  139.7980 C   0  0  0  0  0  2  0  0  0  0  0  0
  188.6380  172.5440  139.7410 C   0  0  2  0  0  3  0  0  0  0  0  0
  188.0700  173.0650  138.5720 O   0  0  0  0  0  1  0  0  0  0  0  0
  188.8350  175.0020  142.4200 C   0  0  0  0  0  3  0  0  0  0  0  0
  188.3800  174.0200  141.6970 C   0  0  0  0  0  0  0  0  0  0  0  0
  187.9250  173.0360  140.9690 C   0  0  0  0  0  3  0  0  0  0  0  0
  187.6660  176.6130  140.4710 O   0  0  0  0  0  1  0  0  0  0  0  0
  191.5510  176.3810  147.0420 C   0  0  0  0  0  0  0  0  0  0  0  0
  189.1030  174.2000  147.8310 O   0  0  0  0  0  0  0  0  0  0  0  0
  190.7420  177.4300  144.7320 C   0  0  0  0  0  3  0  0  0  0  0  0
  190.6160  176.6210  145.9420 C   0  0  0  0  0  0  0  0  0  0  0  0
  188.7510  178.3410  141.7750 C   0  0  0  0  0  2  0  0  0  0  0  0
  188.3880  176.7490  144.1770 C   0  0  1  0  0  0  0  0  0  0  0  0
  187.9170  176.1100  142.8500 C   0  0  1  0  0  3  0  0  0  0  0  0
  189.8540  175.0710  147.3210 C   0  0  0  0  0  0  0  0  0  0  0  0
  189.8530  178.1210  142.6570 O   0  0  0  0  0  0  0  0  0  0  0  0
  187.7390  177.1780  141.7480 C   0  0  2  0  0  3  0  0  0  0  0  0
  191.1090  175.4760  147.8670 N   0  0  0  0  0  0  0  0  0  0  0  0
  189.6000  175.8160  146.1100 C   0  0  0  0  0  0  0  0  0  0  0  0
  188.5480  175.7350  145.1980 O   0  0  0  0  0  0  0  0  0  0  0  0
  189.7110  177.4590  143.8740 C   0  0  0  0  0  0  0  0  0  0  0  0
  187.4700  177.7350  144.6190 O   0  0  0  0  0  0  0  0  0  0  0  0
  186.3160  177.1080  145.1190 C   0  0  0  0  0  1  0  0  0  0  0  0
  193.9460  176.6030  146.5330 C   0  0  0  0  0  1  0  0  0  0  0  0
  192.7690  177.0420  147.1940 O   0  0  0  0  0  0  0  0  0  0  0  0
  1 31  1  6  0  0  0
  1 15  1  0  0  0  0
  2 14  2  0  0  0  0
  2 19  1  0  0  0  0
  3  5  1  0  0  0  0
  3 21  1  0  0  0  0
  3 22  1  1  0  0  0
  4  7  1  0  0  0  0
  5  9  2  0  0  0  0
  8  7  2  0  0  0  0
  9 13  1  0  0  0  0
  9 10  1  0  0  0  0
 12 24  1  1  0  0  0
 12 16  1  0  0  0  0
 14  8  1  0  0  0  0
 15 17  2  0  0  0  0
 16  6  1  0  0  0  0
 17  2  1  0  0  0  0
 18 15  1  0  0  0  0
 18  5  1  0  0  0  0
 19  4  2  0  0  0  0
 20 13  1  0  0  0  0
 20 25  1  0  0  0  0
 21 12  1  0  0  0  0
 21 23  1  0  0  0  0
 22 24  2  0  0  0  0
 23 10  1  0  0  0  0
 23  6  1  0  0  0  0
 25 14  1  0  0  0  0
 25 11  1  0  0  0  0
 26 27  1  0  0  0  0
 27  1  1  0  0  0  0
 28 29  2  0  0  0  0
 28 27  1  0  0  0  0
 30 28  1  0  0  0  0
 32 31  1  0  0  0  0
 32 36  1  0  0  0  0
 33 32  1  0  0  0  0
 34 44  1  0  0  0  0
 35 34  2  0  0  0  0
 36 35  2  0  0  0  0
 37 47  1  0  0  0  0
 38 55  1  0  0  0  0
 38 48  2  0  0  0  0
 40 41  1  0  0  0  0
 41 49  2  0  0  0  0
 41 38  1  0  0  0  0
 42 46  1  0  0  0  0
 43 52  1  0  0  0  0
 43 50  1  0  0  0  0
 44 43  1  0  0  0  0
 45 39  2  0  0  0  0
 45 48  1  0  0  0  0
 46 51  1  0  0  0  0
 47 42  1  0  0  0  0
 47 44  1  0  0  0  0
 49 45  1  0  0  0  0
 50 49  1  0  0  0  0
 51 43  1  0  0  0  0
 51 40  2  0  0  0  0
 52 53  1  0  0  0  0
 54 55  1  0  0  0  0
M  END
>  <MODEL>
1

>  <REMARK>
 VINA RESULT:      -8.1      0.000      0.000
  Name = 
  9 active torsions:
  status: ('A' for Active; 'I' for Inactive)
    1  A    between atoms: O_1  and  C_27
    2  A    between atoms: C_2  and  C_6
    3  A    between atoms: C_2  and  C_34
    4  A    between atoms: C_2  and  C_40
    5  A    between atoms: C_4  and  C_6
    6  A    between atoms: C_4  and  C_52
    7  A    between atoms: O_10  and  C_11
    8  A    between atoms: C_23  and  C_40
    9  A    between atoms: C_30  and  C_42
                            x       y       z     vdW  Elec       q    Type
                         _______ _______ _______ _____ _____    ______ ____

>  <TORSDO>
F 9

$$$$
=
 OpenBabel11062421313D

 55 62  0  0  1  0  0  0  0  0999 V2000
  190.9890  171.6780  140.3310 C   0  0  2  0  0  3  0  0  0  0  0  0
  194.3090  172.9650  141.6230 C   0  0  0  0  0  0  0  0  0  0  0  0
  193.3500  170.1490  143.5740 C   0  0  2  0  0  3  0  0  0  0  0  0
  196.6790  172.8130  142.1510 C   0  0  0  0  0  3  0  0  0  0  0  0
  192.7210  171.4870  143.6550 C   0  0  0  0  0  0  0  0  0  0  0  0
  195.8880  170.1360  145.9300 N   0  0  0  0  0  2  0  0  0  0  0  0
  196.5590  173.8880  143.0310 C   0  0  0  0  0  3  0  0  0  0  0  0
  195.3280  174.5270  143.1890 C   0  0  0  0  0  3  0  0  0  0  0  0
  193.0910  172.2960  144.6920 C   0  0  0  0  0  0  0  0  0  0  0  0
  194.2010  171.8590  145.5940 C   0  0  0  0  0  2  0  0  0  0  0  0
  193.1400  176.2920  142.7600 N   0  0  0  0  0  1  0  0  0  0  0  0
  194.9920  168.7540  144.3500 C   0  0  1  0  0  3  0  0  0  0  0  0
  192.5590  173.6950  144.9120 C   0  0  0  0  0  2  0  0  0  0  0  0
  194.1980  174.0940  142.4740 C   0  0  0  0  0  0  0  0  0  0  0  0
  192.0640  172.0150  141.3230 C   0  0  0  0  0  0  0  0  0  0  0  0
  196.1410  169.0910  145.1980 C   0  0  0  0  0  2  0  0  0  0  0  0
  193.2020  172.4600  140.8640 N   0  0  0  0  0  0  0  0  0  0  0  0
  191.7890  171.8940  142.6960 O   0  0  0  0  0  0  0  0  0  0  0  0
  195.5600  172.3580  141.4500 C   0  0  0  0  0  3  0  0  0  0  0  0
  191.9290  174.3700  143.6880 C   0  0  0  0  0  2  0  0  0  0  0  0
  193.8530  169.5480  144.8220 C   0  0  1  0  0  3  0  0  0  0  0  0
  194.0090  169.6770  142.5230 C   0  0  0  0  0  3  0  0  0  0  0  0
  194.5630  170.5660  145.6280 C   0  0  1  0  0  3  0  0  0  0  0  0
  195.0700  168.7880  143.0240 C   0  0  0  0  0  3  0  0  0  0  0  0
  192.9040  174.8640  142.6090 C   0  0  1  0  0  3  0  0  0  0  0  0
  191.5880  171.7490  138.0050 O   0  0  0  0  0  1  0  0  0  0  0  0
  191.5230  170.9030  139.1160 C   0  0  2  0  0  3  0  0  0  0  0  0
  190.7530  169.6400  138.8020 C   0  0  0  0  0  0  0  0  0  0  0  0
  191.0320  168.5930  139.3710 O   0  0  0  0  0  0  0  0  0  0  0  0
  189.6890  169.6330  137.7490 C   0  0  0  0  0  1  0  0  0  0  0  0
  190.1880  172.9060  139.9080 C   0  0  0  0  0  2  0  0  0  0  0  0
  188.7150  172.5640  139.7800 C   0  0  2  0  0  3  0  0  0  0  0  0
  188.2090  173.1290  138.6040 O   0  0  0  0  0  1  0  0  0  0  0  0
  188.7990  175.0240  142.4630 C   0  0  0  0  0  3  0  0  0  0  0  0
  188.3820  174.0340  141.7300 C   0  0  0  0  0  0  0  0  0  0  0  0
  187.9630  173.0410  140.9910 C   0  0  0  0  0  3  0  0  0  0  0  0
  187.6680  176.6310  140.4880 O   0  0  0  0  0  1  0  0  0  0  0  0
  191.3410  176.4120  147.1810 C   0  0  0  0  0  0  0  0  0  0  0  0
  188.9050  174.1860  147.8750 O   0  0  0  0  0  0  0  0  0  0  0  0
  190.5910  177.4650  144.8530 C   0  0  0  0  0  3  0  0  0  0  0  0
  190.4390  176.6450  146.0520 C   0  0  0  0  0  0  0  0  0  0  0  0
  188.6820  178.3660  141.8400 C   0  0  0  0  0  2  0  0  0  0  0  0
  188.2670  176.7510  144.2170 C   0  0  1  0  0  0  0  0  0  0  0  0
  187.8500  176.1140  142.8710 C   0  0  1  0  0  3  0  0  0  0  0  0
  189.6580  175.0730  147.3950 C   0  0  0  0  0  0  0  0  0  0  0  0
  189.7580  178.1580  142.7550 O   0  0  0  0  0  0  0  0  0  0  0  0
  187.6900  177.1870  141.7710 C   0  0  2  0  0  3  0  0  0  0  0  0
  190.8870  175.4940  147.9850 N   0  0  0  0  0  0  0  0  0  0  0  0
  189.4310  175.8220  146.1820 C   0  0  0  0  0  0  0  0  0  0  0  0
  188.4100  175.7320  145.2350 O   0  0  0  0  0  0  0  0  0  0  0  0
  189.5870  177.4840  143.9620 C   0  0  0  0  0  0  0  0  0  0  0  0
  187.3200  177.7180  144.6360 O   0  0  0  0  0  0  0  0  0  0  0  0
  186.1820  177.0680  145.1440 C   0  0  0  0  0  1  0  0  0  0  0  0
  193.7440  176.6870  146.7370 C   0  0  0  0  0  1  0  0  0  0  0  0
  192.5430  177.0910  147.3770 O   0  0  0  0  0  0  0  0  0  0  0  0
  1 31  1  6  0  0  0
  1 15  1  0  0  0  0
  2 14  1  0  0  0  0
  3 22  1  6  0  0  0
  3  5  1  0  0  0  0
  3 21  1  0  0  0  0
  4  7  2  0  0  0  0
  5  9  2  0  0  0  0
  7  8  1  0  0  0  0
  9 13  1  0  0  0  0
  9 10  1  0  0  0  0
 10 23  1  0  0  0  0
 12 24  1  6  0  0  0
 12 21  1  0  0  0  0
 12 16  1  0  0  0  0
 14 25  1  0  0  0  0
 14  8  2  0  0  0  0
 15 18  1  0  0  0  0
 16  6  1  0  0  0  0
 17 15  2  0  0  0  0
 17  2  1  0  0  0  0
 18  5  1  0  0  0  0
 19  2  2  0  0  0  0
 19  4  1  0  0  0  0
 20 13  1  0  0  0  0
 21 23  1  0  0  0  0
 22 24  2  0  0  0  0
 23  6  1  0  0  0  0
 25 11  1  0  0  0  0
 25 20  1  0  0  0  0
 26 27  1  0  0  0  0
 27  1  1  0  0  0  0
 28 27  1  0  0  0  0
 28 29  2  0  0  0  0
 30 28  1  0  0  0  0
 32 31  1  0  0  0  0
 32 36  1  0  0  0  0
 33 32  1  0  0  0  0
 34 44  1  0  0  0  0
 35 34  2  0  0  0  0
 36 35  2  0  0  0  0
 37 47  1  0  0  0  0
 38 55  1  0  0  0  0
 38 48  2  0  0  0  0
 40 41  1  0  0  0  0
 41 49  2  0  0  0  0
 41 38  1  0  0  0  0
 42 46  1  0  0  0  0
 43 52  1  0  0  0  0
 43 50  1  0  0  0  0
 44 43  1  0  0  0  0
 45 39  2  0  0  0  0
 45 48  1  0  0  0  0
 46 51  1  0  0  0  0
 47 42  1  0  0  0  0
 47 44  1  0  0  0  0
 49 45  1  0  0  0  0
 50 49  1  0  0  0  0
 51 43  1  0  0  0  0
 51 40  2  0  0  0  0
 52 53  1  0  0  0  0
 54 55  1  0  0  0  0
M  END
>  <MODEL>
2

>  <REMARK>
 VINA RESULT:      -8.1      1.141      3.386
  Name = 
  9 active torsions:
  status: ('A' for Active; 'I' for Inactive)
    1  A    between atoms: O_1  and  C_27
    2  A    between atoms: C_2  and  C_6
    3  A    between atoms: C_2  and  C_34
    4  A    between atoms: C_2  and  C_40
    5  A    between atoms: C_4  and  C_6
    6  A    between atoms: C_4  and  C_52
    7  A    between atoms: O_10  and  C_11
    8  A    between atoms: C_23  and  C_40
    9  A    between atoms: C_30  and  C_42
                            x       y       z     vdW  Elec       q    Type
                         _______ _______ _______ _____ _____    ______ ____

>  <TORSDO>
F 9

$$$$
=
 OpenBabel11062421313D

 55 62  0  0  1  0  0  0  0  0999 V2000
  191.4190  171.4270  140.7050 C   0  0  2  0  0  3  0  0  0  0  0  0
  195.1330  172.1450  140.9120 C   0  0  0  0  0  0  0  0  0  0  0  0
  193.9330  171.4350  144.1840 C   0  0  2  0  0  3  0  0  0  0  0  0
  197.4560  171.6200  141.4000 C   0  0  0  0  0  3  0  0  0  0  0  0
  193.6620  172.6860  143.4380 C   0  0  0  0  0  0  0  0  0  0  0  0
  196.8010  172.0220  146.0340 N   0  0  0  0  0  2  0  0  0  0  0  0
  197.7640  172.9790  141.4420 C   0  0  0  0  0  3  0  0  0  0  0  0
  196.7700  173.9270  141.1900 C   0  0  0  0  0  3  0  0  0  0  0  0
  194.4040  173.7860  143.7630 C   0  0  0  0  0  0  0  0  0  0  0  0
  195.5330  173.6420  144.7340 C   0  0  0  0  0  2  0  0  0  0  0  0
  195.0150  175.6770  139.7930 N   0  0  0  0  0  1  0  0  0  0  0  0
  195.3210  170.3320  145.6350 C   0  0  1  0  0  3  0  0  0  0  0  0
  194.2660  175.1340  143.0880 C   0  0  0  0  0  2  0  0  0  0  0  0
  195.4540  173.5270  140.8980 C   0  0  0  0  0  0  0  0  0  0  0  0
  192.7120  171.9320  141.2750 C   0  0  0  0  0  0  0  0  0  0  0  0
  196.6570  170.7310  146.0900 C   0  0  0  0  0  2  0  0  0  0  0  0
  193.8140  171.6590  140.6290 N   0  0  0  0  0  0  0  0  0  0  0  0
  192.6850  172.7200  142.4390 O   0  0  0  0  0  0  0  0  0  0  0  0
  196.1490  171.2080  141.1330 C   0  0  0  0  0  3  0  0  0  0  0  0
  193.5900  175.1260  141.7120 C   0  0  0  0  0  2  0  0  0  0  0  0
  194.5110  171.5510  145.5350 C   0  0  1  0  0  3  0  0  0  0  0  0
  194.2490  170.2700  143.6340 C   0  0  0  0  0  3  0  0  0  0  0  0
  195.5820  172.5740  145.5460 C   0  0  1  0  0  3  0  0  0  0  0  0
  195.1480  169.5660  144.5620 C   0  0  0  0  0  3  0  0  0  0  0  0
  194.4270  174.5790  140.5470 C   0  0  1  0  0  3  0  0  0  0  0  0
  191.1680  170.4240  138.5360 O   0  0  0  0  0  1  0  0  0  0  0  0
  191.6000  170.1690  139.8420 C   0  0  2  0  0  3  0  0  0  0  0  0
  190.9420  168.9320  140.4080 C   0  0  0  0  0  0  0  0  0  0  0  0
  190.2400  168.2280  139.6940 O   0  0  0  0  0  0  0  0  0  0  0  0
  191.0800  168.5850  141.8580 C   0  0  0  0  0  1  0  0  0  0  0  0
  190.6520  172.5170  139.9600 C   0  0  0  0  0  2  0  0  0  0  0  0
  189.2470  172.6550  140.5150 C   0  0  2  0  0  3  0  0  0  0  0  0
  188.3210  172.4740  139.4810 O   0  0  0  0  0  1  0  0  0  0  0  0
  189.3830  174.3240  143.7490 C   0  0  0  0  0  3  0  0  0  0  0  0
  189.2300  174.1590  142.4670 C   0  0  0  0  0  0  0  0  0  0  0  0
  189.0790  173.9920  141.1810 C   0  0  0  0  0  3  0  0  0  0  0  0
  191.4920  173.7640  145.4800 O   0  0  0  0  0  1  0  0  0  0  0  0
  185.2880  178.0230  144.1800 C   0  0  0  0  0  0  0  0  0  0  0  0
  186.8060  178.4280  141.1960 O   0  0  0  0  0  0  0  0  0  0  0  0
  187.1280  176.7980  145.6640 C   0  0  0  0  0  3  0  0  0  0  0  0
  186.6150  177.4860  144.4820 C   0  0  0  0  0  0  0  0  0  0  0  0
  190.2710  175.3200  146.8780 C   0  0  0  0  0  2  0  0  0  0  0  0
  189.3570  176.7250  144.5070 C   0  0  1  0  0  0  0  0  0  0  0  0
  190.2140  175.4610  144.2690 C   0  0  1  0  0  3  0  0  0  0  0  0
  186.4830  178.1700  142.3840 C   0  0  0  0  0  0  0  0  0  0  0  0
  188.8850  175.6330  146.7260 O   0  0  0  0  0  0  0  0  0  0  0  0
  191.0000  175.0710  145.5420 C   0  0  2  0  0  3  0  0  0  0  0  0
  185.2000  178.4380  142.9490 N   0  0  0  0  0  0  0  0  0  0  0  0
  187.3270  177.5650  143.3880 C   0  0  0  0  0  0  0  0  0  0  0  0
  188.6310  177.0760  143.3040 O   0  0  0  0  0  0  0  0  0  0  0  0
  188.4080  176.3980  145.6640 C   0  0  0  0  0  0  0  0  0  0  0  0
  190.1630  177.8170  144.9160 O   0  0  0  0  0  0  0  0  0  0  0  0
  190.9320  178.2630  143.8280 C   0  0  0  0  0  1  0  0  0  0  0  0
  184.3500  178.8230  146.3070 C   0  0  0  0  0  1  0  0  0  0  0  0
  184.2400  178.0870  145.0980 O   0  0  0  0  0  0  0  0  0  0  0  0
  1 31  1  6  0  0  0
  1 15  1  0  0  0  0
  2 19  1  0  0  0  0
  3 22  1  6  0  0  0
  3 21  1  0  0  0  0
  4  7  1  0  0  0  0
  5  9  2  0  0  0  0
  5  3  1  0  0  0  0
  6 16  1  0  0  0  0
  8  7  2  0  0  0  0
  9 10  1  0  0  0  0
 10 23  1  0  0  0  0
 11 25  1  0  0  0  0
 12 24  1  6  0  0  0
 12 16  1  0  0  0  0
 13  9  1  0  0  0  0
 14  2  2  0  0  0  0
 14  8  1  0  0  0  0
 15 18  1  0  0  0  0
 17  2  1  0  0  0  0
 17 15  2  0  0  0  0
 18  5  1  0  0  0  0
 19  4  2  0  0  0  0
 20 13  1  0  0  0  0
 21 23  1  0  0  0  0
 21 12  1  0  0  0  0
 22 24  2  0  0  0  0
 23  6  1  0  0  0  0
 25 14  1  0  0  0  0
 25 20  1  0  0  0  0
 26 27  1  0  0  0  0
 27 28  1  0  0  0  0
 27  1  1  0  0  0  0
 28 30  1  0  0  0  0
 29 28  2  0  0  0  0
 31 32  1  0  0  0  0
 32 36  1  0  0  0  0
 33 32  1  0  0  0  0
 34 44  1  0  0  0  0
 35 34  2  0  0  0  0
 36 35  2  0  0  0  0
 37 47  1  0  0  0  0
 38 41  1  0  0  0  0
 38 55  1  0  0  0  0
 39 45  2  0  0  0  0
 40 51  2  0  0  0  0
 41 40  1  0  0  0  0
 43 52  1  0  0  0  0
 43 51  1  0  0  0  0
 44 43  1  0  0  0  0
 44 47  1  0  0  0  0
 45 48  1  0  0  0  0
 45 49  1  0  0  0  0
 46 42  1  0  0  0  0
 47 42  1  0  0  0  0
 48 38  2  0  0  0  0
 49 41  2  0  0  0  0
 50 49  1  0  0  0  0
 50 43  1  0  0  0  0
 51 46  1  0  0  0  0
 53 52  1  0  0  0  0
 55 54  1  0  0  0  0
M  END
>  <MODEL>
3

>  <REMARK>
 VINA RESULT:      -7.8      2.172      4.831
  Name = 
  9 active torsions:
  status: ('A' for Active; 'I' for Inactive)
    1  A    between atoms: O_1  and  C_27
    2  A    between atoms: C_2  and  C_6
    3  A    between atoms: C_2  and  C_34
    4  A    between atoms: C_2  and  C_40
    5  A    between atoms: C_4  and  C_6
    6  A    between atoms: C_4  and  C_52
    7  A    between atoms: O_10  and  C_11
    8  A    between atoms: C_23  and  C_40
    9  A    between atoms: C_30  and  C_42
                            x       y       z     vdW  Elec       q    Type
                         _______ _______ _______ _____ _____    ______ ____

>  <TORSDO>
F 9

$$$$
=
 OpenBabel11062421313D

 55 62  0  0  1  0  0  0  0  0999 V2000
  191.3710  171.5100  140.0440 C   0  0  2  0  0  3  0  0  0  0  0  0
  195.1050  172.0150  140.4370 C   0  0  0  0  0  0  0  0  0  0  0  0
  193.4220  174.6330  142.1580 C   0  0  2  0  0  3  0  0  0  0  0  0
  197.1840  172.2200  141.6830 C   0  0  0  0  0  3  0  0  0  0  0  0
  193.5220  174.5190  140.6850 C   0  0  0  0  0  0  0  0  0  0  0  0
  196.1250  176.5530  143.1590 N   0  0  0  0  0  2  0  0  0  0  0  0
  197.7800  172.8600  140.5970 C   0  0  0  0  0  3  0  0  0  0  0  0
  197.0580  173.0540  139.4180 C   0  0  0  0  0  3  0  0  0  0  0  0
  194.4500  175.2970  140.0540 C   0  0  0  0  0  0  0  0  0  0  0  0
  195.4030  176.1040  140.8780 C   0  0  0  0  0  2  0  0  0  0  0  0
  195.9050  172.5780  136.8620 N   0  0  0  0  0  1  0  0  0  0  0  0
  194.3570  175.4450  144.0850 C   0  0  1  0  0  3  0  0  0  0  0  0
  194.6930  175.2900  138.5610 C   0  0  0  0  0  2  0  0  0  0  0  0
  195.7270  172.6150  139.3120 C   0  0  0  0  0  0  0  0  0  0  0  0
  192.6730  172.2450  140.1740 C   0  0  0  0  0  0  0  0  0  0  0  0
  195.6900  176.0300  144.2680 C   0  0  0  0  0  2  0  0  0  0  0  0
  193.7510  171.5450  140.4080 N   0  0  0  0  0  0  0  0  0  0  0  0
  192.6940  173.6370  139.9830 O   0  0  0  0  0  0  0  0  0  0  0  0
  195.8550  171.7980  141.5990 C   0  0  0  0  0  3  0  0  0  0  0  0
  194.1890  174.0530  137.8080 C   0  0  0  0  0  2  0  0  0  0  0  0
  193.8570  175.8950  142.7820 C   0  0  1  0  0  3  0  0  0  0  0  0
  193.5280  173.6230  143.0130 C   0  0  0  0  0  3  0  0  0  0  0  0
  195.1210  176.3590  142.1660 C   0  0  1  0  0  3  0  0  0  0  0  0
  194.1380  174.1440  144.2460 C   0  0  0  0  0  3  0  0  0  0  0  0
  195.0070  172.7660  137.9920 C   0  0  1  0  0  3  0  0  0  0  0  0
  189.9140  171.3790  138.1380 O   0  0  0  0  0  1  0  0  0  0  0  0
  191.1470  170.9410  138.6350 C   0  0  2  0  0  3  0  0  0  0  0  0
  191.2730  169.4380  138.5480 C   0  0  0  0  0  0  0  0  0  0  0  0
  191.1870  168.8760  137.4640 O   0  0  0  0  0  0  0  0  0  0  0  0
  191.4380  168.6090  139.7840 C   0  0  0  0  0  1  0  0  0  0  0  0
  190.1850  172.3500  140.5090 C   0  0  0  0  0  2  0  0  0  0  0  0
  190.1750  172.4670  142.0230 C   0  0  2  0  0  3  0  0  0  0  0  0
  189.3070  171.5060  142.5550 O   0  0  0  0  0  1  0  0  0  0  0  0
  190.1970  174.7780  144.8370 C   0  0  0  0  0  3  0  0  0  0  0  0
  189.9870  174.3190  143.6370 C   0  0  0  0  0  0  0  0  0  0  0  0
  189.7790  173.8570  142.4340 C   0  0  0  0  0  3  0  0  0  0  0  0
  192.1380  175.1140  146.8060 O   0  0  0  0  0  1  0  0  0  0  0  0
  185.6350  177.7270  143.7710 C   0  0  0  0  0  0  0  0  0  0  0  0
  187.4350  177.4470  140.9330 O   0  0  0  0  0  0  0  0  0  0  0  0
  187.4270  177.3200  145.6980 C   0  0  0  0  0  3  0  0  0  0  0  0
  186.9750  177.5260  144.3240 C   0  0  0  0  0  0  0  0  0  0  0  0
  190.5670  176.8030  147.5450 C   0  0  0  0  0  2  0  0  0  0  0  0
  189.7700  177.2580  144.7900 C   0  0  1  0  0  0  0  0  0  0  0  0
  190.8060  176.1360  145.0290 C   0  0  1  0  0  3  0  0  0  0  0  0
  187.0070  177.5120  142.1140 C   0  0  0  0  0  0  0  0  0  0  0  0
  189.1810  176.8290  147.2000 O   0  0  0  0  0  0  0  0  0  0  0  0
  191.4770  176.2820  146.4140 C   0  0  2  0  0  3  0  0  0  0  0  0
  185.6420  177.7300  142.4690 N   0  0  0  0  0  0  0  0  0  0  0  0
  187.7960  177.3840  143.3170 C   0  0  0  0  0  0  0  0  0  0  0  0
  189.1530  177.1070  143.4890 O   0  0  0  0  0  0  0  0  0  0  0  0
  188.7400  177.1490  145.9180 C   0  0  0  0  0  0  0  0  0  0  0  0
  190.3730  178.5370  144.8900 O   0  0  0  0  0  0  0  0  0  0  0  0
  191.2050  178.7490  143.7770 C   0  0  0  0  0  1  0  0  0  0  0  0
  184.3280  179.0070  145.4120 C   0  0  0  0  0  1  0  0  0  0  0  0
  184.4860  177.8970  144.5420 O   0  0  0  0  0  0  0  0  0  0  0  0
  1 15  1  0  0  0  0
  1 31  1  6  0  0  0
  2 19  1  0  0  0  0
  3 21  1  0  0  0  0
  3 22  1  1  0  0  0
  5  3  1  0  0  0  0
  6 16  1  0  0  0  0
  7  4  1  0  0  0  0
  8  7  2  0  0  0  0
  9  5  2  0  0  0  0
  9 10  1  0  0  0  0
 10 23  1  0  0  0  0
 11 25  1  0  0  0  0
 12 24  1  6  0  0  0
 12 16  1  0  0  0  0
 13  9  1  0  0  0  0
 14  8  1  0  0  0  0
 14  2  2  0  0  0  0
 15 17  2  0  0  0  0
 17  2  1  0  0  0  0
 18 15  1  0  0  0  0
 18  5  1  0  0  0  0
 19  4  2  0  0  0  0
 20 25  1  0  0  0  0
 20 13  1  0  0  0  0
 21 12  1  0  0  0  0
 22 24  2  0  0  0  0
 23 21  1  0  0  0  0
 23  6  1  0  0  0  0
 25 14  1  0  0  0  0
 26 27  1  0  0  0  0
 27  1  1  0  0  0  0
 28 27  1  0  0  0  0
 28 30  1  0  0  0  0
 29 28  2  0  0  0  0
 31 32  1  0  0  0  0
 32 36  1  0  0  0  0
 32 33  1  0  0  0  0
 34 44  1  0  0  0  0
 35 34  2  0  0  0  0
 36 35  2  0  0  0  0
 38 41  1  0  0  0  0
 38 55  1  0  0  0  0
 39 45  2  0  0  0  0
 40 51  2  0  0  0  0
 41 40  1  0  0  0  0
 43 52  1  0  0  0  0
 43 44  1  0  0  0  0
 43 51  1  0  0  0  0
 44 47  1  0  0  0  0
 45 48  1  0  0  0  0
 45 49  1  0  0  0  0
 46 42  1  0  0  0  0
 47 37  1  0  0  0  0
 47 42  1  0  0  0  0
 48 38  2  0  0  0  0
 49 50  1  0  0  0  0
 49 41  2  0  0  0  0
 50 43  1  0  0  0  0
 51 46  1  0  0  0  0
 53 52  1  0  0  0  0
 55 54  1  0  0  0  0
M  END
>  <MODEL>
4

>  <REMARK>
 VINA RESULT:      -7.6      2.322      4.581
  Name = 
  9 active torsions:
  status: ('A' for Active; 'I' for Inactive)
    1  A    between atoms: O_1  and  C_27
    2  A    between atoms: C_2  and  C_6
    3  A    between atoms: C_2  and  C_34
    4  A    between atoms: C_2  and  C_40
    5  A    between atoms: C_4  and  C_6
    6  A    between atoms: C_4  and  C_52
    7  A    between atoms: O_10  and  C_11
    8  A    between atoms: C_23  and  C_40
    9  A    between atoms: C_30  and  C_42
                            x       y       z     vdW  Elec       q    Type
                         _______ _______ _______ _____ _____    ______ ____

>  <TORSDO>
F 9

$$$$
=
 OpenBabel11062421313D

 55 62  0  0  1  0  0  0  0  0999 V2000
  191.0880  171.3900  141.7360 C   0  0  2  0  0  3  0  0  0  0  0  0
  194.0930  171.4650  144.0420 C   0  0  0  0  0  0  0  0  0  0  0  0
  194.2540  174.2850  141.8810 C   0  0  2  0  0  3  0  0  0  0  0  0
  195.5300  172.4110  145.7610 C   0  0  0  0  0  3  0  0  0  0  0  0
  194.5190  172.8880  141.4670 C   0  0  0  0  0  0  0  0  0  0  0  0
  197.3150  175.6070  142.8170 N   0  0  0  0  0  2  0  0  0  0  0  0
  196.5830  171.6010  145.3370 C   0  0  0  0  0  3  0  0  0  0  0  0
  196.3920  170.6990  144.2880 C   0  0  0  0  0  3  0  0  0  0  0  0
  195.8250  172.5030  141.3450 C   0  0  0  0  0  0  0  0  0  0  0  0
  196.9030  173.4490  141.7680 C   0  0  0  0  0  2  0  0  0  0  0  0
  195.6950  168.3360  142.8680 N   0  0  0  0  0  1  0  0  0  0  0  0
  195.1250  176.2370  142.7040 C   0  0  1  0  0  3  0  0  0  0  0  0
  196.2680  171.1120  140.9500 C   0  0  0  0  0  2  0  0  0  0  0  0
  195.1450  170.6000  143.6460 C   0  0  0  0  0  0  0  0  0  0  0  0
  192.5030  171.6310  142.1770 C   0  0  0  0  0  0  0  0  0  0  0  0
  196.4540  176.4630  143.2810 C   0  0  0  0  0  2  0  0  0  0  0  0
  192.7950  171.4270  143.4330 N   0  0  0  0  0  0  0  0  0  0  0  0
  193.4620  172.0070  141.2210 O   0  0  0  0  0  0  0  0  0  0  0  0
  194.2930  172.3390  145.1180 C   0  0  0  0  0  3  0  0  0  0  0  0
  195.2250  170.0020  141.1300 C   0  0  0  0  0  2  0  0  0  0  0  0
  195.2860  175.2960  141.5900 C   0  0  1  0  0  3  0  0  0  0  0  0
  193.5190  174.6470  142.9240 C   0  0  0  0  0  3  0  0  0  0  0  0
  196.6300  174.7570  141.9010 C   0  0  1  0  0  3  0  0  0  0  0  0
  194.0850  175.8960  143.4570 C   0  0  0  0  0  3  0  0  0  0  0  0
  194.9530  169.5530  142.5730 C   0  0  1  0  0  3  0  0  0  0  0  0
  191.6640  169.0570  141.7340 O   0  0  0  0  0  1  0  0  0  0  0  0
  190.8990  170.0200  141.0670 C   0  0  2  0  0  3  0  0  0  0  0  0
  191.1780  170.0130  139.5820 C   0  0  0  0  0  0  0  0  0  0  0  0
  192.3280  170.1050  139.1730 O   0  0  0  0  0  0  0  0  0  0  0  0
  190.0560  169.9640  138.5910 C   0  0  0  0  0  1  0  0  0  0  0  0
  190.5550  172.5220  140.8630 C   0  0  0  0  0  2  0  0  0  0  0  0
  189.0790  172.7530  141.1310 C   0  0  2  0  0  3  0  0  0  0  0  0
  188.3690  172.6580  139.9280 O   0  0  0  0  0  1  0  0  0  0  0  0
  189.6970  174.5920  144.2130 C   0  0  0  0  0  3  0  0  0  0  0  0
  189.2840  174.3410  143.0040 C   0  0  0  0  0  0  0  0  0  0  0  0
  188.8740  174.0880  141.7910 C   0  0  0  0  0  3  0  0  0  0  0  0
  191.7580  174.5270  146.0850 O   0  0  0  0  0  1  0  0  0  0  0  0
  185.4120  178.0630  143.7300 C   0  0  0  0  0  0  0  0  0  0  0  0
  187.0290  177.9180  140.7750 O   0  0  0  0  0  0  0  0  0  0  0  0
  187.2470  177.2820  145.4940 C   0  0  0  0  0  3  0  0  0  0  0  0
  186.7500  177.6770  144.1780 C   0  0  0  0  0  0  0  0  0  0  0  0
  190.4070  176.2700  147.0860 C   0  0  0  0  0  2  0  0  0  0  0  0
  189.5230  177.0930  144.4450 C   0  0  1  0  0  0  0  0  0  0  0  0
  190.4500  175.8580  144.5050 C   0  0  1  0  0  3  0  0  0  0  0  0
  186.6700  177.8970  141.9810 C   0  0  0  0  0  0  0  0  0  0  0  0
  189.0150  176.4660  146.8300 O   0  0  0  0  0  0  0  0  0  0  0  0
  191.2010  175.7880  145.8540 C   0  0  2  0  0  3  0  0  0  0  0  0
  185.3540  178.2050  142.4370 N   0  0  0  0  0  0  0  0  0  0  0  0
  187.5010  177.5650  143.1140 C   0  0  0  0  0  0  0  0  0  0  0  0
  188.8300  177.1430  143.1740 O   0  0  0  0  0  0  0  0  0  0  0  0
  188.5450  176.9630  145.6160 C   0  0  0  0  0  0  0  0  0  0  0  0
  190.2570  178.2900  144.6370 O   0  0  0  0  0  0  0  0  0  0  0  0
  191.1680  178.4540  143.5800 C   0  0  0  0  0  1  0  0  0  0  0  0
  184.4340  179.0410  145.7640 C   0  0  0  0  0  1  0  0  0  0  0  0
  184.3260  178.2600  144.5830 O   0  0  0  0  0  0  0  0  0  0  0  0
  1 31  1  6  0  0  0
  1 15  1  0  0  0  0
  2 19  1  0  0  0  0
  3 22  1  1  0  0  0
  5  3  1  0  0  0  0
  6 16  1  0  0  0  0
  7  4  1  0  0  0  0
  8  7  2  0  0  0  0
  9  5  2  0  0  0  0
  9 10  1  0  0  0  0
 10 23  1  0  0  0  0
 12 16  1  1  0  0  0
 12 24  1  0  0  0  0
 13 20  1  0  0  0  0
 13  9  1  0  0  0  0
 14  2  2  0  0  0  0
 14  8  1  0  0  0  0
 15 17  2  0  0  0  0
 17  2  1  0  0  0  0
 18  5  1  0  0  0  0
 18 15  1  0  0  0  0
 19  4  2  0  0  0  0
 20 25  1  0  0  0  0
 21  3  1  0  0  0  0
 21 23  1  0  0  0  0
 21 12  1  0  0  0  0
 22 24  2  0  0  0  0
 23  6  1  0  0  0  0
 25 11  1  0  0  0  0
 25 14  1  0  0  0  0
 27 26  1  0  0  0  0
 27  1  1  0  0  0  0
 28 27  1  0  0  0  0
 29 28  2  0  0  0  0
 30 28  1  0  0  0  0
 31 32  1  0  0  0  0
 32 36  1  0  0  0  0
 33 32  1  0  0  0  0
 34 44  1  0  0  0  0
 35 34  2  0  0  0  0
 36 35  2  0  0  0  0
 38 41  1  0  0  0  0
 38 55  1  0  0  0  0
 39 45  2  0  0  0  0
 40 51  2  0  0  0  0
 41 40  1  0  0  0  0
 43 44  1  0  0  0  0
 43 52  1  0  0  0  0
 43 51  1  0  0  0  0
 44 47  1  0  0  0  0
 45 48  1  0  0  0  0
 45 49  1  0  0  0  0
 46 42  1  0  0  0  0
 47 37  1  0  0  0  0
 47 42  1  0  0  0  0
 48 38  2  0  0  0  0
 49 50  1  0  0  0  0
 49 41  2  0  0  0  0
 50 43  1  0  0  0  0
 51 46  1  0  0  0  0
 53 52  1  0  0  0  0
 55 54  1  0  0  0  0
M  END
>  <MODEL>
5

>  <REMARK>
 VINA RESULT:      -7.5      1.908      3.743
  Name = 
  9 active torsions:
  status: ('A' for Active; 'I' for Inactive)
    1  A    between atoms: O_1  and  C_27
    2  A    between atoms: C_2  and  C_6
    3  A    between atoms: C_2  and  C_34
    4  A    between atoms: C_2  and  C_40
    5  A    between atoms: C_4  and  C_6
    6  A    between atoms: C_4  and  C_52
    7  A    between atoms: O_10  and  C_11
    8  A    between atoms: C_23  and  C_40
    9  A    between atoms: C_30  and  C_42
                            x       y       z     vdW  Elec       q    Type
                         _______ _______ _______ _____ _____    ______ ____

>  <TORSDO>
F 9

$$$$
=
 OpenBabel11062421313D

 55 62  0  0  1  0  0  0  0  0999 V2000
  190.9900  172.5950  138.8410 C   0  0  2  0  0  3  0  0  0  0  0  0
  194.0960  171.2450  140.5370 C   0  0  0  0  0  0  0  0  0  0  0  0
  192.6060  173.6690  142.6700 C   0  0  2  0  0  3  0  0  0  0  0  0
  195.3310  170.1150  142.3010 C   0  0  0  0  0  3  0  0  0  0  0  0
  193.3380  173.9800  141.4210 C   0  0  0  0  0  0  0  0  0  0  0  0
  194.9530  173.7810  145.2140 N   0  0  0  0  0  2  0  0  0  0  0  0
  196.5120  170.7220  141.8750 C   0  0  0  0  0  3  0  0  0  0  0  0
  196.5000  171.5670  140.7630 C   0  0  0  0  0  3  0  0  0  0  0  0
  194.6270  174.4180  141.5380 C   0  0  0  0  0  0  0  0  0  0  0  0
  195.2730  174.4230  142.8870 C   0  0  0  0  0  2  0  0  0  0  0  0
  196.5760  172.4600  138.0640 N   0  0  0  0  0  1  0  0  0  0  0  0
  192.7300  173.3480  144.9350 C   0  0  1  0  0  3  0  0  0  0  0  0
  195.5180  174.7620  140.3650 C   0  0  0  0  0  2  0  0  0  0  0  0
  195.3050  171.8200  140.0670 C   0  0  0  0  0  0  0  0  0  0  0  0
  192.2310  172.5980  139.6850 C   0  0  0  0  0  0  0  0  0  0  0  0
  193.9310  173.1940  145.7630 C   0  0  0  0  0  2  0  0  0  0  0  0
  192.8380  171.4590  139.8840 N   0  0  0  0  0  0  0  0  0  0  0  0
  192.7210  173.8200  140.1770 O   0  0  0  0  0  0  0  0  0  0  0  0
  194.1330  170.3730  141.6320 C   0  0  0  0  0  3  0  0  0  0  0  0
  195.0990  174.1740  139.0130 C   0  0  0  0  0  2  0  0  0  0  0  0
  193.0340  174.3480  143.9070 C   0  0  1  0  0  3  0  0  0  0  0  0
  192.0220  172.5090  142.9470 C   0  0  0  0  0  3  0  0  0  0  0  0
  194.5120  174.3670  143.9920 C   0  0  1  0  0  3  0  0  0  0  0  0
  192.1120  172.3000  144.4000 C   0  0  0  0  0  3  0  0  0  0  0  0
  195.3490  172.6710  138.8190 C   0  0  1  0  0  3  0  0  0  0  0  0
  190.6900  174.2400  137.1160 O   0  0  0  0  0  1  0  0  0  0  0  0
  191.2620  172.9920  137.3820 C   0  0  2  0  0  3  0  0  0  0  0  0
  190.8250  171.9590  136.3700 C   0  0  0  0  0  0  0  0  0  0  0  0
  190.9240  172.1920  135.1720 O   0  0  0  0  0  0  0  0  0  0  0  0
  190.2030  170.6690  136.8090 C   0  0  0  0  0  1  0  0  0  0  0  0
  189.8730  173.4350  139.4550 C   0  0  0  0  0  2  0  0  0  0  0  0
  188.6280  172.5940  139.6680 C   0  0  2  0  0  3  0  0  0  0  0  0
  187.8170  172.6710  138.5300 O   0  0  0  0  0  1  0  0  0  0  0  0
  188.7170  175.0540  142.3510 C   0  0  0  0  0  3  0  0  0  0  0  0
  188.3080  174.0520  141.6280 C   0  0  0  0  0  0  0  0  0  0  0  0
  187.8980  173.0490  140.9000 C   0  0  0  0  0  3  0  0  0  0  0  0
  187.5100  176.6510  140.4130 O   0  0  0  0  0  1  0  0  0  0  0  0
  191.3090  176.4580  147.0360 C   0  0  0  0  0  0  0  0  0  0  0  0
  188.9410  174.1660  147.7510 O   0  0  0  0  0  0  0  0  0  0  0  0
  190.4900  177.5150  144.7330 C   0  0  0  0  0  3  0  0  0  0  0  0
  190.3810  176.6800  145.9270 C   0  0  0  0  0  0  0  0  0  0  0  0
  188.5050  178.3980  141.7640 C   0  0  0  0  0  2  0  0  0  0  0  0
  188.1740  176.7490  144.1310 C   0  0  1  0  0  0  0  0  0  0  0  0
  187.7490  176.1150  142.7870 C   0  0  1  0  0  3  0  0  0  0  0  0
  189.6630  175.0760  147.2670 C   0  0  0  0  0  0  0  0  0  0  0  0
  189.6030  178.2070  142.6580 O   0  0  0  0  0  0  0  0  0  0  0  0
  187.5420  177.1950  141.7000 C   0  0  2  0  0  3  0  0  0  0  0  0
  190.8930  175.5210  147.8390 N   0  0  0  0  0  0  0  0  0  0  0  0
  189.3960  175.8310  146.0660 C   0  0  0  0  0  0  0  0  0  0  0  0
  188.3610  175.7240  145.1360 O   0  0  0  0  0  0  0  0  0  0  0  0
  189.4710  177.5170  143.8600 C   0  0  0  0  0  0  0  0  0  0  0  0
  187.2110  177.6890  144.5770 O   0  0  0  0  0  0  0  0  0  0  0  0
  186.0820  177.0060  145.0630 C   0  0  0  0  0  1  0  0  0  0  0  0
  193.7480  176.6490  146.7910 C   0  0  0  0  0  1  0  0  0  0  0  0
  192.4960  177.1660  147.2180 O   0  0  0  0  0  0  0  0  0  0  0  0
  1 31  1  1  0  0  0
  1 15  1  0  0  0  0
  2 19  1  0  0  0  0
  3 22  1  1  0  0  0
  3 21  1  0  0  0  0
  5  9  2  0  0  0  0
  5  3  1  0  0  0  0
  6 16  1  0  0  0  0
  7  4  1  0  0  0  0
  8  7  2  0  0  0  0
  9 10  1  0  0  0  0
 10 23  1  0  0  0  0
 11 25  1  0  0  0  0
 12 24  1  6  0  0  0
 12 16  1  0  0  0  0
 13  9  1  0  0  0  0
 14  2  2  0  0  0  0
 14  8  1  0  0  0  0
 15 17  2  0  0  0  0
 15 18  1  0  0  0  0
 17  2  1  0  0  0  0
 18  5  1  0  0  0  0
 19  4  2  0  0  0  0
 20 13  1  0  0  0  0
 21 23  1  0  0  0  0
 21 12  1  0  0  0  0
 22 24  2  0  0  0  0
 23  6  1  0  0  0  0
 25 20  1  0  0  0  0
 25 14  1  0  0  0  0
 26 27  1  0  0  0  0
 27  1  1  0  0  0  0
 28 30  1  0  0  0  0
 28 27  1  0  0  0  0
 29 28  2  0  0  0  0
 31 32  1  0  0  0  0
 32 36  1  0  0  0  0
 33 32  1  0  0  0  0
 34 44  1  0  0  0  0
 35 34  2  0  0  0  0
 36 35  2  0  0  0  0
 37 47  1  0  0  0  0
 38 55  1  0  0  0  0
 38 48  2  0  0  0  0
 40 41  1  0  0  0  0
 41 49  2  0  0  0  0
 41 38  1  0  0  0  0
 42 46  1  0  0  0  0
 43 52  1  0  0  0  0
 43 50  1  0  0  0  0
 44 43  1  0  0  0  0
 45 39  2  0  0  0  0
 45 48  1  0  0  0  0
 46 51  1  0  0  0  0
 47 42  1  0  0  0  0
 47 44  1  0  0  0  0
 49 45  1  0  0  0  0
 50 49  1  0  0  0  0
 51 43  1  0  0  0  0
 51 40  2  0  0  0  0
 52 53  1  0  0  0  0
 54 55  1  0  0  0  0
M  END
>  <MODEL>
6

>  <REMARK>
 VINA RESULT:      -7.2      1.523      2.819
  Name = 
  9 active torsions:
  status: ('A' for Active; 'I' for Inactive)
    1  A    between atoms: O_1  and  C_27
    2  A    between atoms: C_2  and  C_6
    3  A    between atoms: C_2  and  C_34
    4  A    between atoms: C_2  and  C_40
    5  A    between atoms: C_4  and  C_6
    6  A    between atoms: C_4  and  C_52
    7  A    between atoms: O_10  and  C_11
    8  A    between atoms: C_23  and  C_40
    9  A    between atoms: C_30  and  C_42
                            x       y       z     vdW  Elec       q    Type
                         _______ _______ _______ _____ _____    ______ ____

>  <TORSDO>
F 9

$$$$
=
 OpenBabel11062421313D

 55 62  0  0  1  0  0  0  0  0999 V2000
  193.1220  172.6280  143.1120 C   0  0  2  0  0  3  0  0  0  0  0  0
  191.0000  174.5180  145.6170 C   0  0  0  0  0  0  0  0  0  0  0  0
  189.7390  175.1590  142.3530 C   0  0  2  0  0  3  0  0  0  0  0  0
  188.9390  175.0890  146.7750 C   0  0  0  0  0  3  0  0  0  0  0  0
  190.9990  175.7160  142.8960 C   0  0  0  0  0  0  0  0  0  0  0  0
  187.2710  177.4750  143.0880 N   0  0  0  0  0  2  0  0  0  0  0  0
  189.4890  176.3080  147.1690 C   0  0  0  0  0  3  0  0  0  0  0  0
  190.8020  176.6270  146.8180 C   0  0  0  0  0  3  0  0  0  0  0  0
  190.9770  177.0060  143.3450 C   0  0  0  0  0  0  0  0  0  0  0  0
  189.6710  177.7330  143.4020 C   0  0  0  0  0  2  0  0  0  0  0  0
  193.6410  176.7860  146.8890 N   0  0  0  0  0  1  0  0  0  0  0  0
  187.4790  175.4310  142.0950 C   0  0  1  0  0  3  0  0  0  0  0  0
  192.1700  177.7190  143.9430 C   0  0  0  0  0  2  0  0  0  0  0  0
  191.5810  175.7330  146.0630 C   0  0  0  0  0  0  0  0  0  0  0  0
  192.2770  173.7360  143.6690 C   0  0  0  0  0  0  0  0  0  0  0  0
  186.6050  176.4110  142.7460 C   0  0  0  0  0  2  0  0  0  0  0  0
  191.7270  173.5570  144.8400 N   0  0  0  0  0  0  0  0  0  0  0  0
  192.1580  174.9350  142.9450 O   0  0  0  0  0  0  0  0  0  0  0  0
  189.6930  174.1990  146.0070 C   0  0  0  0  0  3  0  0  0  0  0  0
  193.2970  176.8180  144.4600 C   0  0  0  0  0  2  0  0  0  0  0  0
  188.7500  176.1040  141.8040 C   0  0  1  0  0  3  0  0  0  0  0  0
  189.1470  174.0500  142.7780 C   0  0  0  0  0  3  0  0  0  0  0  0
  188.6260  177.2840  142.6890 C   0  0  1  0  0  3  0  0  0  0  0  0
  187.6960  174.2290  142.6200 C   0  0  0  0  0  3  0  0  0  0  0  0
  193.0240  176.0770  145.7770 C   0  0  1  0  0  3  0  0  0  0  0  0
  193.5710  170.4380  143.9930 O   0  0  0  0  0  1  0  0  0  0  0  0
  192.5640  171.2340  143.4370 C   0  0  2  0  0  3  0  0  0  0  0  0
  191.9000  170.5450  142.2670 C   0  0  0  0  0  0  0  0  0  0  0  0
  192.5640  169.8580  141.5020 O   0  0  0  0  0  0  0  0  0  0  0  0
  190.4430  170.7450  141.9850 C   0  0  0  0  0  1  0  0  0  0  0  0
  194.5870  172.7580  143.5180 C   0  0  0  0  0  2  0  0  0  0  0  0
  195.4090  173.3250  142.3760 C   0  0  2  0  0  3  0  0  0  0  0  0
  195.5130  174.7140  142.5250 O   0  0  0  0  0  1  0  0  0  0  0  0
  194.8660  174.5360  138.9850 C   0  0  0  0  0  3  0  0  0  0  0  0
  194.8270  173.7470  140.0190 C   0  0  0  0  0  0  0  0  0  0  0  0
  194.7910  172.9560  141.0570 C   0  0  0  0  0  3  0  0  0  0  0  0
  197.0560  175.6600  137.6810 O   0  0  0  0  0  1  0  0  0  0  0  0
  189.7550  173.4860  137.1360 C   0  0  0  0  0  0  0  0  0  0  0  0
  191.0140  170.6730  138.5040 O   0  0  0  0  0  0  0  0  0  0  0  0
  191.9180  174.9150  136.5270 C   0  0  0  0  0  3  0  0  0  0  0  0
  191.1890  173.7320  136.9770 C   0  0  0  0  0  0  0  0  0  0  0  0
  195.3890  175.9930  135.9550 C   0  0  0  0  0  2  0  0  0  0  0  0
  194.0260  173.5770  136.8140 C   0  0  1  0  0  0  0  0  0  0  0  0
  195.2620  173.9990  137.6400 C   0  0  1  0  0  3  0  0  0  0  0  0
  190.8100  171.7870  137.9580 C   0  0  0  0  0  0  0  0  0  0  0  0
  193.9790  176.0140  136.1820 O   0  0  0  0  0  0  0  0  0  0  0  0
  196.1460  174.9940  136.8540 C   0  0  2  0  0  3  0  0  0  0  0  0
  189.5180  172.3390  137.7040 N   0  0  0  0  0  0  0  0  0  0  0  0
  191.8200  172.7070  137.4890 C   0  0  0  0  0  0  0  0  0  0  0  0
  193.2120  172.6440  137.5640 O   0  0  0  0  0  0  0  0  0  0  0  0
  193.2580  174.8620  136.4900 C   0  0  0  0  0  0  0  0  0  0  0  0
  194.4130  172.9930  135.5820 O   0  0  0  0  0  0  0  0  0  0  0  0
  194.9060  171.6970  135.8140 C   0  0  0  0  0  1  0  0  0  0  0  0
  187.8190  174.9140  137.6420 C   0  0  0  0  0  1  0  0  0  0  0  0
  188.7580  174.3700  136.7270 O   0  0  0  0  0  0  0  0  0  0  0  0
  1 27  1  0  0  0  0
  1 31  1  1  0  0  0
  1 15  1  0  0  0  0
  2 19  2  0  0  0  0
  2 14  1  0  0  0  0
  3 22  1  1  0  0  0
  3  5  1  0  0  0  0
  4  7  2  0  0  0  0
  5 18  1  0  0  0  0
  5  9  2  0  0  0  0
  8  7  1  0  0  0  0
  9 10  1  0  0  0  0
  9 13  1  0  0  0  0
 12 24  1  1  0  0  0
 12 16  1  0  0  0  0
 13 20  1  0  0  0  0
 14  8  2  0  0  0  0
 15 17  2  0  0  0  0
 16  6  1  0  0  0  0
 17  2  1  0  0  0  0
 18 15  1  0  0  0  0
 19  4  1  0  0  0  0
 20 25  1  0  0  0  0
 21 12  1  0  0  0  0
 21  3  1  0  0  0  0
 21 23  1  0  0  0  0
 23  6  1  0  0  0  0
 23 10  1  0  0  0  0
 24 22  2  0  0  0  0
 25 14  1  0  0  0  0
 25 11  1  0  0  0  0
 27 26  1  0  0  0  0
 28 27  1  0  0  0  0
 29 28  2  0  0  0  0
 30 28  1  0  0  0  0
 32 33  1  0  0  0  0
 32 31  1  0  0  0  0
 34 35  2  0  0  0  0
 35 36  2  0  0  0  0
 36 32  1  0  0  0  0
 38 48  2  0  0  0  0
 40 41  1  0  0  0  0
 41 38  1  0  0  0  0
 41 49  2  0  0  0  0
 42 46  1  0  0  0  0
 42 47  1  0  0  0  0
 43 50  1  0  0  0  0
 43 44  1  0  0  0  0
 44 34  1  0  0  0  0
 45 39  2  0  0  0  0
 46 51  1  0  0  0  0
 47 44  1  0  0  0  0
 47 37  1  0  0  0  0
 48 45  1  0  0  0  0
 49 50  1  0  0  0  0
 49 45  1  0  0  0  0
 51 40  2  0  0  0  0
 51 43  1  0  0  0  0
 52 53  1  0  0  0  0
 52 43  1  0  0  0  0
 55 38  1  0  0  0  0
 55 54  1  0  0  0  0
M  END
>  <MODEL>
7

>  <REMARK>
 VINA RESULT:      -7.1      2.872      7.872
  Name = 
  9 active torsions:
  status: ('A' for Active; 'I' for Inactive)
    1  A    between atoms: O_1  and  C_27
    2  A    between atoms: C_2  and  C_6
    3  A    between atoms: C_2  and  C_34
    4  A    between atoms: C_2  and  C_40
    5  A    between atoms: C_4  and  C_6
    6  A    between atoms: C_4  and  C_52
    7  A    between atoms: O_10  and  C_11
    8  A    between atoms: C_23  and  C_40
    9  A    between atoms: C_30  and  C_42
                            x       y       z     vdW  Elec       q    Type
                         _______ _______ _______ _____ _____    ______ ____

>  <TORSDO>
F 9

$$$$
=
 OpenBabel11062421313D

 55 62  0  0  1  0  0  0  0  0999 V2000
  191.6540  171.7210  142.7890 C   0  0  2  0  0  3  0  0  0  0  0  0
  190.5930  174.3000  145.3530 C   0  0  0  0  0  0  0  0  0  0  0  0
  189.2560  175.2300  142.1910 C   0  0  2  0  0  3  0  0  0  0  0  0
  188.9910  175.5770  146.6640 C   0  0  0  0  0  3  0  0  0  0  0  0
  190.6830  175.3400  142.5690 C   0  0  0  0  0  0  0  0  0  0  0  0
  187.8110  178.2710  143.0020 N   0  0  0  0  0  2  0  0  0  0  0  0
  189.9610  176.5470  146.9180 C   0  0  0  0  0  3  0  0  0  0  0  0
  191.2560  176.3870  146.4200 C   0  0  0  0  0  3  0  0  0  0  0  0
  191.1480  176.5740  142.9290 C   0  0  0  0  0  0  0  0  0  0  0  0
  190.1780  177.7040  143.0620 C   0  0  0  0  0  2  0  0  0  0  0  0
  193.9710  175.5680  146.2030 N   0  0  0  0  0  1  0  0  0  0  0  0
  187.2050  176.2490  142.1350 C   0  0  1  0  0  3  0  0  0  0  0  0
  192.5710  176.8550  143.3580 C   0  0  0  0  0  2  0  0  0  0  0  0
  191.5960  175.2570  145.6560 C   0  0  0  0  0  0  0  0  0  0  0  0
  191.3010  173.0680  143.3490 C   0  0  0  0  0  0  0  0  0  0  0  0
  186.7920  177.4890  142.8000 C   0  0  0  0  0  2  0  0  0  0  0  0
  190.8610  173.1240  144.5770 N   0  0  0  0  0  0  0  0  0  0  0  0
  191.5100  174.2120  142.5590 O   0  0  0  0  0  0  0  0  0  0  0  0
  189.3100  174.4600  145.8890 C   0  0  0  0  0  3  0  0  0  0  0  0
  193.3810  175.6400  143.8230 C   0  0  0  0  0  2  0  0  0  0  0  0
  188.5850  176.4380  141.6770 C   0  0  1  0  0  3  0  0  0  0  0  0
  188.3790  174.4040  142.7470 C   0  0  0  0  0  3  0  0  0  0  0  0
  188.9670  177.6170  142.4870 C   0  0  1  0  0  3  0  0  0  0  0  0
  187.0640  175.0630  142.7190 C   0  0  0  0  0  3  0  0  0  0  0  0
  193.0280  175.0780  145.2080 C   0  0  1  0  0  3  0  0  0  0  0  0
  190.6720  169.7290  141.8720 O   0  0  0  0  0  1  0  0  0  0  0  0
  190.5290  171.1190  141.9340 C   0  0  2  0  0  3  0  0  0  0  0  0
  190.4120  171.7230  140.5530 C   0  0  0  0  0  0  0  0  0  0  0  0
  189.3310  172.1290  140.1500 O   0  0  0  0  0  0  0  0  0  0  0  0
  191.5950  171.7720  139.6350 C   0  0  0  0  0  1  0  0  0  0  0  0
  192.1210  170.7510  143.8710 C   0  0  0  0  0  2  0  0  0  0  0  0
  193.6360  170.7150  143.9380 C   0  0  2  0  0  3  0  0  0  0  0  0
  194.0860  171.7200  144.8030 O   0  0  0  0  0  1  0  0  0  0  0  0
  195.0730  173.1570  141.6510 C   0  0  0  0  0  3  0  0  0  0  0  0
  194.6470  172.0140  142.1040 C   0  0  0  0  0  0  0  0  0  0  0  0
  194.2210  170.8680  142.5620 C   0  0  0  0  0  3  0  0  0  0  0  0
  197.2740  174.0070  143.1320 O   0  0  0  0  0  1  0  0  0  0  0  0
  193.2210  174.8380  136.7130 C   0  0  0  0  0  0  0  0  0  0  0  0
  193.5550  171.4830  136.6620 O   0  0  0  0  0  0  0  0  0  0  0  0
  194.8440  175.6050  138.6790 C   0  0  0  0  0  3  0  0  0  0  0  0
  194.2420  174.6570  137.7450 C   0  0  0  0  0  0  0  0  0  0  0  0
  197.3680  175.6510  141.3560 C   0  0  0  0  0  2  0  0  0  0  0  0
  196.2670  173.7050  139.5030 C   0  0  1  0  0  0  0  0  0  0  0  0
  196.4090  173.2500  140.9740 C   0  0  1  0  0  3  0  0  0  0  0  0
  193.6210  172.7210  136.8800 C   0  0  0  0  0  0  0  0  0  0  0  0
  196.2650  176.0080  140.5210 O   0  0  0  0  0  0  0  0  0  0  0  0
  197.3910  174.1600  141.7470 C   0  0  2  0  0  3  0  0  0  0  0  0
  192.8530  173.7050  136.1880 N   0  0  0  0  0  0  0  0  0  0  0  0
  194.4690  173.3740  137.8490 C   0  0  0  0  0  0  0  0  0  0  0  0
  195.3460  172.8410  138.7950 O   0  0  0  0  0  0  0  0  0  0  0  0
  195.7680  175.1520  139.5410 C   0  0  0  0  0  0  0  0  0  0  0  0
  197.5240  173.7070  138.8480 O   0  0  0  0  0  0  0  0  0  0  0  0
  197.8430  172.3990  138.4450 C   0  0  0  0  0  1  0  0  0  0  0  0
  193.4400  176.9760  135.5180 C   0  0  0  0  0  1  0  0  0  0  0  0
  192.7030  176.0750  136.3310 O   0  0  0  0  0  0  0  0  0  0  0  0
  1 15  1  0  0  0  0
  1 31  1  1  0  0  0
  2 14  2  0  0  0  0
  2 19  1  0  0  0  0
  3  5  1  0  0  0  0
  3 22  1  1  0  0  0
  4  7  1  0  0  0  0
  5  9  2  0  0  0  0
  8  7  2  0  0  0  0
  9 10  1  0  0  0  0
  9 13  1  0  0  0  0
 12 24  1  1  0  0  0
 12 16  1  0  0  0  0
 13 20  1  0  0  0  0
 14  8  1  0  0  0  0
 15 17  2  0  0  0  0
 16  6  1  0  0  0  0
 17  2  1  0  0  0  0
 18  5  1  0  0  0  0
 18 15  1  0  0  0  0
 19  4  2  0  0  0  0
 20 25  1  0  0  0  0
 21 12  1  0  0  0  0
 21  3  1  0  0  0  0
 21 23  1  0  0  0  0
 23  6  1  0  0  0  0
 23 10  1  0  0  0  0
 24 22  2  0  0  0  0
 25 14  1  0  0  0  0
 25 11  1  0  0  0  0
 26 27  1  0  0  0  0
 27  1  1  0  0  0  0
 28 27  1  0  0  0  0
 29 28  2  0  0  0  0
 30 28  1  0  0  0  0
 31 32  1  0  0  0  0
 32 33  1  0  0  0  0
 34 35  2  0  0  0  0
 35 36  2  0  0  0  0
 36 32  1  0  0  0  0
 38 41  1  0  0  0  0
 39 45  2  0  0  0  0
 40 51  2  0  0  0  0
 41 49  2  0  0  0  0
 41 40  1  0  0  0  0
 42 47  1  0  0  0  0
 43 51  1  0  0  0  0
 43 44  1  0  0  0  0
 44 34  1  0  0  0  0
 44 47  1  0  0  0  0
 45 49  1  0  0  0  0
 46 42  1  0  0  0  0
 47 37  1  0  0  0  0
 48 38  2  0  0  0  0
 48 45  1  0  0  0  0
 49 50  1  0  0  0  0
 50 43  1  0  0  0  0
 51 46  1  0  0  0  0
 52 43  1  0  0  0  0
 53 52  1  0  0  0  0
 54 55  1  0  0  0  0
 55 38  1  0  0  0  0
M  END
>  <MODEL>
8

>  <REMARK>
 VINA RESULT:      -7.1      2.843      7.766
  Name = 
  9 active torsions:
  status: ('A' for Active; 'I' for Inactive)
    1  A    between atoms: O_1  and  C_27
    2  A    between atoms: C_2  and  C_6
    3  A    between atoms: C_2  and  C_34
    4  A    between atoms: C_2  and  C_40
    5  A    between atoms: C_4  and  C_6
    6  A    between atoms: C_4  and  C_52
    7  A    between atoms: O_10  and  C_11
    8  A    between atoms: C_23  and  C_40
    9  A    between atoms: C_30  and  C_42
                            x       y       z     vdW  Elec       q    Type
                         _______ _______ _______ _____ _____    ______ ____

>  <TORSDO>
F 9

$$$$
=
 OpenBabel11062421313D

 55 62  0  0  1  0  0  0  0  0999 V2000
  191.7930  171.9780  143.9430 C   0  0  2  0  0  3  0  0  0  0  0  0
  190.2930  174.8920  145.8430 C   0  0  0  0  0  0  0  0  0  0  0  0
  189.3470  175.1620  142.4250 C   0  0  2  0  0  3  0  0  0  0  0  0
  188.4790  176.2710  146.6930 C   0  0  0  0  0  3  0  0  0  0  0  0
  190.7050  175.4300  142.9490 C   0  0  0  0  0  0  0  0  0  0  0  0
  187.6780  178.1960  142.4840 N   0  0  0  0  0  2  0  0  0  0  0  0
  189.3640  177.3320  146.8820 C   0  0  0  0  0  3  0  0  0  0  0  0
  190.7190  177.1730  146.5840 C   0  0  0  0  0  3  0  0  0  0  0  0
  191.0650  176.7360  143.1310 C   0  0  0  0  0  0  0  0  0  0  0  0
  190.0380  177.8060  142.9360 C   0  0  0  0  0  2  0  0  0  0  0  0
  193.4710  176.5100  146.8540 N   0  0  0  0  0  1  0  0  0  0  0  0
  187.2790  176.0170  141.9340 C   0  0  1  0  0  3  0  0  0  0  0  0
  192.4060  177.1810  143.6720 C   0  0  0  0  0  2  0  0  0  0  0  0
  191.2050  175.9510  146.0870 C   0  0  0  0  0  0  0  0  0  0  0  0
  191.3120  173.3760  144.2000 C   0  0  0  0  0  0  0  0  0  0  0  0
  186.7290  177.3250  142.3060 C   0  0  0  0  0  2  0  0  0  0  0  0
  190.7110  173.6180  145.3340 N   0  0  0  0  0  0  0  0  0  0  0  0
  191.5730  174.3750  143.2460 O   0  0  0  0  0  0  0  0  0  0  0  0
  188.9440  175.0580  146.1800 C   0  0  0  0  0  3  0  0  0  0  0  0
  193.1990  176.1230  144.4470 C   0  0  0  0  0  2  0  0  0  0  0  0
  188.6990  176.2130  141.6210 C   0  0  1  0  0  3  0  0  0  0  0  0
  188.4400  174.3900  143.0110 C   0  0  0  0  0  3  0  0  0  0  0  0
  188.9200  177.5390  142.2420 C   0  0  1  0  0  3  0  0  0  0  0  0
  187.1130  174.9460  142.7020 C   0  0  0  0  0  3  0  0  0  0  0  0
  192.6900  175.7910  145.8570 C   0  0  1  0  0  3  0  0  0  0  0  0
  194.0360  172.6630  144.4680 O   0  0  0  0  0  1  0  0  0  0  0  0
  193.0960  171.6510  144.6890 C   0  0  2  0  0  3  0  0  0  0  0  0
  193.6660  170.2890  144.3660 C   0  0  0  0  0  0  0  0  0  0  0  0
  193.0110  169.2800  144.5900 O   0  0  0  0  0  0  0  0  0  0  0  0
  195.0590  170.1480  143.8350 C   0  0  0  0  0  1  0  0  0  0  0  0
  191.9030  171.6700  142.4520 C   0  0  0  0  0  2  0  0  0  0  0  0
  190.5680  171.2040  141.9030 C   0  0  2  0  0  3  0  0  0  0  0  0
  190.4430  169.8240  142.0980 O   0  0  0  0  0  1  0  0  0  0  0  0
  191.3420  173.8260  139.4980 C   0  0  0  0  0  3  0  0  0  0  0  0
  190.8940  172.7010  139.9730 C   0  0  0  0  0  0  0  0  0  0  0  0
  190.4470  171.5710  140.4510 C   0  0  0  0  0  3  0  0  0  0  0  0
  190.4360  172.4140  137.2740 O   0  0  0  0  0  1  0  0  0  0  0  0
  196.3050  173.8360  141.9510 C   0  0  0  0  0  0  0  0  0  0  0  0
  195.4230  177.0190  141.2730 O   0  0  0  0  0  0  0  0  0  0  0  0
  194.8460  172.4000  140.2470 C   0  0  0  0  0  3  0  0  0  0  0  0
  195.3900  173.6250  140.8270 C   0  0  0  0  0  0  0  0  0  0  0  0
  192.6100  171.3720  137.5120 C   0  0  0  0  0  2  0  0  0  0  0  0
  193.6800  173.8580  138.5650 C   0  0  1  0  0  0  0  0  0  0  0  0
  192.1680  173.8420  138.2440 C   0  0  1  0  0  3  0  0  0  0  0  0
  195.5810  175.7720  141.3180 C   0  0  0  0  0  0  0  0  0  0  0  0
  193.3780  171.3630  138.7160 O   0  0  0  0  0  0  0  0  0  0  0  0
  191.8100  172.6730  137.2980 C   0  0  2  0  0  3  0  0  0  0  0  0
  196.4320  175.0980  142.2430 N   0  0  0  0  0  0  0  0  0  0  0  0
  194.9470  174.7990  140.4590 C   0  0  0  0  0  0  0  0  0  0  0  0
  193.9970  174.9590  139.4500 O   0  0  0  0  0  0  0  0  0  0  0  0
  194.0050  172.5060  139.2070 C   0  0  0  0  0  0  0  0  0  0  0  0
  194.4500  173.9580  137.3790 O   0  0  0  0  0  0  0  0  0  0  0  0
  194.3410  175.2600  136.8610 C   0  0  0  0  0  1  0  0  0  0  0  0
  197.5240  173.0050  143.9180 C   0  0  0  0  0  1  0  0  0  0  0  0
  196.9640  172.8100  142.6270 O   0  0  0  0  0  0  0  0  0  0  0  0
  1 31  1  6  0  0  0
  1 15  1  0  0  0  0
  1 27  1  0  0  0  0
  2 14  2  0  0  0  0
  2 19  1  0  0  0  0
  3  5  1  0  0  0  0
  3 22  1  1  0  0  0
  4  7  1  0  0  0  0
  5  9  2  0  0  0  0
  5 18  1  0  0  0  0
  8  7  2  0  0  0  0
  9 13  1  0  0  0  0
 10  9  1  0  0  0  0
 12 16  1  1  0  0  0
 12 24  1  0  0  0  0
 13 20  1  0  0  0  0
 14  8  1  0  0  0  0
 15 17  2  0  0  0  0
 16  6  1  0  0  0  0
 17  2  1  0  0  0  0
 18 15  1  0  0  0  0
 19  4  2  0  0  0  0
 20 25  1  0  0  0  0
 21 12  1  0  0  0  0
 21 23  1  0  0  0  0
 21  3  1  0  0  0  0
 23  6  1  0  0  0  0
 23 10  1  0  0  0  0
 24 22  2  0  0  0  0
 25 14  1  0  0  0  0
 25 11  1  0  0  0  0
 26 27  1  0  0  0  0
 28 29  2  0  0  0  0
 28 27  1  0  0  0  0
 30 28  1  0  0  0  0
 32 33  1  0  0  0  0
 32 31  1  0  0  0  0
 34 35  2  0  0  0  0
 35 36  2  0  0  0  0
 36 32  1  0  0  0  0
 37 47  1  0  0  0  0
 38 48  2  0  0  0  0
 38 55  1  0  0  0  0
 39 45  2  0  0  0  0
 40 41  1  0  0  0  0
 41 38  1  0  0  0  0
 42 46  1  0  0  0  0
 43 51  1  0  0  0  0
 43 50  1  0  0  0  0
 44 43  1  0  0  0  0
 44 34  1  0  0  0  0
 45 48  1  0  0  0  0
 46 51  1  0  0  0  0
 47 42  1  0  0  0  0
 47 44  1  0  0  0  0
 49 41  2  0  0  0  0
 49 45  1  0  0  0  0
 50 49  1  0  0  0  0
 51 40  2  0  0  0  0
 52 43  1  0  0  0  0
 53 52  1  0  0  0  0
 55 54  1  0  0  0  0
M  END
>  <MODEL>
9

>  <REMARK>
 VINA RESULT:      -7.1      2.439      6.963
  Name = 
  9 active torsions:
  status: ('A' for Active; 'I' for Inactive)
    1  A    between atoms: O_1  and  C_27
    2  A    between atoms: C_2  and  C_6
    3  A    between atoms: C_2  and  C_34
    4  A    between atoms: C_2  and  C_40
    5  A    between atoms: C_4  and  C_6
    6  A    between atoms: C_4  and  C_52
    7  A    between atoms: O_10  and  C_11
    8  A    between atoms: C_23  and  C_40
    9  A    between atoms: C_30  and  C_42
                            x       y       z     vdW  Elec       q    Type
                         _______ _______ _______ _____ _____    ______ ____

>  <TORSDO>
F 9

$$$$
