=
 OpenBabel11062421183D

 51 56  0  0  1  0  0  0  0  0999 V2000
  186.7550  176.0920  147.0230 O   0  0  0  0  0  0  0  0  0  0  0  0
  187.8290  176.2940  146.3930 C   0  0  0  0  0  0  0  0  0  0  0  0
  187.8000  176.7960  145.0570 N   0  0  0  0  0  2  0  0  0  0  0  0
  191.4040  176.0930  146.4610 C   0  0  1  0  0  0  0  0  0  0  0  0
  191.1470  177.2110  147.3620 N   0  0  0  0  0  2  0  0  0  0  0  0
  192.3670  176.5900  145.0060 S   0  0  0  0  0  0  0  0  0  0  0  0
  192.4320  175.1380  147.0180 C   0  0  0  0  0  2  0  0  0  0  0  0
  189.1480  176.0850  147.0590 C   0  0  2  0  0  3  0  0  0  0  0  0
  189.7470  177.3540  147.4630 N   0  0  0  0  0  2  0  0  0  0  0  0
  193.4100  175.3720  145.8820 C   0  0  1  0  0  3  0  0  0  0  0  0
  190.1080  175.4270  146.1120 C   0  0  0  0  0  2  0  0  0  0  0  0
  193.5280  174.1060  145.0480 C   0  0  0  0  0  2  0  0  0  0  0  0
  194.8770  173.4870  145.2160 C   0  0  0  0  0  0  0  0  0  0  0  0
  194.9890  172.2700  145.2500 O   0  0  0  0  0  0  0  0  0  0  0  0
  197.0850  173.6720  146.0080 O   0  0  0  0  0  1  0  0  0  0  0  0
  196.0880  174.3660  145.3200 C   0  0  1  0  0  3  0  0  0  0  0  0
  195.0690  173.5230  139.0720 O   0  0  0  0  0  0  0  0  0  0  0  0
  195.2510  176.2640  142.2610 N   0  0  0  0  0  0  0  0  0  0  0  0
  194.7130  175.6200  140.0670 N   0  0  0  0  0  2  0  0  0  0  0  0
  197.3510  172.7640  142.9980 O   0  0  0  0  0  1  0  0  0  0  0  0
  196.3890  174.2850  141.4580 C   0  0  0  0  0  2  0  0  0  0  0  0
  195.9510  177.1460  144.2870 O   0  0  0  0  0  0  0  0  0  0  0  0
  194.0340  175.1480  137.6850 C   0  0  0  0  0  1  0  0  0  0  0  0
  195.3930  175.3970  141.3080 C   0  0  0  0  0  0  0  0  0  0  0  0
  196.3690  173.7480  142.8830 C   0  0  2  0  0  3  0  0  0  0  0  0
  195.9080  176.1420  143.5280 C   0  0  0  0  0  0  0  0  0  0  0  0
  196.5890  174.8510  143.9400 C   0  0  1  0  0  3  0  0  0  0  0  0
  194.6500  174.7050  138.9650 C   0  0  0  0  0  0  0  0  0  0  0  0
  186.5660  177.1950  144.3820 C   0  0  2  0  0  3  0  0  0  0  0  0
  186.7810  178.0790  142.0430 C   0  0  0  0  0  2  0  0  0  0  0  0
  188.0390  176.4030  142.5170 C   0  0  2  0  0  3  0  0  0  0  0  0
  186.6250  176.8310  142.8980 C   0  0  1  0  0  3  0  0  0  0  0  0
  188.1860  177.6550  141.6660 C   0  0  0  0  0  2  0  0  0  0  0  0
  188.0150  175.3000  140.3290 C   0  0  0  0  0  2  0  0  0  0  0  0
  188.0760  175.1650  141.6530 C   0  0  0  0  0  0  0  0  0  0  0  0
  188.2360  173.7820  142.2490 C   0  0  0  0  0  2  0  0  0  0  0  0
  191.0410  171.7790  142.8760 C   0  0  0  0  0  2  0  0  0  0  0  0
  189.5250  172.0090  144.8030 C   0  0  0  0  0  1  0  0  0  0  0  0
  189.5150  173.5820  142.9470 N   0  0  0  0  0  0  0  0  0  0  0  0
  189.6630  172.1740  143.3000 C   0  0  1  0  0  3  0  0  0  0  0  0
  190.5360  173.9490  142.1130 O   0  0  0  0  0  0  0  0  0  0  0  0
  191.6050  173.0830  142.3900 C   0  0  2  0  0  3  0  0  0  0  0  0
  192.4730  172.8900  141.1490 C   0  0  0  0  0  2  0  0  0  0  0  0
  191.7950  171.9970  140.1210 C   0  0  0  0  0  2  0  0  0  0  0  0
  190.8780  172.8240  139.2460 C   0  0  0  0  0  3  0  0  0  0  0  0
  190.6050  172.0600  137.9660 C   0  0  0  0  0  2  0  0  0  0  0  0
  189.5660  172.0840  139.0680 C   0  0  0  0  0  2  0  0  0  0  0  0
  186.2980  178.6940  144.5680 C   0  0  0  0  0  2  0  0  0  0  0  0
  183.9430  178.9210  145.4820 N   0  0  0  0  0  1  0  0  0  0  0  0
  185.3490  178.9850  145.6890 C   0  0  0  0  0  0  0  0  0  0  0  0
  185.7990  179.3270  146.8130 O   0  0  0  0  0  0  0  0  0  0  0  0
  2  1  2  0  0  0  0
  3  2  1  0  0  0  0
  4 11  1  6  0  0  0
  4  7  1  0  0  0  0
  4  5  1  0  0  0  0
  5  9  1  0  0  0  0
  6 10  1  0  0  0  0
  6  4  1  0  0  0  0
  8  2  1  6  0  0  0
  8  9  1  0  0  0  0
 10 12  1  6  0  0  0
 10  7  1  0  0  0  0
 11  8  1  0  0  0  0
 12 13  1  0  0  0  0
 13 14  2  0  0  0  0
 13 16  1  0  0  0  0
 16 15  1  6  0  0  0
 18 26  1  0  0  0  0
 19 24  1  0  0  0  0
 21 25  1  0  0  0  0
 23 28  1  0  0  0  0
 24 21  1  0  0  0  0
 24 18  2  0  0  0  0
 25 20  1  6  0  0  0
 25 27  1  0  0  0  0
 26 27  1  0  0  0  0
 26 22  2  0  0  0  0
 27 16  1  1  0  0  0
 28 17  2  0  0  0  0
 28 19  1  0  0  0  0
 29 48  1  6  0  0  0
 29  3  1  0  0  0  0
 30 32  1  0  0  0  0
 31 35  1  6  0  0  0
 31 32  1  0  0  0  0
 32 29  1  1  0  0  0
 33 30  1  0  0  0  0
 33 31  1  0  0  0  0
 34 35  2  0  0  0  0
 35 36  1  0  0  0  0
 36 39  1  0  0  0  0
 37 40  1  0  0  0  0
 39 40  1  0  0  0  0
 40 38  1  1  0  0  0
 41 42  1  0  0  0  0
 41 39  1  0  0  0  0
 42 43  1  6  0  0  0
 42 37  1  0  0  0  0
 44 43  1  0  0  0  0
 45 44  1  0  0  0  0
 46 47  1  0  0  0  0
 46 45  1  0  0  0  0
 47 45  1  0  0  0  0
 48 50  1  0  0  0  0
 49 50  1  0  0  0  0
 50 51  2  0  0  0  0
M  END
>  <MODEL>
1

>  <REMARK>
 VINA RESULT:      -7.0      0.000      0.000
  Name = 
  15 active torsions:
  status: ('A' for Active; 'I' for Inactive)
    1  A    between atoms: C_4  and  C_37
    2  A    between atoms: C_4  and  C_42
    3  A    between atoms: C_4  and  N_44
    4  A    between atoms: C_7  and  N_20
    5  A    between atoms: C_7  and  C_26
    6  A    between atoms: C_12  and  C_25
    7  A    between atoms: C_12  and  C_46
    8  A    between atoms: C_18  and  C_38
    9  A    between atoms: C_22  and  C_46
   10  A    between atoms: C_23  and  C_26
   11  A    between atoms: C_25  and  C_48
   12  A    between atoms: C_27  and  C_42
   13  A    between atoms: C_31  and  C_51
   14  A    between atoms: C_41  and  C_47
   15  A    between atoms: C_47  and  C_51
                            x       y       z     vdW  Elec       q    Type
                         _______ _______ _______ _____ _____    ______ ____

>  <TORSDO>
F 15

$$$$
=
 OpenBabel11062421183D

 51 56  0  0  1  0  0  0  0  0999 V2000
  192.8700  173.1000  144.8500 O   0  0  0  0  0  0  0  0  0  0  0  0
  192.8420  173.6680  143.7250 C   0  0  0  0  0  0  0  0  0  0  0  0
  192.6300  175.0760  143.6300 N   0  0  0  0  0  2  0  0  0  0  0  0
  193.5920  173.3330  140.2380 C   0  0  1  0  0  0  0  0  0  0  0  0
  194.7490  172.6970  140.8590 N   0  0  0  0  0  2  0  0  0  0  0  0
  194.0490  174.7940  139.2650 S   0  0  0  0  0  0  0  0  0  0  0  0
  193.0530  172.5290  139.0790 C   0  0  0  0  0  2  0  0  0  0  0  0
  193.1070  172.8910  142.4780 C   0  0  2  0  0  3  0  0  0  0  0  0
  194.5390  172.7170  142.2530 N   0  0  0  0  0  2  0  0  0  0  0  0
  193.3230  173.6230  138.0650 C   0  0  1  0  0  3  0  0  0  0  0  0
  192.5610  173.6200  141.2870 C   0  0  0  0  0  2  0  0  0  0  0  0
  192.0020  174.1730  137.5500 C   0  0  0  0  0  2  0  0  0  0  0  0
  191.5300  173.3920  136.3680 C   0  0  0  0  0  0  0  0  0  0  0  0
  192.3160  172.6860  135.7520 O   0  0  0  0  0  0  0  0  0  0  0  0
  189.9370  172.7950  134.7430 O   0  0  0  0  0  1  0  0  0  0  0  0
  190.0890  173.4640  135.9590 C   0  0  1  0  0  3  0  0  0  0  0  0
  190.1420  171.0060  141.8540 O   0  0  0  0  0  0  0  0  0  0  0  0
  188.6070  173.9830  139.3050 N   0  0  0  0  0  0  0  0  0  0  0  0
  189.0000  173.0080  141.4060 N   0  0  0  0  0  2  0  0  0  0  0  0
  190.0240  170.6620  137.2640 O   0  0  0  0  0  1  0  0  0  0  0  0
  189.2010  171.6380  139.2590 C   0  0  0  0  0  2  0  0  0  0  0  0
  187.9010  174.9420  137.3170 O   0  0  0  0  0  0  0  0  0  0  0  0
  189.3180  172.1580  143.7580 C   0  0  0  0  0  1  0  0  0  0  0  0
  188.9760  172.9370  139.9750 C   0  0  0  0  0  0  0  0  0  0  0  0
  189.8930  171.8840  137.9260 C   0  0  2  0  0  3  0  0  0  0  0  0
  188.5280  174.0030  137.8750 C   0  0  0  0  0  0  0  0  0  0  0  0
  189.1380  172.8950  137.0380 C   0  0  1  0  0  3  0  0  0  0  0  0
  189.5070  172.0000  142.2910 C   0  0  0  0  0  0  0  0  0  0  0  0
  192.5340  175.9480  144.7990 C   0  0  2  0  0  3  0  0  0  0  0  0
  191.4180  178.0160  143.9190 C   0  0  0  0  0  2  0  0  0  0  0  0
  190.2990  176.1960  143.6980 C   0  0  2  0  0  3  0  0  0  0  0  0
  191.2390  176.7610  144.7580 C   0  0  1  0  0  3  0  0  0  0  0  0
  190.4850  177.4550  142.8650 C   0  0  0  0  0  2  0  0  0  0  0  0
  188.6210  176.0770  145.4800 C   0  0  0  0  0  2  0  0  0  0  0  0
  188.8690  176.0780  144.1710 C   0  0  0  0  0  0  0  0  0  0  0  0
  187.7100  176.0180  143.1980 C   0  0  0  0  0  2  0  0  0  0  0  0
  185.3690  178.2820  141.9060 C   0  0  0  0  0  2  0  0  0  0  0  0
  186.7770  177.2110  140.1930 C   0  0  0  0  0  1  0  0  0  0  0  0
  187.4250  177.2990  142.5370 N   0  0  0  0  0  0  0  0  0  0  0  0
  186.2930  177.1390  141.6300 C   0  0  1  0  0  3  0  0  0  0  0  0
  187.1110  178.2300  143.4900 O   0  0  0  0  0  0  0  0  0  0  0  0
  186.1450  179.0730  142.9200 C   0  0  2  0  0  3  0  0  0  0  0  0
  185.2320  179.6470  144.0000 C   0  0  0  0  0  2  0  0  0  0  0  0
  185.6940  179.2560  145.3950 C   0  0  0  0  0  2  0  0  0  0  0  0
  184.6050  178.4740  146.0980 C   0  0  0  0  0  3  0  0  0  0  0  0
  185.0840  177.0520  146.3090 C   0  0  0  0  0  2  0  0  0  0  0  0
  185.1100  178.0370  147.4590 C   0  0  0  0  0  2  0  0  0  0  0  0
  193.7570  176.8700  144.8990 C   0  0  0  0  0  2  0  0  0  0  0  0
  195.4270  175.2300  145.8730 N   0  0  0  0  0  1  0  0  0  0  0  0
  195.0570  176.1300  144.8360 C   0  0  0  0  0  0  0  0  0  0  0  0
  195.8440  176.3350  143.8760 O   0  0  0  0  0  0  0  0  0  0  0  0
  2  1  2  0  0  0  0
  3  2  1  0  0  0  0
  3 29  1  0  0  0  0
  4  7  1  6  0  0  0
  4  5  1  0  0  0  0
  4 11  1  0  0  0  0
  5  9  1  0  0  0  0
  6  4  1  0  0  0  0
  8  2  1  1  0  0  0
  9  8  1  0  0  0  0
 10 12  1  1  0  0  0
 10  7  1  0  0  0  0
 10  6  1  0  0  0  0
 11  8  1  0  0  0  0
 13 12  1  0  0  0  0
 14 13  2  0  0  0  0
 16 15  1  6  0  0  0
 16 13  1  0  0  0  0
 17 28  2  0  0  0  0
 18 24  2  0  0  0  0
 19 28  1  0  0  0  0
 21 24  1  0  0  0  0
 22 26  2  0  0  0  0
 24 19  1  0  0  0  0
 25 20  1  6  0  0  0
 25 21  1  0  0  0  0
 26 18  1  0  0  0  0
 27 16  1  6  0  0  0
 27 26  1  0  0  0  0
 27 25  1  0  0  0  0
 28 23  1  0  0  0  0
 29 48  1  6  0  0  0
 30 32  1  0  0  0  0
 31 35  1  1  0  0  0
 31 32  1  0  0  0  0
 32 29  1  6  0  0  0
 33 31  1  0  0  0  0
 33 30  1  0  0  0  0
 35 34  2  0  0  0  0
 36 35  1  0  0  0  0
 37 42  1  0  0  0  0
 39 36  1  0  0  0  0
 39 41  1  0  0  0  0
 40 38  1  6  0  0  0
 40 37  1  0  0  0  0
 40 39  1  0  0  0  0
 42 41  1  0  0  0  0
 42 43  1  1  0  0  0
 43 44  1  0  0  0  0
 44 45  1  0  0  0  0
 45 46  1  0  0  0  0
 45 47  1  0  0  0  0
 46 47  1  0  0  0  0
 50 48  1  0  0  0  0
 50 49  1  0  0  0  0
 51 50  2  0  0  0  0
M  END
>  <MODEL>
2

>  <REMARK>
 VINA RESULT:      -7.0      2.712      8.173
  Name = 
  15 active torsions:
  status: ('A' for Active; 'I' for Inactive)
    1  A    between atoms: C_4  and  C_37
    2  A    between atoms: C_4  and  C_42
    3  A    between atoms: C_4  and  N_44
    4  A    between atoms: C_7  and  N_20
    5  A    between atoms: C_7  and  C_26
    6  A    between atoms: C_12  and  C_25
    7  A    between atoms: C_12  and  C_46
    8  A    between atoms: C_18  and  C_38
    9  A    between atoms: C_22  and  C_46
   10  A    between atoms: C_23  and  C_26
   11  A    between atoms: C_25  and  C_48
   12  A    between atoms: C_27  and  C_42
   13  A    between atoms: C_31  and  C_51
   14  A    between atoms: C_41  and  C_47
   15  A    between atoms: C_47  and  C_51
                            x       y       z     vdW  Elec       q    Type
                         _______ _______ _______ _____ _____    ______ ____

>  <TORSDO>
F 15

$$$$
=
 OpenBabel11062421183D

 51 56  0  0  1  0  0  0  0  0999 V2000
  193.0440  172.5920  144.7030 O   0  0  0  0  0  0  0  0  0  0  0  0
  193.0490  173.2610  143.6330 C   0  0  0  0  0  0  0  0  0  0  0  0
  192.8980  174.6800  143.6670 N   0  0  0  0  0  2  0  0  0  0  0  0
  193.6640  173.2160  140.1050 C   0  0  1  0  0  0  0  0  0  0  0  0
  194.8680  172.5830  140.6300 N   0  0  0  0  0  2  0  0  0  0  0  0
  194.0260  174.7630  139.2290 S   0  0  0  0  0  0  0  0  0  0  0  0
  193.1070  172.4800  138.9100 C   0  0  0  0  0  2  0  0  0  0  0  0
  193.2900  172.5900  142.3220 C   0  0  2  0  0  3  0  0  0  0  0  0
  194.7170  172.4900  142.0290 N   0  0  0  0  0  2  0  0  0  0  0  0
  193.2940  173.6570  137.9720 C   0  0  1  0  0  3  0  0  0  0  0  0
  192.6680  173.3830  141.2120 C   0  0  0  0  0  2  0  0  0  0  0  0
  191.9330  174.1900  137.5530 C   0  0  0  0  0  2  0  0  0  0  0  0
  191.4320  173.4670  136.3460 C   0  0  0  0  0  0  0  0  0  0  0  0
  192.2030  172.7970  135.6730 O   0  0  0  0  0  0  0  0  0  0  0  0
  189.7940  172.9330  134.7440 O   0  0  0  0  0  1  0  0  0  0  0  0
  189.9790  173.5500  135.9830 C   0  0  1  0  0  3  0  0  0  0  0  0
  190.2010  170.9050  141.7920 O   0  0  0  0  0  0  0  0  0  0  0  0
  188.5640  173.9370  139.3750 N   0  0  0  0  0  0  0  0  0  0  0  0
  189.0180  172.9010  141.4340 N   0  0  0  0  0  2  0  0  0  0  0  0
  189.9860  170.7070  137.1970 O   0  0  0  0  0  1  0  0  0  0  0  0
  189.1930  171.6040  139.2400 C   0  0  0  0  0  2  0  0  0  0  0  0
  187.7990  174.9480  137.4350 O   0  0  0  0  0  0  0  0  0  0  0  0
  189.4020  171.9810  143.7500 C   0  0  0  0  0  1  0  0  0  0  0  0
  188.9640  172.8760  140.0030 C   0  0  0  0  0  0  0  0  0  0  0  0
  189.8510  171.9040  137.9010 C   0  0  2  0  0  3  0  0  0  0  0  0
  188.4530  174.0020  137.9480 C   0  0  0  0  0  0  0  0  0  0  0  0
  189.0610  172.9310  137.0620 C   0  0  1  0  0  3  0  0  0  0  0  0
  189.5600  171.8740  142.2750 C   0  0  0  0  0  0  0  0  0  0  0  0
  192.8310  175.4450  144.9110 C   0  0  2  0  0  3  0  0  0  0  0  0
  191.0310  176.5940  143.5920 C   0  0  0  0  0  2  0  0  0  0  0  0
  190.3430  175.2800  145.1460 C   0  0  2  0  0  3  0  0  0  0  0  0
  191.5230  176.2340  144.9850 C   0  0  1  0  0  3  0  0  0  0  0  0
  189.8590  175.6460  143.7520 C   0  0  0  0  0  2  0  0  0  0  0  0
  189.0500  174.9120  147.1960 C   0  0  0  0  0  2  0  0  0  0  0  0
  189.3490  175.7330  146.1900 C   0  0  0  0  0  0  0  0  0  0  0  0
  188.7290  177.1150  146.1530 C   0  0  0  0  0  2  0  0  0  0  0  0
  185.7020  178.8710  145.9840 C   0  0  0  0  0  2  0  0  0  0  0  0
  185.8860  177.3790  147.9340 C   0  0  0  0  0  1  0  0  0  0  0  0
  187.2720  177.1040  145.9530 N   0  0  0  0  0  0  0  0  0  0  0  0
  186.6520  178.0900  146.8340 C   0  0  1  0  0  3  0  0  0  0  0  0
  187.0010  177.4280  144.6520 O   0  0  0  0  0  0  0  0  0  0  0  0
  185.8040  178.1600  144.6650 C   0  0  2  0  0  3  0  0  0  0  0  0
  185.7630  179.1410  143.4960 C   0  0  0  0  0  2  0  0  0  0  0  0
  186.6920  178.7140  142.3700 C   0  0  0  0  0  2  0  0  0  0  0  0
  186.0210  177.6520  141.5250 C   0  0  0  0  0  3  0  0  0  0  0  0
  186.7970  177.4960  140.2320 C   0  0  0  0  0  2  0  0  0  0  0  0
  186.9760  176.4860  141.3470 C   0  0  0  0  0  2  0  0  0  0  0  0
  194.0420  176.3780  145.0480 C   0  0  0  0  0  2  0  0  0  0  0  0
  196.2770  175.7110  144.0530 N   0  0  0  0  0  1  0  0  0  0  0  0
  195.3440  175.6410  145.1240 C   0  0  0  0  0  0  0  0  0  0  0  0
  195.5960  174.9250  146.1260 O   0  0  0  0  0  0  0  0  0  0  0  0
  2  3  1  0  0  0  0
  2  1  2  0  0  0  0
  3 29  1  0  0  0  0
  4  7  1  6  0  0  0
  4  5  1  0  0  0  0
  4 11  1  0  0  0  0
  5  9  1  0  0  0  0
  6  4  1  0  0  0  0
  8  2  1  1  0  0  0
  9  8  1  0  0  0  0
 10 12  1  1  0  0  0
 10  7  1  0  0  0  0
 10  6  1  0  0  0  0
 11  8  1  0  0  0  0
 13 12  1  0  0  0  0
 14 13  2  0  0  0  0
 16 15  1  6  0  0  0
 16 13  1  0  0  0  0
 17 28  2  0  0  0  0
 18 24  2  0  0  0  0
 19 28  1  0  0  0  0
 21 24  1  0  0  0  0
 22 26  2  0  0  0  0
 24 19  1  0  0  0  0
 25 20  1  6  0  0  0
 25 21  1  0  0  0  0
 26 18  1  0  0  0  0
 27 16  1  6  0  0  0
 27 25  1  0  0  0  0
 27 26  1  0  0  0  0
 28 23  1  0  0  0  0
 29 48  1  6  0  0  0
 30 33  1  0  0  0  0
 30 32  1  0  0  0  0
 31 35  1  1  0  0  0
 32 29  1  6  0  0  0
 32 31  1  0  0  0  0
 33 31  1  0  0  0  0
 35 34  2  0  0  0  0
 36 35  1  0  0  0  0
 37 40  1  0  0  0  0
 39 36  1  0  0  0  0
 39 40  1  0  0  0  0
 40 38  1  1  0  0  0
 41 42  1  0  0  0  0
 41 39  1  0  0  0  0
 42 43  1  6  0  0  0
 42 37  1  0  0  0  0
 44 43  1  0  0  0  0
 45 44  1  0  0  0  0
 46 47  1  0  0  0  0
 46 45  1  0  0  0  0
 47 45  1  0  0  0  0
 48 50  1  0  0  0  0
 49 50  1  0  0  0  0
 50 51  2  0  0  0  0
M  END
>  <MODEL>
3

>  <REMARK>
 VINA RESULT:      -6.8      2.606      8.045
  Name = 
  15 active torsions:
  status: ('A' for Active; 'I' for Inactive)
    1  A    between atoms: C_4  and  C_37
    2  A    between atoms: C_4  and  C_42
    3  A    between atoms: C_4  and  N_44
    4  A    between atoms: C_7  and  N_20
    5  A    between atoms: C_7  and  C_26
    6  A    between atoms: C_12  and  C_25
    7  A    between atoms: C_12  and  C_46
    8  A    between atoms: C_18  and  C_38
    9  A    between atoms: C_22  and  C_46
   10  A    between atoms: C_23  and  C_26
   11  A    between atoms: C_25  and  C_48
   12  A    between atoms: C_27  and  C_42
   13  A    between atoms: C_31  and  C_51
   14  A    between atoms: C_41  and  C_47
   15  A    between atoms: C_47  and  C_51
                            x       y       z     vdW  Elec       q    Type
                         _______ _______ _______ _____ _____    ______ ____

>  <TORSDO>
F 15

$$$$
=
 OpenBabel11062421183D

 51 56  0  0  1  0  0  0  0  0999 V2000
  189.4360  171.9170  144.0670 O   0  0  0  0  0  0  0  0  0  0  0  0
  190.1680  172.5180  143.2340 C   0  0  0  0  0  0  0  0  0  0  0  0
  191.0660  173.5400  143.6670 N   0  0  0  0  0  2  0  0  0  0  0  0
  191.7310  171.6680  140.1250 C   0  0  1  0  0  0  0  0  0  0  0  0
  191.0130  170.4400  140.4490 N   0  0  0  0  0  2  0  0  0  0  0  0
  193.5260  171.4170  140.0530 S   0  0  0  0  0  0  0  0  0  0  0  0
  191.5630  172.0620  138.6780 C   0  0  0  0  0  2  0  0  0  0  0  0
  190.1650  172.1190  141.7960 C   0  0  2  0  0  3  0  0  0  0  0  0
  190.3010  170.6740  141.6440 N   0  0  0  0  0  2  0  0  0  0  0  0
  193.0430  171.9410  138.3700 C   0  0  1  0  0  3  0  0  0  0  0  0
  191.3230  172.7480  141.0810 C   0  0  0  0  0  2  0  0  0  0  0  0
  193.6140  173.3200  138.0810 C   0  0  0  0  0  2  0  0  0  0  0  0
  194.3690  173.3180  136.7920 C   0  0  0  0  0  0  0  0  0  0  0  0
  193.8870  173.8500  135.8020 O   0  0  0  0  0  0  0  0  0  0  0  0
  196.1660  172.7000  135.4050 O   0  0  0  0  0  1  0  0  0  0  0  0
  195.7270  172.6830  136.7300 C   0  0  1  0  0  3  0  0  0  0  0  0
  196.0930  177.1660  141.2630 O   0  0  0  0  0  0  0  0  0  0  0  0
  196.8180  173.1520  140.2300 N   0  0  0  0  0  0  0  0  0  0  0  0
  196.6210  174.9310  141.7500 N   0  0  0  0  0  2  0  0  0  0  0  0
  196.5420  175.6580  136.9370 O   0  0  0  0  0  1  0  0  0  0  0  0
  196.9400  175.3620  139.2520 C   0  0  0  0  0  2  0  0  0  0  0  0
  197.3140  171.3510  138.8570 O   0  0  0  0  0  0  0  0  0  0  0  0
  196.4460  176.6790  143.5590 C   0  0  0  0  0  1  0  0  0  0  0  0
  196.7370  174.4320  140.4130 C   0  0  0  0  0  0  0  0  0  0  0  0
  196.2760  174.7990  138.0040 C   0  0  2  0  0  3  0  0  0  0  0  0
  196.9610  172.5580  138.9340 C   0  0  0  0  0  0  0  0  0  0  0  0
  196.7460  173.3680  137.6690 C   0  0  1  0  0  3  0  0  0  0  0  0
  196.3870  176.2960  142.1230 C   0  0  0  0  0  0  0  0  0  0  0  0
  191.2670  173.8810  145.0740 C   0  0  2  0  0  3  0  0  0  0  0  0
  190.3320  175.1980  146.9950 C   0  0  0  0  0  2  0  0  0  0  0  0
  191.0800  176.3630  145.3530 C   0  0  2  0  0  3  0  0  0  0  0  0
  190.3470  175.0320  145.4840 C   0  0  1  0  0  3  0  0  0  0  0  0
  191.0620  176.5190  146.8660 C   0  0  0  0  0  2  0  0  0  0  0  0
  190.8470  178.3130  143.8860 C   0  0  0  0  0  2  0  0  0  0  0  0
  190.2490  177.4400  144.6970 C   0  0  0  0  0  0  0  0  0  0  0  0
  188.7490  177.5180  144.8910 C   0  0  0  0  0  2  0  0  0  0  0  0
  185.9410  176.4370  143.0960 C   0  0  0  0  0  2  0  0  0  0  0  0
  188.0580  175.4290  142.3440 C   0  0  0  0  0  1  0  0  0  0  0  0
  187.9870  177.4920  143.6340 N   0  0  0  0  0  0  0  0  0  0  0  0
  187.3670  176.1810  143.4670 C   0  0  1  0  0  3  0  0  0  0  0  0
  187.0120  178.4500  143.6870 O   0  0  0  0  0  0  0  0  0  0  0  0
  185.9100  177.9340  142.9860 C   0  0  2  0  0  3  0  0  0  0  0  0
  184.6080  178.5100  143.5380 C   0  0  0  0  0  2  0  0  0  0  0  0
  184.8260  179.2280  144.8610 C   0  0  0  0  0  2  0  0  0  0  0  0
  184.0790  178.5120  145.9650 C   0  0  0  0  0  3  0  0  0  0  0  0
  184.9390  177.3750  146.4790 C   0  0  0  0  0  2  0  0  0  0  0  0
  184.8470  178.6670  147.2640 C   0  0  0  0  0  2  0  0  0  0  0  0
  192.7360  174.2290  145.3510 C   0  0  0  0  0  2  0  0  0  0  0  0
  194.8050  173.3790  144.1560 N   0  0  0  0  0  1  0  0  0  0  0  0
  193.6790  173.1240  144.9860 C   0  0  0  0  0  0  0  0  0  0  0  0
  193.4500  171.9540  145.3870 O   0  0  0  0  0  0  0  0  0  0  0  0
  2  3  1  0  0  0  0
  2  1  2  0  0  0  0
  3 29  1  0  0  0  0
  4  7  1  6  0  0  0
  4  5  1  0  0  0  0
  4 11  1  0  0  0  0
  5  9  1  0  0  0  0
  6  4  1  0  0  0  0
  8  2  1  1  0  0  0
  9  8  1  0  0  0  0
 10 12  1  1  0  0  0
 10  7  1  0  0  0  0
 10  6  1  0  0  0  0
 11  8  1  0  0  0  0
 13 12  1  0  0  0  0
 14 13  2  0  0  0  0
 16 15  1  6  0  0  0
 16 13  1  0  0  0  0
 17 28  2  0  0  0  0
 18 24  2  0  0  0  0
 19 28  1  0  0  0  0
 21 24  1  0  0  0  0
 22 26  2  0  0  0  0
 24 19  1  0  0  0  0
 25 20  1  6  0  0  0
 25 21  1  0  0  0  0
 26 18  1  0  0  0  0
 27 16  1  6  0  0  0
 27 25  1  0  0  0  0
 27 26  1  0  0  0  0
 28 23  1  0  0  0  0
 29 48  1  6  0  0  0
 31 35  1  6  0  0  0
 31 32  1  0  0  0  0
 31 33  1  0  0  0  0
 32 29  1  1  0  0  0
 32 30  1  0  0  0  0
 33 30  1  0  0  0  0
 34 35  2  0  0  0  0
 35 36  1  0  0  0  0
 37 40  1  0  0  0  0
 39 41  1  0  0  0  0
 39 36  1  0  0  0  0
 40 38  1  6  0  0  0
 40 39  1  0  0  0  0
 42 37  1  0  0  0  0
 42 43  1  1  0  0  0
 42 41  1  0  0  0  0
 43 44  1  0  0  0  0
 44 45  1  0  0  0  0
 45 46  1  0  0  0  0
 45 47  1  0  0  0  0
 46 47  1  0  0  0  0
 49 50  1  0  0  0  0
 50 48  1  0  0  0  0
 50 51  2  0  0  0  0
M  END
>  <MODEL>
4

>  <REMARK>
 VINA RESULT:      -6.6      2.466      7.401
  Name = 
  15 active torsions:
  status: ('A' for Active; 'I' for Inactive)
    1  A    between atoms: C_4  and  C_37
    2  A    between atoms: C_4  and  C_42
    3  A    between atoms: C_4  and  N_44
    4  A    between atoms: C_7  and  N_20
    5  A    between atoms: C_7  and  C_26
    6  A    between atoms: C_12  and  C_25
    7  A    between atoms: C_12  and  C_46
    8  A    between atoms: C_18  and  C_38
    9  A    between atoms: C_22  and  C_46
   10  A    between atoms: C_23  and  C_26
   11  A    between atoms: C_25  and  C_48
   12  A    between atoms: C_27  and  C_42
   13  A    between atoms: C_31  and  C_51
   14  A    between atoms: C_41  and  C_47
   15  A    between atoms: C_47  and  C_51
                            x       y       z     vdW  Elec       q    Type
                         _______ _______ _______ _____ _____    ______ ____

>  <TORSDO>
F 15

$$$$
=
 OpenBabel11062421183D

 51 56  0  0  1  0  0  0  0  0999 V2000
  186.8130  176.0440  147.0700 O   0  0  0  0  0  0  0  0  0  0  0  0
  187.8780  176.2030  146.4140 C   0  0  0  0  0  0  0  0  0  0  0  0
  187.8320  176.6390  145.0550 N   0  0  0  0  0  2  0  0  0  0  0  0
  191.4580  176.0950  146.4580 C   0  0  1  0  0  0  0  0  0  0  0  0
  191.1770  177.1860  147.3840 N   0  0  0  0  0  2  0  0  0  0  0  0
  192.3990  176.6470  145.0090 S   0  0  0  0  0  0  0  0  0  0  0  0
  192.5140  175.1540  146.9880 C   0  0  0  0  0  2  0  0  0  0  0  0
  189.2070  176.0150  147.0670 C   0  0  2  0  0  3  0  0  0  0  0  0
  189.7750  177.2900  147.4960 N   0  0  0  0  0  2  0  0  0  0  0  0
  193.4780  175.4380  145.8520 C   0  0  1  0  0  3  0  0  0  0  0  0
  190.1770  175.4030  146.1020 C   0  0  0  0  0  2  0  0  0  0  0  0
  193.6240  174.1940  144.9900 C   0  0  0  0  0  2  0  0  0  0  0  0
  194.9550  173.5540  145.2080 C   0  0  0  0  0  0  0  0  0  0  0  0
  195.0400  172.3370  145.2890 O   0  0  0  0  0  0  0  0  0  0  0  0
  197.1700  173.7000  145.9900 O   0  0  0  0  0  1  0  0  0  0  0  0
  196.1830  174.4110  145.3040 C   0  0  1  0  0  3  0  0  0  0  0  0
  195.1360  173.5520  139.0630 O   0  0  0  0  0  0  0  0  0  0  0  0
  195.3640  176.3050  142.2380 N   0  0  0  0  0  0  0  0  0  0  0  0
  194.8110  175.6580  140.0480 N   0  0  0  0  0  2  0  0  0  0  0  0
  197.4190  172.7810  142.9860 O   0  0  0  0  0  1  0  0  0  0  0  0
  196.4730  174.3070  141.4420 C   0  0  0  0  0  2  0  0  0  0  0  0
  196.0800  177.1880  144.2580 O   0  0  0  0  0  0  0  0  0  0  0  0
  194.1200  175.1830  137.6710 C   0  0  0  0  0  1  0  0  0  0  0  0
  195.4910  175.4320  141.2890 C   0  0  0  0  0  0  0  0  0  0  0  0
  196.4490  173.7780  142.8690 C   0  0  2  0  0  3  0  0  0  0  0  0
  196.0220  176.1810  143.5040 C   0  0  0  0  0  0  0  0  0  0  0  0
  196.6870  174.8820  143.9210 C   0  0  1  0  0  3  0  0  0  0  0  0
  194.7320  174.7390  138.9510 C   0  0  0  0  0  0  0  0  0  0  0  0
  186.5900  177.0160  144.3810 C   0  0  2  0  0  3  0  0  0  0  0  0
  186.6780  177.6490  141.9540 C   0  0  0  0  0  2  0  0  0  0  0  0
  187.9820  176.0450  142.5390 C   0  0  2  0  0  3  0  0  0  0  0  0
  186.5820  176.4970  142.9430 C   0  0  1  0  0  3  0  0  0  0  0  0
  188.0700  177.2000  141.5540 C   0  0  0  0  0  2  0  0  0  0  0  0
  187.4320  173.6610  142.3880 C   0  0  0  0  0  2  0  0  0  0  0  0
  187.9940  174.7220  141.8100 C   0  0  0  0  0  0  0  0  0  0  0  0
  188.5760  174.5840  140.4180 C   0  0  0  0  0  2  0  0  0  0  0  0
  191.4640  172.9820  139.2510 C   0  0  0  0  0  2  0  0  0  0  0  0
  189.4410  172.4730  137.9450 C   0  0  0  0  0  1  0  0  0  0  0  0
  189.3360  173.3430  140.2150 N   0  0  0  0  0  0  0  0  0  0  0  0
  190.0670  173.4190  138.9530 C   0  0  1  0  0  3  0  0  0  0  0  0
  190.2260  173.1940  141.2430 O   0  0  0  0  0  0  0  0  0  0  0  0
  191.3670  172.5860  140.6970 C   0  0  2  0  0  3  0  0  0  0  0  0
  192.6160  172.9960  141.4750 C   0  0  0  0  0  2  0  0  0  0  0  0
  193.3380  171.7900  142.0550 C   0  0  0  0  0  2  0  0  0  0  0  0
  192.4650  171.1160  143.0910 C   0  0  0  0  0  3  0  0  0  0  0  0
  192.0890  169.7360  142.5890 C   0  0  0  0  0  2  0  0  0  0  0  0
  193.1850  169.8910  143.6230 C   0  0  0  0  0  2  0  0  0  0  0  0
  186.3850  178.5360  144.4170 C   0  0  0  0  0  2  0  0  0  0  0  0
  183.9790  179.0340  145.0420 N   0  0  0  0  0  1  0  0  0  0  0  0
  185.3510  178.9660  145.4110 C   0  0  0  0  0  0  0  0  0  0  0  0
  185.7040  179.3050  146.5690 O   0  0  0  0  0  0  0  0  0  0  0  0
  2  1  2  0  0  0  0
  3  2  1  0  0  0  0
  4 11  1  6  0  0  0
  4  7  1  0  0  0  0
  4  5  1  0  0  0  0
  5  9  1  0  0  0  0
  6 10  1  0  0  0  0
  6  4  1  0  0  0  0
  8  2  1  6  0  0  0
  8  9  1  0  0  0  0
 10 12  1  6  0  0  0
 10  7  1  0  0  0  0
 11  8  1  0  0  0  0
 12 13  1  0  0  0  0
 13 14  2  0  0  0  0
 13 16  1  0  0  0  0
 16 15  1  6  0  0  0
 18 26  1  0  0  0  0
 19 24  1  0  0  0  0
 21 25  1  0  0  0  0
 23 28  1  0  0  0  0
 24 21  1  0  0  0  0
 24 18  2  0  0  0  0
 25 20  1  6  0  0  0
 25 27  1  0  0  0  0
 26 27  1  0  0  0  0
 26 22  2  0  0  0  0
 27 16  1  1  0  0  0
 28 17  2  0  0  0  0
 28 19  1  0  0  0  0
 29 48  1  6  0  0  0
 29  3  1  0  0  0  0
 30 32  1  0  0  0  0
 31 35  1  6  0  0  0
 31 32  1  0  0  0  0
 32 29  1  1  0  0  0
 33 30  1  0  0  0  0
 33 31  1  0  0  0  0
 35 34  2  0  0  0  0
 36 35  1  0  0  0  0
 37 42  1  0  0  0  0
 39 36  1  0  0  0  0
 39 41  1  0  0  0  0
 40 38  1  6  0  0  0
 40 37  1  0  0  0  0
 40 39  1  0  0  0  0
 42 41  1  0  0  0  0
 42 43  1  1  0  0  0
 43 44  1  0  0  0  0
 44 45  1  0  0  0  0
 45 47  1  0  0  0  0
 46 45  1  0  0  0  0
 46 47  1  0  0  0  0
 48 50  1  0  0  0  0
 49 50  1  0  0  0  0
 50 51  2  0  0  0  0
M  END
>  <MODEL>
5

>  <REMARK>
 VINA RESULT:      -6.5      0.899      1.990
  Name = 
  15 active torsions:
  status: ('A' for Active; 'I' for Inactive)
    1  A    between atoms: C_4  and  C_37
    2  A    between atoms: C_4  and  C_42
    3  A    between atoms: C_4  and  N_44
    4  A    between atoms: C_7  and  N_20
    5  A    between atoms: C_7  and  C_26
    6  A    between atoms: C_12  and  C_25
    7  A    between atoms: C_12  and  C_46
    8  A    between atoms: C_18  and  C_38
    9  A    between atoms: C_22  and  C_46
   10  A    between atoms: C_23  and  C_26
   11  A    between atoms: C_25  and  C_48
   12  A    between atoms: C_27  and  C_42
   13  A    between atoms: C_31  and  C_51
   14  A    between atoms: C_41  and  C_47
   15  A    between atoms: C_47  and  C_51
                            x       y       z     vdW  Elec       q    Type
                         _______ _______ _______ _____ _____    ______ ____

>  <TORSDO>
F 15

$$$$
=
 OpenBabel11062421183D

 51 56  0  0  1  0  0  0  0  0999 V2000
  196.4260  173.6020  141.9010 O   0  0  0  0  0  0  0  0  0  0  0  0
  195.3150  173.5980  142.4980 C   0  0  0  0  0  0  0  0  0  0  0  0
  194.7290  172.3680  142.9270 N   0  0  0  0  0  2  0  0  0  0  0  0
  193.8080  175.9530  144.7360 C   0  0  1  0  0  0  0  0  0  0  0  0
  194.9380  176.7130  144.2130 N   0  0  0  0  0  2  0  0  0  0  0  0
  193.9220  175.7000  146.5290 S   0  0  0  0  0  0  0  0  0  0  0  0
  192.5380  176.7680  144.7680 C   0  0  0  0  0  2  0  0  0  0  0  0
  194.6300  174.8810  142.8330 C   0  0  2  0  0  3  0  0  0  0  0  0
  195.5860  175.8980  143.2620 N   0  0  0  0  0  2  0  0  0  0  0  0
  192.4010  176.6790  146.2760 C   0  0  1  0  0  3  0  0  0  0  0  0
  193.6700  174.6750  143.9660 C   0  0  0  0  0  2  0  0  0  0  0  0
  191.1850  175.8340  146.6240 C   0  0  0  0  0  2  0  0  0  0  0  0
  189.9670  176.6890  146.7520 C   0  0  0  0  0  0  0  0  0  0  0  0
  190.0000  177.6970  147.4430 O   0  0  0  0  0  0  0  0  0  0  0  0
  187.8190  175.7440  146.9130 O   0  0  0  0  0  1  0  0  0  0  0  0
  188.7180  176.3150  146.0110 C   0  0  1  0  0  3  0  0  0  0  0  0
  185.5610  177.7610  140.6510 O   0  0  0  0  0  0  0  0  0  0  0  0
  185.5750  177.8820  144.8570 N   0  0  0  0  0  0  0  0  0  0  0  0
  184.5590  178.0830  142.7490 N   0  0  0  0  0  2  0  0  0  0  0  0
  189.3680  177.4890  143.2250 O   0  0  0  0  0  1  0  0  0  0  0  0
  187.1010  178.1360  142.9970 C   0  0  0  0  0  2  0  0  0  0  0  0
  186.4710  177.9900  146.9920 O   0  0  0  0  0  0  0  0  0  0  0  0
  183.2590  178.3380  140.6040 C   0  0  0  0  0  1  0  0  0  0  0  0
  185.7250  177.9730  143.5730 C   0  0  0  0  0  0  0  0  0  0  0  0
  188.0940  177.2600  143.7470 C   0  0  2  0  0  3  0  0  0  0  0  0
  186.6790  177.7920  145.7660 C   0  0  0  0  0  0  0  0  0  0  0  0
  188.0860  177.5160  145.2700 C   0  0  1  0  0  3  0  0  0  0  0  0
  184.5340  178.0570  141.3160 C   0  0  0  0  0  0  0  0  0  0  0  0
  195.4030  171.0770  142.7990 C   0  0  2  0  0  3  0  0  0  0  0  0
  194.2620  168.9020  143.3140 C   0  0  0  0  0  2  0  0  0  0  0  0
  192.9920  170.4520  142.5410 C   0  0  2  0  0  3  0  0  0  0  0  0
  194.4310  170.0130  142.2890 C   0  0  1  0  0  3  0  0  0  0  0  0
  192.8330  169.3390  143.5650 C   0  0  0  0  0  2  0  0  0  0  0  0
  190.8620  169.7260  141.5680 C   0  0  0  0  0  2  0  0  0  0  0  0
  192.0820  170.2200  141.3570 C   0  0  0  0  0  0  0  0  0  0  0  0
  192.4980  170.5870  139.9480 C   0  0  0  0  0  2  0  0  0  0  0  0
  189.7940  172.6530  139.1160 C   0  0  0  0  0  2  0  0  0  0  0  0
  191.2290  172.0640  137.2040 C   0  0  0  0  0  1  0  0  0  0  0  0
  192.0000  171.8970  139.5050 N   0  0  0  0  0  0  0  0  0  0  0  0
  190.8470  171.7100  138.6300 C   0  0  1  0  0  3  0  0  0  0  0  0
  191.6200  172.6210  140.6030 O   0  0  0  0  0  0  0  0  0  0  0  0
  190.5140  173.3900  140.2090 C   0  0  2  0  0  3  0  0  0  0  0  0
  189.5980  173.6590  141.4010 C   0  0  0  0  0  2  0  0  0  0  0  0
  190.3820  174.1100  142.6230 C   0  0  0  0  0  2  0  0  0  0  0  0
  189.6950  173.6270  143.8820 C   0  0  0  0  0  3  0  0  0  0  0  0
  189.4350  172.1390  143.7550 C   0  0  0  0  0  2  0  0  0  0  0  0
  190.5990  172.6340  144.5880 C   0  0  0  0  0  2  0  0  0  0  0  0
  196.0320  170.6520  144.1330 C   0  0  0  0  0  2  0  0  0  0  0  0
  196.5860  172.5350  145.7370 N   0  0  0  0  0  1  0  0  0  0  0  0
  195.6670  171.5560  145.2690 C   0  0  0  0  0  0  0  0  0  0  0  0
  194.5530  171.4220  145.8380 O   0  0  0  0  0  0  0  0  0  0  0  0
  1  2  2  0  0  0  0
  2  3  1  0  0  0  0
  4 11  1  6  0  0  0
  4  7  1  0  0  0  0
  4  6  1  0  0  0  0
  5  4  1  0  0  0  0
  7 10  1  0  0  0  0
  8  2  1  1  0  0  0
  8  9  1  0  0  0  0
  8 11  1  0  0  0  0
  9  5  1  0  0  0  0
 10  6  1  0  0  0  0
 10 12  1  6  0  0  0
 12 13  1  0  0  0  0
 13 14  2  0  0  0  0
 16 13  1  0  0  0  0
 16 15  1  1  0  0  0
 17 28  2  0  0  0  0
 18 26  1  0  0  0  0
 19 24  1  0  0  0  0
 21 24  1  0  0  0  0
 21 25  1  0  0  0  0
 23 28  1  0  0  0  0
 24 18  2  0  0  0  0
 25 20  1  6  0  0  0
 25 27  1  0  0  0  0
 26 22  2  0  0  0  0
 27 26  1  0  0  0  0
 27 16  1  1  0  0  0
 28 19  1  0  0  0  0
 29  3  1  0  0  0  0
 29 48  1  1  0  0  0
 30 33  1  0  0  0  0
 31 35  1  6  0  0  0
 31 33  1  0  0  0  0
 32 31  1  0  0  0  0
 32 29  1  1  0  0  0
 32 30  1  0  0  0  0
 35 34  2  0  0  0  0
 36 35  1  0  0  0  0
 37 42  1  0  0  0  0
 39 36  1  0  0  0  0
 39 41  1  0  0  0  0
 40 38  1  6  0  0  0
 40 37  1  0  0  0  0
 40 39  1  0  0  0  0
 42 41  1  0  0  0  0
 42 43  1  1  0  0  0
 43 44  1  0  0  0  0
 44 45  1  0  0  0  0
 45 47  1  0  0  0  0
 46 45  1  0  0  0  0
 46 47  1  0  0  0  0
 48 50  1  0  0  0  0
 50 49  1  0  0  0  0
 50 51  2  0  0  0  0
M  END
>  <MODEL>
6

>  <REMARK>
 VINA RESULT:      -6.5      2.474      8.260
  Name = 
  15 active torsions:
  status: ('A' for Active; 'I' for Inactive)
    1  A    between atoms: C_4  and  C_37
    2  A    between atoms: C_4  and  C_42
    3  A    between atoms: C_4  and  N_44
    4  A    between atoms: C_7  and  N_20
    5  A    between atoms: C_7  and  C_26
    6  A    between atoms: C_12  and  C_25
    7  A    between atoms: C_12  and  C_46
    8  A    between atoms: C_18  and  C_38
    9  A    between atoms: C_22  and  C_46
   10  A    between atoms: C_23  and  C_26
   11  A    between atoms: C_25  and  C_48
   12  A    between atoms: C_27  and  C_42
   13  A    between atoms: C_31  and  C_51
   14  A    between atoms: C_41  and  C_47
   15  A    between atoms: C_47  and  C_51
                            x       y       z     vdW  Elec       q    Type
                         _______ _______ _______ _____ _____    ______ ____

>  <TORSDO>
F 15

$$$$
=
 OpenBabel11062421183D

 51 56  0  0  1  0  0  0  0  0999 V2000
  193.5490  175.4740  143.2950 O   0  0  0  0  0  0  0  0  0  0  0  0
  193.8560  175.2450  144.4970 C   0  0  0  0  0  0  0  0  0  0  0  0
  194.9810  174.4240  144.8120 N   0  0  0  0  0  2  0  0  0  0  0  0
  190.9090  175.9150  146.4190 C   0  0  1  0  0  0  0  0  0  0  0  0
  191.7740  175.2750  147.4040 N   0  0  0  0  0  2  0  0  0  0  0  0
  189.3940  174.9660  146.1140 S   0  0  0  0  0  0  0  0  0  0  0  0
  190.2240  177.1410  146.9730 C   0  0  0  0  0  2  0  0  0  0  0  0
  193.0970  175.8900  145.6090 C   0  0  2  0  0  3  0  0  0  0  0  0
  193.0060  175.0110  146.7710 N   0  0  0  0  0  2  0  0  0  0  0  0
  188.8320  176.5660  146.7930 C   0  0  1  0  0  3  0  0  0  0  0  0
  191.6940  176.1900  145.1730 C   0  0  0  0  0  2  0  0  0  0  0  0
  188.0970  177.3480  145.7160 C   0  0  0  0  0  2  0  0  0  0  0  0
  186.6600  176.9460  145.6600 C   0  0  0  0  0  0  0  0  0  0  0  0
  186.0320  176.7820  146.6960 O   0  0  0  0  0  0  0  0  0  0  0  0
  184.8130  177.5170  144.3190 O   0  0  0  0  0  1  0  0  0  0  0  0
  185.9920  176.7680  144.3290 C   0  0  1  0  0  3  0  0  0  0  0  0
  187.4150  175.0270  138.3510 O   0  0  0  0  0  0  0  0  0  0  0  0
  186.1480  178.1300  140.8960 N   0  0  0  0  0  0  0  0  0  0  0  0
  186.5160  177.1500  138.7930 N   0  0  0  0  0  2  0  0  0  0  0  0
  188.1680  175.1070  142.8930 O   0  0  0  0  0  1  0  0  0  0  0  0
  187.6900  176.2650  140.8830 C   0  0  0  0  0  2  0  0  0  0  0  0
  185.9680  179.3480  142.8600 O   0  0  0  0  0  0  0  0  0  0  0  0
  186.8040  176.2930  136.4400 C   0  0  0  0  0  1  0  0  0  0  0  0
  186.7130  177.1860  140.2120 C   0  0  0  0  0  0  0  0  0  0  0  0
  187.2040  175.9090  142.2800 C   0  0  2  0  0  3  0  0  0  0  0  0
  186.3050  178.2650  142.3140 C   0  0  0  0  0  0  0  0  0  0  0  0
  186.9120  177.1520  143.1470 C   0  0  1  0  0  3  0  0  0  0  0  0
  186.9500  176.1090  137.9080 C   0  0  0  0  0  0  0  0  0  0  0  0
  195.8870  173.8900  143.7970 C   0  0  2  0  0  3  0  0  0  0  0  0
  197.4690  172.2330  144.8220 C   0  0  0  0  0  2  0  0  0  0  0  0
  195.3920  171.9320  145.2780 C   0  0  2  0  0  3  0  0  0  0  0  0
  196.1680  172.4090  144.0550 C   0  0  1  0  0  3  0  0  0  0  0  0
  196.6980  171.7600  146.0380 C   0  0  0  0  0  2  0  0  0  0  0  0
  194.5810  169.7750  146.1130 C   0  0  0  0  0  2  0  0  0  0  0  0
  194.7160  170.5970  145.0720 C   0  0  0  0  0  0  0  0  0  0  0  0
  194.1410  170.1930  143.7310 C   0  0  0  0  0  2  0  0  0  0  0  0
  191.3430  171.6250  142.1830 C   0  0  0  0  0  2  0  0  0  0  0  0
  191.7260  172.4130  144.4840 C   0  0  0  0  0  1  0  0  0  0  0  0
  192.6800  170.3370  143.6460 N   0  0  0  0  0  0  0  0  0  0  0  0
  192.3450  171.7120  143.2880 C   0  0  1  0  0  3  0  0  0  0  0  0
  192.2070  169.4920  142.6800 O   0  0  0  0  0  0  0  0  0  0  0  0
  191.1190  170.1440  142.0790 C   0  0  2  0  0  3  0  0  0  0  0  0
  190.9670  169.7010  140.6250 C   0  0  0  0  0  2  0  0  0  0  0  0
  191.7440  170.6010  139.6780 C   0  0  0  0  0  2  0  0  0  0  0  0
  193.1250  170.0290  139.4410 C   0  0  0  0  0  3  0  0  0  0  0  0
  193.6520  170.5590  138.1220 C   0  0  0  0  0  2  0  0  0  0  0  0
  194.1330  171.1620  139.4260 C   0  0  0  0  0  2  0  0  0  0  0  0
  197.1930  174.6950  143.7480 C   0  0  0  0  0  2  0  0  0  0  0  0
  196.8040  177.1860  143.4810 N   0  0  0  0  0  1  0  0  0  0  0  0
  197.0930  175.9230  142.8960 C   0  0  0  0  0  0  0  0  0  0  0  0
  197.2300  175.8280  141.6500 O   0  0  0  0  0  0  0  0  0  0  0  0
  1  2  2  0  0  0  0
  2  3  1  0  0  0  0
  4 11  1  6  0  0  0
  4  7  1  0  0  0  0
  4  5  1  0  0  0  0
  6  4  1  0  0  0  0
  6 10  1  0  0  0  0
  8  2  1  6  0  0  0
  8  9  1  0  0  0  0
  9  5  1  0  0  0  0
 10 12  1  6  0  0  0
 10  7  1  0  0  0  0
 11  8  1  0  0  0  0
 13 12  1  0  0  0  0
 13 14  2  0  0  0  0
 16 15  1  1  0  0  0
 16 13  1  0  0  0  0
 18 26  1  0  0  0  0
 19 24  1  0  0  0  0
 21 25  1  0  0  0  0
 23 28  1  0  0  0  0
 24 21  1  0  0  0  0
 24 18  2  0  0  0  0
 25 20  1  1  0  0  0
 25 27  1  0  0  0  0
 26 22  2  0  0  0  0
 26 27  1  0  0  0  0
 27 16  1  1  0  0  0
 28 17  2  0  0  0  0
 28 19  1  0  0  0  0
 29 48  1  1  0  0  0
 29  3  1  0  0  0  0
 30 33  1  0  0  0  0
 31 35  1  6  0  0  0
 31 33  1  0  0  0  0
 32 29  1  1  0  0  0
 32 30  1  0  0  0  0
 32 31  1  0  0  0  0
 35 34  2  0  0  0  0
 36 35  1  0  0  0  0
 37 40  1  0  0  0  0
 39 36  1  0  0  0  0
 40 39  1  0  0  0  0
 40 38  1  1  0  0  0
 41 39  1  0  0  0  0
 42 43  1  6  0  0  0
 42 37  1  0  0  0  0
 42 41  1  0  0  0  0
 44 43  1  0  0  0  0
 45 44  1  0  0  0  0
 46 47  1  0  0  0  0
 46 45  1  0  0  0  0
 47 45  1  0  0  0  0
 50 49  1  0  0  0  0
 50 48  1  0  0  0  0
 51 50  2  0  0  0  0
M  END
>  <MODEL>
7

>  <REMARK>
 VINA RESULT:      -6.4      2.677      8.038
  Name = 
  15 active torsions:
  status: ('A' for Active; 'I' for Inactive)
    1  A    between atoms: C_4  and  C_37
    2  A    between atoms: C_4  and  C_42
    3  A    between atoms: C_4  and  N_44
    4  A    between atoms: C_7  and  N_20
    5  A    between atoms: C_7  and  C_26
    6  A    between atoms: C_12  and  C_25
    7  A    between atoms: C_12  and  C_46
    8  A    between atoms: C_18  and  C_38
    9  A    between atoms: C_22  and  C_46
   10  A    between atoms: C_23  and  C_26
   11  A    between atoms: C_25  and  C_48
   12  A    between atoms: C_27  and  C_42
   13  A    between atoms: C_31  and  C_51
   14  A    between atoms: C_41  and  C_47
   15  A    between atoms: C_47  and  C_51
                            x       y       z     vdW  Elec       q    Type
                         _______ _______ _______ _____ _____    ______ ____

>  <TORSDO>
F 15

$$$$
=
 OpenBabel11062421183D

 51 56  0  0  1  0  0  0  0  0999 V2000
  188.9560  174.5430  147.3560 O   0  0  0  0  0  0  0  0  0  0  0  0
  189.7680  175.2850  146.7390 C   0  0  0  0  0  0  0  0  0  0  0  0
  189.3070  176.1670  145.7140 N   0  0  0  0  0  2  0  0  0  0  0  0
  193.2230  176.0670  146.2110 C   0  0  1  0  0  0  0  0  0  0  0  0
  192.9140  176.8510  147.4010 N   0  0  0  0  0  2  0  0  0  0  0  0
  193.7130  177.1080  144.8090 S   0  0  0  0  0  0  0  0  0  0  0  0
  194.5380  175.3350  146.3360 C   0  0  0  0  0  2  0  0  0  0  0  0
  191.2110  175.3100  147.1190 C   0  0  2  0  0  3  0  0  0  0  0  0
  191.5740  176.5770  147.7460 N   0  0  0  0  0  2  0  0  0  0  0  0
  195.1700  176.0660  145.1670 C   0  0  1  0  0  3  0  0  0  0  0  0
  192.0710  175.1600  145.9000 C   0  0  0  0  0  2  0  0  0  0  0  0
  195.3950  175.0910  144.0220 C   0  0  0  0  0  2  0  0  0  0  0  0
  196.3520  175.6590  143.0270 C   0  0  0  0  0  0  0  0  0  0  0  0
  196.9020  176.7280  143.2500 O   0  0  0  0  0  0  0  0  0  0  0  0
  196.2370  173.5760  141.9380 O   0  0  0  0  0  1  0  0  0  0  0  0
  196.6500  174.8990  141.7680 C   0  0  1  0  0  3  0  0  0  0  0  0
  195.8210  173.9030  135.5140 O   0  0  0  0  0  0  0  0  0  0  0  0
  193.9770  174.6000  139.2320 N   0  0  0  0  0  0  0  0  0  0  0  0
  193.9750  173.9970  136.9620 N   0  0  0  0  0  2  0  0  0  0  0  0
  197.9330  175.8400  139.1170 O   0  0  0  0  0  1  0  0  0  0  0  0
  195.9300  175.2890  137.9810 C   0  0  0  0  0  2  0  0  0  0  0  0
  193.7510  175.4190  141.3890 O   0  0  0  0  0  0  0  0  0  0  0  0
  193.7370  173.3000  134.5510 C   0  0  0  0  0  1  0  0  0  0  0  0
  194.6180  174.5720  138.1060 C   0  0  0  0  0  0  0  0  0  0  0  0
  196.7530  175.1070  139.2480 C   0  0  2  0  0  3  0  0  0  0  0  0
  194.5240  175.1750  140.4250 C   0  0  0  0  0  0  0  0  0  0  0  0
  195.9940  175.5370  140.5210 C   0  0  1  0  0  3  0  0  0  0  0  0
  194.5820  173.7620  135.6840 C   0  0  0  0  0  0  0  0  0  0  0  0
  187.8930  176.3410  145.3900 C   0  0  2  0  0  3  0  0  0  0  0  0
  187.4680  177.7830  143.3800 C   0  0  0  0  0  2  0  0  0  0  0  0
  189.0380  176.3320  143.1620 C   0  0  2  0  0  3  0  0  0  0  0  0
  187.6890  176.3620  143.8740 C   0  0  1  0  0  3  0  0  0  0  0  0
  188.8090  177.7540  142.6740 C   0  0  0  0  0  2  0  0  0  0  0  0
  187.9940  175.2380  141.2330 C   0  0  0  0  0  2  0  0  0  0  0  0
  189.0770  175.3700  141.9990 C   0  0  0  0  0  0  0  0  0  0  0  0
  190.3310  174.5960  141.6470 C   0  0  0  0  0  2  0  0  0  0  0  0
  191.9630  171.5230  142.0530 C   0  0  0  0  0  2  0  0  0  0  0  0
  190.3400  171.5570  140.2020 C   0  0  0  0  0  1  0  0  0  0  0  0
  190.2730  173.1750  142.0180 N   0  0  0  0  0  0  0  0  0  0  0  0
  191.1630  172.4070  141.1530 C   0  0  1  0  0  3  0  0  0  0  0  0
  190.6790  173.0390  143.3180 O   0  0  0  0  0  0  0  0  0  0  0  0
  191.3570  171.8130  143.3960 C   0  0  2  0  0  3  0  0  0  0  0  0
  192.4180  171.8570  144.4930 C   0  0  0  0  0  2  0  0  0  0  0  0
  193.8220  171.7280  143.9230 C   0  0  0  0  0  2  0  0  0  0  0  0
  194.7080  170.9860  144.9000 C   0  0  0  0  0  3  0  0  0  0  0  0
  195.7760  170.2420  144.1230 C   0  0  0  0  0  2  0  0  0  0  0  0
  196.1160  171.5470  144.8150 C   0  0  0  0  0  2  0  0  0  0  0  0
  187.3330  177.6150  146.0360 C   0  0  0  0  0  2  0  0  0  0  0  0
  184.9470  176.8010  146.3070 N   0  0  0  0  0  1  0  0  0  0  0  0
  186.1220  177.3630  146.8790 C   0  0  0  0  0  0  0  0  0  0  0  0
  186.1310  177.6860  148.0950 O   0  0  0  0  0  0  0  0  0  0  0  0
  2  1  2  0  0  0  0
  3  2  1  0  0  0  0
  4 11  1  6  0  0  0
  4  7  1  0  0  0  0
  4  5  1  0  0  0  0
  5  9  1  0  0  0  0
  6 10  1  0  0  0  0
  6  4  1  0  0  0  0
  8  2  1  6  0  0  0
  8  9  1  0  0  0  0
 10 12  1  6  0  0  0
 10  7  1  0  0  0  0
 11  8  1  0  0  0  0
 13 14  2  0  0  0  0
 13 12  1  0  0  0  0
 16 15  1  1  0  0  0
 16 13  1  0  0  0  0
 17 28  2  0  0  0  0
 18 26  1  0  0  0  0
 19 24  1  0  0  0  0
 21 24  1  0  0  0  0
 21 25  1  0  0  0  0
 23 28  1  0  0  0  0
 24 18  2  0  0  0  0
 25 20  1  6  0  0  0
 25 27  1  0  0  0  0
 26 27  1  0  0  0  0
 26 22  2  0  0  0  0
 27 16  1  1  0  0  0
 28 19  1  0  0  0  0
 29  3  1  0  0  0  0
 29 48  1  6  0  0  0
 30 32  1  0  0  0  0
 31 35  1  6  0  0  0
 31 32  1  0  0  0  0
 32 29  1  1  0  0  0
 33 31  1  0  0  0  0
 33 30  1  0  0  0  0
 34 35  2  0  0  0  0
 36 35  1  0  0  0  0
 36 39  1  0  0  0  0
 37 42  1  0  0  0  0
 39 41  1  0  0  0  0
 40 38  1  6  0  0  0
 40 39  1  0  0  0  0
 40 37  1  0  0  0  0
 41 42  1  0  0  0  0
 42 43  1  1  0  0  0
 44 43  1  0  0  0  0
 44 45  1  0  0  0  0
 46 47  1  0  0  0  0
 46 45  1  0  0  0  0
 47 45  1  0  0  0  0
 48 50  1  0  0  0  0
 49 50  1  0  0  0  0
 50 51  2  0  0  0  0
M  END
>  <MODEL>
8

>  <REMARK>
 VINA RESULT:      -6.2      1.933      3.408
  Name = 
  15 active torsions:
  status: ('A' for Active; 'I' for Inactive)
    1  A    between atoms: C_4  and  C_37
    2  A    between atoms: C_4  and  C_42
    3  A    between atoms: C_4  and  N_44
    4  A    between atoms: C_7  and  N_20
    5  A    between atoms: C_7  and  C_26
    6  A    between atoms: C_12  and  C_25
    7  A    between atoms: C_12  and  C_46
    8  A    between atoms: C_18  and  C_38
    9  A    between atoms: C_22  and  C_46
   10  A    between atoms: C_23  and  C_26
   11  A    between atoms: C_25  and  C_48
   12  A    between atoms: C_27  and  C_42
   13  A    between atoms: C_31  and  C_51
   14  A    between atoms: C_41  and  C_47
   15  A    between atoms: C_47  and  C_51
                            x       y       z     vdW  Elec       q    Type
                         _______ _______ _______ _____ _____    ______ ____

>  <TORSDO>
F 15

$$$$
=
 OpenBabel11062421183D

 51 56  0  0  1  0  0  0  0  0999 V2000
  193.9440  172.8140  145.7820 O   0  0  0  0  0  0  0  0  0  0  0  0
  193.2980  172.8160  144.6990 C   0  0  0  0  0  0  0  0  0  0  0  0
  192.2480  173.7590  144.4850 N   0  0  0  0  0  2  0  0  0  0  0  0
  194.7390  172.0050  141.5210 C   0  0  1  0  0  0  0  0  0  0  0  0
  195.5600  171.2200  142.4350 N   0  0  0  0  0  2  0  0  0  0  0  0
  195.7060  173.2480  140.6210 S   0  0  0  0  0  0  0  0  0  0  0  0
  194.3210  171.2130  140.3050 C   0  0  0  0  0  2  0  0  0  0  0  0
  193.6700  171.8860  143.5930 C   0  0  2  0  0  3  0  0  0  0  0  0
  195.0450  171.4150  143.7330 N   0  0  0  0  0  2  0  0  0  0  0  0
  195.0430  172.1310  139.3370 C   0  0  1  0  0  3  0  0  0  0  0  0
  193.5790  172.5890  142.2710 C   0  0  0  0  0  2  0  0  0  0  0  0
  194.0230  172.8750  138.4900 C   0  0  0  0  0  2  0  0  0  0  0  0
  193.8450  172.2040  137.1680 C   0  0  0  0  0  0  0  0  0  0  0  0
  194.6740  171.3930  136.7790 O   0  0  0  0  0  0  0  0  0  0  0  0
  192.7220  171.7990  135.1400 O   0  0  0  0  0  1  0  0  0  0  0  0
  192.6350  172.5130  136.3360 C   0  0  1  0  0  3  0  0  0  0  0  0
  190.4390  170.4990  141.9850 O   0  0  0  0  0  0  0  0  0  0  0  0
  190.3620  173.5310  139.0670 N   0  0  0  0  0  0  0  0  0  0  0  0
  189.9080  172.6450  141.1950 N   0  0  0  0  0  2  0  0  0  0  0  0
  191.6230  169.8700  137.5810 O   0  0  0  0  0  1  0  0  0  0  0  0
  190.4580  171.1180  139.2220 C   0  0  0  0  0  2  0  0  0  0  0  0
  190.4860  174.4680  136.9510 O   0  0  0  0  0  0  0  0  0  0  0  0
  189.3350  171.9140  143.5390 C   0  0  0  0  0  1  0  0  0  0  0  0
  190.2970  172.4820  139.8260 C   0  0  0  0  0  0  0  0  0  0  0  0
  191.5500  171.1370  138.1620 C   0  0  2  0  0  3  0  0  0  0  0  0
  190.7170  173.4680  137.6810 C   0  0  0  0  0  0  0  0  0  0  0  0
  191.3120  172.2100  137.0780 C   0  0  1  0  0  3  0  0  0  0  0  0
  189.9160  171.6230  142.2010 C   0  0  0  0  0  0  0  0  0  0  0  0
  191.9250  174.8210  145.4370 C   0  0  2  0  0  3  0  0  0  0  0  0
  189.6580  174.0240  146.1620 C   0  0  0  0  0  2  0  0  0  0  0  0
  190.0720  176.0990  146.5350 C   0  0  2  0  0  3  0  0  0  0  0  0
  190.4240  175.1120  145.4260 C   0  0  1  0  0  3  0  0  0  0  0  0
  189.3100  175.0030  147.2650 C   0  0  0  0  0  2  0  0  0  0  0  0
  189.2540  177.6810  144.8510 C   0  0  0  0  0  2  0  0  0  0  0  0
  189.1310  177.1920  146.0850 C   0  0  0  0  0  0  0  0  0  0  0  0
  188.0200  177.7040  146.9770 C   0  0  0  0  0  2  0  0  0  0  0  0
  185.2380  178.1550  144.8960 C   0  0  0  0  0  2  0  0  0  0  0  0
  184.8070  178.6650  147.2650 C   0  0  0  0  0  1  0  0  0  0  0  0
  186.6770  177.2800  146.5540 N   0  0  0  0  0  0  0  0  0  0  0  0
  185.8800  178.4530  146.2120 C   0  0  1  0  0  3  0  0  0  0  0  0
  186.7930  176.4770  145.4520 O   0  0  0  0  0  0  0  0  0  0  0  0
  185.6730  176.7390  144.6500 C   0  0  2  0  0  3  0  0  0  0  0  0
  186.0010  176.5010  143.1770 C   0  0  0  0  0  2  0  0  0  0  0  0
  185.4210  177.5900  142.2880 C   0  0  0  0  0  2  0  0  0  0  0  0
  186.5230  178.2290  141.4720 C   0  0  0  0  0  3  0  0  0  0  0  0
  187.6010  177.1950  141.2110 C   0  0  0  0  0  2  0  0  0  0  0  0
  186.6040  177.5380  140.1230 C   0  0  0  0  0  2  0  0  0  0  0  0
  192.7320  176.0920  145.1370 C   0  0  0  0  0  2  0  0  0  0  0  0
  192.0320  176.6790  142.7730 N   0  0  0  0  0  1  0  0  0  0  0  0
  193.0420  176.2610  143.6820 C   0  0  0  0  0  0  0  0  0  0  0  0
  194.1940  175.9940  143.2560 O   0  0  0  0  0  0  0  0  0  0  0  0
  2  1  2  0  0  0  0
  3  2  1  0  0  0  0
  3 29  1  0  0  0  0
  4  7  1  6  0  0  0
  4 11  1  0  0  0  0
  4  5  1  0  0  0  0
  5  9  1  0  0  0  0
  6  4  1  0  0  0  0
  8  9  1  0  0  0  0
  8  2  1  1  0  0  0
 10 12  1  6  0  0  0
 10  7  1  0  0  0  0
 10  6  1  0  0  0  0
 11  8  1  0  0  0  0
 13 12  1  0  0  0  0
 14 13  2  0  0  0  0
 16 15  1  6  0  0  0
 16 13  1  0  0  0  0
 17 28  2  0  0  0  0
 18 24  2  0  0  0  0
 19 28  1  0  0  0  0
 21 24  1  0  0  0  0
 22 26  2  0  0  0  0
 24 19  1  0  0  0  0
 25 20  1  6  0  0  0
 25 21  1  0  0  0  0
 26 18  1  0  0  0  0
 27 16  1  1  0  0  0
 27 26  1  0  0  0  0
 27 25  1  0  0  0  0
 28 23  1  0  0  0  0
 29 48  1  6  0  0  0
 30 33  1  0  0  0  0
 31 35  1  6  0  0  0
 31 33  1  0  0  0  0
 32 29  1  1  0  0  0
 32 30  1  0  0  0  0
 32 31  1  0  0  0  0
 34 35  2  0  0  0  0
 35 36  1  0  0  0  0
 37 40  1  0  0  0  0
 39 36  1  0  0  0  0
 40 39  1  0  0  0  0
 40 38  1  1  0  0  0
 41 39  1  0  0  0  0
 42 43  1  6  0  0  0
 42 37  1  0  0  0  0
 42 41  1  0  0  0  0
 44 43  1  0  0  0  0
 45 44  1  0  0  0  0
 46 45  1  0  0  0  0
 47 46  1  0  0  0  0
 47 45  1  0  0  0  0
 49 50  1  0  0  0  0
 50 48  1  0  0  0  0
 51 50  2  0  0  0  0
M  END
>  <MODEL>
9

>  <REMARK>
 VINA RESULT:      -6.1      2.607      7.461
  Name = 
  15 active torsions:
  status: ('A' for Active; 'I' for Inactive)
    1  A    between atoms: C_4  and  C_37
    2  A    between atoms: C_4  and  C_42
    3  A    between atoms: C_4  and  N_44
    4  A    between atoms: C_7  and  N_20
    5  A    between atoms: C_7  and  C_26
    6  A    between atoms: C_12  and  C_25
    7  A    between atoms: C_12  and  C_46
    8  A    between atoms: C_18  and  C_38
    9  A    between atoms: C_22  and  C_46
   10  A    between atoms: C_23  and  C_26
   11  A    between atoms: C_25  and  C_48
   12  A    between atoms: C_27  and  C_42
   13  A    between atoms: C_31  and  C_51
   14  A    between atoms: C_41  and  C_47
   15  A    between atoms: C_47  and  C_51
                            x       y       z     vdW  Elec       q    Type
                         _______ _______ _______ _____ _____    ______ ____

>  <TORSDO>
F 15

$$$$
