=
 OpenBabel11062419003D

 51 54  0  0  1  0  0  0  0  0999 V2000
  195.9840  174.6560  145.4800 C   0  0  0  0  0  0  0  0  0  0  0  0
  196.6430  173.7160  146.1480 C   0  0  0  0  0  2  0  0  0  0  0  0
  196.9890  175.8090  143.6620 O   0  0  0  0  0  0  0  0  0  0  0  0
  196.2340  174.8690  144.0410 C   0  0  0  0  0  0  0  0  0  0  0  0
  195.6200  173.9530  143.0260 C   0  0  1  0  0  3  0  0  0  0  0  0
  195.1190  174.7220  141.8110 C   0  0  0  0  0  2  0  0  0  0  0  0
  193.6710  174.6100  141.7140 N   0  0  0  0  0  2  0  0  0  0  0  0
  193.3520  174.4600  140.3010 C   0  0  0  0  0  2  0  0  0  0  0  0
  192.6700  173.1150  140.0680 C   0  0  0  0  0  2  0  0  0  0  0  0
  192.4180  172.8310  138.5860 C   0  0  2  0  0  0  0  0  0  0  0  0
  193.6420  172.6050  137.9340 O   0  0  0  0  0  1  0  0  0  0  0  0
  191.1470  173.7320  136.7190 O   0  0  0  0  0  0  0  0  0  0  0  0
  192.2870  174.5620  136.7540 C   0  0  0  0  0  2  0  0  0  0  0  0
  191.6640  174.0380  137.9940 C   0  0  2  0  0  3  0  0  0  0  0  0
  191.5540  171.6110  138.4510 C   0  0  0  0  0  3  0  0  0  0  0  0
  190.5450  171.4760  139.1280 O   0  0  0  0  0  0  0  0  0  0  0  0
  196.8170  172.6800  142.5200 S   0  0  0  0  0  0  0  0  0  0  0  0
  195.5250  171.5410  141.9270 C   0  0  1  0  0  3  0  0  0  0  0  0
  196.3100  169.0040  141.5980 O   0  0  0  0  0  1  0  0  0  0  0  0
  194.7170  170.0340  139.8780 O   0  0  0  0  0  1  0  0  0  0  0  0
  196.2390  170.4340  140.6110 P   0  0  0  0  0  0  0  0  0  0  0  0
  195.0380  170.7350  143.0350 N   0  0  0  0  0  2  0  0  0  0  0  0
  193.5890  170.8820  143.0550 C   0  0  0  0  0  2  0  0  0  0  0  0
  194.1340  171.3200  145.3450 O   0  0  0  0  0  1  0  0  0  0  0  0
  193.0800  171.0030  144.4840 C   0  0  1  0  0  3  0  0  0  0  0  0
  192.0920  171.9860  144.5660 O   0  0  0  0  0  0  0  0  0  0  0  0
  191.4900  171.9980  143.3040 C   0  0  0  0  0  1  0  0  0  0  0  0
  194.9090  175.4140  146.1840 C   0  0  0  0  0  2  0  0  0  0  0  0
  193.5490  174.8120  145.8650 C   0  0  0  0  0  2  0  0  0  0  0  0
  192.4440  175.5490  146.6050 C   0  0  0  0  0  2  0  0  0  0  0  0
  191.6840  176.4910  145.6830 C   0  0  1  0  0  3  0  0  0  0  0  0
  190.4170  176.4760  143.6220 C   0  0  1  0  0  0  0  0  0  0  0  0
  188.5040  177.5990  142.3860 C   0  0  0  0  0  2  0  0  0  0  0  0
  192.5980  177.0000  144.5960 C   0  0  0  0  0  2  0  0  0  0  0  0
  187.8870  176.2610  141.9630 C   0  0  1  0  0  3  0  0  0  0  0  0
  190.2480  175.4380  142.5020 C   0  0  0  0  0  2  0  0  0  0  0  0
  191.7050  177.2530  143.3950 C   0  0  0  0  0  2  0  0  0  0  0  0
  189.2430  177.4650  143.7150 C   0  0  0  0  0  2  0  0  0  0  0  0
  190.5720  175.7670  144.9550 C   0  0  0  0  0  2  0  0  0  0  0  0
  188.7810  175.0480  142.2990 C   0  0  2  0  0  3  0  0  0  0  0  0
  188.5050  172.7860  141.5630 O   0  0  0  0  0  1  0  0  0  0  0  0
  188.6710  173.9930  141.2470 C   0  0  0  0  0  0  0  0  0  0  0  0
  188.7480  174.3500  139.9080 O   0  0  0  0  0  0  0  0  0  0  0  0
  186.5240  176.1080  142.6190 C   0  0  0  0  0  2  0  0  0  0  0  0
  185.5280  177.6110  142.3800 S   0  0  0  0  0  0  0  0  0  0  0  0
  185.7800  176.8650  145.0330 C   0  0  0  0  0  3  0  0  0  0  0  0
  184.3280  178.7560  144.5960 C   0  0  0  0  0  3  0  0  0  0  0  0
  185.5140  176.9760  146.4000 C   0  0  0  0  0  3  0  0  0  0  0  0
  184.0620  178.8670  145.9650 C   0  0  0  0  0  3  0  0  0  0  0  0
  185.1850  177.7530  144.1300 C   0  0  0  0  0  0  0  0  0  0  0  0
  184.6560  177.9780  146.8680 C   0  0  0  0  0  3  0  0  0  0  0  0
  1  2  2  0  0  0  0
  1 28  1  0  0  0  0
  3  4  2  0  0  0  0
  4  1  1  0  0  0  0
  5  6  1  6  0  0  0
  5  4  1  0  0  0  0
  7  6  1  0  0  0  0
  8  7  1  0  0  0  0
  9  8  1  0  0  0  0
 10 11  1  6  0  0  0
 10  9  1  0  0  0  0
 12 13  1  0  0  0  0
 12 14  1  0  0  0  0
 13 14  1  0  0  0  0
 14 10  1  6  0  0  0
 15 10  1  0  0  0  0
 15 16  2  0  0  0  0
 17  5  1  0  0  0  0
 18 17  1  1  0  0  0
 18 22  1  0  0  0  0
 20 21  1  0  0  0  0
 21 19  1  0  0  0  0
 21 18  1  0  0  0  0
 22 23  1  0  0  0  0
 23 25  1  0  0  0  0
 25 26  1  0  0  0  0
 25 24  1  1  0  0  0
 27 26  1  0  0  0  0
 29 28  1  0  0  0  0
 29 30  1  0  0  0  0
 31 30  1  1  0  0  0
 32 36  1  6  0  0  0
 32 38  1  0  0  0  0
 32 39  1  0  0  0  0
 33 38  1  0  0  0  0
 34 31  1  0  0  0  0
 35 40  1  0  0  0  0
 35 33  1  0  0  0  0
 35 44  1  1  0  0  0
 37 32  1  0  0  0  0
 37 34  1  0  0  0  0
 39 31  1  0  0  0  0
 40 42  1  6  0  0  0
 40 36  1  0  0  0  0
 42 41  1  0  0  0  0
 43 42  2  0  0  0  0
 45 44  1  0  0  0  0
 45 50  1  0  0  0  0
 46 48  1  0  0  0  0
 47 49  2  0  0  0  0
 48 51  2  0  0  0  0
 49 51  1  0  0  0  0
 50 47  1  0  0  0  0
 50 46  2  0  0  0  0
M  END
>  <MODEL>
1

>  <REMARK>
 VINA RESULT:      -5.6      0.000      0.000
  Name = 
  24 active torsions:
  status: ('A' for Active; 'I' for Inactive)
    1  A    between atoms: C_1  and  C_7
    2  A    between atoms: C_4  and  C_35
    3  A    between atoms: C_6  and  C_10
    4  A    between atoms: C_6  and  C_31
    5  A    between atoms: C_7  and  C_16
    6  A    between atoms: C_7  and  C_45
    7  A    between atoms: C_9  and  C_10
    8  A    between atoms: C_9  and  C_35
    9  A    between atoms: C_11  and  C_42
   10  A    between atoms: S_12  and  C_13
   11  A    between atoms: S_12  and  C_27
   12  A    between atoms: C_13  and  C_31
   13  A    between atoms: C_13  and  C_34
   14  A    between atoms: C_16  and  C_29
   15  A    between atoms: C_18  and  O_33
   16  A    between atoms: C_18  and  C_44
   17  A    between atoms: C_20  and  C_28
   18  A    between atoms: N_25  and  C_27
   19  A    between atoms: N_25  and  C_44
   20  A    between atoms: C_27  and  P_49
   21  A    between atoms: C_28  and  S_43
   22  A    between atoms: C_29  and  N_51
   23  A    between atoms: C_34  and  N_51
   24  A    between atoms: S_43  and  C_48
                            x       y       z     vdW  Elec       q    Type
                         _______ _______ _______ _____ _____    ______ ____

>  <TORSDO>
F 24

$$$$
=
 OpenBabel11062419003D

 51 54  0  0  1  0  0  0  0  0999 V2000
  185.6030  177.4080  146.1210 C   0  0  0  0  0  0  0  0  0  0  0  0
  185.1660  176.2480  146.5990 C   0  0  0  0  0  2  0  0  0  0  0  0
  184.1120  179.2090  145.6990 O   0  0  0  0  0  0  0  0  0  0  0  0
  184.7510  178.2230  145.2340 C   0  0  0  0  0  0  0  0  0  0  0  0
  184.6660  177.9050  143.7710 C   0  0  1  0  0  3  0  0  0  0  0  0
  183.4970  178.6230  143.1110 C   0  0  0  0  0  2  0  0  0  0  0  0
  183.4410  178.2870  141.6960 N   0  0  0  0  0  2  0  0  0  0  0  0
  182.0490  177.9950  141.3850 C   0  0  0  0  0  2  0  0  0  0  0  0
  181.1580  179.1140  141.9150 C   0  0  0  0  0  2  0  0  0  0  0  0
  179.8610  179.2640  141.1170 C   0  0  2  0  0  0  0  0  0  0  0  0
  179.8910  180.4650  140.3890 O   0  0  0  0  0  1  0  0  0  0  0  0
  179.1360  178.9140  143.4110 O   0  0  0  0  0  0  0  0  0  0  0  0
  178.4800  177.8800  142.7120 C   0  0  0  0  0  2  0  0  0  0  0  0
  178.6850  179.2210  142.1120 C   0  0  2  0  0  3  0  0  0  0  0  0
  179.7270  178.1120  140.1630 C   0  0  0  0  0  3  0  0  0  0  0  0
  178.9160  178.1450  139.2480 O   0  0  0  0  0  0  0  0  0  0  0  0
  186.2260  178.3370  142.9410 S   0  0  0  0  0  0  0  0  0  0  0  0
  186.3680  176.7180  142.1200 C   0  0  1  0  0  3  0  0  0  0  0  0
  186.2010  177.7940  139.6750 O   0  0  0  0  0  1  0  0  0  0  0  0
  188.2620  178.3030  141.1080 O   0  0  0  0  0  1  0  0  0  0  0  0
  187.3910  176.9000  140.5740 P   0  0  0  0  0  0  0  0  0  0  0  0
  187.0030  175.7680  143.0180 N   0  0  0  0  0  2  0  0  0  0  0  0
  188.0850  175.1410  142.2690 C   0  0  0  0  0  2  0  0  0  0  0  0
  188.0070  173.1900  140.8840 O   0  0  0  0  0  1  0  0  0  0  0  0
  187.8900  173.6330  142.2040 C   0  0  1  0  0  3  0  0  0  0  0  0
  188.8350  172.9870  143.0040 O   0  0  0  0  0  0  0  0  0  0  0  0
  189.4630  172.0730  142.1520 C   0  0  0  0  0  1  0  0  0  0  0  0
  186.9240  177.9220  146.5880 C   0  0  0  0  0  2  0  0  0  0  0  0
  187.9070  176.7720  146.7410 C   0  0  0  0  0  2  0  0  0  0  0  0
  189.3260  177.2300  146.4370 C   0  0  0  0  0  2  0  0  0  0  0  0
  189.8020  176.7160  145.0860 C   0  0  1  0  0  3  0  0  0  0  0  0
  191.8410  176.2530  143.8710 C   0  0  1  0  0  0  0  0  0  0  0  0
  192.8760  174.7530  142.1030 C   0  0  0  0  0  2  0  0  0  0  0  0
  190.0290  177.8720  144.1430 C   0  0  0  0  0  2  0  0  0  0  0  0
  194.1380  174.5050  142.9380 C   0  0  1  0  0  3  0  0  0  0  0  0
  193.3130  176.6230  144.1120 C   0  0  0  0  0  2  0  0  0  0  0  0
  191.1340  177.4230  143.2040 C   0  0  0  0  0  2  0  0  0  0  0  0
  191.6660  174.9980  143.0000 C   0  0  0  0  0  2  0  0  0  0  0  0
  191.1470  176.0320  145.2020 C   0  0  0  0  0  2  0  0  0  0  0  0
  194.2060  175.3830  144.2070 C   0  0  2  0  0  3  0  0  0  0  0  0
  196.3480  175.0660  145.2320 O   0  0  0  0  0  1  0  0  0  0  0  0
  195.6140  175.7860  144.5040 C   0  0  0  0  0  0  0  0  0  0  0  0
  196.1180  176.9630  143.9690 O   0  0  0  0  0  0  0  0  0  0  0  0
  194.2120  173.0330  143.3120 C   0  0  0  0  0  2  0  0  0  0  0  0
  193.4770  172.7530  144.9510 S   0  0  0  0  0  0  0  0  0  0  0  0
  196.1250  172.0010  145.2300 C   0  0  0  0  0  3  0  0  0  0  0  0
  194.4810  170.4040  146.0180 C   0  0  0  0  0  3  0  0  0  0  0  0
  197.1520  171.1310  145.6070 C   0  0  0  0  0  3  0  0  0  0  0  0
  195.5080  169.5340  146.3960 C   0  0  0  0  0  3  0  0  0  0  0  0
  194.7890  171.6370  145.4330 C   0  0  0  0  0  0  0  0  0  0  0  0
  196.8440  169.8970  146.1910 C   0  0  0  0  0  3  0  0  0  0  0  0
  1 28  1  0  0  0  0
  1  2  2  0  0  0  0
  4  3  2  0  0  0  0
  4  1  1  0  0  0  0
  5  6  1  6  0  0  0
  5  4  1  0  0  0  0
  7  6  1  0  0  0  0
  8  7  1  0  0  0  0
  8  9  1  0  0  0  0
 10 11  1  6  0  0  0
 10  9  1  0  0  0  0
 13 12  1  0  0  0  0
 14 10  1  6  0  0  0
 14 13  1  0  0  0  0
 14 12  1  0  0  0  0
 15 10  1  0  0  0  0
 16 15  2  0  0  0  0
 17  5  1  0  0  0  0
 18 17  1  1  0  0  0
 18 22  1  0  0  0  0
 19 21  1  0  0  0  0
 21 20  1  0  0  0  0
 21 18  1  0  0  0  0
 23 22  1  0  0  0  0
 25 24  1  6  0  0  0
 25 23  1  0  0  0  0
 25 26  1  0  0  0  0
 27 26  1  0  0  0  0
 28 29  1  0  0  0  0
 30 29  1  0  0  0  0
 31 39  1  0  0  0  0
 31 30  1  1  0  0  0
 32 38  1  6  0  0  0
 32 36  1  0  0  0  0
 32 39  1  0  0  0  0
 33 35  1  0  0  0  0
 33 38  1  0  0  0  0
 34 31  1  0  0  0  0
 35 44  1  1  0  0  0
 35 40  1  0  0  0  0
 36 40  1  0  0  0  0
 37 32  1  0  0  0  0
 37 34  1  0  0  0  0
 40 42  1  6  0  0  0
 42 41  1  0  0  0  0
 43 42  2  0  0  0  0
 44 45  1  0  0  0  0
 45 50  1  0  0  0  0
 46 50  2  0  0  0  0
 46 48  1  0  0  0  0
 47 49  2  0  0  0  0
 48 51  2  0  0  0  0
 50 47  1  0  0  0  0
 51 49  1  0  0  0  0
M  END
>  <MODEL>
2

>  <REMARK>
 VINA RESULT:      -5.6      4.557     10.295
  Name = 
  24 active torsions:
  status: ('A' for Active; 'I' for Inactive)
    1  A    between atoms: C_1  and  C_7
    2  A    between atoms: C_4  and  C_35
    3  A    between atoms: C_6  and  C_10
    4  A    between atoms: C_6  and  C_31
    5  A    between atoms: C_7  and  C_16
    6  A    between atoms: C_7  and  C_45
    7  A    between atoms: C_9  and  C_10
    8  A    between atoms: C_9  and  C_35
    9  A    between atoms: C_11  and  C_42
   10  A    between atoms: S_12  and  C_13
   11  A    between atoms: S_12  and  C_27
   12  A    between atoms: C_13  and  C_31
   13  A    between atoms: C_13  and  C_34
   14  A    between atoms: C_16  and  C_29
   15  A    between atoms: C_18  and  O_33
   16  A    between atoms: C_18  and  C_44
   17  A    between atoms: C_20  and  C_28
   18  A    between atoms: N_25  and  C_27
   19  A    between atoms: N_25  and  C_44
   20  A    between atoms: C_27  and  P_49
   21  A    between atoms: C_28  and  S_43
   22  A    between atoms: C_29  and  N_51
   23  A    between atoms: C_34  and  N_51
   24  A    between atoms: S_43  and  C_48
                            x       y       z     vdW  Elec       q    Type
                         _______ _______ _______ _____ _____    ______ ____

>  <TORSDO>
F 24

$$$$
=
 OpenBabel11062419003D

 51 54  0  0  1  0  0  0  0  0999 V2000
  185.9100  178.2370  146.2990 C   0  0  0  0  0  0  0  0  0  0  0  0
  184.8520  178.1230  147.0920 C   0  0  0  0  0  2  0  0  0  0  0  0
  185.7290  180.0400  144.7620 O   0  0  0  0  0  0  0  0  0  0  0  0
  185.7720  178.7890  144.9370 C   0  0  0  0  0  0  0  0  0  0  0  0
  185.7140  177.8700  143.7540 C   0  0  1  0  0  3  0  0  0  0  0  0
  184.9700  178.5070  142.5880 C   0  0  0  0  0  2  0  0  0  0  0  0
  183.6370  177.9330  142.4750 N   0  0  0  0  0  2  0  0  0  0  0  0
  182.8480  178.8520  141.6680 C   0  0  0  0  0  2  0  0  0  0  0  0
  181.6450  178.1190  141.0810 C   0  0  0  0  0  2  0  0  0  0  0  0
  180.3140  178.7710  141.4610 C   0  0  2  0  0  0  0  0  0  0  0  0
  180.5100  179.6500  142.5390 O   0  0  0  0  0  1  0  0  0  0  0  0
  178.2290  177.6470  140.9130 O   0  0  0  0  0  0  0  0  0  0  0  0
  177.9830  178.1560  142.2050 C   0  0  0  0  0  2  0  0  0  0  0  0
  179.3180  177.6470  141.8070 C   0  0  2  0  0  3  0  0  0  0  0  0
  179.7820  179.5410  140.2860 C   0  0  0  0  0  3  0  0  0  0  0  0
  179.5090  180.7290  140.3840 O   0  0  0  0  0  0  0  0  0  0  0  0
  187.3930  177.3890  143.2470 S   0  0  0  0  0  0  0  0  0  0  0  0
  186.7980  176.2100  141.9930 C   0  0  1  0  0  3  0  0  0  0  0  0
  185.8900  177.3910  139.7700 O   0  0  0  0  0  1  0  0  0  0  0  0
  188.0480  178.2660  140.8360 O   0  0  0  0  0  1  0  0  0  0  0  0
  187.4070  176.7390  140.3140 P   0  0  0  0  0  0  0  0  0  0  0  0
  187.2970  174.8790  142.2970 N   0  0  0  0  0  2  0  0  0  0  0  0
  188.7390  175.0000  142.4670 C   0  0  0  0  0  2  0  0  0  0  0  0
  190.8180  173.8360  142.2270 O   0  0  0  0  0  1  0  0  0  0  0  0
  189.4460  173.7440  141.9780 C   0  0  1  0  0  3  0  0  0  0  0  0
  188.9260  172.6160  142.6150 O   0  0  0  0  0  0  0  0  0  0  0  0
  189.6850  172.4780  143.7810 C   0  0  0  0  0  1  0  0  0  0  0  0
  187.2570  177.9000  146.8480 C   0  0  0  0  0  2  0  0  0  0  0  0
  187.3930  176.3940  147.0110 C   0  0  0  0  0  2  0  0  0  0  0  0
  188.4220  175.8360  146.0400 C   0  0  0  0  0  2  0  0  0  0  0  0
  189.8410  176.1740  146.4730 C   0  0  1  0  0  3  0  0  0  0  0  0
  192.1110  175.3700  146.2440 C   0  0  1  0  0  0  0  0  0  0  0  0
  194.5410  176.0980  146.1440 C   0  0  0  0  0  2  0  0  0  0  0  0
  190.1820  175.4390  147.7460 C   0  0  0  0  0  2  0  0  0  0  0  0
  194.8400  175.2080  144.9320 C   0  0  1  0  0  3  0  0  0  0  0  0
  192.7090  174.0470  145.7410 C   0  0  0  0  0  2  0  0  0  0  0  0
  191.6810  175.2050  147.6940 C   0  0  0  0  0  2  0  0  0  0  0  0
  193.0840  176.5550  146.1410 C   0  0  0  0  0  2  0  0  0  0  0  0
  190.8540  175.6930  145.4570 C   0  0  0  0  0  2  0  0  0  0  0  0
  193.6730  174.2640  144.5710 C   0  0  2  0  0  3  0  0  0  0  0  0
  194.7700  172.1530  144.8510 O   0  0  0  0  0  1  0  0  0  0  0  0
  194.1810  172.9500  144.0740 C   0  0  0  0  0  0  0  0  0  0  0  0
  193.9980  172.6040  142.7430 O   0  0  0  0  0  0  0  0  0  0  0  0
  195.1970  176.0840  143.7420 C   0  0  0  0  0  2  0  0  0  0  0  0
  193.8110  176.1620  142.5680 S   0  0  0  0  0  0  0  0  0  0  0  0
  194.3160  175.0910  140.0670 C   0  0  0  0  0  3  0  0  0  0  0  0
  196.2230  176.0560  141.2130 C   0  0  0  0  0  3  0  0  0  0  0  0
  195.1350  174.7590  138.9840 C   0  0  0  0  0  3  0  0  0  0  0  0
  197.0410  175.7250  140.1280 C   0  0  0  0  0  3  0  0  0  0  0  0
  194.8600  175.7370  141.1830 C   0  0  0  0  0  0  0  0  0  0  0  0
  196.4980  175.0770  139.0130 C   0  0  0  0  0  3  0  0  0  0  0  0
  1 28  1  0  0  0  0
  1  2  2  0  0  0  0
  3  4  2  0  0  0  0
  4  1  1  0  0  0  0
  5  6  1  6  0  0  0
  5  4  1  0  0  0  0
  7  6  1  0  0  0  0
  8  7  1  0  0  0  0
  9 10  1  0  0  0  0
  9  8  1  0  0  0  0
 10 11  1  1  0  0  0
 12 14  1  0  0  0  0
 12 13  1  0  0  0  0
 14 10  1  6  0  0  0
 14 13  1  0  0  0  0
 15 16  2  0  0  0  0
 15 10  1  0  0  0  0
 17  5  1  0  0  0  0
 18 22  1  1  0  0  0
 18 17  1  0  0  0  0
 19 21  1  0  0  0  0
 21 20  1  0  0  0  0
 21 18  1  0  0  0  0
 22 23  1  0  0  0  0
 25 24  1  1  0  0  0
 25 23  1  0  0  0  0
 25 26  1  0  0  0  0
 26 27  1  0  0  0  0
 28 29  1  0  0  0  0
 30 29  1  0  0  0  0
 31 30  1  6  0  0  0
 31 34  1  0  0  0  0
 32 39  1  6  0  0  0
 32 37  1  0  0  0  0
 35 44  1  6  0  0  0
 35 33  1  0  0  0  0
 36 32  1  0  0  0  0
 37 34  1  0  0  0  0
 38 33  1  0  0  0  0
 38 32  1  0  0  0  0
 39 31  1  0  0  0  0
 40 42  1  1  0  0  0
 40 35  1  0  0  0  0
 40 36  1  0  0  0  0
 42 41  1  0  0  0  0
 43 42  2  0  0  0  0
 45 44  1  0  0  0  0
 46 50  1  0  0  0  0
 48 51  1  0  0  0  0
 48 46  2  0  0  0  0
 49 47  1  0  0  0  0
 50 47  2  0  0  0  0
 50 45  1  0  0  0  0
 51 49  2  0  0  0  0
M  END
>  <MODEL>
3

>  <REMARK>
 VINA RESULT:      -5.4      4.478      9.936
  Name = 
  24 active torsions:
  status: ('A' for Active; 'I' for Inactive)
    1  A    between atoms: C_1  and  C_7
    2  A    between atoms: C_4  and  C_35
    3  A    between atoms: C_6  and  C_10
    4  A    between atoms: C_6  and  C_31
    5  A    between atoms: C_7  and  C_16
    6  A    between atoms: C_7  and  C_45
    7  A    between atoms: C_9  and  C_10
    8  A    between atoms: C_9  and  C_35
    9  A    between atoms: C_11  and  C_42
   10  A    between atoms: S_12  and  C_13
   11  A    between atoms: S_12  and  C_27
   12  A    between atoms: C_13  and  C_31
   13  A    between atoms: C_13  and  C_34
   14  A    between atoms: C_16  and  C_29
   15  A    between atoms: C_18  and  O_33
   16  A    between atoms: C_18  and  C_44
   17  A    between atoms: C_20  and  C_28
   18  A    between atoms: N_25  and  C_27
   19  A    between atoms: N_25  and  C_44
   20  A    between atoms: C_27  and  P_49
   21  A    between atoms: C_28  and  S_43
   22  A    between atoms: C_29  and  N_51
   23  A    between atoms: C_34  and  N_51
   24  A    between atoms: S_43  and  C_48
                            x       y       z     vdW  Elec       q    Type
                         _______ _______ _______ _____ _____    ______ ____

>  <TORSDO>
F 24

$$$$
=
 OpenBabel11062419003D

 51 54  0  0  1  0  0  0  0  0999 V2000
  189.4210  172.0060  142.8270 C   0  0  0  0  0  0  0  0  0  0  0  0
  189.6860  172.2370  144.1080 C   0  0  0  0  0  2  0  0  0  0  0  0
  187.3600  172.8190  141.9700 O   0  0  0  0  0  0  0  0  0  0  0  0
  188.6130  172.9620  142.0440 C   0  0  0  0  0  0  0  0  0  0  0  0
  189.2710  174.1230  141.3620 C   0  0  1  0  0  3  0  0  0  0  0  0
  189.6910  173.7710  139.9410 C   0  0  0  0  0  2  0  0  0  0  0  0
  188.5530  173.8890  139.0420 N   0  0  0  0  0  2  0  0  0  0  0  0
  189.0650  173.7350  137.6890 C   0  0  0  0  0  2  0  0  0  0  0  0
  190.3980  172.9920  137.7240 C   0  0  0  0  0  2  0  0  0  0  0  0
  190.4940  171.9030  136.6540 C   0  0  2  0  0  0  0  0  0  0  0  0
  189.2990  171.8570  135.9180 O   0  0  0  0  0  1  0  0  0  0  0  0
  189.6850  169.6940  137.2650 O   0  0  0  0  0  0  0  0  0  0  0  0
  189.8900  170.3120  138.5160 C   0  0  0  0  0  2  0  0  0  0  0  0
  190.7870  170.5670  137.3630 C   0  0  2  0  0  3  0  0  0  0  0  0
  191.6330  172.2150  135.7260 C   0  0  0  0  0  3  0  0  0  0  0  0
  191.9450  171.4420  134.8310 O   0  0  0  0  0  0  0  0  0  0  0  0
  188.1590  175.5630  141.3560 S   0  0  0  0  0  0  0  0  0  0  0  0
  188.4490  175.9360  143.1140 C   0  0  1  0  0  3  0  0  0  0  0  0
  190.9960  176.6290  142.6760 O   0  0  0  0  0  1  0  0  0  0  0  0
  189.1360  178.1000  141.7110 O   0  0  0  0  0  1  0  0  0  0  0  0
  189.5610  177.4230  143.2520 P   0  0  0  0  0  0  0  0  0  0  0  0
  187.1810  176.2100  143.7720 N   0  0  0  0  0  2  0  0  0  0  0  0
  186.2280  176.5440  142.7210 C   0  0  0  0  0  2  0  0  0  0  0  0
  186.1140  178.9220  142.9780 O   0  0  0  0  0  1  0  0  0  0  0  0
  185.3810  177.7420  143.1250 C   0  0  1  0  0  3  0  0  0  0  0  0
  184.2250  177.8040  142.3440 O   0  0  0  0  0  0  0  0  0  0  0  0
  184.6650  178.2100  141.0810 C   0  0  0  0  0  1  0  0  0  0  0  0
  190.0470  170.8230  142.1670 C   0  0  0  0  0  2  0  0  0  0  0  0
  191.5010  171.1200  141.8340 C   0  0  0  0  0  2  0  0  0  0  0  0
  192.4330  170.2220  142.6340 C   0  0  0  0  0  2  0  0  0  0  0  0
  193.0820  170.9750  143.7860 C   0  0  1  0  0  3  0  0  0  0  0  0
  194.3460  172.9890  144.2330 C   0  0  1  0  0  0  0  0  0  0  0  0
  194.8010  174.7760  145.9770 C   0  0  0  0  0  2  0  0  0  0  0  0
  194.5300  170.5700  143.9180 C   0  0  0  0  0  2  0  0  0  0  0  0
  194.6690  175.9150  144.9600 C   0  0  1  0  0  3  0  0  0  0  0  0
  195.0780  173.9900  143.3260 C   0  0  0  0  0  2  0  0  0  0  0  0
  195.2450  171.7870  144.4790 C   0  0  0  0  0  2  0  0  0  0  0  0
  193.9270  173.5880  145.5850 C   0  0  0  0  0  2  0  0  0  0  0  0
  193.1120  172.4650  143.5210 C   0  0  0  0  0  2  0  0  0  0  0  0
  194.5480  175.4160  143.5040 C   0  0  2  0  0  3  0  0  0  0  0  0
  196.3890  176.7910  142.8270 O   0  0  0  0  0  1  0  0  0  0  0  0
  195.2420  176.3430  142.5600 C   0  0  0  0  0  0  0  0  0  0  0  0
  194.6180  176.7110  141.3770 O   0  0  0  0  0  0  0  0  0  0  0  0
  193.4690  176.7760  145.3230 C   0  0  0  0  0  2  0  0  0  0  0  0
  193.2700  176.8630  147.1290 S   0  0  0  0  0  0  0  0  0  0  0  0
  190.5640  177.4400  147.0770 C   0  0  0  0  0  3  0  0  0  0  0  0
  191.1520  175.0930  146.9120 C   0  0  0  0  0  3  0  0  0  0  0  0
  189.2090  177.1050  147.0020 C   0  0  0  0  0  3  0  0  0  0  0  0
  189.7960  174.7600  146.8360 C   0  0  0  0  0  3  0  0  0  0  0  0
  191.5360  176.4340  147.0340 C   0  0  0  0  0  0  0  0  0  0  0  0
  188.8240  175.7650  146.8800 C   0  0  0  0  0  3  0  0  0  0  0  0
  1  2  2  0  0  0  0
  3  4  2  0  0  0  0
  4  1  1  0  0  0  0
  5  6  1  6  0  0  0
  5  4  1  0  0  0  0
  7  6  1  0  0  0  0
  8  9  1  0  0  0  0
  8  7  1  0  0  0  0
 10 11  1  6  0  0  0
 10  9  1  0  0  0  0
 12 14  1  0  0  0  0
 12 13  1  0  0  0  0
 14 10  1  6  0  0  0
 14 13  1  0  0  0  0
 15 10  1  0  0  0  0
 16 15  2  0  0  0  0
 17  5  1  0  0  0  0
 18 17  1  6  0  0  0
 18 21  1  0  0  0  0
 18 22  1  0  0  0  0
 19 21  1  0  0  0  0
 20 21  1  0  0  0  0
 23 25  1  0  0  0  0
 23 22  1  0  0  0  0
 25 24  1  6  0  0  0
 26 25  1  0  0  0  0
 27 26  1  0  0  0  0
 28  1  1  0  0  0  0
 29 28  1  0  0  0  0
 29 30  1  0  0  0  0
 31 30  1  6  0  0  0
 31 34  1  0  0  0  0
 32 36  1  6  0  0  0
 32 37  1  0  0  0  0
 32 38  1  0  0  0  0
 34 37  1  0  0  0  0
 35 44  1  1  0  0  0
 35 33  1  0  0  0  0
 36 40  1  0  0  0  0
 38 33  1  0  0  0  0
 39 31  1  0  0  0  0
 39 32  1  0  0  0  0
 40 42  1  6  0  0  0
 40 35  1  0  0  0  0
 42 41  1  0  0  0  0
 43 42  2  0  0  0  0
 44 45  1  0  0  0  0
 47 50  2  0  0  0  0
 48 46  2  0  0  0  0
 49 51  2  0  0  0  0
 49 47  1  0  0  0  0
 50 46  1  0  0  0  0
 50 45  1  0  0  0  0
 51 48  1  0  0  0  0
M  END
>  <MODEL>
4

>  <REMARK>
 VINA RESULT:      -5.4      3.468      7.229
  Name = 
  24 active torsions:
  status: ('A' for Active; 'I' for Inactive)
    1  A    between atoms: C_1  and  C_7
    2  A    between atoms: C_4  and  C_35
    3  A    between atoms: C_6  and  C_10
    4  A    between atoms: C_6  and  C_31
    5  A    between atoms: C_7  and  C_16
    6  A    between atoms: C_7  and  C_45
    7  A    between atoms: C_9  and  C_10
    8  A    between atoms: C_9  and  C_35
    9  A    between atoms: C_11  and  C_42
   10  A    between atoms: S_12  and  C_13
   11  A    between atoms: S_12  and  C_27
   12  A    between atoms: C_13  and  C_31
   13  A    between atoms: C_13  and  C_34
   14  A    between atoms: C_16  and  C_29
   15  A    between atoms: C_18  and  O_33
   16  A    between atoms: C_18  and  C_44
   17  A    between atoms: C_20  and  C_28
   18  A    between atoms: N_25  and  C_27
   19  A    between atoms: N_25  and  C_44
   20  A    between atoms: C_27  and  P_49
   21  A    between atoms: C_28  and  S_43
   22  A    between atoms: C_29  and  N_51
   23  A    between atoms: C_34  and  N_51
   24  A    between atoms: S_43  and  C_48
                            x       y       z     vdW  Elec       q    Type
                         _______ _______ _______ _____ _____    ______ ____

>  <TORSDO>
F 24

$$$$
=
 OpenBabel11062419003D

 51 54  0  0  1  0  0  0  0  0999 V2000
  190.7200  171.7400  142.9830 C   0  0  0  0  0  0  0  0  0  0  0  0
  190.4890  171.8170  144.2880 C   0  0  0  0  0  2  0  0  0  0  0  0
  191.3400  173.8850  142.1720 O   0  0  0  0  0  0  0  0  0  0  0  0
  190.5280  172.9190  142.1160 C   0  0  0  0  0  0  0  0  0  0  0  0
  189.3890  172.9610  141.1430 C   0  0  1  0  0  3  0  0  0  0  0  0
  188.1720  173.6560  141.7380 C   0  0  0  0  0  2  0  0  0  0  0  0
  188.3050  175.0990  141.5980 N   0  0  0  0  0  2  0  0  0  0  0  0
  187.1850  175.6980  142.3100 C   0  0  0  0  0  2  0  0  0  0  0  0
  187.6990  176.7590  143.2790 C   0  0  0  0  0  2  0  0  0  0  0  0
  186.6280  177.2220  144.2680 C   0  0  2  0  0  0  0  0  0  0  0  0
  185.4630  176.4570  144.0950 O   0  0  0  0  0  1  0  0  0  0  0  0
  185.0530  179.0710  144.3620 O   0  0  0  0  0  0  0  0  0  0  0  0
  185.3460  178.9770  142.9860 C   0  0  0  0  0  2  0  0  0  0  0  0
  186.3750  178.7220  144.0230 C   0  0  2  0  0  3  0  0  0  0  0  0
  187.1330  177.0420  145.6710 C   0  0  0  0  0  3  0  0  0  0  0  0
  186.9490  177.9020  146.5210 O   0  0  0  0  0  0  0  0  0  0  0  0
  189.9020  173.7880  139.6060 S   0  0  0  0  0  0  0  0  0  0  0  0
  191.0170  172.4330  139.1170 C   0  0  1  0  0  3  0  0  0  0  0  0
  191.4160  170.7020  137.1160 O   0  0  0  0  0  1  0  0  0  0  0  0
  190.2220  169.8880  139.2300 O   0  0  0  0  0  1  0  0  0  0  0  0
  190.0690  171.1960  138.0980 P   0  0  0  0  0  0  0  0  0  0  0  0
  192.1220  172.9670  138.3370 N   0  0  0  0  0  2  0  0  0  0  0  0
  192.6360  174.1160  139.0700 C   0  0  0  0  0  2  0  0  0  0  0  0
  194.6270  173.3110  138.0110 O   0  0  0  0  0  1  0  0  0  0  0  0
  194.0720  174.4140  138.6640 C   0  0  1  0  0  3  0  0  0  0  0  0
  194.1180  175.5310  137.8270 O   0  0  0  0  0  0  0  0  0  0  0  0
  195.0250  175.1880  136.8190 C   0  0  0  0  0  1  0  0  0  0  0  0
  191.2820  170.4730  142.4280 C   0  0  0  0  0  2  0  0  0  0  0  0
  192.7240  170.6880  141.9950 C   0  0  0  0  0  2  0  0  0  0  0  0
  193.6810  169.9560  142.9240 C   0  0  0  0  0  2  0  0  0  0  0  0
  194.1340  170.8440  144.0740 C   0  0  1  0  0  3  0  0  0  0  0  0
  195.2920  172.9270  144.4880 C   0  0  1  0  0  0  0  0  0  0  0  0
  195.4500  174.9010  146.0770 C   0  0  0  0  0  2  0  0  0  0  0  0
  195.5470  170.4950  144.4720 C   0  0  0  0  0  2  0  0  0  0  0  0
  195.4690  175.9220  144.9330 C   0  0  1  0  0  3  0  0  0  0  0  0
  196.1480  173.8460  143.6020 C   0  0  0  0  0  2  0  0  0  0  0  0
  196.1530  171.7820  145.0010 C   0  0  0  0  0  2  0  0  0  0  0  0
  194.6600  173.6550  145.6860 C   0  0  0  0  0  2  0  0  0  0  0  0
  194.1910  172.2980  143.6550 C   0  0  0  0  0  2  0  0  0  0  0  0
  195.5830  175.2670  143.5400 C   0  0  2  0  0  3  0  0  0  0  0  0
  196.3890  175.9070  141.3770 O   0  0  0  0  0  0  0  0  0  0  0  0
  196.4080  176.1080  142.6200 C   0  0  0  0  0  0  0  0  0  0  0  0
  197.1990  177.1210  143.1420 O   0  0  0  0  0  1  0  0  0  0  0  0
  194.2180  176.7830  145.0100 C   0  0  0  0  0  2  0  0  0  0  0  0
  193.7750  177.1130  146.7430 S   0  0  0  0  0  0  0  0  0  0  0  0
  191.5560  175.7940  147.7380 C   0  0  0  0  0  3  0  0  0  0  0  0
  191.6660  176.0140  145.3260 C   0  0  0  0  0  3  0  0  0  0  0  0
  190.3410  175.1140  147.6210 C   0  0  0  0  0  3  0  0  0  0  0  0
  190.4490  175.3340  145.2100 C   0  0  0  0  0  3  0  0  0  0  0  0
  192.2210  176.2420  146.5910 C   0  0  0  0  0  0  0  0  0  0  0  0
  189.7860  174.8850  146.3560 C   0  0  0  0  0  3  0  0  0  0  0  0
  1  2  2  0  0  0  0
  4  3  2  0  0  0  0
  4  1  1  0  0  0  0
  5  6  1  1  0  0  0
  5  4  1  0  0  0  0
  7  6  1  0  0  0  0
  7  8  1  0  0  0  0
  8  9  1  0  0  0  0
  9 10  1  0  0  0  0
 10 11  1  6  0  0  0
 10 15  1  0  0  0  0
 13 14  1  0  0  0  0
 13 12  1  0  0  0  0
 14 10  1  1  0  0  0
 14 12  1  0  0  0  0
 15 16  2  0  0  0  0
 17  5  1  0  0  0  0
 18 22  1  6  0  0  0
 18 17  1  0  0  0  0
 19 21  1  0  0  0  0
 21 18  1  0  0  0  0
 21 20  1  0  0  0  0
 22 23  1  0  0  0  0
 25 24  1  6  0  0  0
 25 23  1  0  0  0  0
 26 25  1  0  0  0  0
 27 26  1  0  0  0  0
 28  1  1  0  0  0  0
 29 28  1  0  0  0  0
 29 30  1  0  0  0  0
 31 30  1  6  0  0  0
 31 34  1  0  0  0  0
 32 36  1  6  0  0  0
 32 37  1  0  0  0  0
 32 38  1  0  0  0  0
 34 37  1  0  0  0  0
 35 44  1  6  0  0  0
 35 33  1  0  0  0  0
 38 33  1  0  0  0  0
 39 31  1  0  0  0  0
 39 32  1  0  0  0  0
 40 42  1  6  0  0  0
 40 36  1  0  0  0  0
 40 35  1  0  0  0  0
 41 42  2  0  0  0  0
 42 43  1  0  0  0  0
 44 45  1  0  0  0  0
 47 50  1  0  0  0  0
 48 46  1  0  0  0  0
 49 47  2  0  0  0  0
 49 51  1  0  0  0  0
 50 45  1  0  0  0  0
 50 46  2  0  0  0  0
 51 48  2  0  0  0  0
M  END
>  <MODEL>
5

>  <REMARK>
 VINA RESULT:      -5.1      2.926      7.504
  Name = 
  24 active torsions:
  status: ('A' for Active; 'I' for Inactive)
    1  A    between atoms: C_1  and  C_7
    2  A    between atoms: C_4  and  C_35
    3  A    between atoms: C_6  and  C_10
    4  A    between atoms: C_6  and  C_31
    5  A    between atoms: C_7  and  C_16
    6  A    between atoms: C_7  and  C_45
    7  A    between atoms: C_9  and  C_10
    8  A    between atoms: C_9  and  C_35
    9  A    between atoms: C_11  and  C_42
   10  A    between atoms: S_12  and  C_13
   11  A    between atoms: S_12  and  C_27
   12  A    between atoms: C_13  and  C_31
   13  A    between atoms: C_13  and  C_34
   14  A    between atoms: C_16  and  C_29
   15  A    between atoms: C_18  and  O_33
   16  A    between atoms: C_18  and  C_44
   17  A    between atoms: C_20  and  C_28
   18  A    between atoms: N_25  and  C_27
   19  A    between atoms: N_25  and  C_44
   20  A    between atoms: C_27  and  P_49
   21  A    between atoms: C_28  and  S_43
   22  A    between atoms: C_29  and  N_51
   23  A    between atoms: C_34  and  N_51
   24  A    between atoms: S_43  and  C_48
                            x       y       z     vdW  Elec       q    Type
                         _______ _______ _______ _____ _____    ______ ____

>  <TORSDO>
F 24

$$$$
=
 OpenBabel11062419003D

 51 54  0  0  1  0  0  0  0  0999 V2000
  192.1090  172.9920  140.5130 C   0  0  0  0  0  0  0  0  0  0  0  0
  191.6040  174.2120  140.6510 C   0  0  0  0  0  2  0  0  0  0  0  0
  194.1600  172.2510  141.4570 O   0  0  0  0  0  0  0  0  0  0  0  0
  193.5700  172.7840  140.4750 C   0  0  0  0  0  0  0  0  0  0  0  0
  194.3540  173.1740  139.2580 C   0  0  1  0  0  3  0  0  0  0  0  0
  195.4070  174.2240  139.5870 C   0  0  0  0  0  2  0  0  0  0  0  0
  194.7640  175.4720  139.9700 N   0  0  0  0  0  2  0  0  0  0  0  0
  195.5900  176.0730  141.0060 C   0  0  0  0  0  2  0  0  0  0  0  0
  194.8430  176.0540  142.3370 C   0  0  0  0  0  2  0  0  0  0  0  0
  195.7190  175.5840  143.4980 C   0  0  2  0  0  0  0  0  0  0  0  0
  195.3730  174.2690  143.8490 O   0  0  0  0  0  1  0  0  0  0  0  0
  194.9040  175.9240  145.7640 O   0  0  0  0  0  0  0  0  0  0  0  0
  194.0920  176.7900  145.0030 C   0  0  0  0  0  2  0  0  0  0  0  0
  195.5190  176.5650  144.6700 C   0  0  2  0  0  3  0  0  0  0  0  0
  197.1620  175.6190  143.0820 C   0  0  0  0  0  3  0  0  0  0  0  0
  197.9410  174.7470  143.4390 O   0  0  0  0  0  0  0  0  0  0  0  0
  195.1320  171.7080  138.5130 S   0  0  0  0  0  0  0  0  0  0  0  0
  194.7950  172.2570  136.8090 C   0  0  1  0  0  3  0  0  0  0  0  0
  196.2560  173.6880  135.0830 O   0  0  0  0  0  1  0  0  0  0  0  0
  197.4320  172.5780  137.0680 O   0  0  0  0  0  1  0  0  0  0  0  0
  196.3500  172.1050  135.7960 P   0  0  0  0  0  0  0  0  0  0  0  0
  193.7490  171.4330  136.2270 N   0  0  0  0  0  2  0  0  0  0  0  0
  193.1020  172.2400  135.2010 C   0  0  0  0  0  2  0  0  0  0  0  0
  191.2860  171.7900  136.6950 O   0  0  0  0  0  1  0  0  0  0  0  0
  191.6670  172.5600  135.5940 C   0  0  1  0  0  3  0  0  0  0  0  0
  191.5390  173.9170  135.9000 O   0  0  0  0  0  0  0  0  0  0  0  0
  190.4940  173.9790  136.8270 C   0  0  0  0  0  1  0  0  0  0  0  0
  191.1760  171.8270  140.5100 C   0  0  0  0  0  2  0  0  0  0  0  0
  190.0090  172.0900  141.4480 C   0  0  0  0  0  2  0  0  0  0  0  0
  190.1070  171.2170  142.6900 C   0  0  0  0  0  2  0  0  0  0  0  0
  190.4510  172.0370  143.9240 C   0  0  1  0  0  3  0  0  0  0  0  0
  190.8400  174.3250  144.6050 C   0  0  1  0  0  0  0  0  0  0  0  0
  190.6230  175.9500  146.5430 C   0  0  0  0  0  2  0  0  0  0  0  0
  191.9450  172.2230  144.0210 C   0  0  0  0  0  2  0  0  0  0  0  0
  190.0170  177.0470  145.6600 C   0  0  1  0  0  3  0  0  0  0  0  0
  191.0860  175.6250  143.8220 C   0  0  0  0  0  2  0  0  0  0  0  0
  192.1470  173.5550  144.7200 C   0  0  0  0  0  2  0  0  0  0  0  0
  190.2710  174.5630  146.0130 C   0  0  0  0  0  2  0  0  0  0  0  0
  189.8850  173.4370  143.8290 C   0  0  0  0  0  2  0  0  0  0  0  0
  190.0470  176.6980  144.1560 C   0  0  2  0  0  3  0  0  0  0  0  0
  191.1990  178.7330  143.6320 O   0  0  0  0  0  1  0  0  0  0  0  0
  190.2870  177.9190  143.3280 C   0  0  0  0  0  0  0  0  0  0  0  0
  189.4970  178.1560  142.2120 O   0  0  0  0  0  0  0  0  0  0  0  0
  188.5910  177.3210  146.1090 C   0  0  0  0  0  2  0  0  0  0  0  0
  187.4250  176.2370  145.2290 S   0  0  0  0  0  0  0  0  0  0  0  0
  186.4400  178.4670  143.9190 C   0  0  0  0  0  3  0  0  0  0  0  0
  185.1600  177.7100  145.8340 C   0  0  0  0  0  3  0  0  0  0  0  0
  185.5280  179.5070  143.7210 C   0  0  0  0  0  3  0  0  0  0  0  0
  184.2480  178.7510  145.6350 C   0  0  0  0  0  3  0  0  0  0  0  0
  186.2580  177.5690  144.9780 C   0  0  0  0  0  0  0  0  0  0  0  0
  184.4300  179.6490  144.5780 C   0  0  0  0  0  3  0  0  0  0  0  0
  1  2  2  0  0  0  0
  4  1  1  0  0  0  0
  4  3  2  0  0  0  0
  5  6  1  1  0  0  0
  5  4  1  0  0  0  0
  6  7  1  0  0  0  0
  7  8  1  0  0  0  0
  8  9  1  0  0  0  0
  9 10  1  0  0  0  0
 10 11  1  1  0  0  0
 13 12  1  0  0  0  0
 14 10  1  6  0  0  0
 14 13  1  0  0  0  0
 14 12  1  0  0  0  0
 15 16  2  0  0  0  0
 15 10  1  0  0  0  0
 17  5  1  0  0  0  0
 18 22  1  6  0  0  0
 18 17  1  0  0  0  0
 19 21  1  0  0  0  0
 21 18  1  0  0  0  0
 21 20  1  0  0  0  0
 23 25  1  0  0  0  0
 23 22  1  0  0  0  0
 25 26  1  0  0  0  0
 25 24  1  1  0  0  0
 26 27  1  0  0  0  0
 28  1  1  0  0  0  0
 28 29  1  0  0  0  0
 29 30  1  0  0  0  0
 31 30  1  6  0  0  0
 31 34  1  0  0  0  0
 32 36  1  6  0  0  0
 32 37  1  0  0  0  0
 32 38  1  0  0  0  0
 34 37  1  0  0  0  0
 35 44  1  1  0  0  0
 35 33  1  0  0  0  0
 36 40  1  0  0  0  0
 38 33  1  0  0  0  0
 39 31  1  0  0  0  0
 39 32  1  0  0  0  0
 40 42  1  6  0  0  0
 40 35  1  0  0  0  0
 42 41  1  0  0  0  0
 43 42  2  0  0  0  0
 45 44  1  0  0  0  0
 46 50  1  0  0  0  0
 48 46  2  0  0  0  0
 48 51  1  0  0  0  0
 49 47  1  0  0  0  0
 50 45  1  0  0  0  0
 50 47  2  0  0  0  0
 51 49  2  0  0  0  0
M  END
>  <MODEL>
6

>  <REMARK>
 VINA RESULT:      -5.0      2.560      5.739
  Name = 
  24 active torsions:
  status: ('A' for Active; 'I' for Inactive)
    1  A    between atoms: C_1  and  C_7
    2  A    between atoms: C_4  and  C_35
    3  A    between atoms: C_6  and  C_10
    4  A    between atoms: C_6  and  C_31
    5  A    between atoms: C_7  and  C_16
    6  A    between atoms: C_7  and  C_45
    7  A    between atoms: C_9  and  C_10
    8  A    between atoms: C_9  and  C_35
    9  A    between atoms: C_11  and  C_42
   10  A    between atoms: S_12  and  C_13
   11  A    between atoms: S_12  and  C_27
   12  A    between atoms: C_13  and  C_31
   13  A    between atoms: C_13  and  C_34
   14  A    between atoms: C_16  and  C_29
   15  A    between atoms: C_18  and  O_33
   16  A    between atoms: C_18  and  C_44
   17  A    between atoms: C_20  and  C_28
   18  A    between atoms: N_25  and  C_27
   19  A    between atoms: N_25  and  C_44
   20  A    between atoms: C_27  and  P_49
   21  A    between atoms: C_28  and  S_43
   22  A    between atoms: C_29  and  N_51
   23  A    between atoms: C_34  and  N_51
   24  A    between atoms: S_43  and  C_48
                            x       y       z     vdW  Elec       q    Type
                         _______ _______ _______ _____ _____    ______ ____

>  <TORSDO>
F 24

$$$$
=
 OpenBabel11062419003D

 51 54  0  0  1  0  0  0  0  0999 V2000
  194.8280  175.4500  145.0200 C   0  0  0  0  0  0  0  0  0  0  0  0
  195.2080  174.4070  145.7480 C   0  0  0  0  0  2  0  0  0  0  0  0
  196.1670  176.8770  143.6730 O   0  0  0  0  0  0  0  0  0  0  0  0
  195.5330  175.7890  143.7680 C   0  0  0  0  0  0  0  0  0  0  0  0
  195.5280  174.8280  142.6170 C   0  0  1  0  0  3  0  0  0  0  0  0
  194.3890  175.1220  141.6500 C   0  0  0  0  0  2  0  0  0  0  0  0
  193.3250  175.8370  142.3380 N   0  0  0  0  0  2  0  0  0  0  0  0
  192.0800  175.1550  142.0140 C   0  0  0  0  0  2  0  0  0  0  0  0
  192.3800  173.8800  141.2300 C   0  0  0  0  0  2  0  0  0  0  0  0
  191.1610  172.9640  141.1060 C   0  0  2  0  0  0  0  0  0  0  0  0
  191.1760  172.3260  139.8540 O   0  0  0  0  0  1  0  0  0  0  0  0
  188.9660  173.1740  142.1290 O   0  0  0  0  0  0  0  0  0  0  0  0
  188.6740  173.1950  140.7490 C   0  0  0  0  0  2  0  0  0  0  0  0
  189.8990  173.8260  141.2980 C   0  0  2  0  0  3  0  0  0  0  0  0
  191.2040  171.9260  142.1890 C   0  0  0  0  0  3  0  0  0  0  0  0
  191.6730  170.8160  141.9790 O   0  0  0  0  0  0  0  0  0  0  0  0
  197.1260  174.8760  141.7490 S   0  0  0  0  0  0  0  0  0  0  0  0
  196.5390  173.8320  140.3770 C   0  0  1  0  0  3  0  0  0  0  0  0
  196.9850  172.7780  137.9580 O   0  0  0  0  0  1  0  0  0  0  0  0
  196.6510  175.3090  138.1560 O   0  0  0  0  0  1  0  0  0  0  0  0
  197.6390  174.0880  138.8960 P   0  0  0  0  0  0  0  0  0  0  0  0
  196.5720  172.4340  140.7760 N   0  0  0  0  0  2  0  0  0  0  0  0
  197.8330  172.2290  141.4770 C   0  0  0  0  0  2  0  0  0  0  0  0
  197.2410  171.7550  143.7490 O   0  0  0  0  0  1  0  0  0  0  0  0
  197.6800  171.1690  142.5590 C   0  0  1  0  0  3  0  0  0  0  0  0
  196.7730  170.1880  142.1530 O   0  0  0  0  0  0  0  0  0  0  0  0
  196.0750  169.8420  143.3130 C   0  0  0  0  0  1  0  0  0  0  0  0
  193.6080  176.2060  145.4320 C   0  0  0  0  0  2  0  0  0  0  0  0
  193.4240  176.1170  146.9390 C   0  0  0  0  0  2  0  0  0  0  0  0
  192.0710  176.6770  147.3520 C   0  0  0  0  0  2  0  0  0  0  0  0
  190.9640  176.2120  146.4180 C   0  0  1  0  0  3  0  0  0  0  0  0
  188.5850  176.4640  146.0610 C   0  0  1  0  0  0  0  0  0  0  0  0
  186.7730  176.5000  144.2830 C   0  0  0  0  0  2  0  0  0  0  0  0
  190.2980  174.9800  146.9780 C   0  0  0  0  0  2  0  0  0  0  0  0
  186.1160  177.7570  144.8640 C   0  0  1  0  0  3  0  0  0  0  0  0
  187.4490  177.0370  146.9240 C   0  0  0  0  0  2  0  0  0  0  0  0
  188.8630  175.0310  146.4860 C   0  0  0  0  0  2  0  0  0  0  0  0
  188.2750  176.4910  144.5560 C   0  0  0  0  0  2  0  0  0  0  0  0
  189.8610  177.2440  146.3170 C   0  0  0  0  0  2  0  0  0  0  0  0
  186.7180  178.1820  146.2200 C   0  0  2  0  0  3  0  0  0  0  0  0
  184.5080  178.2550  147.1430 O   0  0  0  0  0  0  0  0  0  0  0  0
  185.6660  178.7490  147.1190 C   0  0  0  0  0  0  0  0  0  0  0  0
  185.9720  179.8280  147.9360 O   0  0  0  0  0  1  0  0  0  0  0  0
  186.2280  178.8920  143.8580 C   0  0  0  0  0  2  0  0  0  0  0  0
  186.5410  178.2380  142.1910 S   0  0  0  0  0  0  0  0  0  0  0  0
  184.3870  177.8880  140.4880 C   0  0  0  0  0  3  0  0  0  0  0  0
  183.8570  178.6520  142.7280 C   0  0  0  0  0  3  0  0  0  0  0  0
  183.0290  177.9060  140.1610 C   0  0  0  0  0  3  0  0  0  0  0  0
  182.4980  178.6680  142.3990 C   0  0  0  0  0  3  0  0  0  0  0  0
  184.8020  178.2630  141.7720 C   0  0  0  0  0  0  0  0  0  0  0  0
  182.0830  178.2950  141.1160 C   0  0  0  0  0  3  0  0  0  0  0  0
  1 28  1  0  0  0  0
  1  2  2  0  0  0  0
  3  4  2  0  0  0  0
  4  1  1  0  0  0  0
  5  6  1  6  0  0  0
  5  4  1  0  0  0  0
  6  7  1  0  0  0  0
  8  7  1  0  0  0  0
  9  8  1  0  0  0  0
 10 11  1  6  0  0  0
 10  9  1  0  0  0  0
 10 15  1  0  0  0  0
 13 14  1  0  0  0  0
 13 12  1  0  0  0  0
 14 10  1  6  0  0  0
 14 12  1  0  0  0  0
 16 15  2  0  0  0  0
 17  5  1  0  0  0  0
 18 22  1  1  0  0  0
 18 17  1  0  0  0  0
 19 21  1  0  0  0  0
 20 21  1  0  0  0  0
 21 18  1  0  0  0  0
 22 23  1  0  0  0  0
 23 25  1  0  0  0  0
 25 24  1  1  0  0  0
 26 25  1  0  0  0  0
 26 27  1  0  0  0  0
 28 29  1  0  0  0  0
 29 30  1  0  0  0  0
 31 34  1  0  0  0  0
 31 30  1  1  0  0  0
 32 38  1  6  0  0  0
 32 39  1  0  0  0  0
 32 37  1  0  0  0  0
 32 36  1  0  0  0  0
 33 38  1  0  0  0  0
 33 35  1  0  0  0  0
 35 44  1  6  0  0  0
 35 40  1  0  0  0  0
 37 34  1  0  0  0  0
 39 31  1  0  0  0  0
 40 36  1  0  0  0  0
 40 42  1  1  0  0  0
 42 41  2  0  0  0  0
 42 43  1  0  0  0  0
 45 44  1  0  0  0  0
 46 50  1  0  0  0  0
 48 46  2  0  0  0  0
 48 51  1  0  0  0  0
 49 47  1  0  0  0  0
 50 45  1  0  0  0  0
 50 47  2  0  0  0  0
 51 49  2  0  0  0  0
M  END
>  <MODEL>
7

>  <REMARK>
 VINA RESULT:      -4.8      2.856      4.191
  Name = 
  24 active torsions:
  status: ('A' for Active; 'I' for Inactive)
    1  A    between atoms: C_1  and  C_7
    2  A    between atoms: C_4  and  C_35
    3  A    between atoms: C_6  and  C_10
    4  A    between atoms: C_6  and  C_31
    5  A    between atoms: C_7  and  C_16
    6  A    between atoms: C_7  and  C_45
    7  A    between atoms: C_9  and  C_10
    8  A    between atoms: C_9  and  C_35
    9  A    between atoms: C_11  and  C_42
   10  A    between atoms: S_12  and  C_13
   11  A    between atoms: S_12  and  C_27
   12  A    between atoms: C_13  and  C_31
   13  A    between atoms: C_13  and  C_34
   14  A    between atoms: C_16  and  C_29
   15  A    between atoms: C_18  and  O_33
   16  A    between atoms: C_18  and  C_44
   17  A    between atoms: C_20  and  C_28
   18  A    between atoms: N_25  and  C_27
   19  A    between atoms: N_25  and  C_44
   20  A    between atoms: C_27  and  P_49
   21  A    between atoms: C_28  and  S_43
   22  A    between atoms: C_29  and  N_51
   23  A    between atoms: C_34  and  N_51
   24  A    between atoms: S_43  and  C_48
                            x       y       z     vdW  Elec       q    Type
                         _______ _______ _______ _____ _____    ______ ____

>  <TORSDO>
F 24

$$$$
=
 OpenBabel11062419003D

 51 54  0  0  1  0  0  0  0  0999 V2000
  193.3250  175.6400  142.4170 C   0  0  0  0  0  0  0  0  0  0  0  0
  194.4420  176.3510  142.3060 C   0  0  0  0  0  2  0  0  0  0  0  0
  192.9660  173.5540  143.4960 O   0  0  0  0  0  0  0  0  0  0  0  0
  193.3770  174.1660  142.4700 C   0  0  0  0  0  0  0  0  0  0  0  0
  193.8850  173.3880  141.2930 C   0  0  1  0  0  3  0  0  0  0  0  0
  195.3030  172.8850  141.5280 C   0  0  0  0  0  2  0  0  0  0  0  0
  195.4140  171.4950  141.1120 N   0  0  0  0  0  2  0  0  0  0  0  0
  196.2430  170.8220  142.1010 C   0  0  0  0  0  2  0  0  0  0  0  0
  195.8060  171.2320  143.5040 C   0  0  0  0  0  2  0  0  0  0  0  0
  195.7140  170.0450  144.4640 C   0  0  2  0  0  0  0  0  0  0  0  0
  195.8610  168.8460  143.7470 O   0  0  0  0  0  1  0  0  0  0  0  0
  193.8550  168.8330  145.4560 O   0  0  0  0  0  0  0  0  0  0  0  0
  193.2440  169.5350  144.3970 C   0  0  0  0  0  2  0  0  0  0  0  0
  194.3550  170.1220  145.1850 C   0  0  2  0  0  3  0  0  0  0  0  0
  196.8080  170.1440  145.4880 C   0  0  0  0  0  3  0  0  0  0  0  0
  197.9380  170.4890  145.1710 O   0  0  0  0  0  0  0  0  0  0  0  0
  192.7720  171.9960  140.9290 S   0  0  0  0  0  0  0  0  0  0  0  0
  192.3750  172.6040  139.2590 C   0  0  1  0  0  3  0  0  0  0  0  0
  190.6740  171.8890  137.3210 O   0  0  0  0  0  1  0  0  0  0  0  0
  193.1860  171.5750  136.9330 O   0  0  0  0  0  1  0  0  0  0  0  0
  192.0170  171.1550  138.1460 P   0  0  0  0  0  0  0  0  0  0  0  0
  191.2130  173.4760  139.3180 N   0  0  0  0  0  2  0  0  0  0  0  0
  190.4580  173.0860  140.5020 C   0  0  0  0  0  2  0  0  0  0  0  0
  188.5350  174.0670  139.4660 O   0  0  0  0  0  1  0  0  0  0  0  0
  189.2320  173.9710  140.6730 C   0  0  1  0  0  3  0  0  0  0  0  0
  188.3930  173.4530  141.6620 O   0  0  0  0  0  0  0  0  0  0  0  0
  189.1370  173.5330  142.8430 C   0  0  0  0  0  1  0  0  0  0  0  0
  192.0320  176.3620  142.5990 C   0  0  0  0  0  2  0  0  0  0  0  0
  192.1960  177.4790  143.6180 C   0  0  0  0  0  2  0  0  0  0  0  0
  191.7010  177.0380  144.9880 C   0  0  0  0  0  2  0  0  0  0  0  0
  190.3490  176.3470  144.8990 C   0  0  1  0  0  3  0  0  0  0  0  0
  188.0990  176.5140  145.7710 C   0  0  1  0  0  0  0  0  0  0  0  0
  185.6560  176.0820  145.2310 C   0  0  0  0  0  2  0  0  0  0  0  0
  190.2200  175.3180  145.9940 C   0  0  0  0  0  2  0  0  0  0  0  0
  185.2160  177.4550  145.7520 C   0  0  1  0  0  3  0  0  0  0  0  0
  187.4800  177.3080  146.9320 C   0  0  0  0  0  2  0  0  0  0  0  0
  188.7380  175.2460  146.3160 C   0  0  0  0  0  2  0  0  0  0  0  0
  187.0800  176.1350  144.6840 C   0  0  0  0  0  2  0  0  0  0  0  0
  189.2170  177.3230  145.1400 C   0  0  0  0  0  2  0  0  0  0  0  0
  186.3510  178.2270  146.4580 C   0  0  2  0  0  3  0  0  0  0  0  0
  184.5950  179.0090  147.8880 O   0  0  0  0  0  0  0  0  0  0  0  0
  185.8220  179.0250  147.6060 C   0  0  0  0  0  0  0  0  0  0  0  0
  186.6940  179.7870  148.3710 O   0  0  0  0  0  1  0  0  0  0  0  0
  184.6610  178.2750  144.5970 C   0  0  0  0  0  2  0  0  0  0  0  0
  185.8580  179.5420  144.0810 S   0  0  0  0  0  0  0  0  0  0  0  0
  187.4840  178.3010  142.2170 C   0  0  0  0  0  3  0  0  0  0  0  0
  185.1360  178.4660  141.6340 C   0  0  0  0  0  3  0  0  0  0  0  0
  187.7390  177.6510  141.0060 C   0  0  0  0  0  3  0  0  0  0  0  0
  185.3920  177.8140  140.4240 C   0  0  0  0  0  3  0  0  0  0  0  0
  186.1830  178.7120  142.5300 C   0  0  0  0  0  0  0  0  0  0  0  0
  186.6930  177.4060  140.1090 C   0  0  0  0  0  3  0  0  0  0  0  0
  1  4  1  0  0  0  0
  1 28  1  0  0  0  0
  2  1  2  0  0  0  0
  4  3  2  0  0  0  0
  5  6  1  1  0  0  0
  5  4  1  0  0  0  0
  7  6  1  0  0  0  0
  7  8  1  0  0  0  0
  8  9  1  0  0  0  0
  9 10  1  0  0  0  0
 10 11  1  6  0  0  0
 10 15  1  0  0  0  0
 13 14  1  0  0  0  0
 13 12  1  0  0  0  0
 14 10  1  6  0  0  0
 14 12  1  0  0  0  0
 16 15  2  0  0  0  0
 17  5  1  0  0  0  0
 18 22  1  1  0  0  0
 18 17  1  0  0  0  0
 19 21  1  0  0  0  0
 20 21  1  0  0  0  0
 21 18  1  0  0  0  0
 22 23  1  0  0  0  0
 23 25  1  0  0  0  0
 25 24  1  6  0  0  0
 25 26  1  0  0  0  0
 26 27  1  0  0  0  0
 28 29  1  0  0  0  0
 29 30  1  0  0  0  0
 31 30  1  1  0  0  0
 31 39  1  0  0  0  0
 31 34  1  0  0  0  0
 32 38  1  6  0  0  0
 32 37  1  0  0  0  0
 32 36  1  0  0  0  0
 33 35  1  0  0  0  0
 34 37  1  0  0  0  0
 35 44  1  6  0  0  0
 35 40  1  0  0  0  0
 38 33  1  0  0  0  0
 39 32  1  0  0  0  0
 40 36  1  0  0  0  0
 40 42  1  1  0  0  0
 42 41  2  0  0  0  0
 42 43  1  0  0  0  0
 45 44  1  0  0  0  0
 46 50  1  0  0  0  0
 47 50  2  0  0  0  0
 48 46  2  0  0  0  0
 49 47  1  0  0  0  0
 50 45  1  0  0  0  0
 51 49  2  0  0  0  0
 51 48  1  0  0  0  0
M  END
>  <MODEL>
8

>  <REMARK>
 VINA RESULT:      -4.8      2.848      5.719
  Name = 
  24 active torsions:
  status: ('A' for Active; 'I' for Inactive)
    1  A    between atoms: C_1  and  C_7
    2  A    between atoms: C_4  and  C_35
    3  A    between atoms: C_6  and  C_10
    4  A    between atoms: C_6  and  C_31
    5  A    between atoms: C_7  and  C_16
    6  A    between atoms: C_7  and  C_45
    7  A    between atoms: C_9  and  C_10
    8  A    between atoms: C_9  and  C_35
    9  A    between atoms: C_11  and  C_42
   10  A    between atoms: S_12  and  C_13
   11  A    between atoms: S_12  and  C_27
   12  A    between atoms: C_13  and  C_31
   13  A    between atoms: C_13  and  C_34
   14  A    between atoms: C_16  and  C_29
   15  A    between atoms: C_18  and  O_33
   16  A    between atoms: C_18  and  C_44
   17  A    between atoms: C_20  and  C_28
   18  A    between atoms: N_25  and  C_27
   19  A    between atoms: N_25  and  C_44
   20  A    between atoms: C_27  and  P_49
   21  A    between atoms: C_28  and  S_43
   22  A    between atoms: C_29  and  N_51
   23  A    between atoms: C_34  and  N_51
   24  A    between atoms: S_43  and  C_48
                            x       y       z     vdW  Elec       q    Type
                         _______ _______ _______ _____ _____    ______ ____

>  <TORSDO>
F 24

$$$$
=
 OpenBabel11062419003D

 51 54  0  0  1  0  0  0  0  0999 V2000
  194.9580  174.7460  144.5540 C   0  0  0  0  0  0  0  0  0  0  0  0
  195.0960  173.7260  145.3930 C   0  0  0  0  0  2  0  0  0  0  0  0
  196.5460  174.2070  142.8710 O   0  0  0  0  0  0  0  0  0  0  0  0
  195.3850  174.6230  143.1470 C   0  0  0  0  0  0  0  0  0  0  0  0
  194.4330  174.9610  142.0390 C   0  0  1  0  0  3  0  0  0  0  0  0
  194.9310  174.4390  140.6970 C   0  0  0  0  0  2  0  0  0  0  0  0
  194.7870  175.4690  139.6790 N   0  0  0  0  0  2  0  0  0  0  0  0
  195.4060  174.9540  138.4660 C   0  0  0  0  0  2  0  0  0  0  0  0
  194.4300  175.0730  137.2990 C   0  0  0  0  0  2  0  0  0  0  0  0
  194.7450  174.0960  136.1650 C   0  0  2  0  0  0  0  0  0  0  0  0
  193.6140  173.9430  135.3460 O   0  0  0  0  0  1  0  0  0  0  0  0
  194.5850  171.6700  136.1360 O   0  0  0  0  0  0  0  0  0  0  0  0
  194.0570  172.0050  137.4000 C   0  0  0  0  0  2  0  0  0  0  0  0
  195.1830  172.7610  136.7980 C   0  0  2  0  0  3  0  0  0  0  0  0
  195.8810  174.6340  135.3440 C   0  0  0  0  0  3  0  0  0  0  0  0
  196.9510  174.0440  135.2870 O   0  0  0  0  0  0  0  0  0  0  0  0
  192.7800  174.2950  142.4040 S   0  0  0  0  0  0  0  0  0  0  0  0
  193.0590  172.7710  141.4450 C   0  0  1  0  0  3  0  0  0  0  0  0
  191.9960  170.4060  142.1080 O   0  0  0  0  0  1  0  0  0  0  0  0
  194.5030  170.5320  141.5990 O   0  0  0  0  0  1  0  0  0  0  0  0
  193.3620  171.3550  142.6160 P   0  0  0  0  0  0  0  0  0  0  0  0
  191.8920  172.4880  140.6260 N   0  0  0  0  0  2  0  0  0  0  0  0
  191.1940  173.7540  140.4400 C   0  0  0  0  0  2  0  0  0  0  0  0
  189.1110  173.6890  139.2610 O   0  0  0  0  0  1  0  0  0  0  0  0
  189.6870  173.5540  140.5260 C   0  0  1  0  0  3  0  0  0  0  0  0
  189.3940  172.2920  141.0470 O   0  0  0  0  0  0  0  0  0  0  0  0
  189.1190  172.5160  142.4000 C   0  0  0  0  0  1  0  0  0  0  0  0
  194.2630  175.9780  145.0320 C   0  0  0  0  0  2  0  0  0  0  0  0
  194.1280  175.9460  146.5460 C   0  0  0  0  0  2  0  0  0  0  0  0
  192.7260  176.3550  146.9720 C   0  0  0  0  0  2  0  0  0  0  0  0
  191.6870  175.9540  145.9350 C   0  0  1  0  0  3  0  0  0  0  0  0
  189.3010  176.0340  145.5460 C   0  0  1  0  0  0  0  0  0  0  0  0
  187.5250  176.2010  143.7400 C   0  0  0  0  0  2  0  0  0  0  0  0
  191.1390  174.5850  146.2550 C   0  0  0  0  0  2  0  0  0  0  0  0
  186.7350  177.2700  144.5040 C   0  0  1  0  0  3  0  0  0  0  0  0
  188.0990  176.3360  146.4560 C   0  0  0  0  0  2  0  0  0  0  0  0
  189.7140  174.5820  145.7300 C   0  0  0  0  0  2  0  0  0  0  0  0
  189.0150  176.2900  144.0580 C   0  0  0  0  0  2  0  0  0  0  0  0
  190.4880  176.8770  145.9740 C   0  0  0  0  0  2  0  0  0  0  0  0
  187.2680  177.5110  145.9330 C   0  0  2  0  0  3  0  0  0  0  0  0
  186.0090  177.1430  147.9370 O   0  0  0  0  0  1  0  0  0  0  0  0
  186.1500  177.8100  146.8780 C   0  0  0  0  0  0  0  0  0  0  0  0
  185.2610  178.8340  146.5860 O   0  0  0  0  0  0  0  0  0  0  0  0
  186.7490  178.5670  143.7110 C   0  0  0  0  0  2  0  0  0  0  0  0
  186.7970  178.2230  141.9260 S   0  0  0  0  0  0  0  0  0  0  0  0
  184.2360  178.5670  142.9170 C   0  0  0  0  0  3  0  0  0  0  0  0
  184.4070  178.1960  140.5270 C   0  0  0  0  0  3  0  0  0  0  0  0
  182.8460  178.6550  142.8040 C   0  0  0  0  0  3  0  0  0  0  0  0
  183.0160  178.2850  140.4150 C   0  0  0  0  0  3  0  0  0  0  0  0
  185.0170  178.3340  141.7790 C   0  0  0  0  0  0  0  0  0  0  0  0
  182.2350  178.5160  141.5530 C   0  0  0  0  0  3  0  0  0  0  0  0
  1 28  1  0  0  0  0
  1  2  2  0  0  0  0
  3  4  2  0  0  0  0
  4  1  1  0  0  0  0
  5  6  1  6  0  0  0
  5 17  1  0  0  0  0
  5  4  1  0  0  0  0
  7  6  1  0  0  0  0
  8  7  1  0  0  0  0
  9  8  1  0  0  0  0
 10 11  1  6  0  0  0
 10  9  1  0  0  0  0
 12 14  1  0  0  0  0
 12 13  1  0  0  0  0
 14 10  1  6  0  0  0
 14 13  1  0  0  0  0
 15 10  1  0  0  0  0
 16 15  2  0  0  0  0
 18 22  1  1  0  0  0
 18 17  1  0  0  0  0
 18 21  1  0  0  0  0
 19 21  1  0  0  0  0
 20 21  1  0  0  0  0
 23 25  1  0  0  0  0
 23 22  1  0  0  0  0
 25 24  1  6  0  0  0
 25 26  1  0  0  0  0
 26 27  1  0  0  0  0
 28 29  1  0  0  0  0
 29 30  1  0  0  0  0
 31 39  1  0  0  0  0
 31 34  1  0  0  0  0
 31 30  1  1  0  0  0
 32 38  1  6  0  0  0
 32 37  1  0  0  0  0
 32 39  1  0  0  0  0
 32 36  1  0  0  0  0
 33 38  1  0  0  0  0
 33 35  1  0  0  0  0
 35 44  1  6  0  0  0
 35 40  1  0  0  0  0
 37 34  1  0  0  0  0
 40 36  1  0  0  0  0
 40 42  1  1  0  0  0
 42 41  1  0  0  0  0
 43 42  2  0  0  0  0
 45 44  1  0  0  0  0
 47 50  1  0  0  0  0
 48 46  1  0  0  0  0
 49 47  2  0  0  0  0
 49 51  1  0  0  0  0
 50 45  1  0  0  0  0
 50 46  2  0  0  0  0
 51 48  2  0  0  0  0
M  END
>  <MODEL>
9

>  <REMARK>
 VINA RESULT:      -4.7      2.794      4.113
  Name = 
  24 active torsions:
  status: ('A' for Active; 'I' for Inactive)
    1  A    between atoms: C_1  and  C_7
    2  A    between atoms: C_4  and  C_35
    3  A    between atoms: C_6  and  C_10
    4  A    between atoms: C_6  and  C_31
    5  A    between atoms: C_7  and  C_16
    6  A    between atoms: C_7  and  C_45
    7  A    between atoms: C_9  and  C_10
    8  A    between atoms: C_9  and  C_35
    9  A    between atoms: C_11  and  C_42
   10  A    between atoms: S_12  and  C_13
   11  A    between atoms: S_12  and  C_27
   12  A    between atoms: C_13  and  C_31
   13  A    between atoms: C_13  and  C_34
   14  A    between atoms: C_16  and  C_29
   15  A    between atoms: C_18  and  O_33
   16  A    between atoms: C_18  and  C_44
   17  A    between atoms: C_20  and  C_28
   18  A    between atoms: N_25  and  C_27
   19  A    between atoms: N_25  and  C_44
   20  A    between atoms: C_27  and  P_49
   21  A    between atoms: C_28  and  S_43
   22  A    between atoms: C_29  and  N_51
   23  A    between atoms: C_34  and  N_51
   24  A    between atoms: S_43  and  C_48
                            x       y       z     vdW  Elec       q    Type
                         _______ _______ _______ _____ _____    ______ ____

>  <TORSDO>
F 24

$$$$
