=
 OpenBabel11062422433D

 29 33  0  0  1  0  0  0  0  0999 V2000
  184.5320  178.6670  146.2430 C   0  0  0  0  0  2  0  0  0  0  0  0
  190.1180  176.4910  144.8020 C   0  0  0  0  0  0  0  0  0  0  0  0
  184.6180  178.9990  144.5270 S   0  0  0  0  0  0  0  0  0  0  0  0
  185.2640  180.3280  144.2510 O   0  0  0  0  0  0  0  0  0  0  0  0
  183.2650  178.9100  143.8790 O   0  0  0  0  0  0  0  0  0  0  0  0
  185.6980  177.7270  146.4930 C   0  0  0  0  0  2  0  0  0  0  0  0
  189.3570  177.3400  144.0670 C   0  0  0  0  0  0  0  0  0  0  0  0
  189.8770  178.0120  143.0080 F   0  0  0  0  0  0  0  0  0  0  0  0
  189.5380  175.7540  146.0120 C   0  0  0  0  0  2  0  0  0  0  0  0
  187.9870  177.7120  144.5420 C   0  0  1  0  0  3  0  0  0  0  0  0
  185.9180  176.8540  145.3210 N   0  0  2  0  0  0  0  0  0  0  0  0
  186.9810  178.0840  143.4860 C   0  0  0  0  0  2  0  0  0  0  0  0
  187.3360  176.5310  145.1800 C   0  0  2  0  0  3  0  0  0  0  0  0
  188.1130  176.1610  146.4320 C   0  0  0  0  0  2  0  0  0  0  0  0
  185.6450  177.6270  144.0910 C   0  0  2  0  0  3  0  0  0  0  0  0
  193.6820  176.5970  143.7900 N   0  0  1  0  0  0  0  0  0  0  0  0
  193.2710  175.3890  143.1760 N   0  0  0  0  0  2  0  0  0  0  0  0
  191.4800  176.2030  144.4240 N   0  0  0  0  0  0  0  0  0  0  0  0
  191.8600  175.1770  143.4850 C   0  0  2  0  0  3  0  0  0  0  0  0
  192.6030  177.0740  144.6510 C   0  0  0  0  0  2  0  0  0  0  0  0
  197.1920  173.2390  146.0740 O   0  0  0  0  0  0  0  0  0  0  0  0
  194.5740  175.6530  145.9290 C   0  0  0  0  0  3  0  0  0  0  0  0
  194.8760  176.3460  144.6090 C   0  0  1  0  0  3  0  0  0  0  0  0
  196.6970  174.6770  144.2620 C   0  0  0  0  0  3  0  0  0  0  0  0
  196.4530  174.1450  145.6090 C   0  0  0  0  0  0  0  0  0  0  0  0
  195.3230  174.6520  146.3950 C   0  0  0  0  0  3  0  0  0  0  0  0
  195.9530  175.6770  143.7860 C   0  0  0  0  0  3  0  0  0  0  0  0
  191.5570  172.8050  144.5650 N   0  0  0  0  0  0  0  0  0  0  0  0
  191.6920  173.8500  144.0880 C   0  0  0  0  0  0  0  0  0  0  0  0
  1  6  1  0  0  0  0
  2  9  1  0  0  0  0
  3  1  1  0  0  0  0
  4  3  2  0  0  0  0
  5  3  2  0  0  0  0
  7 10  1  0  0  0  0
  7  2  2  0  0  0  0
  8  7  1  0  0  0  0
  9 14  1  0  0  0  0
 10 12  1  6  0  0  0
 10 13  1  0  0  0  0
 11  6  1  1  0  0  0
 13 11  1  0  0  0  0
 13 14  1  1  0  0  0
 15 12  1  1  0  0  0
 15  3  1  0  0  0  0
 15 11  1  0  0  0  0
 16 23  1  0  0  0  0
 16 20  1  1  0  0  0
 17 19  1  0  0  0  0
 17 16  1  0  0  0  0
 18 20  1  0  0  0  0
 18  2  1  0  0  0  0
 19 29  1  1  0  0  0
 19 18  1  0  0  0  0
 22 26  2  0  0  0  0
 23 27  1  6  0  0  0
 23 22  1  0  0  0  0
 24 25  1  0  0  0  0
 25 21  2  0  0  0  0
 25 26  1  0  0  0  0
 27 24  2  0  0  0  0
 29 28  3  0  0  0  0
M  END
>  <MODEL>
1

>  <REMARK>
 VINA RESULT:      -8.0      0.000      0.000
  Name = 
  3 active torsions:
  status: ('A' for Active; 'I' for Inactive)
    1  A    between atoms: N_1  and  C_12
    2  A    between atoms: C_4  and  N_10
    3  A    between atoms: C_18  and  C_29
                            x       y       z     vdW  Elec       q    Type
                         _______ _______ _______ _____ _____    ______ ____

>  <TORSDO>
F 3

$$$$
=
 OpenBabel11062422433D

 29 33  0  0  1  0  0  0  0  0999 V2000
  197.6130  174.9170  143.1530 C   0  0  0  0  0  2  0  0  0  0  0  0
  191.8950  175.7550  145.3010 C   0  0  0  0  0  0  0  0  0  0  0  0
  196.7140  175.2170  141.6820 S   0  0  0  0  0  0  0  0  0  0  0  0
  196.1250  173.9520  141.1250 O   0  0  0  0  0  0  0  0  0  0  0  0
  197.5550  175.9200  140.6540 O   0  0  0  0  0  0  0  0  0  0  0  0
  196.6540  175.3250  144.2570 C   0  0  0  0  0  2  0  0  0  0  0  0
  192.2560  175.4860  144.0210 C   0  0  0  0  0  0  0  0  0  0  0  0
  191.3350  175.1220  143.0940 F   0  0  0  0  0  0  0  0  0  0  0  0
  192.9380  176.1390  146.3540 C   0  0  0  0  0  2  0  0  0  0  0  0
  193.7060  175.3800  143.6640 C   0  0  1  0  0  3  0  0  0  0  0  0
  195.8130  176.4580  143.8180 N   0  0  2  0  0  0  0  0  0  0  0  0
  194.0820  175.7220  142.2480 C   0  0  0  0  0  2  0  0  0  0  0  0
  194.4920  176.3860  144.4370 C   0  0  2  0  0  3  0  0  0  0  0  0
  194.4110  176.0390  145.9140 C   0  0  0  0  0  2  0  0  0  0  0  0
  195.5000  176.2940  142.3840 C   0  0  2  0  0  3  0  0  0  0  0  0
  188.4700  176.5790  146.4520 N   0  0  1  0  0  0  0  0  0  0  0  0
  188.5840  175.2410  146.9050 N   0  0  0  0  0  2  0  0  0  0  0  0
  190.5070  175.7540  145.6940 N   0  0  0  0  0  0  0  0  0  0  0  0
  189.9000  174.7410  146.5210 C   0  0  2  0  0  3  0  0  0  0  0  0
  189.6240  176.8880  145.6120 C   0  0  0  0  0  2  0  0  0  0  0  0
  184.1230  179.3560  144.9670 O   0  0  0  0  0  0  0  0  0  0  0  0
  185.9710  176.7170  146.4890 C   0  0  0  0  0  3  0  0  0  0  0  0
  187.2440  176.7200  145.6550 C   0  0  1  0  0  3  0  0  0  0  0  0
  186.3530  178.7340  144.4830 C   0  0  0  0  0  3  0  0  0  0  0  0
  185.0890  178.5890  145.2160 C   0  0  0  0  0  0  0  0  0  0  0  0
  184.9700  177.5690  146.2630 C   0  0  0  0  0  3  0  0  0  0  0  0
  187.3610  177.8870  144.7020 C   0  0  0  0  0  3  0  0  0  0  0  0
  189.6110  172.5150  145.1610 N   0  0  0  0  0  0  0  0  0  0  0  0
  189.7400  173.4960  145.7600 C   0  0  0  0  0  0  0  0  0  0  0  0
  1  6  1  0  0  0  0
  2 18  1  0  0  0  0
  2  9  1  0  0  0  0
  3 15  1  0  0  0  0
  3  1  1  0  0  0  0
  4  3  2  0  0  0  0
  5  3  2  0  0  0  0
  7  2  2  0  0  0  0
  8  7  1  0  0  0  0
 10 12  1  6  0  0  0
 10  7  1  0  0  0  0
 10 13  1  0  0  0  0
 11  6  1  1  0  0  0
 11 13  1  0  0  0  0
 13 14  1  1  0  0  0
 14  9  1  0  0  0  0
 15 12  1  1  0  0  0
 15 11  1  0  0  0  0
 16 20  1  6  0  0  0
 16 17  1  0  0  0  0
 18 19  1  0  0  0  0
 19 29  1  6  0  0  0
 19 17  1  0  0  0  0
 20 18  1  0  0  0  0
 21 25  2  0  0  0  0
 23 27  1  1  0  0  0
 23 16  1  0  0  0  0
 23 22  1  0  0  0  0
 24 27  2  0  0  0  0
 24 25  1  0  0  0  0
 25 26  1  0  0  0  0
 26 22  2  0  0  0  0
 28 29  3  0  0  0  0
M  END
>  <MODEL>
2

>  <REMARK>
 VINA RESULT:      -7.8      3.269      8.776
  Name = 
  3 active torsions:
  status: ('A' for Active; 'I' for Inactive)
    1  A    between atoms: N_1  and  C_12
    2  A    between atoms: C_4  and  N_10
    3  A    between atoms: C_18  and  C_29
                            x       y       z     vdW  Elec       q    Type
                         _______ _______ _______ _____ _____    ______ ____

>  <TORSDO>
F 3

$$$$
=
 OpenBabel11062422433D

 29 33  0  0  1  0  0  0  0  0999 V2000
  197.1420  172.7300  145.8820 C   0  0  0  0  0  2  0  0  0  0  0  0
  191.8370  175.7900  145.1690 C   0  0  0  0  0  0  0  0  0  0  0  0
  196.1630  171.5620  145.0220 S   0  0  0  0  0  0  0  0  0  0  0  0
  195.3450  170.7250  145.9630 O   0  0  0  0  0  0  0  0  0  0  0  0
  196.9990  170.6990  144.1180 O   0  0  0  0  0  0  0  0  0  0  0  0
  196.3620  174.0260  145.7540 C   0  0  0  0  0  2  0  0  0  0  0  0
  192.0330  174.4530  145.0430 C   0  0  0  0  0  0  0  0  0  0  0  0
  190.9860  173.5930  144.9810 F   0  0  0  0  0  0  0  0  0  0  0  0
  193.0200  176.7570  145.2660 C   0  0  0  0  0  2  0  0  0  0  0  0
  193.4120  173.8870  145.1850 C   0  0  1  0  0  3  0  0  0  0  0  0
  195.6600  174.0800  144.4550 N   0  0  2  0  0  0  0  0  0  0  0  0
  193.6990  172.6090  144.4430 C   0  0  0  0  0  2  0  0  0  0  0  0
  194.4060  174.8190  144.5790 C   0  0  2  0  0  3  0  0  0  0  0  0
  194.4140  176.1120  145.3790 C   0  0  0  0  0  2  0  0  0  0  0  0
  195.1930  172.7220  144.1060 C   0  0  2  0  0  3  0  0  0  0  0  0
  188.7360  177.6980  144.4780 N   0  0  1  0  0  0  0  0  0  0  0  0
  188.6050  177.4780  145.8710 N   0  0  0  0  0  2  0  0  0  0  0  0
  190.5080  176.3470  145.1460 N   0  0  0  0  0  0  0  0  0  0  0  0
  189.7620  176.7140  146.3240 C   0  0  2  0  0  3  0  0  0  0  0  0
  189.8720  176.9200  143.9880 C   0  0  0  0  0  2  0  0  0  0  0  0
  183.6660  178.4950  142.9060 O   0  0  0  0  0  0  0  0  0  0  0  0
  186.3420  177.0170  144.7370 C   0  0  0  0  0  3  0  0  0  0  0  0
  187.5150  177.2480  143.7960 C   0  0  1  0  0  3  0  0  0  0  0  0
  185.9610  178.5430  142.3360 C   0  0  0  0  0  3  0  0  0  0  0  0
  184.8420  178.1620  143.2060 C   0  0  0  0  0  0  0  0  0  0  0  0
  185.1050  177.4220  144.4450 C   0  0  0  0  0  3  0  0  0  0  0  0
  187.2030  178.1430  142.6190 C   0  0  0  0  0  3  0  0  0  0  0  0
  188.9360  174.5610  147.5770 N   0  0  0  0  0  0  0  0  0  0  0  0
  189.3010  175.5100  147.0250 C   0  0  0  0  0  0  0  0  0  0  0  0
  2  9  1  0  0  0  0
  3  1  1  0  0  0  0
  3  4  2  0  0  0  0
  5  3  2  0  0  0  0
  6  1  1  0  0  0  0
  7  2  2  0  0  0  0
  7 10  1  0  0  0  0
  8  7  1  0  0  0  0
  9 14  1  0  0  0  0
 10 12  1  6  0  0  0
 11 13  1  0  0  0  0
 11  6  1  1  0  0  0
 13 10  1  0  0  0  0
 13 14  1  1  0  0  0
 15 12  1  1  0  0  0
 15 11  1  0  0  0  0
 15  3  1  0  0  0  0
 16 20  1  6  0  0  0
 16 17  1  0  0  0  0
 17 19  1  0  0  0  0
 18  2  1  0  0  0  0
 18 19  1  0  0  0  0
 19 29  1  6  0  0  0
 20 18  1  0  0  0  0
 21 25  2  0  0  0  0
 23 27  1  6  0  0  0
 23 16  1  0  0  0  0
 23 22  1  0  0  0  0
 24 27  2  0  0  0  0
 24 25  1  0  0  0  0
 25 26  1  0  0  0  0
 26 22  2  0  0  0  0
 29 28  3  0  0  0  0
M  END
>  <MODEL>
3

>  <REMARK>
 VINA RESULT:      -7.4      3.312      9.122
  Name = 
  3 active torsions:
  status: ('A' for Active; 'I' for Inactive)
    1  A    between atoms: N_1  and  C_12
    2  A    between atoms: C_4  and  N_10
    3  A    between atoms: C_18  and  C_29
                            x       y       z     vdW  Elec       q    Type
                         _______ _______ _______ _____ _____    ______ ____

>  <TORSDO>
F 3

$$$$
=
 OpenBabel11062422433D

 29 33  0  0  1  0  0  0  0  0999 V2000
  185.7530  179.0350  147.2680 C   0  0  0  0  0  2  0  0  0  0  0  0
  190.0850  175.9300  144.1680 C   0  0  0  0  0  0  0  0  0  0  0  0
  185.0110  178.8520  145.6940 S   0  0  0  0  0  0  0  0  0  0  0  0
  185.4020  179.9670  144.7650 O   0  0  0  0  0  0  0  0  0  0  0  0
  183.5170  178.7330  145.7980 O   0  0  0  0  0  0  0  0  0  0  0  0
  186.9330  178.0800  147.2290 C   0  0  0  0  0  2  0  0  0  0  0  0
  189.0370  176.6140  143.6450 C   0  0  0  0  0  0  0  0  0  0  0  0
  188.9740  176.8940  142.3180 F   0  0  0  0  0  0  0  0  0  0  0  0
  190.1690  175.6380  145.6690 C   0  0  0  0  0  2  0  0  0  0  0  0
  188.0380  177.2560  144.5560 C   0  0  1  0  0  3  0  0  0  0  0  0
  186.6100  176.8920  146.4130 N   0  0  2  0  0  0  0  0  0  0  0  0
  186.6410  177.4210  144.0210 C   0  0  0  0  0  2  0  0  0  0  0  0
  187.8060  176.3860  145.7450 C   0  0  2  0  0  3  0  0  0  0  0  0
  189.0940  176.3030  146.5480 C   0  0  0  0  0  2  0  0  0  0  0  0
  185.7640  177.3070  145.2760 C   0  0  2  0  0  3  0  0  0  0  0  0
  192.7760  175.3550  141.6850 N   0  0  1  0  0  0  0  0  0  0  0  0
  192.1370  174.0900  141.6780 N   0  0  0  0  0  2  0  0  0  0  0  0
  191.1200  175.3960  143.3170 N   0  0  0  0  0  0  0  0  0  0  0  0
  191.0310  174.1320  142.6290 C   0  0  2  0  0  3  0  0  0  0  0  0
  192.2130  176.1550  142.7690 C   0  0  0  0  0  2  0  0  0  0  0  0
  197.5500  177.2140  143.2830 O   0  0  0  0  0  0  0  0  0  0  0  0
  195.0910  176.0130  141.0010 C   0  0  0  0  0  3  0  0  0  0  0  0
  194.2150  175.1730  141.9170 C   0  0  1  0  0  3  0  0  0  0  0  0
  195.6120  175.9710  143.8230 C   0  0  0  0  0  3  0  0  0  0  0  0
  196.5080  176.6410  142.8730 C   0  0  0  0  0  0  0  0  0  0  0  0
  196.1640  176.6690  141.4470 C   0  0  0  0  0  3  0  0  0  0  0  0
  194.5370  175.3120  143.3880 C   0  0  0  0  0  3  0  0  0  0  0  0
  191.2860  172.1550  144.3360 N   0  0  0  0  0  0  0  0  0  0  0  0
  191.1730  173.0260  143.5830 C   0  0  0  0  0  0  0  0  0  0  0  0
  2  9  1  0  0  0  0
  3  5  2  0  0  0  0
  3  1  1  0  0  0  0
  4  3  2  0  0  0  0
  6  1  1  0  0  0  0
  7  2  2  0  0  0  0
  7 10  1  0  0  0  0
  8  7  1  0  0  0  0
  9 14  1  0  0  0  0
 10 12  1  6  0  0  0
 10 13  1  0  0  0  0
 11  6  1  1  0  0  0
 13 11  1  0  0  0  0
 13 14  1  1  0  0  0
 15 12  1  6  0  0  0
 15  3  1  0  0  0  0
 15 11  1  0  0  0  0
 16 23  1  0  0  0  0
 16 20  1  1  0  0  0
 17 16  1  0  0  0  0
 17 19  1  0  0  0  0
 18  2  1  0  0  0  0
 19 18  1  0  0  0  0
 19 29  1  1  0  0  0
 20 18  1  0  0  0  0
 22 26  2  0  0  0  0
 23 22  1  6  0  0  0
 23 27  1  0  0  0  0
 25 21  2  0  0  0  0
 25 24  1  0  0  0  0
 26 25  1  0  0  0  0
 27 24  2  0  0  0  0
 29 28  3  0  0  0  0
M  END
>  <MODEL>
4

>  <REMARK>
 VINA RESULT:      -7.4      1.745      2.271
  Name = 
  3 active torsions:
  status: ('A' for Active; 'I' for Inactive)
    1  A    between atoms: N_1  and  C_12
    2  A    between atoms: C_4  and  N_10
    3  A    between atoms: C_18  and  C_29
                            x       y       z     vdW  Elec       q    Type
                         _______ _______ _______ _____ _____    ______ ____

>  <TORSDO>
F 3

$$$$
=
 OpenBabel11062422433D

 29 33  0  0  1  0  0  0  0  0999 V2000
  191.0660  169.4680  140.4390 C   0  0  0  0  0  2  0  0  0  0  0  0
  188.5840  174.8080  142.2660 C   0  0  0  0  0  0  0  0  0  0  0  0
  191.0270  170.3790  138.9450 S   0  0  0  0  0  0  0  0  0  0  0  0
  189.7130  170.2190  138.2340 O   0  0  0  0  0  0  0  0  0  0  0  0
  192.1760  170.0170  138.0470 O   0  0  0  0  0  0  0  0  0  0  0  0
  190.7910  170.5090  141.5090 C   0  0  0  0  0  2  0  0  0  0  0  0
  188.6890  174.3480  140.9940 C   0  0  0  0  0  0  0  0  0  0  0  0
  188.0120  174.9380  139.9760 F   0  0  0  0  0  0  0  0  0  0  0  0
  189.3260  174.1260  143.4180 C   0  0  0  0  0  2  0  0  0  0  0  0
  189.3880  173.0510  140.7270 C   0  0  1  0  0  3  0  0  0  0  0  0
  191.3710  171.8130  141.1230 N   0  0  2  0  0  0  0  0  0  0  0  0
  190.0340  172.8950  139.3770 C   0  0  0  0  0  2  0  0  0  0  0  0
  190.5570  172.9100  141.6420 C   0  0  2  0  0  3  0  0  0  0  0  0
  190.0500  172.8120  143.0710 C   0  0  0  0  0  2  0  0  0  0  0  0
  191.2360  171.9820  139.6620 C   0  0  2  0  0  3  0  0  0  0  0  0
  186.0010  177.4400  142.6360 N   0  0  1  0  0  0  0  0  0  0  0  0
  187.1710  178.2330  142.5300 N   0  0  0  0  0  2  0  0  0  0  0  0
  187.8230  175.9960  142.5620 N   0  0  0  0  0  0  0  0  0  0  0  0
  188.3150  177.3400  142.3840 C   0  0  2  0  0  3  0  0  0  0  0  0
  186.3960  176.0390  142.7510 C   0  0  0  0  0  2  0  0  0  0  0  0
  185.8360  179.3880  147.6350 O   0  0  0  0  0  0  0  0  0  0  0  0
  185.5470  176.9540  145.0480 C   0  0  0  0  0  3  0  0  0  0  0  0
  185.2560  177.8310  143.8400 C   0  0  1  0  0  3  0  0  0  0  0  0
  185.5880  179.8110  145.3210 C   0  0  0  0  0  3  0  0  0  0  0  0
  185.7150  178.9130  146.4760 C   0  0  0  0  0  0  0  0  0  0  0  0
  185.7340  177.4610  146.2680 C   0  0  0  0  0  3  0  0  0  0  0  0
  185.4000  179.3130  144.0970 C   0  0  0  0  0  3  0  0  0  0  0  0
  190.0910  177.9030  144.2330 N   0  0  0  0  0  0  0  0  0  0  0  0
  189.3090  177.6550  143.4170 C   0  0  0  0  0  0  0  0  0  0  0  0
  1  6  1  0  0  0  0
  2 18  1  0  0  0  0
  2  9  1  0  0  0  0
  3 15  1  0  0  0  0
  3  1  1  0  0  0  0
  4  3  2  0  0  0  0
  5  3  2  0  0  0  0
  7  2  2  0  0  0  0
  8  7  1  0  0  0  0
 10 12  1  6  0  0  0
 10  7  1  0  0  0  0
 10 13  1  0  0  0  0
 11  6  1  1  0  0  0
 11 13  1  0  0  0  0
 13 14  1  1  0  0  0
 14  9  1  0  0  0  0
 15 12  1  1  0  0  0
 15 11  1  0  0  0  0
 16 20  1  1  0  0  0
 16 23  1  0  0  0  0
 17 16  1  0  0  0  0
 18 20  1  0  0  0  0
 19 17  1  0  0  0  0
 19 18  1  0  0  0  0
 19 29  1  1  0  0  0
 22 26  2  0  0  0  0
 23 27  1  1  0  0  0
 23 22  1  0  0  0  0
 24 25  1  0  0  0  0
 25 21  2  0  0  0  0
 26 25  1  0  0  0  0
 27 24  2  0  0  0  0
 29 28  3  0  0  0  0
M  END
>  <MODEL>
5

>  <REMARK>
 VINA RESULT:      -7.3      4.801      8.767
  Name = 
  3 active torsions:
  status: ('A' for Active; 'I' for Inactive)
    1  A    between atoms: N_1  and  C_12
    2  A    between atoms: C_4  and  N_10
    3  A    between atoms: C_18  and  C_29
                            x       y       z     vdW  Elec       q    Type
                         _______ _______ _______ _____ _____    ______ ____

>  <TORSDO>
F 3

$$$$
=
 OpenBabel11062422433D

 29 33  0  0  1  0  0  0  0  0999 V2000
  192.5470  170.5850  140.5970 C   0  0  0  0  0  2  0  0  0  0  0  0
  188.4870  175.0270  141.9420 C   0  0  0  0  0  0  0  0  0  0  0  0
  192.1070  170.1870  142.2430 S   0  0  0  0  0  0  0  0  0  0  0  0
  192.9630  170.9190  143.2380 O   0  0  0  0  0  0  0  0  0  0  0  0
  192.1470  168.7040  142.4820 O   0  0  0  0  0  0  0  0  0  0  0  0
  191.5040  171.6050  140.1760 C   0  0  0  0  0  2  0  0  0  0  0  0
  189.1380  174.2210  142.8180 C   0  0  0  0  0  0  0  0  0  0  0  0
  189.1390  174.4880  144.1490 F   0  0  0  0  0  0  0  0  0  0  0  0
  188.5090  174.7400  140.4380 C   0  0  0  0  0  2  0  0  0  0  0  0
  190.0430  173.1430  142.3070 C   0  0  1  0  0  3  0  0  0  0  0  0
  190.2050  171.3080  140.8140 N   0  0  2  0  0  0  0  0  0  0  0  0
  190.2170  171.9330  143.1840 C   0  0  0  0  0  2  0  0  0  0  0  0
  189.4650  172.5420  141.0710 C   0  0  2  0  0  3  0  0  0  0  0  0
  189.4370  173.6000  139.9800 C   0  0  0  0  0  2  0  0  0  0  0  0
  190.4480  170.7950  142.1780 C   0  0  2  0  0  3  0  0  0  0  0  0
  185.8080  177.4290  142.8280 N   0  0  1  0  0  0  0  0  0  0  0  0
  186.8840  178.3160  142.5780 N   0  0  0  0  0  2  0  0  0  0  0  0
  187.6970  176.1390  142.4060 N   0  0  0  0  0  0  0  0  0  0  0  0
  188.0540  177.5230  142.2150 C   0  0  2  0  0  3  0  0  0  0  0  0
  186.3190  176.0610  142.8170 C   0  0  0  0  0  2  0  0  0  0  0  0
  186.3650  178.6940  148.0140 O   0  0  0  0  0  0  0  0  0  0  0  0
  185.5600  176.6650  145.1980 C   0  0  0  0  0  3  0  0  0  0  0  0
  185.2360  177.7180  144.1500 C   0  0  1  0  0  3  0  0  0  0  0  0
  185.9220  179.4440  145.8150 C   0  0  0  0  0  3  0  0  0  0  0  0
  186.0750  178.3920  146.8280 C   0  0  0  0  0  0  0  0  0  0  0  0
  185.9240  176.9850  146.4410 C   0  0  0  0  0  3  0  0  0  0  0  0
  185.5580  179.1350  144.5700 C   0  0  0  0  0  3  0  0  0  0  0  0
  190.0540  178.1680  143.7880 N   0  0  0  0  0  0  0  0  0  0  0  0
  189.1720  177.8830  143.0940 C   0  0  0  0  0  0  0  0  0  0  0  0
  1  3  1  0  0  0  0
  2 18  1  0  0  0  0
  2  7  2  0  0  0  0
  3  5  2  0  0  0  0
  3  4  2  0  0  0  0
  6  1  1  0  0  0  0
  7  8  1  0  0  0  0
  9  2  1  0  0  0  0
 10  7  1  0  0  0  0
 10 12  1  1  0  0  0
 11  6  1  1  0  0  0
 11 13  1  0  0  0  0
 11 15  1  0  0  0  0
 13 14  1  6  0  0  0
 13 10  1  0  0  0  0
 14  9  1  0  0  0  0
 15  3  1  0  0  0  0
 15 12  1  1  0  0  0
 16 20  1  1  0  0  0
 16 23  1  0  0  0  0
 17 16  1  0  0  0  0
 18 20  1  0  0  0  0
 19 18  1  0  0  0  0
 19 17  1  0  0  0  0
 19 29  1  1  0  0  0
 22 26  2  0  0  0  0
 23 27  1  1  0  0  0
 23 22  1  0  0  0  0
 24 25  1  0  0  0  0
 25 21  2  0  0  0  0
 26 25  1  0  0  0  0
 27 24  2  0  0  0  0
 29 28  3  0  0  0  0
M  END
>  <MODEL>
6

>  <REMARK>
 VINA RESULT:      -7.3      4.640      8.689
  Name = 
  3 active torsions:
  status: ('A' for Active; 'I' for Inactive)
    1  A    between atoms: N_1  and  C_12
    2  A    between atoms: C_4  and  N_10
    3  A    between atoms: C_18  and  C_29
                            x       y       z     vdW  Elec       q    Type
                         _______ _______ _______ _____ _____    ______ ____

>  <TORSDO>
F 3

$$$$
=
 OpenBabel11062422433D

 29 33  0  0  1  0  0  0  0  0999 V2000
  184.6190  178.9490  146.2800 C   0  0  0  0  0  2  0  0  0  0  0  0
  189.9020  175.8980  145.3860 C   0  0  0  0  0  0  0  0  0  0  0  0
  184.7990  179.0380  144.5420 S   0  0  0  0  0  0  0  0  0  0  0  0
  185.6240  180.2240  144.1300 O   0  0  0  0  0  0  0  0  0  0  0  0
  183.4650  179.0400  143.8480 O   0  0  0  0  0  0  0  0  0  0  0  0
  185.6390  177.9070  146.7010 C   0  0  0  0  0  2  0  0  0  0  0  0
  189.2830  176.7340  144.5150 C   0  0  0  0  0  0  0  0  0  0  0  0
  189.9190  177.1880  143.4060 F   0  0  0  0  0  0  0  0  0  0  0  0
  189.1930  175.4080  146.6520 C   0  0  0  0  0  2  0  0  0  0  0  0
  187.9620  177.3400  144.8760 C   0  0  1  0  0  3  0  0  0  0  0  0
  185.7740  176.8670  145.6600 N   0  0  2  0  0  0  0  0  0  0  0  0
  187.0470  177.6960  143.7360 C   0  0  0  0  0  2  0  0  0  0  0  0
  187.1390  176.3470  145.6270 C   0  0  2  0  0  3  0  0  0  0  0  0
  187.8230  176.0470  146.9500 C   0  0  0  0  0  2  0  0  0  0  0  0
  185.6440  177.5000  144.3310 C   0  0  2  0  0  3  0  0  0  0  0  0
  192.8870  174.1130  144.1060 N   0  0  1  0  0  0  0  0  0  0  0  0
  193.2610  174.3160  145.4580 N   0  0  0  0  0  2  0  0  0  0  0  0
  191.2220  175.3890  145.1120 N   0  0  0  0  0  0  0  0  0  0  0  0
  192.1800  175.0310  146.1280 C   0  0  2  0  0  3  0  0  0  0  0  0
  191.6570  174.8570  143.8470 C   0  0  0  0  0  2  0  0  0  0  0  0
  197.9270  175.7720  143.2970 O   0  0  0  0  0  0  0  0  0  0  0  0
  194.3820  176.0400  143.5470 C   0  0  0  0  0  3  0  0  0  0  0  0
  193.9490  174.6170  143.2260 C   0  0  1  0  0  3  0  0  0  0  0  0
  196.3650  174.0000  143.1650 C   0  0  0  0  0  3  0  0  0  0  0  0
  196.7210  175.4150  143.3300 C   0  0  0  0  0  0  0  0  0  0  0  0
  195.6650  176.4060  143.5690 C   0  0  0  0  0  3  0  0  0  0  0  0
  195.0850  173.6240  143.1410 C   0  0  0  0  0  3  0  0  0  0  0  0
  193.1480  177.1920  147.2610 N   0  0  0  0  0  0  0  0  0  0  0  0
  192.7210  176.2400  146.7610 C   0  0  0  0  0  0  0  0  0  0  0  0
  1  6  1  0  0  0  0
  2  9  1  0  0  0  0
  3  1  1  0  0  0  0
  4  3  2  0  0  0  0
  5  3  2  0  0  0  0
  7 10  1  0  0  0  0
  7  2  2  0  0  0  0
  8  7  1  0  0  0  0
  9 14  1  0  0  0  0
 10 12  1  6  0  0  0
 10 13  1  0  0  0  0
 11  6  1  1  0  0  0
 13 11  1  0  0  0  0
 13 14  1  1  0  0  0
 15 12  1  1  0  0  0
 15  3  1  0  0  0  0
 15 11  1  0  0  0  0
 16 20  1  6  0  0  0
 16 17  1  0  0  0  0
 17 19  1  0  0  0  0
 18  2  1  0  0  0  0
 18 19  1  0  0  0  0
 19 29  1  6  0  0  0
 20 18  1  0  0  0  0
 21 25  2  0  0  0  0
 22 26  2  0  0  0  0
 23 27  1  1  0  0  0
 23 22  1  0  0  0  0
 23 16  1  0  0  0  0
 24 25  1  0  0  0  0
 25 26  1  0  0  0  0
 27 24  2  0  0  0  0
 29 28  3  0  0  0  0
M  END
>  <MODEL>
7

>  <REMARK>
 VINA RESULT:      -7.3      1.504      2.093
  Name = 
  3 active torsions:
  status: ('A' for Active; 'I' for Inactive)
    1  A    between atoms: N_1  and  C_12
    2  A    between atoms: C_4  and  N_10
    3  A    between atoms: C_18  and  C_29
                            x       y       z     vdW  Elec       q    Type
                         _______ _______ _______ _____ _____    ______ ____

>  <TORSDO>
F 3

$$$$
=
 OpenBabel11062422433D

 29 33  0  0  1  0  0  0  0  0999 V2000
  184.8160  177.9880  144.3250 C   0  0  0  0  0  2  0  0  0  0  0  0
  190.4720  175.5420  144.1020 C   0  0  0  0  0  0  0  0  0  0  0  0
  185.1910  177.7850  146.0220 S   0  0  0  0  0  0  0  0  0  0  0  0
  184.8140  176.4160  146.5130 O   0  0  0  0  0  0  0  0  0  0  0  0
  184.5500  178.8550  146.8600 O   0  0  0  0  0  0  0  0  0  0  0  0
  186.1510  177.7850  143.6290 C   0  0  0  0  0  2  0  0  0  0  0  0
  189.6220  175.5420  145.1600 C   0  0  0  0  0  0  0  0  0  0  0  0
  189.8510  174.7570  146.2430 F   0  0  0  0  0  0  0  0  0  0  0  0
  190.2000  176.4070  142.8680 C   0  0  0  0  0  2  0  0  0  0  0  0
  188.3060  176.2470  145.0560 C   0  0  1  0  0  3  0  0  0  0  0  0
  187.2540  178.2910  144.4730 N   0  0  2  0  0  0  0  0  0  0  0  0
  187.7150  176.7690  146.3380 C   0  0  0  0  0  2  0  0  0  0  0  0
  188.4650  177.5000  144.2630 C   0  0  2  0  0  3  0  0  0  0  0  0
  188.8400  177.1310  142.8370 C   0  0  0  0  0  2  0  0  0  0  0  0
  186.9390  178.0160  145.8890 C   0  0  2  0  0  3  0  0  0  0  0  0
  193.9550  174.3220  144.4440 N   0  0  1  0  0  0  0  0  0  0  0  0
  193.4960  173.5110  143.3770 N   0  0  0  0  0  2  0  0  0  0  0  0
  191.6960  174.7800  144.1360 N   0  0  0  0  0  0  0  0  0  0  0  0
  192.1050  173.8570  143.1070 C   0  0  2  0  0  3  0  0  0  0  0  0
  192.8180  175.0570  144.9940 C   0  0  0  0  0  2  0  0  0  0  0  0
  197.1970  170.3430  146.0140 O   0  0  0  0  0  0  0  0  0  0  0  0
  194.1100  172.0090  145.3880 C   0  0  0  0  0  3  0  0  0  0  0  0
  194.5290  173.4680  145.4930 C   0  0  1  0  0  3  0  0  0  0  0  0
  196.8780  172.6730  145.7630 C   0  0  0  0  0  3  0  0  0  0  0  0
  196.3940  171.2870  145.8010 C   0  0  0  0  0  0  0  0  0  0  0  0
  194.9750  171.0070  145.5560 C   0  0  0  0  0  3  0  0  0  0  0  0
  196.0220  173.6820  145.5960 C   0  0  0  0  0  3  0  0  0  0  0  0
  190.6360  171.6840  143.2070 N   0  0  0  0  0  0  0  0  0  0  0  0
  191.2850  172.6410  143.1630 C   0  0  0  0  0  0  0  0  0  0  0  0
  1  3  1  0  0  0  0
  2 18  1  0  0  0  0
  2  7  2  0  0  0  0
  3  4  2  0  0  0  0
  3  5  2  0  0  0  0
  6  1  1  0  0  0  0
  7  8  1  0  0  0  0
  9  2  1  0  0  0  0
 10  7  1  0  0  0  0
 10 12  1  1  0  0  0
 11  6  1  6  0  0  0
 11 15  1  0  0  0  0
 13 14  1  6  0  0  0
 13 11  1  0  0  0  0
 13 10  1  0  0  0  0
 14  9  1  0  0  0  0
 15  3  1  0  0  0  0
 15 12  1  6  0  0  0
 16 20  1  1  0  0  0
 16 23  1  0  0  0  0
 17 16  1  0  0  0  0
 18 20  1  0  0  0  0
 19 29  1  1  0  0  0
 19 17  1  0  0  0  0
 19 18  1  0  0  0  0
 22 26  2  0  0  0  0
 23 22  1  6  0  0  0
 23 27  1  0  0  0  0
 24 25  1  0  0  0  0
 25 21  2  0  0  0  0
 26 25  1  0  0  0  0
 27 24  2  0  0  0  0
 29 28  3  0  0  0  0
M  END
>  <MODEL>
8

>  <REMARK>
 VINA RESULT:      -7.3      2.122      2.735
  Name = 
  3 active torsions:
  status: ('A' for Active; 'I' for Inactive)
    1  A    between atoms: N_1  and  C_12
    2  A    between atoms: C_4  and  N_10
    3  A    between atoms: C_18  and  C_29
                            x       y       z     vdW  Elec       q    Type
                         _______ _______ _______ _____ _____    ______ ____

>  <TORSDO>
F 3

$$$$
=
 OpenBabel11062422433D

 29 33  0  0  1  0  0  0  0  0999 V2000
  184.9930  177.9270  144.4370 C   0  0  0  0  0  2  0  0  0  0  0  0
  190.7230  175.6640  144.6720 C   0  0  0  0  0  0  0  0  0  0  0  0
  185.1940  177.6270  146.1500 S   0  0  0  0  0  0  0  0  0  0  0  0
  184.8160  176.2180  146.5130 O   0  0  0  0  0  0  0  0  0  0  0  0
  184.4310  178.6220  146.9780 O   0  0  0  0  0  0  0  0  0  0  0  0
  186.3990  177.8080  143.8780 C   0  0  0  0  0  2  0  0  0  0  0  0
  189.7680  175.5710  145.6300 C   0  0  0  0  0  0  0  0  0  0  0  0
  189.9090  174.7250  146.6820 F   0  0  0  0  0  0  0  0  0  0  0  0
  190.5510  176.5980  143.4700 C   0  0  0  0  0  2  0  0  0  0  0  0
  188.4450  176.2430  145.4300 C   0  0  1  0  0  3  0  0  0  0  0  0
  187.3890  178.2900  144.8630 N   0  0  2  0  0  0  0  0  0  0  0  0
  187.7050  176.6650  146.6710 C   0  0  0  0  0  2  0  0  0  0  0  0
  188.6420  177.5490  144.7360 C   0  0  2  0  0  3  0  0  0  0  0  0
  189.1780  177.2830  143.3390 C   0  0  0  0  0  2  0  0  0  0  0  0
  186.9370  177.9160  146.2190 C   0  0  2  0  0  3  0  0  0  0  0  0
  193.5310  173.2560  144.4340 N   0  0  1  0  0  0  0  0  0  0  0  0
  193.6900  173.7160  145.7650 N   0  0  0  0  0  2  0  0  0  0  0  0
  191.9630  174.9370  144.7890 N   0  0  0  0  0  0  0  0  0  0  0  0
  192.6490  174.7020  146.0350 C   0  0  2  0  0  3  0  0  0  0  0  0
  192.5150  174.0750  143.7770 C   0  0  0  0  0  2  0  0  0  0  0  0
  197.8880  176.0990  143.1140 O   0  0  0  0  0  0  0  0  0  0  0  0
  194.7670  174.4520  142.6170 C   0  0  0  0  0  3  0  0  0  0  0  0
  194.8040  173.4000  143.7150 C   0  0  1  0  0  3  0  0  0  0  0  0
  196.9410  174.4250  144.4900 C   0  0  0  0  0  3  0  0  0  0  0  0
  196.9250  175.3180  143.3250 C   0  0  0  0  0  0  0  0  0  0  0  0
  195.7640  175.3190  142.4280 C   0  0  0  0  0  3  0  0  0  0  0  0
  195.9500  173.5540  144.6880 C   0  0  0  0  0  3  0  0  0  0  0  0
  193.7600  176.9210  146.8880 N   0  0  0  0  0  0  0  0  0  0  0  0
  193.2710  175.9420  146.5120 C   0  0  0  0  0  0  0  0  0  0  0  0
  1  3  1  0  0  0  0
  2 18  1  0  0  0  0
  2  7  2  0  0  0  0
  3 15  1  0  0  0  0
  3  4  2  0  0  0  0
  3  5  2  0  0  0  0
  6  1  1  0  0  0  0
  7  8  1  0  0  0  0
  9  2  1  0  0  0  0
 10  7  1  0  0  0  0
 10 12  1  1  0  0  0
 11  6  1  6  0  0  0
 11 15  1  0  0  0  0
 13 14  1  6  0  0  0
 13 11  1  0  0  0  0
 13 10  1  0  0  0  0
 14  9  1  0  0  0  0
 15 12  1  6  0  0  0
 16 20  1  6  0  0  0
 16 17  1  0  0  0  0
 17 19  1  0  0  0  0
 18 19  1  0  0  0  0
 19 29  1  6  0  0  0
 20 18  1  0  0  0  0
 21 25  2  0  0  0  0
 23 22  1  6  0  0  0
 23 16  1  0  0  0  0
 23 27  1  0  0  0  0
 24 27  2  0  0  0  0
 25 24  1  0  0  0  0
 26 22  2  0  0  0  0
 26 25  1  0  0  0  0
 29 28  3  0  0  0  0
M  END
>  <MODEL>
9

>  <REMARK>
 VINA RESULT:      -7.0      2.136      3.099
  Name = 
  3 active torsions:
  status: ('A' for Active; 'I' for Inactive)
    1  A    between atoms: N_1  and  C_12
    2  A    between atoms: C_4  and  N_10
    3  A    between atoms: C_18  and  C_29
                            x       y       z     vdW  Elec       q    Type
                         _______ _______ _______ _____ _____    ______ ____

>  <TORSDO>
F 3

$$$$
