=
 OpenBabel11072408493D

 26 29  0  0  1  0  0  0  0  0999 V2000
  190.7420  177.8580  144.1830 C   0  0  0  0  0  3  0  0  0  0  0  0
  192.6450  176.5280  144.9610 C   0  0  0  0  0  0  0  0  0  0  0  0
  192.1060  177.5240  144.1210 C   0  0  0  0  0  3  0  0  0  0  0  0
  189.3960  175.6770  146.7660 C   0  0  0  0  0  0  0  0  0  0  0  0
  189.4900  174.7770  147.6410 O   0  0  0  0  0  0  0  0  0  0  0  0
  186.8880  176.2990  146.8700 C   0  0  0  0  0  3  0  0  0  0  0  0
  188.1900  176.4070  146.3870 C   0  0  0  0  0  0  0  0  0  0  0  0
  188.5190  177.3080  145.3880 C   0  0  0  0  0  0  0  0  0  0  0  0
  186.2420  178.0640  145.2910 C   0  0  0  0  0  0  0  0  0  0  0  0
  185.9100  177.1370  146.3110 C   0  0  0  0  0  3  0  0  0  0  0  0
  189.9460  177.1770  145.1010 C   0  0  0  0  0  0  0  0  0  0  0  0
  191.8190  175.8520  145.8830 C   0  0  0  0  0  3  0  0  0  0  0  0
  187.5640  178.1470  144.8200 C   0  0  0  0  0  3  0  0  0  0  0  0
  190.4710  176.1990  145.9280 C   0  0  0  0  0  0  0  0  0  0  0  0
  183.9050  178.9490  145.4780 C   0  0  0  0  0  1  0  0  0  0  0  0
  185.2000  178.9470  144.6780 C   0  0  2  0  0  3  0  0  0  0  0  0
  185.7860  178.2920  140.9690 C   0  0  0  0  0  3  0  0  0  0  0  0
  184.4770  178.0760  140.5280 C   0  0  0  0  0  3  0  0  0  0  0  0
  184.9680  178.6320  143.2300 C   0  0  0  0  0  0  0  0  0  0  0  0
  183.4150  178.1420  141.4340 C   0  0  0  0  0  3  0  0  0  0  0  0
  183.6600  178.4210  142.7810 C   0  0  0  0  0  3  0  0  0  0  0  0
  186.0320  178.5710  142.3160 C   0  0  0  0  0  3  0  0  0  0  0  0
  194.1000  176.2030  144.8640 C   0  0  2  0  0  3  0  0  0  0  0  0
  194.8450  177.1090  145.6200 O   0  0  0  0  0  1  0  0  0  0  0  0
  195.8560  176.4180  143.5980 N   0  0  0  0  0  1  0  0  0  0  0  0
  194.5160  176.2440  143.5330 O   0  0  0  0  0  0  0  0  0  0  0  0
  1 11  1  0  0  0  0
  2 12  2  0  0  0  0
  3  1  2  0  0  0  0
  3  2  1  0  0  0  0
  4  5  2  0  0  0  0
  7  4  1  0  0  0  0
  7  6  1  0  0  0  0
  8  7  2  0  0  0  0
  9 10  1  0  0  0  0
 10  6  2  0  0  0  0
 11  8  1  0  0  0  0
 11 14  2  0  0  0  0
 12 14  1  0  0  0  0
 13  9  2  0  0  0  0
 13  8  1  0  0  0  0
 14  4  1  0  0  0  0
 16  9  1  0  0  0  0
 16 15  1  1  0  0  0
 17 22  1  0  0  0  0
 18 17  2  0  0  0  0
 18 20  1  0  0  0  0
 19 16  1  0  0  0  0
 20 21  2  0  0  0  0
 21 19  1  0  0  0  0
 22 19  2  0  0  0  0
 23  2  1  0  0  0  0
 23 24  1  1  0  0  0
 26 25  1  0  0  0  0
 26 23  1  0  0  0  0
M  END
>  <MODEL>
1

>  <REMARK>
 VINA RESULT:      -8.6      0.000      0.000
  Name = 
  4 active torsions:
  status: ('A' for Active; 'I' for Inactive)
    1  A    between atoms: C_4  and  C_20
    2  A    between atoms: C_8  and  C_17
    3  A    between atoms: C_15  and  C_17
    4  A    between atoms: C_20  and  O_22
                            x       y       z     vdW  Elec       q    Type
                         _______ _______ _______ _____ _____    ______ ____

>  <TORSDO>
F 4

$$$$
=
 OpenBabel11072408493D

 26 29  0  0  1  0  0  0  0  0999 V2000
  189.7880  177.6520  142.8860 C   0  0  0  0  0  3  0  0  0  0  0  0
  187.3800  178.0790  142.7420 C   0  0  0  0  0  0  0  0  0  0  0  0
  188.6520  178.0010  142.1350 C   0  0  0  0  0  3  0  0  0  0  0  0
  188.5190  177.1330  146.2560 C   0  0  0  0  0  0  0  0  0  0  0  0
  187.6060  177.0960  147.1230 O   0  0  0  0  0  0  0  0  0  0  0  0
  190.6170  176.4960  147.6260 C   0  0  0  0  0  3  0  0  0  0  0  0
  189.9370  176.8540  146.4660 C   0  0  0  0  0  0  0  0  0  0  0  0
  190.5950  177.0060  145.2570 C   0  0  0  0  0  0  0  0  0  0  0  0
  192.6820  176.4400  146.3020 C   0  0  0  0  0  0  0  0  0  0  0  0
  192.0030  176.2900  147.5360 C   0  0  0  0  0  3  0  0  0  0  0  0
  189.6160  177.3870  144.2420 C   0  0  0  0  0  0  0  0  0  0  0  0
  187.2310  177.8060  144.1170 C   0  0  0  0  0  3  0  0  0  0  0  0
  191.9700  176.8080  145.1460 C   0  0  0  0  0  3  0  0  0  0  0  0
  188.3700  177.4630  144.8420 C   0  0  0  0  0  0  0  0  0  0  0  0
  194.8110  177.2170  145.2320 C   0  0  0  0  0  1  0  0  0  0  0  0
  194.1640  176.2410  146.2030 C   0  0  2  0  0  3  0  0  0  0  0  0
  193.9070  172.5170  145.4300 C   0  0  0  0  0  3  0  0  0  0  0  0
  195.2580  172.1660  145.3690 C   0  0  0  0  0  3  0  0  0  0  0  0
  194.5270  174.8190  145.8990 C   0  0  0  0  0  0  0  0  0  0  0  0
  196.2430  173.1360  145.5760 C   0  0  0  0  0  3  0  0  0  0  0  0
  195.8780  174.4580  145.8410 C   0  0  0  0  0  3  0  0  0  0  0  0
  193.5410  173.8390  145.6960 C   0  0  0  0  0  3  0  0  0  0  0  0
  186.1980  178.4520  141.9100 C   0  0  2  0  0  3  0  0  0  0  0  0
  185.0260  177.9830  142.5040 O   0  0  0  0  0  1  0  0  0  0  0  0
  185.0660  177.9290  140.1260 N   0  0  0  0  0  1  0  0  0  0  0  0
  186.3230  177.9180  140.6260 O   0  0  0  0  0  0  0  0  0  0  0  0
  1 11  1  0  0  0  0
  2 12  2  0  0  0  0
  3  2  1  0  0  0  0
  3  1  2  0  0  0  0
  4  7  1  0  0  0  0
  4  5  2  0  0  0  0
  7  6  2  0  0  0  0
  8  7  1  0  0  0  0
  9 10  2  0  0  0  0
 10  6  1  0  0  0  0
 11 14  2  0  0  0  0
 11  8  1  0  0  0  0
 12 14  1  0  0  0  0
 13  8  2  0  0  0  0
 13  9  1  0  0  0  0
 14  4  1  0  0  0  0
 16 15  1  6  0  0  0
 16  9  1  0  0  0  0
 17 22  1  0  0  0  0
 18 17  2  0  0  0  0
 18 20  1  0  0  0  0
 19 16  1  0  0  0  0
 20 21  2  0  0  0  0
 21 19  1  0  0  0  0
 22 19  2  0  0  0  0
 23 24  1  1  0  0  0
 23  2  1  0  0  0  0
 25 26  1  0  0  0  0
 26 23  1  0  0  0  0
M  END
>  <MODEL>
2

>  <REMARK>
 VINA RESULT:      -8.4      3.703      8.116
  Name = 
  4 active torsions:
  status: ('A' for Active; 'I' for Inactive)
    1  A    between atoms: C_4  and  C_20
    2  A    between atoms: C_8  and  C_17
    3  A    between atoms: C_15  and  C_17
    4  A    between atoms: C_20  and  O_22
                            x       y       z     vdW  Elec       q    Type
                         _______ _______ _______ _____ _____    ______ ____

>  <TORSDO>
F 4

$$$$
=
 OpenBabel11072408493D

 26 29  0  0  1  0  0  0  0  0999 V2000
  188.0070  177.4890  146.3870 C   0  0  0  0  0  3  0  0  0  0  0  0
  186.0880  178.2330  145.0580 C   0  0  0  0  0  0  0  0  0  0  0  0
  186.6520  177.8520  146.2940 C   0  0  0  0  0  3  0  0  0  0  0  0
  189.2650  177.8220  142.9890 C   0  0  0  0  0  0  0  0  0  0  0  0
  189.1440  178.0890  141.7640 O   0  0  0  0  0  0  0  0  0  0  0  0
  191.7540  177.1490  143.1710 C   0  0  0  0  0  3  0  0  0  0  0  0
  190.4770  177.3820  143.6730 C   0  0  0  0  0  0  0  0  0  0  0  0
  190.1810  177.2010  145.0140 C   0  0  0  0  0  0  0  0  0  0  0  0
  192.4480  176.5380  145.4450 C   0  0  0  0  0  0  0  0  0  0  0  0
  192.7440  176.7220  144.0710 C   0  0  0  0  0  3  0  0  0  0  0  0
  188.7700  177.5190  145.2220 C   0  0  0  0  0  0  0  0  0  0  0  0
  186.8810  178.2560  143.8930 C   0  0  0  0  0  3  0  0  0  0  0  0
  191.1470  176.7760  145.9230 C   0  0  0  0  0  3  0  0  0  0  0  0
  188.2210  177.8930  144.0070 C   0  0  0  0  0  0  0  0  0  0  0  0
  194.5350  177.1340  146.6970 C   0  0  0  0  0  1  0  0  0  0  0  0
  193.4940  176.0630  146.4060 C   0  0  2  0  0  3  0  0  0  0  0  0
  193.9520  172.4350  145.3330 C   0  0  0  0  0  3  0  0  0  0  0  0
  195.3430  172.3710  145.2010 C   0  0  0  0  0  3  0  0  0  0  0  0
  194.1200  174.7710  145.9730 C   0  0  0  0  0  0  0  0  0  0  0  0
  196.1220  173.5020  145.4580 C   0  0  0  0  0  3  0  0  0  0  0  0
  195.5120  174.6990  145.8440 C   0  0  0  0  0  3  0  0  0  0  0  0
  193.3420  173.6300  145.7200 C   0  0  0  0  0  3  0  0  0  0  0  0
  184.6450  178.6130  145.0020 C   0  0  2  0  0  3  0  0  0  0  0  0
  183.9720  178.1070  146.1150 O   0  0  0  0  0  1  0  0  0  0  0  0
  183.2070  179.0940  143.4420 N   0  0  0  0  0  1  0  0  0  0  0  0
  184.0610  178.1210  143.8340 O   0  0  0  0  0  0  0  0  0  0  0  0
  2  3  2  0  0  0  0
  3  1  1  0  0  0  0
  4  7  1  0  0  0  0
  4 14  1  0  0  0  0
  5  4  2  0  0  0  0
  6  7  2  0  0  0  0
  6 10  1  0  0  0  0
  7  8  1  0  0  0  0
  8 11  1  0  0  0  0
  8 13  2  0  0  0  0
  9 13  1  0  0  0  0
  9 16  1  0  0  0  0
 10  9  2  0  0  0  0
 11  1  2  0  0  0  0
 12 14  2  0  0  0  0
 12  2  1  0  0  0  0
 14 11  1  0  0  0  0
 16 15  1  6  0  0  0
 17 22  1  0  0  0  0
 18 17  2  0  0  0  0
 18 20  1  0  0  0  0
 19 16  1  0  0  0  0
 20 21  2  0  0  0  0
 21 19  1  0  0  0  0
 22 19  2  0  0  0  0
 23  2  1  0  0  0  0
 23 24  1  1  0  0  0
 25 26  1  0  0  0  0
 26 23  1  0  0  0  0
M  END
>  <MODEL>
3

>  <REMARK>
 VINA RESULT:      -8.3      3.822      8.575
  Name = 
  4 active torsions:
  status: ('A' for Active; 'I' for Inactive)
    1  A    between atoms: C_4  and  C_20
    2  A    between atoms: C_8  and  C_17
    3  A    between atoms: C_15  and  C_17
    4  A    between atoms: C_20  and  O_22
                            x       y       z     vdW  Elec       q    Type
                         _______ _______ _______ _____ _____    ______ ____

>  <TORSDO>
F 4

$$$$
=
 OpenBabel11072408493D

 26 29  0  0  1  0  0  0  0  0999 V2000
  189.8290  177.3400  142.7230 C   0  0  0  0  0  3  0  0  0  0  0  0
  187.5200  177.9590  143.2550 C   0  0  0  0  0  0  0  0  0  0  0  0
  188.5450  177.7380  142.3120 C   0  0  0  0  0  3  0  0  0  0  0  0
  189.5910  177.1270  146.3470 C   0  0  0  0  0  0  0  0  0  0  0  0
  188.9760  177.2180  147.4430 O   0  0  0  0  0  0  0  0  0  0  0  0
  191.9570  176.3980  147.0910 C   0  0  0  0  0  3  0  0  0  0  0  0
  190.9860  176.7440  146.1550 C   0  0  0  0  0  0  0  0  0  0  0  0
  191.2630  176.7680  144.7990 C   0  0  0  0  0  0  0  0  0  0  0  0
  193.5270  176.0910  145.2300 C   0  0  0  0  0  0  0  0  0  0  0  0
  193.2370  176.0710  146.6170 C   0  0  0  0  0  3  0  0  0  0  0  0
  190.0520  177.1700  144.0870 C   0  0  0  0  0  0  0  0  0  0  0  0
  187.7700  177.7800  144.6310 C   0  0  0  0  0  3  0  0  0  0  0  0
  192.5270  176.4490  144.3080 C   0  0  0  0  0  3  0  0  0  0  0  0
  189.0490  177.3850  145.0170 C   0  0  0  0  0  0  0  0  0  0  0  0
  195.0230  176.0020  143.2220 C   0  0  0  0  0  1  0  0  0  0  0  0
  194.8960  175.7630  144.7190 C   0  0  2  0  0  3  0  0  0  0  0  0
  196.9240  172.8640  146.1370 C   0  0  0  0  0  3  0  0  0  0  0  0
  196.1180  171.7780  145.7810 C   0  0  0  0  0  3  0  0  0  0  0  0
  195.3320  174.3820  145.1090 C   0  0  0  0  0  0  0  0  0  0  0  0
  194.9250  171.9920  145.0860 C   0  0  0  0  0  3  0  0  0  0  0  0
  194.5330  173.2900  144.7500 C   0  0  0  0  0  3  0  0  0  0  0  0
  196.5330  174.1630  145.8010 C   0  0  0  0  0  3  0  0  0  0  0  0
  186.1690  178.3800  142.7770 C   0  0  2  0  0  3  0  0  0  0  0  0
  186.1700  178.5070  141.3880 O   0  0  0  0  0  1  0  0  0  0  0  0
  184.6160  179.3490  143.9540 N   0  0  0  0  0  1  0  0  0  0  0  0
  185.8070  179.5950  143.3620 O   0  0  0  0  0  0  0  0  0  0  0  0
  1 11  1  0  0  0  0
  2 12  2  0  0  0  0
  3  1  2  0  0  0  0
  3  2  1  0  0  0  0
  4  5  2  0  0  0  0
  7  4  1  0  0  0  0
  7  6  2  0  0  0  0
  8  7  1  0  0  0  0
  9 10  2  0  0  0  0
 10  6  1  0  0  0  0
 11  8  1  0  0  0  0
 11 14  2  0  0  0  0
 12 14  1  0  0  0  0
 13  8  2  0  0  0  0
 13  9  1  0  0  0  0
 14  4  1  0  0  0  0
 16 15  1  6  0  0  0
 16 19  1  0  0  0  0
 16  9  1  0  0  0  0
 18 17  2  0  0  0  0
 19 22  2  0  0  0  0
 20 18  1  0  0  0  0
 21 20  2  0  0  0  0
 21 19  1  0  0  0  0
 22 17  1  0  0  0  0
 23 24  1  6  0  0  0
 23  2  1  0  0  0  0
 23 26  1  0  0  0  0
 26 25  1  0  0  0  0
M  END
>  <MODEL>
4

>  <REMARK>
 VINA RESULT:      -8.0      3.808      8.513
  Name = 
  4 active torsions:
  status: ('A' for Active; 'I' for Inactive)
    1  A    between atoms: C_4  and  C_20
    2  A    between atoms: C_8  and  C_17
    3  A    between atoms: C_15  and  C_17
    4  A    between atoms: C_20  and  O_22
                            x       y       z     vdW  Elec       q    Type
                         _______ _______ _______ _____ _____    ______ ____

>  <TORSDO>
F 4

$$$$
=
 OpenBabel11072408493D

 26 29  0  0  1  0  0  0  0  0999 V2000
  186.5890  177.9440  141.9800 C   0  0  0  0  0  3  0  0  0  0  0  0
  184.1650  178.0640  142.3130 C   0  0  0  0  0  0  0  0  0  0  0  0
  185.2890  178.0690  141.4600 C   0  0  0  0  0  3  0  0  0  0  0  0
  186.0990  177.6550  145.5730 C   0  0  0  0  0  0  0  0  0  0  0  0
  185.3910  177.6070  146.6130 O   0  0  0  0  0  0  0  0  0  0  0  0
  188.4950  177.4280  146.5190 C   0  0  0  0  0  3  0  0  0  0  0  0
  187.5550  177.5720  145.5020 C   0  0  0  0  0  0  0  0  0  0  0  0
  187.9330  177.6650  144.1730 C   0  0  0  0  0  0  0  0  0  0  0  0
  190.2440  177.4700  144.7970 C   0  0  0  0  0  0  0  0  0  0  0  0
  189.8500  177.3790  146.1550 C   0  0  0  0  0  3  0  0  0  0  0  0
  186.7280  177.8120  143.3600 C   0  0  0  0  0  0  0  0  0  0  0  0
  184.3320  177.9290  143.7060 C   0  0  0  0  0  3  0  0  0  0  0  0
  189.2720  177.6200  143.7910 C   0  0  0  0  0  3  0  0  0  0  0  0
  185.6290  177.8060  144.2010 C   0  0  0  0  0  0  0  0  0  0  0  0
  191.8840  177.6590  142.9120 C   0  0  0  0  0  1  0  0  0  0  0  0
  191.6890  177.4390  144.4050 C   0  0  2  0  0  3  0  0  0  0  0  0
  192.5870  173.7820  144.9960 C   0  0  0  0  0  3  0  0  0  0  0  0
  193.6890  173.9140  145.8460 C   0  0  0  0  0  3  0  0  0  0  0  0
  192.3810  176.1990  144.8870 C   0  0  0  0  0  0  0  0  0  0  0  0
  194.1350  175.1850  146.2200 C   0  0  0  0  0  3  0  0  0  0  0  0
  193.4820  176.3240  145.7420 C   0  0  0  0  0  3  0  0  0  0  0  0
  191.9330  174.9210  144.5190 C   0  0  0  0  0  3  0  0  0  0  0  0
  182.8010  178.1990  141.7200 C   0  0  2  0  0  3  0  0  0  0  0  0
  182.8910  178.6790  140.4130 O   0  0  0  0  0  1  0  0  0  0  0  0
  180.8270  179.1040  141.8610 N   0  0  0  0  0  1  0  0  0  0  0  0
  182.0240  179.0660  142.4900 O   0  0  0  0  0  0  0  0  0  0  0  0
  1 11  1  0  0  0  0
  2 12  2  0  0  0  0
  3  1  2  0  0  0  0
  3  2  1  0  0  0  0
  4  5  2  0  0  0  0
  7  4  1  0  0  0  0
  7  6  2  0  0  0  0
  8  7  1  0  0  0  0
  9 10  2  0  0  0  0
 10  6  1  0  0  0  0
 11  8  1  0  0  0  0
 11 14  2  0  0  0  0
 12 14  1  0  0  0  0
 13  8  2  0  0  0  0
 13  9  1  0  0  0  0
 14  4  1  0  0  0  0
 16 15  1  6  0  0  0
 16  9  1  0  0  0  0
 16 19  1  0  0  0  0
 17 18  1  0  0  0  0
 18 20  2  0  0  0  0
 19 21  2  0  0  0  0
 21 20  1  0  0  0  0
 22 19  1  0  0  0  0
 22 17  2  0  0  0  0
 23 24  1  6  0  0  0
 23  2  1  0  0  0  0
 23 26  1  0  0  0  0
 25 26  1  0  0  0  0
M  END
>  <MODEL>
5

>  <REMARK>
 VINA RESULT:      -7.9      4.423      8.251
  Name = 
  4 active torsions:
  status: ('A' for Active; 'I' for Inactive)
    1  A    between atoms: C_4  and  C_20
    2  A    between atoms: C_8  and  C_17
    3  A    between atoms: C_15  and  C_17
    4  A    between atoms: C_20  and  O_22
                            x       y       z     vdW  Elec       q    Type
                         _______ _______ _______ _____ _____    ______ ____

>  <TORSDO>
F 4

$$$$
=
 OpenBabel11072408493D

 26 29  0  0  1  0  0  0  0  0999 V2000
  191.6360  177.0570  144.4600 C   0  0  0  0  0  3  0  0  0  0  0  0
  193.6840  175.7190  144.3380 C   0  0  0  0  0  0  0  0  0  0  0  0
  193.0050  176.8910  144.7320 C   0  0  0  0  0  3  0  0  0  0  0  0
  190.6820  174.0000  142.7340 C   0  0  0  0  0  0  0  0  0  0  0  0
  190.9140  172.8640  142.2430 O   0  0  0  0  0  0  0  0  0  0  0  0
  188.1650  174.3180  142.2370 C   0  0  0  0  0  3  0  0  0  0  0  0
  189.4020  174.7030  142.7460 C   0  0  0  0  0  0  0  0  0  0  0  0
  189.5780  175.9200  143.3820 C   0  0  0  0  0  0  0  0  0  0  0  0
  187.2610  176.4540  143.0420 C   0  0  0  0  0  0  0  0  0  0  0  0
  187.0890  175.2080  142.3890 C   0  0  0  0  0  3  0  0  0  0  0  0
  190.9760  176.0280  143.7930 C   0  0  0  0  0  0  0  0  0  0  0  0
  192.9930  174.6910  143.6630 C   0  0  0  0  0  3  0  0  0  0  0  0
  188.5250  176.8170  143.5420 C   0  0  0  0  0  3  0  0  0  0  0  0
  191.6370  174.8760  143.4040 C   0  0  0  0  0  0  0  0  0  0  0  0
  186.3130  178.6660  142.3440 C   0  0  0  0  0  1  0  0  0  0  0  0
  186.1220  177.4160  143.1900 C   0  0  2  0  0  3  0  0  0  0  0  0
  185.2650  177.0710  146.8870 C   0  0  0  0  0  3  0  0  0  0  0  0
  185.2760  178.4110  147.2880 C   0  0  0  0  0  3  0  0  0  0  0  0
  185.8380  177.7430  144.6250 C   0  0  0  0  0  0  0  0  0  0  0  0
  185.5640  179.4150  146.3590 C   0  0  0  0  0  3  0  0  0  0  0  0
  185.8420  179.0820  145.0310 C   0  0  0  0  0  3  0  0  0  0  0  0
  185.5420  176.7370  145.5590 C   0  0  0  0  0  3  0  0  0  0  0  0
  195.1380  175.5810  144.6460 C   0  0  2  0  0  3  0  0  0  0  0  0
  195.3180  175.3290  146.0070 O   0  0  0  0  0  1  0  0  0  0  0  0
  196.2690  176.5050  143.0330 N   0  0  0  0  0  1  0  0  0  0  0  0
  195.8210  176.7440  144.2870 O   0  0  0  0  0  0  0  0  0  0  0  0
  1  3  1  0  0  0  0
  2 23  1  0  0  0  0
  2  3  2  0  0  0  0
  4  7  1  0  0  0  0
  4 14  1  0  0  0  0
  5  4  2  0  0  0  0
  6 10  2  0  0  0  0
  6  7  1  0  0  0  0
  7  8  2  0  0  0  0
  8 13  1  0  0  0  0
  8 11  1  0  0  0  0
  9 16  1  0  0  0  0
  9 13  2  0  0  0  0
 10  9  1  0  0  0  0
 11  1  2  0  0  0  0
 12  2  1  0  0  0  0
 14 12  2  0  0  0  0
 14 11  1  0  0  0  0
 16 15  1  6  0  0  0
 16 19  1  0  0  0  0
 17 18  1  0  0  0  0
 19 21  2  0  0  0  0
 19 22  1  0  0  0  0
 20 18  2  0  0  0  0
 21 20  1  0  0  0  0
 22 17  2  0  0  0  0
 23 24  1  1  0  0  0
 25 26  1  0  0  0  0
 26 23  1  0  0  0  0
M  END
>  <MODEL>
6

>  <REMARK>
 VINA RESULT:      -7.8      2.271      3.606
  Name = 
  4 active torsions:
  status: ('A' for Active; 'I' for Inactive)
    1  A    between atoms: C_4  and  C_20
    2  A    between atoms: C_8  and  C_17
    3  A    between atoms: C_15  and  C_17
    4  A    between atoms: C_20  and  O_22
                            x       y       z     vdW  Elec       q    Type
                         _______ _______ _______ _____ _____    ______ ____

>  <TORSDO>
F 4

$$$$
=
 OpenBabel11072408493D

 26 29  0  0  1  0  0  0  0  0999 V2000
  192.8800  176.1480  142.8810 C   0  0  0  0  0  3  0  0  0  0  0  0
  195.1540  176.0630  143.7890 C   0  0  0  0  0  0  0  0  0  0  0  0
  194.2660  175.9950  142.6950 C   0  0  0  0  0  3  0  0  0  0  0  0
  192.5020  176.6750  146.4610 C   0  0  0  0  0  0  0  0  0  0  0  0
  192.9430  176.7960  147.6340 O   0  0  0  0  0  0  0  0  0  0  0  0
  189.9530  176.9500  146.7900 C   0  0  0  0  0  3  0  0  0  0  0  0
  191.1070  176.7450  146.0390 C   0  0  0  0  0  0  0  0  0  0  0  0
  191.0560  176.5620  144.6670 C   0  0  0  0  0  0  0  0  0  0  0  0
  188.6650  176.7850  144.7070 C   0  0  0  0  0  0  0  0  0  0  0  0
  188.7240  176.9680  146.1110 C   0  0  0  0  0  3  0  0  0  0  0  0
  192.4180  176.3690  144.1760 C   0  0  0  0  0  0  0  0  0  0  0  0
  194.6610  176.2890  145.0910 C   0  0  0  0  0  3  0  0  0  0  0  0
  189.8470  176.5750  143.9750 C   0  0  0  0  0  3  0  0  0  0  0  0
  193.2850  176.4370  145.2520 C   0  0  0  0  0  0  0  0  0  0  0  0
  187.4790  177.3450  142.5720 C   0  0  0  0  0  1  0  0  0  0  0  0
  187.3550  176.7830  143.9800 C   0  0  2  0  0  3  0  0  0  0  0  0
  184.5650  177.4360  146.4940 C   0  0  0  0  0  3  0  0  0  0  0  0
  184.2220  178.7530  146.1730 C   0  0  0  0  0  3  0  0  0  0  0  0
  186.2690  177.4580  144.7630 C   0  0  0  0  0  0  0  0  0  0  0  0
  184.8970  179.4210  145.1470 C   0  0  0  0  0  3  0  0  0  0  0  0
  185.9170  178.7740  144.4440 C   0  0  0  0  0  3  0  0  0  0  0  0
  185.5840  176.7890  145.7900 C   0  0  0  0  0  3  0  0  0  0  0  0
  196.6180  175.8970  143.5500 C   0  0  2  0  0  3  0  0  0  0  0  0
  197.1790  177.1100  143.1470 O   0  0  0  0  0  1  0  0  0  0  0  0
  197.1170  173.7980  143.2650 N   0  0  0  0  0  1  0  0  0  0  0  0
  196.8410  174.9270  142.5720 O   0  0  0  0  0  0  0  0  0  0  0  0
  1 11  1  0  0  0  0
  2 12  2  0  0  0  0
  3  1  2  0  0  0  0
  3  2  1  0  0  0  0
  4  5  2  0  0  0  0
  7  4  1  0  0  0  0
  7  6  2  0  0  0  0
  8  7  1  0  0  0  0
  9 10  2  0  0  0  0
 10  6  1  0  0  0  0
 11  8  1  0  0  0  0
 11 14  2  0  0  0  0
 12 14  1  0  0  0  0
 13  8  2  0  0  0  0
 13  9  1  0  0  0  0
 14  4  1  0  0  0  0
 16 15  1  6  0  0  0
 16  9  1  0  0  0  0
 16 19  1  0  0  0  0
 18 17  1  0  0  0  0
 19 22  1  0  0  0  0
 20 18  2  0  0  0  0
 21 19  2  0  0  0  0
 21 20  1  0  0  0  0
 22 17  2  0  0  0  0
 23 24  1  6  0  0  0
 23  2  1  0  0  0  0
 26 25  1  0  0  0  0
 26 23  1  0  0  0  0
M  END
>  <MODEL>
7

>  <REMARK>
 VINA RESULT:      -7.8      2.048      3.451
  Name = 
  4 active torsions:
  status: ('A' for Active; 'I' for Inactive)
    1  A    between atoms: C_4  and  C_20
    2  A    between atoms: C_8  and  C_17
    3  A    between atoms: C_15  and  C_17
    4  A    between atoms: C_20  and  O_22
                            x       y       z     vdW  Elec       q    Type
                         _______ _______ _______ _____ _____    ______ ____

>  <TORSDO>
F 4

$$$$
=
 OpenBabel11072408493D

 26 29  0  0  1  0  0  0  0  0999 V2000
  185.1130  177.9910  141.4680 C   0  0  0  0  0  3  0  0  0  0  0  0
  182.7650  178.6770  141.5940 C   0  0  0  0  0  0  0  0  0  0  0  0
  183.8930  178.2910  140.8390 C   0  0  0  0  0  3  0  0  0  0  0  0
  184.4430  178.4690  145.0120 C   0  0  0  0  0  0  0  0  0  0  0  0
  183.7040  178.7600  145.9900 O   0  0  0  0  0  0  0  0  0  0  0  0
  186.6930  177.9180  146.1580 C   0  0  0  0  0  3  0  0  0  0  0  0
  185.8450  178.0700  145.0650 C   0  0  0  0  0  0  0  0  0  0  0  0
  186.2820  177.8390  143.7710 C   0  0  0  0  0  0  0  0  0  0  0  0
  188.4690  177.2790  144.5900 C   0  0  0  0  0  0  0  0  0  0  0  0
  188.0170  177.5200  145.9110 C   0  0  0  0  0  3  0  0  0  0  0  0
  185.1700  178.0860  142.8570 C   0  0  0  0  0  0  0  0  0  0  0  0
  182.8470  178.7650  142.9990 C   0  0  0  0  0  3  0  0  0  0  0  0
  187.5910  177.4440  143.5040 C   0  0  0  0  0  3  0  0  0  0  0  0
  184.0660  178.4640  143.6020 C   0  0  0  0  0  0  0  0  0  0  0  0
  190.5090  177.6830  143.1900 C   0  0  0  0  0  1  0  0  0  0  0  0
  189.8860  176.8720  144.3180 C   0  0  2  0  0  3  0  0  0  0  0  0
  190.2880  173.4830  142.6210 C   0  0  0  0  0  3  0  0  0  0  0  0
  190.2300  172.6260  143.7240 C   0  0  0  0  0  3  0  0  0  0  0  0
  190.0200  175.3970  144.0930 C   0  0  0  0  0  0  0  0  0  0  0  0
  190.0630  173.1510  145.0090 C   0  0  0  0  0  3  0  0  0  0  0  0
  189.9570  174.5330  145.1920 C   0  0  0  0  0  3  0  0  0  0  0  0
  190.1810  174.8650  142.8040 C   0  0  0  0  0  3  0  0  0  0  0  0
  181.4860  178.9860  140.8880 C   0  0  2  0  0  3  0  0  0  0  0  0
  180.4980  179.3290  141.8110 O   0  0  0  0  0  1  0  0  0  0  0  0
  179.7200  177.9750  140.1170 N   0  0  0  0  0  1  0  0  0  0  0  0
  181.0700  177.8840  140.1390 O   0  0  0  0  0  0  0  0  0  0  0  0
  1 11  1  0  0  0  0
  2 12  2  0  0  0  0
  3  1  2  0  0  0  0
  3  2  1  0  0  0  0
  4  7  1  0  0  0  0
  4  5  2  0  0  0  0
  7  6  2  0  0  0  0
  8  7  1  0  0  0  0
  9 10  2  0  0  0  0
 10  6  1  0  0  0  0
 11 14  2  0  0  0  0
 11  8  1  0  0  0  0
 12 14  1  0  0  0  0
 13  8  2  0  0  0  0
 13  9  1  0  0  0  0
 14  4  1  0  0  0  0
 16 15  1  6  0  0  0
 16  9  1  0  0  0  0
 17 22  2  0  0  0  0
 17 18  1  0  0  0  0
 18 20  2  0  0  0  0
 19 16  1  0  0  0  0
 19 21  2  0  0  0  0
 20 21  1  0  0  0  0
 22 19  1  0  0  0  0
 23  2  1  0  0  0  0
 23 24  1  1  0  0  0
 25 26  1  0  0  0  0
 26 23  1  0  0  0  0
M  END
>  <MODEL>
8

>  <REMARK>
 VINA RESULT:      -7.6      5.122      8.355
  Name = 
  4 active torsions:
  status: ('A' for Active; 'I' for Inactive)
    1  A    between atoms: C_4  and  C_20
    2  A    between atoms: C_8  and  C_17
    3  A    between atoms: C_15  and  C_17
    4  A    between atoms: C_20  and  O_22
                            x       y       z     vdW  Elec       q    Type
                         _______ _______ _______ _____ _____    ______ ____

>  <TORSDO>
F 4

$$$$
=
 OpenBabel11072408493D

 26 29  0  0  1  0  0  0  0  0999 V2000
  186.1410  177.3880  144.7450 C   0  0  0  0  0  3  0  0  0  0  0  0
  184.6940  178.0290  142.8750 C   0  0  0  0  0  0  0  0  0  0  0  0
  184.9920  178.0310  144.2540 C   0  0  0  0  0  3  0  0  0  0  0  0
  187.7350  176.0050  141.7810 C   0  0  0  0  0  0  0  0  0  0  0  0
  187.8160  175.7880  140.5430 O   0  0  0  0  0  0  0  0  0  0  0  0
  189.8440  174.8220  142.6950 C   0  0  0  0  0  3  0  0  0  0  0  0
  188.6730  175.5650  142.8090 C   0  0  0  0  0  0  0  0  0  0  0  0
  188.2160  176.0140  144.0370 C   0  0  0  0  0  0  0  0  0  0  0  0
  190.0970  174.9970  145.1300 C   0  0  0  0  0  0  0  0  0  0  0  0
  190.5580  174.5380  143.8710 C   0  0  0  0  0  3  0  0  0  0  0  0
  186.9730  176.7510  143.8260 C   0  0  0  0  0  0  0  0  0  0  0  0
  185.5520  177.3780  141.9650 C   0  0  0  0  0  3  0  0  0  0  0  0
  188.9080  175.7420  145.2160 C   0  0  0  0  0  3  0  0  0  0  0  0
  186.6850  176.7460  142.4720 C   0  0  0  0  0  0  0  0  0  0  0  0
  190.1820  175.2910  147.6170 C   0  0  0  0  0  1  0  0  0  0  0  0
  190.8430  174.6800  146.3900 C   0  0  2  0  0  3  0  0  0  0  0  0
  194.1150  176.6320  146.5130 C   0  0  0  0  0  3  0  0  0  0  0  0
  195.0180  175.6630  146.0650 C   0  0  0  0  0  3  0  0  0  0  0  0
  192.2960  175.0370  146.2950 C   0  0  0  0  0  0  0  0  0  0  0  0
  194.5630  174.3860  145.7290 C   0  0  0  0  0  3  0  0  0  0  0  0
  193.2050  174.0740  145.8430 C   0  0  0  0  0  3  0  0  0  0  0  0
  192.7570  176.3210  146.6260 C   0  0  0  0  0  3  0  0  0  0  0  0
  183.4640  178.7250  142.3950 C   0  0  2  0  0  3  0  0  0  0  0  0
  182.6390  179.0410  143.4740 O   0  0  0  0  0  1  0  0  0  0  0  0
  181.4780  178.2920  141.6160 N   0  0  0  0  0  1  0  0  0  0  0  0
  182.7720  177.9150  141.4930 O   0  0  0  0  0  0  0  0  0  0  0  0
  2  3  2  0  0  0  0
  3  1  1  0  0  0  0
  4 14  1  0  0  0  0
  4  7  1  0  0  0  0
  5  4  2  0  0  0  0
  6  7  2  0  0  0  0
  6 10  1  0  0  0  0
  7  8  1  0  0  0  0
  8 13  2  0  0  0  0
  9 13  1  0  0  0  0
  9 16  1  0  0  0  0
 10  9  2  0  0  0  0
 11  8  1  0  0  0  0
 11  1  2  0  0  0  0
 12 14  2  0  0  0  0
 12  2  1  0  0  0  0
 14 11  1  0  0  0  0
 16 15  1  1  0  0  0
 17 22  1  0  0  0  0
 18 17  2  0  0  0  0
 19 16  1  0  0  0  0
 19 22  2  0  0  0  0
 20 21  2  0  0  0  0
 20 18  1  0  0  0  0
 21 19  1  0  0  0  0
 23  2  1  0  0  0  0
 23 24  1  1  0  0  0
 26 25  1  0  0  0  0
 26 23  1  0  0  0  0
M  END
>  <MODEL>
9

>  <REMARK>
 VINA RESULT:      -7.6      4.482      8.445
  Name = 
  4 active torsions:
  status: ('A' for Active; 'I' for Inactive)
    1  A    between atoms: C_4  and  C_20
    2  A    between atoms: C_8  and  C_17
    3  A    between atoms: C_15  and  C_17
    4  A    between atoms: C_20  and  O_22
                            x       y       z     vdW  Elec       q    Type
                         _______ _______ _______ _____ _____    ______ ____

>  <TORSDO>
F 4

$$$$
