=
 OpenBabel11062420283D

 53 58  0  0  1  0  0  0  0  0999 V2000
  190.6180  174.1890  140.6710 C   0  0  0  0  0  3  0  0  0  0  0  0
  188.6430  176.5360  141.4230 N   0  0  0  0  0  2  0  0  0  0  0  0
  191.6720  171.5640  144.4310 C   0  0  0  0  0  1  0  0  0  0  0  0
  188.3710  175.3550  144.0360 C   0  0  2  0  0  3  0  0  0  0  0  0
  191.5120  173.5990  139.6600 C   0  0  0  0  0  0  0  0  0  0  0  0
  186.0940  178.4470  144.2530 C   0  0  0  0  0  3  0  0  0  0  0  0
  189.3300  174.4450  140.4110 C   0  0  0  0  0  0  0  0  0  0  0  0
  193.4750  171.2300  141.8240 O   0  0  0  0  0  0  0  0  0  0  0  0
  190.3940  175.2050  145.7300 C   0  0  2  0  0  3  0  0  0  0  0  0
  190.9740  173.3520  138.3020 C   0  0  0  0  0  3  0  0  0  0  0  0
  189.6530  174.0050  146.2980 C   0  0  0  0  0  1  0  0  0  0  0  0
  189.5920  175.9650  144.7000 C   0  0  0  0  0  0  0  0  0  0  0  0
  193.1760  173.4750  141.3310 O   0  0  0  0  0  0  0  0  0  0  0  0
  188.4700  175.0770  141.4660 C   0  0  1  0  0  3  0  0  0  0  0  0
  187.8890  177.2590  142.4580 C   0  0  1  0  0  3  0  0  0  0  0  0
  192.5040  172.8330  144.4940 C   0  0  1  0  0  3  0  0  0  0  0  0
  188.8000  174.1790  139.0550 C   0  0  0  0  0  0  0  0  0  0  0  0
  193.4890  172.4310  142.2080 C   0  0  0  0  0  0  0  0  0  0  0  0
  191.7960  174.7980  145.2440 C   0  0  1  0  0  3  0  0  0  0  0  0
  186.7690  178.1110  141.8830 C   0  0  0  0  0  2  0  0  0  0  0  0
  186.6910  177.1840  144.6250 N   0  0  0  0  0  0  0  0  0  0  0  0
  188.7940  174.4780  142.8570 C   0  0  0  0  0  2  0  0  0  0  0  0
  193.7750  172.7340  143.6420 C   0  0  0  0  0  2  0  0  0  0  0  0
  189.9540  177.0940  144.4010 O   0  0  0  0  0  0  0  0  0  0  0  0
  191.7330  173.9460  144.1340 O   0  0  0  0  0  0  0  0  0  0  0  0
  187.5970  174.4260  138.7750 O   0  0  0  0  0  0  0  0  0  0  0  0
  192.7620  173.2630  140.0070 C   0  0  0  0  0  0  0  0  0  0  0  0
  186.1320  178.9030  142.9920 C   0  0  0  0  0  3  0  0  0  0  0  0
  187.3170  176.3690  143.5670 C   0  0  2  0  0  3  0  0  0  0  0  0
  189.6950  173.6270  138.0190 C   0  0  0  0  0  3  0  0  0  0  0  0
  193.7100  172.6640  139.0010 C   0  0  2  0  0  3  0  0  0  0  0  0
  196.0320  172.4840  138.2230 N   0  0  0  0  0  2  0  0  0  0  0  0
  193.6780  171.2380  139.0720 O   0  0  0  0  0  0  0  0  0  0  0  0
  196.1510  171.1010  138.6760 C   0  0  0  0  0  2  0  0  0  0  0  0
  195.1460  173.2050  139.1370 C   0  0  1  0  0  3  0  0  0  0  0  0
  194.6840  169.2110  138.6600 O   0  0  0  0  0  0  0  0  0  0  0  0
  194.7980  170.4590  138.7720 C   0  0  0  0  0  0  0  0  0  0  0  0
  195.2450  174.7130  138.8970 C   0  0  0  0  0  2  0  0  0  0  0  0
  195.8690  175.4700  140.0660 C   0  0  0  0  0  2  0  0  0  0  0  0
  194.9080  176.2670  140.6910 O   0  0  0  0  0  0  0  0  0  0  0  0
  195.1460  176.1080  142.0610 C   0  0  0  0  0  2  0  0  0  0  0  0
  196.5290  176.6440  142.4170 C   0  0  0  0  0  2  0  0  0  0  0  0
  197.1800  175.8040  143.4680 C   0  0  0  0  0  3  0  0  0  0  0  0
  197.0110  174.4850  143.4910 C   0  0  0  0  0  2  0  0  0  0  0  0
  185.3290  176.9690  146.6660 C   0  0  0  0  0  2  0  0  0  0  0  0
  187.2870  177.7890  146.9750 C   0  0  0  0  0  2  0  0  0  0  0  0
  186.6970  176.7420  146.0320 C   0  0  0  0  0  3  0  0  0  0  0  0
  185.9230  178.0090  147.5980 C   0  0  0  0  0  2  0  0  0  0  0  0
  192.6750  176.0110  144.9200 C   0  0  0  0  0  2  0  0  0  0  0  0
  194.5550  177.5230  145.5940 C   0  0  0  0  0  1  0  0  0  0  0  0
  194.6090  175.1390  146.2770 C   0  0  0  0  0  1  0  0  0  0  0  0
  193.0350  176.6500  147.1620 F   0  0  0  0  0  0  0  0  0  0  0  0
  193.7090  176.3320  146.0000 C   0  0  0  0  0  0  0  0  0  0  0  0
  2 14  1  0  0  0  0
  2 15  1  0  0  0  0
  4 22  1  6  0  0  0
  4 12  1  0  0  0  0
  5 27  2  0  0  0  0
  5  1  1  0  0  0  0
  6 21  1  0  0  0  0
  7  1  2  0  0  0  0
  7 14  1  0  0  0  0
  8 18  2  0  0  0  0
  9 11  1  6  0  0  0
 10  5  1  0  0  0  0
 12  9  1  0  0  0  0
 13 18  1  0  0  0  0
 14 22  1  1  0  0  0
 15 20  1  6  0  0  0
 15 29  1  0  0  0  0
 16  3  1  6  0  0  0
 17  7  1  0  0  0  0
 18 23  1  0  0  0  0
 19 49  1  6  0  0  0
 19  9  1  0  0  0  0
 20 28  1  0  0  0  0
 21 47  1  0  0  0  0
 23 16  1  0  0  0  0
 24 12  2  0  0  0  0
 25 16  1  0  0  0  0
 25 19  1  0  0  0  0
 26 17  2  0  0  0  0
 27 13  1  0  0  0  0
 28  6  2  0  0  0  0
 29  4  1  0  0  0  0
 29 21  1  1  0  0  0
 30 10  2  0  0  0  0
 30 17  1  0  0  0  0
 31 33  1  0  0  0  0
 31 35  1  0  0  0  0
 31 27  1  1  0  0  0
 32 34  1  0  0  0  0
 32 35  1  0  0  0  0
 34 37  1  0  0  0  0
 35 38  1  6  0  0  0
 36 37  2  0  0  0  0
 37 33  1  0  0  0  0
 38 39  1  0  0  0  0
 39 40  1  0  0  0  0
 40 41  1  0  0  0  0
 41 42  1  0  0  0  0
 42 43  1  0  0  0  0
 43 44  2  0  0  0  0
 45 48  1  0  0  0  0
 46 48  1  0  0  0  0
 47 45  1  0  0  0  0
 47 46  1  0  0  0  0
 49 53  1  0  0  0  0
 50 53  1  0  0  0  0
 53 51  1  0  0  0  0
 53 52  1  0  0  0  0
M  END
>  <MODEL>
1

>  <REMARK>
 VINA RESULT:      -7.6      0.000      0.000
  Name = 
  10 active torsions:
  status: ('A' for Active; 'I' for Inactive)
    1  A    between atoms: C_3  and  C_44
    2  A    between atoms: O_14  and  C_30
    3  A    between atoms: O_14  and  C_34
    4  A    between atoms: C_17  and  C_49
    5  A    between atoms: C_28  and  C_29
    6  A    between atoms: C_28  and  C_47
    7  A    between atoms: C_30  and  C_50
    8  A    between atoms: N_32  and  C_37
    9  A    between atoms: C_34  and  C_49
   10  A    between atoms: C_39  and  C_50
                            x       y       z     vdW  Elec       q    Type
                         _______ _______ _______ _____ _____    ______ ____

>  <TORSDO>
F 10

$$$$
=
 OpenBabel11062420283D

 53 58  0  0  1  0  0  0  0  0999 V2000
  193.2510  175.1020  142.8810 C   0  0  0  0  0  3  0  0  0  0  0  0
  195.3580  175.4690  140.5590 N   0  0  0  0  0  2  0  0  0  0  0  0
  191.1570  170.8950  142.6490 C   0  0  0  0  0  1  0  0  0  0  0  0
  194.9700  172.6960  139.8840 C   0  0  2  0  0  3  0  0  0  0  0  0
  192.4870  175.7330  143.9720 C   0  0  0  0  0  0  0  0  0  0  0  0
  197.5760  173.8470  137.3010 C   0  0  0  0  0  3  0  0  0  0  0  0
  194.5880  175.1540  142.8330 C   0  0  0  0  0  0  0  0  0  0  0  0
  189.8440  173.1150  144.5220 O   0  0  0  0  0  0  0  0  0  0  0  0
  192.6660  171.7790  138.9720 C   0  0  2  0  0  3  0  0  0  0  0  0
  193.2300  176.5020  144.9990 C   0  0  0  0  0  3  0  0  0  0  0  0
  193.1130  170.4520  139.5670 C   0  0  0  0  0  1  0  0  0  0  0  0
  193.7450  172.8360  139.0010 C   0  0  0  0  0  0  0  0  0  0  0  0
  190.5410  174.7660  143.0520 O   0  0  0  0  0  0  0  0  0  0  0  0
  195.3150  174.5230  141.6820 C   0  0  1  0  0  3  0  0  0  0  0  0
  196.0000  174.9310  139.3490 C   0  0  1  0  0  3  0  0  0  0  0  0
  190.5130  171.7990  141.6130 C   0  0  1  0  0  3  0  0  0  0  0  0
  195.3190  175.9120  143.8730 C   0  0  0  0  0  0  0  0  0  0  0  0
  189.9260  173.5420  143.3380 C   0  0  0  0  0  0  0  0  0  0  0  0
  191.3370  172.2350  139.5980 C   0  0  1  0  0  3  0  0  0  0  0  0
  197.3150  175.6210  139.0240 C   0  0  0  0  0  2  0  0  0  0  0  0
  196.7500  172.9450  138.0720 N   0  0  0  0  0  0  0  0  0  0  0  0
  194.6570  173.1730  141.3030 C   0  0  0  0  0  2  0  0  0  0  0  0
  189.4230  172.6900  142.2190 C   0  0  0  0  0  2  0  0  0  0  0  0
  193.6050  173.8240  138.2950 O   0  0  0  0  0  0  0  0  0  0  0  0
  191.4860  172.5610  140.9520 O   0  0  0  0  0  0  0  0  0  0  0  0
  196.5750  175.9940  143.8450 O   0  0  0  0  0  0  0  0  0  0  0  0
  191.1600  175.5570  144.0300 C   0  0  0  0  0  0  0  0  0  0  0  0
  197.8380  175.0960  137.7150 C   0  0  0  0  0  3  0  0  0  0  0  0
  196.2250  173.4160  139.3680 C   0  0  2  0  0  3  0  0  0  0  0  0
  194.5650  176.5850  144.9500 C   0  0  0  0  0  3  0  0  0  0  0  0
  190.3430  176.1920  145.1250 C   0  0  2  0  0  3  0  0  0  0  0  0
  188.2520  177.3290  145.7280 N   0  0  0  0  0  2  0  0  0  0  0  0
  190.0630  175.2420  146.1530 O   0  0  0  0  0  0  0  0  0  0  0  0
  187.7550  176.1730  146.4700 C   0  0  0  0  0  2  0  0  0  0  0  0
  189.0540  176.8560  144.6010 C   0  0  1  0  0  3  0  0  0  0  0  0
  188.7670  174.5720  147.9320 O   0  0  0  0  0  0  0  0  0  0  0  0
  188.8940  175.3040  146.9160 C   0  0  0  0  0  0  0  0  0  0  0  0
  189.3240  177.9990  143.6210 C   0  0  0  0  0  2  0  0  0  0  0  0
  188.6770  177.7880  142.2540 C   0  0  0  0  0  2  0  0  0  0  0  0
  187.3430  177.4080  142.4090 O   0  0  0  0  0  0  0  0  0  0  0  0
  186.6190  178.6050  142.3430 C   0  0  0  0  0  2  0  0  0  0  0  0
  185.4370  178.5550  143.3050 C   0  0  0  0  0  2  0  0  0  0  0  0
  185.6120  179.5260  144.4280 C   0  0  0  0  0  3  0  0  0  0  0  0
  185.2210  179.2220  145.6620 C   0  0  0  0  0  2  0  0  0  0  0  0
  197.4010  170.5710  138.0980 C   0  0  0  0  0  2  0  0  0  0  0  0
  196.9670  171.3630  136.1510 C   0  0  0  0  0  2  0  0  0  0  0  0
  196.4200  171.6040  137.5560 C   0  0  0  0  0  3  0  0  0  0  0  0
  197.9410  170.3370  136.6980 C   0  0  0  0  0  2  0  0  0  0  0  0
  190.7120  173.4130  138.8440 C   0  0  0  0  0  2  0  0  0  0  0  0
  189.7340  172.6760  136.6580 C   0  0  0  0  0  1  0  0  0  0  0  0
  188.4370  174.2100  138.1140 C   0  0  0  0  0  1  0  0  0  0  0  0
  188.8480  171.9720  138.7200 F   0  0  0  0  0  0  0  0  0  0  0  0
  189.4270  173.0570  138.0940 C   0  0  0  0  0  0  0  0  0  0  0  0
  1  5  1  0  0  0  0
  2 14  1  0  0  0  0
  4 22  1  1  0  0  0
  5 27  2  0  0  0  0
  5 10  1  0  0  0  0
  6 28  2  0  0  0  0
  6 21  1  0  0  0  0
  7  1  2  0  0  0  0
  7 17  1  0  0  0  0
  9 12  1  0  0  0  0
  9 11  1  1  0  0  0
  9 19  1  0  0  0  0
 12  4  1  0  0  0  0
 13 18  1  0  0  0  0
 13 27  1  0  0  0  0
 14 22  1  6  0  0  0
 14  7  1  0  0  0  0
 15 20  1  1  0  0  0
 15 29  1  0  0  0  0
 15  2  1  0  0  0  0
 16 23  1  0  0  0  0
 16  3  1  1  0  0  0
 17 30  1  0  0  0  0
 18  8  2  0  0  0  0
 19 49  1  6  0  0  0
 19 25  1  0  0  0  0
 23 18  1  0  0  0  0
 24 12  2  0  0  0  0
 25 16  1  0  0  0  0
 26 17  2  0  0  0  0
 28 20  1  0  0  0  0
 29 21  1  6  0  0  0
 29  4  1  0  0  0  0
 30 10  2  0  0  0  0
 31 27  1  6  0  0  0
 31 33  1  0  0  0  0
 32 34  1  0  0  0  0
 33 37  1  0  0  0  0
 34 37  1  0  0  0  0
 35 38  1  6  0  0  0
 35 31  1  0  0  0  0
 35 32  1  0  0  0  0
 37 36  2  0  0  0  0
 39 40  1  0  0  0  0
 39 38  1  0  0  0  0
 41 40  1  0  0  0  0
 41 42  1  0  0  0  0
 42 43  1  0  0  0  0
 43 44  2  0  0  0  0
 46 48  1  0  0  0  0
 46 47  1  0  0  0  0
 47 21  1  0  0  0  0
 47 45  1  0  0  0  0
 48 45  1  0  0  0  0
 50 53  1  0  0  0  0
 53 51  1  0  0  0  0
 53 52  1  0  0  0  0
 53 49  1  0  0  0  0
M  END
>  <MODEL>
2

>  <REMARK>
 VINA RESULT:      -7.2      2.490      9.591
  Name = 
  10 active torsions:
  status: ('A' for Active; 'I' for Inactive)
    1  A    between atoms: C_3  and  C_44
    2  A    between atoms: O_14  and  C_30
    3  A    between atoms: O_14  and  C_34
    4  A    between atoms: C_17  and  C_49
    5  A    between atoms: C_28  and  C_29
    6  A    between atoms: C_28  and  C_47
    7  A    between atoms: C_30  and  C_50
    8  A    between atoms: N_32  and  C_37
    9  A    between atoms: C_34  and  C_49
   10  A    between atoms: C_39  and  C_50
                            x       y       z     vdW  Elec       q    Type
                         _______ _______ _______ _____ _____    ______ ____

>  <TORSDO>
F 10

$$$$
=
 OpenBabel11062420283D

 53 58  0  0  1  0  0  0  0  0999 V2000
  190.5590  174.1490  140.6420 C   0  0  0  0  0  3  0  0  0  0  0  0
  188.6290  176.5260  141.4120 N   0  0  0  0  0  2  0  0  0  0  0  0
  191.6020  171.5030  144.3900 C   0  0  0  0  0  1  0  0  0  0  0  0
  188.3600  175.3470  144.0270 C   0  0  2  0  0  3  0  0  0  0  0  0
  191.4350  173.5450  139.6220 C   0  0  0  0  0  0  0  0  0  0  0  0
  186.1360  178.4750  144.2660 C   0  0  0  0  0  3  0  0  0  0  0  0
  189.2730  174.4260  140.3930 C   0  0  0  0  0  0  0  0  0  0  0  0
  193.3770  171.1430  141.7670 O   0  0  0  0  0  0  0  0  0  0  0  0
  190.3940  175.1620  145.7030 C   0  0  2  0  0  3  0  0  0  0  0  0
  190.8810  173.3080  138.2680 C   0  0  0  0  0  3  0  0  0  0  0  0
  189.6390  173.9740  146.2760 C   0  0  0  0  0  1  0  0  0  0  0  0
  189.5960  175.9370  144.6810 C   0  0  0  0  0  0  0  0  0  0  0  0
  193.1100  173.3920  141.2780 O   0  0  0  0  0  0  0  0  0  0  0  0
  188.4320  175.0700  141.4560 C   0  0  1  0  0  3  0  0  0  0  0  0
  187.8950  177.2600  142.4540 C   0  0  1  0  0  3  0  0  0  0  0  0
  192.4560  172.7580  144.4470 C   0  0  1  0  0  3  0  0  0  0  0  0
  188.7270  174.1700  139.0410 C   0  0  0  0  0  0  0  0  0  0  0  0
  193.4150  172.3430  142.1520 C   0  0  0  0  0  0  0  0  0  0  0  0
  191.7860  174.7340  145.2040 C   0  0  1  0  0  3  0  0  0  0  0  0
  186.7850  178.1310  141.8900 C   0  0  0  0  0  2  0  0  0  0  0  0
  186.7150  177.2020  144.6320 N   0  0  0  0  0  0  0  0  0  0  0  0
  188.7590  174.4640  142.8430 C   0  0  0  0  0  2  0  0  0  0  0  0
  193.7170  172.6390  143.5840 C   0  0  0  0  0  2  0  0  0  0  0  0
  189.9740  177.0590  144.3800 O   0  0  0  0  0  0  0  0  0  0  0  0
  191.6990  173.8830  144.0950 O   0  0  0  0  0  0  0  0  0  0  0  0
  187.5270  174.4360  138.7720 O   0  0  0  0  0  0  0  0  0  0  0  0
  192.6820  173.1890  139.9590 C   0  0  0  0  0  0  0  0  0  0  0  0
  186.1700  178.9320  143.0050 C   0  0  0  0  0  3  0  0  0  0  0  0
  187.3180  176.3780  143.5670 C   0  0  2  0  0  3  0  0  0  0  0  0
  189.6050  173.6040  137.9970 C   0  0  0  0  0  3  0  0  0  0  0  0
  193.6110  172.5750  138.9440 C   0  0  2  0  0  3  0  0  0  0  0  0
  195.9230  172.3620  138.1430 N   0  0  0  0  0  2  0  0  0  0  0  0
  193.5600  171.1510  139.0160 O   0  0  0  0  0  0  0  0  0  0  0  0
  196.0270  170.9780  138.5970 C   0  0  0  0  0  2  0  0  0  0  0  0
  195.0570  173.0960  139.0650 C   0  0  1  0  0  3  0  0  0  0  0  0
  194.5330  169.1080  138.5960 O   0  0  0  0  0  0  0  0  0  0  0  0
  194.6660  170.3550  138.7050 C   0  0  0  0  0  0  0  0  0  0  0  0
  195.1750  174.6020  138.8230 C   0  0  0  0  0  2  0  0  0  0  0  0
  194.7510  175.0220  137.4180 C   0  0  0  0  0  2  0  0  0  0  0  0
  193.5220  175.6830  137.4640 O   0  0  0  0  0  0  0  0  0  0  0  0
  193.3660  176.2390  136.1890 C   0  0  0  0  0  2  0  0  0  0  0  0
  193.1520  175.1350  135.1600 C   0  0  0  0  0  2  0  0  0  0  0  0
  191.7010  174.8070  135.0110 C   0  0  0  0  0  3  0  0  0  0  0  0
  190.7740  175.7570  135.0960 C   0  0  0  0  0  2  0  0  0  0  0  0
  185.3580  176.9810  146.6750 C   0  0  0  0  0  2  0  0  0  0  0  0
  187.3150  177.8070  146.9800 C   0  0  0  0  0  2  0  0  0  0  0  0
  186.7250  176.7590  146.0380 C   0  0  0  0  0  3  0  0  0  0  0  0
  185.9520  178.0220  147.6070 C   0  0  0  0  0  2  0  0  0  0  0  0
  192.6810  175.9320  144.8740 C   0  0  0  0  0  2  0  0  0  0  0  0
  194.5320  177.4680  145.5750 C   0  0  0  0  0  1  0  0  0  0  0  0
  194.6420  175.0700  146.1990 C   0  0  0  0  0  1  0  0  0  0  0  0
  193.0410  176.5240  147.1290 F   0  0  0  0  0  0  0  0  0  0  0  0
  193.7140  176.2500  145.9570 C   0  0  0  0  0  0  0  0  0  0  0  0
  2 14  1  0  0  0  0
  2 15  1  0  0  0  0
  4 22  1  6  0  0  0
  4 12  1  0  0  0  0
  5 27  2  0  0  0  0
  5  1  1  0  0  0  0
  6 21  1  0  0  0  0
  7  1  2  0  0  0  0
  7 14  1  0  0  0  0
  8 18  2  0  0  0  0
  9 11  1  6  0  0  0
 10  5  1  0  0  0  0
 12  9  1  0  0  0  0
 13 18  1  0  0  0  0
 14 22  1  1  0  0  0
 15 20  1  6  0  0  0
 15 29  1  0  0  0  0
 16  3  1  6  0  0  0
 17  7  1  0  0  0  0
 18 23  1  0  0  0  0
 19 49  1  6  0  0  0
 19  9  1  0  0  0  0
 20 28  1  0  0  0  0
 21 47  1  0  0  0  0
 23 16  1  0  0  0  0
 24 12  2  0  0  0  0
 25 16  1  0  0  0  0
 25 19  1  0  0  0  0
 26 17  2  0  0  0  0
 27 13  1  0  0  0  0
 28  6  2  0  0  0  0
 29  4  1  0  0  0  0
 29 21  1  1  0  0  0
 30 10  2  0  0  0  0
 30 17  1  0  0  0  0
 31 33  1  0  0  0  0
 31 35  1  0  0  0  0
 31 27  1  1  0  0  0
 32 34  1  0  0  0  0
 32 35  1  0  0  0  0
 34 37  1  0  0  0  0
 35 38  1  6  0  0  0
 36 37  2  0  0  0  0
 37 33  1  0  0  0  0
 39 40  1  0  0  0  0
 39 38  1  0  0  0  0
 41 40  1  0  0  0  0
 42 41  1  0  0  0  0
 43 44  2  0  0  0  0
 43 42  1  0  0  0  0
 45 48  1  0  0  0  0
 46 48  1  0  0  0  0
 47 45  1  0  0  0  0
 47 46  1  0  0  0  0
 49 53  1  0  0  0  0
 50 53  1  0  0  0  0
 53 51  1  0  0  0  0
 53 52  1  0  0  0  0
M  END
>  <MODEL>
3

>  <REMARK>
 VINA RESULT:      -6.8      1.185      2.530
  Name = 
  10 active torsions:
  status: ('A' for Active; 'I' for Inactive)
    1  A    between atoms: C_3  and  C_44
    2  A    between atoms: O_14  and  C_30
    3  A    between atoms: O_14  and  C_34
    4  A    between atoms: C_17  and  C_49
    5  A    between atoms: C_28  and  C_29
    6  A    between atoms: C_28  and  C_47
    7  A    between atoms: C_30  and  C_50
    8  A    between atoms: N_32  and  C_37
    9  A    between atoms: C_34  and  C_49
   10  A    between atoms: C_39  and  C_50
                            x       y       z     vdW  Elec       q    Type
                         _______ _______ _______ _____ _____    ______ ____

>  <TORSDO>
F 10

$$$$
=
 OpenBabel11062420283D

 53 58  0  0  1  0  0  0  0  0999 V2000
  189.8580  173.6260  141.9830 C   0  0  0  0  0  3  0  0  0  0  0  0
  191.4670  171.0020  142.6840 N   0  0  0  0  0  2  0  0  0  0  0  0
  192.4250  177.4830  142.8030 C   0  0  0  0  0  1  0  0  0  0  0  0
  193.8040  172.6400  143.0710 C   0  0  2  0  0  3  0  0  0  0  0  0
  188.5580  174.2260  141.6320 C   0  0  0  0  0  0  0  0  0  0  0  0
  195.1130  169.0990  143.8030 C   0  0  0  0  0  3  0  0  0  0  0  0
  190.4000  172.6400  141.2560 C   0  0  0  0  0  0  0  0  0  0  0  0
  189.2890  177.8430  142.3590 O   0  0  0  0  0  0  0  0  0  0  0  0
  193.9640  174.4280  145.0110 C   0  0  2  0  0  3  0  0  0  0  0  0
  187.8110  173.6650  140.4820 C   0  0  0  0  0  3  0  0  0  0  0  0
  194.9460  175.1380  144.0930 C   0  0  0  0  0  1  0  0  0  0  0  0
  193.5640  173.0600  144.5100 C   0  0  0  0  0  0  0  0  0  0  0  0
  188.9120  175.7900  143.3650 O   0  0  0  0  0  0  0  0  0  0  0  0
  191.7100  172.0420  141.6750 C   0  0  1  0  0  3  0  0  0  0  0  0
  192.6930  170.3840  143.2130 C   0  0  1  0  0  3  0  0  0  0  0  0
  191.8880  176.9830  144.1330 C   0  0  1  0  0  3  0  0  0  0  0  0
  189.6500  172.0990  140.1000 C   0  0  0  0  0  0  0  0  0  0  0  0
  189.5010  177.0580  143.3220 C   0  0  0  0  0  0  0  0  0  0  0  0
  192.7680  175.3400  145.3380 C   0  0  1  0  0  3  0  0  0  0  0  0
  192.8390  168.9260  142.8090 C   0  0  0  0  0  2  0  0  0  0  0  0
  195.1460  170.5200  143.5360 N   0  0  0  0  0  0  0  0  0  0  0  0
  192.6720  173.1480  142.1760 C   0  0  0  0  0  2  0  0  0  0  0  0
  190.4570  177.4640  144.3960 C   0  0  0  0  0  2  0  0  0  0  0  0
  193.0280  172.2900  145.2930 O   0  0  0  0  0  0  0  0  0  0  0  0
  191.9800  175.5870  144.2070 O   0  0  0  0  0  0  0  0  0  0  0  0
  190.1250  171.1610  139.4090 O   0  0  0  0  0  0  0  0  0  0  0  0
  188.1150  175.2820  142.3280 C   0  0  0  0  0  0  0  0  0  0  0  0
  194.0490  168.3440  143.4890 C   0  0  0  0  0  3  0  0  0  0  0  0
  193.9840  171.1290  142.8600 C   0  0  2  0  0  3  0  0  0  0  0  0
  188.3270  172.6620  139.7620 C   0  0  0  0  0  3  0  0  0  0  0  0
  186.7890  175.9190  142.0060 C   0  0  2  0  0  3  0  0  0  0  0  0
  185.0560  177.5140  142.7010 N   0  0  0  0  0  2  0  0  0  0  0  0
  186.8590  176.6150  140.7620 O   0  0  0  0  0  0  0  0  0  0  0  0
  185.4010  178.4580  141.6410 C   0  0  0  0  0  2  0  0  0  0  0  0
  186.2730  176.8300  143.1370 C   0  0  1  0  0  3  0  0  0  0  0  0
  186.0300  178.2270  139.3440 O   0  0  0  0  0  0  0  0  0  0  0  0
  186.0860  177.7520  140.5090 C   0  0  0  0  0  0  0  0  0  0  0  0
  186.0230  176.0790  144.4460 C   0  0  0  0  0  2  0  0  0  0  0  0
  186.6720  176.7440  145.6570 C   0  0  0  0  0  2  0  0  0  0  0  0
  185.7690  176.7910  146.7210 O   0  0  0  0  0  0  0  0  0  0  0  0
  184.8700  177.8100  146.3840 C   0  0  0  0  0  2  0  0  0  0  0  0
  185.5720  179.1630  146.4320 C   0  0  0  0  0  2  0  0  0  0  0  0
  185.9350  179.5350  147.8340 C   0  0  0  0  0  3  0  0  0  0  0  0
  187.0490  179.0740  148.3960 C   0  0  0  0  0  2  0  0  0  0  0  0
  197.6040  170.6450  143.5800 C   0  0  0  0  0  2  0  0  0  0  0  0
  196.6460  171.1460  145.4330 C   0  0  0  0  0  2  0  0  0  0  0  0
  196.2990  171.3360  143.9580 C   0  0  0  0  0  3  0  0  0  0  0  0
  197.9410  170.4590  145.0490 C   0  0  0  0  0  2  0  0  0  0  0  0
  191.8980  174.7790  146.4670 C   0  0  0  0  0  2  0  0  0  0  0  0
  190.2250  176.4250  147.3420 C   0  0  0  0  0  1  0  0  0  0  0  0
  192.6460  176.8770  147.6410 C   0  0  0  0  0  1  0  0  0  0  0  0
  191.5600  175.1240  148.7750 F   0  0  0  0  0  0  0  0  0  0  0  0
  191.5840  175.7920  147.5690 C   0  0  0  0  0  0  0  0  0  0  0  0
  2 15  1  0  0  0  0
  4 22  1  6  0  0  0
  4 12  1  0  0  0  0
  5  1  1  0  0  0  0
  5 27  2  0  0  0  0
  7 14  1  0  0  0  0
  7  1  2  0  0  0  0
  8 18  2  0  0  0  0
  9 11  1  6  0  0  0
  9 19  1  0  0  0  0
 10  5  1  0  0  0  0
 12  9  1  0  0  0  0
 12 24  2  0  0  0  0
 14 22  1  1  0  0  0
 14  2  1  0  0  0  0
 15 20  1  6  0  0  0
 16  3  1  6  0  0  0
 16 25  1  0  0  0  0
 16 23  1  0  0  0  0
 17  7  1  0  0  0  0
 18 13  1  0  0  0  0
 18 23  1  0  0  0  0
 19 49  1  1  0  0  0
 20 28  1  0  0  0  0
 21  6  1  0  0  0  0
 21 47  1  0  0  0  0
 25 19  1  0  0  0  0
 26 17  2  0  0  0  0
 27 13  1  0  0  0  0
 28  6  2  0  0  0  0
 29  4  1  0  0  0  0
 29 15  1  0  0  0  0
 29 21  1  1  0  0  0
 30 17  1  0  0  0  0
 30 10  2  0  0  0  0
 31 27  1  1  0  0  0
 31 35  1  0  0  0  0
 32 35  1  0  0  0  0
 33 31  1  0  0  0  0
 34 32  1  0  0  0  0
 35 38  1  1  0  0  0
 36 37  2  0  0  0  0
 37 33  1  0  0  0  0
 37 34  1  0  0  0  0
 38 39  1  0  0  0  0
 39 40  1  0  0  0  0
 41 42  1  0  0  0  0
 41 40  1  0  0  0  0
 42 43  1  0  0  0  0
 43 44  2  0  0  0  0
 45 47  1  0  0  0  0
 45 48  1  0  0  0  0
 47 46  1  0  0  0  0
 48 46  1  0  0  0  0
 49 53  1  0  0  0  0
 50 53  1  0  0  0  0
 53 51  1  0  0  0  0
 53 52  1  0  0  0  0
M  END
>  <MODEL>
4

>  <REMARK>
 VINA RESULT:      -6.4      2.676      8.466
  Name = 
  10 active torsions:
  status: ('A' for Active; 'I' for Inactive)
    1  A    between atoms: C_3  and  C_44
    2  A    between atoms: O_14  and  C_30
    3  A    between atoms: O_14  and  C_34
    4  A    between atoms: C_17  and  C_49
    5  A    between atoms: C_28  and  C_29
    6  A    between atoms: C_28  and  C_47
    7  A    between atoms: C_30  and  C_50
    8  A    between atoms: N_32  and  C_37
    9  A    between atoms: C_34  and  C_49
   10  A    between atoms: C_39  and  C_50
                            x       y       z     vdW  Elec       q    Type
                         _______ _______ _______ _____ _____    ______ ____

>  <TORSDO>
F 10

$$$$
=
 OpenBabel11062420283D

 53 58  0  0  1  0  0  0  0  0999 V2000
  193.9740  175.1430  142.5230 C   0  0  0  0  0  3  0  0  0  0  0  0
  195.7230  175.3080  139.9000 N   0  0  0  0  0  2  0  0  0  0  0  0
  191.7540  171.0080  142.8480 C   0  0  0  0  0  1  0  0  0  0  0  0
  195.1640  172.5180  139.4540 C   0  0  2  0  0  3  0  0  0  0  0  0
  193.3980  175.8600  143.6750 C   0  0  0  0  0  0  0  0  0  0  0  0
  197.3890  173.4340  136.4540 C   0  0  0  0  0  3  0  0  0  0  0  0
  195.2900  175.1450  142.2770 C   0  0  0  0  0  0  0  0  0  0  0  0
  190.7940  173.3710  144.7580 O   0  0  0  0  0  0  0  0  0  0  0  0
  192.7260  171.6360  138.9440 C   0  0  2  0  0  3  0  0  0  0  0  0
  194.3060  176.6550  144.5350 C   0  0  0  0  0  3  0  0  0  0  0  0
  193.2190  170.3290  139.5440 C   0  0  0  0  0  1  0  0  0  0  0  0
  193.8250  172.6540  138.7520 C   0  0  0  0  0  0  0  0  0  0  0  0
  191.3110  174.9140  143.1080 O   0  0  0  0  0  0  0  0  0  0  0  0
  195.8220  174.4260  141.0710 C   0  0  1  0  0  3  0  0  0  0  0  0
  196.1640  174.6830  138.6430 C   0  0  1  0  0  3  0  0  0  0  0  0
  190.9890  171.8770  141.8650 C   0  0  1  0  0  3  0  0  0  0  0  0
  196.1880  175.9310  143.1520 C   0  0  0  0  0  0  0  0  0  0  0  0
  190.7120  173.7310  143.5530 C   0  0  0  0  0  0  0  0  0  0  0  0
  191.5170  172.1730  139.7300 C   0  0  1  0  0  3  0  0  0  0  0  0
  197.4350  175.3070  138.0900 C   0  0  0  0  0  2  0  0  0  0  0  0
  196.6610  172.6050  137.3890 N   0  0  0  0  0  0  0  0  0  0  0  0
  195.0770  173.0830  140.8720 C   0  0  0  0  0  2  0  0  0  0  0  0
  190.0250  172.8370  142.5720 C   0  0  0  0  0  2  0  0  0  0  0  0
  193.6100  173.6070  138.0180 O   0  0  0  0  0  0  0  0  0  0  0  0
  191.8740  172.5660  141.0250 O   0  0  0  0  0  0  0  0  0  0  0  0
  197.4280  175.9660  142.9360 O   0  0  0  0  0  0  0  0  0  0  0  0
  192.0900  175.7350  143.9360 C   0  0  0  0  0  0  0  0  0  0  0  0
  197.7440  174.6930  136.7510 C   0  0  0  0  0  3  0  0  0  0  0  0
  196.3480  173.1640  138.7180 C   0  0  2  0  0  3  0  0  0  0  0  0
  195.6200  176.6880  144.2860 C   0  0  0  0  0  3  0  0  0  0  0  0
  191.4620  176.4560  145.1000 C   0  0  2  0  0  3  0  0  0  0  0  0
  189.3940  177.3170  146.1060 N   0  0  0  0  0  2  0  0  0  0  0  0
  191.6950  175.7430  146.3140 O   0  0  0  0  0  0  0  0  0  0  0  0
  189.3980  176.3010  147.1560 C   0  0  0  0  0  2  0  0  0  0  0  0
  189.9610  176.7390  144.8890 C   0  0  1  0  0  3  0  0  0  0  0  0
  191.1090  175.2970  148.4940 O   0  0  0  0  0  0  0  0  0  0  0  0
  190.7870  175.7770  147.3760 C   0  0  0  0  0  0  0  0  0  0  0  0
  189.6850  177.6460  143.6880 C   0  0  0  0  0  2  0  0  0  0  0  0
  188.2060  177.7240  143.3190 C   0  0  0  0  0  2  0  0  0  0  0  0
  187.7750  176.5020  142.8000 O   0  0  0  0  0  0  0  0  0  0  0  0
  186.5940  176.8000  142.1110 C   0  0  0  0  0  2  0  0  0  0  0  0
  186.9060  177.6500  140.8840 C   0  0  0  0  0  2  0  0  0  0  0  0
  185.6930  177.8320  140.0290 C   0  0  0  0  0  3  0  0  0  0  0  0
  184.5600  178.3010  140.5430 C   0  0  0  0  0  2  0  0  0  0  0  0
  197.1890  170.2060  137.5510 C   0  0  0  0  0  2  0  0  0  0  0  0
  196.6420  170.8750  135.5870 C   0  0  0  0  0  2  0  0  0  0  0  0
  196.2220  171.2510  137.0070 C   0  0  0  0  0  3  0  0  0  0  0  0
  197.6020  169.8380  136.1370 C   0  0  0  0  0  2  0  0  0  0  0  0
  190.8190  173.3300  139.0070 C   0  0  0  0  0  2  0  0  0  0  0  0
  189.6110  172.4500  136.9970 C   0  0  0  0  0  1  0  0  0  0  0  0
  188.5090  174.1480  138.4310 C   0  0  0  0  0  1  0  0  0  0  0  0
  188.9110  171.9550  139.1870 F   0  0  0  0  0  0  0  0  0  0  0  0
  189.4580  172.9610  138.4170 C   0  0  0  0  0  0  0  0  0  0  0  0
  1  5  1  0  0  0  0
  2 14  1  0  0  0  0
  4 22  1  1  0  0  0
  5 27  2  0  0  0  0
  5 10  1  0  0  0  0
  6 28  2  0  0  0  0
  6 21  1  0  0  0  0
  7  1  2  0  0  0  0
  7 17  1  0  0  0  0
  9 11  1  1  0  0  0
  9 19  1  0  0  0  0
 12  9  1  0  0  0  0
 12  4  1  0  0  0  0
 13 18  1  0  0  0  0
 13 27  1  0  0  0  0
 14 22  1  6  0  0  0
 14  7  1  0  0  0  0
 15 20  1  1  0  0  0
 15 29  1  0  0  0  0
 15  2  1  0  0  0  0
 16 23  1  0  0  0  0
 16  3  1  1  0  0  0
 17 30  1  0  0  0  0
 18  8  2  0  0  0  0
 19 49  1  6  0  0  0
 19 25  1  0  0  0  0
 23 18  1  0  0  0  0
 24 12  2  0  0  0  0
 25 16  1  0  0  0  0
 26 17  2  0  0  0  0
 28 20  1  0  0  0  0
 29 21  1  6  0  0  0
 29  4  1  0  0  0  0
 30 10  2  0  0  0  0
 31 27  1  6  0  0  0
 31 33  1  0  0  0  0
 32 34  1  0  0  0  0
 33 37  1  0  0  0  0
 34 37  1  0  0  0  0
 35 38  1  6  0  0  0
 35 31  1  0  0  0  0
 35 32  1  0  0  0  0
 37 36  2  0  0  0  0
 39 38  1  0  0  0  0
 40 39  1  0  0  0  0
 41 40  1  0  0  0  0
 42 41  1  0  0  0  0
 43 44  2  0  0  0  0
 43 42  1  0  0  0  0
 46 48  1  0  0  0  0
 46 47  1  0  0  0  0
 47 21  1  0  0  0  0
 47 45  1  0  0  0  0
 48 45  1  0  0  0  0
 50 53  1  0  0  0  0
 53 51  1  0  0  0  0
 53 49  1  0  0  0  0
 53 52  1  0  0  0  0
M  END
>  <MODEL>
5

>  <REMARK>
 VINA RESULT:      -6.2      2.627      9.647
  Name = 
  10 active torsions:
  status: ('A' for Active; 'I' for Inactive)
    1  A    between atoms: C_3  and  C_44
    2  A    between atoms: O_14  and  C_30
    3  A    between atoms: O_14  and  C_34
    4  A    between atoms: C_17  and  C_49
    5  A    between atoms: C_28  and  C_29
    6  A    between atoms: C_28  and  C_47
    7  A    between atoms: C_30  and  C_50
    8  A    between atoms: N_32  and  C_37
    9  A    between atoms: C_34  and  C_49
   10  A    between atoms: C_39  and  C_50
                            x       y       z     vdW  Elec       q    Type
                         _______ _______ _______ _____ _____    ______ ____

>  <TORSDO>
F 10

$$$$
=
 OpenBabel11062420283D

 53 58  0  0  1  0  0  0  0  0999 V2000
  192.6060  175.4130  142.6160 C   0  0  0  0  0  3  0  0  0  0  0  0
  195.0570  175.6270  140.6370 N   0  0  0  0  0  2  0  0  0  0  0  0
  190.4640  171.2400  142.2490 C   0  0  0  0  0  1  0  0  0  0  0  0
  194.7060  172.8320  140.0350 C   0  0  2  0  0  3  0  0  0  0  0  0
  191.7000  176.1110  143.5450 C   0  0  0  0  0  0  0  0  0  0  0  0
  197.7090  173.8080  137.8410 C   0  0  0  0  0  3  0  0  0  0  0  0
  193.9360  175.4370  142.7750 C   0  0  0  0  0  0  0  0  0  0  0  0
  188.9360  173.5720  143.7920 O   0  0  0  0  0  0  0  0  0  0  0  0
  192.5470  171.9160  138.8170 C   0  0  2  0  0  3  0  0  0  0  0  0
  192.2950  176.9130  144.6400 C   0  0  0  0  0  3  0  0  0  0  0  0
  192.8620  170.6120  139.5320 C   0  0  0  0  0  1  0  0  0  0  0  0
  193.6360  172.9530  138.9650 C   0  0  0  0  0  0  0  0  0  0  0  0
  189.8950  175.1370  142.3770 O   0  0  0  0  0  0  0  0  0  0  0  0
  194.8160  174.7380  141.7810 C   0  0  1  0  0  3  0  0  0  0  0  0
  195.8640  175.0200  139.5670 C   0  0  1  0  0  3  0  0  0  0  0  0
  190.0130  172.1050  141.0850 C   0  0  1  0  0  3  0  0  0  0  0  0
  194.5170  176.2300  143.8810 C   0  0  0  0  0  0  0  0  0  0  0  0
  189.2110  173.9400  142.6180 C   0  0  0  0  0  0  0  0  0  0  0  0
  191.1490  172.4270  139.2060 C   0  0  1  0  0  3  0  0  0  0  0  0
  197.2310  175.6680  139.4210 C   0  0  0  0  0  2  0  0  0  0  0  0
  196.7500  172.9600  138.5130 N   0  0  0  0  0  0  0  0  0  0  0  0
  194.1890  173.3840  141.3640 C   0  0  0  0  0  2  0  0  0  0  0  0
  188.8650  173.0450  141.4740 C   0  0  0  0  0  2  0  0  0  0  0  0
  193.6340  173.9080  138.2040 O   0  0  0  0  0  0  0  0  0  0  0  0
  191.0960  172.8160  140.5510 O   0  0  0  0  0  0  0  0  0  0  0  0
  195.7630  176.2870  144.0460 O   0  0  0  0  0  0  0  0  0  0  0  0
  190.3760  175.9630  143.4030 C   0  0  0  0  0  0  0  0  0  0  0  0
  197.9370  175.0700  138.2340 C   0  0  0  0  0  3  0  0  0  0  0  0
  196.0440  173.5030  139.6890 C   0  0  2  0  0  3  0  0  0  0  0  0
  193.6230  176.9690  144.7960 C   0  0  0  0  0  3  0  0  0  0  0  0
  189.4160  176.6650  144.3270 C   0  0  2  0  0  3  0  0  0  0  0  0
  187.1050  177.4020  144.7120 N   0  0  0  0  0  2  0  0  0  0  0  0
  189.3580  175.9970  145.5880 O   0  0  0  0  0  0  0  0  0  0  0  0
  186.8900  176.4120  145.7640 C   0  0  0  0  0  2  0  0  0  0  0  0
  188.0130  176.8380  143.7130 C   0  0  1  0  0  3  0  0  0  0  0  0
  188.2370  175.5600  147.5490 O   0  0  0  0  0  0  0  0  0  0  0  0
  188.1980  175.9920  146.3670 C   0  0  0  0  0  0  0  0  0  0  0  0
  188.0140  177.6970  142.4470 C   0  0  0  0  0  2  0  0  0  0  0  0
  186.8470  178.6800  142.3840 C   0  0  0  0  0  2  0  0  0  0  0  0
  185.9410  178.2870  141.3980 O   0  0  0  0  0  0  0  0  0  0  0  0
  186.6600  177.4060  140.5800 C   0  0  0  0  0  2  0  0  0  0  0  0
  186.0230  177.3400  139.1970 C   0  0  0  0  0  2  0  0  0  0  0  0
  186.8450  176.5120  138.2620 C   0  0  0  0  0  3  0  0  0  0  0  0
  186.3280  176.0440  137.1300 C   0  0  0  0  0  2  0  0  0  0  0  0
  197.7610  170.9160  137.5840 C   0  0  0  0  0  2  0  0  0  0  0  0
  196.0030  171.5950  136.5580 C   0  0  0  0  0  2  0  0  0  0  0  0
  196.4690  171.6020  138.0130 C   0  0  0  0  0  3  0  0  0  0  0  0
  197.2910  170.9140  136.1400 C   0  0  0  0  0  2  0  0  0  0  0  0
  190.6800  173.5790  138.3120 C   0  0  0  0  0  2  0  0  0  0  0  0
  189.2580  174.1330  136.3250 C   0  0  0  0  0  1  0  0  0  0  0  0
  189.6100  171.7560  136.9440 C   0  0  0  0  0  1  0  0  0  0  0  0
  191.3560  173.0940  136.1050 F   0  0  0  0  0  0  0  0  0  0  0  0
  190.2400  173.1390  136.9150 C   0  0  0  0  0  0  0  0  0  0  0  0
  1  7  2  0  0  0  0
  1  5  1  0  0  0  0
  2 14  1  0  0  0  0
  4 22  1  1  0  0  0
  5 10  1  0  0  0  0
  6 28  2  0  0  0  0
  6 21  1  0  0  0  0
  7 17  1  0  0  0  0
  9 12  1  0  0  0  0
  9 19  1  0  0  0  0
  9 11  1  1  0  0  0
 10 30  2  0  0  0  0
 12  4  1  0  0  0  0
 13 18  1  0  0  0  0
 13 27  1  0  0  0  0
 14 22  1  6  0  0  0
 14  7  1  0  0  0  0
 15 20  1  1  0  0  0
 15 29  1  0  0  0  0
 15  2  1  0  0  0  0
 16 23  1  0  0  0  0
 16  3  1  1  0  0  0
 17 26  2  0  0  0  0
 17 30  1  0  0  0  0
 18  8  2  0  0  0  0
 19 49  1  6  0  0  0
 19 25  1  0  0  0  0
 23 18  1  0  0  0  0
 24 12  2  0  0  0  0
 25 16  1  0  0  0  0
 27  5  2  0  0  0  0
 28 20  1  0  0  0  0
 29 21  1  6  0  0  0
 29  4  1  0  0  0  0
 31 27  1  6  0  0  0
 31 33  1  0  0  0  0
 32 34  1  0  0  0  0
 33 37  1  0  0  0  0
 34 37  1  0  0  0  0
 35 38  1  6  0  0  0
 35 31  1  0  0  0  0
 35 32  1  0  0  0  0
 37 36  2  0  0  0  0
 39 38  1  0  0  0  0
 40 39  1  0  0  0  0
 41 40  1  0  0  0  0
 42 41  1  0  0  0  0
 43 42  1  0  0  0  0
 44 43  2  0  0  0  0
 45 47  1  0  0  0  0
 46 47  1  0  0  0  0
 47 21  1  0  0  0  0
 48 46  1  0  0  0  0
 48 45  1  0  0  0  0
 50 53  1  0  0  0  0
 52 53  1  0  0  0  0
 53 51  1  0  0  0  0
 53 49  1  0  0  0  0
M  END
>  <MODEL>
6

>  <REMARK>
 VINA RESULT:      -6.0      2.654      9.634
  Name = 
  10 active torsions:
  status: ('A' for Active; 'I' for Inactive)
    1  A    between atoms: C_3  and  C_44
    2  A    between atoms: O_14  and  C_30
    3  A    between atoms: O_14  and  C_34
    4  A    between atoms: C_17  and  C_49
    5  A    between atoms: C_28  and  C_29
    6  A    between atoms: C_28  and  C_47
    7  A    between atoms: C_30  and  C_50
    8  A    between atoms: N_32  and  C_37
    9  A    between atoms: C_34  and  C_49
   10  A    between atoms: C_39  and  C_50
                            x       y       z     vdW  Elec       q    Type
                         _______ _______ _______ _____ _____    ______ ____

>  <TORSDO>
F 10

$$$$
=
 OpenBabel11062420283D

 53 58  0  0  1  0  0  0  0  0999 V2000
  191.0520  174.0560  140.6770 C   0  0  0  0  0  3  0  0  0  0  0  0
  188.8330  176.2260  141.2610 N   0  0  0  0  0  2  0  0  0  0  0  0
  192.2650  171.7480  144.5930 C   0  0  0  0  0  1  0  0  0  0  0  0
  188.6120  175.1600  143.9270 C   0  0  2  0  0  3  0  0  0  0  0  0
  192.0270  173.5090  139.7180 C   0  0  0  0  0  0  0  0  0  0  0  0
  186.0320  178.0110  143.9310 C   0  0  0  0  0  3  0  0  0  0  0  0
  189.7510  174.1670  140.3770 C   0  0  0  0  0  0  0  0  0  0  0  0
  194.1600  171.4650  142.0460 O   0  0  0  0  0  0  0  0  0  0  0  0
  190.5950  175.3020  145.6680 C   0  0  2  0  0  3  0  0  0  0  0  0
  191.5510  173.1390  138.3640 C   0  0  0  0  0  3  0  0  0  0  0  0
  189.9630  174.0640  146.2850 C   0  0  0  0  0  1  0  0  0  0  0  0
  189.7480  175.9230  144.5830 C   0  0  0  0  0  0  0  0  0  0  0  0
  193.6500  173.6400  141.4270 O   0  0  0  0  0  0  0  0  0  0  0  0
  188.8050  174.7610  141.3790 C   0  0  1  0  0  3  0  0  0  0  0  0
  187.9830  176.9210  142.2400 C   0  0  1  0  0  3  0  0  0  0  0  0
  192.9640  173.0960  144.6060 C   0  0  1  0  0  3  0  0  0  0  0  0
  189.2860  173.7790  139.0270 C   0  0  0  0  0  0  0  0  0  0  0  0
  194.0440  172.6800  142.3650 C   0  0  0  0  0  0  0  0  0  0  0  0
  192.0430  175.0150  145.2340 C   0  0  1  0  0  3  0  0  0  0  0  0
  186.7990  177.6240  141.5970 C   0  0  0  0  0  2  0  0  0  0  0  0
  186.7430  176.8360  144.3830 N   0  0  0  0  0  0  0  0  0  0  0  0
  189.1520  174.2700  142.8060 C   0  0  0  0  0  2  0  0  0  0  0  0
  194.2600  173.0830  143.7870 C   0  0  0  0  0  2  0  0  0  0  0  0
  190.0030  177.0660  144.2320 O   0  0  0  0  0  0  0  0  0  0  0  0
  192.0940  174.1050  144.1710 O   0  0  0  0  0  0  0  0  0  0  0  0
  188.0730  173.8880  138.7090 O   0  0  0  0  0  0  0  0  0  0  0  0
  193.2950  173.3190  140.1090 C   0  0  0  0  0  0  0  0  0  0  0  0
  186.0570  178.4040  142.6480 C   0  0  0  0  0  3  0  0  0  0  0  0
  187.4740  176.0350  143.3820 C   0  0  2  0  0  3  0  0  0  0  0  0
  190.2590  173.2680  138.0400 C   0  0  0  0  0  3  0  0  0  0  0  0
  194.3230  172.7690  139.1560 C   0  0  2  0  0  3  0  0  0  0  0  0
  194.8510  171.0690  137.4650 N   0  0  0  0  0  2  0  0  0  0  0  0
  194.7020  173.7610  138.2020 O   0  0  0  0  0  0  0  0  0  0  0  0
  194.8390  172.0450  136.3780 C   0  0  0  0  0  2  0  0  0  0  0  0
  193.8650  171.4680  138.4680 C   0  0  1  0  0  3  0  0  0  0  0  0
  195.6060  174.3000  136.1560 O   0  0  0  0  0  0  0  0  0  0  0  0
  195.1010  173.4250  136.9060 C   0  0  0  0  0  0  0  0  0  0  0  0
  193.6130  170.3250  139.4530 C   0  0  0  0  0  2  0  0  0  0  0  0
  193.7630  168.9420  138.8230 C   0  0  0  0  0  2  0  0  0  0  0  0
  192.5060  168.3960  138.5590 O   0  0  0  0  0  0  0  0  0  0  0  0
  191.8430  168.4070  139.7920 C   0  0  0  0  0  2  0  0  0  0  0  0
  190.4270  168.9440  139.6210 C   0  0  0  0  0  2  0  0  0  0  0  0
  190.2660  170.2700  140.2920 C   0  0  0  0  0  3  0  0  0  0  0  0
  190.6380  170.4450  141.5570 C   0  0  0  0  0  2  0  0  0  0  0  0
  185.4120  176.7930  146.4540 C   0  0  0  0  0  2  0  0  0  0  0  0
  187.4110  177.5370  146.6860 C   0  0  0  0  0  2  0  0  0  0  0  0
  186.7560  176.4700  145.8110 C   0  0  0  0  0  3  0  0  0  0  0  0
  186.0710  177.8530  147.3190 C   0  0  0  0  0  2  0  0  0  0  0  0
  192.8040  176.2920  144.8640 C   0  0  0  0  0  2  0  0  0  0  0  0
  194.9700  175.6790  145.9650 C   0  0  0  0  0  1  0  0  0  0  0  0
  193.2410  176.8850  147.2720 C   0  0  0  0  0  1  0  0  0  0  0  0
  194.3980  177.9110  145.4980 F   0  0  0  0  0  0  0  0  0  0  0  0
  193.8570  176.7060  145.8940 C   0  0  0  0  0  0  0  0  0  0  0  0
  2 14  1  0  0  0  0
  2 15  1  0  0  0  0
  4 22  1  6  0  0  0
  4 12  1  0  0  0  0
  5 27  2  0  0  0  0
  5  1  1  0  0  0  0
  6 21  1  0  0  0  0
  7  1  2  0  0  0  0
  7 14  1  0  0  0  0
  8 18  2  0  0  0  0
  9 11  1  6  0  0  0
 10  5  1  0  0  0  0
 12  9  1  0  0  0  0
 13 18  1  0  0  0  0
 14 22  1  1  0  0  0
 15 20  1  6  0  0  0
 15 29  1  0  0  0  0
 16  3  1  6  0  0  0
 17  7  1  0  0  0  0
 18 23  1  0  0  0  0
 19 49  1  6  0  0  0
 19  9  1  0  0  0  0
 20 28  1  0  0  0  0
 21 47  1  0  0  0  0
 23 16  1  0  0  0  0
 24 12  2  0  0  0  0
 25 16  1  0  0  0  0
 25 19  1  0  0  0  0
 26 17  2  0  0  0  0
 27 13  1  0  0  0  0
 28  6  2  0  0  0  0
 29  4  1  0  0  0  0
 29 21  1  1  0  0  0
 30 10  2  0  0  0  0
 30 17  1  0  0  0  0
 31 27  1  6  0  0  0
 32 35  1  0  0  0  0
 33 31  1  0  0  0  0
 34 37  1  0  0  0  0
 34 32  1  0  0  0  0
 35 31  1  0  0  0  0
 35 38  1  1  0  0  0
 36 37  2  0  0  0  0
 37 33  1  0  0  0  0
 39 38  1  0  0  0  0
 40 39  1  0  0  0  0
 40 41  1  0  0  0  0
 42 41  1  0  0  0  0
 42 43  1  0  0  0  0
 43 44  2  0  0  0  0
 45 48  1  0  0  0  0
 46 48  1  0  0  0  0
 47 45  1  0  0  0  0
 47 46  1  0  0  0  0
 49 53  1  0  0  0  0
 52 53  1  0  0  0  0
 53 50  1  0  0  0  0
 53 51  1  0  0  0  0
M  END
>  <MODEL>
7

>  <REMARK>
 VINA RESULT:      -5.9      1.602      3.272
  Name = 
  10 active torsions:
  status: ('A' for Active; 'I' for Inactive)
    1  A    between atoms: C_3  and  C_44
    2  A    between atoms: O_14  and  C_30
    3  A    between atoms: O_14  and  C_34
    4  A    between atoms: C_17  and  C_49
    5  A    between atoms: C_28  and  C_29
    6  A    between atoms: C_28  and  C_47
    7  A    between atoms: C_30  and  C_50
    8  A    between atoms: N_32  and  C_37
    9  A    between atoms: C_34  and  C_49
   10  A    between atoms: C_39  and  C_50
                            x       y       z     vdW  Elec       q    Type
                         _______ _______ _______ _____ _____    ______ ____

>  <TORSDO>
F 10

$$$$
=
 OpenBabel11062420283D

 53 58  0  0  1  0  0  0  0  0999 V2000
  190.9850  173.6130  142.0320 C   0  0  0  0  0  3  0  0  0  0  0  0
  190.9440  171.0440  140.1960 N   0  0  0  0  0  2  0  0  0  0  0  0
  194.8060  176.2360  141.2260 C   0  0  0  0  0  1  0  0  0  0  0  0
  193.2180  172.1170  138.7900 C   0  0  2  0  0  3  0  0  0  0  0  0
  190.3950  174.3250  143.1790 C   0  0  0  0  0  0  0  0  0  0  0  0
  192.5800  168.7890  136.9710 C   0  0  0  0  0  3  0  0  0  0  0  0
  190.2440  173.2240  140.9860 C   0  0  0  0  0  0  0  0  0  0  0  0
  193.1110  176.8360  143.8580 O   0  0  0  0  0  0  0  0  0  0  0  0
  195.5660  172.4440  139.9560 C   0  0  2  0  0  3  0  0  0  0  0  0
  188.9300  174.5480  143.1930 C   0  0  0  0  0  3  0  0  0  0  0  0
  195.7760  173.5390  138.9220 C   0  0  0  0  0  1  0  0  0  0  0  0
  194.3190  171.6280  139.7120 C   0  0  0  0  0  0  0  0  0  0  0  0
  192.5820  174.5860  144.0280 O   0  0  0  0  0  0  0  0  0  0  0  0
  190.8880  172.4730  139.8580 C   0  0  1  0  0  3  0  0  0  0  0  0
  191.6130  170.2150  139.1810 C   0  0  1  0  0  3  0  0  0  0  0  0
  195.2150  175.0660  142.1020 C   0  0  1  0  0  3  0  0  0  0  0  0
  188.7840  173.4660  141.0050 C   0  0  0  0  0  0  0  0  0  0  0  0
  193.4920  175.6340  143.8540 C   0  0  0  0  0  0  0  0  0  0  0  0
  195.6630  173.0150  141.3810 C   0  0  1  0  0  3  0  0  0  0  0  0
  190.6600  169.2610  138.4800 C   0  0  0  0  0  2  0  0  0  0  0  0
  193.1330  170.1000  137.2290 N   0  0  0  0  0  0  0  0  0  0  0  0
  192.2830  173.0670  139.5410 C   0  0  0  0  0  2  0  0  0  0  0  0
  194.9290  175.3260  143.5860 C   0  0  0  0  0  2  0  0  0  0  0  0
  194.2080  170.5540  140.2860 O   0  0  0  0  0  0  0  0  0  0  0  0
  194.6020  173.8850  141.6630 O   0  0  0  0  0  0  0  0  0  0  0  0
  188.0590  173.0960  140.0440 O   0  0  0  0  0  0  0  0  0  0  0  0
  191.1990  174.7870  144.1470 C   0  0  0  0  0  0  0  0  0  0  0  0
  191.4440  168.3740  137.5520 C   0  0  0  0  0  3  0  0  0  0  0  0
  192.3900  171.0070  138.1250 C   0  0  2  0  0  3  0  0  0  0  0  0
  188.1730  174.1410  142.1670 C   0  0  0  0  0  3  0  0  0  0  0  0
  190.6350  175.5130  145.3400 C   0  0  2  0  0  3  0  0  0  0  0  0
  189.0490  177.2030  146.1520 N   0  0  0  0  0  2  0  0  0  0  0  0
  190.0380  174.5890  146.2500 O   0  0  0  0  0  0  0  0  0  0  0  0
  188.1810  176.1980  146.7600 C   0  0  0  0  0  2  0  0  0  0  0  0
  189.6550  176.6360  144.9480 C   0  0  1  0  0  3  0  0  0  0  0  0
  188.5730  174.1740  147.9750 O   0  0  0  0  0  0  0  0  0  0  0  0
  188.9520  174.9450  147.0550 C   0  0  0  0  0  0  0  0  0  0  0  0
  190.3080  177.7370  144.1090 C   0  0  0  0  0  2  0  0  0  0  0  0
  189.6550  177.9210  142.7420 C   0  0  0  0  0  2  0  0  0  0  0  0
  188.2680  178.0010  142.8780 O   0  0  0  0  0  0  0  0  0  0  0  0
  187.7710  177.8710  141.5760 C   0  0  0  0  0  2  0  0  0  0  0  0
  186.3800  177.2470  141.6080 C   0  0  0  0  0  2  0  0  0  0  0  0
  185.8260  177.2310  142.9960 C   0  0  0  0  0  3  0  0  0  0  0  0
  184.7470  177.9430  143.3090 C   0  0  0  0  0  2  0  0  0  0  0  0
  194.1890  171.3700  135.4020 C   0  0  0  0  0  2  0  0  0  0  0  0
  195.0170  169.4190  135.7360 C   0  0  0  0  0  2  0  0  0  0  0  0
  194.4210  170.5020  136.6330 C   0  0  0  0  0  3  0  0  0  0  0  0
  194.7810  170.2880  134.5160 C   0  0  0  0  0  2  0  0  0  0  0  0
  195.7330  171.9160  142.4460 C   0  0  0  0  0  2  0  0  0  0  0  0
  197.7640  170.7200  143.2960 C   0  0  0  0  0  1  0  0  0  0  0  0
  196.5720  172.3040  144.7880 C   0  0  0  0  0  1  0  0  0  0  0  0
  197.7600  173.0370  142.8930 F   0  0  0  0  0  0  0  0  0  0  0  0
  196.9640  172.0070  143.3500 C   0  0  0  0  0  0  0  0  0  0  0  0
  1  5  1  0  0  0  0
  4 22  1  1  0  0  0
  4 12  1  0  0  0  0
  5 10  1  0  0  0  0
  5 27  2  0  0  0  0
  6 21  1  0  0  0  0
  6 28  2  0  0  0  0
  7 17  1  0  0  0  0
  7  1  2  0  0  0  0
  9 11  1  6  0  0  0
  9 19  1  0  0  0  0
 12  9  1  0  0  0  0
 12 24  2  0  0  0  0
 13 27  1  0  0  0  0
 14 22  1  1  0  0  0
 14  2  1  0  0  0  0
 14  7  1  0  0  0  0
 15 20  1  6  0  0  0
 15  2  1  0  0  0  0
 16  3  1  6  0  0  0
 16 23  1  0  0  0  0
 17 30  1  0  0  0  0
 18  8  2  0  0  0  0
 18 13  1  0  0  0  0
 19 25  1  0  0  0  0
 19 49  1  1  0  0  0
 23 18  1  0  0  0  0
 25 16  1  0  0  0  0
 26 17  2  0  0  0  0
 28 20  1  0  0  0  0
 29 21  1  1  0  0  0
 29  4  1  0  0  0  0
 29 15  1  0  0  0  0
 30 10  2  0  0  0  0
 31 27  1  6  0  0  0
 31 33  1  0  0  0  0
 32 34  1  0  0  0  0
 33 37  1  0  0  0  0
 34 37  1  0  0  0  0
 35 38  1  1  0  0  0
 35 31  1  0  0  0  0
 35 32  1  0  0  0  0
 37 36  2  0  0  0  0
 39 40  1  0  0  0  0
 39 38  1  0  0  0  0
 41 42  1  0  0  0  0
 41 40  1  0  0  0  0
 42 43  1  0  0  0  0
 43 44  2  0  0  0  0
 45 47  1  0  0  0  0
 46 47  1  0  0  0  0
 47 21  1  0  0  0  0
 48 45  1  0  0  0  0
 48 46  1  0  0  0  0
 49 53  1  0  0  0  0
 50 53  1  0  0  0  0
 52 53  1  0  0  0  0
 53 51  1  0  0  0  0
M  END
>  <MODEL>
8

>  <REMARK>
 VINA RESULT:      -5.9      2.588      8.749
  Name = 
  10 active torsions:
  status: ('A' for Active; 'I' for Inactive)
    1  A    between atoms: C_3  and  C_44
    2  A    between atoms: O_14  and  C_30
    3  A    between atoms: O_14  and  C_34
    4  A    between atoms: C_17  and  C_49
    5  A    between atoms: C_28  and  C_29
    6  A    between atoms: C_28  and  C_47
    7  A    between atoms: C_30  and  C_50
    8  A    between atoms: N_32  and  C_37
    9  A    between atoms: C_34  and  C_49
   10  A    between atoms: C_39  and  C_50
                            x       y       z     vdW  Elec       q    Type
                         _______ _______ _______ _____ _____    ______ ____

>  <TORSDO>
F 10

$$$$
=
 OpenBabel11062420283D

 53 58  0  0  1  0  0  0  0  0999 V2000
  194.5230  174.0650  142.0830 C   0  0  0  0  0  3  0  0  0  0  0  0
  193.2900  174.9050  144.8660 N   0  0  0  0  0  2  0  0  0  0  0  0
  191.2090  173.7740  138.7560 C   0  0  0  0  0  1  0  0  0  0  0  0
  190.7880  175.3770  143.5190 C   0  0  2  0  0  3  0  0  0  0  0  0
  195.6980  173.5620  141.3500 C   0  0  0  0  0  0  0  0  0  0  0  0
  189.9710  176.2550  147.1720 C   0  0  0  0  0  3  0  0  0  0  0  0
  194.5800  175.1720  142.8330 C   0  0  0  0  0  0  0  0  0  0  0  0
  194.0560  172.4810  138.1440 O   0  0  0  0  0  0  0  0  0  0  0  0
  189.4080  173.4260  142.3910 C   0  0  2  0  0  3  0  0  0  0  0  0
  196.9880  174.2730  141.5140 C   0  0  0  0  0  3  0  0  0  0  0  0
  188.8600  174.5190  141.4860 C   0  0  0  0  0  1  0  0  0  0  0  0
  190.2410  173.9610  143.5310 C   0  0  0  0  0  0  0  0  0  0  0  0
  194.2880  171.9330  140.3830 O   0  0  0  0  0  0  0  0  0  0  0  0
  193.3620  175.6230  143.5860 C   0  0  1  0  0  3  0  0  0  0  0  0
  192.0980  175.2260  145.6650 C   0  0  1  0  0  3  0  0  0  0  0  0
  191.1380  172.5150  139.6020 C   0  0  1  0  0  3  0  0  0  0  0  0
  195.8700  175.8820  142.9770 C   0  0  0  0  0  0  0  0  0  0  0  0
  193.5660  171.9700  139.1860 C   0  0  0  0  0  0  0  0  0  0  0  0
  190.1160  172.3390  141.5640 C   0  0  1  0  0  3  0  0  0  0  0  0
  192.4310  175.9770  146.9440 C   0  0  0  0  0  2  0  0  0  0  0  0
  189.8050  176.1610  145.7390 N   0  0  0  0  0  0  0  0  0  0  0  0
  192.0920  175.4330  142.7210 C   0  0  0  0  0  2  0  0  0  0  0  0
  192.1610  171.4620  139.1570 C   0  0  0  0  0  2  0  0  0  0  0  0
  190.4780  173.2200  144.4730 O   0  0  0  0  0  0  0  0  0  0  0  0
  191.2830  172.8260  140.9600 O   0  0  0  0  0  0  0  0  0  0  0  0
  195.9600  176.9160  143.6890 O   0  0  0  0  0  0  0  0  0  0  0  0
  195.5570  172.5130  140.5280 C   0  0  0  0  0  0  0  0  0  0  0  0
  191.1760  176.1570  147.7530 C   0  0  0  0  0  3  0  0  0  0  0  0
  191.0120  175.9960  144.9070 C   0  0  2  0  0  3  0  0  0  0  0  0
  197.0670  175.3660  142.2810 C   0  0  0  0  0  3  0  0  0  0  0  0
  196.7360  171.9640  139.7660 C   0  0  2  0  0  3  0  0  0  0  0  0
  197.7690  169.9940  138.7260 N   0  0  0  0  0  2  0  0  0  0  0  0
  196.8780  172.6350  138.5150 O   0  0  0  0  0  0  0  0  0  0  0  0
  197.5440  170.5020  137.3750 C   0  0  0  0  0  2  0  0  0  0  0  0
  196.6700  170.4350  139.5840 C   0  0  1  0  0  3  0  0  0  0  0  0
  197.6930  172.6650  136.3630 O   0  0  0  0  0  0  0  0  0  0  0  0
  197.4070  171.9960  137.3900 C   0  0  0  0  0  0  0  0  0  0  0  0
  196.6880  169.6710  140.9100 C   0  0  0  0  0  2  0  0  0  0  0  0
  197.9340  169.9470  141.7480 C   0  0  0  0  0  2  0  0  0  0  0  0
  197.6110  170.7550  142.8380 O   0  0  0  0  0  0  0  0  0  0  0  0
  196.3660  170.2870  143.2750 C   0  0  0  0  0  2  0  0  0  0  0  0
  195.7500  171.2770  144.2580 C   0  0  0  0  0  2  0  0  0  0  0  0
  196.7910  172.1770  144.8430 C   0  0  0  0  0  3  0  0  0  0  0  0
  196.4480  173.2280  145.5820 C   0  0  0  0  0  2  0  0  0  0  0  0
  188.1920  177.5720  144.5250 C   0  0  0  0  0  2  0  0  0  0  0  0
  187.3610  176.4620  146.1630 C   0  0  0  0  0  2  0  0  0  0  0  0
  188.4600  176.2010  145.1350 C   0  0  0  0  0  3  0  0  0  0  0  0
  187.1020  177.8240  145.5510 C   0  0  0  0  0  2  0  0  0  0  0  0
  190.4400  171.0930  142.3940 C   0  0  0  0  0  2  0  0  0  0  0  0
  192.5610  169.8090  142.0370 C   0  0  0  0  0  1  0  0  0  0  0  0
  192.0880  170.7780  144.2710 C   0  0  0  0  0  1  0  0  0  0  0  0
  192.5580  172.1320  142.4030 F   0  0  0  0  0  0  0  0  0  0  0  0
  191.9160  170.9680  142.7730 C   0  0  0  0  0  0  0  0  0  0  0  0
  1  7  2  0  0  0  0
  2 15  1  0  0  0  0
  4 22  1  1  0  0  0
  4 12  1  0  0  0  0
  4 29  1  0  0  0  0
  5 10  1  0  0  0  0
  5  1  1  0  0  0  0
  6 28  2  0  0  0  0
  7 17  1  0  0  0  0
  7 14  1  0  0  0  0
  8 18  2  0  0  0  0
  9 11  1  6  0  0  0
  9 12  1  0  0  0  0
 10 30  2  0  0  0  0
 12 24  2  0  0  0  0
 13 27  1  0  0  0  0
 14 22  1  6  0  0  0
 14  2  1  0  0  0  0
 15 20  1  1  0  0  0
 16  3  1  6  0  0  0
 16 25  1  0  0  0  0
 17 26  2  0  0  0  0
 18 13  1  0  0  0  0
 19  9  1  0  0  0  0
 19 49  1  1  0  0  0
 20 28  1  0  0  0  0
 21  6  1  0  0  0  0
 23 18  1  0  0  0  0
 23 16  1  0  0  0  0
 25 19  1  0  0  0  0
 27  5  2  0  0  0  0
 29 15  1  0  0  0  0
 29 21  1  1  0  0  0
 30 17  1  0  0  0  0
 31 27  1  6  0  0  0
 32 35  1  0  0  0  0
 33 31  1  0  0  0  0
 34 37  1  0  0  0  0
 34 32  1  0  0  0  0
 35 31  1  0  0  0  0
 35 38  1  1  0  0  0
 36 37  2  0  0  0  0
 37 33  1  0  0  0  0
 38 39  1  0  0  0  0
 39 40  1  0  0  0  0
 40 41  1  0  0  0  0
 41 42  1  0  0  0  0
 42 43  1  0  0  0  0
 43 44  2  0  0  0  0
 45 47  1  0  0  0  0
 45 48  1  0  0  0  0
 47 21  1  0  0  0  0
 47 46  1  0  0  0  0
 48 46  1  0  0  0  0
 49 53  1  0  0  0  0
 50 53  1  0  0  0  0
 52 53  1  0  0  0  0
 53 51  1  0  0  0  0
M  END
>  <MODEL>
9

>  <REMARK>
 VINA RESULT:      -5.6      2.496      5.158
  Name = 
  10 active torsions:
  status: ('A' for Active; 'I' for Inactive)
    1  A    between atoms: C_3  and  C_44
    2  A    between atoms: O_14  and  C_30
    3  A    between atoms: O_14  and  C_34
    4  A    between atoms: C_17  and  C_49
    5  A    between atoms: C_28  and  C_29
    6  A    between atoms: C_28  and  C_47
    7  A    between atoms: C_30  and  C_50
    8  A    between atoms: N_32  and  C_37
    9  A    between atoms: C_34  and  C_49
   10  A    between atoms: C_39  and  C_50
                            x       y       z     vdW  Elec       q    Type
                         _______ _______ _______ _____ _____    ______ ____

>  <TORSDO>
F 10

$$$$
