=
 OpenBabel11062421543D

 37 40  0  0  1  0  0  0  0  0999 V2000
  185.8410  179.6980  144.5980 O   0  0  0  0  0  1  0  0  0  0  0  0
  186.6050  178.7170  143.9790 C   0  0  0  0  0  0  0  0  0  0  0  0
  185.8660  178.5070  141.6570 N   0  0  0  0  0  2  0  0  0  0  0  0
  186.7920  178.5420  142.5580 C   0  0  2  0  0  3  0  0  0  0  0  0
  187.8720  176.8480  143.5910 N   0  0  0  0  0  2  0  0  0  0  0  0
  186.1520  177.4410  140.7800 N   0  0  0  0  0  0  0  0  0  0  0  0
  187.6520  177.4160  142.4510 C   0  0  1  0  0  3  0  0  0  0  0  0
  187.6810  175.6000  140.6260 N   0  0  0  0  0  2  0  0  0  0  0  0
  187.2960  177.7330  144.5700 C   0  0  0  0  0  0  0  0  0  0  0  0
  187.1670  176.7790  141.2410 C   0  0  0  0  0  0  0  0  0  0  0  0
  187.3460  177.4730  145.9910 N   0  0  0  0  0  0  0  0  0  0  0  0
  188.4790  176.8070  146.5960 C   0  0  0  0  0  0  0  0  0  0  0  0
  189.6570  177.5200  146.8820 C   0  0  0  0  0  3  0  0  0  0  0  0
  188.4410  175.4310  146.8820 C   0  0  0  0  0  3  0  0  0  0  0  0
  189.5420  174.7890  147.4570 C   0  0  0  0  0  3  0  0  0  0  0  0
  191.7660  174.8930  148.3040 F   0  0  0  0  0  0  0  0  0  0  0  0
  190.7590  176.8800  147.4560 C   0  0  0  0  0  3  0  0  0  0  0  0
  190.7000  175.5140  147.7450 C   0  0  0  0  0  0  0  0  0  0  0  0
  186.1950  177.8140  146.8270 C   0  0  0  0  0  2  0  0  0  0  0  0
  185.0430  176.8670  146.5450 C   0  0  0  0  0  1  0  0  0  0  0  0
  188.8290  174.8950  141.1740 C   0  0  0  0  0  2  0  0  0  0  0  0
  188.3870  173.5970  141.8330 C   0  0  0  0  0  2  0  0  0  0  0  0
  189.1610  172.1760  143.5360 O   0  0  0  0  0  0  0  0  0  0  0  0
  189.4420  173.0720  142.7560 C   0  0  0  0  0  0  0  0  0  0  0  0
  190.8230  173.6550  142.7360 C   0  0  2  0  0  3  0  0  0  0  0  0
  191.4890  171.9680  141.1780 O   0  0  0  0  0  1  0  0  0  0  0  0
  191.8400  172.5790  142.3820 C   0  0  0  0  0  2  0  0  0  0  0  0
  191.1330  174.2350  144.0360 N   0  0  0  0  0  2  0  0  0  0  0  0
  192.2370  173.4810  144.6150 C   0  0  0  0  0  2  0  0  0  0  0  0
  196.5390  176.7290  143.2200 C   0  0  0  0  0  1  0  0  0  0  0  0
  195.5680  174.6110  145.9310 O   0  0  0  0  0  0  0  0  0  0  0  0
  194.3780  175.9510  143.6300 C   0  0  0  0  0  2  0  0  0  0  0  0
  193.2850  175.7970  144.6870 C   0  0  0  0  0  2  0  0  0  0  0  0
  194.5960  173.7050  145.4910 C   0  0  0  0  0  2  0  0  0  0  0  0
  196.2320  175.0110  144.7670 C   0  0  0  0  0  2  0  0  0  0  0  0
  195.6550  176.2550  144.2680 N   0  0  0  0  0  0  0  0  0  0  0  0
  193.2370  174.3950  145.3220 C   0  0  2  0  0  3  0  0  0  0  0  0
  2  9  2  0  0  0  0
  2  1  1  0  0  0  0
  4  3  1  6  0  0  0
  4  2  1  0  0  0  0
  5  9  1  0  0  0  0
  6 10  2  0  0  0  0
  6  3  1  0  0  0  0
  7 10  1  6  0  0  0
  7  4  1  0  0  0  0
  7  5  1  0  0  0  0
  8 21  1  0  0  0  0
  8 10  1  0  0  0  0
  9 11  1  0  0  0  0
 11 12  1  0  0  0  0
 11 19  1  0  0  0  0
 12 14  2  0  0  0  0
 12 13  1  0  0  0  0
 13 17  2  0  0  0  0
 14 15  1  0  0  0  0
 15 18  2  0  0  0  0
 17 18  1  0  0  0  0
 18 16  1  0  0  0  0
 20 19  1  0  0  0  0
 21 22  1  0  0  0  0
 22 24  1  0  0  0  0
 24 23  2  0  0  0  0
 25 27  1  1  0  0  0
 25 24  1  0  0  0  0
 25 28  1  0  0  0  0
 26 27  1  0  0  0  0
 28 29  1  0  0  0  0
 30 36  1  0  0  0  0
 32 36  1  0  0  0  0
 32 33  1  0  0  0  0
 33 37  1  0  0  0  0
 34 31  1  0  0  0  0
 35 31  1  0  0  0  0
 36 35  1  0  0  0  0
 37 29  1  6  0  0  0
 37 34  1  0  0  0  0
M  END
>  <MODEL>
1

>  <REMARK>
 VINA RESULT:      -7.4      0.000      0.000
  Name = 
  11 active torsions:
  status: ('A' for Active; 'I' for Inactive)
    1  A    between atoms: C_3  and  N_11
    2  A    between atoms: N_4  and  CA_30
    3  A    between atoms: N_4  and  C_37
    4  A    between atoms: C_7  and  N_11
    5  A    between atoms: N_11  and  C_29
    6  A    between atoms: C_13  and  N_24
    7  A    between atoms: C_13  and  C_34
    8  A    between atoms: C_26  and  CA_30
    9  A    between atoms: CA_30  and  C_33
   10  A    between atoms: C_33  and  C_34
   11  A    between atoms: C_36  and  C_37
                            x       y       z     vdW  Elec       q    Type
                         _______ _______ _______ _____ _____    ______ ____

>  <TORSDO>
F 11

$$$$
=
 OpenBabel11062421543D

 37 40  0  0  1  0  0  0  0  0999 V2000
  194.1920  176.6100  146.6820 O   0  0  0  0  0  1  0  0  0  0  0  0
  193.2310  176.2830  145.7330 C   0  0  0  0  0  0  0  0  0  0  0  0
  191.0290  176.3790  146.7930 N   0  0  0  0  0  2  0  0  0  0  0  0
  191.8220  176.5930  145.7960 C   0  0  2  0  0  3  0  0  0  0  0  0
  192.1600  175.3680  143.9270 N   0  0  0  0  0  2  0  0  0  0  0  0
  189.8320  175.8320  146.2890 N   0  0  0  0  0  0  0  0  0  0  0  0
  191.2890  176.0520  144.5950 C   0  0  1  0  0  3  0  0  0  0  0  0
  188.9710  174.9980  144.2120 N   0  0  0  0  0  2  0  0  0  0  0  0
  193.4140  175.6040  144.5930 C   0  0  0  0  0  0  0  0  0  0  0  0
  189.9750  175.6070  145.0200 C   0  0  0  0  0  0  0  0  0  0  0  0
  194.6630  175.0320  144.1440 N   0  0  0  0  0  0  0  0  0  0  0  0
  195.2320  173.8670  144.7860 C   0  0  0  0  0  0  0  0  0  0  0  0
  196.4200  173.9720  145.5300 C   0  0  0  0  0  3  0  0  0  0  0  0
  194.6320  172.6030  144.6540 C   0  0  0  0  0  3  0  0  0  0  0  0
  195.1910  171.4780  145.2670 C   0  0  0  0  0  3  0  0  0  0  0  0
  196.9060  170.5110  146.6090 F   0  0  0  0  0  0  0  0  0  0  0  0
  196.9820  172.8470  146.1440 C   0  0  0  0  0  3  0  0  0  0  0  0
  196.3650  171.6000  146.0130 C   0  0  0  0  0  0  0  0  0  0  0  0
  195.4130  175.6880  143.0740 C   0  0  0  0  0  2  0  0  0  0  0  0
  196.3230  176.7580  143.6510 C   0  0  0  0  0  1  0  0  0  0  0  0
  189.1720  174.7750  142.7890 C   0  0  0  0  0  2  0  0  0  0  0  0
  187.9060  175.1140  142.0170 C   0  0  0  0  0  2  0  0  0  0  0  0
  188.7690  177.3000  142.0050 O   0  0  0  0  0  0  0  0  0  0  0  0
  187.8160  176.5830  141.7430 C   0  0  0  0  0  0  0  0  0  0  0  0
  186.5610  177.1700  141.1680 C   0  0  2  0  0  3  0  0  0  0  0  0
  185.3710  177.1620  139.0950 O   0  0  0  0  0  1  0  0  0  0  0  0
  186.6500  177.2090  139.6490 C   0  0  0  0  0  2  0  0  0  0  0  0
  186.3570  178.5110  141.6980 N   0  0  0  0  0  2  0  0  0  0  0  0
  185.0640  178.5380  142.3710 C   0  0  0  0  0  2  0  0  0  0  0  0
  186.3040  176.7590  147.5000 C   0  0  0  0  0  1  0  0  0  0  0  0
  184.1250  179.1370  145.9570 O   0  0  0  0  0  0  0  0  0  0  0  0
  186.4880  177.5540  145.3140 C   0  0  0  0  0  2  0  0  0  0  0  0
  186.5220  178.8060  144.4370 C   0  0  0  0  0  2  0  0  0  0  0  0
  183.9320  178.7910  144.6150 C   0  0  0  0  0  2  0  0  0  0  0  0
  184.5220  177.9470  146.5750 C   0  0  0  0  0  2  0  0  0  0  0  0
  185.9780  177.8830  146.6410 N   0  0  0  0  0  0  0  0  0  0  0  0
  185.1700  179.1300  143.7760 C   0  0  2  0  0  3  0  0  0  0  0  0
  2  1  1  0  0  0  0
  4  2  1  1  0  0  0
  4  3  1  0  0  0  0
  5  9  1  0  0  0  0
  6  3  1  0  0  0  0
  7  5  1  1  0  0  0
  7 10  1  0  0  0  0
  7  4  1  0  0  0  0
  8 10  1  0  0  0  0
  9  2  2  0  0  0  0
 10  6  2  0  0  0  0
 11  9  1  0  0  0  0
 11 12  1  0  0  0  0
 12 13  1  0  0  0  0
 13 17  2  0  0  0  0
 14 12  2  0  0  0  0
 14 15  1  0  0  0  0
 15 18  2  0  0  0  0
 18 17  1  0  0  0  0
 18 16  1  0  0  0  0
 19 20  1  0  0  0  0
 19 11  1  0  0  0  0
 21  8  1  0  0  0  0
 22 21  1  0  0  0  0
 24 23  2  0  0  0  0
 24 22  1  0  0  0  0
 25 27  1  6  0  0  0
 25 28  1  0  0  0  0
 25 24  1  0  0  0  0
 26 27  1  0  0  0  0
 28 29  1  0  0  0  0
 31 35  1  0  0  0  0
 32 36  1  0  0  0  0
 33 32  1  0  0  0  0
 34 31  1  0  0  0  0
 35 36  1  0  0  0  0
 36 30  1  0  0  0  0
 37 29  1  6  0  0  0
 37 33  1  0  0  0  0
 37 34  1  0  0  0  0
M  END
>  <MODEL>
2

>  <REMARK>
 VINA RESULT:      -6.9      2.500      7.867
  Name = 
  11 active torsions:
  status: ('A' for Active; 'I' for Inactive)
    1  A    between atoms: C_3  and  N_11
    2  A    between atoms: N_4  and  CA_30
    3  A    between atoms: N_4  and  C_37
    4  A    between atoms: C_7  and  N_11
    5  A    between atoms: N_11  and  C_29
    6  A    between atoms: C_13  and  N_24
    7  A    between atoms: C_13  and  C_34
    8  A    between atoms: C_26  and  CA_30
    9  A    between atoms: CA_30  and  C_33
   10  A    between atoms: C_33  and  C_34
   11  A    between atoms: C_36  and  C_37
                            x       y       z     vdW  Elec       q    Type
                         _______ _______ _______ _____ _____    ______ ____

>  <TORSDO>
F 11

$$$$
=
 OpenBabel11062421543D

 37 40  0  0  1  0  0  0  0  0999 V2000
  187.4620  174.6730  142.1020 O   0  0  0  0  0  1  0  0  0  0  0  0
  188.4920  175.1250  142.9180 C   0  0  0  0  0  0  0  0  0  0  0  0
  189.6200  173.1850  143.8910 N   0  0  0  0  0  2  0  0  0  0  0  0
  189.6360  174.3620  143.3600 C   0  0  2  0  0  3  0  0  0  0  0  0
  189.7610  176.3930  144.3430 N   0  0  0  0  0  2  0  0  0  0  0  0
  190.4980  173.1920  144.9940 N   0  0  0  0  0  0  0  0  0  0  0  0
  190.3800  175.2730  144.1580 C   0  0  1  0  0  3  0  0  0  0  0  0
  191.7860  174.7730  146.2570 N   0  0  0  0  0  2  0  0  0  0  0  0
  188.6160  176.3380  143.4720 C   0  0  0  0  0  0  0  0  0  0  0  0
  190.9250  174.4020  145.1820 C   0  0  0  0  0  0  0  0  0  0  0  0
  187.6620  177.4180  143.3580 N   0  0  0  0  0  0  0  0  0  0  0  0
  186.6940  177.6820  144.4010 C   0  0  0  0  0  0  0  0  0  0  0  0
  186.1350  178.9640  144.5480 C   0  0  0  0  0  3  0  0  0  0  0  0
  186.3170  176.6770  145.3090 C   0  0  0  0  0  3  0  0  0  0  0  0
  185.3900  176.9390  146.3210 C   0  0  0  0  0  3  0  0  0  0  0  0
  183.9350  178.4680  147.4270 F   0  0  0  0  0  0  0  0  0  0  0  0
  185.2080  179.2280  145.5610 C   0  0  0  0  0  3  0  0  0  0  0  0
  184.8350  178.2140  146.4470 C   0  0  0  0  0  0  0  0  0  0  0  0
  187.6130  178.2110  142.1300 C   0  0  0  0  0  2  0  0  0  0  0  0
  186.4580  177.7550  141.2570 C   0  0  0  0  0  1  0  0  0  0  0  0
  192.2480  176.1420  146.4230 C   0  0  0  0  0  2  0  0  0  0  0  0
  193.7640  176.2040  146.3200 C   0  0  0  0  0  2  0  0  0  0  0  0
  193.4060  176.8640  144.0930 O   0  0  0  0  0  0  0  0  0  0  0  0
  194.2030  176.4210  144.9050 C   0  0  0  0  0  0  0  0  0  0  0  0
  195.6020  176.0810  144.4860 C   0  0  2  0  0  3  0  0  0  0  0  0
  196.2940  176.8670  142.3380 O   0  0  0  0  0  1  0  0  0  0  0  0
  195.6500  175.8150  142.9890 C   0  0  0  0  0  2  0  0  0  0  0  0
  196.0660  174.9120  145.2220 N   0  0  0  0  0  2  0  0  0  0  0  0
  197.2620  174.4080  144.5590 C   0  0  0  0  0  2  0  0  0  0  0  0
  194.1840  169.7890  144.1050 C   0  0  0  0  0  1  0  0  0  0  0  0
  196.7770  171.0680  146.2070 O   0  0  0  0  0  0  0  0  0  0  0  0
  195.5690  171.5990  143.6070 C   0  0  0  0  0  2  0  0  0  0  0  0
  197.0170  172.0870  143.5480 C   0  0  0  0  0  2  0  0  0  0  0  0
  196.8130  172.4640  146.1080 C   0  0  0  0  0  2  0  0  0  0  0  0
  195.4840  170.7170  145.8040 C   0  0  0  0  0  2  0  0  0  0  0  0
  195.4840  170.3690  144.3870 N   0  0  0  0  0  0  0  0  0  0  0  0
  197.4400  172.9060  144.7810 C   0  0  2  0  0  3  0  0  0  0  0  0
  1  2  1  0  0  0  0
  2  9  2  0  0  0  0
  3  6  1  0  0  0  0
  4  2  1  1  0  0  0
  4  3  1  0  0  0  0
  4  7  1  0  0  0  0
  6 10  2  0  0  0  0
  7  5  1  1  0  0  0
  7 10  1  0  0  0  0
  8 21  1  0  0  0  0
  9  5  1  0  0  0  0
 10  8  1  0  0  0  0
 11  9  1  0  0  0  0
 11 12  1  0  0  0  0
 12 13  2  0  0  0  0
 12 14  1  0  0  0  0
 13 17  1  0  0  0  0
 14 15  2  0  0  0  0
 15 18  1  0  0  0  0
 17 18  2  0  0  0  0
 18 16  1  0  0  0  0
 19 11  1  0  0  0  0
 20 19  1  0  0  0  0
 22 21  1  0  0  0  0
 23 24  2  0  0  0  0
 24 22  1  0  0  0  0
 25 27  1  6  0  0  0
 25 24  1  0  0  0  0
 25 28  1  0  0  0  0
 26 27  1  0  0  0  0
 29 28  1  0  0  0  0
 30 36  1  0  0  0  0
 32 36  1  0  0  0  0
 33 32  1  0  0  0  0
 33 37  1  0  0  0  0
 34 31  1  0  0  0  0
 35 31  1  0  0  0  0
 36 35  1  0  0  0  0
 37 29  1  6  0  0  0
 37 34  1  0  0  0  0
M  END
>  <MODEL>
3

>  <REMARK>
 VINA RESULT:      -6.7      2.774      5.458
  Name = 
  11 active torsions:
  status: ('A' for Active; 'I' for Inactive)
    1  A    between atoms: C_3  and  N_11
    2  A    between atoms: N_4  and  CA_30
    3  A    between atoms: N_4  and  C_37
    4  A    between atoms: C_7  and  N_11
    5  A    between atoms: N_11  and  C_29
    6  A    between atoms: C_13  and  N_24
    7  A    between atoms: C_13  and  C_34
    8  A    between atoms: C_26  and  CA_30
    9  A    between atoms: CA_30  and  C_33
   10  A    between atoms: C_33  and  C_34
   11  A    between atoms: C_36  and  C_37
                            x       y       z     vdW  Elec       q    Type
                         _______ _______ _______ _____ _____    ______ ____

>  <TORSDO>
F 11

$$$$
=
 OpenBabel11062421543D

 37 40  0  0  1  0  0  0  0  0999 V2000
  187.9160  177.1750  141.4090 O   0  0  0  0  0  1  0  0  0  0  0  0
  188.5840  176.1340  142.0420 C   0  0  0  0  0  0  0  0  0  0  0  0
  188.1960  174.0780  140.7740 N   0  0  0  0  0  2  0  0  0  0  0  0
  188.9590  174.8710  141.4520 C   0  0  2  0  0  3  0  0  0  0  0  0
  189.5480  174.7960  143.6320 N   0  0  0  0  0  2  0  0  0  0  0  0
  188.4250  172.7620  141.2210 N   0  0  0  0  0  0  0  0  0  0  0  0
  189.6140  174.1720  142.5020 C   0  0  1  0  0  3  0  0  0  0  0  0
  189.6110  171.6410  142.9790 N   0  0  0  0  0  2  0  0  0  0  0  0
  188.9900  176.0850  143.3180 C   0  0  0  0  0  0  0  0  0  0  0  0
  189.2220  172.7990  142.2440 C   0  0  0  0  0  0  0  0  0  0  0  0
  188.7680  177.1110  144.3120 N   0  0  0  0  0  0  0  0  0  0  0  0
  187.4350  177.4460  144.7640 C   0  0  0  0  0  0  0  0  0  0  0  0
  186.7680  178.5700  144.2450 C   0  0  0  0  0  3  0  0  0  0  0  0
  186.7910  176.6800  145.7500 C   0  0  0  0  0  3  0  0  0  0  0  0
  185.5070  177.0130  146.1920 C   0  0  0  0  0  3  0  0  0  0  0  0
  183.6080  178.4480  146.0840 F   0  0  0  0  0  0  0  0  0  0  0  0
  185.4840  178.9060  144.6860 C   0  0  0  0  0  3  0  0  0  0  0  0
  184.8530  178.1260  145.6590 C   0  0  0  0  0  0  0  0  0  0  0  0
  189.9020  177.8860  144.8150 C   0  0  0  0  0  2  0  0  0  0  0  0
  190.8260  178.2650  143.6710 C   0  0  0  0  0  1  0  0  0  0  0  0
  190.5170  171.7300  144.1140 C   0  0  0  0  0  2  0  0  0  0  0  0
  191.8160  170.9990  143.8110 C   0  0  0  0  0  2  0  0  0  0  0  0
  192.8290  173.0170  144.4630 O   0  0  0  0  0  0  0  0  0  0  0  0
  193.0030  171.8640  144.1000 C   0  0  0  0  0  0  0  0  0  0  0  0
  194.3920  171.3250  143.9260 C   0  0  2  0  0  3  0  0  0  0  0  0
  194.5660  170.0000  145.9080 O   0  0  0  0  0  1  0  0  0  0  0  0
  195.0560  171.1460  145.2840 C   0  0  0  0  0  2  0  0  0  0  0  0
  195.1720  172.2320  143.0960 N   0  0  0  0  0  2  0  0  0  0  0  0
  196.4010  172.5540  143.8120 C   0  0  0  0  0  2  0  0  0  0  0  0
  193.8760  176.6910  146.5530 C   0  0  0  0  0  1  0  0  0  0  0  0
  195.5800  176.2000  143.4480 O   0  0  0  0  0  0  0  0  0  0  0  0
  195.2530  174.8820  146.0300 C   0  0  0  0  0  2  0  0  0  0  0  0
  196.6150  174.4680  145.4720 C   0  0  0  0  0  2  0  0  0  0  0  0
  195.5740  174.8390  143.1230 C   0  0  0  0  0  2  0  0  0  0  0  0
  194.5070  176.3570  144.3330 C   0  0  0  0  0  2  0  0  0  0  0  0
  194.9830  176.2810  145.7100 N   0  0  0  0  0  0  0  0  0  0  0  0
  196.5740  174.0620  143.9880 C   0  0  2  0  0  3  0  0  0  0  0  0
  1  2  1  0  0  0  0
  2  9  2  0  0  0  0
  3  6  1  0  0  0  0
  4  3  1  1  0  0  0
  4  2  1  0  0  0  0
  4  7  1  0  0  0  0
  6 10  2  0  0  0  0
  7 10  1  1  0  0  0
  7  5  1  0  0  0  0
  8 21  1  0  0  0  0
  9  5  1  0  0  0  0
  9 11  1  0  0  0  0
 10  8  1  0  0  0  0
 11 12  1  0  0  0  0
 11 19  1  0  0  0  0
 12 14  1  0  0  0  0
 13 17  1  0  0  0  0
 13 12  2  0  0  0  0
 14 15  2  0  0  0  0
 17 18  2  0  0  0  0
 18 16  1  0  0  0  0
 18 15  1  0  0  0  0
 20 19  1  0  0  0  0
 22 24  1  0  0  0  0
 22 21  1  0  0  0  0
 24 23  2  0  0  0  0
 25 24  1  0  0  0  0
 25 27  1  1  0  0  0
 27 26  1  0  0  0  0
 28 29  1  0  0  0  0
 28 25  1  0  0  0  0
 31 35  1  0  0  0  0
 33 32  1  0  0  0  0
 34 31  1  0  0  0  0
 34 37  1  0  0  0  0
 35 36  1  0  0  0  0
 36 32  1  0  0  0  0
 36 30  1  0  0  0  0
 37 29  1  1  0  0  0
 37 33  1  0  0  0  0
M  END
>  <MODEL>
4

>  <REMARK>
 VINA RESULT:      -6.5      2.734      4.456
  Name = 
  11 active torsions:
  status: ('A' for Active; 'I' for Inactive)
    1  A    between atoms: C_3  and  N_11
    2  A    between atoms: N_4  and  CA_30
    3  A    between atoms: N_4  and  C_37
    4  A    between atoms: C_7  and  N_11
    5  A    between atoms: N_11  and  C_29
    6  A    between atoms: C_13  and  N_24
    7  A    between atoms: C_13  and  C_34
    8  A    between atoms: C_26  and  CA_30
    9  A    between atoms: CA_30  and  C_33
   10  A    between atoms: C_33  and  C_34
   11  A    between atoms: C_36  and  C_37
                            x       y       z     vdW  Elec       q    Type
                         _______ _______ _______ _____ _____    ______ ____

>  <TORSDO>
F 11

$$$$
=
 OpenBabel11062421543D

 37 40  0  0  1  0  0  0  0  0999 V2000
  190.0640  177.8670  146.0090 O   0  0  0  0  0  1  0  0  0  0  0  0
  189.8480  176.5780  145.5360 C   0  0  0  0  0  0  0  0  0  0  0  0
  191.8380  175.2350  146.0060 N   0  0  0  0  0  2  0  0  0  0  0  0
  190.5570  175.3860  145.9390 C   0  0  2  0  0  3  0  0  0  0  0  0
  189.1140  174.7920  144.3050 N   0  0  0  0  0  2  0  0  0  0  0  0
  192.1620  173.9880  145.4340 N   0  0  0  0  0  0  0  0  0  0  0  0
  189.9600  174.3460  145.1740 C   0  0  1  0  0  3  0  0  0  0  0  0
  191.0760  172.2370  144.2070 N   0  0  0  0  0  2  0  0  0  0  0  0
  188.9650  176.1910  144.6060 C   0  0  0  0  0  0  0  0  0  0  0  0
  191.0890  173.4720  144.9200 C   0  0  0  0  0  0  0  0  0  0  0  0
  188.0780  177.0650  143.8720 N   0  0  0  0  0  0  0  0  0  0  0  0
  186.8590  177.5730  144.4640 C   0  0  0  0  0  0  0  0  0  0  0  0
  186.1710  176.8220  145.4330 C   0  0  0  0  0  3  0  0  0  0  0  0
  186.3190  178.8070  144.0630 C   0  0  0  0  0  3  0  0  0  0  0  0
  185.1360  179.2890  144.6300 C   0  0  0  0  0  3  0  0  0  0  0  0
  183.3240  179.0030  146.1510 F   0  0  0  0  0  0  0  0  0  0  0  0
  184.9860  177.3010  146.0010 C   0  0  0  0  0  3  0  0  0  0  0  0
  184.4700  178.5360  145.5990 C   0  0  0  0  0  0  0  0  0  0  0  0
  188.3710  177.3810  142.4740 C   0  0  0  0  0  2  0  0  0  0  0  0
  187.5750  176.4730  141.5540 C   0  0  0  0  0  1  0  0  0  0  0  0
  189.8460  171.6910  143.6550 C   0  0  0  0  0  2  0  0  0  0  0  0
  189.9300  171.6270  142.1380 C   0  0  0  0  0  2  0  0  0  0  0  0
  187.9120  172.7760  141.7750 O   0  0  0  0  0  0  0  0  0  0  0  0
  189.1000  172.6990  141.5040 C   0  0  0  0  0  0  0  0  0  0  0  0
  189.7200  173.6590  140.5320 C   0  0  2  0  0  3  0  0  0  0  0  0
  188.5490  174.2690  138.5390 O   0  0  0  0  0  1  0  0  0  0  0  0
  189.3450  173.2750  139.1070 C   0  0  0  0  0  2  0  0  0  0  0  0
  191.1670  173.6580  140.6930 N   0  0  0  0  0  2  0  0  0  0  0  0
  191.5180  174.7260  141.6210 C   0  0  0  0  0  2  0  0  0  0  0  0
  196.1920  173.1390  144.1990 C   0  0  0  0  0  1  0  0  0  0  0  0
  194.8060  176.1170  142.7860 O   0  0  0  0  0  0  0  0  0  0  0  0
  194.3810  173.2320  142.7310 C   0  0  0  0  0  2  0  0  0  0  0  0
  193.8750  173.7960  141.4030 C   0  0  0  0  0  2  0  0  0  0  0  0
  193.4140  175.9930  142.7080 C   0  0  0  0  0  2  0  0  0  0  0  0
  195.1880  175.2010  143.7720 C   0  0  0  0  0  2  0  0  0  0  0  0
  195.5850  173.9410  143.1530 N   0  0  0  0  0  0  0  0  0  0  0  0
  193.0090  175.0590  141.5610 C   0  0  2  0  0  3  0  0  0  0  0  0
  2  1  1  0  0  0  0
  4  2  1  6  0  0  0
  4  3  1  0  0  0  0
  5  9  1  0  0  0  0
  6  3  1  0  0  0  0
  7  5  1  6  0  0  0
  7  4  1  0  0  0  0
  8 10  1  0  0  0  0
  9  2  2  0  0  0  0
 10  7  1  0  0  0  0
 10  6  2  0  0  0  0
 11 12  1  0  0  0  0
 11  9  1  0  0  0  0
 12 13  1  0  0  0  0
 13 17  2  0  0  0  0
 14 12  2  0  0  0  0
 14 15  1  0  0  0  0
 15 18  2  0  0  0  0
 18 17  1  0  0  0  0
 18 16  1  0  0  0  0
 19 11  1  0  0  0  0
 20 19  1  0  0  0  0
 21  8  1  0  0  0  0
 22 21  1  0  0  0  0
 24 23  2  0  0  0  0
 24 22  1  0  0  0  0
 25 27  1  6  0  0  0
 25 28  1  0  0  0  0
 25 24  1  0  0  0  0
 26 27  1  0  0  0  0
 28 29  1  0  0  0  0
 31 35  1  0  0  0  0
 32 36  1  0  0  0  0
 33 37  1  0  0  0  0
 33 32  1  0  0  0  0
 34 31  1  0  0  0  0
 36 35  1  0  0  0  0
 36 30  1  0  0  0  0
 37 29  1  1  0  0  0
 37 34  1  0  0  0  0
M  END
>  <MODEL>
5

>  <REMARK>
 VINA RESULT:      -6.5      2.685      4.768
  Name = 
  11 active torsions:
  status: ('A' for Active; 'I' for Inactive)
    1  A    between atoms: C_3  and  N_11
    2  A    between atoms: N_4  and  CA_30
    3  A    between atoms: N_4  and  C_37
    4  A    between atoms: C_7  and  N_11
    5  A    between atoms: N_11  and  C_29
    6  A    between atoms: C_13  and  N_24
    7  A    between atoms: C_13  and  C_34
    8  A    between atoms: C_26  and  CA_30
    9  A    between atoms: CA_30  and  C_33
   10  A    between atoms: C_33  and  C_34
   11  A    between atoms: C_36  and  C_37
                            x       y       z     vdW  Elec       q    Type
                         _______ _______ _______ _____ _____    ______ ____

>  <TORSDO>
F 11

$$$$
=
 OpenBabel11062421543D

 37 40  0  0  1  0  0  0  0  0999 V2000
  197.1910  176.3270  143.5090 O   0  0  0  0  0  1  0  0  0  0  0  0
  196.1800  175.4940  143.0450 C   0  0  0  0  0  0  0  0  0  0  0  0
  195.5900  176.1810  140.7720 N   0  0  0  0  0  2  0  0  0  0  0  0
  195.8140  175.2750  141.6650 C   0  0  2  0  0  3  0  0  0  0  0  0
  194.3580  174.1090  142.9410 N   0  0  0  0  0  2  0  0  0  0  0  0
  194.4290  175.8170  140.0620 N   0  0  0  0  0  0  0  0  0  0  0  0
  194.7400  174.3450  141.7290 C   0  0  1  0  0  3  0  0  0  0  0  0
  192.6840  174.1750  140.1880 N   0  0  0  0  0  2  0  0  0  0  0  0
  195.3370  174.7530  143.7770 C   0  0  0  0  0  0  0  0  0  0  0  0
  193.9050  174.7710  140.6220 C   0  0  0  0  0  0  0  0  0  0  0  0
  195.2910  174.7110  145.2210 N   0  0  0  0  0  0  0  0  0  0  0  0
  194.1860  175.2890  145.9560 C   0  0  0  0  0  0  0  0  0  0  0  0
  194.2790  176.5930  146.4740 C   0  0  0  0  0  3  0  0  0  0  0  0
  193.0140  174.5530  146.1970 C   0  0  0  0  0  3  0  0  0  0  0  0
  191.9530  175.1110  146.9170 C   0  0  0  0  0  3  0  0  0  0  0  0
  191.0270  176.9540  148.1100 F   0  0  0  0  0  0  0  0  0  0  0  0
  193.2190  177.1530  147.1950 C   0  0  0  0  0  3  0  0  0  0  0  0
  192.0560  176.4120  147.4140 C   0  0  0  0  0  0  0  0  0  0  0  0
  196.4180  174.1480  145.9630 C   0  0  0  0  0  2  0  0  0  0  0  0
  196.4770  172.6440  145.7650 C   0  0  0  0  0  1  0  0  0  0  0  0
  192.1400  172.9950  140.8410 C   0  0  0  0  0  2  0  0  0  0  0  0
  190.7180  173.2600  141.3110 C   0  0  0  0  0  2  0  0  0  0  0  0
  190.9370  173.3780  143.6470 O   0  0  0  0  0  0  0  0  0  0  0  0
  190.7060  173.9910  142.6170 C   0  0  0  0  0  0  0  0  0  0  0  0
  190.3960  175.4580  142.6600 C   0  0  2  0  0  3  0  0  0  0  0  0
  191.1860  177.1850  144.1120 O   0  0  0  0  0  1  0  0  0  0  0  0
  191.5990  176.2310  143.1830 C   0  0  0  0  0  2  0  0  0  0  0  0
  189.2360  175.6920  143.5090 N   0  0  0  0  0  2  0  0  0  0  0  0
  188.0900  175.9460  142.6460 C   0  0  0  0  0  2  0  0  0  0  0  0
  184.4800  178.2000  146.2370 C   0  0  0  0  0  1  0  0  0  0  0  0
  185.4050  178.5670  142.8030 O   0  0  0  0  0  0  0  0  0  0  0  0
  186.4390  177.3900  145.2630 C   0  0  0  0  0  2  0  0  0  0  0  0
  187.6390  177.7460  144.3840 C   0  0  0  0  0  2  0  0  0  0  0  0
  186.0450  177.4020  142.3650 C   0  0  0  0  0  2  0  0  0  0  0  0
  184.6530  178.1630  143.9120 C   0  0  0  0  0  2  0  0  0  0  0  0
  185.4040  178.4110  145.1380 N   0  0  0  0  0  0  0  0  0  0  0  0
  187.4730  177.3190  142.9150 C   0  0  2  0  0  3  0  0  0  0  0  0
  2  1  1  0  0  0  0
  2  9  2  0  0  0  0
  4  3  1  1  0  0  0
  4  7  1  0  0  0  0
  4  2  1  0  0  0  0
  5  9  1  0  0  0  0
  6 10  2  0  0  0  0
  6  3  1  0  0  0  0
  7 10  1  6  0  0  0
  7  5  1  0  0  0  0
  8 10  1  0  0  0  0
  8 21  1  0  0  0  0
  9 11  1  0  0  0  0
 11 12  1  0  0  0  0
 11 19  1  0  0  0  0
 12 14  2  0  0  0  0
 12 13  1  0  0  0  0
 13 17  2  0  0  0  0
 14 15  1  0  0  0  0
 15 18  2  0  0  0  0
 17 18  1  0  0  0  0
 18 16  1  0  0  0  0
 20 19  1  0  0  0  0
 21 22  1  0  0  0  0
 22 24  1  0  0  0  0
 24 25  1  0  0  0  0
 24 23  2  0  0  0  0
 25 27  1  1  0  0  0
 25 28  1  0  0  0  0
 27 26  1  0  0  0  0
 29 28  1  0  0  0  0
 31 35  1  0  0  0  0
 33 32  1  0  0  0  0
 34 31  1  0  0  0  0
 34 37  1  0  0  0  0
 35 36  1  0  0  0  0
 36 32  1  0  0  0  0
 36 30  1  0  0  0  0
 37 29  1  1  0  0  0
 37 33  1  0  0  0  0
M  END
>  <MODEL>
6

>  <REMARK>
 VINA RESULT:      -6.4      2.328      7.556
  Name = 
  11 active torsions:
  status: ('A' for Active; 'I' for Inactive)
    1  A    between atoms: C_3  and  N_11
    2  A    between atoms: N_4  and  CA_30
    3  A    between atoms: N_4  and  C_37
    4  A    between atoms: C_7  and  N_11
    5  A    between atoms: N_11  and  C_29
    6  A    between atoms: C_13  and  N_24
    7  A    between atoms: C_13  and  C_34
    8  A    between atoms: C_26  and  CA_30
    9  A    between atoms: CA_30  and  C_33
   10  A    between atoms: C_33  and  C_34
   11  A    between atoms: C_36  and  C_37
                            x       y       z     vdW  Elec       q    Type
                         _______ _______ _______ _____ _____    ______ ____

>  <TORSDO>
F 11

$$$$
=
 OpenBabel11062421543D

 37 40  0  0  1  0  0  0  0  0999 V2000
  194.3350  173.1030  145.7200 O   0  0  0  0  0  1  0  0  0  0  0  0
  193.5960  173.2780  144.5560 C   0  0  0  0  0  0  0  0  0  0  0  0
  194.6170  171.9430  142.7790 N   0  0  0  0  0  2  0  0  0  0  0  0
  193.5860  172.4050  143.4060 C   0  0  2  0  0  3  0  0  0  0  0  0
  192.2710  174.1760  142.9180 N   0  0  0  0  0  2  0  0  0  0  0  0
  194.3800  172.0670  141.3960 N   0  0  0  0  0  0  0  0  0  0  0  0
  192.6750  173.0200  142.5050 C   0  0  1  0  0  3  0  0  0  0  0  0
  192.7660  173.0700  139.9320 N   0  0  0  0  0  2  0  0  0  0  0  0
  192.7700  174.2910  144.2630 C   0  0  0  0  0  0  0  0  0  0  0  0
  193.2720  172.7170  141.2180 C   0  0  0  0  0  0  0  0  0  0  0  0
  192.5170  175.4410  145.1010 N   0  0  0  0  0  0  0  0  0  0  0  0
  191.2040  175.6990  145.6510 C   0  0  0  0  0  0  0  0  0  0  0  0
  190.5610  176.9280  145.4160 C   0  0  0  0  0  3  0  0  0  0  0  0
  190.5560  174.7460  146.4560 C   0  0  0  0  0  3  0  0  0  0  0  0
  189.2920  175.0030  146.9930 C   0  0  0  0  0  3  0  0  0  0  0  0
  187.4350  176.4720  147.2610 F   0  0  0  0  0  0  0  0  0  0  0  0
  189.2960  177.1870  145.9540 C   0  0  0  0  0  3  0  0  0  0  0  0
  188.6620  176.2230  146.7420 C   0  0  0  0  0  0  0  0  0  0  0  0
  193.5850  176.4130  145.3340 C   0  0  0  0  0  2  0  0  0  0  0  0
  193.7660  176.6460  146.8230 C   0  0  0  0  0  1  0  0  0  0  0  0
  191.5120  173.7910  139.7790 C   0  0  0  0  0  2  0  0  0  0  0  0
  190.3670  172.8170  139.5510 C   0  0  0  0  0  2  0  0  0  0  0  0
  188.1630  173.5620  139.2240 O   0  0  0  0  0  0  0  0  0  0  0  0
  189.0670  173.3880  140.0250 C   0  0  0  0  0  0  0  0  0  0  0  0
  188.8850  173.7590  141.4670 C   0  0  2  0  0  3  0  0  0  0  0  0
  189.3630  171.9620  142.9690 O   0  0  0  0  0  1  0  0  0  0  0  0
  188.3380  172.5720  142.2470 C   0  0  0  0  0  2  0  0  0  0  0  0
  187.9790  174.8950  141.5730 N   0  0  0  0  0  2  0  0  0  0  0  0
  188.7590  176.0560  141.9840 C   0  0  0  0  0  2  0  0  0  0  0  0
  184.0840  178.6510  143.5360 C   0  0  0  0  0  1  0  0  0  0  0  0
  186.0720  178.2770  140.5880 O   0  0  0  0  0  0  0  0  0  0  0  0
  186.2840  177.8790  143.4690 C   0  0  0  0  0  2  0  0  0  0  0  0
  187.6910  178.1560  142.9400 C   0  0  0  0  0  2  0  0  0  0  0  0
  186.8660  177.1300  140.7030 C   0  0  0  0  0  2  0  0  0  0  0  0
  185.0140  178.0660  141.4790 C   0  0  0  0  0  2  0  0  0  0  0  0
  185.3080  178.7000  142.7590 N   0  0  0  0  0  0  0  0  0  0  0  0
  188.0360  177.3640  141.6650 C   0  0  2  0  0  3  0  0  0  0  0  0
  2  1  1  0  0  0  0
  4  3  1  6  0  0  0
  4  2  1  0  0  0  0
  5  9  1  0  0  0  0
  6  3  1  0  0  0  0
  7 10  1  6  0  0  0
  7  5  1  0  0  0  0
  7  4  1  0  0  0  0
  8 10  1  0  0  0  0
  9  2  2  0  0  0  0
  9 11  1  0  0  0  0
 10  6  2  0  0  0  0
 11 19  1  0  0  0  0
 11 12  1  0  0  0  0
 12 14  1  0  0  0  0
 13 12  2  0  0  0  0
 13 17  1  0  0  0  0
 14 15  2  0  0  0  0
 17 18  2  0  0  0  0
 18 15  1  0  0  0  0
 18 16  1  0  0  0  0
 19 20  1  0  0  0  0
 21  8  1  0  0  0  0
 22 21  1  0  0  0  0
 22 24  1  0  0  0  0
 23 24  2  0  0  0  0
 24 25  1  0  0  0  0
 25 28  1  0  0  0  0
 25 27  1  1  0  0  0
 27 26  1  0  0  0  0
 28 29  1  0  0  0  0
 31 34  1  0  0  0  0
 31 35  1  0  0  0  0
 33 32  1  0  0  0  0
 34 37  1  0  0  0  0
 35 36  1  0  0  0  0
 36 32  1  0  0  0  0
 36 30  1  0  0  0  0
 37 29  1  1  0  0  0
 37 33  1  0  0  0  0
M  END
>  <MODEL>
7

>  <REMARK>
 VINA RESULT:      -6.3      2.343      7.047
  Name = 
  11 active torsions:
  status: ('A' for Active; 'I' for Inactive)
    1  A    between atoms: C_3  and  N_11
    2  A    between atoms: N_4  and  CA_30
    3  A    between atoms: N_4  and  C_37
    4  A    between atoms: C_7  and  N_11
    5  A    between atoms: N_11  and  C_29
    6  A    between atoms: C_13  and  N_24
    7  A    between atoms: C_13  and  C_34
    8  A    between atoms: C_26  and  CA_30
    9  A    between atoms: CA_30  and  C_33
   10  A    between atoms: C_33  and  C_34
   11  A    between atoms: C_36  and  C_37
                            x       y       z     vdW  Elec       q    Type
                         _______ _______ _______ _____ _____    ______ ____

>  <TORSDO>
F 11

$$$$
=
 OpenBabel11062421543D

 37 40  0  0  1  0  0  0  0  0999 V2000
  186.9090  176.4470  141.9240 O   0  0  0  0  0  1  0  0  0  0  0  0
  187.9670  175.7270  142.4670 C   0  0  0  0  0  0  0  0  0  0  0  0
  187.7790  173.4000  141.7350 N   0  0  0  0  0  2  0  0  0  0  0  0
  188.4720  174.4590  141.9970 C   0  0  2  0  0  3  0  0  0  0  0  0
  189.6370  175.0010  143.8560 N   0  0  0  0  0  2  0  0  0  0  0  0
  188.4480  172.2910  142.2890 N   0  0  0  0  0  0  0  0  0  0  0  0
  189.5460  174.1590  142.8790 C   0  0  1  0  0  3  0  0  0  0  0  0
  190.3170  171.8530  143.7280 N   0  0  0  0  0  2  0  0  0  0  0  0
  188.7060  176.0510  143.5360 C   0  0  0  0  0  0  0  0  0  0  0  0
  189.4590  172.7150  142.9820 C   0  0  0  0  0  0  0  0  0  0  0  0
  188.5140  177.2140  144.3720 N   0  0  0  0  0  0  0  0  0  0  0  0
  187.2110  177.5530  144.9030 C   0  0  0  0  0  0  0  0  0  0  0  0
  186.5150  178.6760  144.4230 C   0  0  0  0  0  3  0  0  0  0  0  0
  186.6280  176.7900  145.9300 C   0  0  0  0  0  3  0  0  0  0  0  0
  185.3740  177.1270  146.4480 C   0  0  0  0  0  3  0  0  0  0  0  0
  183.4740  178.5640  146.4530 F   0  0  0  0  0  0  0  0  0  0  0  0
  185.2610  179.0150  144.9410 C   0  0  0  0  0  3  0  0  0  0  0  0
  184.6900  178.2390  145.9530 C   0  0  0  0  0  0  0  0  0  0  0  0
  189.6370  178.1170  144.6220 C   0  0  0  0  0  2  0  0  0  0  0  0
  190.4610  178.2910  143.3590 C   0  0  0  0  0  1  0  0  0  0  0  0
  191.4460  172.3720  144.4830 C   0  0  0  0  0  2  0  0  0  0  0  0
  192.6550  172.5410  143.5770 C   0  0  0  0  0  2  0  0  0  0  0  0
  193.2240  174.5690  142.5350 O   0  0  0  0  0  0  0  0  0  0  0  0
  193.1470  173.9550  143.5880 C   0  0  0  0  0  0  0  0  0  0  0  0
  193.5570  174.6030  144.8760 C   0  0  2  0  0  3  0  0  0  0  0  0
  192.2310  176.3490  145.8300 O   0  0  0  0  0  1  0  0  0  0  0  0
  193.1940  176.0810  144.8570 C   0  0  0  0  0  2  0  0  0  0  0  0
  194.9900  174.4370  145.0770 N   0  0  0  0  0  2  0  0  0  0  0  0
  195.6320  175.7220  144.8280 C   0  0  0  0  0  2  0  0  0  0  0  0
  196.5230  175.2920  139.3480 C   0  0  0  0  0  1  0  0  0  0  0  0
  197.9410  174.0470  142.3850 O   0  0  0  0  0  0  0  0  0  0  0  0
  196.1440  176.1590  141.4800 C   0  0  0  0  0  2  0  0  0  0  0  0
  196.8080  176.6420  142.7700 C   0  0  0  0  0  2  0  0  0  0  0  0
  196.9950  174.1340  143.4120 C   0  0  0  0  0  2  0  0  0  0  0  0
  197.1860  174.0490  141.2060 C   0  0  0  0  0  2  0  0  0  0  0  0
  197.0990  175.4050  140.6740 N   0  0  0  0  0  0  0  0  0  0  0  0
  196.8280  175.5830  143.8860 C   0  0  2  0  0  3  0  0  0  0  0  0
  1  2  1  0  0  0  0
  2  9  2  0  0  0  0
  3  6  1  0  0  0  0
  4  3  1  1  0  0  0
  4  2  1  0  0  0  0
  4  7  1  0  0  0  0
  6 10  2  0  0  0  0
  7 10  1  1  0  0  0
  7  5  1  0  0  0  0
  8 21  1  0  0  0  0
  9  5  1  0  0  0  0
  9 11  1  0  0  0  0
 10  8  1  0  0  0  0
 11 19  1  0  0  0  0
 11 12  1  0  0  0  0
 12 14  1  0  0  0  0
 13 12  2  0  0  0  0
 13 17  1  0  0  0  0
 14 15  2  0  0  0  0
 17 18  2  0  0  0  0
 18 15  1  0  0  0  0
 18 16  1  0  0  0  0
 20 19  1  0  0  0  0
 22 24  1  0  0  0  0
 22 21  1  0  0  0  0
 23 24  2  0  0  0  0
 24 25  1  0  0  0  0
 25 27  1  6  0  0  0
 25 28  1  0  0  0  0
 27 26  1  0  0  0  0
 29 28  1  0  0  0  0
 30 36  1  0  0  0  0
 31 34  1  0  0  0  0
 32 33  1  0  0  0  0
 33 37  1  0  0  0  0
 34 37  1  0  0  0  0
 35 31  1  0  0  0  0
 36 35  1  0  0  0  0
 36 32  1  0  0  0  0
 37 29  1  6  0  0  0
M  END
>  <MODEL>
8

>  <REMARK>
 VINA RESULT:      -6.3      2.794      4.636
  Name = 
  11 active torsions:
  status: ('A' for Active; 'I' for Inactive)
    1  A    between atoms: C_3  and  N_11
    2  A    between atoms: N_4  and  CA_30
    3  A    between atoms: N_4  and  C_37
    4  A    between atoms: C_7  and  N_11
    5  A    between atoms: N_11  and  C_29
    6  A    between atoms: C_13  and  N_24
    7  A    between atoms: C_13  and  C_34
    8  A    between atoms: C_26  and  CA_30
    9  A    between atoms: CA_30  and  C_33
   10  A    between atoms: C_33  and  C_34
   11  A    between atoms: C_36  and  C_37
                            x       y       z     vdW  Elec       q    Type
                         _______ _______ _______ _____ _____    ______ ____

>  <TORSDO>
F 11

$$$$
=
 OpenBabel11062421543D

 37 40  0  0  1  0  0  0  0  0999 V2000
  194.0860  177.4690  145.8570 O   0  0  0  0  0  1  0  0  0  0  0  0
  193.3760  176.3980  145.3280 C   0  0  0  0  0  0  0  0  0  0  0  0
  191.1530  176.3600  146.3500 N   0  0  0  0  0  2  0  0  0  0  0  0
  191.9410  176.2320  145.3340 C   0  0  2  0  0  3  0  0  0  0  0  0
  192.8300  174.3680  144.4180 N   0  0  0  0  0  2  0  0  0  0  0  0
  190.2410  175.2860  146.3330 N   0  0  0  0  0  0  0  0  0  0  0  0
  191.7270  174.9910  144.6750 C   0  0  1  0  0  3  0  0  0  0  0  0
  189.8990  173.2370  145.1330 N   0  0  0  0  0  2  0  0  0  0  0  0
  193.8750  175.3060  144.7350 C   0  0  0  0  0  0  0  0  0  0  0  0
  190.5780  174.4650  145.3870 C   0  0  0  0  0  0  0  0  0  0  0  0
  195.2790  175.0070  144.5650 N   0  0  0  0  0  0  0  0  0  0  0  0
  195.9490  175.2300  143.3020 C   0  0  0  0  0  0  0  0  0  0  0  0
  195.2610  175.8090  142.2210 C   0  0  0  0  0  3  0  0  0  0  0  0
  197.2880  174.8450  143.1150 C   0  0  0  0  0  3  0  0  0  0  0  0
  197.9290  175.0520  141.8910 C   0  0  0  0  0  3  0  0  0  0  0  0
  197.8560  175.8430  139.6440 F   0  0  0  0  0  0  0  0  0  0  0  0
  195.9000  176.0170  140.9950 C   0  0  0  0  0  3  0  0  0  0  0  0
  197.2350  175.6400  140.8310 C   0  0  0  0  0  0  0  0  0  0  0  0
  196.0240  174.3900  145.6620 C   0  0  0  0  0  2  0  0  0  0  0  0
  195.7150  172.9050  145.7350 C   0  0  0  0  0  1  0  0  0  0  0  0
  190.3050  172.3520  144.0530 C   0  0  0  0  0  2  0  0  0  0  0  0
  189.2470  172.3310  142.9610 C   0  0  0  0  0  2  0  0  0  0  0  0
  190.7220  173.4760  141.5350 O   0  0  0  0  0  0  0  0  0  0  0  0
  189.5620  173.3190  141.8820 C   0  0  0  0  0  0  0  0  0  0  0  0
  188.4650  174.1210  141.2460 C   0  0  2  0  0  3  0  0  0  0  0  0
  188.1780  172.7530  139.3070 O   0  0  0  0  0  1  0  0  0  0  0  0
  188.5590  174.0260  139.7300 C   0  0  0  0  0  2  0  0  0  0  0  0
  188.5600  175.5100  141.6730 N   0  0  0  0  0  2  0  0  0  0  0  0
  187.8280  175.6470  142.9260 C   0  0  0  0  0  2  0  0  0  0  0  0
  184.2530  178.6690  145.9420 C   0  0  0  0  0  1  0  0  0  0  0  0
  186.1980  179.0310  142.9640 O   0  0  0  0  0  0  0  0  0  0  0  0
  186.0430  177.3110  145.3140 C   0  0  0  0  0  2  0  0  0  0  0  0
  187.4940  177.2980  144.8310 C   0  0  0  0  0  2  0  0  0  0  0  0
  186.5300  177.7650  142.4670 C   0  0  0  0  0  2  0  0  0  0  0  0
  185.0700  178.8130  143.7620 C   0  0  0  0  0  2  0  0  0  0  0  0
  185.4710  178.6450  145.1550 N   0  0  0  0  0  0  0  0  0  0  0  0
  187.6330  177.1140  143.3090 C   0  0  2  0  0  3  0  0  0  0  0  0
  2  1  1  0  0  0  0
  4  2  1  1  0  0  0
  4  3  1  0  0  0  0
  5  9  1  0  0  0  0
  6  3  1  0  0  0  0
  7  5  1  1  0  0  0
  7  4  1  0  0  0  0
  7 10  1  0  0  0  0
  8 10  1  0  0  0  0
  9  2  2  0  0  0  0
 10  6  2  0  0  0  0
 11  9  1  0  0  0  0
 11 19  1  0  0  0  0
 12 11  1  0  0  0  0
 13 12  2  0  0  0  0
 14 12  1  0  0  0  0
 15 14  2  0  0  0  0
 16 18  1  0  0  0  0
 17 13  1  0  0  0  0
 18 17  2  0  0  0  0
 18 15  1  0  0  0  0
 19 20  1  0  0  0  0
 21  8  1  0  0  0  0
 22 21  1  0  0  0  0
 23 24  2  0  0  0  0
 24 22  1  0  0  0  0
 25 27  1  6  0  0  0
 25 28  1  0  0  0  0
 25 24  1  0  0  0  0
 26 27  1  0  0  0  0
 28 29  1  0  0  0  0
 31 35  1  0  0  0  0
 33 32  1  0  0  0  0
 34 31  1  0  0  0  0
 34 37  1  0  0  0  0
 35 36  1  0  0  0  0
 36 32  1  0  0  0  0
 36 30  1  0  0  0  0
 37 29  1  1  0  0  0
 37 33  1  0  0  0  0
M  END
>  <MODEL>
9

>  <REMARK>
 VINA RESULT:      -6.3      2.613      7.772
  Name = 
  11 active torsions:
  status: ('A' for Active; 'I' for Inactive)
    1  A    between atoms: C_3  and  N_11
    2  A    between atoms: N_4  and  CA_30
    3  A    between atoms: N_4  and  C_37
    4  A    between atoms: C_7  and  N_11
    5  A    between atoms: N_11  and  C_29
    6  A    between atoms: C_13  and  N_24
    7  A    between atoms: C_13  and  C_34
    8  A    between atoms: C_26  and  CA_30
    9  A    between atoms: CA_30  and  C_33
   10  A    between atoms: C_33  and  C_34
   11  A    between atoms: C_36  and  C_37
                            x       y       z     vdW  Elec       q    Type
                         _______ _______ _______ _____ _____    ______ ____

>  <TORSDO>
F 11

$$$$
