=
 OpenBabel11062421473D

 48 53  0  0  1  0  0  0  0  0999 V2000
  191.4450  173.1690  141.9020 C   0  0  2  0  0  3  0  0  0  0  0  0
  190.7740  176.5940  142.9670 O   0  0  0  0  0  0  0  0  0  0  0  0
  191.3470  175.5940  142.4610 C   0  0  0  0  0  3  0  0  0  0  0  0
  190.8980  174.2530  142.7340 N   0  0  0  0  0  0  0  0  0  0  0  0
  189.7950  174.0300  143.5950 N   0  0  0  0  0  0  0  0  0  0  0  0
  190.3080  173.6870  144.9210 C   0  0  2  0  0  0  0  0  0  0  0  0
  189.9580  172.2760  144.8610 N   0  0  0  0  0  2  0  0  0  0  0  0
  189.4210  172.6160  143.5560 C   0  0  2  0  0  3  0  0  0  0  0  0
  189.4680  174.3570  146.0120 C   0  0  0  0  0  2  0  0  0  0  0  0
  189.2880  175.8440  145.7540 C   0  0  0  0  0  2  0  0  0  0  0  0
  188.2550  176.4150  146.7080 C   0  0  0  0  0  2  0  0  0  0  0  0
  184.8610  177.5140  146.7100 C   0  0  0  0  0  2  0  0  0  0  0  0
  184.6610  178.9140  146.1210 C   0  0  0  0  0  2  0  0  0  0  0  0
  185.9880  179.0190  144.1540 N   0  0  0  0  0  0  0  0  0  0  0  0
  184.6070  178.8670  144.6070 C   0  0  2  0  0  3  0  0  0  0  0  0
  185.8950  176.6400  145.9770 C   0  0  0  0  0  2  0  0  0  0  0  0
  187.7410  177.5130  144.5380 C   0  0  0  0  0  3  0  0  0  0  0  0
  187.1440  178.3460  143.7390 N   0  0  0  0  0  0  0  0  0  0  0  0
  187.2750  177.2870  145.9550 C   0  0  2  0  0  3  0  0  0  0  0  0
  184.9700  179.9840  144.0480 O   0  0  0  0  0  0  0  0  0  0  0  0
  192.9310  172.9100  142.1980 C   0  0  2  0  0  3  0  0  0  0  0  0
  193.7200  172.7500  140.8840 C   0  0  2  0  0  3  0  0  0  0  0  0
  194.1580  171.4340  140.7080 O   0  0  0  0  0  1  0  0  0  0  0  0
  197.1190  175.3830  140.7130 C   0  0  0  0  0  3  0  0  0  0  0  0
  196.1940  173.1490  140.8990 C   0  0  0  0  0  3  0  0  0  0  0  0
  194.8980  173.6750  140.8390 C   0  0  0  0  0  0  0  0  0  0  0  0
  195.8260  175.9140  140.6610 C   0  0  0  0  0  3  0  0  0  0  0  0
  194.7190  175.0630  140.7240 C   0  0  0  0  0  3  0  0  0  0  0  0
  197.3020  174.0020  140.8340 C   0  0  0  0  0  3  0  0  0  0  0  0
  193.0690  171.7680  142.9970 O   0  0  0  0  0  0  0  0  0  0  0  0
  193.6070  172.2420  144.2000 C   0  0  0  0  0  2  0  0  0  0  0  0
  194.9780  171.6320  144.4400 C   0  0  0  0  0  2  0  0  0  0  0  0
  195.8060  172.5920  145.2820 C   0  0  1  0  0  3  0  0  0  0  0  0
  196.6750  170.7120  146.0640 C   0  0  0  0  0  1  0  0  0  0  0  0
  197.0210  171.9860  145.6160 O   0  0  0  0  0  0  0  0  0  0  0  0
  196.0890  173.8830  144.5160 C   0  0  0  0  0  2  0  0  0  0  0  0
  193.8040  176.0670  146.4330 C   0  0  0  0  0  2  0  0  0  0  0  0
  196.1350  177.0300  143.8500 O   0  0  0  0  0  1  0  0  0  0  0  0
  194.2640  177.0440  145.3700 C   0  0  0  0  0  0  0  0  0  0  0  0
  195.1410  176.2360  144.4270 C   0  0  2  0  0  3  0  0  0  0  0  0
  195.7670  175.1630  145.2950 C   0  0  1  0  0  3  0  0  0  0  0  0
  193.1720  177.5630  144.6910 F   0  0  0  0  0  0  0  0  0  0  0  0
  194.8190  174.9280  146.4600 C   0  0  0  0  0  2  0  0  0  0  0  0
  194.9800  178.0730  145.9710 F   0  0  0  0  0  0  0  0  0  0  0  0
  191.2030  173.4480  140.4200 C   0  0  0  0  0  2  0  0  0  0  0  0
  190.0150  172.6470  139.9230 C   0  0  0  0  0  2  0  0  0  0  0  0
  188.4210  173.9010  138.4950 C   0  0  0  0  0  1  0  0  0  0  0  0
  188.7690  173.5180  139.9170 C   0  0  0  0  0  2  0  0  0  0  0  0
  1 45  1  6  0  0  0
  1 21  1  0  0  0  0
  1  4  1  0  0  0  0
  3  4  1  0  0  0  0
  3  2  2  0  0  0  0
  4  5  1  0  0  0  0
  5  6  1  0  0  0  0
  6  9  1  1  0  0  0
  7  6  1  0  0  0  0
  8  5  1  0  0  0  0
  8  7  1  6  0  0  0
  8  6  1  0  0  0  0
 10  9  1  0  0  0  0
 10 11  1  0  0  0  0
 13 12  1  0  0  0  0
 14 15  1  0  0  0  0
 15 13  1  1  0  0  0
 16 12  1  0  0  0  0
 17 19  1  0  0  0  0
 18 14  1  0  0  0  0
 18 17  2  0  0  0  0
 19 16  1  0  0  0  0
 19 11  1  6  0  0  0
 20 14  1  0  0  0  0
 20 15  1  0  0  0  0
 21 30  1  1  0  0  0
 22 23  1  1  0  0  0
 22 21  1  0  0  0  0
 24 29  1  0  0  0  0
 26 22  1  0  0  0  0
 26 25  1  0  0  0  0
 27 24  2  0  0  0  0
 27 28  1  0  0  0  0
 28 26  2  0  0  0  0
 29 25  2  0  0  0  0
 30 31  1  0  0  0  0
 31 32  1  0  0  0  0
 33 32  1  6  0  0  0
 33 35  1  0  0  0  0
 35 34  1  0  0  0  0
 36 33  1  0  0  0  0
 37 43  1  0  0  0  0
 39 44  1  0  0  0  0
 39 37  1  0  0  0  0
 40 38  1  1  0  0  0
 40 41  1  0  0  0  0
 40 39  1  0  0  0  0
 41 36  1  6  0  0  0
 41 43  1  0  0  0  0
 42 39  1  0  0  0  0
 46 45  1  0  0  0  0
 47 48  1  0  0  0  0
 48 46  1  0  0  0  0
M  END
>  <MODEL>
1

>  <REMARK>
 VINA RESULT:      -6.5      0.000      0.000
  Name = 
  19 active torsions:
  status: ('A' for Active; 'I' for Inactive)
    1  A    between atoms: C_1  and  C_12
    2  A    between atoms: C_1  and  C_31
    3  A    between atoms: C_4  and  C_15
    4  A    between atoms: C_4  and  C_16
    5  A    between atoms: N_5  and  N_47
    6  A    between atoms: C_7  and  C_20
    7  A    between atoms: C_7  and  C_45
    8  A    between atoms: C_8  and  C_20
    9  A    between atoms: C_8  and  C_23
   10  A    between atoms: C_8  and  N_47
   11  A    between atoms: C_11  and  C_15
   12  A    between atoms: C_11  and  C_33
   13  A    between atoms: C_12  and  O_27
   14  A    between atoms: C_12  and  C_39
   15  A    between atoms: C_18  and  C_23
   16  A    between atoms: C_18  and  C_34
   17  A    between atoms: C_23  and  O_41
   18  A    between atoms: C_39  and  C_46
   19  A    between atoms: O_41  and  C_46
                            x       y       z     vdW  Elec       q    Type
                         _______ _______ _______ _____ _____    ______ ____

>  <TORSDO>
F 19

$$$$
=
 OpenBabel11062421473D

 48 53  0  0  1  0  0  0  0  0999 V2000
  194.7950  174.9680  143.7480 C   0  0  2  0  0  3  0  0  0  0  0  0
  194.6190  178.0170  145.7450 O   0  0  0  0  0  0  0  0  0  0  0  0
  194.8480  176.8270  145.4050 C   0  0  0  0  0  3  0  0  0  0  0  0
  194.2690  176.2620  144.2140 N   0  0  0  0  0  0  0  0  0  0  0  0
  193.4130  177.0410  143.3950 N   0  0  0  0  0  0  0  0  0  0  0  0
  192.0300  176.7610  143.7800 C   0  0  2  0  0  0  0  0  0  0  0  0
  191.6970  175.9840  142.5950 N   0  0  0  0  0  2  0  0  0  0  0  0
  193.0590  176.2830  142.1950 C   0  0  2  0  0  3  0  0  0  0  0  0
  191.2000  178.0470  143.7750 C   0  0  0  0  0  2  0  0  0  0  0  0
  189.8720  177.8650  144.4930 C   0  0  0  0  0  2  0  0  0  0  0  0
  188.7430  177.7890  143.4820 C   0  0  0  0  0  2  0  0  0  0  0  0
  186.8490  176.7740  146.3300 C   0  0  0  0  0  2  0  0  0  0  0  0
  185.8780  177.8410  146.8440 C   0  0  0  0  0  2  0  0  0  0  0  0
  184.8210  178.7730  144.9310 N   0  0  0  0  0  0  0  0  0  0  0  0
  184.5950  177.8450  146.0370 C   0  0  2  0  0  3  0  0  0  0  0  0
  186.9580  176.6750  144.7980 C   0  0  0  0  0  2  0  0  0  0  0  0
  186.3790  178.5070  143.2020 C   0  0  0  0  0  3  0  0  0  0  0  0
  185.1990  178.8930  143.5880 N   0  0  0  0  0  0  0  0  0  0  0  0
  187.4110  177.9890  144.1730 C   0  0  2  0  0  3  0  0  0  0  0  0
  183.9900  178.9970  146.0440 O   0  0  0  0  0  0  0  0  0  0  0  0
  193.7970  173.8230  143.9830 C   0  0  2  0  0  3  0  0  0  0  0  0
  193.6080  173.5760  145.4930 C   0  0  2  0  0  3  0  0  0  0  0  0
  193.7210  172.2190  145.8060 O   0  0  0  0  0  1  0  0  0  0  0  0
  189.7870  174.9950  146.8670 C   0  0  0  0  0  3  0  0  0  0  0  0
  191.1070  173.6360  145.3550 C   0  0  0  0  0  3  0  0  0  0  0  0
  192.2820  174.0870  145.9680 C   0  0  0  0  0  0  0  0  0  0  0  0
  190.9580  175.4550  147.4780 C   0  0  0  0  0  3  0  0  0  0  0  0
  192.2020  175.0020  147.0290 C   0  0  0  0  0  3  0  0  0  0  0  0
  189.8610  174.0890  145.8050 C   0  0  0  0  0  3  0  0  0  0  0  0
  194.2430  172.6580  143.3460 O   0  0  0  0  0  0  0  0  0  0  0  0
  193.2410  172.3610  142.4120 C   0  0  0  0  0  2  0  0  0  0  0  0
  193.6580  172.8270  141.0270 C   0  0  0  0  0  2  0  0  0  0  0  0
  192.4540  172.7610  140.0990 C   0  0  1  0  0  3  0  0  0  0  0  0
  193.9370  171.5910  138.9450 C   0  0  0  0  0  1  0  0  0  0  0  0
  192.8870  172.4950  138.7960 O   0  0  0  0  0  0  0  0  0  0  0  0
  191.4900  171.6590  140.5370 C   0  0  0  0  0  2  0  0  0  0  0  0
  188.8480  174.2450  140.5170 C   0  0  0  0  0  2  0  0  0  0  0  0
  189.3250  171.5890  142.9150 O   0  0  0  0  0  1  0  0  0  0  0  0
  188.6250  173.6590  141.8960 C   0  0  0  0  0  0  0  0  0  0  0  0
  189.7350  172.6370  142.0880 C   0  0  2  0  0  3  0  0  0  0  0  0
  190.0360  172.1190  140.6970 C   0  0  1  0  0  3  0  0  0  0  0  0
  188.7110  174.6530  142.8590 F   0  0  0  0  0  0  0  0  0  0  0  0
  189.6500  173.2180  139.7210 C   0  0  0  0  0  2  0  0  0  0  0  0
  187.3710  173.0600  141.9440 F   0  0  0  0  0  0  0  0  0  0  0  0
  196.1530  174.6750  144.3820 C   0  0  0  0  0  2  0  0  0  0  0  0
  197.0440  173.9400  143.3990 C   0  0  0  0  0  2  0  0  0  0  0  0
  197.1900  172.6340  145.5030 C   0  0  0  0  0  1  0  0  0  0  0  0
  197.7080  172.7580  144.0870 C   0  0  0  0  0  2  0  0  0  0  0  0
  1 21  1  0  0  0  0
  1  4  1  0  0  0  0
  1 45  1  1  0  0  0
  3  2  2  0  0  0  0
  4  3  1  0  0  0  0
  5  6  1  0  0  0  0
  5  4  1  0  0  0  0
  6  9  1  6  0  0  0
  7  6  1  0  0  0  0
  8  7  1  1  0  0  0
  8  5  1  0  0  0  0
  8  6  1  0  0  0  0
  9 10  1  0  0  0  0
 11 10  1  0  0  0  0
 12 13  1  0  0  0  0
 14 15  1  0  0  0  0
 14 20  1  0  0  0  0
 15 20  1  0  0  0  0
 15 13  1  1  0  0  0
 16 12  1  0  0  0  0
 17 18  2  0  0  0  0
 17 19  1  0  0  0  0
 18 14  1  0  0  0  0
 19 11  1  6  0  0  0
 19 16  1  0  0  0  0
 21 30  1  6  0  0  0
 21 22  1  0  0  0  0
 22 23  1  6  0  0  0
 22 26  1  0  0  0  0
 24 27  1  0  0  0  0
 25 29  1  0  0  0  0
 25 26  2  0  0  0  0
 26 28  1  0  0  0  0
 28 27  2  0  0  0  0
 29 24  2  0  0  0  0
 31 30  1  0  0  0  0
 32 31  1  0  0  0  0
 33 36  1  1  0  0  0
 33 32  1  0  0  0  0
 35 34  1  0  0  0  0
 35 33  1  0  0  0  0
 37 39  1  0  0  0  0
 39 44  1  0  0  0  0
 39 40  1  0  0  0  0
 39 42  1  0  0  0  0
 40 38  1  1  0  0  0
 41 36  1  1  0  0  0
 41 40  1  0  0  0  0
 43 37  1  0  0  0  0
 43 41  1  0  0  0  0
 46 48  1  0  0  0  0
 46 45  1  0  0  0  0
 48 47  1  0  0  0  0
M  END
>  <MODEL>
2

>  <REMARK>
 VINA RESULT:      -6.3      2.434      6.003
  Name = 
  19 active torsions:
  status: ('A' for Active; 'I' for Inactive)
    1  A    between atoms: C_1  and  C_12
    2  A    between atoms: C_1  and  C_31
    3  A    between atoms: C_4  and  C_15
    4  A    between atoms: C_4  and  C_16
    5  A    between atoms: N_5  and  N_47
    6  A    between atoms: C_7  and  C_20
    7  A    between atoms: C_7  and  C_45
    8  A    between atoms: C_8  and  C_20
    9  A    between atoms: C_8  and  C_23
   10  A    between atoms: C_8  and  N_47
   11  A    between atoms: C_11  and  C_15
   12  A    between atoms: C_11  and  C_33
   13  A    between atoms: C_12  and  O_27
   14  A    between atoms: C_12  and  C_39
   15  A    between atoms: C_18  and  C_23
   16  A    between atoms: C_18  and  C_34
   17  A    between atoms: C_23  and  O_41
   18  A    between atoms: C_39  and  C_46
   19  A    between atoms: O_41  and  C_46
                            x       y       z     vdW  Elec       q    Type
                         _______ _______ _______ _____ _____    ______ ____

>  <TORSDO>
F 19

$$$$
=
 OpenBabel11062421473D

 48 53  0  0  1  0  0  0  0  0999 V2000
  191.2870  172.4660  140.2730 C   0  0  2  0  0  3  0  0  0  0  0  0
  189.3580  174.0910  137.6370 O   0  0  0  0  0  0  0  0  0  0  0  0
  190.3250  173.6000  138.2750 C   0  0  0  0  0  3  0  0  0  0  0  0
  190.2130  173.2750  139.6740 N   0  0  0  0  0  0  0  0  0  0  0  0
  189.0000  173.5120  140.3680 N   0  0  0  0  0  0  0  0  0  0  0  0
  189.2140  174.6160  141.3030 C   0  0  2  0  0  0  0  0  0  0  0  0
  189.2090  173.8010  142.5080 N   0  0  0  0  0  2  0  0  0  0  0  0
  188.9680  172.7050  141.5880 C   0  0  2  0  0  3  0  0  0  0  0  0
  187.9940  175.5420  141.3290 C   0  0  0  0  0  2  0  0  0  0  0  0
  188.2730  176.8220  142.1000 C   0  0  0  0  0  2  0  0  0  0  0  0
  187.0760  177.7500  142.0150 C   0  0  0  0  0  2  0  0  0  0  0  0
  186.6310  176.4130  145.2930 C   0  0  0  0  0  2  0  0  0  0  0  0
  186.7690  177.4510  146.4120 C   0  0  0  0  0  2  0  0  0  0  0  0
  185.5800  179.3800  145.6960 N   0  0  0  0  0  0  0  0  0  0  0  0
  185.4820  178.2310  146.5940 C   0  0  2  0  0  3  0  0  0  0  0  0
  185.9000  176.9070  144.0320 C   0  0  0  0  0  2  0  0  0  0  0  0
  185.6710  179.3010  143.3580 C   0  0  0  0  0  3  0  0  0  0  0  0
  185.2450  179.8880  144.4360 N   0  0  0  0  0  0  0  0  0  0  0  0
  186.5950  178.1100  143.4040 C   0  0  2  0  0  3  0  0  0  0  0  0
  185.6690  179.4140  147.1010 O   0  0  0  0  0  0  0  0  0  0  0  0
  192.5380  173.3050  140.5780 C   0  0  2  0  0  3  0  0  0  0  0  0
  193.8130  172.5210  140.2100 C   0  0  2  0  0  3  0  0  0  0  0  0
  194.4300  171.9870  141.3450 O   0  0  0  0  0  1  0  0  0  0  0  0
  196.5940  175.0410  138.1060 C   0  0  0  0  0  3  0  0  0  0  0  0
  194.3630  174.1290  138.3680 C   0  0  0  0  0  3  0  0  0  0  0  0
  194.7910  173.3850  139.4740 C   0  0  0  0  0  0  0  0  0  0  0  0
  197.0290  174.2940  139.2060 C   0  0  0  0  0  3  0  0  0  0  0  0
  196.1300  173.4680  139.8870 C   0  0  0  0  0  3  0  0  0  0  0  0
  195.2620  174.9560  137.6870 C   0  0  0  0  0  3  0  0  0  0  0  0
  192.5560  173.6670  141.9310 O   0  0  0  0  0  0  0  0  0  0  0  0
  192.7130  175.0580  141.9220 C   0  0  0  0  0  2  0  0  0  0  0  0
  193.7220  175.4810  142.9770 C   0  0  0  0  0  2  0  0  0  0  0  0
  192.9750  175.9090  144.2320 C   0  0  1  0  0  3  0  0  0  0  0  0
  194.6360  176.3870  145.6160 C   0  0  0  0  0  1  0  0  0  0  0  0
  193.6480  176.9790  144.8300 O   0  0  0  0  0  0  0  0  0  0  0  0
  191.5490  176.3430  143.8960 C   0  0  0  0  0  2  0  0  0  0  0  0
  190.2730  176.9470  147.3130 C   0  0  0  0  0  2  0  0  0  0  0  0
  190.5110  173.7970  145.5650 O   0  0  0  0  0  1  0  0  0  0  0  0
  190.3440  175.4340  147.3280 C   0  0  0  0  0  0  0  0  0  0  0  0
  190.9700  175.0440  145.9970 C   0  0  2  0  0  3  0  0  0  0  0  0
  190.5390  176.1250  145.0280 C   0  0  1  0  0  3  0  0  0  0  0  0
  191.1360  175.0020  148.3810 F   0  0  0  0  0  0  0  0  0  0  0  0
  190.2850  177.3790  145.8490 C   0  0  0  0  0  2  0  0  0  0  0  0
  189.0610  174.9130  147.4560 F   0  0  0  0  0  0  0  0  0  0  0  0
  191.6130  171.2610  139.3940 C   0  0  0  0  0  2  0  0  0  0  0  0
  190.9150  170.0220  139.9210 C   0  0  0  0  0  2  0  0  0  0  0  0
  189.6690  169.9510  137.7770 C   0  0  0  0  0  1  0  0  0  0  0  0
  190.4820  169.1390  138.7620 C   0  0  0  0  0  2  0  0  0  0  0  0
  1 45  1  6  0  0  0
  1 21  1  0  0  0  0
  2  3  2  0  0  0  0
  3  4  1  0  0  0  0
  4  1  1  0  0  0  0
  4  5  1  0  0  0  0
  5  6  1  0  0  0  0
  5  8  1  0  0  0  0
  6  9  1  1  0  0  0
  6  8  1  0  0  0  0
  6  7  1  0  0  0  0
  8  7  1  6  0  0  0
  9 10  1  0  0  0  0
 11 10  1  0  0  0  0
 12 13  1  0  0  0  0
 14 15  1  0  0  0  0
 14 20  1  0  0  0  0
 15 13  1  6  0  0  0
 15 20  1  0  0  0  0
 16 12  1  0  0  0  0
 17 19  1  0  0  0  0
 17 18  2  0  0  0  0
 18 14  1  0  0  0  0
 19 11  1  6  0  0  0
 19 16  1  0  0  0  0
 21 30  1  1  0  0  0
 22 21  1  0  0  0  0
 22 23  1  1  0  0  0
 24 27  1  0  0  0  0
 25 26  2  0  0  0  0
 26 28  1  0  0  0  0
 26 22  1  0  0  0  0
 27 28  2  0  0  0  0
 29 24  2  0  0  0  0
 29 25  1  0  0  0  0
 31 30  1  0  0  0  0
 31 32  1  0  0  0  0
 33 32  1  6  0  0  0
 33 35  1  0  0  0  0
 35 34  1  0  0  0  0
 36 33  1  0  0  0  0
 37 39  1  0  0  0  0
 39 44  1  0  0  0  0
 39 42  1  0  0  0  0
 40 38  1  6  0  0  0
 40 39  1  0  0  0  0
 41 36  1  6  0  0  0
 41 43  1  0  0  0  0
 41 40  1  0  0  0  0
 43 37  1  0  0  0  0
 45 46  1  0  0  0  0
 47 48  1  0  0  0  0
 48 46  1  0  0  0  0
M  END
>  <MODEL>
3

>  <REMARK>
 VINA RESULT:      -6.2      2.506      3.895
  Name = 
  19 active torsions:
  status: ('A' for Active; 'I' for Inactive)
    1  A    between atoms: C_1  and  C_12
    2  A    between atoms: C_1  and  C_31
    3  A    between atoms: C_4  and  C_15
    4  A    between atoms: C_4  and  C_16
    5  A    between atoms: N_5  and  N_47
    6  A    between atoms: C_7  and  C_20
    7  A    between atoms: C_7  and  C_45
    8  A    between atoms: C_8  and  C_20
    9  A    between atoms: C_8  and  C_23
   10  A    between atoms: C_8  and  N_47
   11  A    between atoms: C_11  and  C_15
   12  A    between atoms: C_11  and  C_33
   13  A    between atoms: C_12  and  O_27
   14  A    between atoms: C_12  and  C_39
   15  A    between atoms: C_18  and  C_23
   16  A    between atoms: C_18  and  C_34
   17  A    between atoms: C_23  and  O_41
   18  A    between atoms: C_39  and  C_46
   19  A    between atoms: O_41  and  C_46
                            x       y       z     vdW  Elec       q    Type
                         _______ _______ _______ _____ _____    ______ ____

>  <TORSDO>
F 19

$$$$
=
 OpenBabel11062421473D

 48 53  0  0  1  0  0  0  0  0999 V2000
  192.6310  173.9700  143.4020 C   0  0  2  0  0  3  0  0  0  0  0  0
  193.6360  174.0990  139.8960 O   0  0  0  0  0  0  0  0  0  0  0  0
  193.1720  174.4380  141.0160 C   0  0  0  0  0  3  0  0  0  0  0  0
  192.9150  173.4670  142.0470 N   0  0  0  0  0  0  0  0  0  0  0  0
  193.1730  172.0920  141.8160 N   0  0  0  0  0  0  0  0  0  0  0  0
  191.8950  171.3840  141.7790 C   0  0  2  0  0  0  0  0  0  0  0  0
  192.0480  170.7240  143.0670 N   0  0  0  0  0  2  0  0  0  0  0  0
  193.3310  171.4010  143.0960 C   0  0  2  0  0  3  0  0  0  0  0  0
  191.9000  170.3220  140.6770 C   0  0  0  0  0  2  0  0  0  0  0  0
  192.0490  170.9400  139.2960 C   0  0  0  0  0  2  0  0  0  0  0  0
  190.8570  170.5730  138.4320 C   0  0  0  0  0  2  0  0  0  0  0  0
  190.7960  173.4510  136.3240 C   0  0  0  0  0  2  0  0  0  0  0  0
  189.3850  173.9420  135.9830 C   0  0  0  0  0  2  0  0  0  0  0  0
  188.1350  173.8670  138.0020 N   0  0  0  0  0  0  0  0  0  0  0  0
  188.8190  174.7930  137.1020 C   0  0  2  0  0  3  0  0  0  0  0  0
  190.9840  172.9620  137.7710 C   0  0  0  0  0  2  0  0  0  0  0  0
  189.1440  172.1710  139.2630 C   0  0  0  0  0  3  0  0  0  0  0  0
  188.2460  173.1060  139.1730 N   0  0  0  0  0  0  0  0  0  0  0  0
  190.0460  171.8090  138.1100 C   0  0  2  0  0  3  0  0  0  0  0  0
  187.5180  174.7900  137.1380 O   0  0  0  0  0  0  0  0  0  0  0  0
  191.1650  174.4020  143.5600 C   0  0  2  0  0  3  0  0  0  0  0  0
  190.6370  174.0110  144.9540 C   0  0  2  0  0  3  0  0  0  0  0  0
  189.7340  172.9470  144.8780 O   0  0  0  0  0  1  0  0  0  0  0  0
  188.7690  177.3330  146.9500 C   0  0  0  0  0  3  0  0  0  0  0  0
  189.1300  174.9470  146.7250 C   0  0  0  0  0  3  0  0  0  0  0  0
  189.9790  175.1730  145.6340 C   0  0  0  0  0  0  0  0  0  0  0  0
  189.6090  177.5650  145.8560 C   0  0  0  0  0  3  0  0  0  0  0  0
  190.2120  176.4870  145.1990 C   0  0  0  0  0  3  0  0  0  0  0  0
  188.5280  176.0250  147.3820 C   0  0  0  0  0  3  0  0  0  0  0  0
  190.3810  173.8190  142.5550 O   0  0  0  0  0  0  0  0  0  0  0  0
  189.7210  174.8970  141.9530 C   0  0  0  0  0  2  0  0  0  0  0  0
  188.2540  174.9030  142.3490 C   0  0  0  0  0  2  0  0  0  0  0  0
  187.6430  176.2430  141.9640 C   0  0  1  0  0  3  0  0  0  0  0  0
  186.7340  177.4500  140.3460 C   0  0  0  0  0  1  0  0  0  0  0  0
  187.4930  176.3020  140.5750 O   0  0  0  0  0  0  0  0  0  0  0  0
  186.2740  176.4250  142.6200 C   0  0  0  0  0  2  0  0  0  0  0  0
  185.0550  177.2680  146.0070 C   0  0  0  0  0  2  0  0  0  0  0  0
  185.8590  179.5380  143.3170 O   0  0  0  0  0  1  0  0  0  0  0  0
  184.9190  178.6220  145.3390 C   0  0  0  0  0  0  0  0  0  0  0  0
  185.2890  178.3950  143.8820 C   0  0  2  0  0  3  0  0  0  0  0  0
  186.2960  177.2640  143.9030 C   0  0  1  0  0  3  0  0  0  0  0  0
  183.6140  179.0780  145.4430 F   0  0  0  0  0  0  0  0  0  0  0  0
  186.0170  176.4450  145.1530 C   0  0  0  0  0  2  0  0  0  0  0  0
  185.7850  179.5240  145.9470 F   0  0  0  0  0  0  0  0  0  0  0  0
  193.5970  175.0920  143.7760 C   0  0  0  0  0  2  0  0  0  0  0  0
  194.7820  174.5320  144.5390 C   0  0  0  0  0  2  0  0  0  0  0  0
  193.7410  176.1720  146.0830 C   0  0  0  0  0  1  0  0  0  0  0  0
  194.8180  175.1180  145.9410 C   0  0  0  0  0  2  0  0  0  0  0  0
  1 21  1  0  0  0  0
  1 45  1  6  0  0  0
  2  3  2  0  0  0  0
  3  4  1  0  0  0  0
  4  1  1  0  0  0  0
  5  4  1  0  0  0  0
  5  8  1  0  0  0  0
  6  9  1  6  0  0  0
  6  5  1  0  0  0  0
  6  7  1  0  0  0  0
  6  8  1  0  0  0  0
  8  7  1  1  0  0  0
 10  9  1  0  0  0  0
 11 10  1  0  0  0  0
 12 16  1  0  0  0  0
 13 12  1  0  0  0  0
 14 18  1  0  0  0  0
 15 13  1  6  0  0  0
 15 20  1  0  0  0  0
 15 14  1  0  0  0  0
 16 19  1  0  0  0  0
 18 17  2  0  0  0  0
 19 11  1  1  0  0  0
 19 17  1  0  0  0  0
 20 14  1  0  0  0  0
 21 30  1  6  0  0  0
 21 22  1  0  0  0  0
 22 23  1  6  0  0  0
 22 26  1  0  0  0  0
 24 29  1  0  0  0  0
 25 29  2  0  0  0  0
 26 25  1  0  0  0  0
 27 24  2  0  0  0  0
 28 26  2  0  0  0  0
 28 27  1  0  0  0  0
 31 32  1  0  0  0  0
 31 30  1  0  0  0  0
 33 32  1  6  0  0  0
 33 36  1  0  0  0  0
 34 35  1  0  0  0  0
 35 33  1  0  0  0  0
 39 42  1  0  0  0  0
 39 44  1  0  0  0  0
 39 37  1  0  0  0  0
 40 38  1  1  0  0  0
 40 41  1  0  0  0  0
 40 39  1  0  0  0  0
 41 36  1  6  0  0  0
 41 43  1  0  0  0  0
 43 37  1  0  0  0  0
 45 46  1  0  0  0  0
 46 48  1  0  0  0  0
 48 47  1  0  0  0  0
M  END
>  <MODEL>
4

>  <REMARK>
 VINA RESULT:      -6.1      3.350      8.343
  Name = 
  19 active torsions:
  status: ('A' for Active; 'I' for Inactive)
    1  A    between atoms: C_1  and  C_12
    2  A    between atoms: C_1  and  C_31
    3  A    between atoms: C_4  and  C_15
    4  A    between atoms: C_4  and  C_16
    5  A    between atoms: N_5  and  N_47
    6  A    between atoms: C_7  and  C_20
    7  A    between atoms: C_7  and  C_45
    8  A    between atoms: C_8  and  C_20
    9  A    between atoms: C_8  and  C_23
   10  A    between atoms: C_8  and  N_47
   11  A    between atoms: C_11  and  C_15
   12  A    between atoms: C_11  and  C_33
   13  A    between atoms: C_12  and  O_27
   14  A    between atoms: C_12  and  C_39
   15  A    between atoms: C_18  and  C_23
   16  A    between atoms: C_18  and  C_34
   17  A    between atoms: C_23  and  O_41
   18  A    between atoms: C_39  and  C_46
   19  A    between atoms: O_41  and  C_46
                            x       y       z     vdW  Elec       q    Type
                         _______ _______ _______ _____ _____    ______ ____

>  <TORSDO>
F 19

$$$$
=
 OpenBabel11062421473D

 48 53  0  0  1  0  0  0  0  0999 V2000
  193.7620  175.2380  144.3460 C   0  0  2  0  0  3  0  0  0  0  0  0
  192.2510  176.4110  147.4540 O   0  0  0  0  0  0  0  0  0  0  0  0
  192.8670  175.6900  146.6270 C   0  0  0  0  0  3  0  0  0  0  0  0
  192.8100  175.9530  145.2120 N   0  0  0  0  0  0  0  0  0  0  0  0
  192.0420  177.0370  144.7170 N   0  0  0  0  0  0  0  0  0  0  0  0
  190.6550  176.5930  144.5800 C   0  0  2  0  0  0  0  0  0  0  0  0
  190.6570  176.5300  143.1270 N   0  0  0  0  0  2  0  0  0  0  0  0
  192.0250  176.9990  143.2550 C   0  0  2  0  0  3  0  0  0  0  0  0
  189.6910  177.6970  145.0240 C   0  0  0  0  0  2  0  0  0  0  0  0
  189.0220  177.3630  146.3480 C   0  0  0  0  0  2  0  0  0  0  0  0
  187.8460  176.4320  146.1150 C   0  0  0  0  0  2  0  0  0  0  0  0
  185.2790  178.8840  145.7660 C   0  0  0  0  0  2  0  0  0  0  0  0
  185.1980  179.5060  144.3670 C   0  0  0  0  0  2  0  0  0  0  0  0
  185.4110  177.7160  142.8190 N   0  0  0  0  0  0  0  0  0  0  0  0
  184.4240  178.6120  143.4180 C   0  0  2  0  0  3  0  0  0  0  0  0
  185.5730  177.3750  145.7930 C   0  0  0  0  0  2  0  0  0  0  0  0
  186.6740  176.0990  143.9480 C   0  0  0  0  0  3  0  0  0  0  0  0
  186.0110  176.4530  142.8880 N   0  0  0  0  0  0  0  0  0  0  0  0
  186.8930  177.0380  145.1080 C   0  0  2  0  0  3  0  0  0  0  0  0
  184.7570  178.7810  142.1720 O   0  0  0  0  0  0  0  0  0  0  0  0
  193.4590  173.7330  144.2780 C   0  0  2  0  0  3  0  0  0  0  0  0
  194.6860  172.9610  143.7550 C   0  0  2  0  0  3  0  0  0  0  0  0
  194.4370  172.3910  142.5030 O   0  0  0  0  0  1  0  0  0  0  0  0
  195.8990  169.9160  146.5420 C   0  0  0  0  0  3  0  0  0  0  0  0
  196.4040  171.8960  145.2370 C   0  0  0  0  0  3  0  0  0  0  0  0
  195.1060  171.8880  144.7140 C   0  0  0  0  0  0  0  0  0  0  0  0
  194.6030  169.8990  146.0170 C   0  0  0  0  0  3  0  0  0  0  0  0
  194.2070  170.8820  145.1050 C   0  0  0  0  0  3  0  0  0  0  0  0
  196.7990  170.9120  146.1500 C   0  0  0  0  0  3  0  0  0  0  0  0
  192.3470  173.5040  143.4570 O   0  0  0  0  0  0  0  0  0  0  0  0
  191.3680  172.9990  144.3220 C   0  0  0  0  0  2  0  0  0  0  0  0
  190.8320  171.6780  143.7950 C   0  0  0  0  0  2  0  0  0  0  0  0
  189.5860  171.9460  142.9640 C   0  0  1  0  0  3  0  0  0  0  0  0
  188.6690  173.6890  141.9520 C   0  0  0  0  0  1  0  0  0  0  0  0
  189.1520  173.2560  143.1870 O   0  0  0  0  0  0  0  0  0  0  0  0
  189.8760  171.7650  141.4740 C   0  0  0  0  0  2  0  0  0  0  0  0
  192.5070  170.5380  139.1850 C   0  0  0  0  0  2  0  0  0  0  0  0
  190.7700  168.6880  141.7530 O   0  0  0  0  0  1  0  0  0  0  0  0
  192.0470  169.2230  139.7790 C   0  0  0  0  0  0  0  0  0  0  0  0
  190.8690  169.5710  140.6750 C   0  0  2  0  0  3  0  0  0  0  0  0
  191.1530  170.9730  141.1710 C   0  0  1  0  0  3  0  0  0  0  0  0
  191.6510  168.3550  138.7720 F   0  0  0  0  0  0  0  0  0  0  0  0
  192.0340  171.6420  140.1280 C   0  0  0  0  0  2  0  0  0  0  0  0
  193.0880  168.6580  140.5080 F   0  0  0  0  0  0  0  0  0  0  0  0
  195.2000  175.5070  144.7840 C   0  0  0  0  0  2  0  0  0  0  0  0
  195.8810  176.4420  143.8020 C   0  0  0  0  0  2  0  0  0  0  0  0
  196.3330  176.7830  141.3870 C   0  0  0  0  0  1  0  0  0  0  0  0
  195.3900  176.1570  142.3920 C   0  0  0  0  0  2  0  0  0  0  0  0
  1 45  1  1  0  0  0
  1  4  1  0  0  0  0
  3  2  2  0  0  0  0
  4  3  1  0  0  0  0
  5  4  1  0  0  0  0
  6  5  1  0  0  0  0
  6  9  1  6  0  0  0
  7  6  1  0  0  0  0
  8  7  1  1  0  0  0
  8  6  1  0  0  0  0
  8  5  1  0  0  0  0
  9 10  1  0  0  0  0
 11 10  1  0  0  0  0
 12 16  1  0  0  0  0
 13 12  1  0  0  0  0
 14 18  1  0  0  0  0
 14 15  1  0  0  0  0
 15 13  1  1  0  0  0
 17 19  1  0  0  0  0
 18 17  2  0  0  0  0
 19 16  1  0  0  0  0
 19 11  1  1  0  0  0
 20 14  1  0  0  0  0
 20 15  1  0  0  0  0
 21 30  1  6  0  0  0
 21  1  1  0  0  0  0
 22 23  1  6  0  0  0
 22 21  1  0  0  0  0
 22 26  1  0  0  0  0
 25 29  2  0  0  0  0
 26 28  2  0  0  0  0
 26 25  1  0  0  0  0
 27 24  2  0  0  0  0
 28 27  1  0  0  0  0
 29 24  1  0  0  0  0
 30 31  1  0  0  0  0
 32 31  1  0  0  0  0
 33 36  1  6  0  0  0
 33 35  1  0  0  0  0
 33 32  1  0  0  0  0
 34 35  1  0  0  0  0
 37 39  1  0  0  0  0
 37 43  1  0  0  0  0
 39 44  1  0  0  0  0
 39 40  1  0  0  0  0
 40 41  1  0  0  0  0
 40 38  1  1  0  0  0
 41 36  1  6  0  0  0
 42 39  1  0  0  0  0
 43 41  1  0  0  0  0
 46 45  1  0  0  0  0
 47 48  1  0  0  0  0
 48 46  1  0  0  0  0
M  END
>  <MODEL>
5

>  <REMARK>
 VINA RESULT:      -6.0      3.028      5.937
  Name = 
  19 active torsions:
  status: ('A' for Active; 'I' for Inactive)
    1  A    between atoms: C_1  and  C_12
    2  A    between atoms: C_1  and  C_31
    3  A    between atoms: C_4  and  C_15
    4  A    between atoms: C_4  and  C_16
    5  A    between atoms: N_5  and  N_47
    6  A    between atoms: C_7  and  C_20
    7  A    between atoms: C_7  and  C_45
    8  A    between atoms: C_8  and  C_20
    9  A    between atoms: C_8  and  C_23
   10  A    between atoms: C_8  and  N_47
   11  A    between atoms: C_11  and  C_15
   12  A    between atoms: C_11  and  C_33
   13  A    between atoms: C_12  and  O_27
   14  A    between atoms: C_12  and  C_39
   15  A    between atoms: C_18  and  C_23
   16  A    between atoms: C_18  and  C_34
   17  A    between atoms: C_23  and  O_41
   18  A    between atoms: C_39  and  C_46
   19  A    between atoms: O_41  and  C_46
                            x       y       z     vdW  Elec       q    Type
                         _______ _______ _______ _____ _____    ______ ____

>  <TORSDO>
F 19

$$$$
=
 OpenBabel11062421473D

 48 53  0  0  1  0  0  0  0  0999 V2000
  191.6910  173.1380  142.2620 C   0  0  2  0  0  3  0  0  0  0  0  0
  191.4700  173.7860  138.6780 O   0  0  0  0  0  0  0  0  0  0  0  0
  191.9450  173.6180  139.8310 C   0  0  0  0  0  3  0  0  0  0  0  0
  191.0990  173.6040  140.9970 N   0  0  0  0  0  0  0  0  0  0  0  0
  189.7000  173.7890  140.8670 N   0  0  0  0  0  0  0  0  0  0  0  0
  189.0940  173.6550  142.1910 C   0  0  2  0  0  0  0  0  0  0  0  0
  188.4800  172.3580  141.9480 N   0  0  0  0  0  2  0  0  0  0  0  0
  189.0540  172.5000  140.6230 C   0  0  2  0  0  3  0  0  0  0  0  0
  187.9880  174.6950  142.3850 C   0  0  0  0  0  2  0  0  0  0  0  0
  188.0990  175.8310  141.3820 C   0  0  0  0  0  2  0  0  0  0  0  0
  188.4120  177.1300  142.1010 C   0  0  0  0  0  2  0  0  0  0  0  0
  185.0680  178.1980  141.4680 C   0  0  0  0  0  2  0  0  0  0  0  0
  184.1040  177.9500  142.6330 C   0  0  0  0  0  2  0  0  0  0  0  0
  185.2510  178.6000  144.6100 N   0  0  0  0  0  0  0  0  0  0  0  0
  184.2180  179.0440  143.6770 C   0  0  2  0  0  3  0  0  0  0  0  0
  186.4760  178.6660  141.8740 C   0  0  0  0  0  2  0  0  0  0  0  0
  187.5180  178.2870  144.1120 C   0  0  0  0  0  3  0  0  0  0  0  0
  186.6070  178.6820  144.9500 N   0  0  0  0  0  0  0  0  0  0  0  0
  187.1700  177.6600  142.7850 C   0  0  2  0  0  3  0  0  0  0  0  0
  183.8690  178.6530  144.8670 O   0  0  0  0  0  0  0  0  0  0  0  0
  192.6050  174.2000  142.8950 C   0  0  2  0  0  3  0  0  0  0  0  0
  194.0330  173.6460  143.0640 C   0  0  2  0  0  3  0  0  0  0  0  0
  194.3990  173.5790  144.4110 O   0  0  0  0  0  1  0  0  0  0  0  0
  196.8720  176.0350  140.8860 C   0  0  0  0  0  3  0  0  0  0  0  0
  195.5820  173.9960  141.1250 C   0  0  0  0  0  3  0  0  0  0  0  0
  195.0330  174.4780  142.3190 C   0  0  0  0  0  0  0  0  0  0  0  0
  196.3330  176.5180  142.0820 C   0  0  0  0  0  3  0  0  0  0  0  0
  195.4160  175.7410  142.7970 C   0  0  0  0  0  3  0  0  0  0  0  0
  196.4990  174.7740  140.4090 C   0  0  0  0  0  3  0  0  0  0  0  0
  192.0850  174.6070  144.1300 O   0  0  0  0  0  0  0  0  0  0  0  0
  191.7130  175.9420  143.9340 C   0  0  0  0  0  2  0  0  0  0  0  0
  192.5340  176.8550  144.8290 C   0  0  0  0  0  2  0  0  0  0  0  0
  192.7930  176.1470  146.1520 C   0  0  1  0  0  3  0  0  0  0  0  0
  194.5840  177.4430  146.0240 C   0  0  0  0  0  1  0  0  0  0  0  0
  194.1620  176.1790  146.4340 O   0  0  0  0  0  0  0  0  0  0  0  0
  192.0350  176.8280  147.2910 C   0  0  0  0  0  2  0  0  0  0  0  0
  189.3330  174.3800  146.6790 C   0  0  0  0  0  2  0  0  0  0  0  0
  189.0080  177.9160  147.3330 O   0  0  0  0  0  1  0  0  0  0  0  0
  188.5380  175.6670  146.6010 C   0  0  0  0  0  0  0  0  0  0  0  0
  189.5610  176.7850  146.7270 C   0  0  2  0  0  3  0  0  0  0  0  0
  190.6640  176.2130  147.5930 C   0  0  1  0  0  3  0  0  0  0  0  0
  187.8780  175.7490  145.3840 F   0  0  0  0  0  0  0  0  0  0  0  0
  190.6350  174.7040  147.4080 C   0  0  0  0  0  2  0  0  0  0  0  0
  187.6170  175.7040  147.6420 F   0  0  0  0  0  0  0  0  0  0  0  0
  192.4170  171.8100  142.0650 C   0  0  0  0  0  2  0  0  0  0  0  0
  191.6960  170.7020  142.8090 C   0  0  0  0  0  2  0  0  0  0  0  0
  193.7780  169.8250  143.8330 C   0  0  0  0  0  1  0  0  0  0  0  0
  192.6040  169.4900  142.9390 C   0  0  0  0  0  2  0  0  0  0  0  0
  1 45  1  6  0  0  0
  1 21  1  0  0  0  0
  2  3  2  0  0  0  0
  3  4  1  0  0  0  0
  4  1  1  0  0  0  0
  5  4  1  0  0  0  0
  5  6  1  0  0  0  0
  6  9  1  6  0  0  0
  7  6  1  0  0  0  0
  8  5  1  0  0  0  0
  8  7  1  1  0  0  0
  8  6  1  0  0  0  0
 10 11  1  0  0  0  0
 10  9  1  0  0  0  0
 12 16  1  0  0  0  0
 12 13  1  0  0  0  0
 14 20  1  0  0  0  0
 14 18  1  0  0  0  0
 15 13  1  6  0  0  0
 15 14  1  0  0  0  0
 15 20  1  0  0  0  0
 16 19  1  0  0  0  0
 17 18  2  0  0  0  0
 19 11  1  6  0  0  0
 19 17  1  0  0  0  0
 21 22  1  0  0  0  0
 21 30  1  1  0  0  0
 22 23  1  1  0  0  0
 24 27  1  0  0  0  0
 25 26  2  0  0  0  0
 26 28  1  0  0  0  0
 26 22  1  0  0  0  0
 27 28  2  0  0  0  0
 29 24  2  0  0  0  0
 29 25  1  0  0  0  0
 31 30  1  0  0  0  0
 31 32  1  0  0  0  0
 33 32  1  6  0  0  0
 33 35  1  0  0  0  0
 33 36  1  0  0  0  0
 34 35  1  0  0  0  0
 37 43  1  0  0  0  0
 39 37  1  0  0  0  0
 39 40  1  0  0  0  0
 39 44  1  0  0  0  0
 40 38  1  1  0  0  0
 40 41  1  0  0  0  0
 41 36  1  6  0  0  0
 42 39  1  0  0  0  0
 43 41  1  0  0  0  0
 45 46  1  0  0  0  0
 46 48  1  0  0  0  0
 48 47  1  0  0  0  0
M  END
>  <MODEL>
6

>  <REMARK>
 VINA RESULT:      -6.0      2.470      4.305
  Name = 
  19 active torsions:
  status: ('A' for Active; 'I' for Inactive)
    1  A    between atoms: C_1  and  C_12
    2  A    between atoms: C_1  and  C_31
    3  A    between atoms: C_4  and  C_15
    4  A    between atoms: C_4  and  C_16
    5  A    between atoms: N_5  and  N_47
    6  A    between atoms: C_7  and  C_20
    7  A    between atoms: C_7  and  C_45
    8  A    between atoms: C_8  and  C_20
    9  A    between atoms: C_8  and  C_23
   10  A    between atoms: C_8  and  N_47
   11  A    between atoms: C_11  and  C_15
   12  A    between atoms: C_11  and  C_33
   13  A    between atoms: C_12  and  O_27
   14  A    between atoms: C_12  and  C_39
   15  A    between atoms: C_18  and  C_23
   16  A    between atoms: C_18  and  C_34
   17  A    between atoms: C_23  and  O_41
   18  A    between atoms: C_39  and  C_46
   19  A    between atoms: O_41  and  C_46
                            x       y       z     vdW  Elec       q    Type
                         _______ _______ _______ _____ _____    ______ ____

>  <TORSDO>
F 19

$$$$
=
 OpenBabel11062421473D

 48 53  0  0  1  0  0  0  0  0999 V2000
  191.1660  174.7940  144.1750 C   0  0  2  0  0  3  0  0  0  0  0  0
  190.7510  171.7970  142.1350 O   0  0  0  0  0  0  0  0  0  0  0  0
  191.1840  172.5930  143.0080 C   0  0  0  0  0  3  0  0  0  0  0  0
  190.8440  173.9930  142.9820 N   0  0  0  0  0  0  0  0  0  0  0  0
  190.0140  174.5080  141.9560 N   0  0  0  0  0  0  0  0  0  0  0  0
  188.9990  175.3620  142.5710 C   0  0  2  0  0  0  0  0  0  0  0  0
  187.8870  174.4440  142.3770 N   0  0  0  0  0  2  0  0  0  0  0  0
  188.8840  173.6040  141.7390 C   0  0  2  0  0  3  0  0  0  0  0  0
  188.7600  176.6120  141.7200 C   0  0  0  0  0  2  0  0  0  0  0  0
  188.5470  177.8480  142.5780 C   0  0  0  0  0  2  0  0  0  0  0  0
  187.1510  178.4010  142.3540 C   0  0  0  0  0  2  0  0  0  0  0  0
  186.5120  176.4020  145.2390 C   0  0  0  0  0  2  0  0  0  0  0  0
  186.1880  177.2120  146.4980 C   0  0  0  0  0  2  0  0  0  0  0  0
  184.6850  178.9270  145.8300 N   0  0  0  0  0  0  0  0  0  0  0  0
  184.7320  177.6360  146.5130 C   0  0  2  0  0  3  0  0  0  0  0  0
  185.9050  176.9500  143.9350 C   0  0  0  0  0  2  0  0  0  0  0  0
  185.1890  179.3160  143.5760 C   0  0  0  0  0  3  0  0  0  0  0  0
  184.4500  179.5770  144.6130 N   0  0  0  0  0  0  0  0  0  0  0  0
  186.3650  178.3740  143.6470 C   0  0  2  0  0  3  0  0  0  0  0  0
  184.5210  178.7130  147.2110 O   0  0  0  0  0  0  0  0  0  0  0  0
  192.6440  175.2130  144.2050 C   0  0  2  0  0  3  0  0  0  0  0  0
  193.2150  175.0620  145.6290 C   0  0  2  0  0  3  0  0  0  0  0  0
  193.5730  176.3000  146.1700 O   0  0  0  0  0  1  0  0  0  0  0  0
  196.6230  172.4350  145.6270 C   0  0  0  0  0  3  0  0  0  0  0  0
  194.2420  172.7920  145.3480 C   0  0  0  0  0  3  0  0  0  0  0  0
  194.4050  174.1510  145.6450 C   0  0  0  0  0  0  0  0  0  0  0  0
  196.7920  173.7900  145.9330 C   0  0  0  0  0  3  0  0  0  0  0  0
  195.6850  174.6450  145.9420 C   0  0  0  0  0  3  0  0  0  0  0  0
  195.3490  171.9370  145.3380 C   0  0  0  0  0  3  0  0  0  0  0  0
  192.7790  176.5340  143.7590 O   0  0  0  0  0  0  0  0  0  0  0  0
  193.1850  176.4160  142.4240 C   0  0  0  0  0  2  0  0  0  0  0  0
  194.5740  175.8040  142.3500 C   0  0  0  0  0  2  0  0  0  0  0  0
  194.7440  175.1240  140.9990 C   0  0  1  0  0  3  0  0  0  0  0  0
  196.9480  175.2620  140.8500 C   0  0  0  0  0  1  0  0  0  0  0  0
  195.9080  174.3490  141.0130 O   0  0  0  0  0  0  0  0  0  0  0  0
  193.5500  174.2210  140.6900 C   0  0  0  0  0  2  0  0  0  0  0  0
  192.9840  175.0590  137.1340 C   0  0  0  0  0  2  0  0  0  0  0  0
  191.6000  172.2980  139.0030 O   0  0  0  0  0  1  0  0  0  0  0  0
  191.9230  173.9940  137.3200 C   0  0  0  0  0  0  0  0  0  0  0  0
  191.9680  173.6290  138.7960 C   0  0  2  0  0  3  0  0  0  0  0  0
  193.4080  173.8450  139.2110 C   0  0  1  0  0  3  0  0  0  0  0  0
  190.6750  174.4970  136.9830 F   0  0  0  0  0  0  0  0  0  0  0  0
  193.9870  174.8930  138.2730 C   0  0  0  0  0  2  0  0  0  0  0  0
  192.2250  172.8990  136.5190 F   0  0  0  0  0  0  0  0  0  0  0  0
  190.7580  174.0580  145.4490 C   0  0  0  0  0  2  0  0  0  0  0  0
  189.3550  174.4600  145.8610 C   0  0  0  0  0  2  0  0  0  0  0  0
  190.1630  176.2990  147.3170 C   0  0  0  0  0  1  0  0  0  0  0  0
  189.3710  175.0100  147.2780 C   0  0  0  0  0  2  0  0  0  0  0  0
  1 21  1  0  0  0  0
  1 45  1  1  0  0  0
  2  3  2  0  0  0  0
  4  3  1  0  0  0  0
  4  1  1  0  0  0  0
  5  6  1  0  0  0  0
  5  4  1  0  0  0  0
  6  9  1  6  0  0  0
  7  6  1  0  0  0  0
  8  5  1  0  0  0  0
  8  7  1  1  0  0  0
  8  6  1  0  0  0  0
  9 10  1  0  0  0  0
 11 10  1  0  0  0  0
 12 13  1  0  0  0  0
 14 15  1  0  0  0  0
 14 20  1  0  0  0  0
 15 13  1  1  0  0  0
 15 20  1  0  0  0  0
 16 12  1  0  0  0  0
 17 19  1  0  0  0  0
 17 18  2  0  0  0  0
 18 14  1  0  0  0  0
 19 11  1  6  0  0  0
 19 16  1  0  0  0  0
 21 30  1  1  0  0  0
 21 22  1  0  0  0  0
 22 26  1  0  0  0  0
 22 23  1  6  0  0  0
 24 27  1  0  0  0  0
 25 26  2  0  0  0  0
 26 28  1  0  0  0  0
 27 28  2  0  0  0  0
 29 25  1  0  0  0  0
 29 24  2  0  0  0  0
 31 30  1  0  0  0  0
 32 31  1  0  0  0  0
 33 36  1  1  0  0  0
 33 35  1  0  0  0  0
 33 32  1  0  0  0  0
 34 35  1  0  0  0  0
 37 39  1  0  0  0  0
 37 43  1  0  0  0  0
 39 40  1  0  0  0  0
 40 38  1  6  0  0  0
 40 41  1  0  0  0  0
 41 36  1  1  0  0  0
 42 39  1  0  0  0  0
 43 41  1  0  0  0  0
 44 39  1  0  0  0  0
 45 46  1  0  0  0  0
 46 48  1  0  0  0  0
 48 47  1  0  0  0  0
M  END
>  <MODEL>
7

>  <REMARK>
 VINA RESULT:      -6.0      2.766      5.504
  Name = 
  19 active torsions:
  status: ('A' for Active; 'I' for Inactive)
    1  A    between atoms: C_1  and  C_12
    2  A    between atoms: C_1  and  C_31
    3  A    between atoms: C_4  and  C_15
    4  A    between atoms: C_4  and  C_16
    5  A    between atoms: N_5  and  N_47
    6  A    between atoms: C_7  and  C_20
    7  A    between atoms: C_7  and  C_45
    8  A    between atoms: C_8  and  C_20
    9  A    between atoms: C_8  and  C_23
   10  A    between atoms: C_8  and  N_47
   11  A    between atoms: C_11  and  C_15
   12  A    between atoms: C_11  and  C_33
   13  A    between atoms: C_12  and  O_27
   14  A    between atoms: C_12  and  C_39
   15  A    between atoms: C_18  and  C_23
   16  A    between atoms: C_18  and  C_34
   17  A    between atoms: C_23  and  O_41
   18  A    between atoms: C_39  and  C_46
   19  A    between atoms: O_41  and  C_46
                            x       y       z     vdW  Elec       q    Type
                         _______ _______ _______ _____ _____    ______ ____

>  <TORSDO>
F 19

$$$$
=
 OpenBabel11062421473D

 48 53  0  0  1  0  0  0  0  0999 V2000
  192.2340  175.4530  143.1800 C   0  0  2  0  0  3  0  0  0  0  0  0
  193.0740  173.2710  140.3790 O   0  0  0  0  0  0  0  0  0  0  0  0
  192.6800  174.2700  141.0340 C   0  0  0  0  0  3  0  0  0  0  0  0
  192.4310  174.1890  142.4500 N   0  0  0  0  0  0  0  0  0  0  0  0
  192.6190  172.9660  143.1410 N   0  0  0  0  0  0  0  0  0  0  0  0
  191.3620  172.2210  143.1080 C   0  0  2  0  0  0  0  0  0  0  0  0
  191.0240  172.4290  144.5090 N   0  0  0  0  0  2  0  0  0  0  0  0
  192.2860  173.1440  144.5540 C   0  0  2  0  0  3  0  0  0  0  0  0
  191.6250  170.7310  142.8810 C   0  0  0  0  0  2  0  0  0  0  0  0
  190.8180  170.1860  141.7140 C   0  0  0  0  0  2  0  0  0  0  0  0
  191.7480  169.7620  140.5920 C   0  0  0  0  0  2  0  0  0  0  0  0
  192.3700  169.6380  137.0820 C   0  0  0  0  0  2  0  0  0  0  0  0
  191.1010  169.6770  136.2230 C   0  0  0  0  0  2  0  0  0  0  0  0
  189.6960  171.3450  137.1680 N   0  0  0  0  0  0  0  0  0  0  0  0
  190.6050  171.0990  136.0490 C   0  0  2  0  0  3  0  0  0  0  0  0
  192.3500  170.5530  138.3180 C   0  0  0  0  0  2  0  0  0  0  0  0
  190.2830  171.4020  139.4340 C   0  0  0  0  0  3  0  0  0  0  0  0
  189.5750  171.8820  138.4550 N   0  0  0  0  0  0  0  0  0  0  0  0
  191.1980  170.2170  139.2580 C   0  0  2  0  0  3  0  0  0  0  0  0
  189.3260  171.1690  135.8210 O   0  0  0  0  0  0  0  0  0  0  0  0
  190.8710  176.0910  142.8690 C   0  0  2  0  0  3  0  0  0  0  0  0
  190.4350  177.0140  144.0240 C   0  0  2  0  0  3  0  0  0  0  0  0
  191.2980  178.1050  144.1600 O   0  0  0  0  0  1  0  0  0  0  0  0
  190.2430  174.9180  147.7760 C   0  0  0  0  0  3  0  0  0  0  0  0
  191.3700  176.4580  146.2810 C   0  0  0  0  0  3  0  0  0  0  0  0
  190.3680  176.2690  145.3220 C   0  0  0  0  0  0  0  0  0  0  0  0
  189.2430  174.7190  146.8190 C   0  0  0  0  0  3  0  0  0  0  0  0
  189.3060  175.3920  145.5940 C   0  0  0  0  0  3  0  0  0  0  0  0
  191.3070  175.7850  147.5060 C   0  0  0  0  0  3  0  0  0  0  0  0
  189.9130  175.0940  142.6470 O   0  0  0  0  0  0  0  0  0  0  0  0
  189.1520  175.5700  141.5720 C   0  0  0  0  0  2  0  0  0  0  0  0
  187.6920  175.6960  141.9770 C   0  0  0  0  0  2  0  0  0  0  0  0
  187.3410  177.1710  142.1080 C   0  0  1  0  0  3  0  0  0  0  0  0
  185.9280  177.8580  140.5470 C   0  0  0  0  0  1  0  0  0  0  0  0
  187.2880  177.7500  140.8360 O   0  0  0  0  0  0  0  0  0  0  0  0
  185.9850  177.3490  142.7910 C   0  0  0  0  0  2  0  0  0  0  0  0
  185.0080  177.2560  146.3550 C   0  0  0  0  0  2  0  0  0  0  0  0
  185.4620  180.1620  144.2610 O   0  0  0  0  0  1  0  0  0  0  0  0
  184.7440  178.7170  146.0530 C   0  0  0  0  0  0  0  0  0  0  0  0
  185.0030  178.8770  144.5630 C   0  0  2  0  0  3  0  0  0  0  0  0
  186.0680  177.8510  144.2370 C   0  0  1  0  0  3  0  0  0  0  0  0
  183.4290  179.0390  146.3540 F   0  0  0  0  0  0  0  0  0  0  0  0
  185.9380  176.7360  145.2620 C   0  0  0  0  0  2  0  0  0  0  0  0
  185.6080  179.5050  146.8050 F   0  0  0  0  0  0  0  0  0  0  0  0
  193.3870  176.4180  142.9140 C   0  0  0  0  0  2  0  0  0  0  0  0
  194.6320  175.9640  143.6500 C   0  0  0  0  0  2  0  0  0  0  0  0
  195.2390  175.1150  145.9010 C   0  0  0  0  0  1  0  0  0  0  0  0
  194.4510  176.1630  145.1460 C   0  0  0  0  0  2  0  0  0  0  0  0
  1 45  1  6  0  0  0
  2  3  2  0  0  0  0
  3  4  1  0  0  0  0
  4  5  1  0  0  0  0
  4  1  1  0  0  0  0
  5  8  1  0  0  0  0
  6  9  1  1  0  0  0
  6  5  1  0  0  0  0
  6  7  1  0  0  0  0
  6  8  1  0  0  0  0
  8  7  1  6  0  0  0
 10  9  1  0  0  0  0
 11 10  1  0  0  0  0
 12 16  1  0  0  0  0
 13 12  1  0  0  0  0
 14 18  1  0  0  0  0
 15 13  1  1  0  0  0
 15 14  1  0  0  0  0
 16 19  1  0  0  0  0
 18 17  2  0  0  0  0
 19 17  1  0  0  0  0
 19 11  1  1  0  0  0
 20 15  1  0  0  0  0
 20 14  1  0  0  0  0
 21 30  1  1  0  0  0
 21  1  1  0  0  0  0
 21 22  1  0  0  0  0
 22 23  1  1  0  0  0
 22 26  1  0  0  0  0
 25 29  2  0  0  0  0
 26 28  2  0  0  0  0
 26 25  1  0  0  0  0
 27 24  2  0  0  0  0
 28 27  1  0  0  0  0
 29 24  1  0  0  0  0
 31 32  1  0  0  0  0
 31 30  1  0  0  0  0
 33 32  1  6  0  0  0
 33 36  1  0  0  0  0
 34 35  1  0  0  0  0
 35 33  1  0  0  0  0
 39 42  1  0  0  0  0
 39 37  1  0  0  0  0
 39 44  1  0  0  0  0
 40 38  1  1  0  0  0
 40 39  1  0  0  0  0
 41 36  1  6  0  0  0
 41 40  1  0  0  0  0
 41 43  1  0  0  0  0
 43 37  1  0  0  0  0
 45 46  1  0  0  0  0
 46 48  1  0  0  0  0
 48 47  1  0  0  0  0
M  END
>  <MODEL>
8

>  <REMARK>
 VINA RESULT:      -6.0      3.341      8.883
  Name = 
  19 active torsions:
  status: ('A' for Active; 'I' for Inactive)
    1  A    between atoms: C_1  and  C_12
    2  A    between atoms: C_1  and  C_31
    3  A    between atoms: C_4  and  C_15
    4  A    between atoms: C_4  and  C_16
    5  A    between atoms: N_5  and  N_47
    6  A    between atoms: C_7  and  C_20
    7  A    between atoms: C_7  and  C_45
    8  A    between atoms: C_8  and  C_20
    9  A    between atoms: C_8  and  C_23
   10  A    between atoms: C_8  and  N_47
   11  A    between atoms: C_11  and  C_15
   12  A    between atoms: C_11  and  C_33
   13  A    between atoms: C_12  and  O_27
   14  A    between atoms: C_12  and  C_39
   15  A    between atoms: C_18  and  C_23
   16  A    between atoms: C_18  and  C_34
   17  A    between atoms: C_23  and  O_41
   18  A    between atoms: C_39  and  C_46
   19  A    between atoms: O_41  and  C_46
                            x       y       z     vdW  Elec       q    Type
                         _______ _______ _______ _____ _____    ______ ____

>  <TORSDO>
F 19

$$$$
=
 OpenBabel11062421473D

 48 53  0  0  1  0  0  0  0  0999 V2000
  194.6370  174.4610  144.6410 C   0  0  2  0  0  3  0  0  0  0  0  0
  192.6360  176.3540  147.0340 O   0  0  0  0  0  0  0  0  0  0  0  0
  193.3010  175.4230  146.5100 C   0  0  0  0  0  3  0  0  0  0  0  0
  193.6410  175.4380  145.1110 N   0  0  0  0  0  0  0  0  0  0  0  0
  193.2220  176.5110  144.2850 N   0  0  0  0  0  0  0  0  0  0  0  0
  191.7940  176.3520  144.0160 C   0  0  2  0  0  0  0  0  0  0  0  0
  191.9430  175.9460  142.6260 N   0  0  0  0  0  2  0  0  0  0  0  0
  193.3610  176.1300  142.8790 C   0  0  2  0  0  3  0  0  0  0  0  0
  191.0840  177.7080  144.0590 C   0  0  0  0  0  2  0  0  0  0  0  0
  189.8130  177.6550  144.8910 C   0  0  0  0  0  2  0  0  0  0  0  0
  188.7000  176.9970  144.0970 C   0  0  0  0  0  2  0  0  0  0  0  0
  186.9540  177.7680  147.1100 C   0  0  0  0  0  2  0  0  0  0  0  0
  185.8460  178.8130  146.9370 C   0  0  0  0  0  2  0  0  0  0  0  0
  184.6780  178.2370  144.9490 N   0  0  0  0  0  0  0  0  0  0  0  0
  184.5760  178.1770  146.4050 C   0  0  2  0  0  3  0  0  0  0  0  0
  187.0790  176.7540  145.9600 C   0  0  0  0  0  2  0  0  0  0  0  0
  186.2620  177.1260  143.6290 C   0  0  0  0  0  3  0  0  0  0  0  0
  185.0400  177.5390  143.7900 N   0  0  0  0  0  0  0  0  0  0  0  0
  187.3520  177.4360  144.6250 C   0  0  2  0  0  3  0  0  0  0  0  0
  183.8210  179.0120  145.7530 O   0  0  0  0  0  0  0  0  0  0  0  0
  194.0850  173.0260  144.6510 C   0  0  2  0  0  3  0  0  0  0  0  0
  195.1830  172.0250  144.2420 C   0  0  2  0  0  3  0  0  0  0  0  0
  194.8900  171.4170  143.0190 O   0  0  0  0  0  1  0  0  0  0  0  0
  195.7220  168.9590  147.2120 C   0  0  0  0  0  3  0  0  0  0  0  0
  194.3030  170.1400  145.6400 C   0  0  0  0  0  3  0  0  0  0  0  0
  195.3750  170.9690  145.2880 C   0  0  0  0  0  0  0  0  0  0  0  0
  196.7940  169.7890  146.8700 C   0  0  0  0  0  3  0  0  0  0  0  0
  196.6210  170.7930  145.9110 C   0  0  0  0  0  3  0  0  0  0  0  0
  194.4770  169.1360  146.5990 C   0  0  0  0  0  3  0  0  0  0  0  0
  192.9850  172.9300  143.7890 O   0  0  0  0  0  0  0  0  0  0  0  0
  191.8920  172.7040  144.6350 C   0  0  0  0  0  2  0  0  0  0  0  0
  191.0790  171.5200  144.1390 C   0  0  0  0  0  2  0  0  0  0  0  0
  191.3700  171.3030  142.6610 C   0  0  1  0  0  3  0  0  0  0  0  0
  191.0090  169.3700  141.6450 C   0  0  0  0  0  1  0  0  0  0  0  0
  191.9130  170.0280  142.4780 O   0  0  0  0  0  0  0  0  0  0  0  0
  190.0930  171.4230  141.8310 C   0  0  0  0  0  2  0  0  0  0  0  0
  188.5540  174.3380  140.1560 C   0  0  0  0  0  2  0  0  0  0  0  0
  190.4060  171.6360  138.6360 O   0  0  0  0  0  1  0  0  0  0  0  0
  188.9070  173.5000  138.9440 C   0  0  0  0  0  0  0  0  0  0  0  0
  189.4590  172.1960  139.4980 C   0  0  2  0  0  3  0  0  0  0  0  0
  190.1070  172.5710  140.8140 C   0  0  1  0  0  3  0  0  0  0  0  0
  187.7740  173.2610  138.1800 F   0  0  0  0  0  0  0  0  0  0  0  0
  189.3980  173.8190  141.3170 C   0  0  0  0  0  2  0  0  0  0  0  0
  189.8590  174.1700  138.1830 F   0  0  0  0  0  0  0  0  0  0  0  0
  195.9310  174.5760  145.4440 C   0  0  0  0  0  2  0  0  0  0  0  0
  197.1290  174.5480  144.5160 C   0  0  0  0  0  2  0  0  0  0  0  0
  197.0350  176.6720  143.2370 C   0  0  0  0  0  1  0  0  0  0  0  0
  196.7660  175.1830  143.1830 C   0  0  0  0  0  2  0  0  0  0  0  0
  1 21  1  0  0  0  0
  1  4  1  0  0  0  0
  1 45  1  1  0  0  0
  3  2  2  0  0  0  0
  4  3  1  0  0  0  0
  5  4  1  0  0  0  0
  6  9  1  6  0  0  0
  6  5  1  0  0  0  0
  7  6  1  0  0  0  0
  8  7  1  1  0  0  0
  8  6  1  0  0  0  0
  8  5  1  0  0  0  0
  9 10  1  0  0  0  0
 11 10  1  0  0  0  0
 13 12  1  0  0  0  0
 14 20  1  0  0  0  0
 14 15  1  0  0  0  0
 15 13  1  1  0  0  0
 16 12  1  0  0  0  0
 17 18  2  0  0  0  0
 17 19  1  0  0  0  0
 18 14  1  0  0  0  0
 19 11  1  6  0  0  0
 19 16  1  0  0  0  0
 20 15  1  0  0  0  0
 21 30  1  6  0  0  0
 22 23  1  6  0  0  0
 22 21  1  0  0  0  0
 22 26  1  0  0  0  0
 25 29  1  0  0  0  0
 26 25  2  0  0  0  0
 26 28  1  0  0  0  0
 27 24  1  0  0  0  0
 28 27  2  0  0  0  0
 29 24  2  0  0  0  0
 30 31  1  0  0  0  0
 32 31  1  0  0  0  0
 33 36  1  6  0  0  0
 33 32  1  0  0  0  0
 34 35  1  0  0  0  0
 35 33  1  0  0  0  0
 37 43  1  0  0  0  0
 39 40  1  0  0  0  0
 39 37  1  0  0  0  0
 40 38  1  6  0  0  0
 40 41  1  0  0  0  0
 41 43  1  0  0  0  0
 41 36  1  1  0  0  0
 42 39  1  0  0  0  0
 44 39  1  0  0  0  0
 46 45  1  0  0  0  0
 48 47  1  0  0  0  0
 48 46  1  0  0  0  0
M  END
>  <MODEL>
9

>  <REMARK>
 VINA RESULT:      -5.9      2.892      5.948
  Name = 
  19 active torsions:
  status: ('A' for Active; 'I' for Inactive)
    1  A    between atoms: C_1  and  C_12
    2  A    between atoms: C_1  and  C_31
    3  A    between atoms: C_4  and  C_15
    4  A    between atoms: C_4  and  C_16
    5  A    between atoms: N_5  and  N_47
    6  A    between atoms: C_7  and  C_20
    7  A    between atoms: C_7  and  C_45
    8  A    between atoms: C_8  and  C_20
    9  A    between atoms: C_8  and  C_23
   10  A    between atoms: C_8  and  N_47
   11  A    between atoms: C_11  and  C_15
   12  A    between atoms: C_11  and  C_33
   13  A    between atoms: C_12  and  O_27
   14  A    between atoms: C_12  and  C_39
   15  A    between atoms: C_18  and  C_23
   16  A    between atoms: C_18  and  C_34
   17  A    between atoms: C_23  and  O_41
   18  A    between atoms: C_39  and  C_46
   19  A    between atoms: O_41  and  C_46
                            x       y       z     vdW  Elec       q    Type
                         _______ _______ _______ _____ _____    ______ ____

>  <TORSDO>
F 19

$$$$
