=
 OpenBabel11062419423D

 30 32  0  0  1  0  0  0  0  0999 V2000
  190.3580  177.3300  145.1980 C   0  0  0  0  0  0  0  0  0  0  0  0
  189.6090  177.5010  146.2920 C   0  0  0  0  0  3  0  0  0  0  0  0
  190.1400  176.9700  147.5920 C   0  0  0  0  0  2  0  0  0  0  0  0
  192.0400  176.3880  143.8070 C   0  0  0  0  0  2  0  0  0  0  0  0
  191.5400  175.3150  146.1280 C   0  0  1  0  0  0  0  0  0  0  0  0
  190.8350  174.2160  145.3340 C   0  0  0  0  0  1  0  0  0  0  0  0
  191.6510  176.6070  145.2660 C   0  0  2  0  0  3  0  0  0  0  0  0
  190.6950  175.5450  147.4160 C   0  0  0  0  0  2  0  0  0  0  0  0
  191.1900  177.3580  142.9800 C   0  0  0  0  0  2  0  0  0  0  0  0
  189.9760  177.7420  143.8240 C   0  0  1  0  0  3  0  0  0  0  0  0
  192.9600  174.8350  146.4970 C   0  0  1  0  0  3  0  0  0  0  0  0
  193.4600  173.7140  145.6020 C   0  0  0  0  0  2  0  0  0  0  0  0
  194.9650  173.8610  145.5910 C   0  0  2  0  0  3  0  0  0  0  0  0
  195.2300  175.3450  145.7410 C   0  0  0  0  0  2  0  0  0  0  0  0
  194.0160  175.9350  146.4350 C   0  0  0  0  0  2  0  0  0  0  0  0
  195.5500  173.3600  144.2830 C   0  0  0  0  0  2  0  0  0  0  0  0
  194.7630  173.9090  143.1070 C   0  0  0  0  0  1  0  0  0  0  0  0
  188.7740  175.7620  143.1890 O   0  0  0  0  0  0  0  0  0  0  0  0
  188.7500  177.0120  143.3620 C   0  0  0  0  0  0  0  0  0  0  0  0
  187.5420  177.7440  143.1680 N   0  0  0  0  0  2  0  0  0  0  0  0
  186.3020  177.0970  142.7750 C   0  0  0  0  0  2  0  0  0  0  0  0
  185.3180  178.1300  142.2530 C   0  0  0  0  0  2  0  0  0  0  0  0
  184.1480  178.3100  143.2120 C   0  0  0  0  0  2  0  0  0  0  0  0
  184.5390  179.1100  144.4150 C   0  0  0  0  0  0  0  0  0  0  0  0
  185.2440  180.0990  144.2960 O   0  0  0  0  0  0  0  0  0  0  0  0
  184.1250  178.6520  145.7750 C   0  0  0  0  0  2  0  0  0  0  0  0
  185.1370  176.5140  146.0260 O   0  0  0  0  0  0  0  0  0  0  0  0
  185.1520  177.7300  146.3530 C   0  0  0  0  0  0  0  0  0  0  0  0
  186.1190  179.5050  147.7700 C   0  0  0  0  0  1  0  0  0  0  0  0
  186.1100  178.1780  147.2640 O   0  0  0  0  0  0  0  0  0  0  0  0
  1  7  1  0  0  0  0
  1  2  2  0  0  0  0
  2  3  1  0  0  0  0
  5  6  1  6  0  0  0
  5 11  1  0  0  0  0
  5  8  1  0  0  0  0
  7  4  1  6  0  0  0
  7  5  1  0  0  0  0
  8  3  1  0  0  0  0
  9  4  1  0  0  0  0
  9 10  1  0  0  0  0
 10 19  1  6  0  0  0
 10  1  1  0  0  0  0
 11 12  1  6  0  0  0
 13 16  1  6  0  0  0
 13 12  1  0  0  0  0
 13 14  1  0  0  0  0
 14 15  1  0  0  0  0
 15 11  1  0  0  0  0
 17 16  1  0  0  0  0
 18 19  2  0  0  0  0
 20 19  1  0  0  0  0
 21 20  1  0  0  0  0
 22 21  1  0  0  0  0
 22 23  1  0  0  0  0
 23 24  1  0  0  0  0
 24 26  1  0  0  0  0
 25 24  2  0  0  0  0
 26 28  1  0  0  0  0
 27 28  2  0  0  0  0
 28 30  1  0  0  0  0
 30 29  1  0  0  0  0
M  END
>  <MODEL>
1

>  <REMARK>
 VINA RESULT:      -7.0      0.000      0.000
  Name = 
  10 active torsions:
  status: ('A' for Active; 'I' for Inactive)
    1  A    between atoms: C_1  and  C_3
    2  A    between atoms: C_1  and  C_24
    3  A    between atoms: C_3  and  C_26
    4  A    between atoms: C_4  and  C_13
    5  A    between atoms: C_4  and  C_24
    6  A    between atoms: C_6  and  C_17
    7  A    between atoms: C_11  and  C_19
    8  A    between atoms: C_13  and  N_30
    9  A    between atoms: C_18  and  C_29
   10  A    between atoms: O_23  and  C_26
                            x       y       z     vdW  Elec       q    Type
                         _______ _______ _______ _____ _____    ______ ____

>  <TORSDO>
F 10

$$$$
=
 OpenBabel11062419423D

 30 32  0  0  1  0  0  0  0  0999 V2000
  191.0360  177.0780  144.4940 C   0  0  0  0  0  0  0  0  0  0  0  0
  190.9230  177.3270  143.1860 C   0  0  0  0  0  3  0  0  0  0  0  0
  189.6680  177.9980  142.7080 C   0  0  0  0  0  2  0  0  0  0  0  0
  190.3310  176.7390  146.7390 C   0  0  0  0  0  2  0  0  0  0  0  0
  188.5490  177.0170  144.8590 C   0  0  1  0  0  0  0  0  0  0  0  0
  188.3470  175.5080  144.9940 C   0  0  0  0  0  1  0  0  0  0  0  0
  189.9400  177.4220  145.4320 C   0  0  2  0  0  3  0  0  0  0  0  0
  188.4250  177.3500  143.3430 C   0  0  0  0  0  2  0  0  0  0  0  0
  191.8220  176.4050  146.6250 C   0  0  0  0  0  2  0  0  0  0  0  0
  192.1770  176.3820  145.1400 C   0  0  1  0  0  3  0  0  0  0  0  0
  187.4470  177.7440  145.6590 C   0  0  1  0  0  3  0  0  0  0  0  0
  186.5440  178.5990  144.7850 C   0  0  0  0  0  2  0  0  0  0  0  0
  185.2140  178.6280  145.5050 C   0  0  2  0  0  3  0  0  0  0  0  0
  185.1080  177.2960  146.2190 C   0  0  0  0  0  2  0  0  0  0  0  0
  186.5270  176.8030  146.4330 C   0  0  0  0  0  2  0  0  0  0  0  0
  184.0680  178.7830  144.5220 C   0  0  0  0  0  2  0  0  0  0  0  0
  184.5140  178.3910  143.1250 C   0  0  0  0  0  1  0  0  0  0  0  0
  193.2840  174.6280  143.9280 O   0  0  0  0  0  0  0  0  0  0  0  0
  192.3020  174.9730  144.6410 C   0  0  0  0  0  0  0  0  0  0  0  0
  191.3180  174.0150  145.0240 N   0  0  0  0  0  2  0  0  0  0  0  0
  191.4010  172.6200  144.6250 C   0  0  0  0  0  2  0  0  0  0  0  0
  190.0080  172.0530  144.4160 C   0  0  0  0  0  2  0  0  0  0  0  0
  189.7520  171.7480  142.9460 C   0  0  0  0  0  2  0  0  0  0  0  0
  188.8930  172.7940  142.3070 C   0  0  0  0  0  0  0  0  0  0  0  0
  187.6950  172.6080  142.1670 O   0  0  0  0  0  0  0  0  0  0  0  0
  189.5190  174.0400  141.7690 C   0  0  0  0  0  2  0  0  0  0  0  0
  188.0000  175.3840  140.5260 O   0  0  0  0  0  0  0  0  0  0  0  0
  188.8500  174.4560  140.4960 C   0  0  0  0  0  0  0  0  0  0  0  0
  188.2330  173.8680  138.1790 C   0  0  0  0  0  1  0  0  0  0  0  0
  189.1260  173.8220  139.2830 O   0  0  0  0  0  0  0  0  0  0  0  0
  1 10  1  0  0  0  0
  1  7  1  0  0  0  0
  2  1  2  0  0  0  0
  3  2  1  0  0  0  0
  3  8  1  0  0  0  0
  5  6  1  1  0  0  0
  5  7  1  0  0  0  0
  5 11  1  0  0  0  0
  7  4  1  1  0  0  0
  8  5  1  0  0  0  0
  9  4  1  0  0  0  0
 10 19  1  6  0  0  0
 10  9  1  0  0  0  0
 11 12  1  6  0  0  0
 11 15  1  0  0  0  0
 12 13  1  0  0  0  0
 13 16  1  6  0  0  0
 13 14  1  0  0  0  0
 14 15  1  0  0  0  0
 17 16  1  0  0  0  0
 18 19  2  0  0  0  0
 19 20  1  0  0  0  0
 21 20  1  0  0  0  0
 22 21  1  0  0  0  0
 23 22  1  0  0  0  0
 24 23  1  0  0  0  0
 25 24  2  0  0  0  0
 26 24  1  0  0  0  0
 28 27  2  0  0  0  0
 28 26  1  0  0  0  0
 29 30  1  0  0  0  0
 30 28  1  0  0  0  0
M  END
>  <MODEL>
2

>  <REMARK>
 VINA RESULT:      -7.0      2.939      7.249
  Name = 
  10 active torsions:
  status: ('A' for Active; 'I' for Inactive)
    1  A    between atoms: C_1  and  C_3
    2  A    between atoms: C_1  and  C_24
    3  A    between atoms: C_3  and  C_26
    4  A    between atoms: C_4  and  C_13
    5  A    between atoms: C_4  and  C_24
    6  A    between atoms: C_6  and  C_17
    7  A    between atoms: C_11  and  C_19
    8  A    between atoms: C_13  and  N_30
    9  A    between atoms: C_18  and  C_29
   10  A    between atoms: O_23  and  C_26
                            x       y       z     vdW  Elec       q    Type
                         _______ _______ _______ _____ _____    ______ ____

>  <TORSDO>
F 10

$$$$
=
 OpenBabel11062419423D

 30 32  0  0  1  0  0  0  0  0999 V2000
  189.5780  176.9670  142.7850 C   0  0  0  0  0  0  0  0  0  0  0  0
  188.7710  176.3190  141.9400 C   0  0  0  0  0  3  0  0  0  0  0  0
  187.2970  176.3420  142.2250 C   0  0  0  0  0  2  0  0  0  0  0  0
  190.2680  178.0120  144.8060 C   0  0  0  0  0  2  0  0  0  0  0  0
  187.9770  176.7740  144.7140 C   0  0  1  0  0  0  0  0  0  0  0  0
  188.6730  175.6770  145.5160 C   0  0  0  0  0  1  0  0  0  0  0  0
  189.0350  177.6530  143.9820 C   0  0  2  0  0  3  0  0  0  0  0  0
  187.0230  176.0580  143.7130 C   0  0  0  0  0  2  0  0  0  0  0  0
  191.4680  177.9100  143.8590 C   0  0  0  0  0  2  0  0  0  0  0  0
  191.0590  177.0130  142.6920 C   0  0  1  0  0  3  0  0  0  0  0  0
  187.1680  177.6660  145.6800 C   0  0  1  0  0  3  0  0  0  0  0  0
  186.2120  178.6050  144.9630 C   0  0  0  0  0  2  0  0  0  0  0  0
  185.0790  178.8330  145.9390 C   0  0  2  0  0  3  0  0  0  0  0  0
  184.9640  177.5500  146.7360 C   0  0  0  0  0  2  0  0  0  0  0  0
  186.3250  176.8800  146.6810 C   0  0  0  0  0  2  0  0  0  0  0  0
  183.7780  179.1070  145.2070 C   0  0  0  0  0  2  0  0  0  0  0  0
  183.9350  178.8150  143.7260 C   0  0  0  0  0  1  0  0  0  0  0  0
  192.0630  175.0110  141.8250 O   0  0  0  0  0  0  0  0  0  0  0  0
  191.6510  175.6430  142.8360 C   0  0  0  0  0  0  0  0  0  0  0  0
  191.7880  175.0830  144.1410 N   0  0  0  0  0  2  0  0  0  0  0  0
  192.4020  173.7850  144.3640 C   0  0  0  0  0  2  0  0  0  0  0  0
  193.0320  173.7370  145.7440 C   0  0  0  0  0  2  0  0  0  0  0  0
  193.2170  175.1360  146.3150 C   0  0  0  0  0  2  0  0  0  0  0  0
  194.5870  175.6700  146.0360 C   0  0  0  0  0  0  0  0  0  0  0  0
  194.7740  176.8730  145.9460 O   0  0  0  0  0  0  0  0  0  0  0  0
  195.7150  174.7220  145.7900 C   0  0  0  0  0  2  0  0  0  0  0  0
  197.5020  174.9940  144.2430 O   0  0  0  0  0  0  0  0  0  0  0  0
  196.2570  174.8990  144.4060 C   0  0  0  0  0  0  0  0  0  0  0  0
  195.4200  176.1060  142.4220 C   0  0  0  0  0  1  0  0  0  0  0  0
  195.4150  174.9860  143.2950 O   0  0  0  0  0  0  0  0  0  0  0  0
  1  7  1  0  0  0  0
  2  3  1  0  0  0  0
  2  1  2  0  0  0  0
  3  8  1  0  0  0  0
  5  6  1  1  0  0  0
  5 11  1  0  0  0  0
  7  5  1  0  0  0  0
  7  4  1  1  0  0  0
  8  5  1  0  0  0  0
  9  4  1  0  0  0  0
 10  1  1  0  0  0  0
 10 19  1  1  0  0  0
 10  9  1  0  0  0  0
 11 12  1  6  0  0  0
 11 15  1  0  0  0  0
 12 13  1  0  0  0  0
 13 16  1  6  0  0  0
 13 14  1  0  0  0  0
 15 14  1  0  0  0  0
 17 16  1  0  0  0  0
 18 19  2  0  0  0  0
 19 20  1  0  0  0  0
 20 21  1  0  0  0  0
 21 22  1  0  0  0  0
 22 23  1  0  0  0  0
 24 23  1  0  0  0  0
 25 24  2  0  0  0  0
 26 24  1  0  0  0  0
 27 28  2  0  0  0  0
 28 26  1  0  0  0  0
 29 30  1  0  0  0  0
 30 28  1  0  0  0  0
M  END
>  <MODEL>
3

>  <REMARK>
 VINA RESULT:      -7.0      3.257      8.284
  Name = 
  10 active torsions:
  status: ('A' for Active; 'I' for Inactive)
    1  A    between atoms: C_1  and  C_3
    2  A    between atoms: C_1  and  C_24
    3  A    between atoms: C_3  and  C_26
    4  A    between atoms: C_4  and  C_13
    5  A    between atoms: C_4  and  C_24
    6  A    between atoms: C_6  and  C_17
    7  A    between atoms: C_11  and  C_19
    8  A    between atoms: C_13  and  N_30
    9  A    between atoms: C_18  and  C_29
   10  A    between atoms: O_23  and  C_26
                            x       y       z     vdW  Elec       q    Type
                         _______ _______ _______ _____ _____    ______ ____

>  <TORSDO>
F 10

$$$$
=
 OpenBabel11062419423D

 30 32  0  0  1  0  0  0  0  0999 V2000
  191.1980  174.8380  146.2320 C   0  0  0  0  0  0  0  0  0  0  0  0
  190.7990  173.9390  145.3280 C   0  0  0  0  0  3  0  0  0  0  0  0
  191.8330  173.3820  144.3930 C   0  0  0  0  0  2  0  0  0  0  0  0
  192.5870  176.4880  147.2320 C   0  0  0  0  0  2  0  0  0  0  0  0
  193.1670  175.5840  144.8580 C   0  0  1  0  0  0  0  0  0  0  0  0
  192.6310  176.9210  144.3500 C   0  0  0  0  0  1  0  0  0  0  0  0
  192.6080  175.2940  146.2830 C   0  0  2  0  0  3  0  0  0  0  0  0
  192.7220  174.5050  143.8280 C   0  0  0  0  0  2  0  0  0  0  0  0
  191.2720  176.3990  148.0130 C   0  0  0  0  0  2  0  0  0  0  0  0
  190.3120  175.5300  147.2020 C   0  0  1  0  0  3  0  0  0  0  0  0
  194.7070  175.6540  144.9290 C   0  0  1  0  0  3  0  0  0  0  0  0
  195.3040  174.6500  145.9010 C   0  0  0  0  0  2  0  0  0  0  0  0
  196.6810  174.3460  145.3560 C   0  0  2  0  0  3  0  0  0  0  0  0
  196.5630  174.4790  143.8520 C   0  0  0  0  0  2  0  0  0  0  0  0
  195.3950  175.4130  143.5890 C   0  0  0  0  0  2  0  0  0  0  0  0
  197.1110  172.9370  145.7200 C   0  0  0  0  0  2  0  0  0  0  0  0
  195.9340  171.9840  145.6230 C   0  0  0  0  0  1  0  0  0  0  0  0
  189.6290  177.4540  145.9360 O   0  0  0  0  0  0  0  0  0  0  0  0
  189.2930  176.3740  146.4950 C   0  0  0  0  0  0  0  0  0  0  0  0
  187.9460  175.9120  146.4220 N   0  0  0  0  0  2  0  0  0  0  0  0
  186.9150  176.6470  145.7090 C   0  0  0  0  0  2  0  0  0  0  0  0
  185.9610  177.2990  146.6940 C   0  0  0  0  0  2  0  0  0  0  0  0
  185.8900  178.8050  146.4790 C   0  0  0  0  0  2  0  0  0  0  0  0
  184.8180  179.1730  145.5020 C   0  0  0  0  0  0  0  0  0  0  0  0
  183.6600  178.8440  145.7030 O   0  0  0  0  0  0  0  0  0  0  0  0
  185.1810  179.8810  144.2370 C   0  0  0  0  0  2  0  0  0  0  0  0
  184.5120  178.1340  142.7670 O   0  0  0  0  0  0  0  0  0  0  0  0
  185.4420  178.8960  143.1410 C   0  0  0  0  0  0  0  0  0  0  0  0
  186.9740  177.8320  141.5230 C   0  0  0  0  0  1  0  0  0  0  0  0
  186.6990  178.7820  142.5420 O   0  0  0  0  0  0  0  0  0  0  0  0
  1  7  1  0  0  0  0
  1 10  1  0  0  0  0
  2  1  2  0  0  0  0
  3  2  1  0  0  0  0
  4  9  1  0  0  0  0
  5  6  1  6  0  0  0
  5 11  1  0  0  0  0
  5  7  1  0  0  0  0
  7  4  1  1  0  0  0
  8  3  1  0  0  0  0
  8  5  1  0  0  0  0
 10 19  1  6  0  0  0
 10  9  1  0  0  0  0
 11 15  1  6  0  0  0
 11 12  1  0  0  0  0
 13 16  1  6  0  0  0
 13 12  1  0  0  0  0
 14 13  1  0  0  0  0
 15 14  1  0  0  0  0
 17 16  1  0  0  0  0
 18 19  2  0  0  0  0
 20 19  1  0  0  0  0
 21 20  1  0  0  0  0
 21 22  1  0  0  0  0
 23 22  1  0  0  0  0
 24 25  2  0  0  0  0
 24 23  1  0  0  0  0
 26 24  1  0  0  0  0
 27 28  2  0  0  0  0
 28 26  1  0  0  0  0
 29 30  1  0  0  0  0
 30 28  1  0  0  0  0
M  END
>  <MODEL>
4

>  <REMARK>
 VINA RESULT:      -6.9      1.842      3.514
  Name = 
  10 active torsions:
  status: ('A' for Active; 'I' for Inactive)
    1  A    between atoms: C_1  and  C_3
    2  A    between atoms: C_1  and  C_24
    3  A    between atoms: C_3  and  C_26
    4  A    between atoms: C_4  and  C_13
    5  A    between atoms: C_4  and  C_24
    6  A    between atoms: C_6  and  C_17
    7  A    between atoms: C_11  and  C_19
    8  A    between atoms: C_13  and  N_30
    9  A    between atoms: C_18  and  C_29
   10  A    between atoms: O_23  and  C_26
                            x       y       z     vdW  Elec       q    Type
                         _______ _______ _______ _____ _____    ______ ____

>  <TORSDO>
F 10

$$$$
=
 OpenBabel11062419423D

 30 32  0  0  1  0  0  0  0  0999 V2000
  190.1820  174.5860  145.2420 C   0  0  0  0  0  0  0  0  0  0  0  0
  190.1130  174.4640  146.5710 C   0  0  0  0  0  3  0  0  0  0  0  0
  188.8610  174.9340  147.2530 C   0  0  0  0  0  2  0  0  0  0  0  0
  189.6420  175.4050  143.0760 C   0  0  0  0  0  2  0  0  0  0  0  0
  188.5370  176.4870  145.1730 C   0  0  1  0  0  0  0  0  0  0  0  0
  189.4990  177.6490  144.9320 C   0  0  0  0  0  1  0  0  0  0  0  0
  189.0700  175.2000  144.4760 C   0  0  2  0  0  3  0  0  0  0  0  0
  188.4290  176.3100  146.7170 C   0  0  0  0  0  2  0  0  0  0  0  0
  190.8870  174.5170  142.9810 C   0  0  0  0  0  2  0  0  0  0  0  0
  191.3530  174.2230  144.4060 C   0  0  1  0  0  3  0  0  0  0  0  0
  187.1580  176.8440  144.5780 C   0  0  1  0  0  3  0  0  0  0  0  0
  186.0360  176.7880  145.6010 C   0  0  0  0  0  2  0  0  0  0  0  0
  185.0090  177.7860  145.1130 C   0  0  2  0  0  3  0  0  0  0  0  0
  185.7980  178.8700  144.4100 C   0  0  0  0  0  2  0  0  0  0  0  0
  187.1000  178.2370  143.9560 C   0  0  0  0  0  2  0  0  0  0  0  0
  184.2340  178.3790  146.2760 C   0  0  0  0  0  2  0  0  0  0  0  0
  185.1490  178.5880  147.4690 C   0  0  0  0  0  1  0  0  0  0  0  0
  192.6530  176.2430  144.3420 O   0  0  0  0  0  0  0  0  0  0  0  0
  192.5490  175.0570  144.7610 C   0  0  0  0  0  0  0  0  0  0  0  0
  193.5440  174.5060  145.6200 N   0  0  0  0  0  2  0  0  0  0  0  0
  194.7020  175.2710  146.0510 C   0  0  0  0  0  2  0  0  0  0  0  0
  195.9480  174.7790  145.3360 C   0  0  0  0  0  2  0  0  0  0  0  0
  196.7120  173.7740  146.1880 C   0  0  0  0  0  2  0  0  0  0  0  0
  196.8230  172.4460  145.5080 C   0  0  0  0  0  0  0  0  0  0  0  0
  197.7630  172.2080  144.7670 O   0  0  0  0  0  0  0  0  0  0  0  0
  195.7370  171.4330  145.6780 C   0  0  0  0  0  2  0  0  0  0  0  0
  195.5290  169.9720  143.8120 O   0  0  0  0  0  0  0  0  0  0  0  0
  195.1640  171.0510  144.3490 C   0  0  0  0  0  0  0  0  0  0  0  0
  194.6300  172.6770  142.5690 C   0  0  0  0  0  1  0  0  0  0  0  0
  194.2560  171.8730  143.6780 O   0  0  0  0  0  0  0  0  0  0  0  0
  1  2  2  0  0  0  0
  2  3  1  0  0  0  0
  5  6  1  6  0  0  0
  5  8  1  0  0  0  0
  7  4  1  6  0  0  0
  7  5  1  0  0  0  0
  7  1  1  0  0  0  0
  8  3  1  0  0  0  0
  9  4  1  0  0  0  0
  9 10  1  0  0  0  0
 10 19  1  1  0  0  0
 10  1  1  0  0  0  0
 11 15  1  1  0  0  0
 11  5  1  0  0  0  0
 11 12  1  0  0  0  0
 13 12  1  0  0  0  0
 13 16  1  1  0  0  0
 14 13  1  0  0  0  0
 15 14  1  0  0  0  0
 16 17  1  0  0  0  0
 18 19  2  0  0  0  0
 19 20  1  0  0  0  0
 20 21  1  0  0  0  0
 22 21  1  0  0  0  0
 22 23  1  0  0  0  0
 24 26  1  0  0  0  0
 24 23  1  0  0  0  0
 25 24  2  0  0  0  0
 27 28  2  0  0  0  0
 28 26  1  0  0  0  0
 29 30  1  0  0  0  0
 30 28  1  0  0  0  0
M  END
>  <MODEL>
5

>  <REMARK>
 VINA RESULT:      -6.8      3.456      9.008
  Name = 
  10 active torsions:
  status: ('A' for Active; 'I' for Inactive)
    1  A    between atoms: C_1  and  C_3
    2  A    between atoms: C_1  and  C_24
    3  A    between atoms: C_3  and  C_26
    4  A    between atoms: C_4  and  C_13
    5  A    between atoms: C_4  and  C_24
    6  A    between atoms: C_6  and  C_17
    7  A    between atoms: C_11  and  C_19
    8  A    between atoms: C_13  and  N_30
    9  A    between atoms: C_18  and  C_29
   10  A    between atoms: O_23  and  C_26
                            x       y       z     vdW  Elec       q    Type
                         _______ _______ _______ _____ _____    ______ ____

>  <TORSDO>
F 10

$$$$
=
 OpenBabel11062419423D

 30 32  0  0  1  0  0  0  0  0999 V2000
  190.6640  177.0480  145.7610 C   0  0  0  0  0  0  0  0  0  0  0  0
  190.6280  176.7370  147.0600 C   0  0  0  0  0  3  0  0  0  0  0  0
  191.7690  175.9370  147.6190 C   0  0  0  0  0  2  0  0  0  0  0  0
  191.3120  176.9000  143.4790 C   0  0  0  0  0  2  0  0  0  0  0  0
  192.1300  175.0940  145.1690 C   0  0  1  0  0  0  0  0  0  0  0  0
  191.0920  174.1840  144.5150 C   0  0  0  0  0  1  0  0  0  0  0  0
  191.7780  176.5870  144.8970 C   0  0  2  0  0  3  0  0  0  0  0  0
  192.1200  174.7610  146.6900 C   0  0  0  0  0  2  0  0  0  0  0  0
  190.1650  177.9070  143.6100 C   0  0  0  0  0  2  0  0  0  0  0  0
  189.6060  177.7870  145.0260 C   0  0  1  0  0  3  0  0  0  0  0  0
  193.5170  174.7890  144.5630 C   0  0  1  0  0  3  0  0  0  0  0  0
  194.4720  174.1500  145.5580 C   0  0  0  0  0  2  0  0  0  0  0  0
  195.4080  173.3090  144.7190 C   0  0  2  0  0  3  0  0  0  0  0  0
  194.5870  172.8450  143.5340 C   0  0  0  0  0  2  0  0  0  0  0  0
  193.4690  173.8560  143.3570 C   0  0  0  0  0  2  0  0  0  0  0  0
  195.9110  172.1110  145.5030 C   0  0  0  0  0  2  0  0  0  0  0  0
  194.7860  171.1180  145.7310 C   0  0  0  0  0  1  0  0  0  0  0  0
  188.1520  176.0320  144.2680 O   0  0  0  0  0  0  0  0  0  0  0  0
  188.3140  177.0250  145.0290 C   0  0  0  0  0  0  0  0  0  0  0  0
  187.2880  177.4100  145.9420 N   0  0  0  0  0  2  0  0  0  0  0  0
  186.0320  176.6860  146.0400 C   0  0  0  0  0  2  0  0  0  0  0  0
  184.8860  177.6580  146.2630 C   0  0  0  0  0  2  0  0  0  0  0  0
  185.2070  179.0300  145.6840 C   0  0  0  0  0  2  0  0  0  0  0  0
  184.7590  179.1470  144.2610 C   0  0  0  0  0  0  0  0  0  0  0  0
  183.5710  179.1220  143.9840 O   0  0  0  0  0  0  0  0  0  0  0  0
  185.7760  179.2190  143.1690 C   0  0  0  0  0  2  0  0  0  0  0  0
  185.7380  176.9710  142.3880 O   0  0  0  0  0  0  0  0  0  0  0  0
  185.5000  178.1800  142.1270 C   0  0  0  0  0  0  0  0  0  0  0  0
  183.6680  178.2690  140.4750 C   0  0  0  0  0  1  0  0  0  0  0  0
  185.0100  178.5200  140.8640 O   0  0  0  0  0  0  0  0  0  0  0  0
  1  2  2  0  0  0  0
  2  3  1  0  0  0  0
  4  9  1  0  0  0  0
  5  6  1  6  0  0  0
  5  8  1  0  0  0  0
  7  4  1  6  0  0  0
  7  5  1  0  0  0  0
  7  1  1  0  0  0  0
  8  3  1  0  0  0  0
  9 10  1  0  0  0  0
 10 19  1  6  0  0  0
 10  1  1  0  0  0  0
 11 15  1  6  0  0  0
 11  5  1  0  0  0  0
 11 12  1  0  0  0  0
 13 16  1  1  0  0  0
 13 12  1  0  0  0  0
 14 13  1  0  0  0  0
 15 14  1  0  0  0  0
 16 17  1  0  0  0  0
 18 19  2  0  0  0  0
 19 20  1  0  0  0  0
 20 21  1  0  0  0  0
 21 22  1  0  0  0  0
 23 22  1  0  0  0  0
 24 23  1  0  0  0  0
 25 24  2  0  0  0  0
 26 24  1  0  0  0  0
 28 27  2  0  0  0  0
 28 26  1  0  0  0  0
 29 30  1  0  0  0  0
 30 28  1  0  0  0  0
M  END
>  <MODEL>
6

>  <REMARK>
 VINA RESULT:      -6.7      1.602      2.958
  Name = 
  10 active torsions:
  status: ('A' for Active; 'I' for Inactive)
    1  A    between atoms: C_1  and  C_3
    2  A    between atoms: C_1  and  C_24
    3  A    between atoms: C_3  and  C_26
    4  A    between atoms: C_4  and  C_13
    5  A    between atoms: C_4  and  C_24
    6  A    between atoms: C_6  and  C_17
    7  A    between atoms: C_11  and  C_19
    8  A    between atoms: C_13  and  N_30
    9  A    between atoms: C_18  and  C_29
   10  A    between atoms: O_23  and  C_26
                            x       y       z     vdW  Elec       q    Type
                         _______ _______ _______ _____ _____    ______ ____

>  <TORSDO>
F 10

$$$$
=
 OpenBabel11062419423D

 30 32  0  0  1  0  0  0  0  0999 V2000
  189.3340  176.5750  142.4510 C   0  0  0  0  0  0  0  0  0  0  0  0
  189.5770  177.8810  142.5930 C   0  0  0  0  0  3  0  0  0  0  0  0
  190.6430  178.2910  143.5690 C   0  0  0  0  0  2  0  0  0  0  0  0
  189.3210  174.2640  143.0090 C   0  0  0  0  0  2  0  0  0  0  0  0
  190.1770  176.0040  144.7500 C   0  0  1  0  0  0  0  0  0  0  0  0
  188.8440  175.7700  145.4600 C   0  0  0  0  0  1  0  0  0  0  0  0
  190.0690  175.5700  143.2570 C   0  0  2  0  0  3  0  0  0  0  0  0
  190.4980  177.5210  144.8930 C   0  0  0  0  0  2  0  0  0  0  0  0
  188.4720  174.4810  141.7530 C   0  0  0  0  0  2  0  0  0  0  0  0
  188.2900  175.9870  141.5740 C   0  0  1  0  0  3  0  0  0  0  0  0
  191.2680  175.1580  145.4390 C   0  0  1  0  0  3  0  0  0  0  0  0
  192.5500  175.0670  144.6290 C   0  0  0  0  0  2  0  0  0  0  0  0
  193.6490  174.8800  145.6510 C   0  0  2  0  0  3  0  0  0  0  0  0
  193.1840  175.6200  146.8880 C   0  0  0  0  0  2  0  0  0  0  0  0
  191.6690  175.6770  146.8170 C   0  0  0  0  0  2  0  0  0  0  0  0
  194.9570  175.4680  145.1550 C   0  0  0  0  0  2  0  0  0  0  0  0
  194.7140  176.3550  143.9480 C   0  0  0  0  0  1  0  0  0  0  0  0
  186.3490  175.8570  142.9840 O   0  0  0  0  0  0  0  0  0  0  0  0
  186.9190  176.4160  142.0060 C   0  0  0  0  0  0  0  0  0  0  0  0
  186.2870  177.4980  141.3260 N   0  0  0  0  0  2  0  0  0  0  0  0
  184.9850  178.0040  141.7220 C   0  0  0  0  0  2  0  0  0  0  0  0
  185.1370  179.0080  142.8520 C   0  0  0  0  0  2  0  0  0  0  0  0
  184.0590  178.8130  143.9100 C   0  0  0  0  0  2  0  0  0  0  0  0
  184.6420  178.7490  145.2870 C   0  0  0  0  0  0  0  0  0  0  0  0
  183.9630  179.0400  146.2590 O   0  0  0  0  0  0  0  0  0  0  0  0
  186.0840  178.4000  145.4650 C   0  0  0  0  0  2  0  0  0  0  0  0
  185.7710  176.5790  146.9640 O   0  0  0  0  0  0  0  0  0  0  0  0
  186.2980  177.7070  146.7740 C   0  0  0  0  0  0  0  0  0  0  0  0
  186.6930  179.5360  148.3850 C   0  0  0  0  0  1  0  0  0  0  0  0
  187.0450  178.2910  147.7990 O   0  0  0  0  0  0  0  0  0  0  0  0
  1  2  2  0  0  0  0
  1  7  1  0  0  0  0
  2  3  1  0  0  0  0
  3  8  1  0  0  0  0
  5  8  1  0  0  0  0
  5 11  1  0  0  0  0
  5  6  1  1  0  0  0
  7  4  1  1  0  0  0
  7  5  1  0  0  0  0
  9  4  1  0  0  0  0
 10  9  1  0  0  0  0
 10 19  1  1  0  0  0
 10  1  1  0  0  0  0
 11 12  1  6  0  0  0
 11 15  1  0  0  0  0
 12 13  1  0  0  0  0
 13 16  1  6  0  0  0
 13 14  1  0  0  0  0
 15 14  1  0  0  0  0
 17 16  1  0  0  0  0
 19 18  2  0  0  0  0
 20 21  1  0  0  0  0
 20 19  1  0  0  0  0
 21 22  1  0  0  0  0
 22 23  1  0  0  0  0
 23 24  1  0  0  0  0
 24 26  1  0  0  0  0
 24 25  2  0  0  0  0
 26 28  1  0  0  0  0
 28 27  2  0  0  0  0
 28 30  1  0  0  0  0
 30 29  1  0  0  0  0
M  END
>  <MODEL>
7

>  <REMARK>
 VINA RESULT:      -6.7      1.574      2.468
  Name = 
  10 active torsions:
  status: ('A' for Active; 'I' for Inactive)
    1  A    between atoms: C_1  and  C_3
    2  A    between atoms: C_1  and  C_24
    3  A    between atoms: C_3  and  C_26
    4  A    between atoms: C_4  and  C_13
    5  A    between atoms: C_4  and  C_24
    6  A    between atoms: C_6  and  C_17
    7  A    between atoms: C_11  and  C_19
    8  A    between atoms: C_13  and  N_30
    9  A    between atoms: C_18  and  C_29
   10  A    between atoms: O_23  and  C_26
                            x       y       z     vdW  Elec       q    Type
                         _______ _______ _______ _____ _____    ______ ____

>  <TORSDO>
F 10

$$$$
=
 OpenBabel11062419423D

 30 32  0  0  1  0  0  0  0  0999 V2000
  190.1780  174.7950  144.8060 C   0  0  0  0  0  0  0  0  0  0  0  0
  190.2170  174.5760  146.1240 C   0  0  0  0  0  3  0  0  0  0  0  0
  188.9970  174.9250  146.9270 C   0  0  0  0  0  2  0  0  0  0  0  0
  189.4360  175.7300  142.7510 C   0  0  0  0  0  2  0  0  0  0  0  0
  188.4370  176.5980  144.9960 C   0  0  1  0  0  0  0  0  0  0  0  0
  189.3170  177.8270  144.7720 C   0  0  0  0  0  1  0  0  0  0  0  0
  188.9820  175.3960  144.1690 C   0  0  2  0  0  3  0  0  0  0  0  0
  188.4550  176.3090  146.5260 C   0  0  0  0  0  2  0  0  0  0  0  0
  190.7140  174.9240  142.5020 C   0  0  0  0  0  2  0  0  0  0  0  0
  191.3010  174.5580  143.8640 C   0  0  1  0  0  3  0  0  0  0  0  0
  187.0010  176.9180  144.5280 C   0  0  1  0  0  3  0  0  0  0  0  0
  185.9720  176.7860  145.6380 C   0  0  0  0  0  2  0  0  0  0  0  0
  184.8710  177.7560  145.2700 C   0  0  2  0  0  3  0  0  0  0  0  0
  185.5560  178.8910  144.5390 C   0  0  0  0  0  2  0  0  0  0  0  0
  186.8390  178.3240  143.9580 C   0  0  0  0  0  2  0  0  0  0  0  0
  184.1740  178.2830  146.5110 C   0  0  0  0  0  2  0  0  0  0  0  0
  185.1950  178.6650  147.5680 C   0  0  0  0  0  1  0  0  0  0  0  0
  192.4780  176.6520  143.8720 O   0  0  0  0  0  0  0  0  0  0  0  0
  192.4750  175.4320  144.1930 C   0  0  0  0  0  0  0  0  0  0  0  0
  193.5690  174.8740  144.9190 N   0  0  0  0  0  2  0  0  0  0  0  0
  194.7150  175.6710  145.3210 C   0  0  0  0  0  2  0  0  0  0  0  0
  196.0000  174.9060  145.0580 C   0  0  0  0  0  2  0  0  0  0  0  0
  196.2780  174.7900  143.5650 C   0  0  0  0  0  2  0  0  0  0  0  0
  196.3260  176.1330  142.9070 C   0  0  0  0  0  0  0  0  0  0  0  0
  197.0470  177.0130  143.3500 O   0  0  0  0  0  0  0  0  0  0  0  0
  195.4290  176.4220  141.7460 C   0  0  0  0  0  2  0  0  0  0  0  0
  197.0530  175.7790  140.1310 O   0  0  0  0  0  0  0  0  0  0  0  0
  195.8690  175.6520  140.5410 C   0  0  0  0  0  0  0  0  0  0  0  0
  193.7620  174.3740  140.3960 C   0  0  0  0  0  1  0  0  0  0  0  0
  194.9920  174.8180  139.8430 O   0  0  0  0  0  0  0  0  0  0  0  0
  1  2  2  0  0  0  0
  2  3  1  0  0  0  0
  5  6  1  6  0  0  0
  5  8  1  0  0  0  0
  7  4  1  6  0  0  0
  7  1  1  0  0  0  0
  7  5  1  0  0  0  0
  8  3  1  0  0  0  0
  9  4  1  0  0  0  0
  9 10  1  0  0  0  0
 10 19  1  1  0  0  0
 10  1  1  0  0  0  0
 11 15  1  1  0  0  0
 11  5  1  0  0  0  0
 11 12  1  0  0  0  0
 13 12  1  0  0  0  0
 13 16  1  1  0  0  0
 14 13  1  0  0  0  0
 15 14  1  0  0  0  0
 16 17  1  0  0  0  0
 18 19  2  0  0  0  0
 19 20  1  0  0  0  0
 20 21  1  0  0  0  0
 22 21  1  0  0  0  0
 23 22  1  0  0  0  0
 24 25  2  0  0  0  0
 24 23  1  0  0  0  0
 26 24  1  0  0  0  0
 27 28  2  0  0  0  0
 28 26  1  0  0  0  0
 30 29  1  0  0  0  0
 30 28  1  0  0  0  0
M  END
>  <MODEL>
8

>  <REMARK>
 VINA RESULT:      -6.7      3.382      8.750
  Name = 
  10 active torsions:
  status: ('A' for Active; 'I' for Inactive)
    1  A    between atoms: C_1  and  C_3
    2  A    between atoms: C_1  and  C_24
    3  A    between atoms: C_3  and  C_26
    4  A    between atoms: C_4  and  C_13
    5  A    between atoms: C_4  and  C_24
    6  A    between atoms: C_6  and  C_17
    7  A    between atoms: C_11  and  C_19
    8  A    between atoms: C_13  and  N_30
    9  A    between atoms: C_18  and  C_29
   10  A    between atoms: O_23  and  C_26
                            x       y       z     vdW  Elec       q    Type
                         _______ _______ _______ _____ _____    ______ ____

>  <TORSDO>
F 10

$$$$
=
 OpenBabel11062419423D

 30 32  0  0  1  0  0  0  0  0999 V2000
  190.9900  174.6870  146.0840 C   0  0  0  0  0  0  0  0  0  0  0  0
  190.6480  173.8090  145.1370 C   0  0  0  0  0  3  0  0  0  0  0  0
  191.6970  173.4170  144.1360 C   0  0  0  0  0  2  0  0  0  0  0  0
  192.2450  176.4060  147.1420 C   0  0  0  0  0  2  0  0  0  0  0  0
  192.8220  175.7100  144.6990 C   0  0  1  0  0  0  0  0  0  0  0  0
  192.1380  177.0150  144.2930 C   0  0  0  0  0  1  0  0  0  0  0  0
  192.3490  175.2800  146.1190 C   0  0  2  0  0  3  0  0  0  0  0  0
  192.4470  174.6560  143.6160 C   0  0  0  0  0  2  0  0  0  0  0  0
  190.9750  176.1380  147.9570 C   0  0  0  0  0  2  0  0  0  0  0  0
  190.0770  175.2270  147.1230 C   0  0  1  0  0  3  0  0  0  0  0  0
  194.3490  175.9320  144.7250 C   0  0  1  0  0  3  0  0  0  0  0  0
  195.1000  174.8090  145.4210 C   0  0  0  0  0  2  0  0  0  0  0  0
  196.4650  174.7870  144.7700 C   0  0  2  0  0  3  0  0  0  0  0  0
  196.2420  175.2360  143.3410 C   0  0  0  0  0  2  0  0  0  0  0  0
  194.9740  176.0700  143.3400 C   0  0  0  0  0  2  0  0  0  0  0  0
  197.0530  173.3870  144.7890 C   0  0  0  0  0  2  0  0  0  0  0  0
  196.8160  172.7330  146.1380 C   0  0  0  0  0  1  0  0  0  0  0  0
  187.8040  175.9990  147.0250 O   0  0  0  0  0  0  0  0  0  0  0  0
  188.9530  176.0040  146.5030 C   0  0  0  0  0  0  0  0  0  0  0  0
  189.2140  176.7880  145.3410 N   0  0  0  0  0  2  0  0  0  0  0  0
  188.1900  177.6090  144.7180 C   0  0  0  0  0  2  0  0  0  0  0  0
  187.6630  176.9260  143.4680 C   0  0  0  0  0  2  0  0  0  0  0  0
  186.1700  176.6460  143.5810 C   0  0  0  0  0  2  0  0  0  0  0  0
  185.3710  177.5400  142.6860 C   0  0  0  0  0  0  0  0  0  0  0  0
  185.6990  177.7010  141.5210 O   0  0  0  0  0  0  0  0  0  0  0  0
  184.2110  178.3000  143.2430 C   0  0  0  0  0  2  0  0  0  0  0  0
  185.5470  180.0360  144.1710 O   0  0  0  0  0  0  0  0  0  0  0  0
  184.6520  179.1740  144.3750 C   0  0  0  0  0  0  0  0  0  0  0  0
  184.4410  177.9550  146.5120 C   0  0  0  0  0  1  0  0  0  0  0  0
  184.1130  179.0410  145.6570 O   0  0  0  0  0  0  0  0  0  0  0  0
  1  7  1  0  0  0  0
  1 10  1  0  0  0  0
  2  1  2  0  0  0  0
  3  2  1  0  0  0  0
  4  9  1  0  0  0  0
  5  6  1  6  0  0  0
  5 11  1  0  0  0  0
  5  7  1  0  0  0  0
  7  4  1  1  0  0  0
  8  3  1  0  0  0  0
  8  5  1  0  0  0  0
 10 19  1  6  0  0  0
 10  9  1  0  0  0  0
 11 15  1  6  0  0  0
 11 12  1  0  0  0  0
 13 16  1  6  0  0  0
 13 12  1  0  0  0  0
 14 13  1  0  0  0  0
 15 14  1  0  0  0  0
 16 17  1  0  0  0  0
 19 18  2  0  0  0  0
 20 19  1  0  0  0  0
 21 20  1  0  0  0  0
 22 23  1  0  0  0  0
 22 21  1  0  0  0  0
 24 26  1  0  0  0  0
 24 23  1  0  0  0  0
 25 24  2  0  0  0  0
 26 28  1  0  0  0  0
 27 28  2  0  0  0  0
 28 30  1  0  0  0  0
 30 29  1  0  0  0  0
M  END
>  <MODEL>
9

>  <REMARK>
 VINA RESULT:      -6.6      1.677      3.220
  Name = 
  10 active torsions:
  status: ('A' for Active; 'I' for Inactive)
    1  A    between atoms: C_1  and  C_3
    2  A    between atoms: C_1  and  C_24
    3  A    between atoms: C_3  and  C_26
    4  A    between atoms: C_4  and  C_13
    5  A    between atoms: C_4  and  C_24
    6  A    between atoms: C_6  and  C_17
    7  A    between atoms: C_11  and  C_19
    8  A    between atoms: C_13  and  N_30
    9  A    between atoms: C_18  and  C_29
   10  A    between atoms: O_23  and  C_26
                            x       y       z     vdW  Elec       q    Type
                         _______ _______ _______ _____ _____    ______ ____

>  <TORSDO>
F 10

$$$$
