=
 OpenBabel11072408473D

 36 40  0  0  1  0  0  0  0  0999 V2000
  189.9190  177.2770  145.6420 C   0  0  1  0  0  3  0  0  0  0  0  0
  193.3470  171.8110  144.5550 C   0  0  0  0  0  1  0  0  0  0  0  0
  191.1230  172.9220  144.7390 C   0  0  0  0  0  2  0  0  0  0  0  0
  193.7940  175.2530  144.3440 C   0  0  2  0  0  3  0  0  0  0  0  0
  193.7500  174.8570  145.8110 C   0  0  1  0  0  3  0  0  0  0  0  0
  190.4120  175.5250  141.8780 O   0  0  0  0  0  1  0  0  0  0  0  0
  187.5310  174.8350  141.8670 C   0  0  0  0  0  2  0  0  0  0  0  0
  193.1110  174.1190  143.7270 C   0  0  0  0  0  0  0  0  0  0  0  0
  191.0550  176.7750  147.6680 N   0  0  0  0  0  0  0  0  0  0  0  0
  189.3890  173.8400  143.2800 C   0  0  1  0  0  3  0  0  0  0  0  0
  188.3080  173.5590  142.2350 C   0  0  0  0  0  2  0  0  0  0  0  0
  189.8050  177.3240  147.1680 C   0  0  0  0  0  3  0  0  0  0  0  0
  190.4810  172.7930  143.3610 C   0  0  0  0  0  2  0  0  0  0  0  0
  193.2960  176.0040  146.7220 C   0  0  0  0  0  2  0  0  0  0  0  0
  191.2930  176.7280  145.4090 C   0  0  0  0  0  3  0  0  0  0  0  0
  192.9810  173.9820  142.5190 O   0  0  0  0  0  0  0  0  0  0  0  0
  192.6400  173.1440  144.7470 C   0  0  2  0  0  0  0  0  0  0  0  0
  189.9430  175.2610  143.1680 C   0  0  2  0  0  3  0  0  0  0  0  0
  187.4330  175.8350  143.0470 C   0  0  1  0  0  3  0  0  0  0  0  0
  192.9830  173.6770  146.0100 O   0  0  0  0  0  0  0  0  0  0  0  0
  188.8250  176.3650  145.0840 C   0  0  0  0  0  2  0  0  0  0  0  0
  188.8450  176.2570  143.5580 C   0  0  1  0  0  3  0  0  0  0  0  0
  191.8650  176.4340  146.5610 C   0  0  0  0  0  0  0  0  0  0  0  0
  196.2090  174.6150  144.4540 C   0  0  0  0  0  3  0  0  0  0  0  0
  196.8850  176.4450  142.4500 C   0  0  0  0  0  3  0  0  0  0  0  0
  197.5410  174.7520  144.0510 C   0  0  0  0  0  3  0  0  0  0  0  0
  197.8780  175.6670  143.0490 C   0  0  0  0  0  3  0  0  0  0  0  0
  195.2070  175.3840  143.8530 C   0  0  0  0  0  0  0  0  0  0  0  0
  195.5540  176.3090  142.8520 C   0  0  0  0  0  3  0  0  0  0  0  0
  186.6380  177.0250  142.6810 N   0  0  0  0  0  0  0  0  0  0  0  0
  187.5300  178.1320  142.3420 C   0  0  0  0  0  1  0  0  0  0  0  0
  185.7670  177.4720  143.7800 C   0  0  0  0  0  2  0  0  0  0  0  0
  186.0570  178.9010  144.2450 C   0  0  0  0  0  2  0  0  0  0  0  0
  185.5540  179.1010  145.6620 C   0  0  0  0  0  3  0  0  0  0  0  0
  186.2740  178.2780  146.5280 O   0  0  0  0  0  1  0  0  0  0  0  0
  184.2000  178.7730  145.7360 O   0  0  0  0  0  1  0  0  0  0  0  0
  1 21  1  1  0  0  0
  1 12  1  0  0  0  0
  3 17  1  0  0  0  0
  4 28  1  6  0  0  0
  4  5  1  0  0  0  0
  5 20  1  0  0  0  0
  5 14  1  1  0  0  0
  7 11  1  0  0  0  0
  7 19  1  0  0  0  0
  8  4  1  0  0  0  0
  8 17  1  0  0  0  0
 10 11  1  6  0  0  0
 10 13  1  0  0  0  0
 12  9  2  0  0  0  0
 13  3  1  0  0  0  0
 15  1  1  0  0  0  0
 15 23  2  0  0  0  0
 16  8  2  0  0  0  0
 17  2  1  6  0  0  0
 17 20  1  0  0  0  0
 18  6  1  6  0  0  0
 18 10  1  0  0  0  0
 18 22  1  0  0  0  0
 19 30  1  6  0  0  0
 19 22  1  0  0  0  0
 22 21  1  1  0  0  0
 23 14  1  0  0  0  0
 23  9  1  0  0  0  0
 25 29  2  0  0  0  0
 25 27  1  0  0  0  0
 26 24  1  0  0  0  0
 27 26  2  0  0  0  0
 28 24  2  0  0  0  0
 29 28  1  0  0  0  0
 30 32  1  0  0  0  0
 31 30  1  0  0  0  0
 32 33  1  0  0  0  0
 33 34  1  0  0  0  0
 34 36  1  0  0  0  0
 34 35  1  0  0  0  0
M  END
>  <MODEL>
1

>  <REMARK>
 VINA RESULT:      -8.2      0.000      0.000
  Name = 
  5 active torsions:
  status: ('A' for Active; 'I' for Inactive)
    1  A    between atoms: C_2  and  N_3
    2  A    between atoms: C_2  and  C_19
    3  A    between atoms: N_3  and  C_27
    4  A    between atoms: C_6  and  C_29
    5  A    between atoms: C_14  and  C_19
                            x       y       z     vdW  Elec       q    Type
                         _______ _______ _______ _____ _____    ______ ____

>  <TORSDO>
F 5

$$$$
=
 OpenBabel11072408473D

 36 40  0  0  1  0  0  0  0  0999 V2000
  189.9040  177.3130  145.4160 C   0  0  1  0  0  3  0  0  0  0  0  0
  193.4270  171.8360  144.7840 C   0  0  0  0  0  1  0  0  0  0  0  0
  191.1880  172.9310  144.7950 C   0  0  0  0  0  2  0  0  0  0  0  0
  193.8580  175.2680  144.4280 C   0  0  2  0  0  3  0  0  0  0  0  0
  193.7380  174.9440  145.9080 C   0  0  1  0  0  3  0  0  0  0  0  0
  190.6110  175.3840  141.7750 O   0  0  0  0  0  1  0  0  0  0  0  0
  187.7410  174.6650  141.6440 C   0  0  0  0  0  2  0  0  0  0  0  0
  193.2180  174.0980  143.8330 C   0  0  0  0  0  0  0  0  0  0  0  0
  190.9330  176.9220  147.5220 N   0  0  0  0  0  0  0  0  0  0  0  0
  189.5280  173.7590  143.2020 C   0  0  1  0  0  3  0  0  0  0  0  0
  188.5070  173.4160  142.1160 C   0  0  0  0  0  2  0  0  0  0  0  0
  189.7070  177.4330  146.9290 C   0  0  0  0  0  3  0  0  0  0  0  0
  190.6220  172.7280  143.3920 C   0  0  0  0  0  2  0  0  0  0  0  0
  193.2270  176.1290  146.7360 C   0  0  0  0  0  2  0  0  0  0  0  0
  191.2920  176.7670  145.2840 C   0  0  0  0  0  3  0  0  0  0  0  0
  193.1540  173.9010  142.6270 O   0  0  0  0  0  0  0  0  0  0  0  0
  192.7000  173.1690  144.8720 C   0  0  2  0  0  0  0  0  0  0  0  0
  190.0760  175.1780  143.0500 C   0  0  2  0  0  3  0  0  0  0  0  0
  187.5720  175.7200  142.7670 C   0  0  1  0  0  3  0  0  0  0  0  0
  192.9710  173.7670  146.1240 O   0  0  0  0  0  0  0  0  0  0  0  0
  188.8480  176.3640  144.8470 C   0  0  0  0  0  2  0  0  0  0  0  0
  188.9510  176.1810  143.3310 C   0  0  1  0  0  3  0  0  0  0  0  0
  191.8040  176.5360  146.4780 C   0  0  0  0  0  0  0  0  0  0  0  0
  195.6420  176.3500  143.0510 C   0  0  0  0  0  3  0  0  0  0  0  0
  197.6000  174.6210  144.0520 C   0  0  0  0  0  3  0  0  0  0  0  0
  196.9630  176.4520  142.6030 C   0  0  0  0  0  3  0  0  0  0  0  0
  197.9410  175.5880  143.1040 C   0  0  0  0  0  3  0  0  0  0  0  0
  195.2940  175.3900  144.0070 C   0  0  0  0  0  0  0  0  0  0  0  0
  196.2800  174.5170  144.5000 C   0  0  0  0  0  3  0  0  0  0  0  0
  186.7880  176.8820  142.3000 N   0  0  0  0  0  0  0  0  0  0  0  0
  187.6860  177.9920  141.9880 C   0  0  0  0  0  1  0  0  0  0  0  0
  185.8320  177.3520  143.3170 C   0  0  0  0  0  2  0  0  0  0  0  0
  184.9440  178.5000  142.8330 C   0  0  0  0  0  2  0  0  0  0  0  0
  184.0320  178.0230  141.7190 C   0  0  0  0  0  3  0  0  0  0  0  0
  184.4120  178.6270  140.5210 O   0  0  0  0  0  1  0  0  0  0  0  0
  182.7100  178.3650  142.0070 O   0  0  0  0  0  1  0  0  0  0  0  0
  1 21  1  1  0  0  0
  1 12  1  0  0  0  0
  3 17  1  0  0  0  0
  4 28  1  6  0  0  0
  4  5  1  0  0  0  0
  5 20  1  0  0  0  0
  5 14  1  1  0  0  0
  7 11  1  0  0  0  0
  7 19  1  0  0  0  0
  8  4  1  0  0  0  0
  8 17  1  0  0  0  0
 10 11  1  6  0  0  0
 10 13  1  0  0  0  0
 12  9  2  0  0  0  0
 13  3  1  0  0  0  0
 15  1  1  0  0  0  0
 15 23  2  0  0  0  0
 16  8  2  0  0  0  0
 17  2  1  6  0  0  0
 17 20  1  0  0  0  0
 18  6  1  6  0  0  0
 18 10  1  0  0  0  0
 18 22  1  0  0  0  0
 19 30  1  6  0  0  0
 19 22  1  0  0  0  0
 22 21  1  1  0  0  0
 23 14  1  0  0  0  0
 23  9  1  0  0  0  0
 24 28  1  0  0  0  0
 25 29  1  0  0  0  0
 26 24  2  0  0  0  0
 26 27  1  0  0  0  0
 27 25  2  0  0  0  0
 28 29  2  0  0  0  0
 30 32  1  0  0  0  0
 31 30  1  0  0  0  0
 33 32  1  0  0  0  0
 34 36  1  0  0  0  0
 34 33  1  0  0  0  0
 35 34  1  0  0  0  0
M  END
>  <MODEL>
2

>  <REMARK>
 VINA RESULT:      -7.8      1.325      1.696
  Name = 
  5 active torsions:
  status: ('A' for Active; 'I' for Inactive)
    1  A    between atoms: C_2  and  N_3
    2  A    between atoms: C_2  and  C_19
    3  A    between atoms: N_3  and  C_27
    4  A    between atoms: C_6  and  C_29
    5  A    between atoms: C_14  and  C_19
                            x       y       z     vdW  Elec       q    Type
                         _______ _______ _______ _____ _____    ______ ____

>  <TORSDO>
F 5

$$$$
=
 OpenBabel11072408473D

 36 40  0  0  1  0  0  0  0  0999 V2000
  189.2740  173.2150  142.6210 C   0  0  1  0  0  3  0  0  0  0  0  0
  195.3580  175.5960  142.9600 C   0  0  0  0  0  1  0  0  0  0  0  0
  192.9280  176.0230  142.6140 C   0  0  0  0  0  2  0  0  0  0  0  0
  193.5640  172.8550  144.1260 C   0  0  2  0  0  3  0  0  0  0  0  0
  193.7780  172.6960  142.6290 C   0  0  1  0  0  3  0  0  0  0  0  0
  190.7450  175.4490  145.8340 O   0  0  0  0  0  1  0  0  0  0  0  0
  188.9210  177.6580  145.0810 C   0  0  0  0  0  2  0  0  0  0  0  0
  193.7350  174.2980  144.2800 C   0  0  0  0  0  0  0  0  0  0  0  0
  190.4780  172.2570  140.8100 N   0  0  0  0  0  0  0  0  0  0  0  0
  190.9960  176.8400  143.8720 C   0  0  1  0  0  3  0  0  0  0  0  0
  190.3240  178.0250  144.5680 C   0  0  0  0  0  2  0  0  0  0  0  0
  189.1580  172.7500  141.1670 C   0  0  0  0  0  3  0  0  0  0  0  0
  192.5030  176.9460  143.7530 C   0  0  0  0  0  2  0  0  0  0  0  0
  192.7100  171.8170  141.9660 C   0  0  0  0  0  2  0  0  0  0  0  0
  190.6900  172.8890  142.9820 C   0  0  0  0  0  3  0  0  0  0  0  0
  193.7160  174.8690  145.3610 O   0  0  0  0  0  0  0  0  0  0  0  0
  193.9760  174.9640  142.9720 C   0  0  2  0  0  0  0  0  0  0  0  0
  190.5450  175.5000  144.4520 C   0  0  2  0  0  3  0  0  0  0  0  0
  188.2230  176.5910  144.2000 C   0  0  1  0  0  3  0  0  0  0  0  0
  193.9130  173.9550  141.9840 O   0  0  0  0  0  0  0  0  0  0  0  0
  188.9850  174.7150  142.6920 C   0  0  0  0  0  2  0  0  0  0  0  0
  189.0650  175.2810  144.1120 C   0  0  1  0  0  3  0  0  0  0  0  0
  191.3230  172.3940  141.9350 C   0  0  0  0  0  0  0  0  0  0  0  0
  195.8940  172.5790  144.9880 C   0  0  0  0  0  3  0  0  0  0  0  0
  195.2610  170.1370  146.1980 C   0  0  0  0  0  3  0  0  0  0  0  0
  196.8790  171.8590  145.6710 C   0  0  0  0  0  3  0  0  0  0  0  0
  196.5630  170.6400  146.2760 C   0  0  0  0  0  3  0  0  0  0  0  0
  194.5860  172.0870  144.9120 C   0  0  0  0  0  0  0  0  0  0  0  0
  194.2760  170.8550  145.5140 C   0  0  0  0  0  3  0  0  0  0  0  0
  186.8590  176.2980  144.6850 N   0  0  0  0  0  0  0  0  0  0  0  0
  185.8760  176.7690  143.7120 C   0  0  0  0  0  1  0  0  0  0  0  0
  186.5720  176.9610  145.9680 C   0  0  0  0  0  2  0  0  0  0  0  0
  185.0910  176.9260  146.3540 C   0  0  0  0  0  2  0  0  0  0  0  0
  184.6400  178.2980  146.8180 C   0  0  0  0  0  3  0  0  0  0  0  0
  183.7890  178.8510  145.8620 O   0  0  0  0  0  1  0  0  0  0  0  0
  185.7470  179.1310  146.9850 O   0  0  0  0  0  1  0  0  0  0  0  0
  1 12  1  6  0  0  0
  1 21  1  0  0  0  0
  1 15  1  0  0  0  0
  3 17  1  0  0  0  0
  3 13  1  0  0  0  0
  4  8  1  0  0  0  0
  4 28  1  1  0  0  0
  5 14  1  6  0  0  0
  5  4  1  0  0  0  0
  8 16  2  0  0  0  0
  9 12  2  0  0  0  0
  9 23  1  0  0  0  0
 10 13  1  1  0  0  0
 10 18  1  0  0  0  0
 10 11  1  0  0  0  0
 11  7  1  0  0  0  0
 17  2  1  6  0  0  0
 17  8  1  0  0  0  0
 18  6  1  1  0  0  0
 19 30  1  1  0  0  0
 19  7  1  0  0  0  0
 20  5  1  0  0  0  0
 20 17  1  0  0  0  0
 22 21  1  6  0  0  0
 22 19  1  0  0  0  0
 22 18  1  0  0  0  0
 23 14  1  0  0  0  0
 23 15  2  0  0  0  0
 24 26  1  0  0  0  0
 25 27  1  0  0  0  0
 26 27  2  0  0  0  0
 28 24  2  0  0  0  0
 28 29  1  0  0  0  0
 29 25  2  0  0  0  0
 30 32  1  0  0  0  0
 31 30  1  0  0  0  0
 32 33  1  0  0  0  0
 33 34  1  0  0  0  0
 34 36  1  0  0  0  0
 35 34  1  0  0  0  0
M  END
>  <MODEL>
3

>  <REMARK>
 VINA RESULT:      -7.7      2.090      4.278
  Name = 
  5 active torsions:
  status: ('A' for Active; 'I' for Inactive)
    1  A    between atoms: C_2  and  N_3
    2  A    between atoms: C_2  and  C_19
    3  A    between atoms: N_3  and  C_27
    4  A    between atoms: C_6  and  C_29
    5  A    between atoms: C_14  and  C_19
                            x       y       z     vdW  Elec       q    Type
                         _______ _______ _______ _____ _____    ______ ____

>  <TORSDO>
F 5

$$$$
=
 OpenBabel11072408473D

 36 40  0  0  1  0  0  0  0  0999 V2000
  192.2120  174.4130  141.6200 C   0  0  1  0  0  3  0  0  0  0  0  0
  188.8810  175.3200  147.1780 C   0  0  0  0  0  1  0  0  0  0  0  0
  190.9870  174.5970  146.0590 C   0  0  0  0  0  2  0  0  0  0  0  0
  188.8850  176.5250  143.9150 C   0  0  2  0  0  3  0  0  0  0  0  0
  188.3580  175.0990  143.9070 C   0  0  1  0  0  3  0  0  0  0  0  0
  192.9380  177.5300  144.3100 O   0  0  0  0  0  1  0  0  0  0  0  0
  195.5450  176.2920  144.9780 C   0  0  0  0  0  2  0  0  0  0  0  0
  189.6280  176.5400  145.1730 C   0  0  0  0  0  0  0  0  0  0  0  0
  190.3780  172.9030  141.5650 N   0  0  0  0  0  0  0  0  0  0  0  0
  193.2130  175.4790  145.5610 C   0  0  1  0  0  3  0  0  0  0  0  0
  194.5650  175.9390  146.1110 C   0  0  0  0  0  2  0  0  0  0  0  0
  191.7720  173.0180  141.1690 C   0  0  0  0  0  3  0  0  0  0  0  0
  192.0670  175.5570  146.5490 C   0  0  0  0  0  2  0  0  0  0  0  0
  188.5640  174.3970  142.5590 C   0  0  0  0  0  2  0  0  0  0  0  0
  190.9680  175.0000  142.2110 C   0  0  0  0  0  3  0  0  0  0  0  0
  190.1710  177.5380  145.6260 O   0  0  0  0  0  0  0  0  0  0  0  0
  189.6000  175.2120  145.8420 C   0  0  2  0  0  0  0  0  0  0  0  0
  192.8810  176.1360  144.2220 C   0  0  2  0  0  3  0  0  0  0  0  0
  195.3100  175.4470  143.7010 C   0  0  1  0  0  3  0  0  0  0  0  0
  188.8790  174.3430  144.9920 O   0  0  0  0  0  0  0  0  0  0  0  0
  193.3370  174.2770  142.6470 C   0  0  0  0  0  2  0  0  0  0  0  0
  193.8580  175.6220  143.1580 C   0  0  1  0  0  3  0  0  0  0  0  0
  189.9920  174.1120  142.1880 C   0  0  0  0  0  0  0  0  0  0  0  0
  187.0920  177.7850  145.1180 C   0  0  0  0  0  3  0  0  0  0  0  0
  186.2590  179.0420  142.7620 C   0  0  0  0  0  3  0  0  0  0  0  0
  186.0130  178.6740  145.1420 C   0  0  0  0  0  3  0  0  0  0  0  0
  185.5970  179.3020  143.9640 C   0  0  0  0  0  3  0  0  0  0  0  0
  187.7660  177.5250  143.9200 C   0  0  0  0  0  0  0  0  0  0  0  0
  187.3380  178.1530  142.7370 C   0  0  0  0  0  3  0  0  0  0  0  0
  196.2980  175.7700  142.6510 N   0  0  0  0  0  0  0  0  0  0  0  0
  197.2200  176.7940  143.1380 C   0  0  0  0  0  1  0  0  0  0  0  0
  195.6620  176.2840  141.4270 C   0  0  0  0  0  2  0  0  0  0  0  0
  196.2240  175.6680  140.1440 C   0  0  0  0  0  2  0  0  0  0  0  0
  195.1340  174.9160  139.4050 C   0  0  0  0  0  3  0  0  0  0  0  0
  195.1940  173.5650  139.7450 O   0  0  0  0  0  1  0  0  0  0  0  0
  195.3130  175.0520  138.0270 O   0  0  0  0  0  1  0  0  0  0  0  0
  1 12  1  1  0  0  0
  1 15  1  0  0  0  0
  1 21  1  0  0  0  0
  3 13  1  0  0  0  0
  4 28  1  1  0  0  0
  4  8  1  0  0  0  0
  5 14  1  6  0  0  0
  5  4  1  0  0  0  0
  5 20  1  0  0  0  0
  7 11  1  0  0  0  0
  8 16  2  0  0  0  0
  8 17  1  0  0  0  0
  9 23  1  0  0  0  0
 10 11  1  1  0  0  0
 10 13  1  0  0  0  0
 12  9  2  0  0  0  0
 17  3  1  0  0  0  0
 17  2  1  1  0  0  0
 18  6  1  1  0  0  0
 18 10  1  0  0  0  0
 19 30  1  6  0  0  0
 19  7  1  0  0  0  0
 20 17  1  0  0  0  0
 22 21  1  1  0  0  0
 22 19  1  0  0  0  0
 22 18  1  0  0  0  0
 23 15  2  0  0  0  0
 23 14  1  0  0  0  0
 24 26  1  0  0  0  0
 25 27  1  0  0  0  0
 27 26  2  0  0  0  0
 28 24  2  0  0  0  0
 29 25  2  0  0  0  0
 29 28  1  0  0  0  0
 30 31  1  0  0  0  0
 32 30  1  0  0  0  0
 33 32  1  0  0  0  0
 34 35  1  0  0  0  0
 34 33  1  0  0  0  0
 36 34  1  0  0  0  0
M  END
>  <MODEL>
4

>  <REMARK>
 VINA RESULT:      -7.6      2.613      8.015
  Name = 
  5 active torsions:
  status: ('A' for Active; 'I' for Inactive)
    1  A    between atoms: C_2  and  N_3
    2  A    between atoms: C_2  and  C_19
    3  A    between atoms: N_3  and  C_27
    4  A    between atoms: C_6  and  C_29
    5  A    between atoms: C_14  and  C_19
                            x       y       z     vdW  Elec       q    Type
                         _______ _______ _______ _____ _____    ______ ____

>  <TORSDO>
F 5

$$$$
=
 OpenBabel11072408473D

 36 40  0  0  1  0  0  0  0  0999 V2000
  192.5780  174.5830  141.6500 C   0  0  1  0  0  3  0  0  0  0  0  0
  189.0400  174.9260  147.1430 C   0  0  0  0  0  1  0  0  0  0  0  0
  191.2560  174.5580  146.0650 C   0  0  0  0  0  2  0  0  0  0  0  0
  188.9090  176.1210  143.8800 C   0  0  2  0  0  3  0  0  0  0  0  0
  188.6210  174.6280  143.8640 C   0  0  1  0  0  3  0  0  0  0  0  0
  192.7360  177.7720  144.3490 O   0  0  0  0  0  1  0  0  0  0  0  0
  195.4970  176.9740  145.0670 C   0  0  0  0  0  2  0  0  0  0  0  0
  189.6160  176.2550  145.1520 C   0  0  0  0  0  0  0  0  0  0  0  0
  191.0150  172.7950  141.5630 N   0  0  0  0  0  0  0  0  0  0  0  0
  193.3180  175.7910  145.6080 C   0  0  1  0  0  3  0  0  0  0  0  0
  194.5660  176.4640  146.1820 C   0  0  0  0  0  2  0  0  0  0  0  0
  192.3800  173.1350  141.1930 C   0  0  0  0  0  3  0  0  0  0  0  0
  192.1560  175.6800  146.5740 C   0  0  0  0  0  2  0  0  0  0  0  0
  188.9640  173.9720  142.5210 C   0  0  0  0  0  2  0  0  0  0  0  0
  191.2440  174.9580  142.2170 C   0  0  0  0  0  3  0  0  0  0  0  0
  189.9810  177.3280  145.6130 O   0  0  0  0  0  0  0  0  0  0  0  0
  189.7920  174.9390  145.8220 C   0  0  2  0  0  0  0  0  0  0  0  0
  192.9090  176.3880  144.2610 C   0  0  2  0  0  3  0  0  0  0  0  0
  195.4260  176.1040  143.7870 C   0  0  1  0  0  3  0  0  0  0  0  0
  189.2390  173.9660  144.9590 O   0  0  0  0  0  0  0  0  0  0  0  0
  193.6900  174.6300  142.6990 C   0  0  0  0  0  2  0  0  0  0  0  0
  193.9760  176.0410  143.2160 C   0  0  1  0  0  3  0  0  0  0  0  0
  190.4260  173.9230  142.1770 C   0  0  0  0  0  0  0  0  0  0  0  0
  187.4570  177.8780  142.8530 C   0  0  0  0  0  3  0  0  0  0  0  0
  185.5250  177.5890  144.8560 C   0  0  0  0  0  3  0  0  0  0  0  0
  186.3090  178.6760  142.8400 C   0  0  0  0  0  3  0  0  0  0  0  0
  185.3430  178.5310  143.8410 C   0  0  0  0  0  3  0  0  0  0  0  0
  187.6420  176.9260  143.8620 C   0  0  0  0  0  0  0  0  0  0  0  0
  186.6720  176.7910  144.8710 C   0  0  0  0  0  3  0  0  0  0  0  0
  196.3690  176.5850  142.7560 N   0  0  0  0  0  0  0  0  0  0  0  0
  195.6590  176.7900  141.4940 C   0  0  0  0  0  1  0  0  0  0  0  0
  197.4570  175.6260  142.5060 C   0  0  0  0  0  2  0  0  0  0  0  0
  197.4150  174.4030  143.4250 C   0  0  0  0  0  2  0  0  0  0  0  0
  197.2580  173.1380  142.6030 C   0  0  0  0  0  3  0  0  0  0  0  0
  196.8490  173.4740  141.3130 O   0  0  0  0  0  1  0  0  0  0  0  0
  196.3010  172.3080  143.1880 O   0  0  0  0  0  1  0  0  0  0  0  0
  1 12  1  1  0  0  0
  1 15  1  0  0  0  0
  1 21  1  0  0  0  0
  3 13  1  0  0  0  0
  4 28  1  1  0  0  0
  4  8  1  0  0  0  0
  5 14  1  6  0  0  0
  5  4  1  0  0  0  0
  5 20  1  0  0  0  0
  7 11  1  0  0  0  0
  8 16  2  0  0  0  0
  8 17  1  0  0  0  0
  9 23  1  0  0  0  0
 10 11  1  1  0  0  0
 10 13  1  0  0  0  0
 12  9  2  0  0  0  0
 17  3  1  0  0  0  0
 17  2  1  1  0  0  0
 18  6  1  1  0  0  0
 18 10  1  0  0  0  0
 19 30  1  6  0  0  0
 19  7  1  0  0  0  0
 20 17  1  0  0  0  0
 22 21  1  1  0  0  0
 22 19  1  0  0  0  0
 22 18  1  0  0  0  0
 23 15  2  0  0  0  0
 23 14  1  0  0  0  0
 24 28  1  0  0  0  0
 25 29  1  0  0  0  0
 26 24  2  0  0  0  0
 26 27  1  0  0  0  0
 27 25  2  0  0  0  0
 28 29  2  0  0  0  0
 31 30  1  0  0  0  0
 32 30  1  0  0  0  0
 32 33  1  0  0  0  0
 34 36  1  0  0  0  0
 34 33  1  0  0  0  0
 35 34  1  0  0  0  0
M  END
>  <MODEL>
5

>  <REMARK>
 VINA RESULT:      -7.4      2.615      8.175
  Name = 
  5 active torsions:
  status: ('A' for Active; 'I' for Inactive)
    1  A    between atoms: C_2  and  N_3
    2  A    between atoms: C_2  and  C_19
    3  A    between atoms: N_3  and  C_27
    4  A    between atoms: C_6  and  C_29
    5  A    between atoms: C_14  and  C_19
                            x       y       z     vdW  Elec       q    Type
                         _______ _______ _______ _____ _____    ______ ____

>  <TORSDO>
F 5

$$$$
=
 OpenBabel11072408473D

 36 40  0  0  1  0  0  0  0  0999 V2000
  192.6390  172.7850  142.7340 C   0  0  1  0  0  3  0  0  0  0  0  0
  191.2590  176.6140  147.8560 C   0  0  0  0  0  1  0  0  0  0  0  0
  192.9800  175.4680  146.4650 C   0  0  0  0  0  2  0  0  0  0  0  0
  189.8170  175.6900  144.8300 C   0  0  2  0  0  3  0  0  0  0  0  0
  189.7550  174.5050  145.7810 C   0  0  1  0  0  3  0  0  0  0  0  0
  193.2890  176.9130  142.8210 O   0  0  0  0  0  1  0  0  0  0  0  0
  196.2090  176.4130  142.7920 C   0  0  0  0  0  2  0  0  0  0  0  0
  190.9010  176.4680  145.4240 C   0  0  0  0  0  0  0  0  0  0  0  0
  191.4150  171.4460  144.2700 N   0  0  0  0  0  0  0  0  0  0  0  0
  194.5520  175.9910  144.6660 C   0  0  1  0  0  3  0  0  0  0  0  0
  195.8140  176.7440  144.2420 C   0  0  0  0  0  2  0  0  0  0  0  0
  192.4980  171.3700  143.3030 C   0  0  0  0  0  3  0  0  0  0  0  0
  193.8340  176.5800  145.8640 C   0  0  0  0  0  2  0  0  0  0  0  0
  189.6910  173.1590  145.0490 C   0  0  0  0  0  2  0  0  0  0  0  0
  191.5530  173.5500  143.4230 C   0  0  0  0  0  3  0  0  0  0  0  0
  191.2500  177.5660  145.0130 O   0  0  0  0  0  0  0  0  0  0  0  0
  191.4860  175.7790  146.6060 C   0  0  2  0  0  0  0  0  0  0  0  0
  193.6130  175.7280  143.4880 C   0  0  2  0  0  3  0  0  0  0  0  0
  195.8140  174.9730  142.3790 C   0  0  1  0  0  3  0  0  0  0  0  0
  190.8060  174.5470  146.7360 O   0  0  0  0  0  0  0  0  0  0  0  0
  194.0320  173.3220  143.0660 C   0  0  0  0  0  2  0  0  0  0  0  0
  194.2800  174.7340  142.5300 C   0  0  1  0  0  3  0  0  0  0  0  0
  190.9280  172.7730  144.2880 C   0  0  0  0  0  0  0  0  0  0  0  0
  188.1790  177.1880  143.6800 C   0  0  0  0  0  3  0  0  0  0  0  0
  186.5200  177.2640  145.9310 C   0  0  0  0  0  3  0  0  0  0  0  0
  187.0060  177.9490  143.6610 C   0  0  0  0  0  3  0  0  0  0  0  0
  186.1770  177.9870  144.7860 C   0  0  0  0  0  3  0  0  0  0  0  0
  188.5250  176.4540  144.8200 C   0  0  0  0  0  0  0  0  0  0  0  0
  187.6920  176.5030  145.9520 C   0  0  0  0  0  3  0  0  0  0  0  0
  196.2530  174.6660  141.0030 N   0  0  0  0  0  0  0  0  0  0  0  0
  197.7000  174.8470  140.8930 C   0  0  0  0  0  1  0  0  0  0  0  0
  195.6150  175.5430  140.0070 C   0  0  0  0  0  2  0  0  0  0  0  0
  194.7370  174.7900  139.0050 C   0  0  0  0  0  2  0  0  0  0  0  0
  195.3270  174.8940  137.6120 C   0  0  0  0  0  3  0  0  0  0  0  0
  196.5840  175.4940  137.6870 O   0  0  0  0  0  1  0  0  0  0  0  0
  194.4960  175.6670  136.8010 O   0  0  0  0  0  1  0  0  0  0  0  0
  1 21  1  1  0  0  0
  1 12  1  0  0  0  0
  1 15  1  0  0  0  0
  3 17  1  0  0  0  0
  4 28  1  1  0  0  0
  4  8  1  0  0  0  0
  4  5  1  0  0  0  0
  5 14  1  6  0  0  0
  5 20  1  0  0  0  0
  7 11  1  0  0  0  0
  8 17  1  0  0  0  0
  9 23  1  0  0  0  0
 10 11  1  6  0  0  0
 10 13  1  0  0  0  0
 12  9  2  0  0  0  0
 13  3  1  0  0  0  0
 15 23  2  0  0  0  0
 16  8  2  0  0  0  0
 17 20  1  0  0  0  0
 17  2  1  1  0  0  0
 18  6  1  6  0  0  0
 18 10  1  0  0  0  0
 19 30  1  6  0  0  0
 19 22  1  0  0  0  0
 19  7  1  0  0  0  0
 22 21  1  1  0  0  0
 22 18  1  0  0  0  0
 23 14  1  0  0  0  0
 24 28  1  0  0  0  0
 25 29  1  0  0  0  0
 26 24  2  0  0  0  0
 26 27  1  0  0  0  0
 27 25  2  0  0  0  0
 28 29  2  0  0  0  0
 31 30  1  0  0  0  0
 32 30  1  0  0  0  0
 33 32  1  0  0  0  0
 34 35  1  0  0  0  0
 34 33  1  0  0  0  0
 36 34  1  0  0  0  0
M  END
>  <MODEL>
6

>  <REMARK>
 VINA RESULT:      -7.2      3.005      8.003
  Name = 
  5 active torsions:
  status: ('A' for Active; 'I' for Inactive)
    1  A    between atoms: C_2  and  N_3
    2  A    between atoms: C_2  and  C_19
    3  A    between atoms: N_3  and  C_27
    4  A    between atoms: C_6  and  C_29
    5  A    between atoms: C_14  and  C_19
                            x       y       z     vdW  Elec       q    Type
                         _______ _______ _______ _____ _____    ______ ____

>  <TORSDO>
F 5

$$$$
=
 OpenBabel11072408473D

 36 40  0  0  1  0  0  0  0  0999 V2000
  193.4730  175.2600  145.5840 C   0  0  1  0  0  3  0  0  0  0  0  0
  188.5660  175.5580  141.2670 C   0  0  0  0  0  1  0  0  0  0  0  0
  190.7850  174.6150  141.8970 C   0  0  0  0  0  2  0  0  0  0  0  0
  189.0850  176.0920  144.6640 C   0  0  2  0  0  3  0  0  0  0  0  0
  189.7510  177.2160  143.8870 C   0  0  1  0  0  3  0  0  0  0  0  0
  190.6600  172.2200  145.0140 O   0  0  0  0  0  1  0  0  0  0  0  0
  192.7970  170.5110  143.8780 C   0  0  0  0  0  2  0  0  0  0  0  0
  189.0010  175.0550  143.6380 C   0  0  0  0  0  0  0  0  0  0  0  0
  193.4340  177.4870  144.7550 N   0  0  0  0  0  0  0  0  0  0  0  0
  191.7180  172.5740  142.8680 C   0  0  1  0  0  3  0  0  0  0  0  0
  191.9850  171.0770  142.6990 C   0  0  0  0  0  2  0  0  0  0  0  0
  194.3540  176.4520  145.1990 C   0  0  0  0  0  3  0  0  0  0  0  0
  190.5710  173.1110  142.0360 C   0  0  0  0  0  2  0  0  0  0  0  0
  190.9120  177.8610  144.6540 C   0  0  0  0  0  2  0  0  0  0  0  0
  192.0820  175.7630  145.3560 C   0  0  0  0  0  3  0  0  0  0  0  0
  188.4550  173.9740  143.8110 O   0  0  0  0  0  0  0  0  0  0  0  0
  189.6210  175.4980  142.3600 C   0  0  2  0  0  0  0  0  0  0  0  0
  191.6200  172.9800  144.3380 C   0  0  2  0  0  3  0  0  0  0  0  0
  193.7620  171.5560  144.4940 C   0  0  1  0  0  3  0  0  0  0  0  0
  190.1360  176.7940  142.5860 O   0  0  0  0  0  0  0  0  0  0  0  0
  193.8180  174.0720  144.6840 C   0  0  0  0  0  2  0  0  0  0  0  0
  192.9960  172.8190  144.9940 C   0  0  1  0  0  3  0  0  0  0  0  0
  192.1160  176.9870  144.8650 C   0  0  0  0  0  0  0  0  0  0  0  0
  186.8040  177.0270  144.2490 C   0  0  0  0  0  3  0  0  0  0  0  0
  186.1300  176.8440  146.9580 C   0  0  0  0  0  3  0  0  0  0  0  0
  185.5480  177.4570  144.6890 C   0  0  0  0  0  3  0  0  0  0  0  0
  185.2120  177.3660  146.0430 C   0  0  0  0  0  3  0  0  0  0  0  0
  187.7260  176.4950  145.1570 C   0  0  0  0  0  0  0  0  0  0  0  0
  187.3850  176.4140  146.5190 C   0  0  0  0  0  3  0  0  0  0  0  0
  194.5650  170.9690  145.5860 N   0  0  0  0  0  0  0  0  0  0  0  0
  195.9820  171.2540  145.3670 C   0  0  0  0  0  1  0  0  0  0  0  0
  194.4090  169.5080  145.6690 C   0  0  0  0  0  2  0  0  0  0  0  0
  195.7230  168.7680  145.9290 C   0  0  0  0  0  2  0  0  0  0  0  0
  195.7170  168.1670  147.3220 C   0  0  0  0  0  3  0  0  0  0  0  0
  194.5790  168.5960  148.0040 O   0  0  0  0  0  1  0  0  0  0  0  0
  196.8530  168.5760  148.0210 O   0  0  0  0  0  1  0  0  0  0  0  0
  1 21  1  6  0  0  0
  3 13  1  0  0  0  0
  3 17  1  0  0  0  0
  4 28  1  6  0  0  0
  5 14  1  1  0  0  0
  5  4  1  0  0  0  0
  7 19  1  0  0  0  0
  8 16  2  0  0  0  0
  8  4  1  0  0  0  0
  9 23  1  0  0  0  0
  9 12  2  0  0  0  0
 10 13  1  6  0  0  0
 10 18  1  0  0  0  0
 11 10  1  0  0  0  0
 11  7  1  0  0  0  0
 12  1  1  0  0  0  0
 14 23  1  0  0  0  0
 15  1  1  0  0  0  0
 17  2  1  6  0  0  0
 17 20  1  0  0  0  0
 17  8  1  0  0  0  0
 18 22  1  0  0  0  0
 18  6  1  1  0  0  0
 19 22  1  0  0  0  0
 19 30  1  1  0  0  0
 20  5  1  0  0  0  0
 22 21  1  6  0  0  0
 23 15  2  0  0  0  0
 24 26  2  0  0  0  0
 24 28  1  0  0  0  0
 26 27  1  0  0  0  0
 27 25  2  0  0  0  0
 28 29  2  0  0  0  0
 29 25  1  0  0  0  0
 30 32  1  0  0  0  0
 31 30  1  0  0  0  0
 32 33  1  0  0  0  0
 33 34  1  0  0  0  0
 34 35  1  0  0  0  0
 34 36  1  0  0  0  0
M  END
>  <MODEL>
7

>  <REMARK>
 VINA RESULT:      -7.0      2.766      8.221
  Name = 
  5 active torsions:
  status: ('A' for Active; 'I' for Inactive)
    1  A    between atoms: C_2  and  N_3
    2  A    between atoms: C_2  and  C_19
    3  A    between atoms: N_3  and  C_27
    4  A    between atoms: C_6  and  C_29
    5  A    between atoms: C_14  and  C_19
                            x       y       z     vdW  Elec       q    Type
                         _______ _______ _______ _____ _____    ______ ____

>  <TORSDO>
F 5

$$$$
=
 OpenBabel11072408473D

 36 40  0  0  1  0  0  0  0  0999 V2000
  191.7230  174.7830  142.9560 C   0  0  1  0  0  3  0  0  0  0  0  0
  186.4050  178.2900  141.4640 C   0  0  0  0  0  1  0  0  0  0  0  0
  188.2090  176.7460  140.7110 C   0  0  0  0  0  2  0  0  0  0  0  0
  187.8530  176.8130  144.2600 C   0  0  2  0  0  3  0  0  0  0  0  0
  188.6840  178.0230  143.8630 C   0  0  1  0  0  3  0  0  0  0  0  0
  187.9470  173.1350  142.2460 O   0  0  0  0  0  1  0  0  0  0  0  0
  188.9900  171.9200  139.7540 C   0  0  0  0  0  2  0  0  0  0  0  0
  187.1630  176.5250  143.0050 C   0  0  0  0  0  0  0  0  0  0  0  0
  192.3060  177.0650  143.2710 N   0  0  0  0  0  0  0  0  0  0  0  0
  188.5330  174.3660  140.2490 C   0  0  1  0  0  3  0  0  0  0  0  0
  188.1910  173.1730  139.3550 C   0  0  0  0  0  2  0  0  0  0  0  0
  192.8620  175.7970  142.8250 C   0  0  0  0  0  3  0  0  0  0  0  0
  187.5010  175.4760  140.2490 C   0  0  0  0  0  2  0  0  0  0  0  0
  190.1430  177.9180  144.3220 C   0  0  0  0  0  2  0  0  0  0  0  0
  190.5980  175.5890  143.5260 C   0  0  0  0  0  3  0  0  0  0  0  0
  186.3160  175.6500  142.8830 O   0  0  0  0  0  0  0  0  0  0  0  0
  187.5870  177.4510  141.9210 C   0  0  2  0  0  0  0  0  0  0  0  0
  188.9330  173.9340  141.6600 C   0  0  2  0  0  3  0  0  0  0  0  0
  190.3830  172.2620  140.3390 C   0  0  1  0  0  3  0  0  0  0  0  0
  188.5770  178.2970  142.4730 O   0  0  0  0  0  0  0  0  0  0  0  0
  191.3930  174.2190  141.5730 C   0  0  0  0  0  2  0  0  0  0  0  0
  190.2670  173.1830  141.5930 C   0  0  1  0  0  3  0  0  0  0  0  0
  190.9610  176.8520  143.6480 C   0  0  0  0  0  0  0  0  0  0  0  0
  185.9430  178.1560  145.1520 C   0  0  0  0  0  3  0  0  0  0  0  0
  186.0780  176.8790  147.6370 C   0  0  0  0  0  3  0  0  0  0  0  0
  185.0640  178.5220  146.1760 C   0  0  0  0  0  3  0  0  0  0  0  0
  185.1310  177.8830  147.4180 C   0  0  0  0  0  3  0  0  0  0  0  0
  186.8880  177.1460  145.3600 C   0  0  0  0  0  0  0  0  0  0  0  0
  186.9570  176.5140  146.6140 C   0  0  0  0  0  3  0  0  0  0  0  0
  191.1470  171.0400  140.6630 N   0  0  0  0  0  0  0  0  0  0  0  0
  190.8430  169.9940  139.6880 C   0  0  0  0  0  1  0  0  0  0  0  0
  190.8190  170.5160  141.9990 C   0  0  0  0  0  2  0  0  0  0  0  0
  192.0250  169.9290  142.7370 C   0  0  0  0  0  2  0  0  0  0  0  0
  192.4320  170.8400  143.8790 C   0  0  0  0  0  3  0  0  0  0  0  0
  191.3140  171.5400  144.3320 O   0  0  0  0  0  1  0  0  0  0  0  0
  193.3970  171.7490  143.4410 O   0  0  0  0  0  1  0  0  0  0  0  0
  1 21  1  6  0  0  0
  1 15  1  0  0  0  0
  3 17  1  0  0  0  0
  4 28  1  1  0  0  0
  5  4  1  0  0  0  0
  5 14  1  6  0  0  0
  7 19  1  0  0  0  0
  8  4  1  0  0  0  0
  9 23  1  0  0  0  0
 10 11  1  6  0  0  0
 10 18  1  0  0  0  0
 11  7  1  0  0  0  0
 12  1  1  0  0  0  0
 12  9  2  0  0  0  0
 13 10  1  0  0  0  0
 13  3  1  0  0  0  0
 15 23  2  0  0  0  0
 16  8  2  0  0  0  0
 17  2  1  6  0  0  0
 17 20  1  0  0  0  0
 17  8  1  0  0  0  0
 18  6  1  6  0  0  0
 19 30  1  1  0  0  0
 19 22  1  0  0  0  0
 20  5  1  0  0  0  0
 22 21  1  6  0  0  0
 22 18  1  0  0  0  0
 23 14  1  0  0  0  0
 24 28  2  0  0  0  0
 24 26  1  0  0  0  0
 26 27  2  0  0  0  0
 27 25  1  0  0  0  0
 28 29  1  0  0  0  0
 29 25  2  0  0  0  0
 30 32  1  0  0  0  0
 31 30  1  0  0  0  0
 32 33  1  0  0  0  0
 33 34  1  0  0  0  0
 34 35  1  0  0  0  0
 36 34  1  0  0  0  0
M  END
>  <MODEL>
8

>  <REMARK>
 VINA RESULT:      -7.0      2.937      7.668
  Name = 
  5 active torsions:
  status: ('A' for Active; 'I' for Inactive)
    1  A    between atoms: C_2  and  N_3
    2  A    between atoms: C_2  and  C_19
    3  A    between atoms: N_3  and  C_27
    4  A    between atoms: C_6  and  C_29
    5  A    between atoms: C_14  and  C_19
                            x       y       z     vdW  Elec       q    Type
                         _______ _______ _______ _____ _____    ______ ____

>  <TORSDO>
F 5

$$$$
=
 OpenBabel11072408473D

 36 40  0  0  1  0  0  0  0  0999 V2000
  192.0370  174.8080  144.0790 C   0  0  1  0  0  3  0  0  0  0  0  0
  186.8750  177.5490  141.1400 C   0  0  0  0  0  1  0  0  0  0  0  0
  188.8770  176.0750  140.9730 C   0  0  0  0  0  2  0  0  0  0  0  0
  187.8780  176.6590  144.3480 C   0  0  2  0  0  3  0  0  0  0  0  0
  188.6920  177.8630  143.9000 C   0  0  1  0  0  3  0  0  0  0  0  0
  188.5610  172.7370  143.0280 O   0  0  0  0  0  1  0  0  0  0  0  0
  190.1120  171.2490  140.9890 C   0  0  0  0  0  2  0  0  0  0  0  0
  187.4470  176.1190  143.0610 C   0  0  0  0  0  0  0  0  0  0  0  0
  192.4130  177.1550  144.0990 N   0  0  0  0  0  0  0  0  0  0  0  0
  189.4240  173.6920  140.9800 C   0  0  1  0  0  3  0  0  0  0  0  0
  189.3240  172.3490  140.2550 C   0  0  0  0  0  2  0  0  0  0  0  0
  193.1170  175.8880  143.9750 C   0  0  0  0  0  3  0  0  0  0  0  0
  188.3430  174.6910  140.6190 C   0  0  0  0  0  2  0  0  0  0  0  0
  190.0470  177.9620  144.6100 C   0  0  0  0  0  2  0  0  0  0  0  0
  190.7800  175.5880  144.3060 C   0  0  0  0  0  3  0  0  0  0  0  0
  186.6920  175.1640  142.9470 O   0  0  0  0  0  0  0  0  0  0  0  0
  188.0040  176.9010  141.9250 C   0  0  2  0  0  0  0  0  0  0  0  0
  189.5860  173.5210  142.4910 C   0  0  2  0  0  3  0  0  0  0  0  0
  191.3520  171.8020  141.7360 C   0  0  1  0  0  3  0  0  0  0  0  0
  188.8220  177.9070  142.4850 O   0  0  0  0  0  0  0  0  0  0  0  0
  191.9990  174.0090  142.7750 C   0  0  0  0  0  2  0  0  0  0  0  0
  190.9540  172.8910  142.7790 C   0  0  1  0  0  3  0  0  0  0  0  0
  191.0370  176.8820  144.2740 C   0  0  0  0  0  0  0  0  0  0  0  0
  185.7020  177.8560  144.6290 C   0  0  0  0  0  3  0  0  0  0  0  0
  185.5690  177.1800  147.3410 C   0  0  0  0  0  3  0  0  0  0  0  0
  184.6280  178.2960  145.4100 C   0  0  0  0  0  3  0  0  0  0  0  0
  184.5610  177.9570  146.7640 C   0  0  0  0  0  3  0  0  0  0  0  0
  186.7110  177.0700  145.1970 C   0  0  0  0  0  0  0  0  0  0  0  0
  186.6430  176.7410  146.5620 C   0  0  0  0  0  3  0  0  0  0  0  0
  192.1180  170.7180  142.3850 N   0  0  0  0  0  0  0  0  0  0  0  0
  191.5550  169.4220  142.0110 C   0  0  0  0  0  1  0  0  0  0  0  0
  192.0830  170.8150  143.8540 C   0  0  0  0  0  2  0  0  0  0  0  0
  193.4310  170.5220  144.5170 C   0  0  0  0  0  2  0  0  0  0  0  0
  194.1890  171.8140  144.7520 C   0  0  0  0  0  3  0  0  0  0  0  0
  194.8920  172.1530  143.5960 O   0  0  0  0  0  1  0  0  0  0  0  0
  195.0890  171.6520  145.8060 O   0  0  0  0  0  1  0  0  0  0  0  0
  1 21  1  6  0  0  0
  1 15  1  0  0  0  0
  3 17  1  0  0  0  0
  4 28  1  1  0  0  0
  5  4  1  0  0  0  0
  5 14  1  1  0  0  0
  7 19  1  0  0  0  0
  8  4  1  0  0  0  0
  9 23  1  0  0  0  0
 10 11  1  6  0  0  0
 10 18  1  0  0  0  0
 11  7  1  0  0  0  0
 12  1  1  0  0  0  0
 12  9  2  0  0  0  0
 13  3  1  0  0  0  0
 13 10  1  0  0  0  0
 16  8  2  0  0  0  0
 17  2  1  6  0  0  0
 17 20  1  0  0  0  0
 17  8  1  0  0  0  0
 18 22  1  0  0  0  0
 18  6  1  6  0  0  0
 19 30  1  1  0  0  0
 19 22  1  0  0  0  0
 20  5  1  0  0  0  0
 22 21  1  6  0  0  0
 23 15  2  0  0  0  0
 23 14  1  0  0  0  0
 24 28  2  0  0  0  0
 24 26  1  0  0  0  0
 26 27  2  0  0  0  0
 27 25  1  0  0  0  0
 28 29  1  0  0  0  0
 29 25  2  0  0  0  0
 30 32  1  0  0  0  0
 31 30  1  0  0  0  0
 32 33  1  0  0  0  0
 33 34  1  0  0  0  0
 34 36  1  0  0  0  0
 35 34  1  0  0  0  0
M  END
>  <MODEL>
9

>  <REMARK>
 VINA RESULT:      -6.8      2.714      7.788
  Name = 
  5 active torsions:
  status: ('A' for Active; 'I' for Inactive)
    1  A    between atoms: C_2  and  N_3
    2  A    between atoms: C_2  and  C_19
    3  A    between atoms: N_3  and  C_27
    4  A    between atoms: C_6  and  C_29
    5  A    between atoms: C_14  and  C_19
                            x       y       z     vdW  Elec       q    Type
                         _______ _______ _______ _____ _____    ______ ____

>  <TORSDO>
F 5

$$$$
