=
 OpenBabel11062420453D

 45 47  0  0  1  0  0  0  0  0999 V2000
  188.0080  175.3020  140.7340 C   0  0  2  0  0  3  0  0  0  0  0  0
  188.8050  175.0240  141.7510 C   0  0  0  0  0  2  0  0  0  0  0  0
  189.1820  172.6650  142.0990 C   0  0  0  0  0  1  0  0  0  0  0  0
  189.7860  173.9340  141.4890 C   0  0  1  0  0  0  0  0  0  0  0  0
  189.8820  173.8520  139.9490 C   0  0  2  0  0  3  0  0  0  0  0  0
  188.2770  174.3520  139.2500 S   0  0  0  0  0  0  0  0  0  0  0  0
  187.0600  176.3770  140.7880 C   0  0  0  0  0  0  0  0  0  0  0  0
  186.2650  177.2810  140.8370 C   0  0  0  0  0  0  0  0  0  0  0  0
  185.3000  178.3830  140.8950 C   0  0  0  0  0  2  0  0  0  0  0  0
  183.8170  178.7790  142.7920 N   0  0  0  0  0  1  0  0  0  0  0  0
  184.0380  177.9440  141.6210 C   0  0  1  0  0  3  0  0  0  0  0  0
  182.8660  177.4250  139.5990 O   0  0  0  0  0  0  0  0  0  0  0  0
  182.8630  178.0290  140.7050 C   0  0  0  0  0  0  0  0  0  0  0  0
  181.7490  178.7650  141.0850 O   0  0  0  0  0  1  0  0  0  0  0  0
  190.3020  172.5390  139.4350 C   0  0  0  0  0  0  0  0  0  0  0  0
  190.6660  171.4630  139.0360 C   0  0  0  0  0  0  0  0  0  0  0  0
  191.1170  170.1770  138.5720 C   0  0  0  0  0  0  0  0  0  0  0  0
  190.9860  169.8780  137.3570 O   0  0  0  0  0  0  0  0  0  0  0  0
  191.7370  169.1870  139.5090 C   0  0  2  0  0  3  0  0  0  0  0  0
  190.7060  168.5930  140.4550 C   0  0  0  0  0  1  0  0  0  0  0  0
  192.9390  169.6600  141.6750 N   0  0  0  0  0  1  0  0  0  0  0  0
  193.8260  170.3570  139.6470 O   0  0  0  0  0  0  0  0  0  0  0  0
  192.8890  169.7780  140.2590 C   0  0  0  0  0  0  0  0  0  0  0  0
  191.1640  174.2400  142.1410 C   0  0  2  0  0  3  0  0  0  0  0  0
  192.0270  172.9890  142.4270 C   0  0  1  0  0  3  0  0  0  0  0  0
  193.2350  173.0300  141.7250 O   0  0  0  0  0  1  0  0  0  0  0  0
  192.3010  172.7890  143.9250 C   0  0  1  0  0  3  0  0  0  0  0  0
  191.6980  171.6160  144.3810 O   0  0  0  0  0  1  0  0  0  0  0  0
  194.1510  174.0210  144.8600 O   0  0  0  0  0  1  0  0  0  0  0  0
  193.7870  172.8040  144.2810 C   0  0  0  0  0  2  0  0  0  0  0  0
  190.9780  175.0450  143.4290 C   0  0  0  0  0  2  0  0  0  0  0  0
  191.5580  176.4370  143.2700 C   0  0  0  0  0  2  0  0  0  0  0  0
  190.6780  177.4140  143.9620 C   0  0  0  0  0  0  0  0  0  0  0  0
  189.5030  176.9480  144.6360 N   0  0  0  0  0  2  0  0  0  0  0  0
  190.9550  178.6400  143.9060 O   0  0  0  0  0  0  0  0  0  0  0  0
  188.3550  177.5100  146.7870 C   0  0  0  0  0  2  0  0  0  0  0  0
  187.3160  176.4540  147.1590 C   0  0  0  0  0  2  0  0  0  0  0  0
  186.3850  179.1390  144.8140 C   0  0  0  0  0  3  0  0  0  0  0  0
  186.3670  176.6400  144.3270 C   0  0  0  0  0  2  0  0  0  0  0  0
  187.1980  177.9220  144.4580 C   0  0  2  0  0  3  0  0  0  0  0  0
  185.8790  176.8800  146.8370 C   0  0  1  0  0  3  0  0  0  0  0  0
  185.5930  178.3630  147.1220 C   0  0  0  0  0  2  0  0  0  0  0  0
  185.6850  179.3140  145.9480 C   0  0  0  0  0  3  0  0  0  0  0  0
  185.3820  176.3960  145.4740 C   0  0  0  0  0  2  0  0  0  0  0  0
  188.4870  177.7760  145.2840 C   0  0  2  0  0  3  0  0  0  0  0  0
  1  7  1  6  0  0  0
  1  2  1  0  0  0  0
  4  2  1  0  0  0  0
  4  3  1  1  0  0  0
  4 24  1  0  0  0  0
  5 15  1  1  0  0  0
  5  4  1  0  0  0  0
  6  5  1  0  0  0  0
  6  1  1  0  0  0  0
  7  8  3  0  0  0  0
  8  9  1  0  0  0  0
  9 11  1  0  0  0  0
 11 10  1  1  0  0  0
 12 13  2  0  0  0  0
 13 14  1  0  0  0  0
 13 11  1  0  0  0  0
 16 15  3  0  0  0  0
 17 16  1  0  0  0  0
 17 19  1  0  0  0  0
 18 17  2  0  0  0  0
 19 23  1  0  0  0  0
 19 20  1  1  0  0  0
 22 23  2  0  0  0  0
 23 21  1  0  0  0  0
 24 25  1  0  0  0  0
 24 31  1  1  0  0  0
 25 26  1  6  0  0  0
 25 27  1  0  0  0  0
 27 30  1  0  0  0  0
 27 28  1  6  0  0  0
 30 29  1  0  0  0  0
 32 31  1  0  0  0  0
 32 33  1  0  0  0  0
 33 34  1  0  0  0  0
 35 33  2  0  0  0  0
 36 37  1  0  0  0  0
 38 43  2  0  0  0  0
 39 44  1  0  0  0  0
 40 39  1  1  0  0  0
 40 38  1  0  0  0  0
 40 45  1  0  0  0  0
 41 44  1  6  0  0  0
 41 42  1  0  0  0  0
 41 37  1  0  0  0  0
 43 42  1  0  0  0  0
 45 34  1  6  0  0  0
 45 36  1  0  0  0  0
M  END
>  <MODEL>
1

>  <REMARK>
 VINA RESULT:      -5.9      0.000      0.000
  Name = 
  16 active torsions:
  status: ('A' for Active; 'I' for Inactive)
    1  A    between atoms: C_1  and  C_3
    2  A    between atoms: C_1  and  C_26
    3  A    between atoms: C_3  and  C_4
    4  A    between atoms: C_3  and  C_38
    5  A    between atoms: C_4  and  C_40
    6  A    between atoms: C_9  and  C_19
    7  A    between atoms: C_12  and  C_13
    8  A    between atoms: C_13  and  CA_39
    9  A    between atoms: C_15  and  C_41
   10  A    between atoms: C_16  and  C_40
   11  A    between atoms: C_17  and  C_21
   12  A    between atoms: C_21  and  C_27
   13  A    between atoms: C_22  and  C_26
   14  A    between atoms: N_24  and  C_44
   15  A    between atoms: C_27  and  C_33
   16  A    between atoms: C_28  and  CA_39
                            x       y       z     vdW  Elec       q    Type
                         _______ _______ _______ _____ _____    ______ ____

>  <TORSDO>
F 16

$$$$
=
 OpenBabel11062420453D

 45 47  0  0  1  0  0  0  0  0999 V2000
  189.5900  173.8550  143.3880 C   0  0  2  0  0  3  0  0  0  0  0  0
  189.5490  174.7400  144.3690 C   0  0  0  0  0  2  0  0  0  0  0  0
  189.2020  177.0150  143.6360 C   0  0  0  0  0  1  0  0  0  0  0  0
  188.4970  175.7850  144.2160 C   0  0  1  0  0  0  0  0  0  0  0  0
  187.4780  175.1760  143.2270 C   0  0  2  0  0  3  0  0  0  0  0  0
  188.3730  174.0590  142.1020 S   0  0  0  0  0  0  0  0  0  0  0  0
  190.4880  172.7370  143.4160 C   0  0  0  0  0  0  0  0  0  0  0  0
  191.2440  171.7990  143.4390 C   0  0  0  0  0  0  0  0  0  0  0  0
  192.1650  170.6590  143.4710 C   0  0  0  0  0  2  0  0  0  0  0  0
  191.6500  170.1020  141.1510 N   0  0  0  0  0  1  0  0  0  0  0  0
  192.7280  170.3950  142.0830 C   0  0  1  0  0  3  0  0  0  0  0  0
  194.6110  171.8730  142.1380 O   0  0  0  0  0  1  0  0  0  0  0  0
  193.5050  171.5780  141.6100 C   0  0  0  0  0  0  0  0  0  0  0  0
  193.0130  172.3480  140.5660 O   0  0  0  0  0  0  0  0  0  0  0  0
  186.6900  176.1680  142.4790 C   0  0  0  0  0  0  0  0  0  0  0  0
  186.0710  176.9920  141.8560 C   0  0  0  0  0  0  0  0  0  0  0  0
  185.3480  177.9860  141.1070 C   0  0  0  0  0  0  0  0  0  0  0  0
  185.7840  178.3510  139.9850 O   0  0  0  0  0  0  0  0  0  0  0  0
  184.0880  178.5970  141.6390 C   0  0  2  0  0  3  0  0  0  0  0  0
  183.9580  178.3880  143.1400 C   0  0  0  0  0  1  0  0  0  0  0  0
  181.5890  178.3080  141.4700 N   0  0  0  0  0  1  0  0  0  0  0  0
  182.9920  177.5170  139.8000 O   0  0  0  0  0  0  0  0  0  0  0  0
  182.8800  178.0990  140.9120 C   0  0  0  0  0  0  0  0  0  0  0  0
  187.8420  176.1350  145.5820 C   0  0  2  0  0  3  0  0  0  0  0  0
  187.5990  177.6460  145.8050 C   0  0  1  0  0  3  0  0  0  0  0  0
  187.2570  178.2890  144.6120 O   0  0  0  0  0  1  0  0  0  0  0  0
  186.5300  177.9220  146.8730 C   0  0  1  0  0  3  0  0  0  0  0  0
  186.1280  179.2580  146.8290 O   0  0  0  0  0  1  0  0  0  0  0  0
  184.1440  177.7190  146.5930 O   0  0  0  0  0  1  0  0  0  0  0  0
  185.3210  176.9930  146.7800 C   0  0  0  0  0  2  0  0  0  0  0  0
  188.6760  175.5700  146.7350 C   0  0  0  0  0  2  0  0  0  0  0  0
  189.7010  176.5900  147.1930 C   0  0  0  0  0  2  0  0  0  0  0  0
  191.0190  175.9210  147.3480 C   0  0  0  0  0  0  0  0  0  0  0  0
  191.9860  176.0210  146.2960 N   0  0  0  0  0  2  0  0  0  0  0  0
  191.2470  175.2400  148.3810 O   0  0  0  0  0  0  0  0  0  0  0  0
  194.4680  176.3130  146.4190 C   0  0  0  0  0  2  0  0  0  0  0  0
  195.0310  176.8750  145.1150 C   0  0  0  0  0  2  0  0  0  0  0  0
  194.4500  173.2480  145.4010 C   0  0  0  0  0  3  0  0  0  0  0  0
  193.3690  174.8180  143.7140 C   0  0  0  0  0  2  0  0  0  0  0  0
  193.3810  174.2790  145.1490 C   0  0  2  0  0  3  0  0  0  0  0  0
  195.6820  175.8080  144.2280 C   0  0  1  0  0  3  0  0  0  0  0  0
  196.4830  174.7550  145.0100 C   0  0  0  0  0  2  0  0  0  0  0  0
  195.7750  173.4540  145.3220 C   0  0  0  0  0  3  0  0  0  0  0  0
  194.7420  175.2250  143.1720 C   0  0  0  0  0  2  0  0  0  0  0  0
  193.2860  175.3530  146.2450 C   0  0  2  0  0  3  0  0  0  0  0  0
  1  7  1  1  0  0  0
  1  2  1  0  0  0  0
  4  3  1  6  0  0  0
  4  2  1  0  0  0  0
  4 24  1  0  0  0  0
  5 15  1  6  0  0  0
  5  4  1  0  0  0  0
  6  5  1  0  0  0  0
  6  1  1  0  0  0  0
  7  8  3  0  0  0  0
  8  9  1  0  0  0  0
 11 10  1  6  0  0  0
 11  9  1  0  0  0  0
 13 11  1  0  0  0  0
 13 12  1  0  0  0  0
 14 13  2  0  0  0  0
 16 15  3  0  0  0  0
 17 19  1  0  0  0  0
 17 16  1  0  0  0  0
 18 17  2  0  0  0  0
 19 20  1  1  0  0  0
 22 23  2  0  0  0  0
 23 21  1  0  0  0  0
 23 19  1  0  0  0  0
 24 25  1  0  0  0  0
 24 31  1  1  0  0  0
 25 26  1  6  0  0  0
 25 27  1  0  0  0  0
 27 28  1  6  0  0  0
 29 30  1  0  0  0  0
 30 27  1  0  0  0  0
 31 32  1  0  0  0  0
 32 33  1  0  0  0  0
 33 35  2  0  0  0  0
 34 33  1  0  0  0  0
 37 36  1  0  0  0  0
 40 39  1  6  0  0  0
 40 38  1  0  0  0  0
 40 45  1  0  0  0  0
 41 44  1  1  0  0  0
 41 42  1  0  0  0  0
 41 37  1  0  0  0  0
 42 43  1  0  0  0  0
 43 38  2  0  0  0  0
 44 39  1  0  0  0  0
 45 34  1  6  0  0  0
 45 36  1  0  0  0  0
M  END
>  <MODEL>
2

>  <REMARK>
 VINA RESULT:      -5.7      2.599      8.979
  Name = 
  16 active torsions:
  status: ('A' for Active; 'I' for Inactive)
    1  A    between atoms: C_1  and  C_3
    2  A    between atoms: C_1  and  C_26
    3  A    between atoms: C_3  and  C_4
    4  A    between atoms: C_3  and  C_38
    5  A    between atoms: C_4  and  C_40
    6  A    between atoms: C_9  and  C_19
    7  A    between atoms: C_12  and  C_13
    8  A    between atoms: C_13  and  CA_39
    9  A    between atoms: C_15  and  C_41
   10  A    between atoms: C_16  and  C_40
   11  A    between atoms: C_17  and  C_21
   12  A    between atoms: C_21  and  C_27
   13  A    between atoms: C_22  and  C_26
   14  A    between atoms: N_24  and  C_44
   15  A    between atoms: C_27  and  C_33
   16  A    between atoms: C_28  and  CA_39
                            x       y       z     vdW  Elec       q    Type
                         _______ _______ _______ _____ _____    ______ ____

>  <TORSDO>
F 16

$$$$
=
 OpenBabel11062420453D

 45 47  0  0  1  0  0  0  0  0999 V2000
  188.9200  174.2690  140.9790 C   0  0  2  0  0  3  0  0  0  0  0  0
  190.1590  174.0440  141.3790 C   0  0  0  0  0  2  0  0  0  0  0  0
  191.0000  171.8520  140.8160 C   0  0  0  0  0  1  0  0  0  0  0  0
  191.0080  173.3230  140.3900 C   0  0  1  0  0  0  0  0  0  0  0  0
  190.3020  173.5410  139.0320 C   0  0  2  0  0  3  0  0  0  0  0  0
  188.5150  173.7020  139.3390 S   0  0  0  0  0  0  0  0  0  0  0  0
  187.9930  175.0210  141.7750 C   0  0  0  0  0  0  0  0  0  0  0  0
  187.2160  175.6520  142.4460 C   0  0  0  0  0  0  0  0  0  0  0  0
  186.2730  176.4210  143.2630 C   0  0  0  0  0  2  0  0  0  0  0  0
  186.4140  178.3150  141.7300 N   0  0  0  0  0  1  0  0  0  0  0  0
  186.5440  177.9110  143.1220 C   0  0  1  0  0  3  0  0  0  0  0  0
  185.5590  179.9470  143.9080 O   0  0  0  0  0  0  0  0  0  0  0  0
  185.5950  178.6890  143.9710 C   0  0  0  0  0  0  0  0  0  0  0  0
  184.7310  178.0170  144.8250 O   0  0  0  0  0  1  0  0  0  0  0  0
  190.5800  172.5010  138.0290 C   0  0  0  0  0  0  0  0  0  0  0  0
  190.8230  171.6350  137.2280 C   0  0  0  0  0  0  0  0  0  0  0  0
  191.1260  170.5910  136.2850 C   0  0  0  0  0  0  0  0  0  0  0  0
  191.3450  170.8900  135.0830 O   0  0  0  0  0  0  0  0  0  0  0  0
  191.1830  169.1550  136.7070 C   0  0  2  0  0  3  0  0  0  0  0  0
  190.1610  168.8520  137.7920 C   0  0  0  0  0  1  0  0  0  0  0  0
  193.6080  168.7270  136.1670 N   0  0  0  0  0  1  0  0  0  0  0  0
  192.8080  168.4640  138.3290 O   0  0  0  0  0  0  0  0  0  0  0  0
  192.5610  168.7540  137.1280 C   0  0  0  0  0  0  0  0  0  0  0  0
  192.4630  173.8730  140.3820 C   0  0  2  0  0  3  0  0  0  0  0  0
  193.1900  173.7340  139.0240 C   0  0  1  0  0  3  0  0  0  0  0  0
  193.6470  174.9710  138.5600 O   0  0  0  0  0  1  0  0  0  0  0  0
  194.3550  172.7340  139.0760 C   0  0  1  0  0  3  0  0  0  0  0  0
  194.0420  171.5800  138.3560 O   0  0  0  0  0  1  0  0  0  0  0  0
  196.0400  172.8100  137.3530 O   0  0  0  0  0  1  0  0  0  0  0  0
  195.6840  173.3200  138.6030 C   0  0  0  0  0  2  0  0  0  0  0  0
  193.2920  173.2060  141.4830 C   0  0  0  0  0  2  0  0  0  0  0  0
  194.3050  174.1830  142.0450 C   0  0  0  0  0  2  0  0  0  0  0  0
  193.5870  175.2910  142.7270 C   0  0  0  0  0  0  0  0  0  0  0  0
  192.9070  175.0340  143.9610 N   0  0  0  0  0  2  0  0  0  0  0  0
  193.5510  176.4270  142.1870 O   0  0  0  0  0  0  0  0  0  0  0  0
  192.5580  176.1880  146.1530 C   0  0  0  0  0  2  0  0  0  0  0  0
  191.9140  175.2580  147.1800 C   0  0  0  0  0  2  0  0  0  0  0  0
  189.7630  177.0370  144.7750 C   0  0  0  0  0  3  0  0  0  0  0  0
  189.9720  174.5130  145.0280 C   0  0  0  0  0  2  0  0  0  0  0  0
  190.5730  175.8050  144.4650 C   0  0  2  0  0  3  0  0  0  0  0  0
  190.4110  175.5010  147.3580 C   0  0  1  0  0  3  0  0  0  0  0  0
  190.0150  176.9860  147.3230 C   0  0  0  0  0  2  0  0  0  0  0  0
  189.5130  177.5270  146.0010 C   0  0  0  0  0  3  0  0  0  0  0  0
  189.5320  174.5960  146.4930 C   0  0  0  0  0  2  0  0  0  0  0  0
  192.0810  175.9790  144.7120 C   0  0  2  0  0  3  0  0  0  0  0  0
  1  2  1  0  0  0  0
  1  7  1  6  0  0  0
  4  3  1  1  0  0  0
  4  2  1  0  0  0  0
  5 15  1  6  0  0  0
  5  6  1  0  0  0  0
  5  4  1  0  0  0  0
  6  1  1  0  0  0  0
  7  8  3  0  0  0  0
  8  9  1  0  0  0  0
 11 10  1  6  0  0  0
 11  9  1  0  0  0  0
 11 13  1  0  0  0  0
 12 13  2  0  0  0  0
 13 14  1  0  0  0  0
 16 15  3  0  0  0  0
 17 19  1  0  0  0  0
 17 16  1  0  0  0  0
 18 17  2  0  0  0  0
 19 23  1  0  0  0  0
 19 20  1  1  0  0  0
 21 23  1  0  0  0  0
 23 22  2  0  0  0  0
 24  4  1  0  0  0  0
 24 31  1  1  0  0  0
 25 26  1  1  0  0  0
 25 27  1  0  0  0  0
 25 24  1  0  0  0  0
 27 28  1  6  0  0  0
 29 30  1  0  0  0  0
 30 27  1  0  0  0  0
 31 32  1  0  0  0  0
 32 33  1  0  0  0  0
 33 34  1  0  0  0  0
 35 33  2  0  0  0  0
 36 37  1  0  0  0  0
 37 41  1  0  0  0  0
 38 43  2  0  0  0  0
 39 44  1  0  0  0  0
 40 45  1  0  0  0  0
 40 38  1  1  0  0  0
 40 39  1  0  0  0  0
 41 44  1  6  0  0  0
 42 41  1  0  0  0  0
 43 42  1  0  0  0  0
 45 34  1  1  0  0  0
 45 36  1  0  0  0  0
M  END
>  <MODEL>
3

>  <REMARK>
 VINA RESULT:      -5.6      2.749      3.861
  Name = 
  16 active torsions:
  status: ('A' for Active; 'I' for Inactive)
    1  A    between atoms: C_1  and  C_3
    2  A    between atoms: C_1  and  C_26
    3  A    between atoms: C_3  and  C_4
    4  A    between atoms: C_3  and  C_38
    5  A    between atoms: C_4  and  C_40
    6  A    between atoms: C_9  and  C_19
    7  A    between atoms: C_12  and  C_13
    8  A    between atoms: C_13  and  CA_39
    9  A    between atoms: C_15  and  C_41
   10  A    between atoms: C_16  and  C_40
   11  A    between atoms: C_17  and  C_21
   12  A    between atoms: C_21  and  C_27
   13  A    between atoms: C_22  and  C_26
   14  A    between atoms: N_24  and  C_44
   15  A    between atoms: C_27  and  C_33
   16  A    between atoms: C_28  and  CA_39
                            x       y       z     vdW  Elec       q    Type
                         _______ _______ _______ _____ _____    ______ ____

>  <TORSDO>
F 16

$$$$
=
 OpenBabel11062420453D

 45 47  0  0  1  0  0  0  0  0999 V2000
  188.9030  173.9530  140.8070 C   0  0  2  0  0  3  0  0  0  0  0  0
  189.9770  173.3280  141.2580 C   0  0  0  0  0  2  0  0  0  0  0  0
  190.3050  171.1240  140.3270 C   0  0  0  0  0  1  0  0  0  0  0  0
  190.7450  172.5870  140.2180 C   0  0  1  0  0  0  0  0  0  0  0  0
  190.3140  173.2280  138.8790 C   0  0  2  0  0  3  0  0  0  0  0  0
  188.6010  173.8180  139.0560 S   0  0  0  0  0  0  0  0  0  0  0  0
  188.0960  174.7780  141.6580 C   0  0  0  0  0  0  0  0  0  0  0  0
  187.4170  175.4730  142.3710 C   0  0  0  0  0  0  0  0  0  0  0  0
  186.5890  176.3180  143.2370 C   0  0  0  0  0  2  0  0  0  0  0  0
  186.3880  178.1310  141.6150 N   0  0  0  0  0  1  0  0  0  0  0  0
  186.8530  177.7880  142.9510 C   0  0  1  0  0  3  0  0  0  0  0  0
  185.7630  179.7960  143.6670 O   0  0  0  0  0  0  0  0  0  0  0  0
  186.1650  178.6400  143.9650 C   0  0  0  0  0  0  0  0  0  0  0  0
  185.9500  178.1450  145.2440 O   0  0  0  0  0  1  0  0  0  0  0  0
  190.4570  172.3460  137.7100 C   0  0  0  0  0  0  0  0  0  0  0  0
  190.5640  171.6470  136.7360 C   0  0  0  0  0  0  0  0  0  0  0  0
  190.6840  170.8260  135.5600 C   0  0  0  0  0  0  0  0  0  0  0  0
  190.0680  171.1530  134.5130 O   0  0  0  0  0  0  0  0  0  0  0  0
  191.5240  169.5870  135.5590 C   0  0  2  0  0  3  0  0  0  0  0  0
  191.1440  168.6540  136.6990 C   0  0  0  0  0  1  0  0  0  0  0  0
  193.5570  170.6510  134.5130 N   0  0  0  0  0  1  0  0  0  0  0  0
  193.7090  169.5450  136.5460 O   0  0  0  0  0  0  0  0  0  0  0  0
  192.9850  169.9070  135.5810 C   0  0  0  0  0  0  0  0  0  0  0  0
  192.2780  172.7070  140.4510 C   0  0  2  0  0  3  0  0  0  0  0  0
  193.0300  171.3550  140.4550 C   0  0  1  0  0  3  0  0  0  0  0  0
  193.9820  171.2970  139.4330 O   0  0  0  0  0  1  0  0  0  0  0  0
  193.6950  171.0520  141.8050 C   0  0  1  0  0  3  0  0  0  0  0  0
  193.1040  169.9370  142.4030 O   0  0  0  0  0  1  0  0  0  0  0  0
  195.8760  172.0230  142.1430 O   0  0  0  0  0  1  0  0  0  0  0  0
  195.2100  170.8740  141.7130 C   0  0  0  0  0  2  0  0  0  0  0  0
  192.5630  173.4600  141.7530 C   0  0  0  0  0  2  0  0  0  0  0  0
  193.2690  174.7690  141.4600 C   0  0  0  0  0  2  0  0  0  0  0  0
  192.9400  175.7500  142.5270 C   0  0  0  0  0  0  0  0  0  0  0  0
  192.0780  175.3570  143.6020 N   0  0  0  0  0  2  0  0  0  0  0  0
  193.3870  176.9230  142.4460 O   0  0  0  0  0  0  0  0  0  0  0  0
  192.4830  176.2200  145.9150 C   0  0  0  0  0  2  0  0  0  0  0  0
  192.1190  175.1790  146.9730 C   0  0  0  0  0  2  0  0  0  0  0  0
  189.4660  177.3200  145.5730 C   0  0  0  0  0  3  0  0  0  0  0  0
  189.5740  174.7790  145.4500 C   0  0  0  0  0  2  0  0  0  0  0  0
  190.0610  176.1180  144.8870 C   0  0  2  0  0  3  0  0  0  0  0  0
  190.7590  175.4370  147.6320 C   0  0  1  0  0  3  0  0  0  0  0  0
  190.4690  176.9240  147.8950 C   0  0  0  0  0  2  0  0  0  0  0  0
  189.6300  177.6480  146.8660 C   0  0  0  0  0  3  0  0  0  0  0  0
  189.6020  174.6790  146.9780 C   0  0  0  0  0  2  0  0  0  0  0  0
  191.5810  176.2160  144.6760 C   0  0  2  0  0  3  0  0  0  0  0  0
  1  2  1  0  0  0  0
  1  7  1  6  0  0  0
  4  3  1  1  0  0  0
  4 24  1  0  0  0  0
  4  2  1  0  0  0  0
  5 15  1  6  0  0  0
  5  6  1  0  0  0  0
  5  4  1  0  0  0  0
  6  1  1  0  0  0  0
  7  8  3  0  0  0  0
  8  9  1  0  0  0  0
 11 10  1  6  0  0  0
 11  9  1  0  0  0  0
 11 13  1  0  0  0  0
 12 13  2  0  0  0  0
 13 14  1  0  0  0  0
 16 15  3  0  0  0  0
 17 16  1  0  0  0  0
 18 17  2  0  0  0  0
 19 17  1  0  0  0  0
 19 23  1  0  0  0  0
 19 20  1  1  0  0  0
 21 23  1  0  0  0  0
 23 22  2  0  0  0  0
 24 25  1  0  0  0  0
 24 31  1  1  0  0  0
 25 26  1  6  0  0  0
 25 27  1  0  0  0  0
 27 28  1  6  0  0  0
 30 27  1  0  0  0  0
 30 29  1  0  0  0  0
 32 31  1  0  0  0  0
 32 33  1  0  0  0  0
 33 34  1  0  0  0  0
 35 33  2  0  0  0  0
 36 37  1  0  0  0  0
 38 43  2  0  0  0  0
 39 44  1  0  0  0  0
 40 39  1  1  0  0  0
 40 38  1  0  0  0  0
 41 37  1  6  0  0  0
 41 42  1  0  0  0  0
 43 42  1  0  0  0  0
 44 41  1  0  0  0  0
 45 34  1  6  0  0  0
 45 40  1  0  0  0  0
 45 36  1  0  0  0  0
M  END
>  <MODEL>
4

>  <REMARK>
 VINA RESULT:      -5.6      2.660      3.652
  Name = 
  16 active torsions:
  status: ('A' for Active; 'I' for Inactive)
    1  A    between atoms: C_1  and  C_3
    2  A    between atoms: C_1  and  C_26
    3  A    between atoms: C_3  and  C_4
    4  A    between atoms: C_3  and  C_38
    5  A    between atoms: C_4  and  C_40
    6  A    between atoms: C_9  and  C_19
    7  A    between atoms: C_12  and  C_13
    8  A    between atoms: C_13  and  CA_39
    9  A    between atoms: C_15  and  C_41
   10  A    between atoms: C_16  and  C_40
   11  A    between atoms: C_17  and  C_21
   12  A    between atoms: C_21  and  C_27
   13  A    between atoms: C_22  and  C_26
   14  A    between atoms: N_24  and  C_44
   15  A    between atoms: C_27  and  C_33
   16  A    between atoms: C_28  and  CA_39
                            x       y       z     vdW  Elec       q    Type
                         _______ _______ _______ _____ _____    ______ ____

>  <TORSDO>
F 16

$$$$
=
 OpenBabel11062420453D

 45 47  0  0  1  0  0  0  0  0999 V2000
  192.6060  173.1650  140.6640 C   0  0  2  0  0  3  0  0  0  0  0  0
  191.8740  173.4380  141.7310 C   0  0  0  0  0  2  0  0  0  0  0  0
  192.3790  172.0690  143.6550 C   0  0  0  0  0  1  0  0  0  0  0  0
  192.6290  173.4390  143.0160 C   0  0  1  0  0  0  0  0  0  0  0  0
  194.1060  173.6290  142.6040 C   0  0  2  0  0  3  0  0  0  0  0  0
  194.3400  172.8850  140.9590 S   0  0  0  0  0  0  0  0  0  0  0  0
  192.0540  173.2030  139.3400 C   0  0  0  0  0  0  0  0  0  0  0  0
  191.5930  173.2360  138.2270 C   0  0  0  0  0  0  0  0  0  0  0  0
  191.0350  173.2750  136.8730 C   0  0  0  0  0  2  0  0  0  0  0  0
  189.7630  171.2430  137.3330 N   0  0  0  0  0  1  0  0  0  0  0  0
  189.6670  172.6100  136.8450 C   0  0  1  0  0  3  0  0  0  0  0  0
  188.3360  174.5400  137.3340 O   0  0  0  0  0  0  0  0  0  0  0  0
  188.7020  173.3840  137.6800 C   0  0  0  0  0  0  0  0  0  0  0  0
  188.1900  172.8180  138.8390 O   0  0  0  0  0  1  0  0  0  0  0  0
  195.0800  173.1000  143.5720 C   0  0  0  0  0  0  0  0  0  0  0  0
  195.8550  172.6660  144.3850 C   0  0  0  0  0  0  0  0  0  0  0  0
  196.7660  172.1470  145.3710 C   0  0  0  0  0  0  0  0  0  0  0  0
  197.1830  172.9040  146.2850 O   0  0  0  0  0  0  0  0  0  0  0  0
  197.2300  170.7240  145.3280 C   0  0  2  0  0  3  0  0  0  0  0  0
  197.5480  170.2830  143.9070 C   0  0  0  0  0  1  0  0  0  0  0  0
  195.1200  169.3460  145.2450 N   0  0  0  0  0  1  0  0  0  0  0  0
  196.4290  169.4020  147.1600 O   0  0  0  0  0  0  0  0  0  0  0  0
  196.2500  169.8000  145.9790 C   0  0  0  0  0  0  0  0  0  0  0  0
  192.1390  174.5710  143.9620 C   0  0  2  0  0  3  0  0  0  0  0  0
  191.8920  174.1210  145.4210 C   0  0  1  0  0  3  0  0  0  0  0  0
  193.0580  174.2080  146.1870 O   0  0  0  0  0  1  0  0  0  0  0  0
  190.7620  174.9080  146.1000 C   0  0  1  0  0  3  0  0  0  0  0  0
  189.5900  174.1510  146.1360 O   0  0  0  0  0  1  0  0  0  0  0  0
  191.1460  176.8060  147.5360 O   0  0  0  0  0  1  0  0  0  0  0  0
  191.1210  175.4110  147.4970 C   0  0  0  0  0  2  0  0  0  0  0  0
  190.8740  175.2260  143.4020 C   0  0  0  0  0  2  0  0  0  0  0  0
  191.1660  176.6460  142.9610 C   0  0  0  0  0  2  0  0  0  0  0  0
  190.3350  177.5850  143.7590 C   0  0  0  0  0  0  0  0  0  0  0  0
  189.0690  177.1470  144.2650 N   0  0  0  0  0  2  0  0  0  0  0  0
  190.7370  178.7640  143.9380 O   0  0  0  0  0  0  0  0  0  0  0  0
  188.1280  177.7560  146.5020 C   0  0  0  0  0  2  0  0  0  0  0  0
  187.1790  176.6780  147.0230 C   0  0  0  0  0  2  0  0  0  0  0  0
  185.8960  179.2240  144.6870 C   0  0  0  0  0  3  0  0  0  0  0  0
  185.9340  176.7070  144.3010 C   0  0  0  0  0  2  0  0  0  0  0  0
  186.7180  178.0240  144.2940 C   0  0  2  0  0  3  0  0  0  0  0  0
  185.6990  177.0360  146.8380 C   0  0  1  0  0  3  0  0  0  0  0  0
  185.3820  178.5180  147.0940 C   0  0  0  0  0  2  0  0  0  0  0  0
  185.3110  179.4200  145.8810 C   0  0  0  0  0  3  0  0  0  0  0  0
  185.0840  176.4750  145.5540 C   0  0  0  0  0  2  0  0  0  0  0  0
  188.0910  177.9630  144.9840 C   0  0  2  0  0  3  0  0  0  0  0  0
  1  7  1  6  0  0  0
  1  6  1  0  0  0  0
  1  2  1  0  0  0  0
  2  4  1  0  0  0  0
  4  3  1  1  0  0  0
  4 24  1  0  0  0  0
  5  4  1  0  0  0  0
  5 15  1  1  0  0  0
  6  5  1  0  0  0  0
  8  7  3  0  0  0  0
  9  8  1  0  0  0  0
 11  9  1  0  0  0  0
 11 10  1  1  0  0  0
 11 13  1  0  0  0  0
 12 13  2  0  0  0  0
 13 14  1  0  0  0  0
 15 16  3  0  0  0  0
 16 17  1  0  0  0  0
 17 18  2  0  0  0  0
 19 20  1  6  0  0  0
 19 17  1  0  0  0  0
 19 23  1  0  0  0  0
 21 23  1  0  0  0  0
 23 22  2  0  0  0  0
 24 31  1  6  0  0  0
 24 25  1  0  0  0  0
 25 27  1  0  0  0  0
 25 26  1  1  0  0  0
 27 28  1  1  0  0  0
 27 30  1  0  0  0  0
 30 29  1  0  0  0  0
 32 31  1  0  0  0  0
 32 33  1  0  0  0  0
 33 35  2  0  0  0  0
 33 34  1  0  0  0  0
 36 37  1  0  0  0  0
 38 43  2  0  0  0  0
 39 44  1  0  0  0  0
 40 39  1  1  0  0  0
 40 38  1  0  0  0  0
 40 45  1  0  0  0  0
 41 44  1  6  0  0  0
 41 37  1  0  0  0  0
 41 42  1  0  0  0  0
 43 42  1  0  0  0  0
 45 34  1  6  0  0  0
 45 36  1  0  0  0  0
M  END
>  <MODEL>
5

>  <REMARK>
 VINA RESULT:      -5.6      3.321      5.496
  Name = 
  16 active torsions:
  status: ('A' for Active; 'I' for Inactive)
    1  A    between atoms: C_1  and  C_3
    2  A    between atoms: C_1  and  C_26
    3  A    between atoms: C_3  and  C_4
    4  A    between atoms: C_3  and  C_38
    5  A    between atoms: C_4  and  C_40
    6  A    between atoms: C_9  and  C_19
    7  A    between atoms: C_12  and  C_13
    8  A    between atoms: C_13  and  CA_39
    9  A    between atoms: C_15  and  C_41
   10  A    between atoms: C_16  and  C_40
   11  A    between atoms: C_17  and  C_21
   12  A    between atoms: C_21  and  C_27
   13  A    between atoms: C_22  and  C_26
   14  A    between atoms: N_24  and  C_44
   15  A    between atoms: C_27  and  C_33
   16  A    between atoms: C_28  and  CA_39
                            x       y       z     vdW  Elec       q    Type
                         _______ _______ _______ _____ _____    ______ ____

>  <TORSDO>
F 16

$$$$
=
 OpenBabel11062420453D

 45 47  0  0  1  0  0  0  0  0999 V2000
  188.8310  176.1050  145.3710 C   0  0  2  0  0  3  0  0  0  0  0  0
  188.9300  175.6500  144.1340 C   0  0  0  0  0  2  0  0  0  0  0  0
  190.8980  176.4060  142.9560 C   0  0  0  0  0  1  0  0  0  0  0  0
  190.3040  175.2300  143.7370 C   0  0  1  0  0  0  0  0  0  0  0  0
  191.0410  174.9850  145.0730 C   0  0  2  0  0  3  0  0  0  0  0  0
  190.3340  176.0980  146.3280 S   0  0  0  0  0  0  0  0  0  0  0  0
  187.5670  176.4760  145.9400 C   0  0  0  0  0  0  0  0  0  0  0  0
  186.5050  176.7890  146.4160 C   0  0  0  0  0  0  0  0  0  0  0  0
  185.2130  177.1700  146.9920 C   0  0  0  0  0  2  0  0  0  0  0  0
  186.0510  179.4070  147.4920 N   0  0  0  0  0  1  0  0  0  0  0  0
  184.9830  178.6650  146.8380 C   0  0  1  0  0  3  0  0  0  0  0  0
  183.9460  178.6660  144.6800 O   0  0  0  0  0  0  0  0  0  0  0  0
  184.9210  179.0290  145.3920 C   0  0  0  0  0  0  0  0  0  0  0  0
  185.9370  179.7900  144.8320 O   0  0  0  0  0  1  0  0  0  0  0  0
  192.5030  175.1280  144.9950 C   0  0  0  0  0  0  0  0  0  0  0  0
  193.6970  175.2670  144.9120 C   0  0  0  0  0  0  0  0  0  0  0  0
  195.1200  175.4470  144.7960 C   0  0  0  0  0  0  0  0  0  0  0  0
  195.6150  176.5890  144.9780 O   0  0  0  0  0  0  0  0  0  0  0  0
  196.0230  174.3000  144.4580 C   0  0  2  0  0  3  0  0  0  0  0  0
  195.4840  173.4910  143.2890 C   0  0  0  0  0  1  0  0  0  0  0  0
  195.6370  172.1700  145.7520 N   0  0  0  0  0  1  0  0  0  0  0  0
  197.0910  173.7950  146.5450 O   0  0  0  0  0  0  0  0  0  0  0  0
  196.2850  173.4320  145.6480 C   0  0  0  0  0  0  0  0  0  0  0  0
  190.2730  173.9550  142.8480 C   0  0  2  0  0  3  0  0  0  0  0  0
  190.4520  172.6300  143.6270 C   0  0  1  0  0  3  0  0  0  0  0  0
  189.3290  171.8070  143.4990 O   0  0  0  0  0  1  0  0  0  0  0  0
  191.7130  171.8610  143.2040 C   0  0  1  0  0  3  0  0  0  0  0  0
  192.5480  171.6490  144.3020 O   0  0  0  0  0  1  0  0  0  0  0  0
  192.2670  169.5300  142.9350 O   0  0  0  0  0  1  0  0  0  0  0  0
  191.4140  170.5430  142.4930 C   0  0  0  0  0  2  0  0  0  0  0  0
  191.3260  174.0500  141.7410 C   0  0  0  0  0  2  0  0  0  0  0  0
  190.7230  173.6600  140.4060 C   0  0  0  0  0  2  0  0  0  0  0  0
  191.7960  173.6260  139.3780 C   0  0  0  0  0  0  0  0  0  0  0  0
  193.1670  173.6090  139.7930 N   0  0  0  0  0  2  0  0  0  0  0  0
  191.4830  173.6580  138.1600 O   0  0  0  0  0  0  0  0  0  0  0  0
  195.2480  172.4400  139.0430 C   0  0  0  0  0  2  0  0  0  0  0  0
  196.3680  172.5760  140.0730 C   0  0  0  0  0  2  0  0  0  0  0  0
  195.8310  175.2890  137.6390 C   0  0  0  0  0  3  0  0  0  0  0  0
  195.6860  175.4880  140.1730 C   0  0  0  0  0  2  0  0  0  0  0  0
  194.9990  175.0560  138.8730 C   0  0  2  0  0  3  0  0  0  0  0  0
  197.4070  173.6400  139.7000 C   0  0  1  0  0  3  0  0  0  0  0  0
  197.7430  173.6810  138.2010 C   0  0  0  0  0  2  0  0  0  0  0  0
  197.0130  174.7120  137.3660 C   0  0  0  0  0  3  0  0  0  0  0  0
  197.1350  175.0120  140.3200 C   0  0  0  0  0  2  0  0  0  0  0  0
  194.3390  173.6680  138.9210 C   0  0  2  0  0  3  0  0  0  0  0  0
  1  7  1  1  0  0  0
  1  6  1  0  0  0  0
  2  1  1  0  0  0  0
  4  3  1  6  0  0  0
  4  2  1  0  0  0  0
  4  5  1  0  0  0  0
  5 15  1  6  0  0  0
  5  6  1  0  0  0  0
  7  8  3  0  0  0  0
  8  9  1  0  0  0  0
 11  9  1  0  0  0  0
 11 10  1  6  0  0  0
 12 13  2  0  0  0  0
 13 11  1  0  0  0  0
 14 13  1  0  0  0  0
 16 15  3  0  0  0  0
 17 16  1  0  0  0  0
 17 18  2  0  0  0  0
 19 20  1  6  0  0  0
 19 17  1  0  0  0  0
 19 23  1  0  0  0  0
 23 21  1  0  0  0  0
 23 22  2  0  0  0  0
 24 31  1  6  0  0  0
 24 25  1  0  0  0  0
 24  4  1  0  0  0  0
 25 26  1  6  0  0  0
 27 25  1  0  0  0  0
 27 28  1  1  0  0  0
 30 29  1  0  0  0  0
 30 27  1  0  0  0  0
 32 31  1  0  0  0  0
 33 34  1  0  0  0  0
 33 32  1  0  0  0  0
 35 33  2  0  0  0  0
 36 37  1  0  0  0  0
 39 44  1  0  0  0  0
 40 38  1  6  0  0  0
 40 45  1  0  0  0  0
 40 39  1  0  0  0  0
 41 42  1  6  0  0  0
 41 37  1  0  0  0  0
 41 44  1  0  0  0  0
 43 38  2  0  0  0  0
 43 42  1  0  0  0  0
 45 36  1  0  0  0  0
 45 34  1  1  0  0  0
M  END
>  <MODEL>
6

>  <REMARK>
 VINA RESULT:      -5.6      3.665      7.840
  Name = 
  16 active torsions:
  status: ('A' for Active; 'I' for Inactive)
    1  A    between atoms: C_1  and  C_3
    2  A    between atoms: C_1  and  C_26
    3  A    between atoms: C_3  and  C_4
    4  A    between atoms: C_3  and  C_38
    5  A    between atoms: C_4  and  C_40
    6  A    between atoms: C_9  and  C_19
    7  A    between atoms: C_12  and  C_13
    8  A    between atoms: C_13  and  CA_39
    9  A    between atoms: C_15  and  C_41
   10  A    between atoms: C_16  and  C_40
   11  A    between atoms: C_17  and  C_21
   12  A    between atoms: C_21  and  C_27
   13  A    between atoms: C_22  and  C_26
   14  A    between atoms: N_24  and  C_44
   15  A    between atoms: C_27  and  C_33
   16  A    between atoms: C_28  and  CA_39
                            x       y       z     vdW  Elec       q    Type
                         _______ _______ _______ _____ _____    ______ ____

>  <TORSDO>
F 16

$$$$
=
 OpenBabel11062420453D

 45 47  0  0  1  0  0  0  0  0999 V2000
  188.9510  174.7800  141.5670 C   0  0  2  0  0  3  0  0  0  0  0  0
  189.9760  175.3310  142.1940 C   0  0  0  0  0  2  0  0  0  0  0  0
  189.7230  177.6960  142.6160 C   0  0  0  0  0  1  0  0  0  0  0  0
  189.5990  176.3090  143.2540 C   0  0  1  0  0  0  0  0  0  0  0  0
  188.1360  175.9590  143.6100 C   0  0  2  0  0  3  0  0  0  0  0  0
  187.3340  175.2810  142.1230 S   0  0  0  0  0  0  0  0  0  0  0  0
  189.1340  173.7600  140.5750 C   0  0  0  0  0  0  0  0  0  0  0  0
  189.2890  172.9010  139.7430 C   0  0  0  0  0  0  0  0  0  0  0  0
  189.4750  171.8550  138.7340 C   0  0  0  0  0  2  0  0  0  0  0  0
  190.4420  169.6320  139.0200 N   0  0  0  0  0  1  0  0  0  0  0  0
  190.7370  171.0570  139.0260 C   0  0  1  0  0  3  0  0  0  0  0  0
  191.7270  172.4220  137.3260 O   0  0  0  0  0  0  0  0  0  0  0  0
  191.7860  171.3650  138.0100 C   0  0  0  0  0  0  0  0  0  0  0  0
  192.8450  170.4870  137.8300 O   0  0  0  0  0  1  0  0  0  0  0  0
  187.3620  177.0790  144.1690 C   0  0  0  0  0  0  0  0  0  0  0  0
  186.7310  177.9820  144.6540 C   0  0  0  0  0  0  0  0  0  0  0  0
  185.9750  179.0510  145.2510 C   0  0  0  0  0  0  0  0  0  0  0  0
  185.7670  180.1030  144.5930 O   0  0  0  0  0  0  0  0  0  0  0  0
  185.4330  178.9370  146.6430 C   0  0  2  0  0  3  0  0  0  0  0  0
  186.2710  179.7290  147.6340 C   0  0  0  0  0  1  0  0  0  0  0  0
  186.0960  177.0080  148.1250 N   0  0  0  0  0  1  0  0  0  0  0  0
  184.4440  176.7570  146.5150 O   0  0  0  0  0  0  0  0  0  0  0  0
  185.2880  177.5100  147.0670 C   0  0  0  0  0  0  0  0  0  0  0  0
  190.5380  176.1990  144.4880 C   0  0  2  0  0  3  0  0  0  0  0  0
  189.8010  176.1120  145.8460 C   0  0  1  0  0  3  0  0  0  0  0  0
  189.8950  174.8300  146.3960 O   0  0  0  0  0  1  0  0  0  0  0  0
  190.3000  177.1530  146.8580 C   0  0  1  0  0  3  0  0  0  0  0  0
  189.2370  177.9180  147.3390 O   0  0  0  0  0  1  0  0  0  0  0  0
  191.5650  177.5420  148.8740 O   0  0  0  0  0  1  0  0  0  0  0  0
  191.0940  176.5470  148.0150 C   0  0  0  0  0  2  0  0  0  0  0  0
  191.5280  177.3670  144.5120 C   0  0  0  0  0  2  0  0  0  0  0  0
  192.9430  176.8540  144.6900 C   0  0  0  0  0  2  0  0  0  0  0  0
  193.2540  175.8900  143.6030 C   0  0  0  0  0  0  0  0  0  0  0  0
  193.3440  174.4930  143.9060 N   0  0  0  0  0  2  0  0  0  0  0  0
  193.4760  176.3220  142.4420 O   0  0  0  0  0  0  0  0  0  0  0  0
  192.6080  173.0280  142.0160 C   0  0  0  0  0  2  0  0  0  0  0  0
  191.7190  171.8860  142.5070 C   0  0  0  0  0  2  0  0  0  0  0  0
  195.3810  171.5100  142.6780 C   0  0  0  0  0  3  0  0  0  0  0  0
  193.7660  171.4440  144.6450 C   0  0  0  0  0  2  0  0  0  0  0  0
  194.5460  172.3060  143.6460 C   0  0  2  0  0  3  0  0  0  0  0  0
  192.4610  170.5490  142.6220 C   0  0  1  0  0  3  0  0  0  0  0  0
  193.4660  170.2970  141.4860 C   0  0  0  0  0  2  0  0  0  0  0  0
  194.9130  170.6380  141.7680 C   0  0  0  0  0  3  0  0  0  0  0  0
  193.0110  170.2660  144.0210 C   0  0  0  0  0  2  0  0  0  0  0  0
  193.7290  173.4270  142.9830 C   0  0  2  0  0  3  0  0  0  0  0  0
  1  7  1  1  0  0  0
  1  6  1  0  0  0  0
  1  2  1  0  0  0  0
  2  4  1  0  0  0  0
  4  3  1  6  0  0  0
  4  5  1  0  0  0  0
  4 24  1  0  0  0  0
  5 15  1  6  0  0  0
  6  5  1  0  0  0  0
  8  7  3  0  0  0  0
  9 11  1  0  0  0  0
  9  8  1  0  0  0  0
 11 10  1  6  0  0  0
 12 13  2  0  0  0  0
 13 11  1  0  0  0  0
 14 13  1  0  0  0  0
 15 16  3  0  0  0  0
 16 17  1  0  0  0  0
 17 19  1  0  0  0  0
 18 17  2  0  0  0  0
 19 23  1  0  0  0  0
 19 20  1  1  0  0  0
 22 23  2  0  0  0  0
 23 21  1  0  0  0  0
 24 31  1  1  0  0  0
 24 25  1  0  0  0  0
 25 26  1  1  0  0  0
 25 27  1  0  0  0  0
 27 28  1  1  0  0  0
 27 30  1  0  0  0  0
 30 29  1  0  0  0  0
 31 32  1  0  0  0  0
 33 34  1  0  0  0  0
 33 32  1  0  0  0  0
 35 33  2  0  0  0  0
 36 37  1  0  0  0  0
 36 45  1  0  0  0  0
 37 41  1  0  0  0  0
 40 38  1  6  0  0  0
 40 39  1  0  0  0  0
 41 42  1  6  0  0  0
 41 44  1  0  0  0  0
 42 43  1  0  0  0  0
 43 38  2  0  0  0  0
 44 39  1  0  0  0  0
 45 40  1  0  0  0  0
 45 34  1  1  0  0  0
M  END
>  <MODEL>
7

>  <REMARK>
 VINA RESULT:      -5.6      2.813      8.822
  Name = 
  16 active torsions:
  status: ('A' for Active; 'I' for Inactive)
    1  A    between atoms: C_1  and  C_3
    2  A    between atoms: C_1  and  C_26
    3  A    between atoms: C_3  and  C_4
    4  A    between atoms: C_3  and  C_38
    5  A    between atoms: C_4  and  C_40
    6  A    between atoms: C_9  and  C_19
    7  A    between atoms: C_12  and  C_13
    8  A    between atoms: C_13  and  CA_39
    9  A    between atoms: C_15  and  C_41
   10  A    between atoms: C_16  and  C_40
   11  A    between atoms: C_17  and  C_21
   12  A    between atoms: C_21  and  C_27
   13  A    between atoms: C_22  and  C_26
   14  A    between atoms: N_24  and  C_44
   15  A    between atoms: C_27  and  C_33
   16  A    between atoms: C_28  and  CA_39
                            x       y       z     vdW  Elec       q    Type
                         _______ _______ _______ _____ _____    ______ ____

>  <TORSDO>
F 16

$$$$
=
 OpenBabel11062420453D

 45 47  0  0  1  0  0  0  0  0999 V2000
  188.1400  174.9350  141.9380 C   0  0  2  0  0  3  0  0  0  0  0  0
  189.1140  174.3910  142.6470 C   0  0  0  0  0  2  0  0  0  0  0  0
  189.7150  172.1570  141.9560 C   0  0  0  0  0  1  0  0  0  0  0  0
  190.1140  173.6310  141.8450 C   0  0  1  0  0  0  0  0  0  0  0  0
  189.9570  174.1720  140.4060 C   0  0  2  0  0  3  0  0  0  0  0  0
  188.2260  174.6860  140.1750 S   0  0  0  0  0  0  0  0  0  0  0  0
  187.1390  175.7660  142.5410 C   0  0  0  0  0  0  0  0  0  0  0  0
  186.2960  176.4630  143.0480 C   0  0  0  0  0  0  0  0  0  0  0  0
  185.2710  177.3070  143.6670 C   0  0  0  0  0  2  0  0  0  0  0  0
  185.5580  179.6890  144.1190 N   0  0  0  0  0  1  0  0  0  0  0  0
  185.9170  178.3510  144.5650 C   0  0  1  0  0  3  0  0  0  0  0  0
  185.5100  179.1060  146.8010 O   0  0  0  0  0  1  0  0  0  0  0  0
  185.4830  178.1510  145.9790 C   0  0  0  0  0  0  0  0  0  0  0  0
  185.0290  176.9040  146.3870 O   0  0  0  0  0  0  0  0  0  0  0  0
  190.3800  173.2330  139.3550 C   0  0  0  0  0  0  0  0  0  0  0  0
  190.7500  172.4820  138.4890 C   0  0  0  0  0  0  0  0  0  0  0  0
  191.2060  171.5990  137.4490 C   0  0  0  0  0  0  0  0  0  0  0  0
  191.6740  172.0850  136.3870 O   0  0  0  0  0  0  0  0  0  0  0  0
  191.1310  170.1110  137.6040 C   0  0  2  0  0  3  0  0  0  0  0  0
  189.6900  169.6280  137.6570 C   0  0  0  0  0  1  0  0  0  0  0  0
  191.2180  169.1580  139.9370 N   0  0  0  0  0  1  0  0  0  0  0  0
  193.1690  169.6340  138.7740 O   0  0  0  0  0  0  0  0  0  0  0  0
  191.9090  169.6370  138.7900 C   0  0  0  0  0  0  0  0  0  0  0  0
  191.5560  173.8400  142.3900 C   0  0  2  0  0  3  0  0  0  0  0  0
  192.4030  174.8510  141.5810 C   0  0  1  0  0  3  0  0  0  0  0  0
  192.7050  175.9850  142.3390 O   0  0  0  0  0  1  0  0  0  0  0  0
  193.6960  174.2310  141.0310 C   0  0  1  0  0  3  0  0  0  0  0  0
  193.6630  174.1860  139.6360 O   0  0  0  0  0  1  0  0  0  0  0  0
  195.4940  175.7550  140.5210 O   0  0  0  0  0  1  0  0  0  0  0  0
  194.9630  174.9330  141.5170 C   0  0  0  0  0  2  0  0  0  0  0  0
  192.2930  172.5010  142.4780 C   0  0  0  0  0  2  0  0  0  0  0  0
  192.0550  171.8570  143.8290 C   0  0  0  0  0  2  0  0  0  0  0  0
  192.1040  172.9020  144.8840 C   0  0  0  0  0  0  0  0  0  0  0  0
  190.8810  173.4410  145.3980 N   0  0  0  0  0  2  0  0  0  0  0  0
  193.2210  173.3290  145.2770 O   0  0  0  0  0  0  0  0  0  0  0  0
  189.3160  174.7220  146.8710 C   0  0  0  0  0  2  0  0  0  0  0  0
  188.4820  175.7200  146.0680 C   0  0  0  0  0  2  0  0  0  0  0  0
  191.8690  176.6790  147.1580 C   0  0  0  0  0  3  0  0  0  0  0  0
  191.0430  176.5360  144.7530 C   0  0  0  0  0  2  0  0  0  0  0  0
  191.5570  175.7850  145.9860 C   0  0  2  0  0  3  0  0  0  0  0  0
  188.9960  177.1600  146.1730 C   0  0  1  0  0  3  0  0  0  0  0  0
  189.4940  177.5400  147.5770 C   0  0  0  0  0  2  0  0  0  0  0  0
  190.9840  177.4420  147.8220 C   0  0  0  0  0  3  0  0  0  0  0  0
  189.9430  177.5620  145.0420 C   0  0  0  0  0  2  0  0  0  0  0  0
  190.7490  174.5320  146.3630 C   0  0  2  0  0  3  0  0  0  0  0  0
  1  7  1  6  0  0  0
  1  2  1  0  0  0  0
  4  3  1  1  0  0  0
  4 24  1  0  0  0  0
  4  2  1  0  0  0  0
  5 15  1  6  0  0  0
  5  4  1  0  0  0  0
  6  5  1  0  0  0  0
  6  1  1  0  0  0  0
  7  8  3  0  0  0  0
  8  9  1  0  0  0  0
  9 11  1  0  0  0  0
 11 10  1  6  0  0  0
 11 13  1  0  0  0  0
 13 14  2  0  0  0  0
 13 12  1  0  0  0  0
 16 15  3  0  0  0  0
 17 19  1  0  0  0  0
 17 16  1  0  0  0  0
 18 17  2  0  0  0  0
 19 20  1  1  0  0  0
 19 23  1  0  0  0  0
 22 23  2  0  0  0  0
 23 21  1  0  0  0  0
 24 31  1  6  0  0  0
 25 26  1  1  0  0  0
 25 24  1  0  0  0  0
 27 28  1  6  0  0  0
 27 30  1  0  0  0  0
 27 25  1  0  0  0  0
 29 30  1  0  0  0  0
 31 32  1  0  0  0  0
 32 33  1  0  0  0  0
 33 35  2  0  0  0  0
 33 34  1  0  0  0  0
 37 41  1  0  0  0  0
 37 36  1  0  0  0  0
 38 43  2  0  0  0  0
 39 44  1  0  0  0  0
 40 39  1  6  0  0  0
 40 45  1  0  0  0  0
 40 38  1  0  0  0  0
 41 44  1  6  0  0  0
 41 42  1  0  0  0  0
 42 43  1  0  0  0  0
 45 34  1  6  0  0  0
 45 36  1  0  0  0  0
M  END
>  <MODEL>
8

>  <REMARK>
 VINA RESULT:      -5.5      2.337      3.710
  Name = 
  16 active torsions:
  status: ('A' for Active; 'I' for Inactive)
    1  A    between atoms: C_1  and  C_3
    2  A    between atoms: C_1  and  C_26
    3  A    between atoms: C_3  and  C_4
    4  A    between atoms: C_3  and  C_38
    5  A    between atoms: C_4  and  C_40
    6  A    between atoms: C_9  and  C_19
    7  A    between atoms: C_12  and  C_13
    8  A    between atoms: C_13  and  CA_39
    9  A    between atoms: C_15  and  C_41
   10  A    between atoms: C_16  and  C_40
   11  A    between atoms: C_17  and  C_21
   12  A    between atoms: C_21  and  C_27
   13  A    between atoms: C_22  and  C_26
   14  A    between atoms: N_24  and  C_44
   15  A    between atoms: C_27  and  C_33
   16  A    between atoms: C_28  and  CA_39
                            x       y       z     vdW  Elec       q    Type
                         _______ _______ _______ _____ _____    ______ ____

>  <TORSDO>
F 16

$$$$
=
 OpenBabel11062420453D

 45 47  0  0  1  0  0  0  0  0999 V2000
  190.6270  173.8440  142.1700 C   0  0  2  0  0  3  0  0  0  0  0  0
  190.7220  174.5480  143.2850 C   0  0  0  0  0  2  0  0  0  0  0  0
  189.9890  176.8390  143.0760 C   0  0  0  0  0  1  0  0  0  0  0  0
  189.5630  175.4470  143.5510 C   0  0  1  0  0  0  0  0  0  0  0  0
  188.4120  174.8670  142.6990 C   0  0  2  0  0  3  0  0  0  0  0  0
  189.1340  174.0780  141.2260 S   0  0  0  0  0  0  0  0  0  0  0  0
  191.6160  172.8720  141.8040 C   0  0  0  0  0  0  0  0  0  0  0  0
  192.4480  172.0560  141.4980 C   0  0  0  0  0  0  0  0  0  0  0  0
  193.4600  171.0620  141.1290 C   0  0  0  0  0  2  0  0  0  0  0  0
  192.0420  169.3610  142.1550 N   0  0  0  0  0  1  0  0  0  0  0  0
  192.8220  169.6910  140.9710 C   0  0  1  0  0  3  0  0  0  0  0  0
  192.3970  170.0180  138.6380 O   0  0  0  0  0  0  0  0  0  0  0  0
  191.9480  169.6660  139.7610 C   0  0  0  0  0  0  0  0  0  0  0  0
  190.6340  169.2330  139.8730 O   0  0  0  0  0  1  0  0  0  0  0  0
  187.3780  175.8460  142.3280 C   0  0  0  0  0  0  0  0  0  0  0  0
  186.5530  176.6670  142.0200 C   0  0  0  0  0  0  0  0  0  0  0  0
  185.5820  177.6640  141.6530 C   0  0  0  0  0  0  0  0  0  0  0  0
  185.7360  178.3130  140.5870 O   0  0  0  0  0  0  0  0  0  0  0  0
  184.3920  177.9450  142.5180 C   0  0  2  0  0  3  0  0  0  0  0  0
  183.1670  178.2910  141.6860 C   0  0  0  0  0  1  0  0  0  0  0  0
  183.7300  179.2790  144.5530 N   0  0  0  0  0  1  0  0  0  0  0  0
  185.7650  179.6470  143.5010 O   0  0  0  0  0  0  0  0  0  0  0  0
  184.6800  179.0070  143.5310 C   0  0  0  0  0  0  0  0  0  0  0  0
  189.2060  175.4800  145.0640 C   0  0  2  0  0  3  0  0  0  0  0  0
  188.7800  176.8720  145.5880 C   0  0  1  0  0  3  0  0  0  0  0  0
  188.5830  177.7740  144.5390 O   0  0  0  0  0  1  0  0  0  0  0  0
  187.5250  176.8130  146.4700 C   0  0  1  0  0  3  0  0  0  0  0  0
  187.4690  177.9200  147.3180 O   0  0  0  0  0  1  0  0  0  0  0  0
  185.1140  176.7870  146.5120 O   0  0  0  0  0  1  0  0  0  0  0  0
  186.2270  176.6780  145.6760 C   0  0  0  0  0  2  0  0  0  0  0  0
  190.3720  174.9480  145.9000 C   0  0  0  0  0  2  0  0  0  0  0  0
  190.9350  176.0470  146.7800 C   0  0  0  0  0  2  0  0  0  0  0  0
  192.4050  176.1290  146.5770 C   0  0  0  0  0  0  0  0  0  0  0  0
  193.0070  175.4030  145.4990 N   0  0  0  0  0  2  0  0  0  0  0  0
  193.1020  176.7990  147.3820 O   0  0  0  0  0  0  0  0  0  0  0  0
  194.8080  175.7520  143.7970 C   0  0  0  0  0  2  0  0  0  0  0  0
  194.8150  174.6360  142.7530 C   0  0  0  0  0  2  0  0  0  0  0  0
  196.5690  174.1110  145.9500 C   0  0  0  0  0  3  0  0  0  0  0  0
  194.6340  172.7250  145.0480 C   0  0  0  0  0  2  0  0  0  0  0  0
  195.0790  174.0110  145.7540 C   0  0  2  0  0  3  0  0  0  0  0  0
  195.9090  173.5890  142.9930 C   0  0  1  0  0  3  0  0  0  0  0  0
  197.2400  174.1840  143.4800 C   0  0  0  0  0  2  0  0  0  0  0  0
  197.4900  174.1660  144.9730 C   0  0  0  0  0  3  0  0  0  0  0  0
  195.4360  172.3730  143.7920 C   0  0  0  0  0  2  0  0  0  0  0  0
  194.4380  175.3000  145.2140 C   0  0  2  0  0  3  0  0  0  0  0  0
  1  7  1  1  0  0  0
  1  2  1  0  0  0  0
  2  4  1  0  0  0  0
  4  3  1  6  0  0  0
  4 24  1  0  0  0  0
  5 15  1  6  0  0  0
  5  4  1  0  0  0  0
  6  1  1  0  0  0  0
  6  5  1  0  0  0  0
  8  7  3  0  0  0  0
  9  8  1  0  0  0  0
 11  9  1  0  0  0  0
 11 10  1  1  0  0  0
 12 13  2  0  0  0  0
 13 14  1  0  0  0  0
 13 11  1  0  0  0  0
 16 15  3  0  0  0  0
 17 16  1  0  0  0  0
 17 19  1  0  0  0  0
 18 17  2  0  0  0  0
 19 20  1  6  0  0  0
 19 23  1  0  0  0  0
 22 23  2  0  0  0  0
 23 21  1  0  0  0  0
 24 25  1  0  0  0  0
 24 31  1  1  0  0  0
 25 26  1  6  0  0  0
 25 27  1  0  0  0  0
 27 28  1  6  0  0  0
 30 27  1  0  0  0  0
 30 29  1  0  0  0  0
 31 32  1  0  0  0  0
 33 32  1  0  0  0  0
 33 35  2  0  0  0  0
 34 33  1  0  0  0  0
 36 45  1  0  0  0  0
 37 36  1  0  0  0  0
 40 39  1  6  0  0  0
 40 38  1  0  0  0  0
 41 37  1  1  0  0  0
 41 42  1  0  0  0  0
 41 44  1  0  0  0  0
 42 43  1  0  0  0  0
 43 38  2  0  0  0  0
 44 39  1  0  0  0  0
 45 34  1  6  0  0  0
 45 40  1  0  0  0  0
M  END
>  <MODEL>
9

>  <REMARK>
 VINA RESULT:      -5.5      2.584      8.992
  Name = 
  16 active torsions:
  status: ('A' for Active; 'I' for Inactive)
    1  A    between atoms: C_1  and  C_3
    2  A    between atoms: C_1  and  C_26
    3  A    between atoms: C_3  and  C_4
    4  A    between atoms: C_3  and  C_38
    5  A    between atoms: C_4  and  C_40
    6  A    between atoms: C_9  and  C_19
    7  A    between atoms: C_12  and  C_13
    8  A    between atoms: C_13  and  CA_39
    9  A    between atoms: C_15  and  C_41
   10  A    between atoms: C_16  and  C_40
   11  A    between atoms: C_17  and  C_21
   12  A    between atoms: C_21  and  C_27
   13  A    between atoms: C_22  and  C_26
   14  A    between atoms: N_24  and  C_44
   15  A    between atoms: C_27  and  C_33
   16  A    between atoms: C_28  and  CA_39
                            x       y       z     vdW  Elec       q    Type
                         _______ _______ _______ _____ _____    ______ ____

>  <TORSDO>
F 16

$$$$
