=
 OpenBabel11062420373D

 32 35  0  0  1  0  0  0  0  0999 V2000
  192.1380  176.7030  145.0350 C   0  0  1  0  0  3  0  0  0  0  0  0
  191.3100  175.6750  144.3080 C   0  0  2  0  0  3  0  0  0  0  0  0
  192.8330  175.6580  145.8810 C   0  0  2  0  0  3  0  0  0  0  0  0
  191.8170  175.3270  147.0080 C   0  0  0  0  0  2  0  0  0  0  0  0
  191.9040  176.7400  143.6430 O   0  0  0  0  0  0  0  0  0  0  0  0
  190.0070  175.6960  145.1210 C   0  0  1  0  0  0  0  0  0  0  0  0
  189.0820  174.8750  144.4670 O   0  0  0  0  0  1  0  0  0  0  0  0
  190.3820  175.0100  146.4700 C   0  0  0  0  0  2  0  0  0  0  0  0
  187.2710  177.3500  145.6820 N   0  0  1  0  0  0  0  0  0  0  0  0
  188.1650  177.3500  144.5240 C   0  0  0  0  0  2  0  0  0  0  0  0
  188.4380  177.1280  146.5330 C   0  0  0  0  0  2  0  0  0  0  0  0
  189.4000  177.1040  145.3650 C   0  0  1  0  0  3  0  0  0  0  0  0
  184.6110  178.4150  144.6560 C   0  0  2  0  0  3  0  0  0  0  0  0
  184.6850  178.0570  147.1310 C   0  0  0  0  0  2  0  0  0  0  0  0
  183.8440  178.5700  145.9690 C   0  0  0  0  0  2  0  0  0  0  0  0
  186.0010  178.8310  147.2110 C   0  0  0  0  0  2  0  0  0  0  0  0
  186.7940  178.7210  145.8990 C   0  0  2  0  0  3  0  0  0  0  0  0
  185.9220  179.1970  144.7260 C   0  0  0  0  0  2  0  0  0  0  0  0
  183.8300  178.9010  143.5730 O   0  0  0  0  0  0  0  0  0  0  0  0
  182.5300  178.2570  141.5490 C   0  0  0  0  0  1  0  0  0  0  0  0
  183.7920  178.2610  142.3320 C   0  0  0  0  0  0  0  0  0  0  0  0
  184.8150  177.6910  141.8660 O   0  0  0  0  0  0  0  0  0  0  0  0
  194.1620  176.1510  146.4600 C   0  0  2  0  0  3  0  0  0  0  0  0
  194.5030  177.5750  146.0360 C   0  0  0  0  0  1  0  0  0  0  0  0
  195.2390  175.2530  146.0760 N   0  0  0  0  0  2  0  0  0  0  0  0
  194.9610  174.8140  144.7190 C   0  0  0  0  0  2  0  0  0  0  0  0
  196.1630  175.0840  143.8290 C   0  0  0  0  0  2  0  0  0  0  0  0
  197.1310  177.2320  143.4010 O   0  0  0  0  0  1  0  0  0  0  0  0
  196.0260  176.4250  143.1220 C   0  0  1  0  0  3  0  0  0  0  0  0
  195.9060  176.2180  141.6500 C   0  0  0  0  0  0  0  0  0  0  0  0
  196.9490  175.6240  140.9520 O   0  0  0  0  0  0  0  0  0  0  0  0
  194.8730  176.5920  141.0330 O   0  0  0  0  0  1  0  0  0  0  0  0
  1  5  1  6  0  0  0
  1  3  1  0  0  0  0
  2  5  1  6  0  0  0
  2  1  1  0  0  0  0
  2  6  1  0  0  0  0
  3 23  1  1  0  0  0
  3  4  1  0  0  0  0
  6  7  1  6  0  0  0
  6 12  1  0  0  0  0
  6  8  1  0  0  0  0
  8  4  1  0  0  0  0
  9 10  1  6  0  0  0
  9 17  1  0  0  0  0
  9 11  1  0  0  0  0
 12 10  1  6  0  0  0
 12 11  1  0  0  0  0
 13 19  1  6  0  0  0
 13 18  1  0  0  0  0
 13 15  1  0  0  0  0
 14 16  1  0  0  0  0
 15 14  1  0  0  0  0
 17 18  1  6  0  0  0
 17 16  1  0  0  0  0
 20 21  1  0  0  0  0
 21 19  1  0  0  0  0
 22 21  2  0  0  0  0
 23 24  1  6  0  0  0
 25 23  1  0  0  0  0
 26 25  1  0  0  0  0
 27 26  1  0  0  0  0
 29 28  1  6  0  0  0
 29 27  1  0  0  0  0
 30 29  1  0  0  0  0
 31 30  2  0  0  0  0
 32 30  1  0  0  0  0
M  END
>  <MODEL>
1

>  <REMARK>
 VINA RESULT:      -7.2      0.000      0.000
  Name = 
  10 active torsions:
  status: ('A' for Active; 'I' for Inactive)
    1  A    between atoms: C_2  and  O_24
    2  A    between atoms: C_3  and  C_7
    3  A    between atoms: C_3  and  N_9
    4  A    between atoms: C_5  and  C_22
    5  A    between atoms: N_8  and  C_25
    6  A    between atoms: N_9  and  C_30
    7  A    between atoms: C_16  and  O_24
    8  A    between atoms: C_18  and  C_27
    9  A    between atoms: C_22  and  C_23
   10  A    between atoms: C_23  and  C_30
                            x       y       z     vdW  Elec       q    Type
                         _______ _______ _______ _____ _____    ______ ____

>  <TORSDO>
F 10

$$$$
=
 OpenBabel11062420373D

 32 35  0  0  1  0  0  0  0  0999 V2000
  192.1140  176.7590  145.0420 C   0  0  1  0  0  3  0  0  0  0  0  0
  191.2820  175.7240  144.3280 C   0  0  2  0  0  3  0  0  0  0  0  0
  192.8280  175.7190  145.8800 C   0  0  2  0  0  3  0  0  0  0  0  0
  191.8290  175.3850  147.0220 C   0  0  0  0  0  2  0  0  0  0  0  0
  191.8610  176.7920  143.6540 O   0  0  0  0  0  0  0  0  0  0  0  0
  189.9910  175.7390  145.1600 C   0  0  1  0  0  0  0  0  0  0  0  0
  189.0620  174.9120  144.5200 O   0  0  0  0  0  1  0  0  0  0  0  0
  190.3890  175.0580  146.5050 C   0  0  0  0  0  2  0  0  0  0  0  0
  187.2400  177.3910  145.6490 N   0  0  1  0  0  0  0  0  0  0  0  0
  188.1790  177.4130  144.5280 C   0  0  0  0  0  2  0  0  0  0  0  0
  188.3720  177.1460  146.5400 C   0  0  0  0  0  2  0  0  0  0  0  0
  189.3790  177.1440  145.4110 C   0  0  1  0  0  3  0  0  0  0  0  0
  184.6020  178.4730  144.5840 C   0  0  2  0  0  3  0  0  0  0  0  0
  184.6240  178.0770  147.0540 C   0  0  0  0  0  2  0  0  0  0  0  0
  183.8070  178.6090  145.8820 C   0  0  0  0  0  2  0  0  0  0  0  0
  185.9380  178.8490  147.1730 C   0  0  0  0  0  2  0  0  0  0  0  0
  186.7580  178.7590  145.8770 C   0  0  2  0  0  3  0  0  0  0  0  0
  185.9120  179.2540  144.6940 C   0  0  0  0  0  2  0  0  0  0  0  0
  183.8450  178.9760  143.4920 O   0  0  0  0  0  0  0  0  0  0  0  0
  185.0120  177.8960  141.5750 C   0  0  0  0  0  1  0  0  0  0  0  0
  183.7640  178.3090  142.2670 C   0  0  0  0  0  0  0  0  0  0  0  0
  182.6480  178.0470  141.7440 O   0  0  0  0  0  0  0  0  0  0  0  0
  194.1620  176.2220  146.4390 C   0  0  2  0  0  3  0  0  0  0  0  0
  194.6770  177.4640  145.7210 C   0  0  0  0  0  1  0  0  0  0  0  0
  195.1600  175.1670  146.3740 N   0  0  0  0  0  2  0  0  0  0  0  0
  194.9990  174.5090  145.0880 C   0  0  0  0  0  2  0  0  0  0  0  0
  195.4480  173.0610  145.1860 C   0  0  0  0  0  2  0  0  0  0  0  0
  193.1890  172.3820  144.7680 O   0  0  0  0  0  1  0  0  0  0  0  0
  194.2910  172.1590  145.5960 C   0  0  1  0  0  3  0  0  0  0  0  0
  194.7050  170.7290  145.5180 C   0  0  0  0  0  0  0  0  0  0  0  0
  196.0330  170.3850  145.7310 O   0  0  0  0  0  1  0  0  0  0  0  0
  193.8630  169.8320  145.2440 O   0  0  0  0  0  0  0  0  0  0  0  0
  1  5  1  6  0  0  0
  1  3  1  0  0  0  0
  2  5  1  6  0  0  0
  2  1  1  0  0  0  0
  2  6  1  0  0  0  0
  3 23  1  1  0  0  0
  3  4  1  0  0  0  0
  6  7  1  6  0  0  0
  6 12  1  0  0  0  0
  6  8  1  0  0  0  0
  8  4  1  0  0  0  0
  9 10  1  6  0  0  0
  9 17  1  0  0  0  0
  9 11  1  0  0  0  0
 12 10  1  6  0  0  0
 12 11  1  0  0  0  0
 13 19  1  6  0  0  0
 13 18  1  0  0  0  0
 13 15  1  0  0  0  0
 14 16  1  0  0  0  0
 15 14  1  0  0  0  0
 17 18  1  6  0  0  0
 17 16  1  0  0  0  0
 20 21  1  0  0  0  0
 21 19  1  0  0  0  0
 22 21  2  0  0  0  0
 23 24  1  6  0  0  0
 25 23  1  0  0  0  0
 26 27  1  0  0  0  0
 26 25  1  0  0  0  0
 27 29  1  0  0  0  0
 29 28  1  6  0  0  0
 30 29  1  0  0  0  0
 30 31  1  0  0  0  0
 32 30  2  0  0  0  0
M  END
>  <MODEL>
2

>  <REMARK>
 VINA RESULT:      -7.0      2.227      2.787
  Name = 
  10 active torsions:
  status: ('A' for Active; 'I' for Inactive)
    1  A    between atoms: C_2  and  O_24
    2  A    between atoms: C_3  and  C_7
    3  A    between atoms: C_3  and  N_9
    4  A    between atoms: C_5  and  C_22
    5  A    between atoms: N_8  and  C_25
    6  A    between atoms: N_9  and  C_30
    7  A    between atoms: C_16  and  O_24
    8  A    between atoms: C_18  and  C_27
    9  A    between atoms: C_22  and  C_23
   10  A    between atoms: C_23  and  C_30
                            x       y       z     vdW  Elec       q    Type
                         _______ _______ _______ _____ _____    ______ ____

>  <TORSDO>
F 10

$$$$
=
 OpenBabel11062420373D

 32 35  0  0  1  0  0  0  0  0999 V2000
  186.5920  176.1150  143.0190 C   0  0  1  0  0  3  0  0  0  0  0  0
  187.5610  175.7390  141.9270 C   0  0  2  0  0  3  0  0  0  0  0  0
  186.1260  177.3540  142.2840 C   0  0  2  0  0  3  0  0  0  0  0  0
  187.2270  178.4130  142.5650 C   0  0  0  0  0  2  0  0  0  0  0  0
  186.7620  174.7920  142.5560 O   0  0  0  0  0  0  0  0  0  0  0  0
  188.8690  176.3480  142.4510 C   0  0  1  0  0  0  0  0  0  0  0  0
  189.8990  175.9520  141.5920 O   0  0  0  0  0  1  0  0  0  0  0  0
  188.6740  177.8860  142.2850 C   0  0  0  0  0  2  0  0  0  0  0  0
  191.2930  175.8090  144.5430 N   0  0  1  0  0  0  0  0  0  0  0  0
  190.2760  174.9040  144.0070 C   0  0  0  0  0  2  0  0  0  0  0  0
  190.3060  176.8850  144.4900 C   0  0  0  0  0  2  0  0  0  0  0  0
  189.2250  175.9910  143.9200 C   0  0  1  0  0  3  0  0  0  0  0  0
  193.7480  174.3190  145.5500 C   0  0  2  0  0  3  0  0  0  0  0  0
  193.6990  176.7450  146.1620 C   0  0  0  0  0  2  0  0  0  0  0  0
  194.4580  175.4330  146.3200 C   0  0  0  0  0  2  0  0  0  0  0  0
  192.2700  176.5920  146.6820 C   0  0  0  0  0  2  0  0  0  0  0  0
  191.5270  175.4630  145.9500 C   0  0  2  0  0  3  0  0  0  0  0  0
  192.3220  174.1540  146.0740 C   0  0  0  0  0  2  0  0  0  0  0  0
  194.4510  173.0940  145.7030 O   0  0  0  0  0  0  0  0  0  0  0  0
  196.8700  172.6070  146.0380 C   0  0  0  0  0  1  0  0  0  0  0  0
  195.7150  172.8820  145.1460 C   0  0  0  0  0  0  0  0  0  0  0  0
  195.8870  172.9140  143.8980 O   0  0  0  0  0  0  0  0  0  0  0  0
  184.7530  177.8420  142.7570 C   0  0  2  0  0  3  0  0  0  0  0  0
  183.7980  178.1340  141.6060 C   0  0  0  0  0  1  0  0  0  0  0  0
  184.9030  179.0280  143.5850 N   0  0  0  0  0  2  0  0  0  0  0  0
  184.1860  178.7730  144.8230 C   0  0  0  0  0  2  0  0  0  0  0  0
  185.0540  179.1510  146.0120 C   0  0  0  0  0  2  0  0  0  0  0  0
  185.0630  176.7650  146.2170 O   0  0  0  0  0  1  0  0  0  0  0  0
  185.2860  177.9510  146.9190 C   0  0  1  0  0  3  0  0  0  0  0  0
  186.6800  177.9730  147.4510 C   0  0  0  0  0  0  0  0  0  0  0  0
  187.0440  178.9340  148.3840 O   0  0  0  0  0  1  0  0  0  0  0  0
  187.5320  177.1380  147.0470 O   0  0  0  0  0  0  0  0  0  0  0  0
  1  5  1  6  0  0  0
  2  6  1  0  0  0  0
  2  5  1  1  0  0  0
  2  1  1  0  0  0  0
  3  4  1  0  0  0  0
  3 23  1  1  0  0  0
  3  1  1  0  0  0  0
  6  7  1  6  0  0  0
  6 12  1  0  0  0  0
  8  6  1  0  0  0  0
  8  4  1  0  0  0  0
  9 10  1  6  0  0  0
  9 17  1  0  0  0  0
 11  9  1  0  0  0  0
 12 10  1  6  0  0  0
 12 11  1  0  0  0  0
 13 19  1  1  0  0  0
 13 18  1  0  0  0  0
 13 15  1  0  0  0  0
 14 15  1  0  0  0  0
 14 16  1  0  0  0  0
 17 18  1  6  0  0  0
 17 16  1  0  0  0  0
 21 19  1  0  0  0  0
 21 20  1  0  0  0  0
 22 21  2  0  0  0  0
 23 24  1  6  0  0  0
 23 25  1  0  0  0  0
 25 26  1  0  0  0  0
 26 27  1  0  0  0  0
 27 29  1  0  0  0  0
 29 28  1  6  0  0  0
 29 30  1  0  0  0  0
 30 31  1  0  0  0  0
 32 30  2  0  0  0  0
M  END
>  <MODEL>
3

>  <REMARK>
 VINA RESULT:      -6.7      2.654      9.326
  Name = 
  10 active torsions:
  status: ('A' for Active; 'I' for Inactive)
    1  A    between atoms: C_2  and  O_24
    2  A    between atoms: C_3  and  C_7
    3  A    between atoms: C_3  and  N_9
    4  A    between atoms: C_5  and  C_22
    5  A    between atoms: N_8  and  C_25
    6  A    between atoms: N_9  and  C_30
    7  A    between atoms: C_16  and  O_24
    8  A    between atoms: C_18  and  C_27
    9  A    between atoms: C_22  and  C_23
   10  A    between atoms: C_23  and  C_30
                            x       y       z     vdW  Elec       q    Type
                         _______ _______ _______ _____ _____    ______ ____

>  <TORSDO>
F 10

$$$$
=
 OpenBabel11062420373D

 32 35  0  0  1  0  0  0  0  0999 V2000
  192.5920  176.6090  144.1140 C   0  0  1  0  0  3  0  0  0  0  0  0
  191.7180  175.6390  143.3600 C   0  0  2  0  0  3  0  0  0  0  0  0
  193.4610  175.5060  144.6790 C   0  0  2  0  0  3  0  0  0  0  0  0
  192.6450  174.9390  145.8730 C   0  0  0  0  0  2  0  0  0  0  0  0
  192.1500  176.8320  142.7920 O   0  0  0  0  0  0  0  0  0  0  0  0
  190.5550  175.4440  144.3420 C   0  0  1  0  0  0  0  0  0  0  0  0
  189.5850  174.6620  143.7050 O   0  0  0  0  0  1  0  0  0  0  0  0
  191.1640  174.5980  145.5010 C   0  0  0  0  0  2  0  0  0  0  0  0
  187.8280  176.8140  145.4500 N   0  0  1  0  0  0  0  0  0  0  0  0
  188.5910  177.0630  144.2280 C   0  0  0  0  0  2  0  0  0  0  0  0
  189.0880  176.5210  146.1300 C   0  0  0  0  0  2  0  0  0  0  0  0
  189.9190  176.7530  144.8860 C   0  0  1  0  0  3  0  0  0  0  0  0
  185.0350  177.8810  144.8840 C   0  0  2  0  0  3  0  0  0  0  0  0
  185.3790  177.1110  147.2400 C   0  0  0  0  0  2  0  0  0  0  0  0
  184.4020  177.7660  146.2710 C   0  0  0  0  0  2  0  0  0  0  0  0
  186.6630  177.9360  147.3280 C   0  0  0  0  0  2  0  0  0  0  0  0
  187.3200  178.0980  145.9490 C   0  0  2  0  0  3  0  0  0  0  0  0
  186.3130  178.7150  144.9660 C   0  0  0  0  0  2  0  0  0  0  0  0
  184.1270  178.4980  143.9820 O   0  0  0  0  0  0  0  0  0  0  0  0
  185.2910  177.6580  141.9470 C   0  0  0  0  0  1  0  0  0  0  0  0
  184.0690  178.1560  142.6280 C   0  0  0  0  0  0  0  0  0  0  0  0
  182.9940  178.2600  141.9800 O   0  0  0  0  0  0  0  0  0  0  0  0
  194.8350  176.0070  145.1340 C   0  0  2  0  0  3  0  0  0  0  0  0
  195.7980  176.2350  143.9750 C   0  0  0  0  0  1  0  0  0  0  0  0
  195.4190  175.0720  146.0820 N   0  0  0  0  0  2  0  0  0  0  0  0
  196.4910  174.3780  145.3880 C   0  0  0  0  0  2  0  0  0  0  0  0
  196.8930  173.1350  146.1640 C   0  0  0  0  0  2  0  0  0  0  0  0
  197.0780  170.7500  146.0480 O   0  0  0  0  0  1  0  0  0  0  0  0
  196.6780  171.8790  145.3300 C   0  0  1  0  0  3  0  0  0  0  0  0
  195.2410  171.7580  144.9490 C   0  0  0  0  0  0  0  0  0  0  0  0
  194.2710  171.6880  145.9400 O   0  0  0  0  0  1  0  0  0  0  0  0
  194.9030  171.7020  143.7370 O   0  0  0  0  0  0  0  0  0  0  0  0
  1  5  1  6  0  0  0
  1  3  1  0  0  0  0
  2  5  1  6  0  0  0
  2  1  1  0  0  0  0
  2  6  1  0  0  0  0
  3 23  1  1  0  0  0
  3  4  1  0  0  0  0
  6  7  1  6  0  0  0
  6 12  1  0  0  0  0
  6  8  1  0  0  0  0
  8  4  1  0  0  0  0
  9 10  1  6  0  0  0
  9 17  1  0  0  0  0
  9 11  1  0  0  0  0
 12 10  1  6  0  0  0
 12 11  1  0  0  0  0
 13 19  1  6  0  0  0
 13 18  1  0  0  0  0
 13 15  1  0  0  0  0
 14 16  1  0  0  0  0
 15 14  1  0  0  0  0
 17 18  1  6  0  0  0
 17 16  1  0  0  0  0
 20 21  1  0  0  0  0
 21 19  1  0  0  0  0
 22 21  2  0  0  0  0
 23 24  1  6  0  0  0
 23 25  1  0  0  0  0
 26 25  1  0  0  0  0
 26 27  1  0  0  0  0
 29 28  1  1  0  0  0
 29 27  1  0  0  0  0
 30 29  1  0  0  0  0
 30 31  1  0  0  0  0
 32 30  2  0  0  0  0
M  END
>  <MODEL>
4

>  <REMARK>
 VINA RESULT:      -6.7      2.315      2.730
  Name = 
  10 active torsions:
  status: ('A' for Active; 'I' for Inactive)
    1  A    between atoms: C_2  and  O_24
    2  A    between atoms: C_3  and  C_7
    3  A    between atoms: C_3  and  N_9
    4  A    between atoms: C_5  and  C_22
    5  A    between atoms: N_8  and  C_25
    6  A    between atoms: N_9  and  C_30
    7  A    between atoms: C_16  and  O_24
    8  A    between atoms: C_18  and  C_27
    9  A    between atoms: C_22  and  C_23
   10  A    between atoms: C_23  and  C_30
                            x       y       z     vdW  Elec       q    Type
                         _______ _______ _______ _____ _____    ______ ____

>  <TORSDO>
F 10

$$$$
=
 OpenBabel11062420373D

 32 35  0  0  1  0  0  0  0  0999 V2000
  192.0480  176.4990  145.2630 C   0  0  1  0  0  3  0  0  0  0  0  0
  191.1480  175.3490  144.8890 C   0  0  2  0  0  3  0  0  0  0  0  0
  192.8550  175.6550  146.2260 C   0  0  2  0  0  3  0  0  0  0  0  0
  191.9900  175.5980  147.5150 C   0  0  0  0  0  2  0  0  0  0  0  0
  191.6440  176.2320  143.9370 O   0  0  0  0  0  0  0  0  0  0  0  0
  189.9570  175.5710  145.8310 C   0  0  1  0  0  0  0  0  0  0  0  0
  188.9670  174.6420  145.4940 O   0  0  0  0  0  1  0  0  0  0  0  0
  190.5030  175.1940  147.2420 C   0  0  0  0  0  2  0  0  0  0  0  0
  187.2260  177.3260  145.8160 N   0  0  1  0  0  0  0  0  0  0  0  0
  188.2710  177.1790  144.8030 C   0  0  0  0  0  2  0  0  0  0  0  0
  188.2550  177.1810  146.8420 C   0  0  0  0  0  2  0  0  0  0  0  0
  189.3690  177.0090  145.8320 C   0  0  1  0  0  3  0  0  0  0  0  0
  184.9610  178.3770  144.0750 C   0  0  2  0  0  3  0  0  0  0  0  0
  184.3900  178.2040  146.5050 C   0  0  0  0  0  2  0  0  0  0  0  0
  183.8930  178.6500  145.1340 C   0  0  0  0  0  2  0  0  0  0  0  0
  185.6750  178.9490  146.8660 C   0  0  0  0  0  2  0  0  0  0  0  0
  186.7690  178.7210  145.8110 C   0  0  2  0  0  3  0  0  0  0  0  0
  186.2440  179.1290  144.4260 C   0  0  0  0  0  2  0  0  0  0  0  0
  184.5020  178.7980  142.7980 O   0  0  0  0  0  0  0  0  0  0  0  0
  185.9880  177.1510  141.6660 C   0  0  0  0  0  1  0  0  0  0  0  0
  184.9720  178.2330  141.6100 C   0  0  0  0  0  0  0  0  0  0  0  0
  184.5420  178.6250  140.4920 O   0  0  0  0  0  0  0  0  0  0  0  0
  194.2400  176.2420  146.5130 C   0  0  2  0  0  3  0  0  0  0  0  0
  194.5470  177.4780  145.6760 C   0  0  0  0  0  1  0  0  0  0  0  0
  195.2650  175.2340  146.2950 N   0  0  0  0  0  2  0  0  0  0  0  0
  194.7420  174.3040  145.3080 C   0  0  0  0  0  2  0  0  0  0  0  0
  195.5950  174.3470  144.0510 C   0  0  0  0  0  2  0  0  0  0  0  0
  195.6890  175.4900  141.9490 O   0  0  0  0  0  1  0  0  0  0  0  0
  194.8140  174.9310  142.8820 C   0  0  1  0  0  3  0  0  0  0  0  0
  193.9910  173.8690  142.2360 C   0  0  0  0  0  0  0  0  0  0  0  0
  192.7520  174.1910  141.6990 O   0  0  0  0  0  0  0  0  0  0  0  0
  194.4030  172.6790  142.1880 O   0  0  0  0  0  1  0  0  0  0  0  0
  1  5  1  6  0  0  0
  1  3  1  0  0  0  0
  2  5  1  6  0  0  0
  2  1  1  0  0  0  0
  2  6  1  0  0  0  0
  3 23  1  1  0  0  0
  3  4  1  0  0  0  0
  6  7  1  6  0  0  0
  6 12  1  0  0  0  0
  6  8  1  0  0  0  0
  8  4  1  0  0  0  0
  9 10  1  6  0  0  0
  9 11  1  0  0  0  0
 12 10  1  6  0  0  0
 12 11  1  0  0  0  0
 13 19  1  6  0  0  0
 13 18  1  0  0  0  0
 13 15  1  0  0  0  0
 14 16  1  0  0  0  0
 15 14  1  0  0  0  0
 17 18  1  6  0  0  0
 17  9  1  0  0  0  0
 17 16  1  0  0  0  0
 21 20  1  0  0  0  0
 21 19  1  0  0  0  0
 22 21  2  0  0  0  0
 23 24  1  6  0  0  0
 25 23  1  0  0  0  0
 26 25  1  0  0  0  0
 27 26  1  0  0  0  0
 29 28  1  6  0  0  0
 29 27  1  0  0  0  0
 30 29  1  0  0  0  0
 31 30  2  0  0  0  0
 32 30  1  0  0  0  0
M  END
>  <MODEL>
5

>  <REMARK>
 VINA RESULT:      -6.5      1.383      1.627
  Name = 
  10 active torsions:
  status: ('A' for Active; 'I' for Inactive)
    1  A    between atoms: C_2  and  O_24
    2  A    between atoms: C_3  and  C_7
    3  A    between atoms: C_3  and  N_9
    4  A    between atoms: C_5  and  C_22
    5  A    between atoms: N_8  and  C_25
    6  A    between atoms: N_9  and  C_30
    7  A    between atoms: C_16  and  O_24
    8  A    between atoms: C_18  and  C_27
    9  A    between atoms: C_22  and  C_23
   10  A    between atoms: C_23  and  C_30
                            x       y       z     vdW  Elec       q    Type
                         _______ _______ _______ _____ _____    ______ ____

>  <TORSDO>
F 10

$$$$
=
 OpenBabel11062420373D

 32 35  0  0  1  0  0  0  0  0999 V2000
  189.3490  177.4500  143.4820 C   0  0  1  0  0  3  0  0  0  0  0  0
  190.1330  177.8920  144.6910 C   0  0  2  0  0  3  0  0  0  0  0  0
  188.0180  177.6580  144.1730 C   0  0  2  0  0  3  0  0  0  0  0  0
  187.8330  176.3930  145.0550 C   0  0  0  0  0  2  0  0  0  0  0  0
  190.4770  178.2940  143.4070 O   0  0  0  0  0  0  0  0  0  0  0  0
  190.4510  176.5480  145.3610 C   0  0  1  0  0  0  0  0  0  0  0  0
  191.3050  176.8000  146.4400 O   0  0  0  0  0  1  0  0  0  0  0  0
  189.0840  176.0690  145.9380 C   0  0  0  0  0  2  0  0  0  0  0  0
  192.8700  174.4140  144.9970 N   0  0  1  0  0  0  0  0  0  0  0  0
  192.5610  175.6400  144.2610 C   0  0  0  0  0  2  0  0  0  0  0  0
  191.4350  174.2020  145.1680 C   0  0  0  0  0  2  0  0  0  0  0  0
  191.0650  175.4690  144.4280 C   0  0  1  0  0  3  0  0  0  0  0  0
  195.7190  174.3650  143.9260 C   0  0  2  0  0  3  0  0  0  0  0  0
  195.2050  172.5370  145.5560 C   0  0  0  0  0  2  0  0  0  0  0  0
  196.2590  173.1120  144.6160 C   0  0  0  0  0  2  0  0  0  0  0  0
  193.9380  172.1880  144.7760 C   0  0  0  0  0  2  0  0  0  0  0  0
  193.3760  173.4170  144.0440 C   0  0  2  0  0  3  0  0  0  0  0  0
  194.4580  174.0190  143.1350 C   0  0  0  0  0  2  0  0  0  0  0  0
  196.6970  174.8980  143.0440 O   0  0  0  0  0  0  0  0  0  0  0  0
  196.3320  176.5180  141.1890 C   0  0  0  0  0  1  0  0  0  0  0  0
  196.6670  176.2240  142.6060 C   0  0  0  0  0  0  0  0  0  0  0  0
  196.9140  177.1730  143.3970 O   0  0  0  0  0  0  0  0  0  0  0  0
  186.8570  177.8220  143.1870 C   0  0  2  0  0  3  0  0  0  0  0  0
  187.3210  178.0120  141.7490 C   0  0  0  0  0  1  0  0  0  0  0  0
  186.0180  178.9410  143.5850 N   0  0  0  0  0  2  0  0  0  0  0  0
  184.8490  178.3810  144.2430 C   0  0  0  0  0  2  0  0  0  0  0  0
  184.5230  179.1820  145.4920 C   0  0  0  0  0  2  0  0  0  0  0  0
  184.5620  176.9520  146.3650 O   0  0  0  0  0  1  0  0  0  0  0  0
  184.5680  178.2990  146.7320 C   0  0  1  0  0  3  0  0  0  0  0  0
  185.7900  178.6030  147.5320 C   0  0  0  0  0  0  0  0  0  0  0  0
  186.0880  179.9190  147.8570 O   0  0  0  0  0  0  0  0  0  0  0  0
  186.5610  177.6770  147.9000 O   0  0  0  0  0  1  0  0  0  0  0  0
  1  5  1  6  0  0  0
  1  3  1  0  0  0  0
  1  2  1  0  0  0  0
  2  5  1  6  0  0  0
  2  6  1  0  0  0  0
  3 23  1  6  0  0  0
  3  4  1  0  0  0  0
  4  8  1  0  0  0  0
  6  8  1  0  0  0  0
  6  7  1  1  0  0  0
  9 10  1  6  0  0  0
  9 11  1  0  0  0  0
 12 10  1  1  0  0  0
 12 11  1  0  0  0  0
 12  6  1  0  0  0  0
 13 19  1  6  0  0  0
 13 15  1  0  0  0  0
 15 14  1  0  0  0  0
 16 14  1  0  0  0  0
 17 18  1  1  0  0  0
 17 16  1  0  0  0  0
 17  9  1  0  0  0  0
 18 13  1  0  0  0  0
 20 21  1  0  0  0  0
 21 19  1  0  0  0  0
 21 22  2  0  0  0  0
 23 24  1  6  0  0  0
 23 25  1  0  0  0  0
 25 26  1  0  0  0  0
 26 27  1  0  0  0  0
 27 29  1  0  0  0  0
 29 28  1  6  0  0  0
 29 30  1  0  0  0  0
 30 31  2  0  0  0  0
 30 32  1  0  0  0  0
M  END
>  <MODEL>
6

>  <REMARK>
 VINA RESULT:      -6.5      2.179      9.525
  Name = 
  10 active torsions:
  status: ('A' for Active; 'I' for Inactive)
    1  A    between atoms: C_2  and  O_24
    2  A    between atoms: C_3  and  C_7
    3  A    between atoms: C_3  and  N_9
    4  A    between atoms: C_5  and  C_22
    5  A    between atoms: N_8  and  C_25
    6  A    between atoms: N_9  and  C_30
    7  A    between atoms: C_16  and  O_24
    8  A    between atoms: C_18  and  C_27
    9  A    between atoms: C_22  and  C_23
   10  A    between atoms: C_23  and  C_30
                            x       y       z     vdW  Elec       q    Type
                         _______ _______ _______ _____ _____    ______ ____

>  <TORSDO>
F 10

$$$$
=
 OpenBabel11062420373D

 32 35  0  0  1  0  0  0  0  0999 V2000
  189.4800  176.1220  146.8410 C   0  0  1  0  0  3  0  0  0  0  0  0
  189.5010  174.8640  146.0120 C   0  0  2  0  0  3  0  0  0  0  0  0
  188.2910  176.6870  146.0930 C   0  0  2  0  0  3  0  0  0  0  0  0
  188.8930  177.2710  144.7860 C   0  0  0  0  0  2  0  0  0  0  0  0
  189.6840  174.8370  147.3880 O   0  0  0  0  0  0  0  0  0  0  0  0
  190.5440  175.2160  144.9410 C   0  0  1  0  0  0  0  0  0  0  0  0
  190.7690  174.0710  144.1710 O   0  0  0  0  0  1  0  0  0  0  0  0
  189.8300  176.2660  144.0360 C   0  0  0  0  0  2  0  0  0  0  0  0
  193.7750  175.1230  144.6410 N   0  0  1  0  0  0  0  0  0  0  0  0
  192.9050  174.6810  145.7310 C   0  0  0  0  0  2  0  0  0  0  0  0
  192.8280  176.2030  144.3760 C   0  0  0  0  0  2  0  0  0  0  0  0
  191.8880  175.7750  145.4830 C   0  0  1  0  0  3  0  0  0  0  0  0
  196.4080  173.6270  144.9490 C   0  0  2  0  0  3  0  0  0  0  0  0
  196.4290  175.3830  143.1670 C   0  0  0  0  0  2  0  0  0  0  0  0
  197.2680  174.3530  143.9140 C   0  0  0  0  0  2  0  0  0  0  0  0
  195.8430  176.3970  144.1500 C   0  0  0  0  0  2  0  0  0  0  0  0
  194.9900  175.7050  145.2240 C   0  0  2  0  0  3  0  0  0  0  0  0
  195.8290  174.6350  145.9410 C   0  0  0  0  0  2  0  0  0  0  0  0
  197.1900  172.6710  145.6510 O   0  0  0  0  0  0  0  0  0  0  0  0
  197.9220  170.3910  144.9670 C   0  0  0  0  0  1  0  0  0  0  0  0
  196.9270  171.3000  145.5920 C   0  0  0  0  0  0  0  0  0  0  0  0
  195.8610  170.8240  146.0650 O   0  0  0  0  0  0  0  0  0  0  0  0
  187.5460  177.7620  146.8900 C   0  0  2  0  0  3  0  0  0  0  0  0
  188.3660  178.3200  148.0460 C   0  0  0  0  0  1  0  0  0  0  0  0
  186.2880  177.2310  147.3900 N   0  0  0  0  0  2  0  0  0  0  0  0
  185.4540  176.9540  146.2320 C   0  0  0  0  0  2  0  0  0  0  0  0
  184.9710  178.2560  145.6170 C   0  0  0  0  0  2  0  0  0  0  0  0
  183.6340  179.0970  143.8160 O   0  0  0  0  0  1  0  0  0  0  0  0
  184.4470  178.0300  144.2050 C   0  0  1  0  0  3  0  0  0  0  0  0
  185.5860  177.8840  143.2540 C   0  0  0  0  0  0  0  0  0  0  0  0
  185.8770  176.6370  142.7180 O   0  0  0  0  0  0  0  0  0  0  0  0
  186.2950  178.8790  142.9460 O   0  0  0  0  0  1  0  0  0  0  0  0
  1  5  1  1  0  0  0
  2  1  1  0  0  0  0
  2  5  1  1  0  0  0
  3  1  1  0  0  0  0
  3 23  1  1  0  0  0
  4  3  1  0  0  0  0
  6  7  1  6  0  0  0
  6 12  1  0  0  0  0
  6  2  1  0  0  0  0
  8  4  1  0  0  0  0
  8  6  1  0  0  0  0
  9 11  1  1  0  0  0
  9 17  1  0  0  0  0
  9 10  1  0  0  0  0
 12 11  1  6  0  0  0
 12 10  1  0  0  0  0
 13 19  1  1  0  0  0
 13 18  1  0  0  0  0
 14 15  1  0  0  0  0
 14 16  1  0  0  0  0
 15 13  1  0  0  0  0
 17 16  1  6  0  0  0
 17 18  1  0  0  0  0
 20 21  1  0  0  0  0
 21 19  1  0  0  0  0
 21 22  2  0  0  0  0
 23 25  1  0  0  0  0
 23 24  1  1  0  0  0
 26 25  1  0  0  0  0
 27 26  1  0  0  0  0
 29 28  1  6  0  0  0
 29 27  1  0  0  0  0
 30 29  1  0  0  0  0
 31 30  2  0  0  0  0
 32 30  1  0  0  0  0
M  END
>  <MODEL>
7

>  <REMARK>
 VINA RESULT:      -6.3      2.368      9.752
  Name = 
  10 active torsions:
  status: ('A' for Active; 'I' for Inactive)
    1  A    between atoms: C_2  and  O_24
    2  A    between atoms: C_3  and  C_7
    3  A    between atoms: C_3  and  N_9
    4  A    between atoms: C_5  and  C_22
    5  A    between atoms: N_8  and  C_25
    6  A    between atoms: N_9  and  C_30
    7  A    between atoms: C_16  and  O_24
    8  A    between atoms: C_18  and  C_27
    9  A    between atoms: C_22  and  C_23
   10  A    between atoms: C_23  and  C_30
                            x       y       z     vdW  Elec       q    Type
                         _______ _______ _______ _____ _____    ______ ____

>  <TORSDO>
F 10

$$$$
=
 OpenBabel11062420373D

 32 35  0  0  1  0  0  0  0  0999 V2000
  192.2520  174.1580  142.7120 C   0  0  1  0  0  3  0  0  0  0  0  0
  191.2040  173.6780  141.7410 C   0  0  2  0  0  3  0  0  0  0  0  0
  192.5520  172.7560  143.2000 C   0  0  2  0  0  3  0  0  0  0  0  0
  191.4140  172.4420  144.2100 C   0  0  0  0  0  2  0  0  0  0  0  0
  192.1290  174.6570  141.3980 O   0  0  0  0  0  0  0  0  0  0  0  0
  189.9180  173.8600  142.5600 C   0  0  1  0  0  0  0  0  0  0  0  0
  188.8340  173.5790  141.7220 O   0  0  0  0  0  1  0  0  0  0  0  0
  189.9870  172.7400  143.6420 C   0  0  0  0  0  2  0  0  0  0  0  0
  187.7890  175.9350  143.8640 N   0  0  1  0  0  0  0  0  0  0  0  0
  188.5750  176.0230  142.6340 C   0  0  0  0  0  2  0  0  0  0  0  0
  188.8980  175.2040  144.4740 C   0  0  0  0  0  2  0  0  0  0  0  0
  189.7420  175.2560  143.2190 C   0  0  1  0  0  3  0  0  0  0  0  0
  185.3890  177.7940  143.6520 C   0  0  2  0  0  3  0  0  0  0  0  0
  185.7080  176.7880  145.9200 C   0  0  0  0  0  2  0  0  0  0  0  0
  184.8790  177.7630  145.0930 C   0  0  0  0  0  2  0  0  0  0  0  0
  187.1790  177.2020  145.9050 C   0  0  0  0  0  2  0  0  0  0  0  0
  187.7250  177.2700  144.4700 C   0  0  2  0  0  3  0  0  0  0  0  0
  186.8560  178.2190  143.6300 C   0  0  0  0  0  2  0  0  0  0  0  0
  184.6220  178.7090  142.8810 O   0  0  0  0  0  0  0  0  0  0  0  0
  184.6150  178.1920  140.4450 C   0  0  0  0  0  1  0  0  0  0  0  0
  183.9090  178.3160  141.7460 C   0  0  0  0  0  0  0  0  0  0  0  0
  182.6760  178.0620  141.8110 O   0  0  0  0  0  0  0  0  0  0  0  0
  193.9290  172.6390  143.8610 C   0  0  2  0  0  3  0  0  0  0  0  0
  193.8990  171.8430  145.1590 C   0  0  0  0  0  1  0  0  0  0  0  0
  194.4780  173.9630  144.1080 N   0  0  0  0  0  2  0  0  0  0  0  0
  194.7390  174.0540  145.5340 C   0  0  0  0  0  2  0  0  0  0  0  0
  194.1460  175.3380  146.0890 C   0  0  0  0  0  2  0  0  0  0  0  0
  192.1890  174.9460  147.4130 O   0  0  0  0  0  1  0  0  0  0  0  0
  192.6250  175.2640  146.1250 C   0  0  1  0  0  3  0  0  0  0  0  0
  192.0390  176.5660  145.6950 C   0  0  0  0  0  0  0  0  0  0  0  0
  192.5050  177.1810  144.5420 O   0  0  0  0  0  0  0  0  0  0  0  0
  191.1370  177.1190  146.3790 O   0  0  0  0  0  1  0  0  0  0  0  0
  1  5  1  6  0  0  0
  1  3  1  0  0  0  0
  2  5  1  6  0  0  0
  2  6  1  0  0  0  0
  2  1  1  0  0  0  0
  3 23  1  1  0  0  0
  3  4  1  0  0  0  0
  6  7  1  6  0  0  0
  6 12  1  0  0  0  0
  6  8  1  0  0  0  0
  8  4  1  0  0  0  0
  9 10  1  6  0  0  0
  9 17  1  0  0  0  0
  9 11  1  0  0  0  0
 12 10  1  6  0  0  0
 12 11  1  0  0  0  0
 13 19  1  6  0  0  0
 13 15  1  0  0  0  0
 15 14  1  0  0  0  0
 16 14  1  0  0  0  0
 17 18  1  6  0  0  0
 17 16  1  0  0  0  0
 18 13  1  0  0  0  0
 20 21  1  0  0  0  0
 21 22  2  0  0  0  0
 21 19  1  0  0  0  0
 23 25  1  0  0  0  0
 23 24  1  1  0  0  0
 25 26  1  0  0  0  0
 26 27  1  0  0  0  0
 27 29  1  0  0  0  0
 29 28  1  1  0  0  0
 30 29  1  0  0  0  0
 30 32  1  0  0  0  0
 31 30  2  0  0  0  0
M  END
>  <MODEL>
8

>  <REMARK>
 VINA RESULT:      -6.3      2.293      3.557
  Name = 
  10 active torsions:
  status: ('A' for Active; 'I' for Inactive)
    1  A    between atoms: C_2  and  O_24
    2  A    between atoms: C_3  and  C_7
    3  A    between atoms: C_3  and  N_9
    4  A    between atoms: C_5  and  C_22
    5  A    between atoms: N_8  and  C_25
    6  A    between atoms: N_9  and  C_30
    7  A    between atoms: C_16  and  O_24
    8  A    between atoms: C_18  and  C_27
    9  A    between atoms: C_22  and  C_23
   10  A    between atoms: C_23  and  C_30
                            x       y       z     vdW  Elec       q    Type
                         _______ _______ _______ _____ _____    ______ ____

>  <TORSDO>
F 10

$$$$
=
 OpenBabel11062420373D

 32 35  0  0  1  0  0  0  0  0999 V2000
  188.2430  177.2680  143.5270 C   0  0  1  0  0  3  0  0  0  0  0  0
  188.4290  176.2110  144.5860 C   0  0  2  0  0  3  0  0  0  0  0  0
  186.9740  176.6300  143.0030 C   0  0  2  0  0  3  0  0  0  0  0  0
  187.4650  175.4660  142.0990 C   0  0  0  0  0  2  0  0  0  0  0  0
  188.6370  177.5590  144.8510 O   0  0  0  0  0  0  0  0  0  0  0  0
  189.3930  175.2410  143.8880 C   0  0  1  0  0  0  0  0  0  0  0  0
  189.7660  174.2660  144.8200 O   0  0  0  0  0  1  0  0  0  0  0  0
  188.5230  174.5480  142.7960 C   0  0  0  0  0  2  0  0  0  0  0  0
  192.4030  174.7040  142.7960 N   0  0  1  0  0  0  0  0  0  0  0  0
  191.9300  175.4660  143.9510 C   0  0  0  0  0  2  0  0  0  0  0  0
  191.1920  175.1070  142.0840 C   0  0  0  0  0  2  0  0  0  0  0  0
  190.6530  175.8950  143.2590 C   0  0  1  0  0  3  0  0  0  0  0  0
  195.3010  173.8210  143.0910 C   0  0  2  0  0  3  0  0  0  0  0  0
  194.3510  173.4700  140.8030 C   0  0  0  0  0  2  0  0  0  0  0  0
  195.6050  173.3680  141.6630 C   0  0  0  0  0  2  0  0  0  0  0  0
  193.8400  174.9110  140.7870 C   0  0  0  0  0  2  0  0  0  0  0  0
  193.5450  175.4150  142.2080 C   0  0  2  0  0  3  0  0  0  0  0  0
  194.8000  175.2650  143.0810 C   0  0  0  0  0  2  0  0  0  0  0  0
  196.4710  173.7330  143.8920 O   0  0  0  0  0  0  0  0  0  0  0  0
  197.1910  173.7910  146.2750 C   0  0  0  0  0  1  0  0  0  0  0  0
  196.4710  173.1350  145.1540 C   0  0  0  0  0  0  0  0  0  0  0  0
  195.8640  172.0490  145.3560 O   0  0  0  0  0  0  0  0  0  0  0  0
  186.0970  177.6100  142.2190 C   0  0  2  0  0  3  0  0  0  0  0  0
  186.3470  177.5610  140.7170 C   0  0  0  0  0  1  0  0  0  0  0  0
  186.3020  178.9650  142.7080 N   0  0  0  0  0  2  0  0  0  0  0  0
  185.2170  179.2510  143.6310 C   0  0  0  0  0  2  0  0  0  0  0  0
  185.7790  179.6350  144.9890 C   0  0  0  0  0  2  0  0  0  0  0  0
  183.6920  178.6660  145.6500 O   0  0  0  0  0  1  0  0  0  0  0  0
  184.9630  179.0110  146.1120 C   0  0  1  0  0  3  0  0  0  0  0  0
  185.6580  177.8010  146.6390 C   0  0  0  0  0  0  0  0  0  0  0  0
  185.2510  176.5400  146.2270 O   0  0  0  0  0  0  0  0  0  0  0  0
  186.6010  177.9140  147.4670 O   0  0  0  0  0  1  0  0  0  0  0  0
  1  2  1  0  0  0  0
  1  5  1  1  0  0  0
  2  5  1  1  0  0  0
  3 23  1  6  0  0  0
  3  1  1  0  0  0  0
  4  8  1  0  0  0  0
  4  3  1  0  0  0  0
  6  2  1  0  0  0  0
  6  7  1  1  0  0  0
  8  6  1  0  0  0  0
  9 11  1  6  0  0  0
  9 10  1  0  0  0  0
 12 11  1  6  0  0  0
 12  6  1  0  0  0  0
 12 10  1  0  0  0  0
 13 19  1  1  0  0  0
 14 15  1  0  0  0  0
 15 13  1  0  0  0  0
 16 14  1  0  0  0  0
 17 16  1  6  0  0  0
 17  9  1  0  0  0  0
 17 18  1  0  0  0  0
 18 13  1  0  0  0  0
 19 21  1  0  0  0  0
 21 22  2  0  0  0  0
 21 20  1  0  0  0  0
 23 24  1  6  0  0  0
 23 25  1  0  0  0  0
 25 26  1  0  0  0  0
 26 27  1  0  0  0  0
 27 29  1  0  0  0  0
 29 28  1  6  0  0  0
 29 30  1  0  0  0  0
 30 32  1  0  0  0  0
 31 30  2  0  0  0  0
M  END
>  <MODEL>
9

>  <REMARK>
 VINA RESULT:      -6.2      2.702      9.806
  Name = 
  10 active torsions:
  status: ('A' for Active; 'I' for Inactive)
    1  A    between atoms: C_2  and  O_24
    2  A    between atoms: C_3  and  C_7
    3  A    between atoms: C_3  and  N_9
    4  A    between atoms: C_5  and  C_22
    5  A    between atoms: N_8  and  C_25
    6  A    between atoms: N_9  and  C_30
    7  A    between atoms: C_16  and  O_24
    8  A    between atoms: C_18  and  C_27
    9  A    between atoms: C_22  and  C_23
   10  A    between atoms: C_23  and  C_30
                            x       y       z     vdW  Elec       q    Type
                         _______ _______ _______ _____ _____    ______ ____

>  <TORSDO>
F 10

$$$$
