=
 OpenBabel11072409063D

 47 50  0  0  1  0  0  0  0  0999 V2000
  191.7990  174.2300  145.2730 C   0  0  0  0  0  0  0  0  0  0  0  0
  191.1880  172.2510  143.9910 C   0  0  0  0  0  0  0  0  0  0  0  0
  193.0400  173.6400  145.5570 C   0  0  0  0  0  3  0  0  0  0  0  0
  190.8790  173.5190  144.4920 C   0  0  0  0  0  3  0  0  0  0  0  0
  194.6040  171.8230  145.3490 O   0  0  0  0  0  1  0  0  0  0  0  0
  192.7720  170.3810  143.7710 N   0  0  0  0  0  1  0  0  0  0  0  0
  193.3650  172.3760  145.0580 C   0  0  0  0  0  0  0  0  0  0  0  0
  192.4410  171.6750  144.2710 C   0  0  0  0  0  0  0  0  0  0  0  0
  190.3290  175.8010  146.6330 C   0  0  0  0  0  0  0  0  0  0  0  0
  189.8150  174.8780  147.3200 O   0  0  0  0  0  0  0  0  0  0  0  0
  192.1840  176.5930  145.3460 F   0  0  0  0  0  0  0  0  0  0  0  0
  191.4460  175.5370  145.7630 N   0  0  0  0  0  0  0  0  0  0  0  0
  187.5540  176.1580  146.8170 O   0  0  0  0  0  1  0  0  0  0  0  0
  189.0090  177.7750  145.6140 C   0  0  1  0  0  3  0  0  0  0  0  0
  188.3100  177.3370  146.8890 C   0  0  2  0  0  0  0  0  0  0  0  0
  189.8260  177.2140  146.8050 C   0  0  1  0  0  3  0  0  0  0  0  0
  187.8290  178.3600  147.6830 F   0  0  0  0  0  0  0  0  0  0  0  0
  189.8790  176.0970  142.3720 O   0  0  0  0  0  1  0  0  0  0  0  0
  188.1250  177.5000  143.3260 N   0  0  0  0  0  0  0  0  0  0  0  0
  189.5590  177.1270  143.2610 C   0  0  0  0  0  0  0  0  0  0  0  0
  190.4050  178.2390  143.2790 O   0  0  0  0  0  1  0  0  0  0  0  0
  188.7820  176.7900  144.4570 C   0  0  1  0  0  3  0  0  0  0  0  0
  187.2020  176.6180  142.5620 C   0  0  2  0  0  3  0  0  0  0  0  0
  187.5250  177.8870  140.5800 O   0  0  0  0  0  0  0  0  0  0  0  0
  186.8810  177.0160  141.1400 C   0  0  0  0  0  3  0  0  0  0  0  0
  185.9340  176.3060  143.3580 C   0  0  0  0  0  2  0  0  0  0  0  0
  184.1570  177.9820  142.8530 O   0  0  0  0  0  0  0  0  0  0  0  0
  185.4750  178.2090  144.7150 O   0  0  0  0  0  1  0  0  0  0  0  0
  185.1860  177.5520  143.6810 C   0  0  0  0  0  0  0  0  0  0  0  0
  190.1570  171.5300  143.1860 C   0  0  0  0  0  2  0  0  0  0  0  0
  190.0900  172.1120  141.8580 N   0  0  0  0  0  2  0  0  0  0  0  0
  190.6030  171.1610  140.9620 N   0  0  0  0  0  2  0  0  0  0  0  0
  191.5760  171.8140  140.0770 C   0  0  1  0  0  3  0  0  0  0  0  0
  195.7080  170.5850  141.4830 S   0  0  0  0  0  1  0  0  0  0  0  0
  192.9520  171.5610  140.5010 N   0  0  0  0  0  2  0  0  0  0  0  0
  195.1310  172.2540  141.4530 N   0  0  0  0  0  2  0  0  0  0  0  0
  193.8170  172.5900  140.9950 C   0  0  0  0  0  0  0  0  0  0  0  0
  193.4070  173.8230  141.0200 N   0  0  0  0  0  0  0  0  0  0  0  0
  194.2090  174.9320  141.5190 C   0  0  0  0  0  3  0  0  0  0  0  0
  194.7950  175.6950  140.3490 C   0  0  0  0  0  1  0  0  0  0  0  0
  193.3410  175.8710  142.3370 C   0  0  0  0  0  1  0  0  0  0  0  0
  191.3650  171.4490  138.6040 C   0  0  0  0  0  2  0  0  0  0  0  0
  189.3630  173.9340  137.0580 C   0  0  0  0  0  3  0  0  0  0  0  0
  190.7870  172.5480  137.8410 N   0  0  0  0  0  0  0  0  0  0  0  0
  191.4980  173.3990  137.1260 N   0  0  0  0  0  0  0  0  0  0  0  0
  189.4980  172.8370  137.8260 N   0  0  0  0  0  0  0  0  0  0  0  0
  190.6260  174.2890  136.6150 C   0  0  0  0  0  3  0  0  0  0  0  0
  1  3  1  0  0  0  0
  1 12  1  0  0  0  0
  2  8  2  0  0  0  0
  2  4  1  0  0  0  0
  4  1  2  0  0  0  0
  6  8  1  0  0  0  0
  7  5  1  0  0  0  0
  7  3  2  0  0  0  0
  8  7  1  0  0  0  0
  9 10  2  0  0  0  0
 11 12  1  0  0  0  0
 12  9  1  0  0  0  0
 14 22  1  6  0  0  0
 14 16  1  0  0  0  0
 14 15  1  0  0  0  0
 15 13  1  6  0  0  0
 15 17  1  0  0  0  0
 16  9  1  6  0  0  0
 16 15  1  0  0  0  0
 18 20  1  0  0  0  0
 19 22  1  0  0  0  0
 20 21  1  0  0  0  0
 20 19  1  0  0  0  0
 22 20  1  6  0  0  0
 23 25  1  6  0  0  0
 23 19  1  0  0  0  0
 23 26  1  0  0  0  0
 24 25  2  0  0  0  0
 26 29  1  0  0  0  0
 27 29  2  0  0  0  0
 29 28  1  0  0  0  0
 30  2  1  0  0  0  0
 31 30  1  0  0  0  0
 32 31  1  0  0  0  0
 33 42  1  6  0  0  0
 33 35  1  0  0  0  0
 33 32  1  0  0  0  0
 35 37  1  0  0  0  0
 36 34  1  0  0  0  0
 37 38  2  0  0  0  0
 37 36  1  0  0  0  0
 38 39  1  0  0  0  0
 39 41  1  0  0  0  0
 40 39  1  0  0  0  0
 43 46  2  0  0  0  0
 44 42  1  0  0  0  0
 45 44  1  0  0  0  0
 46 44  1  0  0  0  0
 47 43  1  0  0  0  0
 47 45  2  0  0  0  0
M  END
>  <MODEL>
1

>  <REMARK>
 VINA RESULT:      -6.1      0.000      0.000
  Name = 
  15 active torsions:
  status: ('A' for Active; 'I' for Inactive)
    1  A    between atoms: C_1  and  N_33
    2  A    between atoms: C_2  and  C_40
    3  A    between atoms: N_6  and  C_34
    4  A    between atoms: N_7  and  N_22
    5  A    between atoms: N_7  and  C_34
    6  A    between atoms: C_10  and  C_32
    7  A    between atoms: C_11  and  C_30
    8  A    between atoms: N_13  and  C_28
    9  A    between atoms: C_17  and  N_47
   10  A    between atoms: N_19  and  C_42
   11  A    between atoms: N_22  and  C_40
   12  A    between atoms: C_28  and  C_31
   13  A    between atoms: C_28  and  C_39
   14  A    between atoms: C_31  and  C_44
   15  A    between atoms: C_34  and  C_42
                            x       y       z     vdW  Elec       q    Type
                         _______ _______ _______ _____ _____    ______ ____

>  <TORSDO>
F 15

$$$$
=
 OpenBabel11072409063D

 47 50  0  0  1  0  0  0  0  0999 V2000
  190.6600  174.1990  142.2610 C   0  0  0  0  0  0  0  0  0  0  0  0
  191.6150  172.1590  141.3340 C   0  0  0  0  0  0  0  0  0  0  0  0
  189.5030  173.9840  141.4960 C   0  0  0  0  0  3  0  0  0  0  0  0
  191.7110  173.2780  142.1640 C   0  0  0  0  0  3  0  0  0  0  0  0
  188.2300  172.6750  139.9290 O   0  0  0  0  0  1  0  0  0  0  0  0
  190.3290  170.8100  139.7270 N   0  0  0  0  0  1  0  0  0  0  0  0
  189.3900  172.8650  140.6660 C   0  0  0  0  0  0  0  0  0  0  0  0
  190.4450  171.9450  140.5810 C   0  0  0  0  0  0  0  0  0  0  0  0
  190.0890  175.4850  144.3810 C   0  0  0  0  0  0  0  0  0  0  0  0
  189.6000  174.4830  144.9700 O   0  0  0  0  0  0  0  0  0  0  0  0
  191.6030  176.3480  142.7410 F   0  0  0  0  0  0  0  0  0  0  0  0
  190.7950  175.3350  143.1350 N   0  0  0  0  0  0  0  0  0  0  0  0
  187.8480  176.0020  145.9850 O   0  0  0  0  0  1  0  0  0  0  0  0
  188.8680  177.7570  144.5510 C   0  0  1  0  0  3  0  0  0  0  0  0
  188.7680  177.0560  145.8940 C   0  0  2  0  0  0  0  0  0  0  0  0
  190.0150  176.8390  145.0460 C   0  0  1  0  0  3  0  0  0  0  0  0
  188.9230  177.8690  147.0000 F   0  0  0  0  0  0  0  0  0  0  0  0
  187.8840  176.7540  141.0710 O   0  0  0  0  0  1  0  0  0  0  0  0
  187.1090  178.1990  142.8770 N   0  0  0  0  0  0  0  0  0  0  0  0
  188.2380  177.5880  142.1360 C   0  0  0  0  0  0  0  0  0  0  0  0
  189.2890  178.4840  141.9210 O   0  0  0  0  0  1  0  0  0  0  0  0
  187.9410  177.1330  143.4960 C   0  0  1  0  0  3  0  0  0  0  0  0
  185.7560  177.7110  142.4940 C   0  0  2  0  0  3  0  0  0  0  0  0
  185.0290  177.7870  140.2330 O   0  0  0  0  0  0  0  0  0  0  0  0
  185.0950  178.3670  141.3040 C   0  0  0  0  0  3  0  0  0  0  0  0
  184.8160  177.6550  143.6990 C   0  0  0  0  0  2  0  0  0  0  0  0
  185.6250  178.5950  145.8630 O   0  0  0  0  0  1  0  0  0  0  0  0
  184.7460  179.9700  144.2530 O   0  0  0  0  0  0  0  0  0  0  0  0
  185.0520  178.8040  144.6160 C   0  0  0  0  0  0  0  0  0  0  0  0
  192.7790  171.2260  141.2520 C   0  0  0  0  0  2  0  0  0  0  0  0
  193.8690  171.8770  140.5480 N   0  0  0  0  0  2  0  0  0  0  0  0
  195.0660  171.4170  141.1210 N   0  0  0  0  0  2  0  0  0  0  0  0
  195.6170  172.4670  141.9860 C   0  0  1  0  0  3  0  0  0  0  0  0
  196.8470  170.4220  145.8400 S   0  0  0  0  0  1  0  0  0  0  0  0
  196.0070  171.9460  143.2940 N   0  0  0  0  0  2  0  0  0  0  0  0
  196.0120  171.9760  145.7700 N   0  0  0  0  0  2  0  0  0  0  0  0
  195.6490  172.5820  144.5250 C   0  0  0  0  0  0  0  0  0  0  0  0
  195.0010  173.7090  144.5070 N   0  0  0  0  0  0  0  0  0  0  0  0
  194.5810  174.4200  145.7070 C   0  0  0  0  0  3  0  0  0  0  0  0
  194.8760  175.8970  145.5460 C   0  0  0  0  0  1  0  0  0  0  0  0
  193.0900  174.2340  145.9230 C   0  0  0  0  0  1  0  0  0  0  0  0
  196.7650  173.2330  141.3190 C   0  0  0  0  0  2  0  0  0  0  0  0
  196.2940  176.7000  141.8970 C   0  0  0  0  0  3  0  0  0  0  0  0
  196.8030  174.6330  141.7240 N   0  0  0  0  0  0  0  0  0  0  0  0
  197.6260  175.1100  142.6380 N   0  0  0  0  0  0  0  0  0  0  0  0
  195.9850  175.5580  141.2550 N   0  0  0  0  0  0  0  0  0  0  0  0
  197.3320  176.4180  142.7700 C   0  0  0  0  0  3  0  0  0  0  0  0
  1 12  1  0  0  0  0
  2  4  2  0  0  0  0
  3  1  2  0  0  0  0
  4  1  1  0  0  0  0
  5  7  1  0  0  0  0
  6  8  1  0  0  0  0
  7  3  1  0  0  0  0
  8  7  2  0  0  0  0
  8  2  1  0  0  0  0
  9 10  2  0  0  0  0
 11 12  1  0  0  0  0
 12  9  1  0  0  0  0
 14 22  1  6  0  0  0
 14 16  1  0  0  0  0
 14 15  1  0  0  0  0
 15 13  1  1  0  0  0
 15 17  1  0  0  0  0
 16  9  1  6  0  0  0
 16 15  1  0  0  0  0
 18 20  1  0  0  0  0
 19 22  1  0  0  0  0
 20 19  1  0  0  0  0
 21 20  1  0  0  0  0
 22 20  1  6  0  0  0
 23 25  1  6  0  0  0
 23 19  1  0  0  0  0
 23 26  1  0  0  0  0
 24 25  2  0  0  0  0
 26 29  1  0  0  0  0
 28 29  2  0  0  0  0
 29 27  1  0  0  0  0
 30  2  1  0  0  0  0
 31 32  1  0  0  0  0
 31 30  1  0  0  0  0
 32 33  1  0  0  0  0
 33 42  1  6  0  0  0
 33 35  1  0  0  0  0
 35 37  1  0  0  0  0
 36 34  1  0  0  0  0
 37 36  1  0  0  0  0
 38 37  2  0  0  0  0
 38 39  1  0  0  0  0
 39 41  1  0  0  0  0
 40 39  1  0  0  0  0
 42 44  1  0  0  0  0
 43 47  1  0  0  0  0
 44 45  1  0  0  0  0
 45 47  2  0  0  0  0
 46 44  1  0  0  0  0
 46 43  2  0  0  0  0
M  END
>  <MODEL>
2

>  <REMARK>
 VINA RESULT:      -6.1      2.387      4.362
  Name = 
  15 active torsions:
  status: ('A' for Active; 'I' for Inactive)
    1  A    between atoms: C_1  and  N_33
    2  A    between atoms: C_2  and  C_40
    3  A    between atoms: N_6  and  C_34
    4  A    between atoms: N_7  and  N_22
    5  A    between atoms: N_7  and  C_34
    6  A    between atoms: C_10  and  C_32
    7  A    between atoms: C_11  and  C_30
    8  A    between atoms: N_13  and  C_28
    9  A    between atoms: C_17  and  N_47
   10  A    between atoms: N_19  and  C_42
   11  A    between atoms: N_22  and  C_40
   12  A    between atoms: C_28  and  C_31
   13  A    between atoms: C_28  and  C_39
   14  A    between atoms: C_31  and  C_44
   15  A    between atoms: C_34  and  C_42
                            x       y       z     vdW  Elec       q    Type
                         _______ _______ _______ _____ _____    ______ ____

>  <TORSDO>
F 15

$$$$
=
 OpenBabel11072409063D

 47 50  0  0  1  0  0  0  0  0999 V2000
  190.8410  173.6640  144.1570 C   0  0  0  0  0  0  0  0  0  0  0  0
  189.7530  172.2830  142.4720 C   0  0  0  0  0  0  0  0  0  0  0  0
  191.7770  172.6390  144.3670 C   0  0  0  0  0  3  0  0  0  0  0  0
  189.8300  173.4680  143.2080 C   0  0  0  0  0  3  0  0  0  0  0  0
  192.6620  170.4600  143.8570 O   0  0  0  0  0  1  0  0  0  0  0  0
  190.6410  170.0500  141.9410 N   0  0  0  0  0  1  0  0  0  0  0  0
  191.7160  171.4510  143.6330 C   0  0  0  0  0  0  0  0  0  0  0  0
  190.7050  171.2670  142.6800 C   0  0  0  0  0  0  0  0  0  0  0  0
  189.9770  175.2570  145.9440 C   0  0  0  0  0  0  0  0  0  0  0  0
  189.3150  174.3700  146.5490 O   0  0  0  0  0  0  0  0  0  0  0  0
  191.8290  175.8130  144.5360 F   0  0  0  0  0  0  0  0  0  0  0  0
  190.8910  174.9030  144.8890 N   0  0  0  0  0  0  0  0  0  0  0  0
  187.4270  176.2080  146.6220 O   0  0  0  0  0  1  0  0  0  0  0  0
  189.0950  177.6370  145.4570 C   0  0  1  0  0  3  0  0  0  0  0  0
  188.4630  177.1450  146.7470 C   0  0  2  0  0  0  0  0  0  0  0  0
  189.8770  176.6910  146.4040 C   0  0  1  0  0  3  0  0  0  0  0  0
  188.3580  178.0870  147.7530 F   0  0  0  0  0  0  0  0  0  0  0  0
  189.0900  176.4930  141.8830 O   0  0  0  0  0  1  0  0  0  0  0  0
  187.8530  177.9950  143.3550 N   0  0  0  0  0  0  0  0  0  0  0  0
  189.1410  177.3700  142.9700 C   0  0  0  0  0  0  0  0  0  0  0  0
  190.2100  178.2700  143.0120 O   0  0  0  0  0  1  0  0  0  0  0  0
  188.4880  176.9630  144.2170 C   0  0  1  0  0  3  0  0  0  0  0  0
  186.6550  177.4780  142.6400 C   0  0  2  0  0  3  0  0  0  0  0  0
  185.2510  177.8400  140.7570 O   0  0  0  0  0  0  0  0  0  0  0  0
  186.1900  178.2440  141.4230 C   0  0  0  0  0  3  0  0  0  0  0  0
  185.5010  177.2010  143.6040 C   0  0  0  0  0  2  0  0  0  0  0  0
  185.7250  178.9300  145.3870 O   0  0  0  0  0  1  0  0  0  0  0  0
  184.0630  179.0870  143.8170 O   0  0  0  0  0  0  0  0  0  0  0  0
  185.0490  178.4520  144.2730 C   0  0  0  0  0  0  0  0  0  0  0  0
  188.6370  172.1210  141.4920 C   0  0  0  0  0  2  0  0  0  0  0  0
  188.6040  173.2690  140.6050 N   0  0  0  0  0  2  0  0  0  0  0  0
  188.3800  172.7840  139.3070 N   0  0  0  0  0  2  0  0  0  0  0  0
  189.5160  173.1560  138.4540 C   0  0  1  0  0  3  0  0  0  0  0  0
  192.5870  169.8350  138.7530 S   0  0  0  0  0  1  0  0  0  0  0  0
  190.6120  172.1960  138.5570 N   0  0  0  0  0  2  0  0  0  0  0  0
  192.8650  171.4890  139.3060 N   0  0  0  0  0  2  0  0  0  0  0  0
  191.8620  172.5030  139.1850 C   0  0  0  0  0  0  0  0  0  0  0  0
  192.0820  173.7020  139.6350 N   0  0  0  0  0  0  0  0  0  0  0  0
  193.3140  174.1030  140.3010 C   0  0  0  0  0  3  0  0  0  0  0  0
  194.1470  174.9410  139.3550 C   0  0  0  0  0  1  0  0  0  0  0  0
  192.9910  174.9250  141.5370 C   0  0  0  0  0  1  0  0  0  0  0  0
  189.1040  173.3850  136.9960 C   0  0  0  0  0  2  0  0  0  0  0  0
  187.4680  176.3520  135.9510 C   0  0  0  0  0  3  0  0  0  0  0  0
  188.3170  174.6000  136.8290 N   0  0  0  0  0  0  0  0  0  0  0  0
  187.4410  175.0350  137.7150 N   0  0  0  0  0  0  0  0  0  0  0  0
  188.3610  175.3650  135.7530 N   0  0  0  0  0  0  0  0  0  0  0  0
  186.8870  176.1440  137.1910 C   0  0  0  0  0  3  0  0  0  0  0  0
  1  3  1  0  0  0  0
  1 12  1  0  0  0  0
  2  8  2  0  0  0  0
  2  4  1  0  0  0  0
  4  1  2  0  0  0  0
  6  8  1  0  0  0  0
  7  5  1  0  0  0  0
  7  3  2  0  0  0  0
  8  7  1  0  0  0  0
  9 10  2  0  0  0  0
 11 12  1  0  0  0  0
 12  9  1  0  0  0  0
 14 22  1  6  0  0  0
 14 16  1  0  0  0  0
 14 15  1  0  0  0  0
 15 13  1  6  0  0  0
 15 17  1  0  0  0  0
 16  9  1  6  0  0  0
 16 15  1  0  0  0  0
 18 20  1  0  0  0  0
 19 22  1  0  0  0  0
 20 21  1  0  0  0  0
 20 19  1  0  0  0  0
 22 20  1  6  0  0  0
 23 25  1  6  0  0  0
 23 19  1  0  0  0  0
 23 26  1  0  0  0  0
 24 25  2  0  0  0  0
 26 29  1  0  0  0  0
 28 29  2  0  0  0  0
 29 27  1  0  0  0  0
 30  2  1  0  0  0  0
 31 30  1  0  0  0  0
 32 31  1  0  0  0  0
 33 42  1  6  0  0  0
 33 35  1  0  0  0  0
 33 32  1  0  0  0  0
 34 36  1  0  0  0  0
 35 37  1  0  0  0  0
 37 36  1  0  0  0  0
 37 38  2  0  0  0  0
 38 39  1  0  0  0  0
 39 41  1  0  0  0  0
 40 39  1  0  0  0  0
 43 47  1  0  0  0  0
 44 42  1  0  0  0  0
 44 45  1  0  0  0  0
 46 43  2  0  0  0  0
 46 44  1  0  0  0  0
 47 45  2  0  0  0  0
M  END
>  <MODEL>
3

>  <REMARK>
 VINA RESULT:      -6.0      1.687      2.259
  Name = 
  15 active torsions:
  status: ('A' for Active; 'I' for Inactive)
    1  A    between atoms: C_1  and  N_33
    2  A    between atoms: C_2  and  C_40
    3  A    between atoms: N_6  and  C_34
    4  A    between atoms: N_7  and  N_22
    5  A    between atoms: N_7  and  C_34
    6  A    between atoms: C_10  and  C_32
    7  A    between atoms: C_11  and  C_30
    8  A    between atoms: N_13  and  C_28
    9  A    between atoms: C_17  and  N_47
   10  A    between atoms: N_19  and  C_42
   11  A    between atoms: N_22  and  C_40
   12  A    between atoms: C_28  and  C_31
   13  A    between atoms: C_28  and  C_39
   14  A    between atoms: C_31  and  C_44
   15  A    between atoms: C_34  and  C_42
                            x       y       z     vdW  Elec       q    Type
                         _______ _______ _______ _____ _____    ______ ____

>  <TORSDO>
F 15

$$$$
=
 OpenBabel11072409063D

 47 50  0  0  1  0  0  0  0  0999 V2000
  191.4020  173.9190  143.1660 C   0  0  0  0  0  0  0  0  0  0  0  0
  192.2380  171.6820  142.6840 C   0  0  0  0  0  0  0  0  0  0  0  0
  190.3320  173.6880  142.2880 C   0  0  0  0  0  3  0  0  0  0  0  0
  192.3520  172.9060  143.3490 C   0  0  0  0  0  3  0  0  0  0  0  0
  189.1260  172.2660  140.7660 O   0  0  0  0  0  1  0  0  0  0  0  0
  191.0220  170.2160  141.1270 N   0  0  0  0  0  1  0  0  0  0  0  0
  190.2020  172.4670  141.6210 C   0  0  0  0  0  0  0  0  0  0  0  0
  191.1530  171.4570  141.8160 C   0  0  0  0  0  0  0  0  0  0  0  0
  191.0380  175.4030  145.2010 C   0  0  0  0  0  0  0  0  0  0  0  0
  190.7590  174.4430  145.9690 O   0  0  0  0  0  0  0  0  0  0  0  0
  192.1720  176.1860  143.2450 F   0  0  0  0  0  0  0  0  0  0  0  0
  191.5500  175.1620  143.8760 N   0  0  0  0  0  0  0  0  0  0  0  0
  188.9110  175.9610  146.9410 O   0  0  0  0  0  1  0  0  0  0  0  0
  189.6770  177.6000  145.2350 C   0  0  1  0  0  3  0  0  0  0  0  0
  189.7420  177.0530  146.6500 C   0  0  2  0  0  0  0  0  0  0  0  0
  190.9240  176.8160  145.7180 C   0  0  1  0  0  3  0  0  0  0  0  0
  189.9330  177.9950  147.6420 F   0  0  0  0  0  0  0  0  0  0  0  0
  188.3320  176.3500  141.9620 O   0  0  0  0  0  1  0  0  0  0  0  0
  187.6250  177.7020  143.8670 N   0  0  0  0  0  0  0  0  0  0  0  0
  188.7070  177.2610  142.9550 C   0  0  0  0  0  0  0  0  0  0  0  0
  189.5480  178.3090  142.5710 O   0  0  0  0  0  1  0  0  0  0  0  0
  188.7100  176.8030  144.3460 C   0  0  1  0  0  3  0  0  0  0  0  0
  186.3280  176.9900  143.7090 C   0  0  2  0  0  3  0  0  0  0  0  0
  185.4170  178.5820  142.1990 O   0  0  0  0  0  0  0  0  0  0  0  0
  185.4370  177.4190  142.5660 C   0  0  0  0  0  3  0  0  0  0  0  0
  185.5570  176.9240  145.0280 C   0  0  0  0  0  2  0  0  0  0  0  0
  185.0240  179.3310  145.4060 O   0  0  0  0  0  0  0  0  0  0  0  0
  186.4430  178.2170  146.8210 O   0  0  0  0  0  1  0  0  0  0  0  0
  185.7080  178.1880  145.7990 C   0  0  0  0  0  0  0  0  0  0  0  0
  193.2960  170.6500  142.9000 C   0  0  0  0  0  2  0  0  0  0  0  0
  194.5960  171.2260  142.6110 N   0  0  0  0  0  2  0  0  0  0  0  0
  195.4020  171.0200  143.7420 N   0  0  0  0  0  2  0  0  0  0  0  0
  196.4280  172.0690  143.7960 C   0  0  1  0  0  3  0  0  0  0  0  0
  194.6960  175.5760  146.0880 S   0  0  0  0  0  1  0  0  0  0  0  0
  195.9270  173.2890  144.4250 N   0  0  0  0  0  2  0  0  0  0  0  0
  195.0790  175.6150  144.3650 N   0  0  0  0  0  2  0  0  0  0  0  0
  195.6290  174.4790  143.6880 C   0  0  0  0  0  0  0  0  0  0  0  0
  195.8640  174.5260  142.4110 N   0  0  0  0  0  0  0  0  0  0  0  0
  195.5790  175.6870  141.5770 C   0  0  0  0  0  3  0  0  0  0  0  0
  196.7230  175.9030  140.6080 C   0  0  0  0  0  1  0  0  0  0  0  0
  194.3000  175.4580  140.7910 C   0  0  0  0  0  1  0  0  0  0  0  0
  197.7240  171.5870  144.4570 C   0  0  0  0  0  2  0  0  0  0  0  0
  196.7560  169.3500  147.0330 C   0  0  0  0  0  3  0  0  0  0  0  0
  197.4950  170.4810  145.3790 N   0  0  0  0  0  0  0  0  0  0  0  0
  197.9410  169.2550  145.1790 N   0  0  0  0  0  0  0  0  0  0  0  0
  196.7770  170.5790  146.4830 N   0  0  0  0  0  0  0  0  0  0  0  0
  197.4920  168.5140  146.2100 C   0  0  0  0  0  3  0  0  0  0  0  0
  1  4  1  0  0  0  0
  1 12  1  0  0  0  0
  2 30  1  0  0  0  0
  2  4  2  0  0  0  0
  3  1  2  0  0  0  0
  5  7  1  0  0  0  0
  6  8  1  0  0  0  0
  7  8  2  0  0  0  0
  7  3  1  0  0  0  0
  8  2  1  0  0  0  0
  9 10  2  0  0  0  0
 11 12  1  0  0  0  0
 12  9  1  0  0  0  0
 14 22  1  6  0  0  0
 14 16  1  0  0  0  0
 14 15  1  0  0  0  0
 15 13  1  1  0  0  0
 15 17  1  0  0  0  0
 16  9  1  6  0  0  0
 16 15  1  0  0  0  0
 18 20  1  0  0  0  0
 19 22  1  0  0  0  0
 20 19  1  0  0  0  0
 21 20  1  0  0  0  0
 22 20  1  6  0  0  0
 23 25  1  6  0  0  0
 23 19  1  0  0  0  0
 23 26  1  0  0  0  0
 24 25  2  0  0  0  0
 26 29  1  0  0  0  0
 27 29  2  0  0  0  0
 29 28  1  0  0  0  0
 31 30  1  0  0  0  0
 31 32  1  0  0  0  0
 32 33  1  0  0  0  0
 33 35  1  0  0  0  0
 33 42  1  1  0  0  0
 36 34  1  0  0  0  0
 37 36  1  0  0  0  0
 37 35  1  0  0  0  0
 38 37  2  0  0  0  0
 39 38  1  0  0  0  0
 40 39  1  0  0  0  0
 41 39  1  0  0  0  0
 42 44  1  0  0  0  0
 44 46  1  0  0  0  0
 45 44  1  0  0  0  0
 45 47  2  0  0  0  0
 46 43  2  0  0  0  0
 47 43  1  0  0  0  0
M  END
>  <MODEL>
4

>  <REMARK>
 VINA RESULT:      -6.0      2.755      5.054
  Name = 
  15 active torsions:
  status: ('A' for Active; 'I' for Inactive)
    1  A    between atoms: C_1  and  N_33
    2  A    between atoms: C_2  and  C_40
    3  A    between atoms: N_6  and  C_34
    4  A    between atoms: N_7  and  N_22
    5  A    between atoms: N_7  and  C_34
    6  A    between atoms: C_10  and  C_32
    7  A    between atoms: C_11  and  C_30
    8  A    between atoms: N_13  and  C_28
    9  A    between atoms: C_17  and  N_47
   10  A    between atoms: N_19  and  C_42
   11  A    between atoms: N_22  and  C_40
   12  A    between atoms: C_28  and  C_31
   13  A    between atoms: C_28  and  C_39
   14  A    between atoms: C_31  and  C_44
   15  A    between atoms: C_34  and  C_42
                            x       y       z     vdW  Elec       q    Type
                         _______ _______ _______ _____ _____    ______ ____

>  <TORSDO>
F 15

$$$$
=
 OpenBabel11072409063D

 47 50  0  0  1  0  0  0  0  0999 V2000
  193.0480  175.4190  145.9290 C   0  0  0  0  0  0  0  0  0  0  0  0
  190.8930  174.3010  145.7340 C   0  0  0  0  0  0  0  0  0  0  0  0
  192.4530  176.3810  146.7600 C   0  0  0  0  0  3  0  0  0  0  0  0
  192.2510  174.3870  145.4180 C   0  0  0  0  0  3  0  0  0  0  0  0
  190.5400  177.2650  147.9220 O   0  0  0  0  0  1  0  0  0  0  0  0
  188.9250  175.1930  146.9110 N   0  0  0  0  0  1  0  0  0  0  0  0
  191.0970  176.3040  147.0900 C   0  0  0  0  0  0  0  0  0  0  0  0
  190.3100  175.2630  146.5800 C   0  0  0  0  0  0  0  0  0  0  0  0
  194.9450  175.6780  144.2520 C   0  0  0  0  0  0  0  0  0  0  0  0
  194.2170  176.2030  143.3660 O   0  0  0  0  0  0  0  0  0  0  0  0
  195.3490  175.2580  146.5720 F   0  0  0  0  0  0  0  0  0  0  0  0
  194.4460  175.4670  145.5870 N   0  0  0  0  0  0  0  0  0  0  0  0
  195.4600  174.4170  141.8010 O   0  0  0  0  0  1  0  0  0  0  0  0
  196.7320  173.8530  143.8600 C   0  0  1  0  0  3  0  0  0  0  0  0
  196.5930  174.6700  142.5880 C   0  0  2  0  0  0  0  0  0  0  0  0
  196.3850  175.3620  143.9290 C   0  0  1  0  0  3  0  0  0  0  0  0
  197.7750  174.9580  141.9350 F   0  0  0  0  0  0  0  0  0  0  0  0
  194.4940  171.6340  145.8970 O   0  0  0  0  0  1  0  0  0  0  0  0
  196.0240  171.4930  144.0010 N   0  0  0  0  0  0  0  0  0  0  0  0
  195.6670  172.1090  145.3020 C   0  0  0  0  0  0  0  0  0  0  0  0
  196.7750  172.2890  146.1340 O   0  0  0  0  0  1  0  0  0  0  0  0
  195.5470  172.9000  144.0750 C   0  0  1  0  0  3  0  0  0  0  0  0
  195.0020  170.5770  143.4280 C   0  0  2  0  0  3  0  0  0  0  0  0
  194.2190  168.5770  144.4430 O   0  0  0  0  0  0  0  0  0  0  0  0
  195.1000  169.1140  143.7930 C   0  0  0  0  0  3  0  0  0  0  0  0
  194.8570  170.7700  141.9180 C   0  0  0  0  0  2  0  0  0  0  0  0
  193.0230  170.9960  140.2420 O   0  0  0  0  0  0  0  0  0  0  0  0
  192.6580  171.5180  142.4440 O   0  0  0  0  0  1  0  0  0  0  0  0
  193.4560  171.1220  141.5550 C   0  0  0  0  0  0  0  0  0  0  0  0
  190.0890  173.1920  145.1380 C   0  0  0  0  0  2  0  0  0  0  0  0
  189.2830  173.7130  144.0490 N   0  0  0  0  0  2  0  0  0  0  0  0
  189.7530  173.1220  142.8650 N   0  0  0  0  0  2  0  0  0  0  0  0
  189.7190  174.1170  141.7860 C   0  0  1  0  0  3  0  0  0  0  0  0
  191.0430  178.0590  143.5910 S   0  0  0  0  0  1  0  0  0  0  0  0
  190.0510  175.4560  142.2690 N   0  0  0  0  0  2  0  0  0  0  0  0
  189.5220  177.8320  142.7230 N   0  0  0  0  0  2  0  0  0  0  0  0
  189.1520  176.5660  142.1680 C   0  0  0  0  0  0  0  0  0  0  0  0
  188.0090  176.4200  141.5670 N   0  0  0  0  0  0  0  0  0  0  0  0
  187.0260  177.4870  141.4300 C   0  0  0  0  0  3  0  0  0  0  0  0
  186.5050  177.5100  140.0080 C   0  0  0  0  0  1  0  0  0  0  0  0
  185.8650  177.2460  142.3790 C   0  0  0  0  0  1  0  0  0  0  0  0
  190.5920  173.7170  140.5920 C   0  0  0  0  0  2  0  0  0  0  0  0
  188.2600  173.9770  137.9330 C   0  0  0  0  0  3  0  0  0  0  0  0
  189.8570  173.7550  139.3340 N   0  0  0  0  0  0  0  0  0  0  0  0
  190.4250  173.6360  138.1490 N   0  0  0  0  0  0  0  0  0  0  0  0
  188.5560  173.9630  139.2460 N   0  0  0  0  0  0  0  0  0  0  0  0
  189.4410  173.7700  137.2400 C   0  0  0  0  0  3  0  0  0  0  0  0
  1  3  1  0  0  0  0
  2  8  2  0  0  0  0
  3  7  2  0  0  0  0
  4  2  1  0  0  0  0
  4  1  2  0  0  0  0
  7  5  1  0  0  0  0
  8  6  1  0  0  0  0
  8  7  1  0  0  0  0
  9 12  1  0  0  0  0
 10  9  2  0  0  0  0
 12  1  1  0  0  0  0
 12 11  1  0  0  0  0
 14 16  1  0  0  0  0
 14 22  1  6  0  0  0
 15 13  1  6  0  0  0
 15 14  1  0  0  0  0
 15 16  1  0  0  0  0
 16  9  1  6  0  0  0
 17 15  1  0  0  0  0
 19 20  1  0  0  0  0
 20 18  1  0  0  0  0
 20 21  1  0  0  0  0
 22 19  1  6  0  0  0
 22 20  1  0  0  0  0
 23 26  1  6  0  0  0
 23 25  1  0  0  0  0
 23 19  1  0  0  0  0
 25 24  2  0  0  0  0
 27 29  2  0  0  0  0
 29 26  1  0  0  0  0
 29 28  1  0  0  0  0
 30  2  1  0  0  0  0
 31 30  1  0  0  0  0
 32 31  1  0  0  0  0
 33 42  1  6  0  0  0
 33 35  1  0  0  0  0
 33 32  1  0  0  0  0
 36 34  1  0  0  0  0
 37 35  1  0  0  0  0
 37 36  1  0  0  0  0
 38 37  2  0  0  0  0
 39 38  1  0  0  0  0
 39 41  1  0  0  0  0
 40 39  1  0  0  0  0
 43 46  2  0  0  0  0
 44 42  1  0  0  0  0
 45 44  1  0  0  0  0
 46 44  1  0  0  0  0
 47 43  1  0  0  0  0
 47 45  2  0  0  0  0
M  END
>  <MODEL>
5

>  <REMARK>
 VINA RESULT:      -5.9      3.443      7.179
  Name = 
  15 active torsions:
  status: ('A' for Active; 'I' for Inactive)
    1  A    between atoms: C_1  and  N_33
    2  A    between atoms: C_2  and  C_40
    3  A    between atoms: N_6  and  C_34
    4  A    between atoms: N_7  and  N_22
    5  A    between atoms: N_7  and  C_34
    6  A    between atoms: C_10  and  C_32
    7  A    between atoms: C_11  and  C_30
    8  A    between atoms: N_13  and  C_28
    9  A    between atoms: C_17  and  N_47
   10  A    between atoms: N_19  and  C_42
   11  A    between atoms: N_22  and  C_40
   12  A    between atoms: C_28  and  C_31
   13  A    between atoms: C_28  and  C_39
   14  A    between atoms: C_31  and  C_44
   15  A    between atoms: C_34  and  C_42
                            x       y       z     vdW  Elec       q    Type
                         _______ _______ _______ _____ _____    ______ ____

>  <TORSDO>
F 15

$$$$
=
 OpenBabel11072409063D

 47 50  0  0  1  0  0  0  0  0999 V2000
  191.7460  174.2260  145.1720 C   0  0  0  0  0  0  0  0  0  0  0  0
  191.1910  172.3520  143.7180 C   0  0  0  0  0  0  0  0  0  0  0  0
  192.9230  173.5600  145.5500 C   0  0  0  0  0  3  0  0  0  0  0  0
  190.8870  173.6050  144.2570 C   0  0  0  0  0  3  0  0  0  0  0  0
  194.4190  171.6810  145.4010 O   0  0  0  0  0  1  0  0  0  0  0  0
  192.7060  170.4200  143.5570 N   0  0  0  0  0  1  0  0  0  0  0  0
  193.2430  172.3100  145.0140 C   0  0  0  0  0  0  0  0  0  0  0  0
  192.3800  171.6990  144.0940 C   0  0  0  0  0  0  0  0  0  0  0  0
  190.2890  175.7650  146.5790 C   0  0  0  0  0  0  0  0  0  0  0  0
  189.7730  174.8260  147.2440 O   0  0  0  0  0  0  0  0  0  0  0  0
  192.1410  176.5840  145.3060 F   0  0  0  0  0  0  0  0  0  0  0  0
  191.4010  175.5210  145.6980 N   0  0  0  0  0  0  0  0  0  0  0  0
  187.5170  176.1250  146.8080 O   0  0  0  0  0  1  0  0  0  0  0  0
  188.9600  177.7660  145.6240 C   0  0  1  0  0  3  0  0  0  0  0  0
  188.2770  177.3000  146.8970 C   0  0  2  0  0  0  0  0  0  0  0  0
  189.7920  177.1750  146.7910 C   0  0  1  0  0  3  0  0  0  0  0  0
  187.8090  178.3050  147.7210 F   0  0  0  0  0  0  0  0  0  0  0  0
  189.7860  176.1600  142.3340 O   0  0  0  0  0  1  0  0  0  0  0  0
  188.0490  177.5480  143.3400 N   0  0  0  0  0  0  0  0  0  0  0  0
  189.4800  177.1710  143.2510 C   0  0  0  0  0  0  0  0  0  0  0  0
  190.3310  178.2790  143.2840 O   0  0  0  0  0  1  0  0  0  0  0  0
  188.7160  176.8090  144.4470 C   0  0  1  0  0  3  0  0  0  0  0  0
  187.1140  176.6870  142.5680 C   0  0  2  0  0  3  0  0  0  0  0  0
  187.0390  177.9100  140.5310 O   0  0  0  0  0  0  0  0  0  0  0  0
  187.1370  176.8150  141.0620 C   0  0  0  0  0  3  0  0  0  0  0  0
  185.6880  176.7700  143.1160 C   0  0  0  0  0  2  0  0  0  0  0  0
  185.4010  179.2480  143.1200 O   0  0  0  0  0  0  0  0  0  0  0  0
  185.3150  178.0630  145.0810 O   0  0  0  0  0  1  0  0  0  0  0  0
  185.4640  178.0570  143.8310 C   0  0  0  0  0  0  0  0  0  0  0  0
  190.2230  171.7280  142.7680 C   0  0  0  0  0  2  0  0  0  0  0  0
  190.2560  172.4450  141.5060 N   0  0  0  0  0  2  0  0  0  0  0  0
  191.0500  171.6960  140.6230 N   0  0  0  0  0  2  0  0  0  0  0  0
  192.3170  172.4040  140.4010 C   0  0  1  0  0  3  0  0  0  0  0  0
  194.6030  171.3900  136.6200 S   0  0  0  0  0  1  0  0  0  0  0  0
  192.9180  172.0550  139.1160 N   0  0  0  0  0  2  0  0  0  0  0  0
  192.9220  171.9310  136.6430 N   0  0  0  0  0  2  0  0  0  0  0  0
  192.2440  172.2350  137.8660 C   0  0  0  0  0  0  0  0  0  0  0  0
  191.0180  172.6670  137.8480 N   0  0  0  0  0  0  0  0  0  0  0  0
  190.2590  172.8960  136.6250 C   0  0  0  0  0  3  0  0  0  0  0  0
  189.3510  171.7110  136.3690 C   0  0  0  0  0  1  0  0  0  0  0  0
  189.4110  174.1480  136.7690 C   0  0  0  0  0  1  0  0  0  0  0  0
  192.1760  173.9220  140.5620 C   0  0  0  0  0  2  0  0  0  0  0  0
  194.9280  174.6840  142.6640 C   0  0  0  0  0  3  0  0  0  0  0  0
  193.1580  174.4720  141.4870 N   0  0  0  0  0  0  0  0  0  0  0  0
  193.0700  175.6760  142.0200 N   0  0  0  0  0  0  0  0  0  0  0  0
  194.2620  173.8440  141.8500 N   0  0  0  0  0  0  0  0  0  0  0  0
  194.1740  175.8420  142.7720 C   0  0  0  0  0  3  0  0  0  0  0  0
  1  3  1  0  0  0  0
  1 12  1  0  0  0  0
  2  8  2  0  0  0  0
  2  4  1  0  0  0  0
  4  1  2  0  0  0  0
  6  8  1  0  0  0  0
  7  5  1  0  0  0  0
  7  3  2  0  0  0  0
  8  7  1  0  0  0  0
  9 10  2  0  0  0  0
 11 12  1  0  0  0  0
 12  9  1  0  0  0  0
 14 22  1  6  0  0  0
 14 16  1  0  0  0  0
 14 15  1  0  0  0  0
 15 13  1  6  0  0  0
 15 17  1  0  0  0  0
 16  9  1  6  0  0  0
 16 15  1  0  0  0  0
 18 20  1  0  0  0  0
 19 22  1  0  0  0  0
 20 21  1  0  0  0  0
 20 19  1  0  0  0  0
 22 20  1  6  0  0  0
 23 25  1  6  0  0  0
 23 26  1  0  0  0  0
 23 19  1  0  0  0  0
 24 25  2  0  0  0  0
 26 29  1  0  0  0  0
 27 29  2  0  0  0  0
 29 28  1  0  0  0  0
 30  2  1  0  0  0  0
 31 30  1  0  0  0  0
 32 31  1  0  0  0  0
 33 42  1  6  0  0  0
 33 32  1  0  0  0  0
 34 36  1  0  0  0  0
 35 33  1  0  0  0  0
 36 37  1  0  0  0  0
 37 35  1  0  0  0  0
 38 37  2  0  0  0  0
 39 41  1  0  0  0  0
 39 38  1  0  0  0  0
 40 39  1  0  0  0  0
 42 44  1  0  0  0  0
 43 47  1  0  0  0  0
 44 46  1  0  0  0  0
 44 45  1  0  0  0  0
 45 47  2  0  0  0  0
 46 43  2  0  0  0  0
M  END
>  <MODEL>
6

>  <REMARK>
 VINA RESULT:      -5.8      1.156      3.153
  Name = 
  15 active torsions:
  status: ('A' for Active; 'I' for Inactive)
    1  A    between atoms: C_1  and  N_33
    2  A    between atoms: C_2  and  C_40
    3  A    between atoms: N_6  and  C_34
    4  A    between atoms: N_7  and  N_22
    5  A    between atoms: N_7  and  C_34
    6  A    between atoms: C_10  and  C_32
    7  A    between atoms: C_11  and  C_30
    8  A    between atoms: N_13  and  C_28
    9  A    between atoms: C_17  and  N_47
   10  A    between atoms: N_19  and  C_42
   11  A    between atoms: N_22  and  C_40
   12  A    between atoms: C_28  and  C_31
   13  A    between atoms: C_28  and  C_39
   14  A    between atoms: C_31  and  C_44
   15  A    between atoms: C_34  and  C_42
                            x       y       z     vdW  Elec       q    Type
                         _______ _______ _______ _____ _____    ______ ____

>  <TORSDO>
F 15

$$$$
=
 OpenBabel11072409063D

 47 50  0  0  1  0  0  0  0  0999 V2000
  191.7970  172.1030  143.4490 C   0  0  0  0  0  0  0  0  0  0  0  0
  189.9070  173.5870  143.8450 C   0  0  0  0  0  0  0  0  0  0  0  0
  191.3960  171.9780  142.1100 C   0  0  0  0  0  3  0  0  0  0  0  0
  191.0370  172.9080  144.3070 C   0  0  0  0  0  3  0  0  0  0  0  0
  189.9050  172.5200  140.3010 O   0  0  0  0  0  1  0  0  0  0  0  0
  188.3690  174.1480  142.0080 N   0  0  0  0  0  1  0  0  0  0  0  0
  190.2710  172.6560  141.6330 C   0  0  0  0  0  0  0  0  0  0  0  0
  189.5210  173.4650  142.4970 C   0  0  0  0  0  0  0  0  0  0  0  0
  193.8550  171.9870  144.9430 C   0  0  0  0  0  0  0  0  0  0  0  0
  193.4830  172.9340  145.6880 O   0  0  0  0  0  0  0  0  0  0  0  0
  193.2600  170.2070  143.4600 F   0  0  0  0  0  0  0  0  0  0  0  0
  192.9610  171.4270  143.9620 N   0  0  0  0  0  0  0  0  0  0  0  0
  195.9600  173.7350  145.5580 O   0  0  0  0  0  1  0  0  0  0  0  0
  196.2850  171.7530  144.0940 C   0  0  1  0  0  3  0  0  0  0  0  0
  196.3170  172.3820  145.4760 C   0  0  2  0  0  0  0  0  0  0  0  0
  195.2180  171.3760  145.1540 C   0  0  1  0  0  3  0  0  0  0  0  0
  197.3230  171.9330  146.3090 F   0  0  0  0  0  0  0  0  0  0  0  0
  194.8060  172.6930  140.7760 O   0  0  0  0  0  1  0  0  0  0  0  0
  196.8950  172.9310  142.0130 N   0  0  0  0  0  0  0  0  0  0  0  0
  195.6950  172.1220  141.6920 C   0  0  0  0  0  0  0  0  0  0  0  0
  195.9880  170.7650  141.5340 O   0  0  0  0  0  1  0  0  0  0  0  0
  195.8120  172.7390  143.0150 C   0  0  1  0  0  3  0  0  0  0  0  0
  196.9060  174.3080  141.4480 C   0  0  2  0  0  3  0  0  0  0  0  0
  197.8510  175.6220  139.7090 O   0  0  0  0  0  0  0  0  0  0  0  0
  197.5830  174.5020  140.1110 C   0  0  0  0  0  3  0  0  0  0  0  0
  197.3860  175.3340  142.4750 C   0  0  0  0  0  2  0  0  0  0  0  0
  196.4400  177.1610  143.8870 O   0  0  0  0  0  1  0  0  0  0  0  0
  195.2950  176.3940  142.0550 O   0  0  0  0  0  0  0  0  0  0  0  0
  196.3130  176.3170  142.7920 C   0  0  0  0  0  0  0  0  0  0  0  0
  189.1210  174.4100  144.8130 C   0  0  0  0  0  2  0  0  0  0  0  0
  189.4980  174.0500  146.1680 N   0  0  0  0  0  2  0  0  0  0  0  0
  188.9130  174.9950  147.0260 N   0  0  0  0  0  2  0  0  0  0  0  0
  189.2010  176.3430  146.5220 C   0  0  1  0  0  3  0  0  0  0  0  0
  185.5170  178.8780  147.2640 S   0  0  0  0  0  1  0  0  0  0  0  0
  188.0390  177.2220  146.6240 N   0  0  0  0  0  2  0  0  0  0  0  0
  186.1670  178.5260  145.6600 N   0  0  0  0  0  2  0  0  0  0  0  0
  187.3380  177.7220  145.4800 C   0  0  0  0  0  0  0  0  0  0  0  0
  187.7710  177.4500  144.2860 N   0  0  0  0  0  0  0  0  0  0  0  0
  187.1150  177.9010  143.0650 C   0  0  0  0  0  3  0  0  0  0  0  0
  188.1460  178.0450  141.9650 C   0  0  0  0  0  1  0  0  0  0  0  0
  186.0690  176.8880  142.6340 C   0  0  0  0  0  1  0  0  0  0  0  0
  190.4360  176.9640  147.1840 C   0  0  0  0  0  2  0  0  0  0  0  0
  193.6630  176.3710  145.8380 C   0  0  0  0  0  3  0  0  0  0  0  0
  191.6400  176.7890  146.3810 N   0  0  0  0  0  0  0  0  0  0  0  0
  191.6580  176.8480  145.0630 N   0  0  0  0  0  0  0  0  0  0  0  0
  192.8270  176.5020  146.8850 N   0  0  0  0  0  0  0  0  0  0  0  0
  192.9250  176.5900  144.6870 C   0  0  0  0  0  3  0  0  0  0  0  0
  1 12  1  0  0  0  0
  1  4  1  0  0  0  0
  2  4  2  0  0  0  0
  2 30  1  0  0  0  0
  3  1  2  0  0  0  0
  5  7  1  0  0  0  0
  6  8  1  0  0  0  0
  7  3  1  0  0  0  0
  7  8  2  0  0  0  0
  8  2  1  0  0  0  0
  9 10  2  0  0  0  0
 11 12  1  0  0  0  0
 12  9  1  0  0  0  0
 14 22  1  6  0  0  0
 14 16  1  0  0  0  0
 14 15  1  0  0  0  0
 15 13  1  1  0  0  0
 15 17  1  0  0  0  0
 16  9  1  6  0  0  0
 16 15  1  0  0  0  0
 18 20  1  0  0  0  0
 19 22  1  0  0  0  0
 20 19  1  0  0  0  0
 21 20  1  0  0  0  0
 22 20  1  6  0  0  0
 23 25  1  6  0  0  0
 23 19  1  0  0  0  0
 23 26  1  0  0  0  0
 24 25  2  0  0  0  0
 26 29  1  0  0  0  0
 28 29  2  0  0  0  0
 29 27  1  0  0  0  0
 30 31  1  0  0  0  0
 31 32  1  0  0  0  0
 33 35  1  0  0  0  0
 33 32  1  0  0  0  0
 33 42  1  1  0  0  0
 36 34  1  0  0  0  0
 37 36  1  0  0  0  0
 37 35  1  0  0  0  0
 38 37  2  0  0  0  0
 39 38  1  0  0  0  0
 40 39  1  0  0  0  0
 41 39  1  0  0  0  0
 43 46  2  0  0  0  0
 44 46  1  0  0  0  0
 44 42  1  0  0  0  0
 45 44  1  0  0  0  0
 47 45  2  0  0  0  0
 47 43  1  0  0  0  0
M  END
>  <MODEL>
7

>  <REMARK>
 VINA RESULT:      -5.6      4.426      8.509
  Name = 
  15 active torsions:
  status: ('A' for Active; 'I' for Inactive)
    1  A    between atoms: C_1  and  N_33
    2  A    between atoms: C_2  and  C_40
    3  A    between atoms: N_6  and  C_34
    4  A    between atoms: N_7  and  N_22
    5  A    between atoms: N_7  and  C_34
    6  A    between atoms: C_10  and  C_32
    7  A    between atoms: C_11  and  C_30
    8  A    between atoms: N_13  and  C_28
    9  A    between atoms: C_17  and  N_47
   10  A    between atoms: N_19  and  C_42
   11  A    between atoms: N_22  and  C_40
   12  A    between atoms: C_28  and  C_31
   13  A    between atoms: C_28  and  C_39
   14  A    between atoms: C_31  and  C_44
   15  A    between atoms: C_34  and  C_42
                            x       y       z     vdW  Elec       q    Type
                         _______ _______ _______ _____ _____    ______ ____

>  <TORSDO>
F 15

$$$$
=
 OpenBabel11072409063D

 47 50  0  0  1  0  0  0  0  0999 V2000
  192.3330  172.9600  139.4810 C   0  0  0  0  0  0  0  0  0  0  0  0
  190.0380  173.4810  140.1070 C   0  0  0  0  0  0  0  0  0  0  0  0
  191.9170  172.8120  138.1480 C   0  0  0  0  0  3  0  0  0  0  0  0
  191.3780  173.2910  140.4510 C   0  0  0  0  0  3  0  0  0  0  0  0
  190.2010  172.8600  136.4610 O   0  0  0  0  0  1  0  0  0  0  0  0
  188.2690  173.5300  138.3960 N   0  0  0  0  0  1  0  0  0  0  0  0
  190.5800  173.0060  137.7890 C   0  0  0  0  0  0  0  0  0  0  0  0
  189.6330  173.3430  138.7660 C   0  0  0  0  0  0  0  0  0  0  0  0
  194.1550  171.7900  140.8180 C   0  0  0  0  0  0  0  0  0  0  0  0
  193.4460  170.7790  141.0770 O   0  0  0  0  0  0  0  0  0  0  0  0
  194.6310  173.6250  139.3590 F   0  0  0  0  0  0  0  0  0  0  0  0
  193.7060  172.7810  139.8740 N   0  0  0  0  0  0  0  0  0  0  0  0
  194.3840  171.2130  143.5530 O   0  0  0  0  0  1  0  0  0  0  0  0
  195.6930  173.0340  142.4810 C   0  0  1  0  0  3  0  0  0  0  0  0
  195.5800  171.5850  142.9230 C   0  0  2  0  0  0  0  0  0  0  0  0
  195.5280  171.9030  141.4330 C   0  0  1  0  0  3  0  0  0  0  0  0
  196.7500  171.0100  143.3780 F   0  0  0  0  0  0  0  0  0  0  0  0
  193.3470  175.9370  142.0950 O   0  0  0  0  0  1  0  0  0  0  0  0
  194.7150  174.8690  143.8100 N   0  0  0  0  0  0  0  0  0  0  0  0
  194.5250  175.2430  142.3880 C   0  0  0  0  0  0  0  0  0  0  0  0
  195.7010  175.7060  141.7920 O   0  0  0  0  0  1  0  0  0  0  0  0
  194.4180  173.8360  142.7810 C   0  0  1  0  0  3  0  0  0  0  0  0
  193.5520  175.1330  144.7000 C   0  0  2  0  0  3  0  0  0  0  0  0
  194.2120  177.2450  145.5670 O   0  0  0  0  0  0  0  0  0  0  0  0
  193.7430  176.1450  145.8070 C   0  0  0  0  0  3  0  0  0  0  0  0
  192.9390  173.8350  145.2250 C   0  0  0  0  0  2  0  0  0  0  0  0
  191.0260  172.3410  144.6490 O   0  0  0  0  0  1  0  0  0  0  0  0
  190.9350  174.5820  144.1770 O   0  0  0  0  0  0  0  0  0  0  0  0
  191.5840  173.6120  144.6490 C   0  0  0  0  0  0  0  0  0  0  0  0
  189.0610  173.8060  141.1890 C   0  0  0  0  0  2  0  0  0  0  0  0
  189.0480  175.2400  141.4120 N   0  0  0  0  0  2  0  0  0  0  0  0
  187.7320  175.6810  141.2000 N   0  0  0  0  0  2  0  0  0  0  0  0
  187.3570  176.6030  142.2790 C   0  0  1  0  0  3  0  0  0  0  0  0
  191.2190  178.4010  143.8320 S   0  0  0  0  0  1  0  0  0  0  0  0
  188.5280  177.2070  142.9110 N   0  0  0  0  0  2  0  0  0  0  0  0
  189.9440  177.7540  144.8680 N   0  0  0  0  0  2  0  0  0  0  0  0
  188.7400  177.2000  144.3270 C   0  0  0  0  0  0  0  0  0  0  0  0
  187.8360  176.6980  145.1140 N   0  0  0  0  0  0  0  0  0  0  0  0
  187.9700  176.6330  146.5640 C   0  0  0  0  0  3  0  0  0  0  0  0
  186.6060  176.7850  147.2020 C   0  0  0  0  0  1  0  0  0  0  0  0
  188.5600  175.2940  146.9690 C   0  0  0  0  0  1  0  0  0  0  0  0
  186.3550  177.6680  141.8180 C   0  0  0  0  0  2  0  0  0  0  0  0
  184.4430  178.6180  144.6490 C   0  0  0  0  0  3  0  0  0  0  0  0
  185.6850  178.3170  142.9380 N   0  0  0  0  0  0  0  0  0  0  0  0
  185.9410  179.5500  143.3310 N   0  0  0  0  0  0  0  0  0  0  0  0
  184.7900  177.7220  143.7060 N   0  0  0  0  0  0  0  0  0  0  0  0
  185.1690  179.7730  144.4120 C   0  0  0  0  0  3  0  0  0  0  0  0
  1 12  1  0  0  0  0
  1  4  1  0  0  0  0
  2  4  2  0  0  0  0
  2 30  1  0  0  0  0
  3  1  2  0  0  0  0
  5  7  1  0  0  0  0
  6  8  1  0  0  0  0
  7  3  1  0  0  0  0
  7  8  2  0  0  0  0
  8  2  1  0  0  0  0
  9 10  2  0  0  0  0
 11 12  1  0  0  0  0
 12  9  1  0  0  0  0
 14 22  1  1  0  0  0
 14 15  1  0  0  0  0
 15 17  1  1  0  0  0
 15 13  1  0  0  0  0
 16  9  1  1  0  0  0
 16 14  1  0  0  0  0
 16 15  1  0  0  0  0
 18 20  1  0  0  0  0
 19 23  1  0  0  0  0
 20 19  1  0  0  0  0
 21 20  1  0  0  0  0
 22 20  1  6  0  0  0
 22 19  1  0  0  0  0
 23 26  1  1  0  0  0
 23 25  1  0  0  0  0
 24 25  2  0  0  0  0
 28 29  2  0  0  0  0
 29 27  1  0  0  0  0
 29 26  1  0  0  0  0
 30 31  1  0  0  0  0
 32 31  1  0  0  0  0
 32 33  1  0  0  0  0
 33 42  1  6  0  0  0
 33 35  1  0  0  0  0
 34 36  1  0  0  0  0
 35 37  1  0  0  0  0
 37 36  1  0  0  0  0
 37 38  2  0  0  0  0
 38 39  1  0  0  0  0
 39 41  1  0  0  0  0
 39 40  1  0  0  0  0
 42 44  1  0  0  0  0
 44 45  1  0  0  0  0
 44 46  1  0  0  0  0
 45 47  2  0  0  0  0
 46 43  2  0  0  0  0
 47 43  1  0  0  0  0
M  END
>  <MODEL>
8

>  <REMARK>
 VINA RESULT:      -5.6      3.614      7.912
  Name = 
  15 active torsions:
  status: ('A' for Active; 'I' for Inactive)
    1  A    between atoms: C_1  and  N_33
    2  A    between atoms: C_2  and  C_40
    3  A    between atoms: N_6  and  C_34
    4  A    between atoms: N_7  and  N_22
    5  A    between atoms: N_7  and  C_34
    6  A    between atoms: C_10  and  C_32
    7  A    between atoms: C_11  and  C_30
    8  A    between atoms: N_13  and  C_28
    9  A    between atoms: C_17  and  N_47
   10  A    between atoms: N_19  and  C_42
   11  A    between atoms: N_22  and  C_40
   12  A    between atoms: C_28  and  C_31
   13  A    between atoms: C_28  and  C_39
   14  A    between atoms: C_31  and  C_44
   15  A    between atoms: C_34  and  C_42
                            x       y       z     vdW  Elec       q    Type
                         _______ _______ _______ _____ _____    ______ ____

>  <TORSDO>
F 15

$$$$
=
 OpenBabel11072409063D

 47 50  0  0  1  0  0  0  0  0999 V2000
  193.1730  175.4790  145.4640 C   0  0  0  0  0  0  0  0  0  0  0  0
  191.3170  173.9170  145.2500 C   0  0  0  0  0  0  0  0  0  0  0  0
  192.4670  176.1520  146.4730 C   0  0  0  0  0  3  0  0  0  0  0  0
  192.5810  174.3640  144.8570 C   0  0  0  0  0  3  0  0  0  0  0  0
  190.5350  176.3930  147.8880 O   0  0  0  0  0  1  0  0  0  0  0  0
  189.3310  174.1500  146.6840 N   0  0  0  0  0  1  0  0  0  0  0  0
  191.2050  175.7110  146.8800 C   0  0  0  0  0  0  0  0  0  0  0  0
  190.6230  174.5910  146.2720 C   0  0  0  0  0  0  0  0  0  0  0  0
  194.8740  176.0500  143.6590 C   0  0  0  0  0  0  0  0  0  0  0  0
  194.0080  176.1800  142.7510 O   0  0  0  0  0  0  0  0  0  0  0  0
  195.4160  176.1380  145.9870 F   0  0  0  0  0  0  0  0  0  0  0  0
  194.4810  175.9030  145.0370 N   0  0  0  0  0  0  0  0  0  0  0  0
  195.7180  174.7050  141.3470 O   0  0  0  0  0  1  0  0  0  0  0  0
  197.1310  174.8200  143.3880 C   0  0  1  0  0  3  0  0  0  0  0  0
  196.7290  175.3880  142.0390 C   0  0  2  0  0  0  0  0  0  0  0  0
  196.3370  176.1480  143.2990 C   0  0  1  0  0  3  0  0  0  0  0  0
  197.7560  175.9370  141.2960 F   0  0  0  0  0  0  0  0  0  0  0  0
  195.6010  172.3830  145.7970 O   0  0  0  0  0  1  0  0  0  0  0  0
  197.2040  172.4200  143.9580 N   0  0  0  0  0  0  0  0  0  0  0  0
  196.5940  173.1010  145.1240 C   0  0  0  0  0  0  0  0  0  0  0  0
  197.5370  173.7710  145.9090 O   0  0  0  0  0  1  0  0  0  0  0  0
  196.3000  173.5870  143.7740 C   0  0  1  0  0  3  0  0  0  0  0  0
  196.5610  171.1380  143.5610 C   0  0  2  0  0  3  0  0  0  0  0  0
  197.3510  169.5980  145.1900 O   0  0  0  0  0  0  0  0  0  0  0  0
  197.2340  169.8590  144.0040 C   0  0  0  0  0  3  0  0  0  0  0  0
  196.2330  171.1110  142.0680 C   0  0  0  0  0  2  0  0  0  0  0  0
  194.5630  169.6220  140.9630 O   0  0  0  0  0  0  0  0  0  0  0  0
  193.8850  171.2330  142.4460 O   0  0  0  0  0  1  0  0  0  0  0  0
  194.8300  170.6690  141.8360 C   0  0  0  0  0  0  0  0  0  0  0  0
  190.7250  172.7380  144.5480 C   0  0  0  0  0  2  0  0  0  0  0  0
  189.3990  173.0790  144.0680 N   0  0  0  0  0  2  0  0  0  0  0  0
  189.5560  173.7180  142.8280 N   0  0  0  0  0  2  0  0  0  0  0  0
  188.7060  174.9130  142.7930 C   0  0  1  0  0  3  0  0  0  0  0  0
  191.3890  178.4440  143.7350 S   0  0  0  0  0  1  0  0  0  0  0  0
  189.4470  176.1200  143.1550 N   0  0  0  0  0  2  0  0  0  0  0  0
  189.8600  178.1180  144.5570 N   0  0  0  0  0  2  0  0  0  0  0  0
  189.0470  176.9900  144.2190 C   0  0  0  0  0  0  0  0  0  0  0  0
  187.9460  176.7550  144.8680 N   0  0  0  0  0  0  0  0  0  0  0  0
  187.4670  177.5760  145.9730 C   0  0  0  0  0  3  0  0  0  0  0  0
  186.3350  178.4580  145.4910 C   0  0  0  0  0  1  0  0  0  0  0  0
  186.9600  176.6860  147.0950 C   0  0  0  0  0  1  0  0  0  0  0  0
  187.9820  175.0780  141.4530 C   0  0  0  0  0  2  0  0  0  0  0  0
  186.2230  178.0920  140.8190 C   0  0  0  0  0  3  0  0  0  0  0  0
  187.1180  176.2520  141.4330 N   0  0  0  0  0  0  0  0  0  0  0  0
  186.1180  176.4410  142.2730 N   0  0  0  0  0  0  0  0  0  0  0  0
  187.2130  177.2220  140.5420 N   0  0  0  0  0  0  0  0  0  0  0  0
  185.5320  177.5990  141.9130 C   0  0  0  0  0  3  0  0  0  0  0  0
  1  3  1  0  0  0  0
  2  8  2  0  0  0  0
  3  7  2  0  0  0  0
  4  2  1  0  0  0  0
  4  1  2  0  0  0  0
  7  5  1  0  0  0  0
  8  6  1  0  0  0  0
  8  7  1  0  0  0  0
  9 12  1  0  0  0  0
 10  9  2  0  0  0  0
 12  1  1  0  0  0  0
 12 11  1  0  0  0  0
 13 15  1  0  0  0  0
 14 22  1  1  0  0  0
 15 17  1  6  0  0  0
 15 16  1  0  0  0  0
 15 14  1  0  0  0  0
 16 14  1  0  0  0  0
 16  9  1  1  0  0  0
 19 20  1  0  0  0  0
 20 18  1  0  0  0  0
 20 21  1  0  0  0  0
 22 19  1  6  0  0  0
 22 20  1  0  0  0  0
 23 26  1  6  0  0  0
 23 19  1  0  0  0  0
 23 25  1  0  0  0  0
 25 24  2  0  0  0  0
 27 29  2  0  0  0  0
 29 26  1  0  0  0  0
 29 28  1  0  0  0  0
 30  2  1  0  0  0  0
 31 30  1  0  0  0  0
 32 31  1  0  0  0  0
 33 42  1  6  0  0  0
 33 32  1  0  0  0  0
 33 35  1  0  0  0  0
 34 36  1  0  0  0  0
 35 37  1  0  0  0  0
 37 36  1  0  0  0  0
 37 38  2  0  0  0  0
 38 39  1  0  0  0  0
 39 41  1  0  0  0  0
 40 39  1  0  0  0  0
 43 47  1  0  0  0  0
 44 42  1  0  0  0  0
 44 45  1  0  0  0  0
 46 43  2  0  0  0  0
 46 44  1  0  0  0  0
 47 45  2  0  0  0  0
M  END
>  <MODEL>
9

>  <REMARK>
 VINA RESULT:      -5.5      3.875      7.996
  Name = 
  15 active torsions:
  status: ('A' for Active; 'I' for Inactive)
    1  A    between atoms: C_1  and  N_33
    2  A    between atoms: C_2  and  C_40
    3  A    between atoms: N_6  and  C_34
    4  A    between atoms: N_7  and  N_22
    5  A    between atoms: N_7  and  C_34
    6  A    between atoms: C_10  and  C_32
    7  A    between atoms: C_11  and  C_30
    8  A    between atoms: N_13  and  C_28
    9  A    between atoms: C_17  and  N_47
   10  A    between atoms: N_19  and  C_42
   11  A    between atoms: N_22  and  C_40
   12  A    between atoms: C_28  and  C_31
   13  A    between atoms: C_28  and  C_39
   14  A    between atoms: C_31  and  C_44
   15  A    between atoms: C_34  and  C_42
                            x       y       z     vdW  Elec       q    Type
                         _______ _______ _______ _____ _____    ______ ____

>  <TORSDO>
F 15

$$$$
