=
 OpenBabel11062422513D

 46 49  0  0  1  0  0  0  0  0999 V2000
  194.5690  174.4520  145.0910 N   0  0  0  0  0  2  0  0  0  0  0  0
  194.3030  175.6840  144.4030 C   0  0  0  0  0  0  0  0  0  0  0  0
  194.6290  175.8300  143.1940 O   0  0  0  0  0  0  0  0  0  0  0  0
  195.4440  172.3210  145.3340 O   0  0  0  0  0  0  0  0  0  0  0  0
  195.2600  173.3090  144.5740 C   0  0  0  0  0  0  0  0  0  0  0  0
  194.8200  172.5760  142.2890 C   0  0  2  0  0  3  0  0  0  0  0  0
  195.7830  173.2770  143.1670 C   0  0  2  0  0  3  0  0  0  0  0  0
  195.9930  171.9490  142.7470 O   0  0  0  0  0  0  0  0  0  0  0  0
  195.0200  173.0220  140.8480 C   0  0  0  0  0  2  0  0  0  0  0  0
  193.7710  172.7810  139.9790 C   0  0  1  0  0  0  0  0  0  0  0  0
  192.8950  170.6870  139.1440 O   0  0  0  0  0  1  0  0  0  0  0  0
  194.0120  171.5280  139.1230 C   0  0  0  0  0  2  0  0  0  0  0  0
  192.5720  172.6060  140.8220 N   0  0  0  0  0  2  0  0  0  0  0  0
  188.8530  174.2590  141.7240 C   0  0  1  0  0  3  0  0  0  0  0  0
  190.3400  173.1770  139.9790 C   0  0  0  0  0  2  0  0  0  0  0  0
  187.7300  173.4080  142.0720 N   0  0  0  0  0  1  0  0  0  0  0  0
  191.3550  174.3930  142.0000 C   0  0  0  0  0  2  0  0  0  0  0  0
  190.0440  173.9330  142.6340 C   0  0  0  0  0  2  0  0  0  0  0  0
  189.1650  174.1210  140.2260 C   0  0  0  0  0  2  0  0  0  0  0  0
  191.6170  173.7040  140.6500 C   0  0  1  0  0  3  0  0  0  0  0  0
  193.5280  173.9910  139.0570 C   0  0  0  0  0  2  0  0  0  0  0  0
  195.5850  174.9900  138.0410 O   0  0  0  0  0  0  0  0  0  0  0  0
  194.7040  175.8620  139.9670 O   0  0  0  0  0  1  0  0  0  0  0  0
  194.6450  174.9900  139.0620 C   0  0  0  0  0  0  0  0  0  0  0  0
  193.6810  176.8450  145.1370 C   0  0  2  0  0  3  0  0  0  0  0  0
  194.0490  176.8820  146.6160 C   0  0  0  0  0  1  0  0  0  0  0  0
  191.6080  177.7390  143.9920 C   0  0  0  0  0  3  0  0  0  0  0  0
  189.9920  176.0670  145.5780 C   0  0  0  0  0  0  0  0  0  0  0  0
  189.4000  176.8990  144.5970 C   0  0  0  0  0  0  0  0  0  0  0  0
  190.2220  177.7320  143.8170 C   0  0  0  0  0  3  0  0  0  0  0  0
  192.1950  176.9190  144.9640 C   0  0  0  0  0  0  0  0  0  0  0  0
  191.3860  176.0880  145.7430 C   0  0  0  0  0  3  0  0  0  0  0  0
  189.1980  175.1410  146.4230 C   0  0  0  0  0  0  0  0  0  0  0  0
  189.4400  173.9040  146.4060 O   0  0  0  0  0  0  0  0  0  0  0  0
  188.1710  175.6070  147.2390 O   0  0  0  0  0  1  0  0  0  0  0  0
  188.0090  176.8660  144.4030 O   0  0  0  0  0  0  0  0  0  0  0  0
  187.1310  177.9980  144.3810 C   0  0  1  0  0  3  0  0  0  0  0  0
  184.1420  178.1570  141.9210 C   0  0  0  0  0  2  0  0  0  0  0  0
  184.8720  178.2620  140.5840 C   0  0  0  0  0  2  0  0  0  0  0  0
  186.2380  177.6510  140.6860 C   0  0  0  0  0  0  0  0  0  0  0  0
  186.3610  178.0850  143.0930 C   0  0  0  0  0  0  0  0  0  0  0  0
  185.0040  178.7460  143.0370 C   0  0  0  0  0  2  0  0  0  0  0  0
  186.8070  177.2130  139.6540 O   0  0  0  0  0  0  0  0  0  0  0  0
  186.9330  177.6060  141.9820 C   0  0  0  0  0  3  0  0  0  0  0  0
  186.2650  178.0860  145.6370 C   0  0  0  0  0  2  0  0  0  0  0  0
  185.5190  176.9150  145.7810 O   0  0  0  0  0  1  0  0  0  0  0  0
  2  1  1  0  0  0  0
  2 25  1  0  0  0  0
  3  2  2  0  0  0  0
  5  1  1  0  0  0  0
  5  4  2  0  0  0  0
  6  9  1  6  0  0  0
  6  8  1  0  0  0  0
  6  7  1  0  0  0  0
  7  5  1  1  0  0  0
  8  7  1  0  0  0  0
 10 21  1  6  0  0  0
 10 13  1  0  0  0  0
 10  9  1  0  0  0  0
 12 11  1  0  0  0  0
 12 10  1  0  0  0  0
 14 16  1  1  0  0  0
 14 18  1  0  0  0  0
 15 19  1  0  0  0  0
 15 20  1  0  0  0  0
 17 18  1  0  0  0  0
 19 14  1  0  0  0  0
 20 13  1  1  0  0  0
 20 17  1  0  0  0  0
 21 24  1  0  0  0  0
 22 24  2  0  0  0  0
 24 23  1  0  0  0  0
 25 26  1  1  0  0  0
 27 31  1  0  0  0  0
 28 32  1  0  0  0  0
 28 33  1  0  0  0  0
 29 28  2  0  0  0  0
 30 27  2  0  0  0  0
 30 29  1  0  0  0  0
 31 25  1  0  0  0  0
 31 32  2  0  0  0  0
 33 35  1  0  0  0  0
 34 33  2  0  0  0  0
 36 29  1  0  0  0  0
 37 36  1  0  0  0  0
 37 45  1  1  0  0  0
 38 42  1  0  0  0  0
 39 40  1  0  0  0  0
 39 38  1  0  0  0  0
 40 44  1  0  0  0  0
 41 37  1  0  0  0  0
 42 41  1  0  0  0  0
 43 40  2  0  0  0  0
 44 41  2  0  0  0  0
 45 46  1  0  0  0  0
M  END
>  <MODEL>
1

>  <REMARK>
 VINA RESULT:      -6.5      0.000      0.000
  Name = 
  15 active torsions:
  status: ('A' for Active; 'I' for Inactive)
    1  A    between atoms: N_1  and  C_38
    2  A    between atoms: N_1  and  C_40
    3  A    between atoms: C_3  and  C_26
    4  A    between atoms: C_5  and  C_16
    5  A    between atoms: O_13  and  C_16
    6  A    between atoms: O_13  and  C_30
    7  A    between atoms: C_15  and  C_16
    8  A    between atoms: C_17  and  C_25
    9  A    between atoms: C_17  and  C_38
   10  A    between atoms: C_20  and  C_27
   11  A    between atoms: C_20  and  C_38
   12  A    between atoms: C_23  and  C_24
   13  A    between atoms: C_23  and  C_33
   14  A    between atoms: C_36  and  C_43
   15  A    between atoms: C_38  and  C_41
                            x       y       z     vdW  Elec       q    Type
                         _______ _______ _______ _____ _____    ______ ____

>  <TORSDO>
F 15

$$$$
=
 OpenBabel11062422513D

 46 49  0  0  1  0  0  0  0  0999 V2000
  192.0900  173.5790  140.7940 N   0  0  0  0  0  2  0  0  0  0  0  0
  192.0250  172.9670  142.0910 C   0  0  0  0  0  0  0  0  0  0  0  0
  193.0660  172.5210  142.6460 O   0  0  0  0  0  0  0  0  0  0  0  0
  193.1160  174.2340  138.8220 O   0  0  0  0  0  0  0  0  0  0  0  0
  193.2460  173.7030  139.9570 C   0  0  0  0  0  0  0  0  0  0  0  0
  195.4030  174.3160  140.9180 C   0  0  2  0  0  3  0  0  0  0  0  0
  194.5900  173.1960  140.3940 C   0  0  2  0  0  3  0  0  0  0  0  0
  195.6150  173.7890  139.6320 O   0  0  0  0  0  0  0  0  0  0  0  0
  196.4700  173.7790  141.8620 C   0  0  0  0  0  2  0  0  0  0  0  0
  196.4960  174.5290  143.2080 C   0  0  1  0  0  0  0  0  0  0  0  0
  196.7050  176.8560  142.5880 O   0  0  0  0  0  1  0  0  0  0  0  0
  197.4160  175.7500  143.0630 C   0  0  0  0  0  2  0  0  0  0  0  0
  195.1360  174.9510  143.5980 N   0  0  0  0  0  2  0  0  0  0  0  0
  192.7030  175.7540  146.8860 C   0  0  1  0  0  3  0  0  0  0  0  0
  194.5820  176.5440  145.3800 C   0  0  0  0  0  2  0  0  0  0  0  0
  191.5200  176.5830  146.7460 N   0  0  0  0  0  1  0  0  0  0  0  0
  194.0450  174.0440  145.6100 C   0  0  0  0  0  2  0  0  0  0  0  0
  192.6500  174.6100  145.8650 C   0  0  0  0  0  2  0  0  0  0  0  0
  193.9640  176.6240  146.7740 C   0  0  0  0  0  2  0  0  0  0  0  0
  195.0060  175.1050  145.0500 C   0  0  1  0  0  3  0  0  0  0  0  0
  197.0400  173.6060  144.3150 C   0  0  0  0  0  2  0  0  0  0  0  0
  195.8140  171.4250  144.2470 O   0  0  0  0  0  1  0  0  0  0  0  0
  197.9400  171.5870  143.4060 O   0  0  0  0  0  0  0  0  0  0  0  0
  196.9690  172.1480  143.9780 C   0  0  0  0  0  0  0  0  0  0  0  0
  190.6970  172.7970  142.7840 C   0  0  2  0  0  3  0  0  0  0  0  0
  189.9900  171.4990  142.4090 C   0  0  0  0  0  1  0  0  0  0  0  0
  188.5880  173.8570  141.8690 C   0  0  0  0  0  3  0  0  0  0  0  0
  189.2450  176.2870  143.1290 C   0  0  0  0  0  0  0  0  0  0  0  0
  188.0380  176.1740  142.3950 C   0  0  0  0  0  0  0  0  0  0  0  0
  187.7290  174.9550  141.7680 C   0  0  0  0  0  3  0  0  0  0  0  0
  189.7820  173.9680  142.5930 C   0  0  0  0  0  0  0  0  0  0  0  0
  190.0970  175.1760  143.2190 C   0  0  0  0  0  3  0  0  0  0  0  0
  189.6310  177.5300  143.8410 C   0  0  0  0  0  0  0  0  0  0  0  0
  190.5460  178.2640  143.3800 O   0  0  0  0  0  0  0  0  0  0  0  0
  189.0060  177.9090  145.0260 O   0  0  0  0  0  1  0  0  0  0  0  0
  187.1630  177.2700  142.3210 O   0  0  0  0  0  0  0  0  0  0  0  0
  185.7350  177.2220  142.4260 C   0  0  1  0  0  3  0  0  0  0  0  0
  184.3280  179.3060  145.3720 C   0  0  0  0  0  2  0  0  0  0  0  0
  184.3360  178.2680  146.4920 C   0  0  0  0  0  2  0  0  0  0  0  0
  185.3780  177.2220  146.2250 C   0  0  0  0  0  0  0  0  0  0  0  0
  185.2610  177.5800  143.8060 C   0  0  0  0  0  0  0  0  0  0  0  0
  184.1810  178.6150  144.0170 C   0  0  0  0  0  2  0  0  0  0  0  0
  185.8720  176.5730  147.1820 O   0  0  0  0  0  0  0  0  0  0  0  0
  185.7870  176.9210  144.8450 C   0  0  0  0  0  3  0  0  0  0  0  0
  185.0430  177.9950  141.3030 C   0  0  0  0  0  2  0  0  0  0  0  0
  185.8730  178.0440  140.1820 O   0  0  0  0  0  1  0  0  0  0  0  0
  1  2  1  0  0  0  0
  2  3  2  0  0  0  0
  2 25  1  0  0  0  0
  4  5  2  0  0  0  0
  5  1  1  0  0  0  0
  6  9  1  1  0  0  0
  7  5  1  6  0  0  0
  7  6  1  0  0  0  0
  8  7  1  0  0  0  0
  8  6  1  0  0  0  0
 10  9  1  6  0  0  0
 10 13  1  0  0  0  0
 10 21  1  0  0  0  0
 11 12  1  0  0  0  0
 12 10  1  0  0  0  0
 14 16  1  6  0  0  0
 15 19  1  0  0  0  0
 17 18  1  0  0  0  0
 18 14  1  0  0  0  0
 19 14  1  0  0  0  0
 20 13  1  6  0  0  0
 20 15  1  0  0  0  0
 20 17  1  0  0  0  0
 23 24  2  0  0  0  0
 24 22  1  0  0  0  0
 24 21  1  0  0  0  0
 25 26  1  6  0  0  0
 27 31  1  0  0  0  0
 28 32  1  0  0  0  0
 28 33  1  0  0  0  0
 29 28  2  0  0  0  0
 30 27  2  0  0  0  0
 30 29  1  0  0  0  0
 31 25  1  0  0  0  0
 31 32  2  0  0  0  0
 33 35  1  0  0  0  0
 34 33  2  0  0  0  0
 36 29  1  0  0  0  0
 36 37  1  0  0  0  0
 37 45  1  6  0  0  0
 37 41  1  0  0  0  0
 38 39  1  0  0  0  0
 40 39  1  0  0  0  0
 40 43  2  0  0  0  0
 41 42  1  0  0  0  0
 41 44  2  0  0  0  0
 42 38  1  0  0  0  0
 44 40  1  0  0  0  0
 46 45  1  0  0  0  0
M  END
>  <MODEL>
2

>  <REMARK>
 VINA RESULT:      -6.5      1.927      5.170
  Name = 
  15 active torsions:
  status: ('A' for Active; 'I' for Inactive)
    1  A    between atoms: N_1  and  C_38
    2  A    between atoms: N_1  and  C_40
    3  A    between atoms: C_3  and  C_26
    4  A    between atoms: C_5  and  C_16
    5  A    between atoms: O_13  and  C_16
    6  A    between atoms: O_13  and  C_30
    7  A    between atoms: C_15  and  C_16
    8  A    between atoms: C_17  and  C_25
    9  A    between atoms: C_17  and  C_38
   10  A    between atoms: C_20  and  C_27
   11  A    between atoms: C_20  and  C_38
   12  A    between atoms: C_23  and  C_24
   13  A    between atoms: C_23  and  C_33
   14  A    between atoms: C_36  and  C_43
   15  A    between atoms: C_38  and  C_41
                            x       y       z     vdW  Elec       q    Type
                         _______ _______ _______ _____ _____    ______ ____

>  <TORSDO>
F 15

$$$$
=
 OpenBabel11062422513D

 46 49  0  0  1  0  0  0  0  0999 V2000
  195.6650  174.8650  145.8140 N   0  0  0  0  0  2  0  0  0  0  0  0
  195.0630  175.6500  144.7730 C   0  0  0  0  0  0  0  0  0  0  0  0
  195.2660  175.3760  143.5590 O   0  0  0  0  0  0  0  0  0  0  0  0
  197.0480  173.2210  146.6800 O   0  0  0  0  0  0  0  0  0  0  0  0
  196.5800  173.7760  145.6500 C   0  0  0  0  0  0  0  0  0  0  0  0
  196.3380  172.0230  143.9710 C   0  0  2  0  0  3  0  0  0  0  0  0
  197.0060  173.3040  144.2900 C   0  0  2  0  0  3  0  0  0  0  0  0
  197.6820  172.0720  144.3810 O   0  0  0  0  0  0  0  0  0  0  0  0
  196.2810  171.8340  142.4620 C   0  0  0  0  0  2  0  0  0  0  0  0
  195.1300  170.9070  142.0270 C   0  0  1  0  0  0  0  0  0  0  0  0
  194.7480  168.5260  142.2060 O   0  0  0  0  0  1  0  0  0  0  0  0
  195.6940  169.4900  141.8450 C   0  0  0  0  0  2  0  0  0  0  0  0
  194.0500  170.9060  143.0340 N   0  0  0  0  0  2  0  0  0  0  0  0
  190.3790  172.6520  143.9530 C   0  0  1  0  0  3  0  0  0  0  0  0
  191.6190  170.8220  142.7150 C   0  0  0  0  0  2  0  0  0  0  0  0
  189.5470  172.1130  145.0140 N   0  0  0  0  0  1  0  0  0  0  0  0
  192.8060  173.0030  143.3670 C   0  0  0  0  0  2  0  0  0  0  0  0
  191.7830  172.9420  144.5000 C   0  0  0  0  0  2  0  0  0  0  0  0
  190.3700  171.6980  142.7490 C   0  0  0  0  0  2  0  0  0  0  0  0
  192.8870  171.6790  142.5900 C   0  0  1  0  0  3  0  0  0  0  0  0
  194.5330  171.3960  140.6940 C   0  0  0  0  0  2  0  0  0  0  0  0
  196.2870  172.3620  139.1930 O   0  0  0  0  0  0  0  0  0  0  0  0
  194.8960  173.7380  140.3860 O   0  0  0  0  0  1  0  0  0  0  0  0
  195.2560  172.5660  140.1000 C   0  0  0  0  0  0  0  0  0  0  0  0
  194.2230  176.8530  145.1200 C   0  0  2  0  0  3  0  0  0  0  0  0
  194.6860  177.5590  146.3890 C   0  0  0  0  0  1  0  0  0  0  0  0
  192.1380  176.2170  146.4070 C   0  0  0  0  0  3  0  0  0  0  0  0
  190.6010  176.4490  144.0610 C   0  0  0  0  0  0  0  0  0  0  0  0
  189.9750  176.1160  145.2870 C   0  0  0  0  0  0  0  0  0  0  0  0
  190.7580  176.0000  146.4480 C   0  0  0  0  0  3  0  0  0  0  0  0
  192.7590  176.5440  145.1950 C   0  0  0  0  0  0  0  0  0  0  0  0
  191.9880  176.6620  144.0360 C   0  0  0  0  0  3  0  0  0  0  0  0
  189.8400  176.6160  142.7970 C   0  0  0  0  0  0  0  0  0  0  0  0
  189.5620  175.6110  142.0900 O   0  0  0  0  0  0  0  0  0  0  0  0
  189.4290  177.8730  142.3620 O   0  0  0  0  0  1  0  0  0  0  0  0
  188.5830  175.9280  145.3300 O   0  0  0  0  0  0  0  0  0  0  0  0
  187.6210  176.8420  145.8680 C   0  0  1  0  0  3  0  0  0  0  0  0
  185.8700  177.2770  142.4390 C   0  0  0  0  0  2  0  0  0  0  0  0
  184.8990  178.4140  142.7510 C   0  0  0  0  0  2  0  0  0  0  0  0
  185.4200  179.2480  143.8830 C   0  0  0  0  0  0  0  0  0  0  0  0
  186.6990  177.3750  144.8070 C   0  0  0  0  0  0  0  0  0  0  0  0
  186.1720  176.4820  143.7090 C   0  0  0  0  0  2  0  0  0  0  0  0
  185.0580  180.4470  143.9950 O   0  0  0  0  0  0  0  0  0  0  0  0
  186.3160  178.6540  144.8890 C   0  0  0  0  0  3  0  0  0  0  0  0
  186.9060  176.2800  147.0960 C   0  0  0  0  0  2  0  0  0  0  0  0
  186.4380  177.3270  147.8920 O   0  0  0  0  0  1  0  0  0  0  0  0
  2 25  1  0  0  0  0
  2  1  1  0  0  0  0
  3  2  2  0  0  0  0
  5  1  1  0  0  0  0
  5  4  2  0  0  0  0
  6  9  1  6  0  0  0
  6  7  1  0  0  0  0
  6  8  1  0  0  0  0
  7  8  1  0  0  0  0
  7  5  1  1  0  0  0
 10 21  1  6  0  0  0
 10  9  1  0  0  0  0
 10 13  1  0  0  0  0
 12 10  1  0  0  0  0
 12 11  1  0  0  0  0
 14 18  1  0  0  0  0
 14 16  1  1  0  0  0
 15 19  1  0  0  0  0
 17 18  1  0  0  0  0
 19 14  1  0  0  0  0
 20 15  1  0  0  0  0
 20 13  1  1  0  0  0
 20 17  1  0  0  0  0
 22 24  2  0  0  0  0
 24 23  1  0  0  0  0
 24 21  1  0  0  0  0
 25 31  1  0  0  0  0
 25 26  1  1  0  0  0
 27 30  1  0  0  0  0
 28 29  1  0  0  0  0
 29 36  1  0  0  0  0
 29 30  2  0  0  0  0
 31 27  2  0  0  0  0
 32 28  2  0  0  0  0
 32 31  1  0  0  0  0
 33 28  1  0  0  0  0
 34 33  2  0  0  0  0
 35 33  1  0  0  0  0
 36 37  1  0  0  0  0
 37 45  1  1  0  0  0
 38 39  1  0  0  0  0
 38 42  1  0  0  0  0
 39 40  1  0  0  0  0
 40 43  2  0  0  0  0
 40 44  1  0  0  0  0
 41 44  2  0  0  0  0
 41 37  1  0  0  0  0
 42 41  1  0  0  0  0
 45 46  1  0  0  0  0
M  END
>  <MODEL>
3

>  <REMARK>
 VINA RESULT:      -6.2      2.073      2.861
  Name = 
  15 active torsions:
  status: ('A' for Active; 'I' for Inactive)
    1  A    between atoms: N_1  and  C_38
    2  A    between atoms: N_1  and  C_40
    3  A    between atoms: C_3  and  C_26
    4  A    between atoms: C_5  and  C_16
    5  A    between atoms: O_13  and  C_16
    6  A    between atoms: O_13  and  C_30
    7  A    between atoms: C_15  and  C_16
    8  A    between atoms: C_17  and  C_25
    9  A    between atoms: C_17  and  C_38
   10  A    between atoms: C_20  and  C_27
   11  A    between atoms: C_20  and  C_38
   12  A    between atoms: C_23  and  C_24
   13  A    between atoms: C_23  and  C_33
   14  A    between atoms: C_36  and  C_43
   15  A    between atoms: C_38  and  C_41
                            x       y       z     vdW  Elec       q    Type
                         _______ _______ _______ _____ _____    ______ ____

>  <TORSDO>
F 15

$$$$
=
 OpenBabel11062422513D

 46 49  0  0  1  0  0  0  0  0999 V2000
  195.8660  175.7270  144.4480 N   0  0  0  0  0  2  0  0  0  0  0  0
  194.4780  176.0130  144.2180 C   0  0  0  0  0  0  0  0  0  0  0  0
  193.8680  175.5010  143.2390 O   0  0  0  0  0  0  0  0  0  0  0  0
  197.9410  174.8220  143.9540 O   0  0  0  0  0  0  0  0  0  0  0  0
  196.7300  174.9360  143.6240 C   0  0  0  0  0  0  0  0  0  0  0  0
  195.9940  172.8300  142.6370 C   0  0  2  0  0  3  0  0  0  0  0  0
  196.2310  174.2670  142.3760 C   0  0  2  0  0  3  0  0  0  0  0  0
  197.1360  173.2750  141.9490 O   0  0  0  0  0  0  0  0  0  0  0  0
  194.9850  172.2850  141.6350 C   0  0  0  0  0  2  0  0  0  0  0  0
  193.6600  171.8670  142.3020 C   0  0  1  0  0  0  0  0  0  0  0  0
  193.5880  170.7400  144.4400 O   0  0  0  0  0  1  0  0  0  0  0  0
  193.8320  171.9720  143.8250 C   0  0  0  0  0  2  0  0  0  0  0  0
  192.5510  172.7290  141.8470 N   0  0  0  0  0  2  0  0  0  0  0  0
  188.3960  172.8890  141.5580 C   0  0  1  0  0  3  0  0  0  0  0  0
  190.4170  172.5040  143.0370 C   0  0  0  0  0  2  0  0  0  0  0  0
  187.6730  174.0890  141.9400 N   0  0  0  0  0  1  0  0  0  0  0  0
  190.5690  172.1800  140.4940 C   0  0  0  0  0  2  0  0  0  0  0  0
  189.4800  173.2500  140.5330 C   0  0  0  0  0  2  0  0  0  0  0  0
  188.9410  172.1880  142.8110 C   0  0  0  0  0  2  0  0  0  0  0  0
  191.2690  172.0190  141.8540 C   0  0  1  0  0  3  0  0  0  0  0  0
  193.3150  170.4140  141.9250 C   0  0  0  0  0  2  0  0  0  0  0  0
  195.3020  169.1650  141.0550 O   0  0  0  0  0  1  0  0  0  0  0  0
  193.7400  170.0110  139.6080 O   0  0  0  0  0  0  0  0  0  0  0  0
  194.1350  169.8700  140.7940 C   0  0  0  0  0  0  0  0  0  0  0  0
  193.7430  176.9780  145.1130 C   0  0  2  0  0  3  0  0  0  0  0  0
  194.0860  176.8030  146.5880 C   0  0  0  0  0  1  0  0  0  0  0  0
  191.6370  177.7130  143.9160 C   0  0  0  0  0  3  0  0  0  0  0  0
  190.1070  175.9630  145.5030 C   0  0  0  0  0  0  0  0  0  0  0  0
  189.4790  176.7370  144.4960 C   0  0  0  0  0  0  0  0  0  0  0  0
  190.2580  177.6100  143.7160 C   0  0  0  0  0  3  0  0  0  0  0  0
  192.2590  176.9500  144.9120 C   0  0  0  0  0  0  0  0  0  0  0  0
  191.4930  176.0800  145.6910 C   0  0  0  0  0  3  0  0  0  0  0  0
  189.3590  175.0000  146.3500 C   0  0  0  0  0  0  0  0  0  0  0  0
  188.6470  175.4170  147.3030 O   0  0  0  0  0  1  0  0  0  0  0  0
  189.4320  173.6290  146.1230 O   0  0  0  0  0  0  0  0  0  0  0  0
  188.0970  176.6090  144.2780 O   0  0  0  0  0  0  0  0  0  0  0  0
  187.1080  177.6230  144.4940 C   0  0  1  0  0  3  0  0  0  0  0  0
  184.0580  178.1600  142.1670 C   0  0  0  0  0  2  0  0  0  0  0  0
  184.7540  178.4370  140.8360 C   0  0  0  0  0  2  0  0  0  0  0  0
  186.1110  177.7980  140.8140 C   0  0  0  0  0  0  0  0  0  0  0  0
  186.3060  177.8970  143.2530 C   0  0  0  0  0  0  0  0  0  0  0  0
  184.9610  178.5790  143.3270 C   0  0  0  0  0  2  0  0  0  0  0  0
  186.6430  177.4970  139.7160 O   0  0  0  0  0  0  0  0  0  0  0  0
  186.8390  177.5660  142.0710 C   0  0  0  0  0  3  0  0  0  0  0  0
  186.2650  177.3570  145.7410 C   0  0  0  0  0  2  0  0  0  0  0  0
  186.3960  178.4210  146.6350 O   0  0  0  0  0  1  0  0  0  0  0  0
  2  1  1  0  0  0  0
  2 25  1  0  0  0  0
  3  2  2  0  0  0  0
  5  4  2  0  0  0  0
  5  1  1  0  0  0  0
  6  9  1  6  0  0  0
  7  6  1  0  0  0  0
  7  5  1  1  0  0  0
  8  7  1  0  0  0  0
  8  6  1  0  0  0  0
 10  9  1  6  0  0  0
 10 12  1  0  0  0  0
 12 11  1  0  0  0  0
 13 10  1  0  0  0  0
 14 16  1  1  0  0  0
 14 19  1  0  0  0  0
 17 18  1  0  0  0  0
 17 20  1  0  0  0  0
 18 14  1  0  0  0  0
 19 15  1  0  0  0  0
 20 13  1  6  0  0  0
 20 15  1  0  0  0  0
 21 10  1  0  0  0  0
 23 24  2  0  0  0  0
 24 22  1  0  0  0  0
 24 21  1  0  0  0  0
 25 26  1  1  0  0  0
 27 31  1  0  0  0  0
 28 32  1  0  0  0  0
 28 33  1  0  0  0  0
 29 28  2  0  0  0  0
 30 27  2  0  0  0  0
 30 29  1  0  0  0  0
 31 25  1  0  0  0  0
 31 32  2  0  0  0  0
 33 34  1  0  0  0  0
 35 33  2  0  0  0  0
 36 37  1  0  0  0  0
 36 29  1  0  0  0  0
 37 45  1  1  0  0  0
 38 42  1  0  0  0  0
 39 38  1  0  0  0  0
 40 39  1  0  0  0  0
 40 44  1  0  0  0  0
 41 42  1  0  0  0  0
 41 37  1  0  0  0  0
 43 40  2  0  0  0  0
 44 41  2  0  0  0  0
 45 46  1  0  0  0  0
M  END
>  <MODEL>
4

>  <REMARK>
 VINA RESULT:      -6.1      1.572      2.450
  Name = 
  15 active torsions:
  status: ('A' for Active; 'I' for Inactive)
    1  A    between atoms: N_1  and  C_38
    2  A    between atoms: N_1  and  C_40
    3  A    between atoms: C_3  and  C_26
    4  A    between atoms: C_5  and  C_16
    5  A    between atoms: O_13  and  C_16
    6  A    between atoms: O_13  and  C_30
    7  A    between atoms: C_15  and  C_16
    8  A    between atoms: C_17  and  C_25
    9  A    between atoms: C_17  and  C_38
   10  A    between atoms: C_20  and  C_27
   11  A    between atoms: C_20  and  C_38
   12  A    between atoms: C_23  and  C_24
   13  A    between atoms: C_23  and  C_33
   14  A    between atoms: C_36  and  C_43
   15  A    between atoms: C_38  and  C_41
                            x       y       z     vdW  Elec       q    Type
                         _______ _______ _______ _____ _____    ______ ____

>  <TORSDO>
F 15

$$$$
=
 OpenBabel11062422513D

 46 49  0  0  1  0  0  0  0  0999 V2000
  194.2530  172.8790  144.1370 N   0  0  0  0  0  2  0  0  0  0  0  0
  194.5000  174.1520  143.5200 C   0  0  0  0  0  0  0  0  0  0  0  0
  194.6040  174.2510  142.2670 O   0  0  0  0  0  0  0  0  0  0  0  0
  193.9850  170.5780  144.1870 O   0  0  0  0  0  0  0  0  0  0  0  0
  194.1660  171.6080  143.4830 C   0  0  0  0  0  0  0  0  0  0  0  0
  192.9970  171.1580  141.3900 C   0  0  2  0  0  3  0  0  0  0  0  0
  194.3090  171.4780  141.9940 C   0  0  2  0  0  3  0  0  0  0  0  0
  193.9830  170.1730  141.5760 O   0  0  0  0  0  0  0  0  0  0  0  0
  192.9860  171.5860  139.9290 C   0  0  0  0  0  2  0  0  0  0  0  0
  191.5650  171.6110  139.3340 C   0  0  1  0  0  0  0  0  0  0  0  0
  190.5930  169.3970  139.3000 O   0  0  0  0  0  1  0  0  0  0  0  0
  190.7160  170.5610  140.0660 C   0  0  0  0  0  2  0  0  0  0  0  0
  190.9620  172.9510  139.4760 N   0  0  0  0  0  2  0  0  0  0  0  0
  188.2970  175.1930  141.7670 C   0  0  1  0  0  3  0  0  0  0  0  0
  190.5080  173.9580  141.6660 C   0  0  0  0  0  2  0  0  0  0  0  0
  188.4890  176.6210  141.9380 N   0  0  0  0  0  1  0  0  0  0  0  0
  188.6050  173.3790  140.0430 C   0  0  0  0  0  2  0  0  0  0  0  0
  188.2820  174.8540  140.2700 C   0  0  0  0  0  2  0  0  0  0  0  0
  189.3640  174.4250  142.5620 C   0  0  0  0  0  2  0  0  0  0  0  0
  189.9970  173.0030  140.5770 C   0  0  1  0  0  3  0  0  0  0  0  0
  191.6150  171.2720  137.8320 C   0  0  0  0  0  2  0  0  0  0  0  0
  189.3490  171.8150  136.9220 O   0  0  0  0  0  1  0  0  0  0  0  0
  191.1560  173.1150  136.3820 O   0  0  0  0  0  0  0  0  0  0  0  0
  190.7030  172.1110  136.9900 C   0  0  0  0  0  0  0  0  0  0  0  0
  194.6970  175.3820  144.3690 C   0  0  2  0  0  3  0  0  0  0  0  0
  195.6140  175.1420  145.5630 C   0  0  0  0  0  1  0  0  0  0  0  0
  192.4810  176.5110  143.8950 C   0  0  0  0  0  3  0  0  0  0  0  0
  191.8690  176.4960  146.6420 C   0  0  0  0  0  0  0  0  0  0  0  0
  190.9350  177.0150  145.7120 C   0  0  0  0  0  0  0  0  0  0  0  0
  191.2600  177.0200  144.3450 C   0  0  0  0  0  3  0  0  0  0  0  0
  193.4060  175.9990  144.8140 C   0  0  0  0  0  0  0  0  0  0  0  0
  193.0920  175.9900  146.1750 C   0  0  0  0  0  3  0  0  0  0  0  0
  191.5910  176.4310  148.0990 C   0  0  0  0  0  0  0  0  0  0  0  0
  191.5660  177.4880  148.7850 O   0  0  0  0  0  1  0  0  0  0  0  0
  191.3640  175.2160  148.7380 O   0  0  0  0  0  0  0  0  0  0  0  0
  189.6960  177.4980  146.1650 O   0  0  0  0  0  0  0  0  0  0  0  0
  188.5630  176.7050  146.5360 C   0  0  1  0  0  3  0  0  0  0  0  0
  184.7680  177.4750  146.4240 C   0  0  0  0  0  2  0  0  0  0  0  0
  184.7500  178.7210  145.5400 C   0  0  0  0  0  2  0  0  0  0  0  0
  185.9470  178.7350  144.6370 C   0  0  0  0  0  0  0  0  0  0  0  0
  187.2660  177.3860  146.1980 C   0  0  0  0  0  0  0  0  0  0  0  0
  186.1030  177.3730  147.1610 C   0  0  0  0  0  2  0  0  0  0  0  0
  185.9040  179.3700  143.5520 O   0  0  0  0  0  0  0  0  0  0  0  0
  187.1850  178.0500  145.0390 C   0  0  0  0  0  3  0  0  0  0  0  0
  188.6680  175.2670  146.0280 C   0  0  0  0  0  2  0  0  0  0  0  0
  188.8880  174.4020  147.1010 O   0  0  0  0  0  1  0  0  0  0  0  0
  2  1  1  0  0  0  0
  2 25  1  0  0  0  0
  3  2  2  0  0  0  0
  5  1  1  0  0  0  0
  5  4  2  0  0  0  0
  6  9  1  6  0  0  0
  6  8  1  0  0  0  0
  6  7  1  0  0  0  0
  7  5  1  1  0  0  0
  8  7  1  0  0  0  0
 10 21  1  6  0  0  0
 10 13  1  0  0  0  0
 10  9  1  0  0  0  0
 10 12  1  0  0  0  0
 11 12  1  0  0  0  0
 14 16  1  6  0  0  0
 14 19  1  0  0  0  0
 15 19  1  0  0  0  0
 17 18  1  0  0  0  0
 17 20  1  0  0  0  0
 18 14  1  0  0  0  0
 20 13  1  6  0  0  0
 20 15  1  0  0  0  0
 22 24  1  0  0  0  0
 23 24  2  0  0  0  0
 24 21  1  0  0  0  0
 25 31  1  0  0  0  0
 25 26  1  1  0  0  0
 27 30  2  0  0  0  0
 27 31  1  0  0  0  0
 28 33  1  0  0  0  0
 29 36  1  0  0  0  0
 29 28  2  0  0  0  0
 30 29  1  0  0  0  0
 31 32  2  0  0  0  0
 32 28  1  0  0  0  0
 33 35  2  0  0  0  0
 33 34  1  0  0  0  0
 36 37  1  0  0  0  0
 37 45  1  6  0  0  0
 38 42  1  0  0  0  0
 39 38  1  0  0  0  0
 40 44  1  0  0  0  0
 40 39  1  0  0  0  0
 41 37  1  0  0  0  0
 41 42  1  0  0  0  0
 43 40  2  0  0  0  0
 44 41  2  0  0  0  0
 45 46  1  0  0  0  0
M  END
>  <MODEL>
5

>  <REMARK>
 VINA RESULT:      -6.1      2.208      3.289
  Name = 
  15 active torsions:
  status: ('A' for Active; 'I' for Inactive)
    1  A    between atoms: N_1  and  C_38
    2  A    between atoms: N_1  and  C_40
    3  A    between atoms: C_3  and  C_26
    4  A    between atoms: C_5  and  C_16
    5  A    between atoms: O_13  and  C_16
    6  A    between atoms: O_13  and  C_30
    7  A    between atoms: C_15  and  C_16
    8  A    between atoms: C_17  and  C_25
    9  A    between atoms: C_17  and  C_38
   10  A    between atoms: C_20  and  C_27
   11  A    between atoms: C_20  and  C_38
   12  A    between atoms: C_23  and  C_24
   13  A    between atoms: C_23  and  C_33
   14  A    between atoms: C_36  and  C_43
   15  A    between atoms: C_38  and  C_41
                            x       y       z     vdW  Elec       q    Type
                         _______ _______ _______ _____ _____    ______ ____

>  <TORSDO>
F 15

$$$$
=
 OpenBabel11062422513D

 46 49  0  0  1  0  0  0  0  0999 V2000
  192.5370  170.8630  144.2890 N   0  0  0  0  0  2  0  0  0  0  0  0
  191.7880  172.0320  143.9250 C   0  0  0  0  0  0  0  0  0  0  0  0
  192.2340  173.1860  144.1710 O   0  0  0  0  0  0  0  0  0  0  0  0
  194.2820  169.7010  145.2770 O   0  0  0  0  0  0  0  0  0  0  0  0
  193.7790  170.8230  145.0010 C   0  0  0  0  0  0  0  0  0  0  0  0
  195.5130  172.4510  144.4560 C   0  0  2  0  0  3  0  0  0  0  0  0
  194.4730  172.0800  145.4410 C   0  0  2  0  0  3  0  0  0  0  0  0
  195.8400  171.8350  145.6770 O   0  0  0  0  0  0  0  0  0  0  0  0
  195.8040  173.9420  144.5530 C   0  0  0  0  0  2  0  0  0  0  0  0
  195.7770  174.6380  143.1780 C   0  0  1  0  0  0  0  0  0  0  0  0
  197.5730  176.1360  142.5650 O   0  0  0  0  0  1  0  0  0  0  0  0
  197.2240  174.7870  142.6840 C   0  0  0  0  0  2  0  0  0  0  0  0
  194.9800  173.8570  142.2120 N   0  0  0  0  0  2  0  0  0  0  0  0
  192.7680  174.1610  138.6920 C   0  0  1  0  0  3  0  0  0  0  0  0
  195.0230  174.4090  139.8220 C   0  0  0  0  0  2  0  0  0  0  0  0
  192.7720  173.0820  137.7200 N   0  0  0  0  0  1  0  0  0  0  0  0
  192.8500  174.5380  141.1830 C   0  0  0  0  0  2  0  0  0  0  0  0
  192.3770  173.6080  140.0690 C   0  0  0  0  0  2  0  0  0  0  0  0
  194.1270  174.8780  138.6790 C   0  0  0  0  0  2  0  0  0  0  0  0
  194.3780  174.7090  141.1830 C   0  0  1  0  0  3  0  0  0  0  0  0
  195.1330  176.0310  143.3050 C   0  0  0  0  0  2  0  0  0  0  0  0
  194.9060  176.7870  145.6800 O   0  0  0  0  0  1  0  0  0  0  0  0
  193.1100  175.8960  144.5700 O   0  0  0  0  0  0  0  0  0  0  0  0
  194.3270  176.2150  144.5550 C   0  0  0  0  0  0  0  0  0  0  0  0
  190.4260  171.8950  143.2930 C   0  0  2  0  0  3  0  0  0  0  0  0
  190.4420  171.0640  142.0150 C   0  0  0  0  0  1  0  0  0  0  0  0
  188.9660  173.4410  141.9190 C   0  0  0  0  0  3  0  0  0  0  0  0
  189.2020  175.4380  143.8890 C   0  0  0  0  0  0  0  0  0  0  0  0
  188.4060  175.6670  142.7400 C   0  0  0  0  0  0  0  0  0  0  0  0
  188.3030  174.6610  141.7640 C   0  0  0  0  0  3  0  0  0  0  0  0
  189.7550  173.2130  143.0540 C   0  0  0  0  0  0  0  0  0  0  0  0
  189.8630  174.2070  144.0290 C   0  0  0  0  0  3  0  0  0  0  0  0
  189.3400  176.4390  144.9760 C   0  0  0  0  0  0  0  0  0  0  0  0
  189.6560  177.6280  144.7030 O   0  0  0  0  0  0  0  0  0  0  0  0
  189.1360  176.0920  146.3080 O   0  0  0  0  0  1  0  0  0  0  0  0
  187.7170  176.8840  142.6010 O   0  0  0  0  0  0  0  0  0  0  0  0
  186.3170  177.0390  142.3380 C   0  0  1  0  0  3  0  0  0  0  0  0
  184.2920  179.3090  144.7360 C   0  0  0  0  0  2  0  0  0  0  0  0
  184.0960  178.3720  145.9270 C   0  0  0  0  0  2  0  0  0  0  0  0
  185.1940  177.3510  145.9720 C   0  0  0  0  0  0  0  0  0  0  0  0
  185.5640  177.4950  143.5550 C   0  0  0  0  0  0  0  0  0  0  0  0
  184.4400  178.4980  143.4490 C   0  0  0  0  0  2  0  0  0  0  0  0
  185.4980  176.8080  147.0640 O   0  0  0  0  0  0  0  0  0  0  0  0
  185.8830  176.9500  144.7350 C   0  0  0  0  0  3  0  0  0  0  0  0
  186.0510  177.8740  141.0850 C   0  0  0  0  0  2  0  0  0  0  0  0
  186.5210  177.1980  139.9580 O   0  0  0  0  0  1  0  0  0  0  0  0
  1  5  1  0  0  0  0
  2  3  2  0  0  0  0
  2  1  1  0  0  0  0
  5  4  2  0  0  0  0
  6  9  1  1  0  0  0
  6  7  1  0  0  0  0
  6  8  1  0  0  0  0
  7  5  1  6  0  0  0
  7  8  1  0  0  0  0
 10 12  1  6  0  0  0
 10 21  1  0  0  0  0
 10  9  1  0  0  0  0
 11 12  1  0  0  0  0
 13 10  1  0  0  0  0
 14 16  1  6  0  0  0
 14 18  1  0  0  0  0
 15 20  1  0  0  0  0
 18 17  1  0  0  0  0
 19 14  1  0  0  0  0
 19 15  1  0  0  0  0
 20 17  1  0  0  0  0
 20 13  1  1  0  0  0
 21 24  1  0  0  0  0
 24 23  2  0  0  0  0
 24 22  1  0  0  0  0
 25 26  1  6  0  0  0
 25  2  1  0  0  0  0
 27 31  1  0  0  0  0
 28 32  1  0  0  0  0
 28 33  1  0  0  0  0
 29 28  2  0  0  0  0
 30 27  2  0  0  0  0
 30 29  1  0  0  0  0
 31 25  1  0  0  0  0
 31 32  2  0  0  0  0
 33 35  1  0  0  0  0
 34 33  2  0  0  0  0
 36 29  1  0  0  0  0
 37 45  1  6  0  0  0
 37 36  1  0  0  0  0
 37 41  1  0  0  0  0
 38 39  1  0  0  0  0
 39 40  1  0  0  0  0
 40 43  2  0  0  0  0
 41 44  2  0  0  0  0
 42 41  1  0  0  0  0
 42 38  1  0  0  0  0
 44 40  1  0  0  0  0
 46 45  1  0  0  0  0
M  END
>  <MODEL>
6

>  <REMARK>
 VINA RESULT:      -5.9      2.240      4.506
  Name = 
  15 active torsions:
  status: ('A' for Active; 'I' for Inactive)
    1  A    between atoms: N_1  and  C_38
    2  A    between atoms: N_1  and  C_40
    3  A    between atoms: C_3  and  C_26
    4  A    between atoms: C_5  and  C_16
    5  A    between atoms: O_13  and  C_16
    6  A    between atoms: O_13  and  C_30
    7  A    between atoms: C_15  and  C_16
    8  A    between atoms: C_17  and  C_25
    9  A    between atoms: C_17  and  C_38
   10  A    between atoms: C_20  and  C_27
   11  A    between atoms: C_20  and  C_38
   12  A    between atoms: C_23  and  C_24
   13  A    between atoms: C_23  and  C_33
   14  A    between atoms: C_36  and  C_43
   15  A    between atoms: C_38  and  C_41
                            x       y       z     vdW  Elec       q    Type
                         _______ _______ _______ _____ _____    ______ ____

>  <TORSDO>
F 15

$$$$
=
 OpenBabel11062422513D

 46 49  0  0  1  0  0  0  0  0999 V2000
  193.1250  173.6930  145.6510 N   0  0  0  0  0  2  0  0  0  0  0  0
  193.0650  175.0870  145.3110 C   0  0  0  0  0  0  0  0  0  0  0  0
  193.9470  175.6090  144.5750 O   0  0  0  0  0  0  0  0  0  0  0  0
  194.0710  171.5790  145.7180 O   0  0  0  0  0  0  0  0  0  0  0  0
  194.1560  172.7640  145.2970 C   0  0  0  0  0  0  0  0  0  0  0  0
  195.1880  172.6450  143.0900 C   0  0  2  0  0  3  0  0  0  0  0  0
  195.3340  173.1770  144.4630 C   0  0  2  0  0  3  0  0  0  0  0  0
  196.0520  172.0470  144.0250 O   0  0  0  0  0  0  0  0  0  0  0  0
  196.0050  173.4890  142.1220 C   0  0  0  0  0  2  0  0  0  0  0  0
  195.2770  173.7200  140.7830 C   0  0  1  0  0  0  0  0  0  0  0  0
  197.3560  172.6520  140.1610 O   0  0  0  0  0  1  0  0  0  0  0  0
  196.1540  173.1570  139.6540 C   0  0  0  0  0  2  0  0  0  0  0  0
  193.9560  173.0620  140.7860 N   0  0  0  0  0  2  0  0  0  0  0  0
  191.3230  170.8520  138.4280 C   0  0  1  0  0  3  0  0  0  0  0  0
  193.4230  170.8590  139.8470 C   0  0  0  0  0  2  0  0  0  0  0  0
  190.2670  170.0630  139.0380 N   0  0  0  0  0  1  0  0  0  0  0  0
  192.5690  173.0200  138.7520 C   0  0  0  0  0  2  0  0  0  0  0  0
  191.2340  172.3000  138.9300 C   0  0  0  0  0  2  0  0  0  0  0  0
  192.6840  170.1910  138.6900 C   0  0  0  0  0  2  0  0  0  0  0  0
  193.7020  172.3380  139.5380 C   0  0  1  0  0  3  0  0  0  0  0  0
  195.0550  175.2270  140.5560 C   0  0  0  0  0  2  0  0  0  0  0  0
  196.2280  176.8140  142.0940 O   0  0  0  0  0  1  0  0  0  0  0  0
  197.2560  176.0800  140.1830 O   0  0  0  0  0  0  0  0  0  0  0  0
  196.2360  176.0750  140.9190 C   0  0  0  0  0  0  0  0  0  0  0  0
  191.9760  175.9600  145.8780 C   0  0  2  0  0  3  0  0  0  0  0  0
  191.3200  175.3660  147.1190 C   0  0  0  0  0  1  0  0  0  0  0  0
  190.5070  177.6590  144.7100 C   0  0  0  0  0  3  0  0  0  0  0  0
  189.5270  175.6550  142.9940 C   0  0  0  0  0  0  0  0  0  0  0  0
  189.0900  176.9940  142.8400 C   0  0  0  0  0  0  0  0  0  0  0  0
  189.5860  177.9810  143.7100 C   0  0  0  0  0  3  0  0  0  0  0  0
  190.9380  176.3360  144.8650 C   0  0  0  0  0  0  0  0  0  0  0  0
  190.4510  175.3480  144.0050 C   0  0  0  0  0  3  0  0  0  0  0  0
  189.0720  174.5600  142.1010 C   0  0  0  0  0  0  0  0  0  0  0  0
  189.2080  174.6650  140.8530 O   0  0  0  0  0  0  0  0  0  0  0  0
  188.4820  173.4080  142.6130 O   0  0  0  0  0  1  0  0  0  0  0  0
  188.1870  177.3190  141.8140 O   0  0  0  0  0  0  0  0  0  0  0  0
  186.7700  177.1130  141.8380 C   0  0  1  0  0  3  0  0  0  0  0  0
  185.7330  179.6760  144.5510 C   0  0  0  0  0  2  0  0  0  0  0  0
  184.9060  178.7930  145.4830 C   0  0  0  0  0  2  0  0  0  0  0  0
  185.3410  177.3620  145.3680 C   0  0  0  0  0  0  0  0  0  0  0  0
  186.1400  177.6860  143.0760 C   0  0  0  0  0  0  0  0  0  0  0  0
  185.6840  179.1250  143.1260 C   0  0  0  0  0  2  0  0  0  0  0  0
  185.1510  176.5720  146.3270 O   0  0  0  0  0  0  0  0  0  0  0  0
  185.9460  176.8720  144.1200 C   0  0  0  0  0  3  0  0  0  0  0  0
  186.0980  177.5430  140.5340 C   0  0  0  0  0  2  0  0  0  0  0  0
  186.7640  176.9720  139.4480 O   0  0  0  0  0  1  0  0  0  0  0  0
  2  1  1  0  0  0  0
  2 25  1  0  0  0  0
  3  2  2  0  0  0  0
  5  1  1  0  0  0  0
  5  4  2  0  0  0  0
  6  9  1  6  0  0  0
  6  8  1  0  0  0  0
  6  7  1  0  0  0  0
  7  5  1  1  0  0  0
  8  7  1  0  0  0  0
 10 12  1  6  0  0  0
 10 13  1  0  0  0  0
 10  9  1  0  0  0  0
 12 11  1  0  0  0  0
 14 19  1  0  0  0  0
 14 18  1  0  0  0  0
 14 16  1  1  0  0  0
 17 18  1  0  0  0  0
 17 20  1  0  0  0  0
 19 15  1  0  0  0  0
 20 15  1  0  0  0  0
 20 13  1  1  0  0  0
 21 10  1  0  0  0  0
 21 24  1  0  0  0  0
 23 24  2  0  0  0  0
 24 22  1  0  0  0  0
 25 26  1  1  0  0  0
 27 31  1  0  0  0  0
 28 32  1  0  0  0  0
 29 28  2  0  0  0  0
 29 30  1  0  0  0  0
 30 27  2  0  0  0  0
 31 25  1  0  0  0  0
 32 31  2  0  0  0  0
 33 35  1  0  0  0  0
 33 28  1  0  0  0  0
 34 33  2  0  0  0  0
 36 37  1  0  0  0  0
 36 29  1  0  0  0  0
 37 45  1  6  0  0  0
 37 41  1  0  0  0  0
 38 39  1  0  0  0  0
 40 39  1  0  0  0  0
 40 43  2  0  0  0  0
 41 42  1  0  0  0  0
 41 44  2  0  0  0  0
 42 38  1  0  0  0  0
 44 40  1  0  0  0  0
 46 45  1  0  0  0  0
M  END
>  <MODEL>
7

>  <REMARK>
 VINA RESULT:      -5.8      1.952      3.437
  Name = 
  15 active torsions:
  status: ('A' for Active; 'I' for Inactive)
    1  A    between atoms: N_1  and  C_38
    2  A    between atoms: N_1  and  C_40
    3  A    between atoms: C_3  and  C_26
    4  A    between atoms: C_5  and  C_16
    5  A    between atoms: O_13  and  C_16
    6  A    between atoms: O_13  and  C_30
    7  A    between atoms: C_15  and  C_16
    8  A    between atoms: C_17  and  C_25
    9  A    between atoms: C_17  and  C_38
   10  A    between atoms: C_20  and  C_27
   11  A    between atoms: C_20  and  C_38
   12  A    between atoms: C_23  and  C_24
   13  A    between atoms: C_23  and  C_33
   14  A    between atoms: C_36  and  C_43
   15  A    between atoms: C_38  and  C_41
                            x       y       z     vdW  Elec       q    Type
                         _______ _______ _______ _____ _____    ______ ____

>  <TORSDO>
F 15

$$$$
=
 OpenBabel11062422513D

 46 49  0  0  1  0  0  0  0  0999 V2000
  187.7970  175.2020  139.8940 N   0  0  0  0  0  2  0  0  0  0  0  0
  187.5530  175.0550  141.3010 C   0  0  0  0  0  0  0  0  0  0  0  0
  187.7840  173.9600  141.8840 O   0  0  0  0  0  0  0  0  0  0  0  0
  188.3590  174.4790  137.7650 O   0  0  0  0  0  0  0  0  0  0  0  0
  188.2360  174.1860  138.9850 C   0  0  0  0  0  0  0  0  0  0  0  0
  189.9660  172.6510  139.7630 C   0  0  2  0  0  3  0  0  0  0  0  0
  188.5260  172.7880  139.4490 C   0  0  2  0  0  3  0  0  0  0  0  0
  189.4200  172.1480  138.5680 O   0  0  0  0  0  0  0  0  0  0  0  0
  190.1720  171.5040  140.7420 C   0  0  0  0  0  2  0  0  0  0  0  0
  191.6110  171.4490  141.2900 C   0  0  1  0  0  0  0  0  0  0  0  0
  192.3880  169.2540  141.9420 O   0  0  0  0  0  1  0  0  0  0  0  0
  192.2430  170.1190  140.8530 C   0  0  0  0  0  2  0  0  0  0  0  0
  192.4060  172.5880  140.7880 N   0  0  0  0  0  2  0  0  0  0  0  0
  195.8230  174.8480  141.5530 C   0  0  1  0  0  3  0  0  0  0  0  0
  194.8370  172.5550  141.1130 C   0  0  0  0  0  2  0  0  0  0  0  0
  196.6850  175.2780  140.4660 N   0  0  0  0  0  1  0  0  0  0  0  0
  193.3880  174.4480  142.0670 C   0  0  0  0  0  2  0  0  0  0  0  0
  194.3810  175.2890  141.2680 C   0  0  0  0  0  2  0  0  0  0  0  0
  195.9740  173.3340  141.7690 C   0  0  0  0  0  2  0  0  0  0  0  0
  193.4810  172.9540  141.7130 C   0  0  1  0  0  3  0  0  0  0  0  0
  191.5930  171.5260  142.8280 C   0  0  0  0  0  2  0  0  0  0  0  0
  190.4510  173.6540  143.4840 O   0  0  0  0  0  0  0  0  0  0  0  0
  189.3770  171.6430  143.7160 O   0  0  0  0  0  1  0  0  0  0  0  0
  190.4170  172.2700  143.3840 C   0  0  0  0  0  0  0  0  0  0  0  0
  186.9620  176.1930  142.0920 C   0  0  2  0  0  3  0  0  0  0  0  0
  186.6120  177.4010  141.2300 C   0  0  0  0  0  1  0  0  0  0  0  0
  187.4080  176.3960  144.5760 C   0  0  0  0  0  3  0  0  0  0  0  0
  189.9480  177.4870  144.0460 C   0  0  0  0  0  0  0  0  0  0  0  0
  189.5340  177.2760  145.3840 C   0  0  0  0  0  0  0  0  0  0  0  0
  188.2600  176.7350  145.6310 C   0  0  0  0  0  3  0  0  0  0  0  0
  187.8150  176.6060  143.2520 C   0  0  0  0  0  0  0  0  0  0  0  0
  189.0800  177.1430  142.9980 C   0  0  0  0  0  3  0  0  0  0  0  0
  191.2860  178.0290  143.7020 C   0  0  0  0  0  0  0  0  0  0  0  0
  192.1800  177.2650  143.2480 O   0  0  0  0  0  0  0  0  0  0  0  0
  191.5880  179.3760  143.8780 O   0  0  0  0  0  1  0  0  0  0  0  0
  190.4050  177.5900  146.4410 O   0  0  0  0  0  0  0  0  0  0  0  0
  191.0200  176.6560  147.3370 C   0  0  1  0  0  3  0  0  0  0  0  0
  194.4710  176.4080  145.5950 C   0  0  0  0  0  2  0  0  0  0  0  0
  194.7070  174.8990  145.6330 C   0  0  0  0  0  2  0  0  0  0  0  0
  193.3980  174.1680  145.6890 C   0  0  0  0  0  0  0  0  0  0  0  0
  192.2720  176.0630  146.7560 C   0  0  0  0  0  0  0  0  0  0  0  0
  193.5740  176.8280  146.7590 C   0  0  0  0  0  2  0  0  0  0  0  0
  193.3240  172.9860  145.2680 O   0  0  0  0  0  0  0  0  0  0  0  0
  192.2150  174.8140  146.2790 C   0  0  0  0  0  3  0  0  0  0  0  0
  191.1890  177.2270  148.7440 C   0  0  0  0  0  2  0  0  0  0  0  0
  190.6490  178.5130  148.8010 O   0  0  0  0  0  1  0  0  0  0  0  0
  1  2  1  0  0  0  0
  2  3  2  0  0  0  0
  2 25  1  0  0  0  0
  4  5  2  0  0  0  0
  5  1  1  0  0  0  0
  6  9  1  1  0  0  0
  7  5  1  6  0  0  0
  7  6  1  0  0  0  0
  8  7  1  0  0  0  0
  8  6  1  0  0  0  0
 10  9  1  6  0  0  0
 10 21  1  0  0  0  0
 12 10  1  0  0  0  0
 12 11  1  0  0  0  0
 13 10  1  0  0  0  0
 14 16  1  6  0  0  0
 14 19  1  0  0  0  0
 15 20  1  0  0  0  0
 15 19  1  0  0  0  0
 18 14  1  0  0  0  0
 18 17  1  0  0  0  0
 20 13  1  6  0  0  0
 20 17  1  0  0  0  0
 21 24  1  0  0  0  0
 24 22  2  0  0  0  0
 24 23  1  0  0  0  0
 25 26  1  6  0  0  0
 25 31  1  0  0  0  0
 27 30  1  0  0  0  0
 28 29  1  0  0  0  0
 29 30  2  0  0  0  0
 29 36  1  0  0  0  0
 31 27  2  0  0  0  0
 32 31  1  0  0  0  0
 32 28  2  0  0  0  0
 33 35  1  0  0  0  0
 33 28  1  0  0  0  0
 34 33  2  0  0  0  0
 36 37  1  0  0  0  0
 37 45  1  1  0  0  0
 38 39  1  0  0  0  0
 38 42  1  0  0  0  0
 39 40  1  0  0  0  0
 40 44  1  0  0  0  0
 41 42  1  0  0  0  0
 41 37  1  0  0  0  0
 43 40  2  0  0  0  0
 44 41  2  0  0  0  0
 45 46  1  0  0  0  0
M  END
>  <MODEL>
8

>  <REMARK>
 VINA RESULT:      -5.8      2.540      6.670
  Name = 
  15 active torsions:
  status: ('A' for Active; 'I' for Inactive)
    1  A    between atoms: N_1  and  C_38
    2  A    between atoms: N_1  and  C_40
    3  A    between atoms: C_3  and  C_26
    4  A    between atoms: C_5  and  C_16
    5  A    between atoms: O_13  and  C_16
    6  A    between atoms: O_13  and  C_30
    7  A    between atoms: C_15  and  C_16
    8  A    between atoms: C_17  and  C_25
    9  A    between atoms: C_17  and  C_38
   10  A    between atoms: C_20  and  C_27
   11  A    between atoms: C_20  and  C_38
   12  A    between atoms: C_23  and  C_24
   13  A    between atoms: C_23  and  C_33
   14  A    between atoms: C_36  and  C_43
   15  A    between atoms: C_38  and  C_41
                            x       y       z     vdW  Elec       q    Type
                         _______ _______ _______ _____ _____    ______ ____

>  <TORSDO>
F 15

$$$$
=
 OpenBabel11062422513D

 46 49  0  0  1  0  0  0  0  0999 V2000
  195.3270  173.3800  143.4770 N   0  0  0  0  0  2  0  0  0  0  0  0
  194.8830  174.7300  143.2750 C   0  0  0  0  0  0  0  0  0  0  0  0
  194.6140  175.1530  142.1180 O   0  0  0  0  0  0  0  0  0  0  0  0
  196.0150  171.2670  142.8200 O   0  0  0  0  0  0  0  0  0  0  0  0
  195.5870  172.3980  142.4670 C   0  0  0  0  0  0  0  0  0  0  0  0
  194.2960  171.8490  140.4710 C   0  0  2  0  0  3  0  0  0  0  0  0
  195.3820  172.6970  141.0100 C   0  0  2  0  0  3  0  0  0  0  0  0
  195.6490  171.5560  140.2270 O   0  0  0  0  0  0  0  0  0  0  0  0
  193.6950  172.5060  139.2360 C   0  0  0  0  0  2  0  0  0  0  0  0
  192.1760  172.2720  139.1250 C   0  0  1  0  0  0  0  0  0  0  0  0
  191.1720  170.1410  138.5780 O   0  0  0  0  0  1  0  0  0  0  0  0
  191.9300  171.1950  138.0580 C   0  0  0  0  0  2  0  0  0  0  0  0
  191.6150  171.8480  140.4240 N   0  0  0  0  0  2  0  0  0  0  0  0
  189.9720  173.5350  143.8630 C   0  0  1  0  0  3  0  0  0  0  0  0
  189.5670  172.2610  141.7100 C   0  0  0  0  0  2  0  0  0  0  0  0
  189.6960  172.7160  145.0300 N   0  0  0  0  0  1  0  0  0  0  0  0
  191.6400  173.7510  141.9850 C   0  0  0  0  0  2  0  0  0  0  0  0
  191.4370  173.3540  143.4460 C   0  0  0  0  0  2  0  0  0  0  0  0
  188.9670  173.2060  142.7480 C   0  0  0  0  0  2  0  0  0  0  0  0
  190.7900  172.8950  141.0310 C   0  0  1  0  0  3  0  0  0  0  0  0
  191.4700  173.5760  138.7080 C   0  0  0  0  0  2  0  0  0  0  0  0
  193.1020  174.8450  137.2980 O   0  0  0  0  0  1  0  0  0  0  0  0
  191.2630  173.8630  136.3450 O   0  0  0  0  0  0  0  0  0  0  0  0
  191.9240  174.1140  137.3860 C   0  0  0  0  0  0  0  0  0  0  0  0
  194.7880  175.6800  144.4410 C   0  0  2  0  0  3  0  0  0  0  0  0
  195.3170  175.0850  145.7410 C   0  0  0  0  0  1  0  0  0  0  0  0
  192.7590  176.9630  143.6380 C   0  0  0  0  0  3  0  0  0  0  0  0
  191.4110  176.3630  146.0350 C   0  0  0  0  0  0  0  0  0  0  0  0
  190.7570  177.1080  145.0230 C   0  0  0  0  0  0  0  0  0  0  0  0
  191.4460  177.4030  143.8340 C   0  0  0  0  0  3  0  0  0  0  0  0
  193.4080  176.2290  144.6380 C   0  0  0  0  0  0  0  0  0  0  0  0
  192.7300  175.9310  145.8230 C   0  0  0  0  0  3  0  0  0  0  0  0
  190.7440  175.9890  147.3070 C   0  0  0  0  0  0  0  0  0  0  0  0
  191.1630  176.4530  148.4010 O   0  0  0  0  0  1  0  0  0  0  0  0
  189.6570  175.1190  147.3240 O   0  0  0  0  0  0  0  0  0  0  0  0
  189.4280  177.5220  145.2110 O   0  0  0  0  0  0  0  0  0  0  0  0
  188.3030  177.1510  144.4060 C   0  0  1  0  0  3  0  0  0  0  0  0
  185.1900  176.7810  146.6820 C   0  0  0  0  0  2  0  0  0  0  0  0
  184.4660  178.0950  146.3990 C   0  0  0  0  0  2  0  0  0  0  0  0
  184.8340  178.6100  145.0390 C   0  0  0  0  0  0  0  0  0  0  0  0
  186.9990  177.4680  145.0830 C   0  0  0  0  0  0  0  0  0  0  0  0
  186.6940  176.9550  146.4700 C   0  0  0  0  0  2  0  0  0  0  0  0
  184.0460  179.3750  144.4260 O   0  0  0  0  0  0  0  0  0  0  0  0
  186.1330  178.2610  144.4430 C   0  0  0  0  0  3  0  0  0  0  0  0
  188.4130  177.6790  142.9760 C   0  0  0  0  0  2  0  0  0  0  0  0
  188.4550  176.6090  142.0790 O   0  0  0  0  0  1  0  0  0  0  0  0
  2  1  1  0  0  0  0
  2 25  1  0  0  0  0
  3  2  2  0  0  0  0
  5  4  2  0  0  0  0
  5  1  1  0  0  0  0
  6  9  1  6  0  0  0
  6  7  1  0  0  0  0
  7  5  1  1  0  0  0
  8  6  1  0  0  0  0
  8  7  1  0  0  0  0
 10 12  1  6  0  0  0
 10  9  1  0  0  0  0
 10 13  1  0  0  0  0
 12 11  1  0  0  0  0
 14 16  1  1  0  0  0
 15 19  1  0  0  0  0
 17 18  1  0  0  0  0
 18 14  1  0  0  0  0
 19 14  1  0  0  0  0
 20 13  1  1  0  0  0
 20 15  1  0  0  0  0
 20 17  1  0  0  0  0
 21 10  1  0  0  0  0
 22 24  1  0  0  0  0
 23 24  2  0  0  0  0
 24 21  1  0  0  0  0
 25 31  1  0  0  0  0
 25 26  1  1  0  0  0
 27 30  2  0  0  0  0
 27 31  1  0  0  0  0
 28 33  1  0  0  0  0
 29 36  1  0  0  0  0
 29 28  2  0  0  0  0
 30 29  1  0  0  0  0
 31 32  2  0  0  0  0
 32 28  1  0  0  0  0
 33 35  2  0  0  0  0
 33 34  1  0  0  0  0
 37 45  1  6  0  0  0
 37 41  1  0  0  0  0
 37 36  1  0  0  0  0
 39 38  1  0  0  0  0
 40 39  1  0  0  0  0
 41 42  1  0  0  0  0
 42 38  1  0  0  0  0
 43 40  2  0  0  0  0
 44 40  1  0  0  0  0
 44 41  2  0  0  0  0
 46 45  1  0  0  0  0
M  END
>  <MODEL>
9

>  <REMARK>
 VINA RESULT:      -5.8      1.883      2.835
  Name = 
  15 active torsions:
  status: ('A' for Active; 'I' for Inactive)
    1  A    between atoms: N_1  and  C_38
    2  A    between atoms: N_1  and  C_40
    3  A    between atoms: C_3  and  C_26
    4  A    between atoms: C_5  and  C_16
    5  A    between atoms: O_13  and  C_16
    6  A    between atoms: O_13  and  C_30
    7  A    between atoms: C_15  and  C_16
    8  A    between atoms: C_17  and  C_25
    9  A    between atoms: C_17  and  C_38
   10  A    between atoms: C_20  and  C_27
   11  A    between atoms: C_20  and  C_38
   12  A    between atoms: C_23  and  C_24
   13  A    between atoms: C_23  and  C_33
   14  A    between atoms: C_36  and  C_43
   15  A    between atoms: C_38  and  C_41
                            x       y       z     vdW  Elec       q    Type
                         _______ _______ _______ _____ _____    ______ ____

>  <TORSDO>
F 15

$$$$
