=
 OpenBabel11062420173D

 25 29  0  0  1  0  0  0  0  0999 V2000
  191.7800  175.2620  143.5080 C   0  0  1  0  0  3  0  0  0  0  0  0
  191.2120  175.2470  148.2960 O   0  0  0  0  0  0  0  0  0  0  0  0
  187.3150  176.3160  147.2790 N   0  0  0  0  0  0  0  0  0  0  0  0
  191.2700  175.7100  145.9680 C   0  0  0  0  0  0  0  0  0  0  0  0
  192.9730  176.1230  143.6980 C   0  0  2  0  0  3  0  0  0  0  0  0
  189.2160  174.6890  147.1220 C   0  0  0  0  0  2  0  0  0  0  0  0
  188.3270  175.7630  146.5860 C   0  0  2  0  0  3  0  0  0  0  0  0
  186.7720  177.2700  146.5360 N   0  0  0  0  0  0  0  0  0  0  0  0
  189.3760  176.0650  144.2100 C   0  0  1  0  0  3  0  0  0  0  0  0
  188.4570  176.3990  145.3630 C   0  0  0  0  0  0  0  0  0  0  0  0
  192.9320  177.0780  144.8930 C   0  0  0  0  0  2  0  0  0  0  0  0
  187.4500  177.3420  145.3740 C   0  0  0  0  0  0  0  0  0  0  0  0
  190.6170  175.2030  147.1860 C   0  0  0  0  0  0  0  0  0  0  0  0
  192.3200  176.4620  146.0620 N   0  0  0  0  0  0  0  0  0  0  0  0
  190.7030  175.3530  144.6140 C   0  0  1  0  0  3  0  0  0  0  0  0
  191.9120  176.5270  142.7650 N   0  0  0  0  0  2  0  0  0  0  0  0
  189.1580  174.0510  140.5760 N   0  0  0  0  0  0  0  0  0  0  0  0
  188.3790  172.9210  140.0980 C   0  0  0  0  0  1  0  0  0  0  0  0
  189.8300  173.6330  141.8170 C   0  0  0  0  0  2  0  0  0  0  0  0
  188.6430  176.0760  141.9120 C   0  0  0  0  0  2  0  0  0  0  0  0
  188.6050  175.3430  143.1830 N   0  0  0  0  0  0  0  0  0  0  0  0
  188.9990  173.9230  143.0760 C   0  0  0  0  0  2  0  0  0  0  0  0
  188.2240  175.1700  140.7570 C   0  0  0  0  0  2  0  0  0  0  0  0
  187.0840  178.2530  144.2550 C   0  0  0  0  0  2  0  0  0  0  0  0
  186.1010  179.1470  144.6800 O   0  0  0  0  0  1  0  0  0  0  0  0
  1 16  1  6  0  0  0
  1  5  1  0  0  0  0
  1 15  1  0  0  0  0
  4 14  2  0  0  0  0
  4 13  1  0  0  0  0
  5 11  1  1  0  0  0
  6 13  1  0  0  0  0
  7  6  1  1  0  0  0
  7  3  1  0  0  0  0
  8  3  2  0  0  0  0
  9 21  1  6  0  0  0
  9 15  1  0  0  0  0
  9 10  1  0  0  0  0
 10 12  2  0  0  0  0
 10  7  1  0  0  0  0
 11 14  1  0  0  0  0
 12  8  1  0  0  0  0
 13  2  2  0  0  0  0
 15  4  1  1  0  0  0
 16  5  1  0  0  0  0
 17 23  1  0  0  0  0
 17 19  1  0  0  0  0
 18 17  1  0  0  0  0
 19 22  1  0  0  0  0
 20 21  1  0  0  0  0
 22 21  1  0  0  0  0
 23 20  1  0  0  0  0
 24 25  1  0  0  0  0
 24 12  1  0  0  0  0
M  END
>  <MODEL>
1

>  <REMARK>
 VINA RESULT:      -7.0      0.000      0.000
  Name = 
  2 active torsions:
  status: ('A' for Active; 'I' for Inactive)
    1  A    between atoms: C_1  and  C_15
    2  A    between atoms: C_11  and  N_21
                            x       y       z     vdW  Elec       q    Type
                         _______ _______ _______ _____ _____    ______ ____

>  <TORSDO>
F 2

$$$$
=
 OpenBabel11062420173D

 25 29  0  0  1  0  0  0  0  0999 V2000
  190.5020  174.1110  143.3200 C   0  0  1  0  0  3  0  0  0  0  0  0
  187.4370  176.5970  140.5500 O   0  0  0  0  0  0  0  0  0  0  0  0
  186.6760  178.5800  144.1350 N   0  0  0  0  0  0  0  0  0  0  0  0
  188.5460  175.3280  142.2230 C   0  0  0  0  0  0  0  0  0  0  0  0
  189.8990  172.8640  142.7880 C   0  0  2  0  0  3  0  0  0  0  0  0
  188.3030  177.8800  142.3610 C   0  0  0  0  0  2  0  0  0  0  0  0
  187.6830  177.7920  143.7170 C   0  0  0  0  0  0  0  0  0  0  0  0
  186.3290  178.2000  145.3570 N   0  0  0  0  0  2  0  0  0  0  0  0
  189.0920  175.8320  144.7230 C   0  0  1  0  0  3  0  0  0  0  0  0
  187.9800  176.8550  144.6920 C   0  0  0  0  0  0  0  0  0  0  0  0
  188.4150  172.9330  142.4250 C   0  0  0  0  0  2  0  0  0  0  0  0
  187.1010  177.1550  145.7130 C   0  0  0  0  0  0  0  0  0  0  0  0
  188.0760  176.5940  141.6360 C   0  0  0  0  0  0  0  0  0  0  0  0
  188.0650  174.2020  141.7990 N   0  0  0  0  0  0  0  0  0  0  0  0
  189.5810  175.3540  143.3220 C   0  0  1  0  0  3  0  0  0  0  0  0
  190.0160  173.0670  144.2390 N   0  0  0  0  0  2  0  0  0  0  0  0
  193.0160  175.6750  146.0970 N   0  0  0  0  0  0  0  0  0  0  0  0
  193.9730  176.6820  146.5200 C   0  0  0  0  0  1  0  0  0  0  0  0
  192.5260  176.0620  144.7640 C   0  0  0  0  0  2  0  0  0  0  0  0
  190.6040  175.2830  146.5200 C   0  0  0  0  0  2  0  0  0  0  0  0
  190.1730  176.3320  145.5890 N   0  0  0  0  0  0  0  0  0  0  0  0
  191.2730  176.9490  144.8200 C   0  0  0  0  0  2  0  0  0  0  0  0
  191.9640  175.6250  147.1220 C   0  0  0  0  0  2  0  0  0  0  0  0
  187.0480  176.5010  147.0500 C   0  0  0  0  0  2  0  0  0  0  0  0
  186.0280  177.0720  147.8100 O   0  0  0  0  0  1  0  0  0  0  0  0
  1 15  1  0  0  0  0
  1 16  1  1  0  0  0
  2 13  2  0  0  0  0
  3  8  1  0  0  0  0
  5 11  1  1  0  0  0
  5  1  1  0  0  0  0
  5 16  1  0  0  0  0
  6  7  1  0  0  0  0
  7  3  2  0  0  0  0
  7 10  1  0  0  0  0
  8 12  1  0  0  0  0
  9 21  1  6  0  0  0
 10  9  1  0  0  0  0
 10 12  2  0  0  0  0
 12 24  1  0  0  0  0
 13  4  1  0  0  0  0
 13  6  1  0  0  0  0
 14  4  2  0  0  0  0
 14 11  1  0  0  0  0
 15  4  1  6  0  0  0
 15  9  1  0  0  0  0
 17 18  1  0  0  0  0
 17 23  1  0  0  0  0
 19 22  1  0  0  0  0
 19 17  1  0  0  0  0
 20 23  1  0  0  0  0
 21 20  1  0  0  0  0
 22 21  1  0  0  0  0
 24 25  1  0  0  0  0
M  END
>  <MODEL>
2

>  <REMARK>
 VINA RESULT:      -6.9      2.022      4.983
  Name = 
  2 active torsions:
  status: ('A' for Active; 'I' for Inactive)
    1  A    between atoms: C_1  and  C_15
    2  A    between atoms: C_11  and  N_21
                            x       y       z     vdW  Elec       q    Type
                         _______ _______ _______ _____ _____    ______ ____

>  <TORSDO>
F 2

$$$$
=
 OpenBabel11062420173D

 25 29  0  0  1  0  0  0  0  0999 V2000
  186.2380  176.7690  146.9980 C   0  0  1  0  0  3  0  0  0  0  0  0
  183.9900  178.5380  143.1170 O   0  0  0  0  0  0  0  0  0  0  0  0
  187.7080  177.8850  141.3530 N   0  0  0  0  0  0  0  0  0  0  0  0
  185.4550  178.0050  144.9080 C   0  0  0  0  0  0  0  0  0  0  0  0
  185.7510  177.9450  147.7600 C   0  0  2  0  0  3  0  0  0  0  0  0
  185.7090  176.9830  142.5670 C   0  0  0  0  0  2  0  0  0  0  0  0
  187.1320  177.4260  142.4800 C   0  0  2  0  0  3  0  0  0  0  0  0
  188.9530  178.2440  141.6370 N   0  0  0  0  0  0  0  0  0  0  0  0
  187.8740  177.0320  144.9550 C   0  0  1  0  0  3  0  0  0  0  0  0
  188.0270  177.5160  143.5320 C   0  0  0  0  0  0  0  0  0  0  0  0
  185.5930  179.2440  146.9670 C   0  0  0  0  0  2  0  0  0  0  0  0
  189.1660  178.0340  142.9510 C   0  0  0  0  0  0  0  0  0  0  0  0
  184.9780  177.8700  143.5220 C   0  0  0  0  0  0  0  0  0  0  0  0
  185.0630  179.0060  145.6310 N   0  0  0  0  0  0  0  0  0  0  0  0
  186.4050  176.9770  145.4750 C   0  0  1  0  0  3  0  0  0  0  0  0
  187.1790  177.5970  147.7710 N   0  0  0  0  0  2  0  0  0  0  0  0
  191.3200  174.7440  144.5080 N   0  0  0  0  0  0  0  0  0  0  0  0
  191.9360  173.6910  145.2970 C   0  0  0  0  0  1  0  0  0  0  0  0
  191.0900  175.8890  145.4030 C   0  0  0  0  0  2  0  0  0  0  0  0
  189.0000  175.2460  143.7890 C   0  0  0  0  0  2  0  0  0  0  0  0
  188.6030  175.7610  145.1050 N   0  0  0  0  0  0  0  0  0  0  0  0
  189.7110  175.8560  146.0780 C   0  0  0  0  0  2  0  0  0  0  0  0
  190.0880  174.1850  143.9340 C   0  0  0  0  0  2  0  0  0  0  0  0
  190.4760  178.2560  143.6240 C   0  0  0  0  0  2  0  0  0  0  0  0
  191.5110  177.8540  142.7800 O   0  0  0  0  0  1  0  0  0  0  0  0
  1  5  1  0  0  0  0
  1 16  1  1  0  0  0
  2 13  2  0  0  0  0
  3  8  2  0  0  0  0
  3  7  1  0  0  0  0
  4 14  2  0  0  0  0
  5 11  1  6  0  0  0
  5 16  1  0  0  0  0
  6 13  1  0  0  0  0
  7  6  1  1  0  0  0
  7 10  1  0  0  0  0
  8 12  1  0  0  0  0
  9 21  1  6  0  0  0
  9 15  1  0  0  0  0
 10  9  1  0  0  0  0
 12 10  2  0  0  0  0
 12 24  1  0  0  0  0
 13  4  1  0  0  0  0
 14 11  1  0  0  0  0
 15  4  1  1  0  0  0
 15  1  1  0  0  0  0
 17 18  1  0  0  0  0
 17 19  1  0  0  0  0
 19 22  1  0  0  0  0
 20 23  1  0  0  0  0
 20 21  1  0  0  0  0
 21 22  1  0  0  0  0
 23 17  1  0  0  0  0
 25 24  1  0  0  0  0
M  END
>  <MODEL>
3

>  <REMARK>
 VINA RESULT:      -6.6      2.458      5.655
  Name = 
  2 active torsions:
  status: ('A' for Active; 'I' for Inactive)
    1  A    between atoms: C_1  and  C_15
    2  A    between atoms: C_11  and  N_21
                            x       y       z     vdW  Elec       q    Type
                         _______ _______ _______ _____ _____    ______ ____

>  <TORSDO>
F 2

$$$$
=
 OpenBabel11062420173D

 25 29  0  0  1  0  0  0  0  0999 V2000
  190.6840  174.2850  141.8370 C   0  0  1  0  0  3  0  0  0  0  0  0
  186.5730  176.8030  141.7200 O   0  0  0  0  0  0  0  0  0  0  0  0
  187.5150  177.4680  145.7230 N   0  0  0  0  0  0  0  0  0  0  0  0
  188.3920  175.3520  142.1900 C   0  0  0  0  0  0  0  0  0  0  0  0
  189.9540  173.1520  141.2170 C   0  0  2  0  0  3  0  0  0  0  0  0
  188.1370  177.6520  143.3020 C   0  0  0  0  0  2  0  0  0  0  0  0
  188.2370  177.0520  144.6660 C   0  0  0  0  0  0  0  0  0  0  0  0
  187.8030  176.6890  146.7570 N   0  0  0  0  0  2  0  0  0  0  0  0
  190.0330  175.2080  144.2120 C   0  0  1  0  0  3  0  0  0  0  0  0
  188.9980  175.9520  145.0230 C   0  0  0  0  0  0  0  0  0  0  0  0
  188.4720  173.0250  141.5780 C   0  0  0  0  0  2  0  0  0  0  0  0
  188.6940  175.7610  146.3550 C   0  0  0  0  0  0  0  0  0  0  0  0
  187.6490  176.6130  142.3460 C   0  0  0  0  0  0  0  0  0  0  0  0
  187.8160  174.3240  141.6510 N   0  0  0  0  0  0  0  0  0  0  0  0
  189.8220  175.2640  142.6690 C   0  0  1  0  0  3  0  0  0  0  0  0
  190.7330  172.9450  142.4450 N   0  0  0  0  0  2  0  0  0  0  0  0
  194.1490  175.4050  143.6370 N   0  0  0  0  0  0  0  0  0  0  0  0
  195.1550  176.4160  143.9140 C   0  0  0  0  0  1  0  0  0  0  0  0
  193.0830  176.0470  142.8520 C   0  0  0  0  0  2  0  0  0  0  0  0
  192.2270  174.4740  144.8970 C   0  0  0  0  0  2  0  0  0  0  0  0
  191.3740  175.6410  144.6430 N   0  0  0  0  0  0  0  0  0  0  0  0
  191.9670  176.6370  143.7270 C   0  0  0  0  0  2  0  0  0  0  0  0
  193.6970  174.8820  144.9330 C   0  0  0  0  0  2  0  0  0  0  0  0
  189.3060  174.7510  147.2630 C   0  0  0  0  0  2  0  0  0  0  0  0
  190.4410  175.2910  147.8660 O   0  0  0  0  0  1  0  0  0  0  0  0
  1 16  1  1  0  0  0
  1 15  1  0  0  0  0
  2 13  2  0  0  0  0
  3  8  1  0  0  0  0
  4 13  1  0  0  0  0
  5 11  1  1  0  0  0
  5  1  1  0  0  0  0
  5 16  1  0  0  0  0
  6  7  1  0  0  0  0
  7 10  1  0  0  0  0
  7  3  2  0  0  0  0
  9 21  1  6  0  0  0
  9 10  1  0  0  0  0
 10 12  2  0  0  0  0
 11 14  1  0  0  0  0
 12  8  1  0  0  0  0
 12 24  1  0  0  0  0
 13  6  1  0  0  0  0
 14  4  2  0  0  0  0
 15  4  1  1  0  0  0
 15  9  1  0  0  0  0
 17 18  1  0  0  0  0
 17 23  1  0  0  0  0
 19 17  1  0  0  0  0
 19 22  1  0  0  0  0
 20 23  1  0  0  0  0
 21 20  1  0  0  0  0
 22 21  1  0  0  0  0
 24 25  1  0  0  0  0
M  END
>  <MODEL>
4

>  <REMARK>
 VINA RESULT:      -6.5      1.610      4.900
  Name = 
  2 active torsions:
  status: ('A' for Active; 'I' for Inactive)
    1  A    between atoms: C_1  and  C_15
    2  A    between atoms: C_11  and  N_21
                            x       y       z     vdW  Elec       q    Type
                         _______ _______ _______ _____ _____    ______ ____

>  <TORSDO>
F 2

$$$$
=
 OpenBabel11062420173D

 25 29  0  0  1  0  0  0  0  0999 V2000
  188.0550  178.2240  142.4710 C   0  0  1  0  0  3  0  0  0  0  0  0
  185.5490  177.7070  146.5580 O   0  0  0  0  0  0  0  0  0  0  0  0
  188.7360  175.2090  147.5430 N   0  0  0  0  0  0  0  0  0  0  0  0
  186.7980  177.4540  144.5550 C   0  0  0  0  0  0  0  0  0  0  0  0
  186.8120  177.9130  141.7240 C   0  0  2  0  0  3  0  0  0  0  0  0
  187.8980  177.4750  146.8740 C   0  0  0  0  0  2  0  0  0  0  0  0
  188.5730  176.1690  146.6130 C   0  0  0  0  0  0  0  0  0  0  0  0
  189.3160  174.1650  146.9680 N   0  0  0  0  0  2  0  0  0  0  0  0
  189.1660  176.4690  144.0850 C   0  0  1  0  0  3  0  0  0  0  0  0
  189.0430  175.7190  145.3910 C   0  0  0  0  0  0  0  0  0  0  0  0
  185.8360  176.9520  142.4060 C   0  0  0  0  0  2  0  0  0  0  0  0
  189.5070  174.4490  145.6650 C   0  0  0  0  0  0  0  0  0  0  0  0
  186.6790  177.5740  146.0170 C   0  0  0  0  0  0  0  0  0  0  0  0
  185.7490  177.1910  143.8400 N   0  0  0  0  0  0  0  0  0  0  0  0
  188.1460  177.6330  143.8980 C   0  0  1  0  0  3  0  0  0  0  0  0
  188.0480  177.1710  141.4410 N   0  0  0  0  0  2  0  0  0  0  0  0
  193.2360  175.6070  144.1270 N   0  0  0  0  0  0  0  0  0  0  0  0
  194.3640  176.0410  143.3200 C   0  0  0  0  0  1  0  0  0  0  0  0
  192.2020  175.1040  143.2080 C   0  0  0  0  0  2  0  0  0  0  0  0
  191.3010  176.7540  145.1700 C   0  0  0  0  0  2  0  0  0  0  0  0
  190.5700  176.8770  143.9040 N   0  0  0  0  0  0  0  0  0  0  0  0
  191.2140  176.1930  142.7640 C   0  0  0  0  0  2  0  0  0  0  0  0
  192.8080  176.7640  144.9230 C   0  0  0  0  0  2  0  0  0  0  0  0
  190.1990  173.5390  144.7100 C   0  0  0  0  0  2  0  0  0  0  0  0
  189.7080  172.2420  144.8590 O   0  0  0  0  0  1  0  0  0  0  0  0
  1 16  1  6  0  0  0
  1 15  1  0  0  0  0
  4 13  1  0  0  0  0
  5 11  1  1  0  0  0
  5  1  1  0  0  0  0
  7  6  1  0  0  0  0
  7  3  2  0  0  0  0
  8  3  1  0  0  0  0
  9 21  1  1  0  0  0
  9 10  1  0  0  0  0
 10 12  2  0  0  0  0
 10  7  1  0  0  0  0
 11 14  1  0  0  0  0
 12  8  1  0  0  0  0
 13  2  2  0  0  0  0
 13  6  1  0  0  0  0
 14  4  2  0  0  0  0
 15  9  1  0  0  0  0
 15  4  1  6  0  0  0
 16  5  1  0  0  0  0
 17 23  1  0  0  0  0
 18 17  1  0  0  0  0
 19 17  1  0  0  0  0
 21 20  1  0  0  0  0
 22 19  1  0  0  0  0
 22 21  1  0  0  0  0
 23 20  1  0  0  0  0
 24 25  1  0  0  0  0
 24 12  1  0  0  0  0
M  END
>  <MODEL>
5

>  <REMARK>
 VINA RESULT:      -6.4      2.342      4.904
  Name = 
  2 active torsions:
  status: ('A' for Active; 'I' for Inactive)
    1  A    between atoms: C_1  and  C_15
    2  A    between atoms: C_11  and  N_21
                            x       y       z     vdW  Elec       q    Type
                         _______ _______ _______ _____ _____    ______ ____

>  <TORSDO>
F 2

$$$$
=
 OpenBabel11062420173D

 25 29  0  0  1  0  0  0  0  0999 V2000
  188.3460  177.5270  145.4300 C   0  0  1  0  0  3  0  0  0  0  0  0
  193.1000  177.1640  144.7120 O   0  0  0  0  0  0  0  0  0  0  0  0
  191.9000  174.3010  141.9330 N   0  0  0  0  0  0  0  0  0  0  0  0
  190.7810  176.8380  145.1020 C   0  0  0  0  0  0  0  0  0  0  0  0
  188.6010  177.3800  146.8850 C   0  0  2  0  0  3  0  0  0  0  0  0
  191.8250  176.6650  142.7630 C   0  0  0  0  0  2  0  0  0  0  0  0
  191.2530  175.3000  142.5600 C   0  0  2  0  0  3  0  0  0  0  0  0
  191.1370  173.2170  141.9790 N   0  0  0  0  0  0  0  0  0  0  0  0
  188.9350  175.6120  143.7280 C   0  0  1  0  0  3  0  0  0  0  0  0
  190.0430  174.8400  143.0490 C   0  0  0  0  0  0  0  0  0  0  0  0
  189.7990  176.5110  147.2750 C   0  0  0  0  0  2  0  0  0  0  0  0
  190.0110  173.5180  142.6540 C   0  0  0  0  0  0  0  0  0  0  0  0
  191.9620  176.9250  144.2280 C   0  0  0  0  0  0  0  0  0  0  0  0
  190.9320  176.7140  146.3830 N   0  0  0  0  0  0  0  0  0  0  0  0
  189.3990  176.8870  144.4960 C   0  0  1  0  0  3  0  0  0  0  0  0
  187.6200  176.5150  146.2150 N   0  0  0  0  0  2  0  0  0  0  0  0
  186.0640  178.1120  142.0490 N   0  0  0  0  0  0  0  0  0  0  0  0
  185.5680  178.3060  140.6970 C   0  0  0  0  0  1  0  0  0  0  0  0
  187.5300  178.2400  142.0040 C   0  0  0  0  0  2  0  0  0  0  0  0
  186.5960  176.1260  143.4360 C   0  0  0  0  0  2  0  0  0  0  0  0
  187.8660  175.8670  142.7470 N   0  0  0  0  0  0  0  0  0  0  0  0
  188.2410  176.9000  141.7590 C   0  0  0  0  0  2  0  0  0  0  0  0
  185.5980  176.7910  142.4910 C   0  0  0  0  0  2  0  0  0  0  0  0
  188.8810  172.5670  142.8480 C   0  0  0  0  0  2  0  0  0  0  0  0
  187.9950  172.6670  141.7760 O   0  0  0  0  0  1  0  0  0  0  0  0
  1 16  1  1  0  0  0
  1  5  1  0  0  0  0
  3  8  2  0  0  0  0
  3  7  1  0  0  0  0
  4 14  2  0  0  0  0
  5 11  1  6  0  0  0
  6 13  1  0  0  0  0
  7  6  1  1  0  0  0
  7 10  1  0  0  0  0
  8 12  1  0  0  0  0
  9 21  1  6  0  0  0
  9 15  1  0  0  0  0
 10  9  1  0  0  0  0
 12 24  1  0  0  0  0
 12 10  2  0  0  0  0
 13  2  2  0  0  0  0
 13  4  1  0  0  0  0
 14 11  1  0  0  0  0
 15  4  1  1  0  0  0
 15  1  1  0  0  0  0
 16  5  1  0  0  0  0
 17 23  1  0  0  0  0
 18 17  1  0  0  0  0
 19 17  1  0  0  0  0
 21 20  1  0  0  0  0
 22 19  1  0  0  0  0
 22 21  1  0  0  0  0
 23 20  1  0  0  0  0
 25 24  1  0  0  0  0
M  END
>  <MODEL>
6

>  <REMARK>
 VINA RESULT:      -6.2      2.525      4.727
  Name = 
  2 active torsions:
  status: ('A' for Active; 'I' for Inactive)
    1  A    between atoms: C_1  and  C_15
    2  A    between atoms: C_11  and  N_21
                            x       y       z     vdW  Elec       q    Type
                         _______ _______ _______ _____ _____    ______ ____

>  <TORSDO>
F 2

$$$$
=
 OpenBabel11062420173D

 25 29  0  0  1  0  0  0  0  0999 V2000
  193.2660  174.6140  144.6800 C   0  0  1  0  0  3  0  0  0  0  0  0
  191.2330  176.7090  148.5180 O   0  0  0  0  0  0  0  0  0  0  0  0
  188.1270  177.3630  145.8200 N   0  0  0  0  0  0  0  0  0  0  0  0
  192.1050  176.1070  146.3930 C   0  0  0  0  0  0  0  0  0  0  0  0
  194.4800  175.4290  144.9360 C   0  0  2  0  0  3  0  0  0  0  0  0
  189.6390  175.7650  147.0210 C   0  0  0  0  0  2  0  0  0  0  0  0
  189.1820  176.5280  145.8210 C   0  0  2  0  0  3  0  0  0  0  0  0
  188.0340  177.9160  144.6180 N   0  0  0  0  0  0  0  0  0  0  0  0
  190.9600  175.7270  144.0800 C   0  0  1  0  0  3  0  0  0  0  0  0
  189.8060  176.5620  144.5860 C   0  0  0  0  0  0  0  0  0  0  0  0
  194.2470  176.8110  145.5510 C   0  0  0  0  0  2  0  0  0  0  0  0
  189.0440  177.4500  143.8570 C   0  0  0  0  0  0  0  0  0  0  0  0
  191.0200  176.2060  147.3830 C   0  0  0  0  0  0  0  0  0  0  0  0
  193.1950  176.7880  146.5580 N   0  0  0  0  0  0  0  0  0  0  0  0
  191.9340  175.2160  145.1850 C   0  0  1  0  0  3  0  0  0  0  0  0
  193.8600  175.4230  143.6030 N   0  0  0  0  0  2  0  0  0  0  0  0
  191.3410  172.0120  142.2450 N   0  0  0  0  0  0  0  0  0  0  0  0
  190.4060  170.9440  141.9360 C   0  0  0  0  0  1  0  0  0  0  0  0
  191.2060  172.3170  143.6790 C   0  0  0  0  0  2  0  0  0  0  0  0
  191.2860  174.4830  142.0400 C   0  0  0  0  0  2  0  0  0  0  0  0
  190.4290  174.6570  143.2180 N   0  0  0  0  0  0  0  0  0  0  0  0
  190.1650  173.4090  143.9650 C   0  0  0  0  0  2  0  0  0  0  0  0
  191.0070  173.1410  141.3670 C   0  0  0  0  0  2  0  0  0  0  0  0
  189.2260  177.7940  142.4190 C   0  0  0  0  0  2  0  0  0  0  0  0
  188.3560  177.0310  141.6410 O   0  0  0  0  0  1  0  0  0  0  0  0
  1 16  1  6  0  0  0
  1  5  1  0  0  0  0
  1 15  1  0  0  0  0
  3  7  1  0  0  0  0
  4 14  2  0  0  0  0
  4 13  1  0  0  0  0
  5 11  1  1  0  0  0
  6 13  1  0  0  0  0
  7  6  1  1  0  0  0
  8  3  2  0  0  0  0
  9 21  1  1  0  0  0
  9 10  1  0  0  0  0
  9 15  1  0  0  0  0
 10  7  1  0  0  0  0
 11 14  1  0  0  0  0
 12 10  2  0  0  0  0
 12  8  1  0  0  0  0
 13  2  2  0  0  0  0
 15  4  1  1  0  0  0
 16  5  1  0  0  0  0
 17 19  1  0  0  0  0
 18 17  1  0  0  0  0
 19 22  1  0  0  0  0
 20 21  1  0  0  0  0
 21 22  1  0  0  0  0
 23 20  1  0  0  0  0
 23 17  1  0  0  0  0
 24 12  1  0  0  0  0
 25 24  1  0  0  0  0
M  END
>  <MODEL>
7

>  <REMARK>
 VINA RESULT:      -6.2      1.964      2.294
  Name = 
  2 active torsions:
  status: ('A' for Active; 'I' for Inactive)
    1  A    between atoms: C_1  and  C_15
    2  A    between atoms: C_11  and  N_21
                            x       y       z     vdW  Elec       q    Type
                         _______ _______ _______ _____ _____    ______ ____

>  <TORSDO>
F 2

$$$$
=
 OpenBabel11062420173D

 25 29  0  0  1  0  0  0  0  0999 V2000
  190.2040  176.1790  147.1500 C   0  0  1  0  0  3  0  0  0  0  0  0
  192.8000  177.2220  143.2230 O   0  0  0  0  0  0  0  0  0  0  0  0
  189.0450  178.1280  141.6610 N   0  0  0  0  0  0  0  0  0  0  0  0
  191.2400  176.4390  144.8320 C   0  0  0  0  0  0  0  0  0  0  0  0
  190.9080  174.8740  147.2130 C   0  0  2  0  0  3  0  0  0  0  0  0
  190.8120  178.5220  143.3950 C   0  0  0  0  0  2  0  0  0  0  0  0
  189.5060  177.9780  142.9160 C   0  0  2  0  0  3  0  0  0  0  0  0
  187.8940  177.4780  141.5590 N   0  0  0  0  0  0  0  0  0  0  0  0
  188.6750  176.8220  145.1090 C   0  0  1  0  0  3  0  0  0  0  0  0
  188.6360  177.1830  143.6420 C   0  0  0  0  0  0  0  0  0  0  0  0
  191.3290  174.2690  145.8720 C   0  0  0  0  0  2  0  0  0  0  0  0
  187.6290  176.8930  142.7440 C   0  0  0  0  0  0  0  0  0  0  0  0
  191.6940  177.3880  143.8030 C   0  0  0  0  0  0  0  0  0  0  0  0
  191.8150  175.2830  144.9460 N   0  0  0  0  0  0  0  0  0  0  0  0
  190.0980  176.8180  145.7460 C   0  0  1  0  0  3  0  0  0  0  0  0
  189.4390  174.9230  147.2400 N   0  0  0  0  0  2  0  0  0  0  0  0
  184.7710  178.0640  145.8350 N   0  0  0  0  0  0  0  0  0  0  0  0
  184.0550  178.4810  147.0280 C   0  0  0  0  0  1  0  0  0  0  0  0
  185.3850  176.7580  146.1210 C   0  0  0  0  0  2  0  0  0  0  0  0
  187.0120  178.5560  144.8930 C   0  0  0  0  0  2  0  0  0  0  0  0
  187.7060  177.6650  145.8300 N   0  0  0  0  0  0  0  0  0  0  0  0
  186.8050  176.8760  146.6960 C   0  0  0  0  0  2  0  0  0  0  0  0
  185.7440  179.1210  145.5280 C   0  0  0  0  0  2  0  0  0  0  0  0
  186.3830  176.1310  143.0330 C   0  0  0  0  0  2  0  0  0  0  0  0
  185.2750  176.8740  142.6270 O   0  0  0  0  0  1  0  0  0  0  0  0
  1  5  1  0  0  0  0
  1 16  1  6  0  0  0
  2 13  2  0  0  0  0
  3  7  1  0  0  0  0
  4 14  2  0  0  0  0
  5 11  1  6  0  0  0
  5 16  1  0  0  0  0
  6 13  1  0  0  0  0
  7  6  1  6  0  0  0
  7 10  1  0  0  0  0
  8  3  2  0  0  0  0
  8 12  1  0  0  0  0
  9 15  1  0  0  0  0
  9 21  1  1  0  0  0
 10  9  1  0  0  0  0
 12 24  1  0  0  0  0
 12 10  2  0  0  0  0
 13  4  1  0  0  0  0
 14 11  1  0  0  0  0
 15  4  1  6  0  0  0
 15  1  1  0  0  0  0
 17 19  1  0  0  0  0
 17 18  1  0  0  0  0
 19 22  1  0  0  0  0
 20 23  1  0  0  0  0
 20 21  1  0  0  0  0
 21 22  1  0  0  0  0
 23 17  1  0  0  0  0
 25 24  1  0  0  0  0
M  END
>  <MODEL>
8

>  <REMARK>
 VINA RESULT:      -6.0      2.550      4.848
  Name = 
  2 active torsions:
  status: ('A' for Active; 'I' for Inactive)
    1  A    between atoms: C_1  and  C_15
    2  A    between atoms: C_11  and  N_21
                            x       y       z     vdW  Elec       q    Type
                         _______ _______ _______ _____ _____    ______ ____

>  <TORSDO>
F 2

$$$$
=
 OpenBabel11062420173D

 25 29  0  0  1  0  0  0  0  0999 V2000
  189.8130  177.4580  145.8050 C   0  0  1  0  0  3  0  0  0  0  0  0
  194.4810  176.3740  145.2660 O   0  0  0  0  0  0  0  0  0  0  0  0
  192.9260  173.3140  142.9040 N   0  0  0  0  0  0  0  0  0  0  0  0
  192.1370  176.4150  145.6410 C   0  0  0  0  0  0  0  0  0  0  0  0
  190.0380  177.4940  147.2710 C   0  0  2  0  0  3  0  0  0  0  0  0
  193.1620  175.7640  143.3790 C   0  0  0  0  0  2  0  0  0  0  0  0
  192.4140  174.4710  143.3630 C   0  0  2  0  0  3  0  0  0  0  0  0
  192.0250  172.3580  143.0870 N   0  0  0  0  0  0  0  0  0  0  0  0
  190.1510  175.2520  144.4140 C   0  0  1  0  0  3  0  0  0  0  0  0
  191.1500  174.2500  143.8820 C   0  0  0  0  0  0  0  0  0  0  0  0
  191.1080  176.5440  147.8130 C   0  0  0  0  0  2  0  0  0  0  0  0
  190.9450  172.9000  143.6830 C   0  0  0  0  0  0  0  0  0  0  0  0
  193.3240  176.2170  144.7930 C   0  0  0  0  0  0  0  0  0  0  0  0
  192.2630  176.4620  146.9300 N   0  0  0  0  0  0  0  0  0  0  0  0
  190.7760  176.5540  145.0000 C   0  0  1  0  0  3  0  0  0  0  0  0
  188.9540  176.6760  146.7090 N   0  0  0  0  0  2  0  0  0  0  0  0
  187.3850  177.7430  142.5570 N   0  0  0  0  0  0  0  0  0  0  0  0
  186.9530  177.9160  141.1800 C   0  0  0  0  0  1  0  0  0  0  0  0
  188.8520  177.8580  142.5770 C   0  0  0  0  0  2  0  0  0  0  0  0
  187.8340  175.7800  144.0040 C   0  0  0  0  0  2  0  0  0  0  0  0
  189.1310  175.4970  143.3800 N   0  0  0  0  0  0  0  0  0  0  0  0
  189.5610  176.5080  142.3910 C   0  0  0  0  0  2  0  0  0  0  0  0
  186.8870  176.4350  143.0010 C   0  0  0  0  0  2  0  0  0  0  0  0
  189.6980  172.1440  143.9850 C   0  0  0  0  0  2  0  0  0  0  0  0
  188.9410  172.0050  142.8220 O   0  0  0  0  0  1  0  0  0  0  0  0
  1 16  1  1  0  0  0
  1  5  1  0  0  0  0
  3  8  2  0  0  0  0
  3  7  1  0  0  0  0
  4 14  2  0  0  0  0
  5 11  1  6  0  0  0
  6 13  1  0  0  0  0
  7  6  1  1  0  0  0
  7 10  1  0  0  0  0
  8 12  1  0  0  0  0
  9 21  1  6  0  0  0
  9 15  1  0  0  0  0
 10  9  1  0  0  0  0
 12 10  2  0  0  0  0
 12 24  1  0  0  0  0
 13  2  2  0  0  0  0
 13  4  1  0  0  0  0
 14 11  1  0  0  0  0
 15  4  1  1  0  0  0
 15  1  1  0  0  0  0
 16  5  1  0  0  0  0
 17 19  1  0  0  0  0
 17 23  1  0  0  0  0
 18 17  1  0  0  0  0
 21 20  1  0  0  0  0
 22 19  1  0  0  0  0
 22 21  1  0  0  0  0
 23 20  1  0  0  0  0
 25 24  1  0  0  0  0
M  END
>  <MODEL>
9

>  <REMARK>
 VINA RESULT:      -5.9      2.681      4.656
  Name = 
  2 active torsions:
  status: ('A' for Active; 'I' for Inactive)
    1  A    between atoms: C_1  and  C_15
    2  A    between atoms: C_11  and  N_21
                            x       y       z     vdW  Elec       q    Type
                         _______ _______ _______ _____ _____    ______ ____

>  <TORSDO>
F 2

$$$$
