=
 OpenBabel11072408373D

 47 51  0  0  1  0  0  0  0  0999 V2000
  192.0110  171.2280  141.9720 C   0  0  2  0  0  3  0  0  0  0  0  0
  191.2670  171.3280  140.7830 O   0  0  0  0  0  0  0  0  0  0  0  0
  188.2060  175.9950  142.9850 C   0  0  2  0  0  3  0  0  0  0  0  0
  190.2860  173.4610  141.3070 C   0  0  1  0  0  3  0  0  0  0  0  0
  192.3910  172.6240  142.5340 C   0  0  2  0  0  3  0  0  0  0  0  0
  189.4550  175.5240  142.2770 C   0  0  1  0  0  3  0  0  0  0  0  0
  187.1400  175.0780  142.5560 N   0  0  0  0  0  2  0  0  0  0  0  0
  191.8220  175.0510  142.6590 C   0  0  0  0  0  3  0  0  0  0  0  0
  191.7500  173.8120  141.7650 C   0  0  2  0  0  0  0  0  0  0  0  0
  192.5540  174.1070  140.5060 C   0  0  0  0  0  1  0  0  0  0  0  0
  187.8030  173.9410  141.9070 C   0  0  0  0  0  2  0  0  0  0  0  0
  190.7630  175.8330  142.9300 C   0  0  0  0  0  3  0  0  0  0  0  0
  190.0650  171.9520  141.1410 C   0  0  0  0  0  2  0  0  0  0  0  0
  189.2620  174.0520  142.2670 C   0  0  1  0  0  3  0  0  0  0  0  0
  185.9480  177.0860  141.1720 O   0  0  0  0  0  0  0  0  0  0  0  0
  181.4290  179.0860  142.5560 O   0  0  0  0  0  0  0  0  0  0  0  0
  184.2250  178.5130  143.1190 C   0  0  0  0  0  0  0  0  0  0  0  0
  185.6130  178.1640  143.2420 N   0  0  0  0  0  0  0  0  0  0  0  0
  187.8420  177.4420  142.6320 C   0  0  2  0  0  3  0  0  0  0  0  0
  187.9000  178.3350  143.8790 C   0  0  0  0  0  2  0  0  0  0  0  0
  182.1230  178.4930  141.6890 C   0  0  0  0  0  0  0  0  0  0  0  0
  181.5030  178.0970  140.3970 C   0  0  0  0  0  1  0  0  0  0  0  0
  183.5040  178.2020  141.9200 N   0  0  0  0  0  2  0  0  0  0  0  0
  183.6490  179.1080  144.0710 O   0  0  0  0  0  0  0  0  0  0  0  0
  186.4090  177.5260  142.2570 C   0  0  0  0  0  0  0  0  0  0  0  0
  186.4590  178.5700  144.3510 C   0  0  2  0  0  3  0  0  0  0  0  0
  186.1790  177.7250  145.5540 C   0  0  0  0  0  0  0  0  0  0  0  0
  185.3780  178.1440  146.4330 O   0  0  0  0  0  0  0  0  0  0  0  0
  186.8140  176.4890  145.6970 O   0  0  0  0  0  0  0  0  0  0  0  0
  187.6620  176.1860  146.7950 C   0  0  0  0  0  2  0  0  0  0  0  0
  189.7270  177.5590  147.0680 C   0  0  0  0  0  1  0  0  0  0  0  0
  189.1230  176.3390  146.4000 C   0  0  1  0  0  3  0  0  0  0  0  0
  190.5090  175.0510  147.8670 O   0  0  0  0  0  1  0  0  0  0  0  0
  189.8980  175.1170  146.7660 C   0  0  0  0  0  0  0  0  0  0  0  0
  189.9680  174.0550  145.8790 O   0  0  0  0  0  0  0  0  0  0  0  0
  193.8830  172.8010  142.8290 C   0  0  0  0  0  2  0  0  0  0  0  0
  194.1290  172.6740  144.3180 C   0  0  0  0  0  2  0  0  0  0  0  0
  195.6160  174.6360  144.1360 C   0  0  0  0  0  2  0  0  0  0  0  0
  195.4820  174.4060  145.6280 C   0  0  2  0  0  3  0  0  0  0  0  0
  195.5060  173.2200  144.6600 C   0  0  1  0  0  3  0  0  0  0  0  0
  194.1830  174.7240  146.0430 O   0  0  0  0  0  0  0  0  0  0  0  0
  193.1500  176.8410  145.7060 C   0  0  0  0  0  1  0  0  0  0  0  0
  194.2440  176.0680  146.4120 C   0  0  0  0  0  2  0  0  0  0  0  0
  193.1480  170.4020  141.7670 O   0  0  0  0  0  0  0  0  0  0  0  0
  193.8500  169.6840  139.3980 C   0  0  0  0  0  0  0  0  0  0  0  0
  194.2520  169.2740  138.0530 C   0  0  0  0  0  1  0  0  0  0  0  0
  193.5190  170.0200  140.5080 C   0  0  0  0  0  0  0  0  0  0  0  0
  1 44  1  6  0  0  0
  1  5  1  0  0  0  0
  2 13  1  0  0  0  0
  2  1  1  0  0  0  0
  3  7  1  6  0  0  0
  4 13  1  1  0  0  0
  4  9  1  0  0  0  0
  4 14  1  0  0  0  0
  5 36  1  6  0  0  0
  6 12  1  1  0  0  0
  6  3  1  0  0  0  0
  8 12  2  0  0  0  0
  9 10  1  6  0  0  0
  9  5  1  0  0  0  0
  9  8  1  0  0  0  0
 11  7  1  0  0  0  0
 14 11  1  6  0  0  0
 14  6  1  0  0  0  0
 15 25  2  0  0  0  0
 17 18  1  0  0  0  0
 17 24  2  0  0  0  0
 18 26  1  0  0  0  0
 19  3  1  0  0  0  0
 19 20  1  1  0  0  0
 20 26  1  0  0  0  0
 21 23  1  0  0  0  0
 21 16  2  0  0  0  0
 22 21  1  0  0  0  0
 23 17  1  0  0  0  0
 25 19  1  0  0  0  0
 25 18  1  0  0  0  0
 26 27  1  1  0  0  0
 27 29  1  0  0  0  0
 27 28  2  0  0  0  0
 29 30  1  0  0  0  0
 32 34  1  0  0  0  0
 32 30  1  0  0  0  0
 32 31  1  1  0  0  0
 34 33  1  0  0  0  0
 35 34  2  0  0  0  0
 36 37  1  0  0  0  0
 38 40  1  0  0  0  0
 38 39  1  0  0  0  0
 39 41  1  6  0  0  0
 40 37  1  6  0  0  0
 40 39  1  0  0  0  0
 41 43  1  0  0  0  0
 42 43  1  0  0  0  0
 45 47  3  0  0  0  0
 46 45  1  0  0  0  0
 47 44  1  0  0  0  0
M  END
>  <MODEL>
1

>  <REMARK>
 VINA RESULT:      -6.8      0.000      0.000
  Name = 
  13 active torsions:
  status: ('A' for Active; 'I' for Inactive)
    1  A    between atoms: O_2  and  C_30
    2  A    between atoms: O_2  and  C_42
    3  A    between atoms: C_4  and  O_39
    4  A    between atoms: O_9  and  C_12
    5  A    between atoms: O_9  and  C_25
    6  A    between atoms: C_10  and  C_13
    7  A    between atoms: C_12  and  C_19
    8  A    between atoms: C_14  and  C_24
    9  A    between atoms: C_14  and  C_45
   10  A    between atoms: C_18  and  C_19
   11  A    between atoms: C_20  and  C_24
   12  A    between atoms: C_25  and  C_46
   13  A    between atoms: C_31  and  O_39
                            x       y       z     vdW  Elec       q    Type
                         _______ _______ _______ _____ _____    ______ ____

>  <TORSDO>
F 13

$$$$
=
 OpenBabel11072408373D

 47 51  0  0  1  0  0  0  0  0999 V2000
  192.4910  173.9470  143.8800 C   0  0  2  0  0  3  0  0  0  0  0  0
  192.2180  173.8050  142.5070 O   0  0  0  0  0  0  0  0  0  0  0  0
  187.3210  177.2330  143.0360 C   0  0  2  0  0  3  0  0  0  0  0  0
  190.5190  175.5070  142.4360 C   0  0  1  0  0  3  0  0  0  0  0  0
  192.2090  175.3900  144.3770 C   0  0  2  0  0  3  0  0  0  0  0  0
  188.8190  177.1910  142.8400 C   0  0  1  0  0  3  0  0  0  0  0  0
  186.8040  176.0220  142.3820 N   0  0  0  0  0  2  0  0  0  0  0  0
  190.9270  177.5040  144.0370 C   0  0  0  0  0  3  0  0  0  0  0  0
  191.5510  176.3100  143.3130 C   0  0  2  0  0  0  0  0  0  0  0  0
  192.6150  176.8510  142.3670 C   0  0  0  0  0  1  0  0  0  0  0  0
  187.9630  175.1610  142.1200 C   0  0  0  0  0  2  0  0  0  0  0  0
  189.6570  177.9030  143.8530 C   0  0  0  0  0  3  0  0  0  0  0  0
  190.8380  174.0080  142.3740 C   0  0  0  0  0  2  0  0  0  0  0  0
  189.0970  175.7340  142.9290 C   0  0  1  0  0  3  0  0  0  0  0  0
  185.2750  177.4930  140.7290 O   0  0  0  0  0  0  0  0  0  0  0  0
  180.2160  178.3000  141.0260 O   0  0  0  0  0  0  0  0  0  0  0  0
  182.8930  178.5680  142.1330 C   0  0  0  0  0  0  0  0  0  0  0  0
  184.2700  178.6240  142.5380 N   0  0  0  0  0  0  0  0  0  0  0  0
  186.6850  178.4850  142.4240 C   0  0  2  0  0  3  0  0  0  0  0  0
  186.2640  179.4720  143.5240 C   0  0  0  0  0  2  0  0  0  0  0  0
  181.1960  177.8420  140.3840 C   0  0  0  0  0  0  0  0  0  0  0  0
  180.9690  177.1740  139.0750 C   0  0  0  0  0  1  0  0  0  0  0  0
  182.5310  177.9620  140.8850 N   0  0  0  0  0  2  0  0  0  0  0  0
  182.0070  179.0670  142.8790 O   0  0  0  0  0  0  0  0  0  0  0  0
  185.3830  178.1400  141.8030 C   0  0  0  0  0  0  0  0  0  0  0  0
  184.7450  179.3460  143.7060 C   0  0  2  0  0  3  0  0  0  0  0  0
  184.4500  178.5710  144.9510 C   0  0  0  0  0  0  0  0  0  0  0  0
  183.5200  178.9510  145.7120 O   0  0  0  0  0  0  0  0  0  0  0  0
  185.2130  177.4430  145.2640 O   0  0  0  0  0  0  0  0  0  0  0  0
  185.1070  176.7690  146.5090 C   0  0  0  0  0  2  0  0  0  0  0  0
  187.5440  176.2420  146.4020 C   0  0  0  0  0  1  0  0  0  0  0  0
  186.4310  176.8170  147.2570 C   0  0  1  0  0  3  0  0  0  0  0  0
  187.9590  178.6040  147.7090 O   0  0  0  0  0  0  0  0  0  0  0  0
  186.7610  178.2180  147.6540 C   0  0  0  0  0  0  0  0  0  0  0  0
  185.7420  179.0950  147.9910 O   0  0  0  0  0  1  0  0  0  0  0  0
  193.3750  176.0370  145.1290 C   0  0  0  0  0  2  0  0  0  0  0  0
  193.0200  176.1840  146.5950 C   0  0  0  0  0  2  0  0  0  0  0  0
  191.2340  175.2650  148.0310 C   0  0  0  0  0  2  0  0  0  0  0  0
  190.9800  176.7590  148.0280 C   0  0  2  0  0  3  0  0  0  0  0  0
  191.5150  176.0610  146.7740 C   0  0  1  0  0  3  0  0  0  0  0  0
  191.9910  177.4140  148.7410 O   0  0  0  0  0  0  0  0  0  0  0  0
  191.6280  177.9140  151.0390 C   0  0  0  0  0  1  0  0  0  0  0  0
  191.3170  178.2800  149.6030 C   0  0  0  0  0  2  0  0  0  0  0  0
  193.8210  173.5310  144.1560 O   0  0  0  0  0  0  0  0  0  0  0  0
  195.6780  173.7870  142.3940 C   0  0  0  0  0  0  0  0  0  0  0  0
  196.7370  173.9310  141.3960 C   0  0  0  0  0  1  0  0  0  0  0  0
  194.8060  173.6660  143.2190 C   0  0  0  0  0  0  0  0  0  0  0  0
  1 44  1  6  0  0  0
  1  5  1  0  0  0  0
  2  1  1  0  0  0  0
  3  7  1  6  0  0  0
  4 13  1  1  0  0  0
  4 14  1  0  0  0  0
  4  9  1  0  0  0  0
  5 36  1  6  0  0  0
  6 14  1  0  0  0  0
  6  3  1  0  0  0  0
  6 12  1  1  0  0  0
  9 10  1  6  0  0  0
  9  8  1  0  0  0  0
  9  5  1  0  0  0  0
 11  7  1  0  0  0  0
 12  8  2  0  0  0  0
 13  2  1  0  0  0  0
 14 11  1  6  0  0  0
 15 25  2  0  0  0  0
 17 18  1  0  0  0  0
 17 24  2  0  0  0  0
 18 26  1  0  0  0  0
 19  3  1  0  0  0  0
 19 20  1  1  0  0  0
 20 26  1  0  0  0  0
 21 23  1  0  0  0  0
 21 16  2  0  0  0  0
 22 21  1  0  0  0  0
 23 17  1  0  0  0  0
 25 19  1  0  0  0  0
 25 18  1  0  0  0  0
 26 27  1  1  0  0  0
 27 29  1  0  0  0  0
 27 28  2  0  0  0  0
 29 30  1  0  0  0  0
 30 32  1  0  0  0  0
 32 31  1  6  0  0  0
 32 34  1  0  0  0  0
 34 33  2  0  0  0  0
 34 35  1  0  0  0  0
 36 37  1  0  0  0  0
 39 38  1  0  0  0  0
 39 41  1  1  0  0  0
 40 37  1  1  0  0  0
 40 39  1  0  0  0  0
 40 38  1  0  0  0  0
 41 43  1  0  0  0  0
 43 42  1  0  0  0  0
 45 47  3  0  0  0  0
 46 45  1  0  0  0  0
 47 44  1  0  0  0  0
M  END
>  <MODEL>
2

>  <REMARK>
 VINA RESULT:      -6.7      2.227      3.445
  Name = 
  13 active torsions:
  status: ('A' for Active; 'I' for Inactive)
    1  A    between atoms: O_2  and  C_30
    2  A    between atoms: O_2  and  C_42
    3  A    between atoms: C_4  and  O_39
    4  A    between atoms: O_9  and  C_12
    5  A    between atoms: O_9  and  C_25
    6  A    between atoms: C_10  and  C_13
    7  A    between atoms: C_12  and  C_19
    8  A    between atoms: C_14  and  C_24
    9  A    between atoms: C_14  and  C_45
   10  A    between atoms: C_18  and  C_19
   11  A    between atoms: C_20  and  C_24
   12  A    between atoms: C_25  and  C_46
   13  A    between atoms: C_31  and  O_39
                            x       y       z     vdW  Elec       q    Type
                         _______ _______ _______ _____ _____    ______ ____

>  <TORSDO>
F 13

$$$$
=
 OpenBabel11072408373D

 47 51  0  0  1  0  0  0  0  0999 V2000
  188.0320  176.3020  146.0360 C   0  0  2  0  0  3  0  0  0  0  0  0
  189.0990  175.7520  146.7690 O   0  0  0  0  0  0  0  0  0  0  0  0
  190.5020  172.1370  142.1900 C   0  0  2  0  0  3  0  0  0  0  0  0
  190.0800  174.5890  144.9070 C   0  0  1  0  0  3  0  0  0  0  0  0
  188.4060  176.5130  144.5440 C   0  0  2  0  0  3  0  0  0  0  0  0
  190.6540  173.5060  142.8120 C   0  0  1  0  0  3  0  0  0  0  0  0
  190.3810  171.2030  143.3200 N   0  0  0  0  0  2  0  0  0  0  0  0
  189.8420  175.8040  142.6300 C   0  0  0  0  0  3  0  0  0  0  0  0
  189.7960  175.9410  144.1530 C   0  0  2  0  0  0  0  0  0  0  0  0
  190.8910  176.9180  144.5600 C   0  0  0  0  0  1  0  0  0  0  0  0
  190.1350  172.0200  144.5130 C   0  0  0  0  0  2  0  0  0  0  0  0
  190.2060  174.6760  141.9970 C   0  0  0  0  0  3  0  0  0  0  0  0
  189.3110  174.4770  146.2290 C   0  0  0  0  0  2  0  0  0  0  0  0
  189.7820  173.3950  144.0090 C   0  0  1  0  0  3  0  0  0  0  0  0
  192.6170  173.9420  140.8310 O   0  0  0  0  0  0  0  0  0  0  0  0
  197.4250  174.9150  142.3390 O   0  0  0  0  0  0  0  0  0  0  0  0
  195.1000  173.1680  142.2580 C   0  0  0  0  0  0  0  0  0  0  0  0
  193.8800  172.4230  142.1200 N   0  0  0  0  0  0  0  0  0  0  0  0
  191.6970  171.7580  141.3090 C   0  0  2  0  0  3  0  0  0  0  0  0
  192.4360  170.5440  141.8910 C   0  0  0  0  0  2  0  0  0  0  0  0
  196.4010  175.2820  141.7050 C   0  0  0  0  0  0  0  0  0  0  0  0
  196.3980  176.5970  141.0120 C   0  0  0  0  0  1  0  0  0  0  0  0
  195.2400  174.4490  141.6300 N   0  0  0  0  0  2  0  0  0  0  0  0
  196.0510  172.6800  142.9270 O   0  0  0  0  0  0  0  0  0  0  0  0
  192.7350  172.8150  141.3800 C   0  0  0  0  0  0  0  0  0  0  0  0
  193.7000  171.0610  142.5920 C   0  0  2  0  0  3  0  0  0  0  0  0
  193.4960  171.0470  144.0730 C   0  0  0  0  0  0  0  0  0  0  0  0
  193.6490  169.9700  144.7100 O   0  0  0  0  0  0  0  0  0  0  0  0
  193.1280  172.2210  144.7350 O   0  0  0  0  0  0  0  0  0  0  0  0
  193.9780  172.8770  145.6630 C   0  0  0  0  0  2  0  0  0  0  0  0
  193.0670  174.9510  146.7100 C   0  0  0  0  0  1  0  0  0  0  0  0
  193.8440  174.3870  145.5360 C   0  0  1  0  0  3  0  0  0  0  0  0
  196.2110  174.4370  145.8930 O   0  0  0  0  0  1  0  0  0  0  0  0
  195.1880  175.0300  145.4540 C   0  0  0  0  0  0  0  0  0  0  0  0
  195.3120  176.3010  144.9160 O   0  0  0  0  0  0  0  0  0  0  0  0
  188.1420  177.9280  144.0220 C   0  0  0  0  0  2  0  0  0  0  0  0
  186.8840  177.9350  143.1780 C   0  0  0  0  0  2  0  0  0  0  0  0
  186.9350  176.9520  140.9130 C   0  0  0  0  0  2  0  0  0  0  0  0
  186.0410  178.1680  140.7730 C   0  0  2  0  0  3  0  0  0  0  0  0
  187.2420  178.1940  141.7230 C   0  0  1  0  0  3  0  0  0  0  0  0
  184.8350  177.9520  141.4510 O   0  0  0  0  0  0  0  0  0  0  0  0
  182.4860  178.2220  141.1850 C   0  0  0  0  0  1  0  0  0  0  0  0
  183.8420  178.2310  140.5110 C   0  0  0  0  0  2  0  0  0  0  0  0
  187.5820  177.4990  146.6540 O   0  0  0  0  0  0  0  0  0  0  0  0
  185.1280  178.2440  146.4550 C   0  0  0  0  0  0  0  0  0  0  0  0
  183.7320  178.6670  146.3470 C   0  0  0  0  0  1  0  0  0  0  0  0
  186.2790  177.8970  146.5470 C   0  0  0  0  0  0  0  0  0  0  0  0
  1 44  1  1  0  0  0
  1  2  1  0  0  0  0
  3  6  1  0  0  0  0
  3  7  1  1  0  0  0
  4 13  1  1  0  0  0
  5 36  1  1  0  0  0
  5  1  1  0  0  0  0
  6 12  1  6  0  0  0
  6 14  1  0  0  0  0
  7 11  1  0  0  0  0
  8  9  1  0  0  0  0
  9  5  1  0  0  0  0
  9 10  1  1  0  0  0
  9  4  1  0  0  0  0
 12  8  2  0  0  0  0
 13  2  1  0  0  0  0
 14 11  1  1  0  0  0
 14  4  1  0  0  0  0
 15 25  2  0  0  0  0
 17 24  2  0  0  0  0
 18 17  1  0  0  0  0
 18 26  1  0  0  0  0
 19 25  1  0  0  0  0
 19 20  1  1  0  0  0
 19  3  1  0  0  0  0
 20 26  1  0  0  0  0
 21 16  2  0  0  0  0
 22 21  1  0  0  0  0
 23 21  1  0  0  0  0
 23 17  1  0  0  0  0
 25 18  1  0  0  0  0
 26 27  1  1  0  0  0
 27 28  2  0  0  0  0
 27 29  1  0  0  0  0
 29 30  1  0  0  0  0
 32 30  1  0  0  0  0
 32 31  1  1  0  0  0
 34 32  1  0  0  0  0
 34 33  1  0  0  0  0
 35 34  2  0  0  0  0
 37 36  1  0  0  0  0
 38 40  1  0  0  0  0
 39 38  1  0  0  0  0
 39 41  1  1  0  0  0
 39 40  1  0  0  0  0
 40 37  1  1  0  0  0
 43 42  1  0  0  0  0
 43 41  1  0  0  0  0
 45 47  3  0  0  0  0
 46 45  1  0  0  0  0
 47 44  1  0  0  0  0
M  END
>  <MODEL>
3

>  <REMARK>
 VINA RESULT:      -6.4      2.755      9.315
  Name = 
  13 active torsions:
  status: ('A' for Active; 'I' for Inactive)
    1  A    between atoms: O_2  and  C_30
    2  A    between atoms: O_2  and  C_42
    3  A    between atoms: C_4  and  O_39
    4  A    between atoms: O_9  and  C_12
    5  A    between atoms: O_9  and  C_25
    6  A    between atoms: C_10  and  C_13
    7  A    between atoms: C_12  and  C_19
    8  A    between atoms: C_14  and  C_24
    9  A    between atoms: C_14  and  C_45
   10  A    between atoms: C_18  and  C_19
   11  A    between atoms: C_20  and  C_24
   12  A    between atoms: C_25  and  C_46
   13  A    between atoms: C_31  and  O_39
                            x       y       z     vdW  Elec       q    Type
                         _______ _______ _______ _____ _____    ______ ____

>  <TORSDO>
F 13

$$$$
=
 OpenBabel11072408373D

 47 51  0  0  1  0  0  0  0  0999 V2000
  188.9540  175.8220  143.2620 C   0  0  2  0  0  3  0  0  0  0  0  0
  189.4130  174.9120  142.2930 O   0  0  0  0  0  0  0  0  0  0  0  0
  195.0930  175.8230  144.0000 C   0  0  2  0  0  3  0  0  0  0  0  0
  191.6620  174.7960  143.1370 C   0  0  1  0  0  3  0  0  0  0  0  0
  189.7350  175.6860  144.5960 C   0  0  2  0  0  3  0  0  0  0  0  0
  193.8070  175.0660  144.2400 C   0  0  1  0  0  3  0  0  0  0  0  0
  195.1440  176.0610  142.5500 N   0  0  0  0  0  2  0  0  0  0  0  0
  191.8580  175.0000  145.7140 C   0  0  0  0  0  3  0  0  0  0  0  0
  190.9360  174.7030  144.5300 C   0  0  2  0  0  0  0  0  0  0  0  0
  190.4410  173.2710  144.6810 C   0  0  0  0  0  1  0  0  0  0  0  0
  193.8070  175.7600  142.0290 C   0  0  0  0  0  2  0  0  0  0  0  0
  193.1810  175.2010  145.5910 C   0  0  0  0  0  3  0  0  0  0  0  0
  190.7350  175.2870  142.0190 C   0  0  0  0  0  2  0  0  0  0  0  0
  192.9030  175.6740  143.2310 C   0  0  1  0  0  3  0  0  0  0  0  0
  195.3290  173.4990  146.0300 O   0  0  0  0  0  0  0  0  0  0  0  0
  195.7680  168.4730  145.0900 O   0  0  0  0  0  0  0  0  0  0  0  0
  196.1630  171.2440  144.2940 C   0  0  0  0  0  0  0  0  0  0  0  0
  196.2940  172.6530  144.0520 N   0  0  0  0  0  0  0  0  0  0  0  0
  196.3280  175.0400  144.4580 C   0  0  2  0  0  3  0  0  0  0  0  0
  197.2260  174.6960  143.2600 C   0  0  0  0  0  2  0  0  0  0  0  0
  195.4120  169.3950  145.8700 C   0  0  0  0  0  0  0  0  0  0  0  0
  194.7970  169.0520  147.1800 C   0  0  0  0  0  1  0  0  0  0  0  0
  195.5980  170.7700  145.5240 N   0  0  0  0  0  2  0  0  0  0  0  0
  196.5620  170.4260  143.4210 O   0  0  0  0  0  0  0  0  0  0  0  0
  195.9260  173.6960  144.9400 C   0  0  0  0  0  0  0  0  0  0  0  0
  196.9860  173.2210  142.9080 C   0  0  2  0  0  3  0  0  0  0  0  0
  196.1310  173.1290  141.6850 C   0  0  0  0  0  0  0  0  0  0  0  0
  196.6090  173.4610  140.5670 O   0  0  0  0  0  0  0  0  0  0  0  0
  194.8090  172.6880  141.7930 O   0  0  0  0  0  0  0  0  0  0  0  0
  194.0790  172.1780  140.6880 C   0  0  0  0  0  2  0  0  0  0  0  0
  192.8520  171.3120  142.6810 C   0  0  0  0  0  1  0  0  0  0  0  0
  192.8770  171.3770  141.1660 C   0  0  1  0  0  3  0  0  0  0  0  0
  191.6220  172.7730  139.6800 O   0  0  0  0  0  0  0  0  0  0  0  0
  191.6090  171.9760  140.6570 C   0  0  0  0  0  0  0  0  0  0  0  0
  190.4070  171.6760  141.2800 O   0  0  0  0  0  1  0  0  0  0  0  0
  188.8470  175.5090  145.8310 C   0  0  0  0  0  2  0  0  0  0  0  0
  188.3780  176.8630  146.3230 C   0  0  0  0  0  2  0  0  0  0  0  0
  186.6600  177.9990  147.6850 C   0  0  0  0  0  2  0  0  0  0  0  0
  185.9830  177.7620  146.3500 C   0  0  2  0  0  3  0  0  0  0  0  0
  186.9790  176.7400  146.9060 C   0  0  1  0  0  3  0  0  0  0  0  0
  186.5570  178.5830  145.3720 O   0  0  0  0  0  0  0  0  0  0  0  0
  184.1990  178.7890  145.1370 C   0  0  0  0  0  1  0  0  0  0  0  0
  185.5440  179.4720  145.0110 C   0  0  0  0  0  2  0  0  0  0  0  0
  187.5520  175.6760  143.4400 O   0  0  0  0  0  0  0  0  0  0  0  0
  185.9000  177.1780  142.1600 C   0  0  0  0  0  0  0  0  0  0  0  0
  184.9630  178.0300  141.4290 C   0  0  0  0  0  1  0  0  0  0  0  0
  186.6730  176.4730  142.7610 C   0  0  0  0  0  0  0  0  0  0  0  0
  1 44  1  1  0  0  0
  1  5  1  0  0  0  0
  2  1  1  0  0  0  0
  3  7  1  6  0  0  0
  3  6  1  0  0  0  0
  3 19  1  0  0  0  0
  4 13  1  6  0  0  0
  4 14  1  0  0  0  0
  4  9  1  0  0  0  0
  5 36  1  1  0  0  0
  6 12  1  1  0  0  0
  9  5  1  0  0  0  0
  9 10  1  1  0  0  0
  9  8  1  0  0  0  0
 11  7  1  0  0  0  0
 12  8  2  0  0  0  0
 13  2  1  0  0  0  0
 14 11  1  6  0  0  0
 14  6  1  0  0  0  0
 16 21  2  0  0  0  0
 17 23  1  0  0  0  0
 18 17  1  0  0  0  0
 18 25  1  0  0  0  0
 19 20  1  6  0  0  0
 19 25  1  0  0  0  0
 21 22  1  0  0  0  0
 23 21  1  0  0  0  0
 24 17  2  0  0  0  0
 25 15  2  0  0  0  0
 26 27  1  6  0  0  0
 26 20  1  0  0  0  0
 26 18  1  0  0  0  0
 27 29  1  0  0  0  0
 28 27  2  0  0  0  0
 30 32  1  0  0  0  0
 30 29  1  0  0  0  0
 32 31  1  1  0  0  0
 33 34  2  0  0  0  0
 34 32  1  0  0  0  0
 34 35  1  0  0  0  0
 36 37  1  0  0  0  0
 39 41  1  6  0  0  0
 39 40  1  0  0  0  0
 39 38  1  0  0  0  0
 40 37  1  6  0  0  0
 40 38  1  0  0  0  0
 43 42  1  0  0  0  0
 43 41  1  0  0  0  0
 45 47  3  0  0  0  0
 46 45  1  0  0  0  0
 47 44  1  0  0  0  0
M  END
>  <MODEL>
4

>  <REMARK>
 VINA RESULT:      -6.2      3.370      9.774
  Name = 
  13 active torsions:
  status: ('A' for Active; 'I' for Inactive)
    1  A    between atoms: O_2  and  C_30
    2  A    between atoms: O_2  and  C_42
    3  A    between atoms: C_4  and  O_39
    4  A    between atoms: O_9  and  C_12
    5  A    between atoms: O_9  and  C_25
    6  A    between atoms: C_10  and  C_13
    7  A    between atoms: C_12  and  C_19
    8  A    between atoms: C_14  and  C_24
    9  A    between atoms: C_14  and  C_45
   10  A    between atoms: C_18  and  C_19
   11  A    between atoms: C_20  and  C_24
   12  A    between atoms: C_25  and  C_46
   13  A    between atoms: C_31  and  O_39
                            x       y       z     vdW  Elec       q    Type
                         _______ _______ _______ _____ _____    ______ ____

>  <TORSDO>
F 13

$$$$
=
 OpenBabel11072408373D

 47 51  0  0  1  0  0  0  0  0999 V2000
  188.5350  176.3220  145.2970 C   0  0  2  0  0  3  0  0  0  0  0  0
  189.8440  175.9790  145.6800 O   0  0  0  0  0  0  0  0  0  0  0  0
  189.9680  171.5600  141.6220 C   0  0  2  0  0  3  0  0  0  0  0  0
  190.2420  174.4980  143.8270 C   0  0  1  0  0  3  0  0  0  0  0  0
  188.3440  176.2380  143.7590 C   0  0  2  0  0  3  0  0  0  0  0  0
  190.1730  173.0330  141.8940 C   0  0  1  0  0  3  0  0  0  0  0  0
  190.3500  170.8740  142.8650 N   0  0  0  0  0  2  0  0  0  0  0  0
  189.0970  175.2100  141.6130 C   0  0  0  0  0  3  0  0  0  0  0  0
  189.5660  175.6540  143.0000 C   0  0  2  0  0  0  0  0  0  0  0  0
  190.6180  176.7370  142.8040 C   0  0  0  0  0  1  0  0  0  0  0  0
  190.4430  171.9080  143.9020 C   0  0  0  0  0  2  0  0  0  0  0  0
  189.3420  173.9910  141.1030 C   0  0  0  0  0  3  0  0  0  0  0  0
  189.9960  174.6290  145.3350 C   0  0  0  0  0  2  0  0  0  0  0  0
  189.7870  173.1350  143.3240 C   0  0  1  0  0  3  0  0  0  0  0  0
  190.6720  172.9430  138.9440 O   0  0  0  0  0  0  0  0  0  0  0  0
  195.0250  175.3200  137.6280 O   0  0  0  0  0  0  0  0  0  0  0  0
  193.6020  173.3260  139.1970 C   0  0  0  0  0  0  0  0  0  0  0  0
  192.7610  172.3890  139.8880 N   0  0  0  0  0  0  0  0  0  0  0  0
  190.8180  171.0570  140.4500 C   0  0  2  0  0  3  0  0  0  0  0  0
  192.0940  170.3720  140.9620 C   0  0  0  0  0  2  0  0  0  0  0  0
  193.7840  175.1840  137.4710 C   0  0  0  0  0  0  0  0  0  0  0  0
  193.0690  176.0430  136.4910 C   0  0  0  0  0  1  0  0  0  0  0  0
  193.0470  174.2090  138.2140 N   0  0  0  0  0  2  0  0  0  0  0  0
  194.8370  173.3560  139.4540 O   0  0  0  0  0  0  0  0  0  0  0  0
  191.3680  172.2080  139.6930 C   0  0  0  0  0  0  0  0  0  0  0  0
  193.2560  171.3590  140.7860 C   0  0  2  0  0  3  0  0  0  0  0  0
  193.6160  171.9540  142.1100 C   0  0  0  0  0  0  0  0  0  0  0  0
  194.1750  171.2350  142.9820 O   0  0  0  0  0  0  0  0  0  0  0  0
  193.3200  173.2940  142.3730 O   0  0  0  0  0  0  0  0  0  0  0  0
  194.2490  174.1790  142.9810 C   0  0  0  0  0  2  0  0  0  0  0  0
  193.6870  173.7950  145.3810 C   0  0  0  0  0  1  0  0  0  0  0  0
  193.6570  174.7940  144.2400 C   0  0  1  0  0  3  0  0  0  0  0  0
  195.6600  176.0520  144.6100 O   0  0  0  0  0  0  0  0  0  0  0  0
  194.3990  176.0310  144.6210 C   0  0  0  0  0  0  0  0  0  0  0  0
  193.6990  177.1590  145.0170 O   0  0  0  0  0  1  0  0  0  0  0  0
  187.7590  177.5030  143.1260 C   0  0  0  0  0  2  0  0  0  0  0  0
  186.4740  177.1640  142.3980 C   0  0  0  0  0  2  0  0  0  0  0  0
  185.1320  179.0380  143.2840 C   0  0  0  0  0  2  0  0  0  0  0  0
  184.1390  178.2050  142.4980 C   0  0  2  0  0  3  0  0  0  0  0  0
  185.2800  177.5310  143.2650 C   0  0  1  0  0  3  0  0  0  0  0  0
  184.4100  178.3080  141.1290 O   0  0  0  0  0  0  0  0  0  0  0  0
  182.0720  178.2910  141.5690 C   0  0  0  0  0  1  0  0  0  0  0  0
  183.1570  178.2900  140.5140 C   0  0  0  0  0  2  0  0  0  0  0  0
  188.1970  177.6020  145.8140 O   0  0  0  0  0  0  0  0  0  0  0  0
  185.8690  178.0420  146.8170 C   0  0  0  0  0  0  0  0  0  0  0  0
  184.5460  178.2890  147.3900 C   0  0  0  0  0  1  0  0  0  0  0  0
  186.9610  177.8380  146.3480 C   0  0  0  0  0  0  0  0  0  0  0  0
  1  2  1  0  0  0  0
  1 44  1  6  0  0  0
  3  6  1  0  0  0  0
  3  7  1  1  0  0  0
  4 13  1  1  0  0  0
  5 36  1  6  0  0  0
  5  1  1  0  0  0  0
  6 12  1  6  0  0  0
  6 14  1  0  0  0  0
  7 11  1  0  0  0  0
  8  9  1  0  0  0  0
  9 10  1  6  0  0  0
  9  5  1  0  0  0  0
  9  4  1  0  0  0  0
 12  8  2  0  0  0  0
 13  2  1  0  0  0  0
 14  4  1  0  0  0  0
 14 11  1  1  0  0  0
 15 25  2  0  0  0  0
 17 24  2  0  0  0  0
 17 18  1  0  0  0  0
 18 26  1  0  0  0  0
 19 20  1  1  0  0  0
 19  3  1  0  0  0  0
 21 16  2  0  0  0  0
 21 23  1  0  0  0  0
 22 21  1  0  0  0  0
 23 17  1  0  0  0  0
 25 18  1  0  0  0  0
 25 19  1  0  0  0  0
 26 20  1  0  0  0  0
 26 27  1  1  0  0  0
 27 29  1  0  0  0  0
 27 28  2  0  0  0  0
 29 30  1  0  0  0  0
 30 32  1  0  0  0  0
 32 34  1  0  0  0  0
 32 31  1  1  0  0  0
 33 34  2  0  0  0  0
 34 35  1  0  0  0  0
 37 36  1  0  0  0  0
 39 41  1  6  0  0  0
 39 40  1  0  0  0  0
 39 38  1  0  0  0  0
 40 37  1  6  0  0  0
 40 38  1  0  0  0  0
 43 41  1  0  0  0  0
 43 42  1  0  0  0  0
 44 47  1  0  0  0  0
 45 46  1  0  0  0  0
 47 45  3  0  0  0  0
M  END
>  <MODEL>
5

>  <REMARK>
 VINA RESULT:      -6.2      2.739      9.094
  Name = 
  13 active torsions:
  status: ('A' for Active; 'I' for Inactive)
    1  A    between atoms: O_2  and  C_30
    2  A    between atoms: O_2  and  C_42
    3  A    between atoms: C_4  and  O_39
    4  A    between atoms: O_9  and  C_12
    5  A    between atoms: O_9  and  C_25
    6  A    between atoms: C_10  and  C_13
    7  A    between atoms: C_12  and  C_19
    8  A    between atoms: C_14  and  C_24
    9  A    between atoms: C_14  and  C_45
   10  A    between atoms: C_18  and  C_19
   11  A    between atoms: C_20  and  C_24
   12  A    between atoms: C_25  and  C_46
   13  A    between atoms: C_31  and  O_39
                            x       y       z     vdW  Elec       q    Type
                         _______ _______ _______ _____ _____    ______ ____

>  <TORSDO>
F 13

$$$$
=
 OpenBabel11072408373D

 47 51  0  0  1  0  0  0  0  0999 V2000
  188.6450  176.3490  145.7140 C   0  0  2  0  0  3  0  0  0  0  0  0
  190.0070  176.1230  145.9830 O   0  0  0  0  0  0  0  0  0  0  0  0
  190.1270  171.5970  142.0460 C   0  0  2  0  0  3  0  0  0  0  0  0
  190.3570  174.6190  144.1400 C   0  0  1  0  0  3  0  0  0  0  0  0
  188.3240  176.1990  144.2030 C   0  0  2  0  0  3  0  0  0  0  0  0
  190.2330  173.0890  142.2600 C   0  0  1  0  0  3  0  0  0  0  0  0
  190.6740  170.9850  143.2660 N   0  0  0  0  0  2  0  0  0  0  0  0
  188.9620  175.1630  142.0240 C   0  0  0  0  0  3  0  0  0  0  0  0
  189.5170  175.6890  143.3490 C   0  0  2  0  0  0  0  0  0  0  0  0
  190.4540  176.8450  143.0290 C   0  0  0  0  0  1  0  0  0  0  0  0
  190.7760  172.0560  144.2620 C   0  0  0  0  0  2  0  0  0  0  0  0
  189.2590  173.9520  141.5240 C   0  0  0  0  0  3  0  0  0  0  0  0
  190.2380  174.7800  145.6600 C   0  0  0  0  0  2  0  0  0  0  0  0
  189.9720  173.2070  143.7170 C   0  0  1  0  0  3  0  0  0  0  0  0
  189.5700  172.0810  139.0410 O   0  0  0  0  0  0  0  0  0  0  0  0
  191.8130  175.4480  135.8830 O   0  0  0  0  0  0  0  0  0  0  0  0
  191.8900  173.7490  138.2430 C   0  0  0  0  0  0  0  0  0  0  0  0
  191.7730  172.8590  139.3650 N   0  0  0  0  0  0  0  0  0  0  0  0
  190.9060  171.1240  140.8140 C   0  0  2  0  0  3  0  0  0  0  0  0
  192.4170  171.2880  141.0330 C   0  0  0  0  0  2  0  0  0  0  0  0
  190.8090  174.7460  136.1690 C   0  0  0  0  0  0  0  0  0  0  0  0
  189.6040  174.7980  135.2990 C   0  0  0  0  0  1  0  0  0  0  0  0
  190.8080  173.8880  137.3140 N   0  0  0  0  0  2  0  0  0  0  0  0
  192.9600  174.3960  138.0760 O   0  0  0  0  0  0  0  0  0  0  0  0
  190.6570  172.0400  139.6750 C   0  0  0  0  0  0  0  0  0  0  0  0
  192.8650  172.5420  140.2690 C   0  0  2  0  0  3  0  0  0  0  0  0
  193.0850  173.6650  141.2310 C   0  0  0  0  0  0  0  0  0  0  0  0
  192.6920  174.8250  140.9310 O   0  0  0  0  0  0  0  0  0  0  0  0
  193.7340  173.4240  142.4450 O   0  0  0  0  0  0  0  0  0  0  0  0
  194.4750  174.4220  143.1300 C   0  0  0  0  0  2  0  0  0  0  0  0
  194.0100  173.4680  145.3880 C   0  0  0  0  0  1  0  0  0  0  0  0
  193.8720  174.6900  144.5000 C   0  0  1  0  0  3  0  0  0  0  0  0
  195.3240  176.5940  144.4900 O   0  0  0  0  0  0  0  0  0  0  0  0
  194.5280  175.8670  145.1430 C   0  0  0  0  0  0  0  0  0  0  0  0
  194.2800  176.1480  146.4770 O   0  0  0  0  0  1  0  0  0  0  0  0
  187.5830  177.3920  143.5940 C   0  0  0  0  0  2  0  0  0  0  0  0
  186.3180  176.9140  142.9100 C   0  0  0  0  0  2  0  0  0  0  0  0
  185.1960  179.0490  143.4400 C   0  0  0  0  0  2  0  0  0  0  0  0
  184.1820  178.2900  142.6080 C   0  0  2  0  0  3  0  0  0  0  0  0
  185.1040  177.5440  143.5760 C   0  0  1  0  0  3  0  0  0  0  0  0
  184.6240  178.2030  141.2820 O   0  0  0  0  0  0  0  0  0  0  0  0
  182.2510  178.2900  141.4170 C   0  0  0  0  0  1  0  0  0  0  0  0
  183.4640  178.2910  140.5120 C   0  0  0  0  0  2  0  0  0  0  0  0
  188.2520  177.6140  146.2270 O   0  0  0  0  0  0  0  0  0  0  0  0
  185.8220  178.0430  146.9580 C   0  0  0  0  0  0  0  0  0  0  0  0
  184.4430  178.2900  147.3770 C   0  0  0  0  0  1  0  0  0  0  0  0
  186.9610  177.8430  146.6130 C   0  0  0  0  0  0  0  0  0  0  0  0
  1  2  1  0  0  0  0
  1 44  1  6  0  0  0
  3  6  1  0  0  0  0
  3  7  1  1  0  0  0
  4 13  1  1  0  0  0
  5 36  1  6  0  0  0
  5  1  1  0  0  0  0
  6 12  1  6  0  0  0
  6 14  1  0  0  0  0
  7 11  1  0  0  0  0
  8  9  1  0  0  0  0
  9 10  1  6  0  0  0
  9  4  1  0  0  0  0
  9  5  1  0  0  0  0
 12  8  2  0  0  0  0
 13  2  1  0  0  0  0
 14  4  1  0  0  0  0
 14 11  1  1  0  0  0
 15 25  2  0  0  0  0
 16 21  2  0  0  0  0
 17 18  1  0  0  0  0
 18 25  1  0  0  0  0
 18 26  1  0  0  0  0
 19 20  1  1  0  0  0
 19  3  1  0  0  0  0
 21 23  1  0  0  0  0
 22 21  1  0  0  0  0
 23 17  1  0  0  0  0
 24 17  2  0  0  0  0
 25 19  1  0  0  0  0
 26 20  1  0  0  0  0
 26 27  1  1  0  0  0
 27 29  1  0  0  0  0
 28 27  2  0  0  0  0
 29 30  1  0  0  0  0
 30 32  1  0  0  0  0
 32 34  1  0  0  0  0
 32 31  1  1  0  0  0
 33 34  2  0  0  0  0
 34 35  1  0  0  0  0
 37 36  1  0  0  0  0
 38 40  1  0  0  0  0
 39 41  1  6  0  0  0
 39 38  1  0  0  0  0
 39 40  1  0  0  0  0
 40 37  1  6  0  0  0
 43 41  1  0  0  0  0
 43 42  1  0  0  0  0
 44 47  1  0  0  0  0
 45 46  1  0  0  0  0
 47 45  3  0  0  0  0
M  END
>  <MODEL>
6

>  <REMARK>
 VINA RESULT:      -6.1      2.721      8.704
  Name = 
  13 active torsions:
  status: ('A' for Active; 'I' for Inactive)
    1  A    between atoms: O_2  and  C_30
    2  A    between atoms: O_2  and  C_42
    3  A    between atoms: C_4  and  O_39
    4  A    between atoms: O_9  and  C_12
    5  A    between atoms: O_9  and  C_25
    6  A    between atoms: C_10  and  C_13
    7  A    between atoms: C_12  and  C_19
    8  A    between atoms: C_14  and  C_24
    9  A    between atoms: C_14  and  C_45
   10  A    between atoms: C_18  and  C_19
   11  A    between atoms: C_20  and  C_24
   12  A    between atoms: C_25  and  C_46
   13  A    between atoms: C_31  and  O_39
                            x       y       z     vdW  Elec       q    Type
                         _______ _______ _______ _____ _____    ______ ____

>  <TORSDO>
F 13

$$$$
=
 OpenBabel11072408373D

 47 51  0  0  1  0  0  0  0  0999 V2000
  191.5160  169.2420  139.6750 C   0  0  2  0  0  3  0  0  0  0  0  0
  191.0260  170.0160  138.6080 O   0  0  0  0  0  0  0  0  0  0  0  0
  189.1950  174.2740  142.4200 C   0  0  2  0  0  3  0  0  0  0  0  0
  190.6560  172.0000  139.9160 C   0  0  1  0  0  3  0  0  0  0  0  0
  192.2050  170.1200  140.7550 C   0  0  2  0  0  3  0  0  0  0  0  0
  190.3400  173.7100  141.6100 C   0  0  1  0  0  3  0  0  0  0  0  0
  187.9830  173.9920  141.6370 N   0  0  0  0  0  2  0  0  0  0  0  0
  192.3720  172.3690  141.8240 C   0  0  0  0  0  3  0  0  0  0  0  0
  192.0710  171.6480  140.5090 C   0  0  2  0  0  0  0  0  0  0  0  0
  193.1070  172.1000  139.4890 C   0  0  0  0  0  1  0  0  0  0  0  0
  188.3680  173.0240  140.6040 C   0  0  0  0  0  2  0  0  0  0  0  0
  191.5660  173.3000  142.3600 C   0  0  0  0  0  3  0  0  0  0  0  0
  190.0240  170.8260  139.1590 C   0  0  0  0  0  2  0  0  0  0  0  0
  189.7210  172.5010  141.0100 C   0  0  1  0  0  3  0  0  0  0  0  0
  187.0800  176.3450  143.3220 O   0  0  0  0  0  0  0  0  0  0  0  0
  186.3600  178.3430  147.9940 O   0  0  0  0  0  0  0  0  0  0  0  0
  188.0980  177.1460  145.9900 C   0  0  0  0  0  0  0  0  0  0  0  0
  188.8210  176.5560  144.8980 N   0  0  0  0  0  0  0  0  0  0  0  0
  189.3370  175.7800  142.6630 C   0  0  2  0  0  3  0  0  0  0  0  0
  190.6330  176.0860  143.4280 C   0  0  0  0  0  2  0  0  0  0  0  0
  185.8840  178.0360  146.8700 C   0  0  0  0  0  0  0  0  0  0  0  0
  184.4460  178.2890  146.5870 C   0  0  0  0  0  1  0  0  0  0  0  0
  186.7050  177.4560  145.8520 N   0  0  0  0  0  2  0  0  0  0  0  0
  188.7020  177.4020  147.0670 O   0  0  0  0  0  0  0  0  0  0  0  0
  188.2990  176.2380  143.6180 C   0  0  0  0  0  0  0  0  0  0  0  0
  190.2590  176.3470  144.8940 C   0  0  2  0  0  3  0  0  0  0  0  0
  190.6120  175.1540  145.7230 C   0  0  0  0  0  0  0  0  0  0  0  0
  189.8080  174.1850  145.7920 O   0  0  0  0  0  0  0  0  0  0  0  0
  191.8210  175.1270  146.4230 O   0  0  0  0  0  0  0  0  0  0  0  0
  193.0250  174.6330  145.8560 C   0  0  0  0  0  2  0  0  0  0  0  0
  194.0560  176.7940  146.5600 C   0  0  0  0  0  1  0  0  0  0  0  0
  193.9290  175.7820  145.4370 C   0  0  1  0  0  3  0  0  0  0  0  0
  195.7440  175.5040  143.9000 O   0  0  0  0  0  0  0  0  0  0  0  0
  195.2780  175.2750  145.0490 C   0  0  0  0  0  0  0  0  0  0  0  0
  196.0160  174.5230  145.9500 O   0  0  0  0  0  1  0  0  0  0  0  0
  193.6190  169.6670  141.1280 C   0  0  0  0  0  2  0  0  0  0  0  0
  193.5530  168.6720  142.2680 C   0  0  0  0  0  2  0  0  0  0  0  0
  193.0410  168.4250  144.6720 C   0  0  0  0  0  2  0  0  0  0  0  0
  193.7430  169.7650  144.5740 C   0  0  2  0  0  3  0  0  0  0  0  0
  192.8200  169.2900  143.4490 C   0  0  1  0  0  3  0  0  0  0  0  0
  195.0960  169.5720  144.2660 O   0  0  0  0  0  0  0  0  0  0  0  0
  195.5680  171.8130  143.6220 C   0  0  0  0  0  1  0  0  0  0  0  0
  195.7280  170.7440  144.6820 C   0  0  0  0  0  2  0  0  0  0  0  0
  192.3730  168.2220  139.1820 O   0  0  0  0  0  0  0  0  0  0  0  0
  193.1940  168.2570  136.7440 C   0  0  0  0  0  0  0  0  0  0  0  0
  193.6630  168.2820  135.3590 C   0  0  0  0  0  1  0  0  0  0  0  0
  192.8100  168.2390  137.8880 C   0  0  0  0  0  0  0  0  0  0  0  0
  1 44  1  6  0  0  0
  1  5  1  0  0  0  0
  2 13  1  0  0  0  0
  2  1  1  0  0  0  0
  3  7  1  6  0  0  0
  3 19  1  0  0  0  0
  4 13  1  1  0  0  0
  4  9  1  0  0  0  0
  4 14  1  0  0  0  0
  5 36  1  6  0  0  0
  6 12  1  1  0  0  0
  6  3  1  0  0  0  0
  8 12  2  0  0  0  0
  9 10  1  6  0  0  0
  9  5  1  0  0  0  0
  9  8  1  0  0  0  0
 11  7  1  0  0  0  0
 14 11  1  6  0  0  0
 14  6  1  0  0  0  0
 15 25  2  0  0  0  0
 17 24  2  0  0  0  0
 18 17  1  0  0  0  0
 19 20  1  1  0  0  0
 19 25  1  0  0  0  0
 20 26  1  0  0  0  0
 21 16  2  0  0  0  0
 22 21  1  0  0  0  0
 23 17  1  0  0  0  0
 23 21  1  0  0  0  0
 25 18  1  0  0  0  0
 26 18  1  0  0  0  0
 26 27  1  1  0  0  0
 27 28  2  0  0  0  0
 27 29  1  0  0  0  0
 30 29  1  0  0  0  0
 32 30  1  0  0  0  0
 32 31  1  1  0  0  0
 33 34  2  0  0  0  0
 34 32  1  0  0  0  0
 34 35  1  0  0  0  0
 36 37  1  0  0  0  0
 39 41  1  6  0  0  0
 39 38  1  0  0  0  0
 40 37  1  6  0  0  0
 40 39  1  0  0  0  0
 40 38  1  0  0  0  0
 41 43  1  0  0  0  0
 42 43  1  0  0  0  0
 45 47  3  0  0  0  0
 46 45  1  0  0  0  0
 47 44  1  0  0  0  0
M  END
>  <MODEL>
7

>  <REMARK>
 VINA RESULT:      -5.9      2.503      4.437
  Name = 
  13 active torsions:
  status: ('A' for Active; 'I' for Inactive)
    1  A    between atoms: O_2  and  C_30
    2  A    between atoms: O_2  and  C_42
    3  A    between atoms: C_4  and  O_39
    4  A    between atoms: O_9  and  C_12
    5  A    between atoms: O_9  and  C_25
    6  A    between atoms: C_10  and  C_13
    7  A    between atoms: C_12  and  C_19
    8  A    between atoms: C_14  and  C_24
    9  A    between atoms: C_14  and  C_45
   10  A    between atoms: C_18  and  C_19
   11  A    between atoms: C_20  and  C_24
   12  A    between atoms: C_25  and  C_46
   13  A    between atoms: C_31  and  O_39
                            x       y       z     vdW  Elec       q    Type
                         _______ _______ _______ _____ _____    ______ ____

>  <TORSDO>
F 13

$$$$
=
 OpenBabel11072408373D

 47 51  0  0  1  0  0  0  0  0999 V2000
  196.3080  175.1230  139.9620 C   0  0  2  0  0  3  0  0  0  0  0  0
  197.0310  174.9010  141.1480 O   0  0  0  0  0  0  0  0  0  0  0  0
  192.1070  175.8720  144.4360 C   0  0  2  0  0  3  0  0  0  0  0  0
  195.0990  174.7970  142.5760 C   0  0  1  0  0  3  0  0  0  0  0  0
  194.8890  174.4970  140.0260 C   0  0  2  0  0  3  0  0  0  0  0  0
  192.9190  174.8760  143.6420 C   0  0  1  0  0  3  0  0  0  0  0  0
  193.0860  176.7920  145.0330 N   0  0  0  0  0  2  0  0  0  0  0  0
  192.9990  173.7490  141.4740 C   0  0  0  0  0  3  0  0  0  0  0  0
  194.5190  173.9060  141.4140 C   0  0  2  0  0  0  0  0  0  0  0  0
  195.1310  172.5200  141.5670 C   0  0  0  0  0  1  0  0  0  0  0  0
  194.3610  176.5480  144.3490 C   0  0  0  0  0  2  0  0  0  0  0  0
  192.2440  174.2200  142.4810 C   0  0  0  0  0  3  0  0  0  0  0  0
  196.3370  175.5940  142.1480 C   0  0  0  0  0  2  0  0  0  0  0  0
  194.0270  175.7250  143.1320 C   0  0  1  0  0  3  0  0  0  0  0  0
  190.5150  177.1380  146.7690 O   0  0  0  0  0  0  0  0  0  0  0  0
  185.4630  177.9790  147.0990 O   0  0  0  0  0  0  0  0  0  0  0  0
  187.7170  176.4740  146.0410 C   0  0  0  0  0  0  0  0  0  0  0  0
  188.9280  175.8300  145.6150 N   0  0  0  0  0  0  0  0  0  0  0  0
  191.2650  175.2030  145.5290 C   0  0  2  0  0  3  0  0  0  0  0  0
  190.3970  174.0850  144.9340 C   0  0  0  0  0  2  0  0  0  0  0  0
  186.6310  178.2890  147.4520 C   0  0  0  0  0  0  0  0  0  0  0  0
  186.8360  179.4160  148.4000 C   0  0  0  0  0  1  0  0  0  0  0  0
  187.7670  177.5690  146.9650 N   0  0  0  0  0  2  0  0  0  0  0  0
  186.6090  176.0600  145.6040 O   0  0  0  0  0  0  0  0  0  0  0  0
  190.2440  176.1530  146.0340 C   0  0  0  0  0  0  0  0  0  0  0  0
  188.9670  174.6260  144.8030 C   0  0  2  0  0  3  0  0  0  0  0  0
  188.6830  174.9550  143.3720 C   0  0  0  0  0  0  0  0  0  0  0  0
  188.4360  174.0230  142.5580 O   0  0  0  0  0  0  0  0  0  0  0  0
  188.7050  176.2860  142.9470 O   0  0  0  0  0  0  0  0  0  0  0  0
  188.1630  176.7030  141.7030 C   0  0  0  0  0  2  0  0  0  0  0  0
  186.6930  178.3620  142.8490 C   0  0  0  0  0  1  0  0  0  0  0  0
  186.7350  177.1950  141.8800 C   0  0  1  0  0  3  0  0  0  0  0  0
  186.6990  177.2520  139.4870 O   0  0  0  0  0  0  0  0  0  0  0  0
  186.1500  177.5980  140.5680 C   0  0  0  0  0  0  0  0  0  0  0  0
  185.0080  178.3830  140.5350 O   0  0  0  0  0  1  0  0  0  0  0  0
  194.5490  173.5820  138.8460 C   0  0  0  0  0  2  0  0  0  0  0  0
  193.3130  174.0990  138.1380 C   0  0  0  0  0  2  0  0  0  0  0  0
  192.1380  171.9270  138.1250 C   0  0  0  0  0  2  0  0  0  0  0  0
  191.2170  172.8560  137.3580 C   0  0  2  0  0  3  0  0  0  0  0  0
  192.7370  173.0080  137.2490 C   0  0  1  0  0  3  0  0  0  0  0  0
  190.6530  173.7930  138.2320 O   0  0  0  0  0  0  0  0  0  0  0  0
  188.4610  174.1580  139.0820 C   0  0  0  0  0  1  0  0  0  0  0  0
  189.5480  173.1460  138.7860 C   0  0  0  0  0  2  0  0  0  0  0  0
  197.0530  174.6580  138.8450 O   0  0  0  0  0  0  0  0  0  0  0  0
  196.9220  175.8640  136.5760 C   0  0  0  0  0  0  0  0  0  0  0  0
  196.8440  176.5460  135.2850 C   0  0  0  0  0  1  0  0  0  0  0  0
  196.9830  175.3000  137.6400 C   0  0  0  0  0  0  0  0  0  0  0  0
  1 44  1  6  0  0  0
  1  5  1  0  0  0  0
  1  2  1  0  0  0  0
  2 13  1  0  0  0  0
  3  7  1  1  0  0  0
  3 19  1  0  0  0  0
  4 13  1  6  0  0  0
  4 14  1  0  0  0  0
  5 36  1  6  0  0  0
  5  9  1  0  0  0  0
  6 12  1  6  0  0  0
  6  3  1  0  0  0  0
  8 12  2  0  0  0  0
  9  8  1  0  0  0  0
  9 10  1  1  0  0  0
  9  4  1  0  0  0  0
 11  7  1  0  0  0  0
 14  6  1  0  0  0  0
 14 11  1  1  0  0  0
 16 21  2  0  0  0  0
 17 23  1  0  0  0  0
 18 25  1  0  0  0  0
 18 17  1  0  0  0  0
 19 20  1  6  0  0  0
 19 25  1  0  0  0  0
 21 22  1  0  0  0  0
 23 21  1  0  0  0  0
 24 17  2  0  0  0  0
 25 15  2  0  0  0  0
 26 27  1  6  0  0  0
 26 20  1  0  0  0  0
 26 18  1  0  0  0  0
 28 27  2  0  0  0  0
 29 27  1  0  0  0  0
 30 32  1  0  0  0  0
 30 29  1  0  0  0  0
 32 31  1  1  0  0  0
 33 34  2  0  0  0  0
 34 32  1  0  0  0  0
 35 34  1  0  0  0  0
 37 36  1  0  0  0  0
 39 38  1  0  0  0  0
 39 41  1  1  0  0  0
 40 39  1  0  0  0  0
 40 38  1  0  0  0  0
 40 37  1  1  0  0  0
 41 43  1  0  0  0  0
 43 42  1  0  0  0  0
 45 47  3  0  0  0  0
 46 45  1  0  0  0  0
 47 44  1  0  0  0  0
M  END
>  <MODEL>
8

>  <REMARK>
 VINA RESULT:      -5.9      3.172      6.366
  Name = 
  13 active torsions:
  status: ('A' for Active; 'I' for Inactive)
    1  A    between atoms: O_2  and  C_30
    2  A    between atoms: O_2  and  C_42
    3  A    between atoms: C_4  and  O_39
    4  A    between atoms: O_9  and  C_12
    5  A    between atoms: O_9  and  C_25
    6  A    between atoms: C_10  and  C_13
    7  A    between atoms: C_12  and  C_19
    8  A    between atoms: C_14  and  C_24
    9  A    between atoms: C_14  and  C_45
   10  A    between atoms: C_18  and  C_19
   11  A    between atoms: C_20  and  C_24
   12  A    between atoms: C_25  and  C_46
   13  A    between atoms: C_31  and  O_39
                            x       y       z     vdW  Elec       q    Type
                         _______ _______ _______ _____ _____    ______ ____

>  <TORSDO>
F 13

$$$$
=
 OpenBabel11072408373D

 47 51  0  0  1  0  0  0  0  0999 V2000
  187.3950  178.3070  142.0940 C   0  0  2  0  0  3  0  0  0  0  0  0
  186.3840  177.6110  141.4080 O   0  0  0  0  0  0  0  0  0  0  0  0
  190.0440  172.9290  140.5820 C   0  0  2  0  0  3  0  0  0  0  0  0
  187.5320  175.4980  141.3930 C   0  0  1  0  0  3  0  0  0  0  0  0
  188.2070  177.3700  143.0280 C   0  0  2  0  0  3  0  0  0  0  0  0
  189.0710  173.6240  141.5050 C   0  0  1  0  0  3  0  0  0  0  0  0
  189.5710  173.2180  139.2210 N   0  0  0  0  0  2  0  0  0  0  0  0
  188.9810  175.0440  143.4930 C   0  0  0  0  0  3  0  0  0  0  0  0
  187.8420  175.8670  142.8910 C   0  0  2  0  0  0  0  0  0  0  0  0
  186.5830  175.5660  143.6940 C   0  0  0  0  0  1  0  0  0  0  0  0
  188.5840  174.2970  139.3420 C   0  0  0  0  0  2  0  0  0  0  0  0
  189.5800  174.0260  142.8520 C   0  0  0  0  0  3  0  0  0  0  0  0
  187.0500  176.7020  140.5750 C   0  0  0  0  0  2  0  0  0  0  0  0
  188.7420  174.8500  140.7340 C   0  0  1  0  0  3  0  0  0  0  0  0
  191.6610  170.7440  139.1020 O   0  0  0  0  0  0  0  0  0  0  0  0
  196.0130  168.4530  140.5670 O   0  0  0  0  0  0  0  0  0  0  0  0
  193.5270  169.8180  141.2140 C   0  0  0  0  0  0  0  0  0  0  0  0
  192.2690  170.4940  141.3670 N   0  0  0  0  0  0  0  0  0  0  0  0
  190.0970  171.4150  140.8200 C   0  0  2  0  0  3  0  0  0  0  0  0
  190.1760  171.1060  142.3220 C   0  0  0  0  0  2  0  0  0  0  0  0
  195.2460  168.8110  139.6350 C   0  0  0  0  0  0  0  0  0  0  0  0
  195.6250  168.5310  138.2240 C   0  0  0  0  0  1  0  0  0  0  0  0
  194.0090  169.4740  139.9080 N   0  0  0  0  0  2  0  0  0  0  0  0
  194.1980  169.5180  142.2390 O   0  0  0  0  0  0  0  0  0  0  0  0
  191.3840  170.8700  140.3240 C   0  0  0  0  0  0  0  0  0  0  0  0
  191.6320  170.7470  142.6480 C   0  0  2  0  0  3  0  0  0  0  0  0
  192.2920  171.9000  143.3360 C   0  0  0  0  0  0  0  0  0  0  0  0
  192.3130  171.9390  144.5970 O   0  0  0  0  0  0  0  0  0  0  0  0
  192.8660  172.9250  142.5810 O   0  0  0  0  0  0  0  0  0  0  0  0
  194.2420  173.2610  142.6650 C   0  0  0  0  0  2  0  0  0  0  0  0
  193.2010  175.5250  142.7980 C   0  0  0  0  0  1  0  0  0  0  0  0
  194.4460  174.7470  142.4140 C   0  0  1  0  0  3  0  0  0  0  0  0
  195.6730  176.4540  143.5610 O   0  0  0  0  0  1  0  0  0  0  0  0
  195.6230  175.2540  143.1800 C   0  0  0  0  0  0  0  0  0  0  0  0
  196.6840  174.4040  143.4520 O   0  0  0  0  0  0  0  0  0  0  0  0
  188.3150  177.8600  144.4740 C   0  0  0  0  0  2  0  0  0  0  0  0
  189.7430  177.7150  144.9590 C   0  0  0  0  0  2  0  0  0  0  0  0
  189.1390  176.2040  146.8160 C   0  0  0  0  0  2  0  0  0  0  0  0
  190.6370  176.3860  146.9550 C   0  0  2  0  0  3  0  0  0  0  0  0
  189.7570  177.5420  146.4700 C   0  0  1  0  0  3  0  0  0  0  0  0
  191.2940  175.7420  145.8990 O   0  0  0  0  0  0  0  0  0  0  0  0
  193.5430  176.2410  146.4930 C   0  0  0  0  0  1  0  0  0  0  0  0
  192.4450  175.1990  146.4720 C   0  0  0  0  0  2  0  0  0  0  0  0
  186.8370  179.4120  142.7920 O   0  0  0  0  0  0  0  0  0  0  0  0
  184.8710  179.0840  144.4190 C   0  0  0  0  0  0  0  0  0  0  0  0
  183.7560  178.8950  145.3460 C   0  0  0  0  0  1  0  0  0  0  0  0
  185.7920  179.2400  143.6560 C   0  0  0  0  0  0  0  0  0  0  0  0
  1 44  1  1  0  0  0
  1  5  1  0  0  0  0
  2  1  1  0  0  0  0
  3  7  1  6  0  0  0
  3 19  1  0  0  0  0
  3  6  1  0  0  0  0
  4 13  1  6  0  0  0
  4  9  1  0  0  0  0
  5 36  1  1  0  0  0
  6 12  1  1  0  0  0
  7 11  1  0  0  0  0
  9  5  1  0  0  0  0
  9  8  1  0  0  0  0
  9 10  1  1  0  0  0
 12  8  2  0  0  0  0
 13  2  1  0  0  0  0
 14 11  1  6  0  0  0
 14  4  1  0  0  0  0
 14  6  1  0  0  0  0
 15 25  2  0  0  0  0
 17 18  1  0  0  0  0
 17 24  2  0  0  0  0
 18 26  1  0  0  0  0
 19 20  1  1  0  0  0
 20 26  1  0  0  0  0
 21 23  1  0  0  0  0
 21 16  2  0  0  0  0
 22 21  1  0  0  0  0
 23 17  1  0  0  0  0
 25 19  1  0  0  0  0
 25 18  1  0  0  0  0
 26 27  1  6  0  0  0
 27 28  2  0  0  0  0
 29 30  1  0  0  0  0
 29 27  1  0  0  0  0
 32 30  1  0  0  0  0
 32 31  1  1  0  0  0
 32 34  1  0  0  0  0
 34 35  2  0  0  0  0
 34 33  1  0  0  0  0
 36 37  1  0  0  0  0
 38 39  1  0  0  0  0
 39 41  1  6  0  0  0
 40 37  1  6  0  0  0
 40 38  1  0  0  0  0
 40 39  1  0  0  0  0
 41 43  1  0  0  0  0
 43 42  1  0  0  0  0
 44 47  1  0  0  0  0
 45 46  1  0  0  0  0
 47 45  3  0  0  0  0
M  END
>  <MODEL>
9

>  <REMARK>
 VINA RESULT:      -5.9      2.750      8.952
  Name = 
  13 active torsions:
  status: ('A' for Active; 'I' for Inactive)
    1  A    between atoms: O_2  and  C_30
    2  A    between atoms: O_2  and  C_42
    3  A    between atoms: C_4  and  O_39
    4  A    between atoms: O_9  and  C_12
    5  A    between atoms: O_9  and  C_25
    6  A    between atoms: C_10  and  C_13
    7  A    between atoms: C_12  and  C_19
    8  A    between atoms: C_14  and  C_24
    9  A    between atoms: C_14  and  C_45
   10  A    between atoms: C_18  and  C_19
   11  A    between atoms: C_20  and  C_24
   12  A    between atoms: C_25  and  C_46
   13  A    between atoms: C_31  and  O_39
                            x       y       z     vdW  Elec       q    Type
                         _______ _______ _______ _____ _____    ______ ____

>  <TORSDO>
F 13

$$$$
