=
 OpenBabel11072408353D

 26 28  0  0  0  0  0  0  0  0999 V2000
  187.9560  175.8200  140.7760 O   0  0  0  0  0  0  0  0  0  0  0  0
  187.6530  175.2650  141.8650 C   0  0  0  0  0  0  0  0  0  0  0  0
  188.3600  176.0970  146.3560 C   0  0  0  0  0  2  0  0  0  0  0  0
  187.1560  176.6500  143.8180 C   0  0  0  0  0  0  0  0  0  0  0  0
  185.0510  177.9930  146.7030 C   0  0  0  0  0  3  0  0  0  0  0  0
  187.0220  176.5420  146.9380 C   0  0  0  0  0  2  0  0  0  0  0  0
  185.0980  178.0000  143.9190 C   0  0  0  0  0  3  0  0  0  0  0  0
  186.7880  175.9580  142.7770 N   0  0  0  0  0  0  0  0  0  0  0  0
  188.6150  176.9760  144.0470 C   0  0  0  0  0  2  0  0  0  0  0  0
  188.9810  177.1880  145.5090 C   0  0  0  0  0  2  0  0  0  0  0  0
  184.0630  178.6740  145.9920 C   0  0  0  0  0  3  0  0  0  0  0  0
  184.0850  178.6750  144.5990 C   0  0  0  0  0  3  0  0  0  0  0  0
  186.1080  177.3190  144.6170 C   0  0  0  0  0  0  0  0  0  0  0  0
  186.0810  177.3130  146.0420 C   0  0  0  0  0  0  0  0  0  0  0  0
  187.3640  172.8850  141.8370 N   0  0  0  0  0  2  0  0  0  0  0  0
  188.1220  173.8920  142.1340 C   0  0  0  0  0  0  0  0  0  0  0  0
  189.3660  173.6910  142.7370 O   0  0  0  0  0  0  0  0  0  0  0  0
  189.5630  172.7430  143.7760 C   0  0  0  0  0  2  0  0  0  0  0  0
  190.6360  173.2460  144.7170 C   0  0  0  0  0  2  0  0  0  0  0  0
  193.7640  176.8330  145.5340 C   0  0  0  0  0  0  0  0  0  0  0  0
  193.2060  176.1890  146.7570 C   0  0  0  0  0  2  0  0  0  0  0  0
  192.0680  175.2770  146.3220 C   0  0  0  0  0  2  0  0  0  0  0  0
  192.8230  176.6840  144.0290 S   0  0  0  0  0  0  0  0  0  0  0  0
  194.8460  177.3970  145.5530 O   0  0  0  0  0  0  0  0  0  0  0  0
  191.9670  175.3390  144.8290 C   0  0  0  0  0  0  0  0  0  0  0  0
  191.3360  174.4120  144.1020 C   0  0  0  0  0  3  0  0  0  0  0  0
  1  2  2  0  0  0  0
  2 16  1  0  0  0  0
  2  8  1  0  0  0  0
  3  6  1  0  0  0  0
  4  9  1  0  0  0  0
  4 13  1  0  0  0  0
  7 12  2  0  0  0  0
  7 13  1  0  0  0  0
  8  4  2  0  0  0  0
  9 10  1  0  0  0  0
 10  3  1  0  0  0  0
 11  5  2  0  0  0  0
 12 11  1  0  0  0  0
 13 14  2  0  0  0  0
 14  5  1  0  0  0  0
 14  6  1  0  0  0  0
 15 16  2  0  0  0  0
 16 17  1  0  0  0  0
 17 18  1  0  0  0  0
 18 19  1  0  0  0  0
 20 24  2  0  0  0  0
 20 21  1  0  0  0  0
 22 21  1  0  0  0  0
 23 25  1  0  0  0  0
 23 20  1  0  0  0  0
 25 22  1  0  0  0  0
 26 19  1  0  0  0  0
 26 25  2  0  0  0  0
M  END
>  <MODEL>
1

>  <REMARK>
 VINA RESULT:      -7.3      0.000      0.000
  Name = 
  6 active torsions:
  status: ('A' for Active; 'I' for Inactive)
    1  A    between atoms: C_3  and  C_13
    2  A    between atoms: C_3  and  C_25
    3  A    between atoms: N_11  and  C_22
    4  A    between atoms: C_13  and  O_23
    5  A    between atoms: C_20  and  C_22
    6  A    between atoms: C_20  and  O_23
                            x       y       z     vdW  Elec       q    Type
                         _______ _______ _______ _____ _____    ______ ____

>  <TORSDO>
F 6

$$$$
=
 OpenBabel11072408353D

 26 28  0  0  0  0  0  0  0  0999 V2000
  191.0770  178.4940  143.4740 O   0  0  0  0  0  0  0  0  0  0  0  0
  190.7380  177.7130  144.4020 C   0  0  0  0  0  0  0  0  0  0  0  0
  186.6510  178.6230  142.4450 C   0  0  0  0  0  2  0  0  0  0  0  0
  188.2990  177.6470  144.5730 C   0  0  0  0  0  0  0  0  0  0  0  0
  184.8560  178.7100  145.8270 C   0  0  0  0  0  3  0  0  0  0  0  0
  185.7240  179.0990  143.5600 C   0  0  0  0  0  2  0  0  0  0  0  0
  187.1890  177.5170  146.7680 C   0  0  0  0  0  3  0  0  0  0  0  0
  189.4780  177.9230  145.0570 N   0  0  0  0  0  0  0  0  0  0  0  0
  188.1600  176.8450  143.2990 C   0  0  0  0  0  2  0  0  0  0  0  0
  186.8820  177.1280  142.5230 C   0  0  0  0  0  2  0  0  0  0  0  0
  184.9420  178.3030  147.1580 C   0  0  0  0  0  3  0  0  0  0  0  0
  186.1100  177.7090  147.6300 C   0  0  0  0  0  3  0  0  0  0  0  0
  187.1180  177.9080  145.4220 C   0  0  0  0  0  0  0  0  0  0  0  0
  185.9250  178.5220  144.9430 C   0  0  0  0  0  0  0  0  0  0  0  0
  192.8210  176.7610  145.1110 N   0  0  0  0  0  2  0  0  0  0  0  0
  191.6000  176.5620  144.7310 C   0  0  0  0  0  0  0  0  0  0  0  0
  191.1010  175.2630  144.5970 O   0  0  0  0  0  0  0  0  0  0  0  0
  190.8080  174.4410  145.7190 C   0  0  0  0  0  2  0  0  0  0  0  0
  189.6620  173.5150  145.3760 C   0  0  0  0  0  2  0  0  0  0  0  0
  189.9670  171.9930  140.8040 C   0  0  0  0  0  0  0  0  0  0  0  0
  188.9830  173.0860  141.0420 C   0  0  0  0  0  2  0  0  0  0  0  0
  188.8360  173.2570  142.5480 C   0  0  0  0  0  2  0  0  0  0  0  0
  190.4240  170.9850  142.1990 S   0  0  0  0  0  0  0  0  0  0  0  0
  190.4750  171.8260  139.7070 O   0  0  0  0  0  0  0  0  0  0  0  0
  189.7650  172.2910  143.2180 C   0  0  0  0  0  0  0  0  0  0  0  0
  190.1530  172.4170  144.4900 C   0  0  0  0  0  3  0  0  0  0  0  0
  1  2  2  0  0  0  0
  2 16  1  0  0  0  0
  2  8  1  0  0  0  0
  3 10  1  0  0  0  0
  3  6  1  0  0  0  0
  4  8  2  0  0  0  0
  4 13  1  0  0  0  0
  5 11  1  0  0  0  0
  6 14  1  0  0  0  0
  7 12  1  0  0  0  0
  9  4  1  0  0  0  0
 10  9  1  0  0  0  0
 11 12  2  0  0  0  0
 13  7  2  0  0  0  0
 14 13  1  0  0  0  0
 14  5  2  0  0  0  0
 16 15  2  0  0  0  0
 17 16  1  0  0  0  0
 17 18  1  0  0  0  0
 19 18  1  0  0  0  0
 20 21  1  0  0  0  0
 20 23  1  0  0  0  0
 21 22  1  0  0  0  0
 22 25  1  0  0  0  0
 23 25  1  0  0  0  0
 24 20  2  0  0  0  0
 25 26  2  0  0  0  0
 26 19  1  0  0  0  0
M  END
>  <MODEL>
2

>  <REMARK>
 VINA RESULT:      -6.8      2.724      4.625
  Name = 
  6 active torsions:
  status: ('A' for Active; 'I' for Inactive)
    1  A    between atoms: C_3  and  C_13
    2  A    between atoms: C_3  and  C_25
    3  A    between atoms: N_11  and  C_22
    4  A    between atoms: C_13  and  O_23
    5  A    between atoms: C_20  and  C_22
    6  A    between atoms: C_20  and  O_23
                            x       y       z     vdW  Elec       q    Type
                         _______ _______ _______ _____ _____    ______ ____

>  <TORSDO>
F 6

$$$$
=
 OpenBabel11072408353D

 26 28  0  0  0  0  0  0  0  0999 V2000
  190.1960  175.1380  145.5570 O   0  0  0  0  0  0  0  0  0  0  0  0
  189.9870  176.3030  145.1250 C   0  0  0  0  0  0  0  0  0  0  0  0
  187.0980  178.1060  141.9990 C   0  0  0  0  0  2  0  0  0  0  0  0
  187.6950  176.9190  144.5360 C   0  0  0  0  0  0  0  0  0  0  0  0
  184.4930  178.9910  144.6630 C   0  0  0  0  0  3  0  0  0  0  0  0
  186.0630  178.9170  142.7720 C   0  0  0  0  0  2  0  0  0  0  0  0
  186.0000  177.3000  146.2830 C   0  0  0  0  0  3  0  0  0  0  0  0
  188.7060  176.9080  145.3580 N   0  0  0  0  0  0  0  0  0  0  0  0
  187.7120  176.0710  143.2840 C   0  0  0  0  0  2  0  0  0  0  0  0
  186.8560  176.6190  142.1510 C   0  0  0  0  0  2  0  0  0  0  0  0
  184.0630  178.7010  145.9580 C   0  0  0  0  0  3  0  0  0  0  0  0
  184.8190  177.8580  146.7690 C   0  0  0  0  0  3  0  0  0  0  0  0
  186.4430  177.5700  144.9780 C   0  0  0  0  0  0  0  0  0  0  0  0
  185.6730  178.4380  144.1520 C   0  0  0  0  0  0  0  0  0  0  0  0
  190.8570  178.2060  143.9530 N   0  0  0  0  0  2  0  0  0  0  0  0
  191.0840  177.0410  144.4710 C   0  0  0  0  0  0  0  0  0  0  0  0
  192.3540  176.4620  144.3860 O   0  0  0  0  0  0  0  0  0  0  0  0
  193.4620  176.9460  145.1310 C   0  0  0  0  0  2  0  0  0  0  0  0
  193.6860  176.0540  146.3330 C   0  0  0  0  0  2  0  0  0  0  0  0
  196.1990  171.9690  145.7800 C   0  0  0  0  0  0  0  0  0  0  0  0
  197.0210  173.2030  145.9180 C   0  0  0  0  0  2  0  0  0  0  0  0
  196.0830  174.3980  145.8240 C   0  0  0  0  0  2  0  0  0  0  0  0
  194.5190  172.1630  145.2210 S   0  0  0  0  0  0  0  0  0  0  0  0
  196.6430  170.8740  146.0840 O   0  0  0  0  0  0  0  0  0  0  0  0
  194.6860  173.8800  145.6700 C   0  0  0  0  0  0  0  0  0  0  0  0
  193.6020  174.6230  145.9170 C   0  0  0  0  0  3  0  0  0  0  0  0
  2  8  1  0  0  0  0
  2  1  2  0  0  0  0
  3 10  1  0  0  0  0
  3  6  1  0  0  0  0
  4 13  1  0  0  0  0
  4  8  2  0  0  0  0
  5 11  1  0  0  0  0
  6 14  1  0  0  0  0
  7 12  1  0  0  0  0
  9  4  1  0  0  0  0
 10  9  1  0  0  0  0
 11 12  2  0  0  0  0
 13  7  2  0  0  0  0
 14  5  2  0  0  0  0
 14 13  1  0  0  0  0
 15 16  2  0  0  0  0
 16  2  1  0  0  0  0
 17 16  1  0  0  0  0
 17 18  1  0  0  0  0
 18 19  1  0  0  0  0
 20 21  1  0  0  0  0
 20 24  2  0  0  0  0
 22 21  1  0  0  0  0
 23 25  1  0  0  0  0
 23 20  1  0  0  0  0
 25 22  1  0  0  0  0
 25 26  2  0  0  0  0
 26 19  1  0  0  0  0
M  END
>  <MODEL>
3

>  <REMARK>
 VINA RESULT:      -6.8      2.906      4.167
  Name = 
  6 active torsions:
  status: ('A' for Active; 'I' for Inactive)
    1  A    between atoms: C_3  and  C_13
    2  A    between atoms: C_3  and  C_25
    3  A    between atoms: N_11  and  C_22
    4  A    between atoms: C_13  and  O_23
    5  A    between atoms: C_20  and  C_22
    6  A    between atoms: C_20  and  O_23
                            x       y       z     vdW  Elec       q    Type
                         _______ _______ _______ _____ _____    ______ ____

>  <TORSDO>
F 6

$$$$
=
 OpenBabel11072408353D

 26 28  0  0  0  0  0  0  0  0999 V2000
  189.4760  174.5270  147.1910 O   0  0  0  0  0  0  0  0  0  0  0  0
  189.5630  175.7680  146.9900 C   0  0  0  0  0  0  0  0  0  0  0  0
  188.2320  177.7270  143.0210 C   0  0  0  0  0  2  0  0  0  0  0  0
  187.7270  176.5960  145.6020 C   0  0  0  0  0  0  0  0  0  0  0  0
  184.9560  178.9970  144.5460 C   0  0  0  0  0  3  0  0  0  0  0  0
  187.0860  178.6750  143.3600 C   0  0  0  0  0  2  0  0  0  0  0  0
  185.5690  177.2290  146.6080 C   0  0  0  0  0  3  0  0  0  0  0  0
  188.3630  176.5130  146.7370 N   0  0  0  0  0  0  0  0  0  0  0  0
  188.1010  175.6970  144.4460 C   0  0  0  0  0  2  0  0  0  0  0  0
  187.7840  176.2820  143.0770 C   0  0  0  0  0  2  0  0  0  0  0  0
  184.0550  178.8100  145.5940 C   0  0  0  0  0  3  0  0  0  0  0  0
  184.3630  177.9280  146.6270 C   0  0  0  0  0  3  0  0  0  0  0  0
  186.4840  177.3930  145.5550 C   0  0  0  0  0  0  0  0  0  0  0  0
  186.1700  178.3010  144.5030 C   0  0  0  0  0  0  0  0  0  0  0  0
  191.2110  177.0040  148.2160 N   0  0  0  0  0  2  0  0  0  0  0  0
  190.8760  176.4300  147.1050 C   0  0  0  0  0  0  0  0  0  0  0  0
  191.7350  176.4610  146.0020 O   0  0  0  0  0  0  0  0  0  0  0  0
  192.9450  175.7200  145.9590 C   0  0  0  0  0  2  0  0  0  0  0  0
  192.6580  174.3190  145.4640 C   0  0  0  0  0  2  0  0  0  0  0  0
  189.1330  172.7770  142.5460 C   0  0  0  0  0  0  0  0  0  0  0  0
  189.2820  172.0130  143.8160 C   0  0  0  0  0  2  0  0  0  0  0  0
  190.5780  172.4620  144.4780 C   0  0  0  0  0  2  0  0  0  0  0  0
  190.5520  173.6850  141.9660 S   0  0  0  0  0  0  0  0  0  0  0  0
  188.0680  172.8190  141.9520 O   0  0  0  0  0  0  0  0  0  0  0  0
  191.1900  173.5290  143.6240 C   0  0  0  0  0  0  0  0  0  0  0  0
  192.1170  174.3800  144.0740 C   0  0  0  0  0  3  0  0  0  0  0  0
  2 16  1  0  0  0  0
  2  1  2  0  0  0  0
  3 10  1  0  0  0  0
  3  6  1  0  0  0  0
  4  8  2  0  0  0  0
  5 11  1  0  0  0  0
  6 14  1  0  0  0  0
  7 12  1  0  0  0  0
  8  2  1  0  0  0  0
  9  4  1  0  0  0  0
 10  9  1  0  0  0  0
 11 12  2  0  0  0  0
 13  4  1  0  0  0  0
 13  7  2  0  0  0  0
 14  5  2  0  0  0  0
 14 13  1  0  0  0  0
 16 15  2  0  0  0  0
 17 16  1  0  0  0  0
 18 17  1  0  0  0  0
 19 18  1  0  0  0  0
 20 21  1  0  0  0  0
 21 22  1  0  0  0  0
 23 20  1  0  0  0  0
 23 25  1  0  0  0  0
 24 20  2  0  0  0  0
 25 26  2  0  0  0  0
 25 22  1  0  0  0  0
 26 19  1  0  0  0  0
M  END
>  <MODEL>
4

>  <REMARK>
 VINA RESULT:      -6.8      2.388      4.531
  Name = 
  6 active torsions:
  status: ('A' for Active; 'I' for Inactive)
    1  A    between atoms: C_3  and  C_13
    2  A    between atoms: C_3  and  C_25
    3  A    between atoms: N_11  and  C_22
    4  A    between atoms: C_13  and  O_23
    5  A    between atoms: C_20  and  C_22
    6  A    between atoms: C_20  and  O_23
                            x       y       z     vdW  Elec       q    Type
                         _______ _______ _______ _____ _____    ______ ____

>  <TORSDO>
F 6

$$$$
=
 OpenBabel11072408353D

 26 28  0  0  0  0  0  0  0  0999 V2000
  189.5170  174.2720  145.1090 O   0  0  0  0  0  0  0  0  0  0  0  0
  189.5180  175.5090  144.8710 C   0  0  0  0  0  0  0  0  0  0  0  0
  187.0940  178.2070  142.0060 C   0  0  0  0  0  2  0  0  0  0  0  0
  187.3800  176.5700  144.3380 C   0  0  0  0  0  0  0  0  0  0  0  0
  184.5410  179.0910  144.7210 C   0  0  0  0  0  3  0  0  0  0  0  0
  186.1650  179.0490  142.8740 C   0  0  0  0  0  2  0  0  0  0  0  0
  185.6890  176.9530  146.0870 C   0  0  0  0  0  3  0  0  0  0  0  0
  188.3380  176.2710  145.1690 N   0  0  0  0  0  0  0  0  0  0  0  0
  187.3210  175.9290  142.9700 C   0  0  0  0  0  2  0  0  0  0  0  0
  186.6140  176.7730  141.9190 C   0  0  0  0  0  2  0  0  0  0  0  0
  184.0120  178.6820  145.9450 C   0  0  0  0  0  3  0  0  0  0  0  0
  184.5880  177.6150  146.6300 C   0  0  0  0  0  3  0  0  0  0  0  0
  186.2280  177.3410  144.8510 C   0  0  0  0  0  0  0  0  0  0  0  0
  185.6420  178.4370  144.1540 C   0  0  0  0  0  0  0  0  0  0  0  0
  191.0380  176.1040  143.1150 N   0  0  0  0  0  2  0  0  0  0  0  0
  190.7510  176.1500  144.3770 C   0  0  0  0  0  0  0  0  0  0  0  0
  191.6160  176.7750  145.2790 O   0  0  0  0  0  0  0  0  0  0  0  0
  192.0690  176.1360  146.4650 C   0  0  0  0  0  2  0  0  0  0  0  0
  193.4750  176.5990  146.7780 C   0  0  0  0  0  2  0  0  0  0  0  0
  196.4960  174.5660  143.6070 C   0  0  0  0  0  0  0  0  0  0  0  0
  196.4010  173.8750  144.9230 C   0  0  0  0  0  2  0  0  0  0  0  0
  195.6210  174.7790  145.8670 C   0  0  0  0  0  2  0  0  0  0  0  0
  196.0370  176.2860  143.5510 S   0  0  0  0  0  0  0  0  0  0  0  0
  196.8270  173.9650  142.5970 O   0  0  0  0  0  0  0  0  0  0  0  0
  195.2090  176.0010  145.1040 C   0  0  0  0  0  0  0  0  0  0  0  0
  194.2270  176.8140  145.5060 C   0  0  0  0  0  3  0  0  0  0  0  0
  2  1  2  0  0  0  0
  2  8  1  0  0  0  0
  3  6  1  0  0  0  0
  4 13  1  0  0  0  0
  4  8  2  0  0  0  0
  5 11  1  0  0  0  0
  6 14  1  0  0  0  0
  7 12  1  0  0  0  0
  9  4  1  0  0  0  0
 10  3  1  0  0  0  0
 10  9  1  0  0  0  0
 11 12  2  0  0  0  0
 13  7  2  0  0  0  0
 14  5  2  0  0  0  0
 14 13  1  0  0  0  0
 15 16  2  0  0  0  0
 16  2  1  0  0  0  0
 16 17  1  0  0  0  0
 17 18  1  0  0  0  0
 18 19  1  0  0  0  0
 20 21  1  0  0  0  0
 21 22  1  0  0  0  0
 23 20  1  0  0  0  0
 23 25  1  0  0  0  0
 24 20  2  0  0  0  0
 25 26  2  0  0  0  0
 25 22  1  0  0  0  0
 26 19  1  0  0  0  0
M  END
>  <MODEL>
5

>  <REMARK>
 VINA RESULT:      -6.7      2.356      3.725
  Name = 
  6 active torsions:
  status: ('A' for Active; 'I' for Inactive)
    1  A    between atoms: C_3  and  C_13
    2  A    between atoms: C_3  and  C_25
    3  A    between atoms: N_11  and  C_22
    4  A    between atoms: C_13  and  O_23
    5  A    between atoms: C_20  and  C_22
    6  A    between atoms: C_20  and  O_23
                            x       y       z     vdW  Elec       q    Type
                         _______ _______ _______ _____ _____    ______ ____

>  <TORSDO>
F 6

$$$$
=
 OpenBabel11072408353D

 26 28  0  0  0  0  0  0  0  0999 V2000
  189.8990  176.3250  142.3850 O   0  0  0  0  0  0  0  0  0  0  0  0
  189.1910  175.6200  143.1530 C   0  0  0  0  0  0  0  0  0  0  0  0
  185.9200  178.8460  142.6390 C   0  0  0  0  0  2  0  0  0  0  0  0
  187.2140  176.7300  144.0700 C   0  0  0  0  0  0  0  0  0  0  0  0
  185.2750  179.0390  146.4100 C   0  0  0  0  0  3  0  0  0  0  0  0
  185.6770  179.4500  144.0190 C   0  0  0  0  0  2  0  0  0  0  0  0
  186.7400  176.6720  146.4870 C   0  0  0  0  0  3  0  0  0  0  0  0
  188.4280  176.2700  144.1810 N   0  0  0  0  0  0  0  0  0  0  0  0
  186.3810  176.4140  142.8490 C   0  0  0  0  0  2  0  0  0  0  0  0
  185.3200  177.4590  142.5330 C   0  0  0  0  0  2  0  0  0  0  0  0
  185.4270  178.3530  147.6150 C   0  0  0  0  0  3  0  0  0  0  0  0
  186.1620  177.1710  147.6540 C   0  0  0  0  0  3  0  0  0  0  0  0
  186.5880  177.3410  145.2620 C   0  0  0  0  0  0  0  0  0  0  0  0
  185.8410  178.5540  145.2250 C   0  0  0  0  0  0  0  0  0  0  0  0
  188.5930  173.7230  141.8150 N   0  0  0  0  0  2  0  0  0  0  0  0
  189.0970  174.1660  142.9220 C   0  0  0  0  0  0  0  0  0  0  0  0
  189.5240  173.2780  143.9140 O   0  0  0  0  0  0  0  0  0  0  0  0
  190.3880  172.1860  143.6360 C   0  0  0  0  0  2  0  0  0  0  0  0
  191.6620  172.3380  144.4380 C   0  0  0  0  0  2  0  0  0  0  0  0
  193.5890  176.5480  145.8080 C   0  0  0  0  0  0  0  0  0  0  0  0
  192.6260  175.9480  146.7740 C   0  0  0  0  0  2  0  0  0  0  0  0
  191.9370  174.7830  146.0790 C   0  0  0  0  0  2  0  0  0  0  0  0
  193.4600  176.0430  144.1050 S   0  0  0  0  0  0  0  0  0  0  0  0
  194.4630  177.3160  146.1780 O   0  0  0  0  0  0  0  0  0  0  0  0
  192.5160  174.6540  144.7040 C   0  0  0  0  0  0  0  0  0  0  0  0
  192.4080  173.5430  143.9690 C   0  0  0  0  0  3  0  0  0  0  0  0
  1  2  2  0  0  0  0
  2  8  1  0  0  0  0
  3  6  1  0  0  0  0
  4  8  2  0  0  0  0
  4 13  1  0  0  0  0
  5 11  1  0  0  0  0
  6 14  1  0  0  0  0
  7 12  1  0  0  0  0
  9  4  1  0  0  0  0
 10  3  1  0  0  0  0
 10  9  1  0  0  0  0
 11 12  2  0  0  0  0
 13  7  2  0  0  0  0
 14 13  1  0  0  0  0
 14  5  2  0  0  0  0
 15 16  2  0  0  0  0
 16  2  1  0  0  0  0
 16 17  1  0  0  0  0
 18 17  1  0  0  0  0
 18 19  1  0  0  0  0
 20 24  2  0  0  0  0
 20 21  1  0  0  0  0
 22 21  1  0  0  0  0
 23 25  1  0  0  0  0
 23 20  1  0  0  0  0
 25 22  1  0  0  0  0
 26 19  1  0  0  0  0
 26 25  2  0  0  0  0
M  END
>  <MODEL>
6

>  <REMARK>
 VINA RESULT:      -6.7      1.379      2.320
  Name = 
  6 active torsions:
  status: ('A' for Active; 'I' for Inactive)
    1  A    between atoms: C_3  and  C_13
    2  A    between atoms: C_3  and  C_25
    3  A    between atoms: N_11  and  C_22
    4  A    between atoms: C_13  and  O_23
    5  A    between atoms: C_20  and  C_22
    6  A    between atoms: C_20  and  O_23
                            x       y       z     vdW  Elec       q    Type
                         _______ _______ _______ _____ _____    ______ ____

>  <TORSDO>
F 6

$$$$
=
 OpenBabel11072408353D

 26 28  0  0  0  0  0  0  0  0999 V2000
  190.6700  177.0840  144.9580 O   0  0  0  0  0  0  0  0  0  0  0  0
  189.8210  176.5980  145.7520 C   0  0  0  0  0  0  0  0  0  0  0  0
  187.3000  178.2230  142.2340 C   0  0  0  0  0  2  0  0  0  0  0  0
  187.6060  177.1440  144.8680 C   0  0  0  0  0  0  0  0  0  0  0  0
  184.3790  179.1510  144.5290 C   0  0  0  0  0  3  0  0  0  0  0  0
  186.1660  179.0400  142.8440 C   0  0  0  0  0  2  0  0  0  0  0  0
  185.7080  177.5540  146.3830 C   0  0  0  0  0  3  0  0  0  0  0  0
  188.5110  177.1840  145.8060 N   0  0  0  0  0  0  0  0  0  0  0  0
  187.7880  176.2500  143.6630 C   0  0  0  0  0  2  0  0  0  0  0  0
  187.0660  176.7370  142.4140 C   0  0  0  0  0  2  0  0  0  0  0  0
  183.8010  178.9010  145.7740 C   0  0  0  0  0  3  0  0  0  0  0  0
  184.4670  178.1050  146.7020 C   0  0  0  0  0  3  0  0  0  0  0  0
  186.3000  177.7850  145.1320 C   0  0  0  0  0  0  0  0  0  0  0  0
  185.6210  178.6050  144.1850 C   0  0  0  0  0  0  0  0  0  0  0  0
  190.8750  175.5150  147.6120 N   0  0  0  0  0  2  0  0  0  0  0  0
  190.1650  175.3980  146.5360 C   0  0  0  0  0  0  0  0  0  0  0  0
  189.7510  174.1380  146.0920 O   0  0  0  0  0  0  0  0  0  0  0  0
  190.0630  173.6490  144.7960 C   0  0  0  0  0  2  0  0  0  0  0  0
  191.5200  173.2430  144.7500 C   0  0  0  0  0  2  0  0  0  0  0  0
  195.5890  175.7950  144.2560 C   0  0  0  0  0  0  0  0  0  0  0  0
  195.3040  175.3210  145.6400 C   0  0  0  0  0  2  0  0  0  0  0  0
  193.8840  174.7710  145.6570 C   0  0  0  0  0  2  0  0  0  0  0  0
  194.2090  175.9340  143.1380 S   0  0  0  0  0  0  0  0  0  0  0  0
  196.7280  176.0320  143.8900 O   0  0  0  0  0  0  0  0  0  0  0  0
  193.3280  174.8760  144.2710 C   0  0  0  0  0  0  0  0  0  0  0  0
  192.2710  174.1730  143.8550 C   0  0  0  0  0  3  0  0  0  0  0  0
  1  2  2  0  0  0  0
  2  8  1  0  0  0  0
  2 16  1  0  0  0  0
  3 10  1  0  0  0  0
  3  6  1  0  0  0  0
  4 13  1  0  0  0  0
  4  8  2  0  0  0  0
  5 11  1  0  0  0  0
  6 14  1  0  0  0  0
  7 12  1  0  0  0  0
  9  4  1  0  0  0  0
 10  9  1  0  0  0  0
 11 12  2  0  0  0  0
 13  7  2  0  0  0  0
 14  5  2  0  0  0  0
 14 13  1  0  0  0  0
 16 15  2  0  0  0  0
 17 16  1  0  0  0  0
 18 17  1  0  0  0  0
 19 18  1  0  0  0  0
 20 21  1  0  0  0  0
 21 22  1  0  0  0  0
 23 20  1  0  0  0  0
 23 25  1  0  0  0  0
 24 20  2  0  0  0  0
 25 22  1  0  0  0  0
 26 25  2  0  0  0  0
 26 19  1  0  0  0  0
M  END
>  <MODEL>
7

>  <REMARK>
 VINA RESULT:      -6.7      2.307      3.238
  Name = 
  6 active torsions:
  status: ('A' for Active; 'I' for Inactive)
    1  A    between atoms: C_3  and  C_13
    2  A    between atoms: C_3  and  C_25
    3  A    between atoms: N_11  and  C_22
    4  A    between atoms: C_13  and  O_23
    5  A    between atoms: C_20  and  C_22
    6  A    between atoms: C_20  and  O_23
                            x       y       z     vdW  Elec       q    Type
                         _______ _______ _______ _____ _____    ______ ____

>  <TORSDO>
F 6

$$$$
=
 OpenBabel11072408353D

 26 28  0  0  0  0  0  0  0  0999 V2000
  191.1250  178.1910  143.7580 O   0  0  0  0  0  0  0  0  0  0  0  0
  190.6050  177.3530  144.5420 C   0  0  0  0  0  0  0  0  0  0  0  0
  186.6670  178.6310  142.4860 C   0  0  0  0  0  2  0  0  0  0  0  0
  188.1670  177.5070  144.6510 C   0  0  0  0  0  0  0  0  0  0  0  0
  184.8030  178.8750  145.8230 C   0  0  0  0  0  3  0  0  0  0  0  0
  185.7600  179.1870  143.5790 C   0  0  0  0  0  2  0  0  0  0  0  0
  186.9950  177.4750  146.8180 C   0  0  0  0  0  3  0  0  0  0  0  0
  189.3530  177.6750  145.1650 N   0  0  0  0  0  0  0  0  0  0  0  0
  187.9880  176.7220  143.3710 C   0  0  0  0  0  2  0  0  0  0  0  0
  186.7600  177.1210  142.5650 C   0  0  0  0  0  2  0  0  0  0  0  0
  184.8180  178.4600  147.1540 C   0  0  0  0  0  3  0  0  0  0  0  0
  185.9160  177.7620  147.6530 C   0  0  0  0  0  3  0  0  0  0  0  0
  186.9930  177.8730  145.4710 C   0  0  0  0  0  0  0  0  0  0  0  0
  185.8720  178.5920  144.9650 C   0  0  0  0  0  0  0  0  0  0  0  0
  191.5050  175.2960  143.7010 N   0  0  0  0  0  2  0  0  0  0  0  0
  191.2490  176.0390  144.7300 C   0  0  0  0  0  0  0  0  0  0  0  0
  191.5480  175.5930  146.0200 O   0  0  0  0  0  0  0  0  0  0  0  0
  192.1420  176.4340  146.9980 C   0  0  0  0  0  2  0  0  0  0  0  0
  193.5490  176.7860  146.5670 C   0  0  0  0  0  2  0  0  0  0  0  0
  196.8280  174.5150  143.8450 C   0  0  0  0  0  0  0  0  0  0  0  0
  196.1550  175.6720  143.1910 C   0  0  0  0  0  2  0  0  0  0  0  0
  194.9940  176.0960  144.0800 C   0  0  0  0  0  2  0  0  0  0  0  0
  195.9790  173.7350  145.2030 S   0  0  0  0  0  0  0  0  0  0  0  0
  197.9380  174.1480  143.4970 O   0  0  0  0  0  0  0  0  0  0  0  0
  194.9940  175.2190  145.2940 C   0  0  0  0  0  0  0  0  0  0  0  0
  194.3570  175.5380  146.4240 C   0  0  0  0  0  3  0  0  0  0  0  0
  1  2  2  0  0  0  0
  2 16  1  0  0  0  0
  2  8  1  0  0  0  0
  3 10  1  0  0  0  0
  3  6  1  0  0  0  0
  4  8  2  0  0  0  0
  4 13  1  0  0  0  0
  5 11  1  0  0  0  0
  6 14  1  0  0  0  0
  7 12  1  0  0  0  0
  9  4  1  0  0  0  0
 10  9  1  0  0  0  0
 11 12  2  0  0  0  0
 13  7  2  0  0  0  0
 14 13  1  0  0  0  0
 14  5  2  0  0  0  0
 15 16  2  0  0  0  0
 16 17  1  0  0  0  0
 17 18  1  0  0  0  0
 19 18  1  0  0  0  0
 20 23  1  0  0  0  0
 21 20  1  0  0  0  0
 21 22  1  0  0  0  0
 22 25  1  0  0  0  0
 23 25  1  0  0  0  0
 24 20  2  0  0  0  0
 25 26  2  0  0  0  0
 26 19  1  0  0  0  0
M  END
>  <MODEL>
8

>  <REMARK>
 VINA RESULT:      -6.7      2.635      3.923
  Name = 
  6 active torsions:
  status: ('A' for Active; 'I' for Inactive)
    1  A    between atoms: C_3  and  C_13
    2  A    between atoms: C_3  and  C_25
    3  A    between atoms: N_11  and  C_22
    4  A    between atoms: C_13  and  O_23
    5  A    between atoms: C_20  and  C_22
    6  A    between atoms: C_20  and  O_23
                            x       y       z     vdW  Elec       q    Type
                         _______ _______ _______ _____ _____    ______ ____

>  <TORSDO>
F 6

$$$$
=
 OpenBabel11072408353D

 26 28  0  0  0  0  0  0  0  0999 V2000
  188.9310  174.5380  147.6290 O   0  0  0  0  0  0  0  0  0  0  0  0
  189.6370  175.3370  146.9590 C   0  0  0  0  0  0  0  0  0  0  0  0
  185.4390  177.1880  146.3940 C   0  0  0  0  0  2  0  0  0  0  0  0
  188.2010  176.8710  145.7070 C   0  0  0  0  0  0  0  0  0  0  0  0
  186.1360  178.0820  142.7350 C   0  0  0  0  0  3  0  0  0  0  0  0
  185.2200  177.3330  144.8910 C   0  0  0  0  0  2  0  0  0  0  0  0
  188.7860  177.5650  143.4170 C   0  0  0  0  0  3  0  0  0  0  0  0
  189.0840  175.9150  145.7660 N   0  0  0  0  0  0  0  0  0  0  0  0
  187.8170  177.6400  146.9510 C   0  0  0  0  0  2  0  0  0  0  0  0
  186.4130  178.2270  146.9100 C   0  0  0  0  0  2  0  0  0  0  0  0
  187.1510  178.2990  141.8030 C   0  0  0  0  0  3  0  0  0  0  0  0
  188.4760  178.0380  142.1430 C   0  0  0  0  0  3  0  0  0  0  0  0
  187.7810  177.3510  144.3740 C   0  0  0  0  0  0  0  0  0  0  0  0
  186.4250  177.6130  144.0230 C   0  0  0  0  0  0  0  0  0  0  0  0
  191.1170  176.8280  148.1140 N   0  0  0  0  0  2  0  0  0  0  0  0
  190.9700  175.7210  147.4600 C   0  0  0  0  0  0  0  0  0  0  0  0
  192.0720  174.9020  147.1940 O   0  0  0  0  0  0  0  0  0  0  0  0
  193.2300  175.3790  146.5250 C   0  0  0  0  0  2  0  0  0  0  0  0
  193.5770  174.4380  145.3920 C   0  0  0  0  0  2  0  0  0  0  0  0
  189.4890  173.9100  142.8770 C   0  0  0  0  0  0  0  0  0  0  0  0
  189.7250  172.8780  143.9250 C   0  0  0  0  0  2  0  0  0  0  0  0
  191.1520  173.0470  144.4290 C   0  0  0  0  0  2  0  0  0  0  0  0
  190.9110  174.7830  142.2540 S   0  0  0  0  0  0  0  0  0  0  0  0
  188.3620  174.1810  142.4960 O   0  0  0  0  0  0  0  0  0  0  0  0
  191.7630  174.2110  143.7120 C   0  0  0  0  0  0  0  0  0  0  0  0
  192.8490  174.8510  144.1560 C   0  0  0  0  0  3  0  0  0  0  0  0
  2 16  1  0  0  0  0
  2  1  2  0  0  0  0
  3 10  1  0  0  0  0
  4  8  2  0  0  0  0
  4  9  1  0  0  0  0
  5 14  1  0  0  0  0
  6  3  1  0  0  0  0
  7 13  1  0  0  0  0
  8  2  1  0  0  0  0
 10  9  1  0  0  0  0
 11 12  1  0  0  0  0
 11  5  2  0  0  0  0
 12  7  2  0  0  0  0
 13  4  1  0  0  0  0
 14 13  2  0  0  0  0
 14  6  1  0  0  0  0
 16 15  2  0  0  0  0
 17 16  1  0  0  0  0
 18 17  1  0  0  0  0
 19 18  1  0  0  0  0
 20 21  1  0  0  0  0
 21 22  1  0  0  0  0
 23 20  1  0  0  0  0
 23 25  1  0  0  0  0
 24 20  2  0  0  0  0
 25 26  2  0  0  0  0
 25 22  1  0  0  0  0
 26 19  1  0  0  0  0
M  END
>  <MODEL>
9

>  <REMARK>
 VINA RESULT:      -6.7      2.414      4.616
  Name = 
  6 active torsions:
  status: ('A' for Active; 'I' for Inactive)
    1  A    between atoms: C_3  and  C_13
    2  A    between atoms: C_3  and  C_25
    3  A    between atoms: N_11  and  C_22
    4  A    between atoms: C_13  and  O_23
    5  A    between atoms: C_20  and  C_22
    6  A    between atoms: C_20  and  O_23
                            x       y       z     vdW  Elec       q    Type
                         _______ _______ _______ _____ _____    ______ ____

>  <TORSDO>
F 6

$$$$
