=
 OpenBabel11062419433D

 30 37  0  0  1  0  0  0  0  0999 V2000
  189.0500  173.9210  143.1920 C   0  0  1  0  0  3  0  0  0  0  0  0
  188.1680  175.7770  141.1790 C   0  0  0  0  0  3  0  0  0  0  0  0
  190.3780  176.0680  143.2300 N   0  0  0  0  0  2  0  0  0  0  0  0
  189.0430  175.5240  143.4960 C   0  0  2  0  0  0  0  0  0  0  0  0
  188.8260  175.7370  145.0300 C   0  0  1  0  0  3  0  0  0  0  0  0
  189.6850  177.7690  147.1670 C   0  0  0  0  0  2  0  0  0  0  0  0
  190.2430  175.6170  145.6330 C   0  0  1  0  0  3  0  0  0  0  0  0
  187.9300  176.1840  142.6000 C   0  0  1  0  0  3  0  0  0  0  0  0
  191.1730  175.7270  144.4300 C   0  0  0  0  0  2  0  0  0  0  0  0
  188.1490  173.4850  142.0040 C   0  0  0  0  0  2  0  0  0  0  0  0
  188.1810  177.0920  145.4220 C   0  0  0  0  0  2  0  0  0  0  0  0
  188.2680  177.3440  146.9120 C   0  0  0  0  0  2  0  0  0  0  0  0
  190.6480  176.6060  146.7880 C   0  0  2  0  0  3  0  0  0  0  0  0
  188.2940  174.4710  140.8860 C   0  0  0  0  0  3  0  0  0  0  0  0
  183.8500  178.8570  144.2480 C   0  0  1  0  0  3  0  0  0  0  0  0
  185.1290  179.1400  144.9640 C   0  0  2  0  0  3  0  0  0  0  0  0
  185.1100  177.4000  142.4900 C   0  0  0  0  0  2  0  0  0  0  0  0
  187.8280  177.7310  142.7140 C   0  0  2  0  0  3  0  0  0  0  0  0
  186.3960  178.1150  142.9250 C   0  0  1  0  0  0  0  0  0  0  0  0
  187.0810  178.4690  141.7490 O   0  0  0  0  0  0  0  0  0  0  0  0
  186.3140  179.2320  143.9890 C   0  0  0  0  0  2  0  0  0  0  0  0
  183.9470  178.4190  142.7510 C   0  0  0  0  0  2  0  0  0  0  0  0
  184.4790  177.8790  145.0610 O   0  0  0  0  0  0  0  0  0  0  0  0
  190.6550  172.2080  144.3470 C   0  0  1  0  0  3  0  0  0  0  0  0
  190.3100  171.6550  142.9740 C   0  0  2  0  0  3  0  0  0  0  0  0
  191.9890  171.5380  144.1270 C   0  0  0  0  0  2  0  0  0  0  0  0
  191.6390  171.0730  142.7770 N   0  0  0  0  0  2  0  0  0  0  0  0
  190.4230  173.1810  143.1930 C   0  0  1  0  0  3  0  0  0  0  0  0
  191.2240  175.9780  147.9460 O   0  0  0  0  0  0  0  0  0  0  0  0
  191.6060  177.0140  148.7700 N   0  0  0  0  0  1  0  0  0  0  0  0
  1 10  1  6  0  0  0
  1  4  1  0  0  0  0
  3  9  1  0  0  0  0
  4  3  1  6  0  0  0
  4  5  1  0  0  0  0
  5 11  1  6  0  0  0
  5  7  1  0  0  0  0
  7  9  1  6  0  0  0
  7 13  1  0  0  0  0
  8  2  1  6  0  0  0
  8 18  1  0  0  0  0
  8  4  1  0  0  0  0
 11 12  1  0  0  0  0
 12  6  1  0  0  0  0
 13  6  1  0  0  0  0
 13 29  1  1  0  0  0
 14  2  2  0  0  0  0
 14 10  1  0  0  0  0
 15 22  1  6  0  0  0
 15 16  1  0  0  0  0
 15 23  1  0  0  0  0
 16 21  1  6  0  0  0
 16 23  1  0  0  0  0
 17 22  1  0  0  0  0
 18 20  1  6  0  0  0
 18 19  1  0  0  0  0
 19 17  1  6  0  0  0
 19 21  1  0  0  0  0
 20 19  1  0  0  0  0
 24 26  1  6  0  0  0
 25 27  1  6  0  0  0
 25 28  1  0  0  0  0
 25 24  1  0  0  0  0
 27 26  1  0  0  0  0
 28  1  1  1  0  0  0
 28 24  1  0  0  0  0
 29 30  1  0  0  0  0
M  END
>  <MODEL>
1

>  <REMARK>
 VINA RESULT:      -8.0      0.000      0.000
  Name = 
  3 active torsions:
  status: ('A' for Active; 'I' for Inactive)
    1  A    between atoms: C_2  and  C_16
    2  A    between atoms: O_14  and  C_25
    3  A    between atoms: C_17  and  C_18
                            x       y       z     vdW  Elec       q    Type
                         _______ _______ _______ _____ _____    ______ ____

>  <TORSDO>
F 3

$$$$
=
 OpenBabel11062419433D

 30 37  0  0  1  0  0  0  0  0999 V2000
  189.3730  174.1550  142.3280 C   0  0  1  0  0  3  0  0  0  0  0  0
  187.8660  176.5880  142.0260 C   0  0  0  0  0  3  0  0  0  0  0  0
  190.7120  176.1930  142.9850 N   0  0  0  0  0  2  0  0  0  0  0  0
  189.5630  175.3790  143.3910 C   0  0  2  0  0  0  0  0  0  0  0  0
  189.9710  174.7760  144.7740 C   0  0  1  0  0  3  0  0  0  0  0  0
  191.6920  175.6110  147.1770 C   0  0  0  0  0  2  0  0  0  0  0  0
  191.5030  174.6090  144.6760 C   0  0  1  0  0  3  0  0  0  0  0  0
  188.2210  176.2020  143.4280 C   0  0  1  0  0  3  0  0  0  0  0  0
  191.8950  175.4430  143.4620 C   0  0  0  0  0  2  0  0  0  0  0  0
  188.0600  174.2170  141.5000 C   0  0  0  0  0  2  0  0  0  0  0  0
  189.5960  175.6400  146.0060 C   0  0  0  0  0  2  0  0  0  0  0  0
  190.2690  175.1410  147.2670 C   0  0  0  0  0  2  0  0  0  0  0  0
  192.3740  174.9560  145.9400 C   0  0  2  0  0  3  0  0  0  0  0  0
  187.8040  175.6320  141.0820 C   0  0  0  0  0  3  0  0  0  0  0  0
  184.3920  177.8380  146.4580 C   0  0  1  0  0  3  0  0  0  0  0  0
  185.7000  177.6180  147.1450 C   0  0  2  0  0  3  0  0  0  0  0  0
  185.5070  177.4630  144.1300 C   0  0  0  0  0  2  0  0  0  0  0  0
  188.2460  177.4550  144.3480 C   0  0  2  0  0  3  0  0  0  0  0  0
  186.8530  177.7570  144.8070 C   0  0  1  0  0  0  0  0  0  0  0  0
  187.5490  178.6370  143.9610 O   0  0  0  0  0  0  0  0  0  0  0  0
  186.8750  178.1410  146.3030 C   0  0  0  0  0  2  0  0  0  0  0  0
  184.4340  178.2570  144.9530 C   0  0  0  0  0  2  0  0  0  0  0  0
  184.9510  176.5410  146.5960 O   0  0  0  0  0  0  0  0  0  0  0  0
  191.1950  172.3690  141.7520 C   0  0  1  0  0  3  0  0  0  0  0  0
  190.3270  172.5480  140.5170 C   0  0  2  0  0  3  0  0  0  0  0  0
  192.3070  172.1240  140.7620 C   0  0  0  0  0  2  0  0  0  0  0  0
  191.4470  172.3650  139.5940 N   0  0  0  0  0  2  0  0  0  0  0  0
  190.6010  173.7440  141.4580 C   0  0  1  0  0  3  0  0  0  0  0  0
  193.3250  173.9450  146.3150 O   0  0  0  0  0  0  0  0  0  0  0  0
  194.5150  174.3330  145.7370 N   0  0  0  0  0  1  0  0  0  0  0  0
  1 10  1  6  0  0  0
  1  4  1  0  0  0  0
  3  9  1  0  0  0  0
  4  3  1  6  0  0  0
  4  8  1  0  0  0  0
  4  5  1  0  0  0  0
  5 11  1  1  0  0  0
  6 12  1  0  0  0  0
  7  9  1  6  0  0  0
  7  5  1  0  0  0  0
  7 13  1  0  0  0  0
  8  2  1  6  0  0  0
  8 18  1  0  0  0  0
 11 12  1  0  0  0  0
 13 29  1  1  0  0  0
 13  6  1  0  0  0  0
 14 10  1  0  0  0  0
 14  2  2  0  0  0  0
 15 22  1  6  0  0  0
 15 23  1  0  0  0  0
 15 16  1  0  0  0  0
 16 21  1  6  0  0  0
 17 22  1  0  0  0  0
 18 20  1  6  0  0  0
 18 19  1  0  0  0  0
 19 17  1  6  0  0  0
 19 21  1  0  0  0  0
 20 19  1  0  0  0  0
 23 16  1  0  0  0  0
 24 26  1  6  0  0  0
 25 27  1  6  0  0  0
 25 28  1  0  0  0  0
 25 24  1  0  0  0  0
 27 26  1  0  0  0  0
 28 24  1  0  0  0  0
 28  1  1  1  0  0  0
 30 29  1  0  0  0  0
M  END
>  <MODEL>
2

>  <REMARK>
 VINA RESULT:      -7.4      1.990      2.335
  Name = 
  3 active torsions:
  status: ('A' for Active; 'I' for Inactive)
    1  A    between atoms: C_2  and  C_16
    2  A    between atoms: O_14  and  C_25
    3  A    between atoms: C_17  and  C_18
                            x       y       z     vdW  Elec       q    Type
                         _______ _______ _______ _____ _____    ______ ____

>  <TORSDO>
F 3

$$$$
=
 OpenBabel11062419433D

 30 37  0  0  1  0  0  0  0  0999 V2000
  188.1600  175.8490  146.0730 C   0  0  1  0  0  3  0  0  0  0  0  0
  190.9690  175.2310  146.1540 C   0  0  0  0  0  3  0  0  0  0  0  0
  189.4780  177.1890  144.3860 N   0  0  0  0  0  2  0  0  0  0  0  0
  189.0380  175.8260  144.6970 C   0  0  2  0  0  0  0  0  0  0  0  0
  188.0960  175.4330  143.5130 C   0  0  1  0  0  3  0  0  0  0  0  0
  187.8620  176.0600  140.5160 C   0  0  0  0  0  2  0  0  0  0  0  0
  187.4450  176.7670  143.0880 C   0  0  1  0  0  3  0  0  0  0  0  0
  190.2430  174.8340  144.9060 C   0  0  1  0  0  3  0  0  0  0  0  0
  188.3020  177.8340  143.7610 C   0  0  0  0  0  2  0  0  0  0  0  0
  188.8050  175.0880  147.2640 C   0  0  0  0  0  2  0  0  0  0  0  0
  188.8010  174.7630  142.3050 C   0  0  0  0  0  2  0  0  0  0  0  0
  187.8880  174.6780  141.1000 C   0  0  0  0  0  2  0  0  0  0  0  0
  187.2490  177.0460  141.5520 C   0  0  2  0  0  3  0  0  0  0  0  0
  190.2740  175.3750  147.2960 C   0  0  0  0  0  3  0  0  0  0  0  0
  191.4600  170.5680  142.2930 C   0  0  1  0  0  3  0  0  0  0  0  0
  190.9570  171.7020  141.4630 C   0  0  2  0  0  3  0  0  0  0  0  0
  191.5510  172.0990  144.4010 C   0  0  0  0  0  2  0  0  0  0  0  0
  191.2290  174.7380  143.7090 C   0  0  2  0  0  3  0  0  0  0  0  0
  191.5430  173.2980  143.4430 C   0  0  1  0  0  0  0  0  0  0  0  0
  192.5310  174.1890  143.9000 O   0  0  0  0  0  0  0  0  0  0  0  0
  191.5510  173.0440  141.9200 C   0  0  0  0  0  2  0  0  0  0  0  0
  192.2230  170.9250  143.6090 C   0  0  0  0  0  2  0  0  0  0  0  0
  190.1200  171.0250  142.3920 O   0  0  0  0  0  0  0  0  0  0  0  0
  186.0390  177.3760  146.1980 C   0  0  1  0  0  3  0  0  0  0  0  0
  186.4580  177.0600  147.6240 C   0  0  2  0  0  3  0  0  0  0  0  0
  185.5960  178.7000  146.7690 C   0  0  0  0  0  2  0  0  0  0  0  0
  186.0700  178.3800  148.1240 N   0  0  0  0  0  2  0  0  0  0  0  0
  187.5240  177.2030  146.5130 C   0  0  1  0  0  3  0  0  0  0  0  0
  185.9280  177.4750  141.1810 O   0  0  0  0  0  0  0  0  0  0  0  0
  185.1970  177.4560  142.3490 N   0  0  0  0  0  1  0  0  0  0  0  0
  1 10  1  1  0  0  0
  2 14  2  0  0  0  0
  4  3  1  6  0  0  0
  4  8  1  0  0  0  0
  4  1  1  0  0  0  0
  5 11  1  6  0  0  0
  5  4  1  0  0  0  0
  6 12  1  0  0  0  0
  6 13  1  0  0  0  0
  7  5  1  0  0  0  0
  7  9  1  6  0  0  0
  8  2  1  1  0  0  0
  9  3  1  0  0  0  0
 10 14  1  0  0  0  0
 12 11  1  0  0  0  0
 13 29  1  1  0  0  0
 13  7  1  0  0  0  0
 15 23  1  0  0  0  0
 15 22  1  1  0  0  0
 16 21  1  1  0  0  0
 16 15  1  0  0  0  0
 16 23  1  0  0  0  0
 18 20  1  1  0  0  0
 18  8  1  0  0  0  0
 19 21  1  6  0  0  0
 19 18  1  0  0  0  0
 19 20  1  0  0  0  0
 19 17  1  0  0  0  0
 22 17  1  0  0  0  0
 24 28  1  0  0  0  0
 24 26  1  1  0  0  0
 24 25  1  0  0  0  0
 25 27  1  1  0  0  0
 26 27  1  0  0  0  0
 28  1  1  6  0  0  0
 28 25  1  0  0  0  0
 29 30  1  0  0  0  0
M  END
>  <MODEL>
3

>  <REMARK>
 VINA RESULT:      -7.4      2.523      7.192
  Name = 
  3 active torsions:
  status: ('A' for Active; 'I' for Inactive)
    1  A    between atoms: C_2  and  C_16
    2  A    between atoms: O_14  and  C_25
    3  A    between atoms: C_17  and  C_18
                            x       y       z     vdW  Elec       q    Type
                         _______ _______ _______ _____ _____    ______ ____

>  <TORSDO>
F 3

$$$$
=
 OpenBabel11062419433D

 30 37  0  0  1  0  0  0  0  0999 V2000
  188.0910  177.6170  143.6110 C   0  0  1  0  0  3  0  0  0  0  0  0
  188.0050  174.9680  142.4920 C   0  0  0  0  0  3  0  0  0  0  0  0
  188.0300  175.8320  145.3960 N   0  0  0  0  0  2  0  0  0  0  0  0
  188.8810  176.3890  144.3400 C   0  0  2  0  0  0  0  0  0  0  0  0
  190.1180  176.9740  145.0950 C   0  0  1  0  0  3  0  0  0  0  0  0
  191.7160  176.3330  147.6390 C   0  0  0  0  0  2  0  0  0  0  0  0
  189.5500  177.4310  146.4560 C   0  0  1  0  0  3  0  0  0  0  0  0
  189.2520  175.3280  143.2380 C   0  0  1  0  0  3  0  0  0  0  0  0
  188.1840  176.7600  146.5370 C   0  0  0  0  0  2  0  0  0  0  0  0
  187.7320  177.3610  142.1210 C   0  0  0  0  0  2  0  0  0  0  0  0
  191.2930  175.9820  145.3010 C   0  0  0  0  0  2  0  0  0  0  0  0
  192.3180  176.5220  146.2760 C   0  0  0  0  0  2  0  0  0  0  0  0
  190.4130  177.1780  147.7480 C   0  0  2  0  0  3  0  0  0  0  0  0
  187.2530  175.9500  141.9640 C   0  0  0  0  0  3  0  0  0  0  0  0
  193.6360  173.2990  141.4570 C   0  0  1  0  0  3  0  0  0  0  0  0
  193.6180  173.5940  142.9210 C   0  0  2  0  0  3  0  0  0  0  0  0
  191.0920  173.8400  141.2770 C   0  0  0  0  0  2  0  0  0  0  0  0
  189.9570  174.0490  143.7700 C   0  0  2  0  0  3  0  0  0  0  0  0
  191.0110  173.6260  142.7950 C   0  0  1  0  0  0  0  0  0  0  0  0
  189.8760  172.8320  143.0320 O   0  0  0  0  0  0  0  0  0  0  0  0
  192.2800  173.1920  143.5620 C   0  0  0  0  0  2  0  0  0  0  0  0
  192.2740  172.9370  140.7810 C   0  0  0  0  0  2  0  0  0  0  0  0
  193.5750  174.6290  141.9470 O   0  0  0  0  0  0  0  0  0  0  0  0
  185.9230  179.0800  143.5390 C   0  0  1  0  0  3  0  0  0  0  0  0
  185.5320  177.7120  144.0740 C   0  0  2  0  0  3  0  0  0  0  0  0
  184.8390  179.5930  144.4550 C   0  0  0  0  0  2  0  0  0  0  0  0
  184.5320  178.2590  144.9930 N   0  0  0  0  0  2  0  0  0  0  0  0
  186.9260  178.3030  144.3890 C   0  0  1  0  0  3  0  0  0  0  0  0
  190.5770  178.3250  148.5980 O   0  0  0  0  0  0  0  0  0  0  0  0
  191.5370  177.9610  149.5190 N   0  0  0  0  0  1  0  0  0  0  0  0
  1 10  1  6  0  0  0
  1  4  1  0  0  0  0
  3  9  1  0  0  0  0
  4  5  1  0  0  0  0
  4  3  1  1  0  0  0
  5 11  1  1  0  0  0
  5  7  1  0  0  0  0
  6 13  1  0  0  0  0
  7  9  1  1  0  0  0
  7 13  1  0  0  0  0
  8  2  1  1  0  0  0
  8 18  1  0  0  0  0
  8  4  1  0  0  0  0
 11 12  1  0  0  0  0
 12  6  1  0  0  0  0
 13 29  1  6  0  0  0
 14 10  1  0  0  0  0
 14  2  2  0  0  0  0
 15 22  1  6  0  0  0
 15 23  1  0  0  0  0
 15 16  1  0  0  0  0
 16 21  1  6  0  0  0
 18 20  1  6  0  0  0
 19 17  1  6  0  0  0
 19 20  1  0  0  0  0
 19 21  1  0  0  0  0
 19 18  1  0  0  0  0
 22 17  1  0  0  0  0
 23 16  1  0  0  0  0
 24 25  1  0  0  0  0
 24 28  1  0  0  0  0
 24 26  1  1  0  0  0
 25 28  1  0  0  0  0
 25 27  1  1  0  0  0
 26 27  1  0  0  0  0
 28  1  1  6  0  0  0
 29 30  1  0  0  0  0
M  END
>  <MODEL>
4

>  <REMARK>
 VINA RESULT:      -7.3      2.577      6.281
  Name = 
  3 active torsions:
  status: ('A' for Active; 'I' for Inactive)
    1  A    between atoms: C_2  and  C_16
    2  A    between atoms: O_14  and  C_25
    3  A    between atoms: C_17  and  C_18
                            x       y       z     vdW  Elec       q    Type
                         _______ _______ _______ _____ _____    ______ ____

>  <TORSDO>
F 3

$$$$
=
 OpenBabel11062419433D

 30 37  0  0  1  0  0  0  0  0999 V2000
  192.1400  176.0510  145.0510 C   0  0  1  0  0  3  0  0  0  0  0  0
  190.4640  175.8330  147.3780 C   0  0  0  0  0  3  0  0  0  0  0  0
  190.6890  173.9850  144.9890 N   0  0  0  0  0  2  0  0  0  0  0  0
  190.6290  175.4480  144.9240 C   0  0  2  0  0  0  0  0  0  0  0  0
  190.0890  175.7590  143.4900 C   0  0  1  0  0  3  0  0  0  0  0  0
  188.2040  174.4410  141.4560 C   0  0  0  0  0  2  0  0  0  0  0  0
  190.6340  174.6060  142.6210 C   0  0  1  0  0  3  0  0  0  0  0  0
  189.7590  176.0700  146.0790 C   0  0  1  0  0  3  0  0  0  0  0  0
  191.0960  173.5610  143.6310 C   0  0  0  0  0  2  0  0  0  0  0  0
  192.3970  176.8860  146.3350 C   0  0  0  0  0  2  0  0  0  0  0  0
  188.5450  175.8460  143.3720 C   0  0  0  0  0  2  0  0  0  0  0  0
  188.0930  175.8620  141.9270 C   0  0  0  0  0  2  0  0  0  0  0  0
  189.6920  173.9910  141.5210 C   0  0  2  0  0  3  0  0  0  0  0  0
  191.7490  176.2090  147.5030 C   0  0  0  0  0  3  0  0  0  0  0  0
  185.4970  178.9590  146.0860 C   0  0  1  0  0  3  0  0  0  0  0  0
  185.5530  177.9070  145.0280 C   0  0  2  0  0  3  0  0  0  0  0  0
  187.6530  178.0070  147.2010 C   0  0  0  0  0  2  0  0  0  0  0  0
  188.2960  175.5510  146.1500 C   0  0  2  0  0  3  0  0  0  0  0  0
  187.3800  176.6990  146.4460 C   0  0  1  0  0  0  0  0  0  0  0  0
  187.5620  175.6530  147.3680 O   0  0  0  0  0  0  0  0  0  0  0  0
  186.1100  176.5830  145.5760 C   0  0  0  0  0  2  0  0  0  0  0  0
  186.2500  178.6710  147.4250 C   0  0  0  0  0  2  0  0  0  0  0  0
  186.4380  179.0200  145.0260 O   0  0  0  0  0  0  0  0  0  0  0  0
  194.1310  175.4630  143.4570 C   0  0  1  0  0  3  0  0  0  0  0  0
  194.7190  175.7900  144.8200 C   0  0  2  0  0  3  0  0  0  0  0  0
  195.2820  174.4940  143.3480 C   0  0  0  0  0  2  0  0  0  0  0  0
  195.7840  174.7930  144.6970 N   0  0  0  0  0  2  0  0  0  0  0  0
  193.3350  175.1080  144.7120 C   0  0  1  0  0  3  0  0  0  0  0  0
  190.2840  173.8760  140.2150 O   0  0  0  0  0  0  0  0  0  0  0  0
  189.2410  173.5600  139.3700 N   0  0  0  0  0  1  0  0  0  0  0  0
  1 10  1  1  0  0  0
  2 14  2  0  0  0  0
  4  3  1  1  0  0  0
  4  1  1  0  0  0  0
  4  8  1  0  0  0  0
  5 11  1  1  0  0  0
  5  4  1  0  0  0  0
  6 13  1  0  0  0  0
  6 12  1  0  0  0  0
  7  5  1  0  0  0  0
  7  9  1  1  0  0  0
  8 18  1  0  0  0  0
  8  2  1  1  0  0  0
  9  3  1  0  0  0  0
 10 14  1  0  0  0  0
 12 11  1  0  0  0  0
 13 29  1  6  0  0  0
 13  7  1  0  0  0  0
 15 22  1  1  0  0  0
 16 21  1  1  0  0  0
 16 15  1  0  0  0  0
 17 22  1  0  0  0  0
 18 19  1  0  0  0  0
 18 20  1  1  0  0  0
 19 21  1  6  0  0  0
 19 17  1  0  0  0  0
 19 20  1  0  0  0  0
 23 16  1  0  0  0  0
 23 15  1  0  0  0  0
 24 26  1  1  0  0  0
 24 28  1  0  0  0  0
 24 25  1  0  0  0  0
 25 27  1  1  0  0  0
 26 27  1  0  0  0  0
 28 25  1  0  0  0  0
 28  1  1  6  0  0  0
 30 29  1  0  0  0  0
M  END
>  <MODEL>
5

>  <REMARK>
 VINA RESULT:      -7.3      2.567      5.113
  Name = 
  3 active torsions:
  status: ('A' for Active; 'I' for Inactive)
    1  A    between atoms: C_2  and  C_16
    2  A    between atoms: O_14  and  C_25
    3  A    between atoms: C_17  and  C_18
                            x       y       z     vdW  Elec       q    Type
                         _______ _______ _______ _____ _____    ______ ____

>  <TORSDO>
F 3

$$$$
=
 OpenBabel11062419433D

 30 37  0  0  1  0  0  0  0  0999 V2000
  189.9550  175.0760  145.9110 C   0  0  1  0  0  3  0  0  0  0  0  0
  192.4820  176.4190  146.2060 C   0  0  0  0  0  3  0  0  0  0  0  0
  190.5850  176.3840  143.8440 N   0  0  0  0  0  2  0  0  0  0  0  0
  190.9680  175.2130  144.6390 C   0  0  2  0  0  0  0  0  0  0  0  0
  190.7380  173.9950  143.6870 C   0  0  1  0  0  3  0  0  0  0  0  0
  190.8800  173.4320  140.6710 C   0  0  0  0  0  2  0  0  0  0  0  0
  189.5490  174.4260  142.8010 C   0  0  1  0  0  3  0  0  0  0  0  0
  192.4370  175.3150  145.1970 C   0  0  1  0  0  3  0  0  0  0  0  0
  189.4380  175.9290  143.0290 C   0  0  0  0  0  2  0  0  0  0  0  0
  190.6270  175.2770  147.2970 C   0  0  0  0  0  2  0  0  0  0  0  0
  191.9560  173.6040  142.8100 C   0  0  0  0  0  2  0  0  0  0  0  0
  191.5740  172.6200  141.7260 C   0  0  0  0  0  2  0  0  0  0  0  0
  189.5870  174.0590  141.2710 C   0  0  2  0  0  3  0  0  0  0  0  0
  191.5950  176.4170  147.2170 C   0  0  0  0  0  3  0  0  0  0  0  0
  196.8750  172.7280  144.8370 C   0  0  1  0  0  3  0  0  0  0  0  0
  196.0250  172.7110  143.6090 C   0  0  2  0  0  3  0  0  0  0  0  0
  195.2960  174.4790  145.9520 C   0  0  0  0  0  2  0  0  0  0  0  0
  193.5360  175.5180  144.1170 C   0  0  2  0  0  3  0  0  0  0  0  0
  194.7830  174.8080  144.5430 C   0  0  1  0  0  0  0  0  0  0  0  0
  194.7390  176.2100  144.4450 O   0  0  0  0  0  0  0  0  0  0  0  0
  195.4110  174.0920  143.3270 C   0  0  0  0  0  2  0  0  0  0  0  0
  196.7720  173.9830  145.7630 C   0  0  0  0  0  2  0  0  0  0  0  0
  195.6210  172.0650  144.8090 O   0  0  0  0  0  0  0  0  0  0  0  0
  187.8630  176.0410  147.1510 C   0  0  1  0  0  3  0  0  0  0  0  0
  188.5450  177.1980  146.4400 C   0  0  2  0  0  3  0  0  0  0  0  0
  186.5890  176.7970  146.8610 C   0  0  0  0  0  2  0  0  0  0  0  0
  187.2810  177.8670  146.1270 N   0  0  0  0  0  2  0  0  0  0  0  0
  188.5670  175.7810  145.8200 C   0  0  1  0  0  3  0  0  0  0  0  0
  188.3950  173.4310  140.7710 O   0  0  0  0  0  0  0  0  0  0  0  0
  187.8160  172.8250  141.8660 N   0  0  0  0  0  1  0  0  0  0  0  0
  1 10  1  1  0  0  0
  2 14  2  0  0  0  0
  4  3  1  6  0  0  0
  4  8  1  0  0  0  0
  4  1  1  0  0  0  0
  5 11  1  6  0  0  0
  5  4  1  0  0  0  0
  6 13  1  0  0  0  0
  6 12  1  0  0  0  0
  7  9  1  6  0  0  0
  7  5  1  0  0  0  0
  8  2  1  1  0  0  0
  9  3  1  0  0  0  0
 12 11  1  0  0  0  0
 13 29  1  1  0  0  0
 13  7  1  0  0  0  0
 14 10  1  0  0  0  0
 15 22  1  1  0  0  0
 16 21  1  1  0  0  0
 16 23  1  0  0  0  0
 16 15  1  0  0  0  0
 18 20  1  1  0  0  0
 18 19  1  0  0  0  0
 18  8  1  0  0  0  0
 19 21  1  6  0  0  0
 19 17  1  0  0  0  0
 20 19  1  0  0  0  0
 22 17  1  0  0  0  0
 23 15  1  0  0  0  0
 24 26  1  6  0  0  0
 25 27  1  6  0  0  0
 25 24  1  0  0  0  0
 27 26  1  0  0  0  0
 28  1  1  1  0  0  0
 28 25  1  0  0  0  0
 28 24  1  0  0  0  0
 29 30  1  0  0  0  0
M  END
>  <MODEL>
6

>  <REMARK>
 VINA RESULT:      -7.0      3.191      8.011
  Name = 
  3 active torsions:
  status: ('A' for Active; 'I' for Inactive)
    1  A    between atoms: C_2  and  C_16
    2  A    between atoms: O_14  and  C_25
    3  A    between atoms: C_17  and  C_18
                            x       y       z     vdW  Elec       q    Type
                         _______ _______ _______ _____ _____    ______ ____

>  <TORSDO>
F 3

$$$$
=
 OpenBabel11062419433D

 30 37  0  0  1  0  0  0  0  0999 V2000
  188.6240  175.7870  144.8950 C   0  0  1  0  0  3  0  0  0  0  0  0
  191.0950  177.2190  145.2440 C   0  0  0  0  0  3  0  0  0  0  0  0
  189.6000  176.5510  142.6950 N   0  0  0  0  0  2  0  0  0  0  0  0
  189.8300  175.6260  143.8080 C   0  0  2  0  0  0  0  0  0  0  0  0
  189.7330  174.2030  143.1680 C   0  0  1  0  0  3  0  0  0  0  0  0
  190.3460  172.9080  140.4510 C   0  0  0  0  0  2  0  0  0  0  0  0
  188.7100  174.3710  142.0240 C   0  0  1  0  0  3  0  0  0  0  0  0
  191.1920  175.8970  144.5490 C   0  0  1  0  0  3  0  0  0  0  0  0
  188.5900  175.8810  141.8470 C   0  0  0  0  0  2  0  0  0  0  0  0
  189.0690  176.3440  146.2760 C   0  0  0  0  0  2  0  0  0  0  0  0
  191.0690  173.6340  142.6220 C   0  0  0  0  0  2  0  0  0  0  0  0
  190.8470  172.4010  141.7720 C   0  0  0  0  0  2  0  0  0  0  0  0
  188.9860  173.6350  140.6610 C   0  0  2  0  0  3  0  0  0  0  0  0
  190.0570  177.4500  146.0680 C   0  0  0  0  0  3  0  0  0  0  0  0
  195.5680  173.3710  145.5410 C   0  0  1  0  0  3  0  0  0  0  0  0
  194.9240  173.0420  144.2340 C   0  0  2  0  0  3  0  0  0  0  0  0
  193.8740  175.3150  145.9320 C   0  0  0  0  0  2  0  0  0  0  0  0
  192.4530  175.8500  143.6420 C   0  0  2  0  0  3  0  0  0  0  0  0
  193.6000  175.2840  144.4220 C   0  0  1  0  0  0  0  0  0  0  0  0
  193.6040  176.6190  143.9810 O   0  0  0  0  0  0  0  0  0  0  0  0
  194.3950  174.3040  143.5320 C   0  0  0  0  0  2  0  0  0  0  0  0
  195.3490  174.8110  146.1070 C   0  0  0  0  0  2  0  0  0  0  0  0
  194.3190  172.7010  145.4750 O   0  0  0  0  0  0  0  0  0  0  0  0
  186.3910  177.0090  145.5010 C   0  0  1  0  0  3  0  0  0  0  0  0
  187.1970  177.9460  144.6170 C   0  0  2  0  0  3  0  0  0  0  0  0
  185.1930  177.6350  144.8310 C   0  0  0  0  0  2  0  0  0  0  0  0
  186.0100  178.4810  143.9490 N   0  0  0  0  0  2  0  0  0  0  0  0
  187.2810  176.4160  144.4110 C   0  0  1  0  0  3  0  0  0  0  0  0
  187.8780  172.8740  140.1510 O   0  0  0  0  0  0  0  0  0  0  0  0
  188.2230  172.5510  138.8560 N   0  0  0  0  0  1  0  0  0  0  0  0
  1 10  1  1  0  0  0
  2 14  2  0  0  0  0
  4  3  1  6  0  0  0
  4  8  1  0  0  0  0
  4  1  1  0  0  0  0
  5 11  1  6  0  0  0
  5  4  1  0  0  0  0
  6 13  1  0  0  0  0
  6 12  1  0  0  0  0
  7  9  1  6  0  0  0
  7  5  1  0  0  0  0
  8  2  1  6  0  0  0
  9  3  1  0  0  0  0
 12 11  1  0  0  0  0
 13 29  1  1  0  0  0
 13  7  1  0  0  0  0
 14 10  1  0  0  0  0
 15 22  1  1  0  0  0
 16 21  1  1  0  0  0
 16 23  1  0  0  0  0
 16 15  1  0  0  0  0
 17 22  1  0  0  0  0
 18 20  1  1  0  0  0
 18 19  1  0  0  0  0
 18  8  1  0  0  0  0
 19 21  1  6  0  0  0
 19 17  1  0  0  0  0
 20 19  1  0  0  0  0
 23 15  1  0  0  0  0
 24 26  1  6  0  0  0
 25 27  1  6  0  0  0
 25 24  1  0  0  0  0
 27 26  1  0  0  0  0
 28 25  1  0  0  0  0
 28  1  1  1  0  0  0
 28 24  1  0  0  0  0
 30 29  1  0  0  0  0
M  END
>  <MODEL>
7

>  <REMARK>
 VINA RESULT:      -7.0      2.891      7.657
  Name = 
  3 active torsions:
  status: ('A' for Active; 'I' for Inactive)
    1  A    between atoms: C_2  and  C_16
    2  A    between atoms: O_14  and  C_25
    3  A    between atoms: C_17  and  C_18
                            x       y       z     vdW  Elec       q    Type
                         _______ _______ _______ _____ _____    ______ ____

>  <TORSDO>
F 3

$$$$
=
 OpenBabel11062419433D

 30 37  0  0  1  0  0  0  0  0999 V2000
  189.7730  172.9760  142.8810 C   0  0  1  0  0  3  0  0  0  0  0  0
  188.0350  175.1710  142.2200 C   0  0  0  0  0  3  0  0  0  0  0  0
  191.0410  175.1400  142.5910 N   0  0  0  0  0  2  0  0  0  0  0  0
  190.0740  174.4690  143.4650 C   0  0  2  0  0  0  0  0  0  0  0  0
  190.8110  174.3270  144.8360 C   0  0  1  0  0  3  0  0  0  0  0  0
  192.9160  175.8890  146.4370 C   0  0  0  0  0  2  0  0  0  0  0  0
  192.2980  174.1650  144.4530 C   0  0  1  0  0  3  0  0  0  0  0  0
  188.7050  175.2410  143.5570 C   0  0  1  0  0  3  0  0  0  0  0  0
  192.3570  174.5940  142.9910 C   0  0  0  0  0  2  0  0  0  0  0  0
  188.3160  172.7570  142.3870 C   0  0  0  0  0  2  0  0  0  0  0  0
  190.6270  175.5210  145.8100 C   0  0  0  0  0  2  0  0  0  0  0  0
  191.5880  175.4440  146.9780 C   0  0  0  0  0  2  0  0  0  0  0  0
  193.3790  174.8990  145.3290 C   0  0  2  0  0  3  0  0  0  0  0  0
  187.8600  173.9710  141.6380 C   0  0  0  0  0  3  0  0  0  0  0  0
  185.6030  177.5870  146.9310 C   0  0  1  0  0  3  0  0  0  0  0  0
  187.0580  177.6360  147.2620 C   0  0  2  0  0  3  0  0  0  0  0  0
  186.1280  176.5560  144.5940 C   0  0  0  0  0  2  0  0  0  0  0  0
  188.8130  176.7150  144.0360 C   0  0  2  0  0  3  0  0  0  0  0  0
  187.5570  177.0920  144.7580 C   0  0  1  0  0  0  0  0  0  0  0  0
  187.9060  177.6960  143.5370 O   0  0  0  0  0  0  0  0  0  0  0  0
  187.9120  177.9170  146.0140 C   0  0  0  0  0  2  0  0  0  0  0  0
  185.2120  177.5250  145.4200 C   0  0  0  0  0  2  0  0  0  0  0  0
  186.3280  176.4160  147.2730 O   0  0  0  0  0  0  0  0  0  0  0  0
  191.5690  171.1210  142.4580 C   0  0  1  0  0  3  0  0  0  0  0  0
  190.4550  170.9150  141.4450 C   0  0  2  0  0  3  0  0  0  0  0  0
  192.4690  170.6060  141.3630 C   0  0  0  0  0  2  0  0  0  0  0  0
  191.3730  170.4800  140.3910 N   0  0  0  0  0  2  0  0  0  0  0  0
  190.8240  172.3400  141.9190 C   0  0  1  0  0  3  0  0  0  0  0  0
  194.4690  174.0680  145.7630 O   0  0  0  0  0  0  0  0  0  0  0  0
  195.5580  174.9100  145.8430 N   0  0  0  0  0  1  0  0  0  0  0  0
  1 10  1  6  0  0  0
  1  4  1  0  0  0  0
  3  9  1  0  0  0  0
  4  3  1  6  0  0  0
  4  8  1  0  0  0  0
  4  5  1  0  0  0  0
  5 11  1  1  0  0  0
  6 12  1  0  0  0  0
  7  9  1  6  0  0  0
  7  5  1  0  0  0  0
  7 13  1  0  0  0  0
  8  2  1  6  0  0  0
  8 18  1  0  0  0  0
 11 12  1  0  0  0  0
 13 29  1  1  0  0  0
 13  6  1  0  0  0  0
 14  2  2  0  0  0  0
 14 10  1  0  0  0  0
 15 22  1  6  0  0  0
 15 16  1  0  0  0  0
 15 23  1  0  0  0  0
 16 21  1  6  0  0  0
 16 23  1  0  0  0  0
 17 22  1  0  0  0  0
 18 20  1  6  0  0  0
 18 19  1  0  0  0  0
 19 17  1  1  0  0  0
 19 21  1  0  0  0  0
 20 19  1  0  0  0  0
 24 26  1  6  0  0  0
 25 27  1  6  0  0  0
 25 28  1  0  0  0  0
 25 24  1  0  0  0  0
 27 26  1  0  0  0  0
 28 24  1  0  0  0  0
 28  1  1  1  0  0  0
 29 30  1  0  0  0  0
M  END
>  <MODEL>
8

>  <REMARK>
 VINA RESULT:      -7.0      2.137      2.737
  Name = 
  3 active torsions:
  status: ('A' for Active; 'I' for Inactive)
    1  A    between atoms: C_2  and  C_16
    2  A    between atoms: O_14  and  C_25
    3  A    between atoms: C_17  and  C_18
                            x       y       z     vdW  Elec       q    Type
                         _______ _______ _______ _____ _____    ______ ____

>  <TORSDO>
F 3

$$$$
=
 OpenBabel11062419433D

 30 37  0  0  1  0  0  0  0  0999 V2000
  191.7480  175.8860  144.2020 C   0  0  1  0  0  3  0  0  0  0  0  0
  189.6490  176.4870  146.0770 C   0  0  0  0  0  3  0  0  0  0  0  0
  190.1920  173.9280  144.5490 N   0  0  0  0  0  2  0  0  0  0  0  0
  190.2490  175.2790  143.9840 C   0  0  2  0  0  0  0  0  0  0  0  0
  190.0140  175.0780  142.4510 C   0  0  1  0  0  3  0  0  0  0  0  0
  188.4590  173.1410  140.6450 C   0  0  0  0  0  2  0  0  0  0  0  0
  190.6300  173.6940  142.1520 C   0  0  1  0  0  3  0  0  0  0  0  0
  189.2230  176.2620  144.6600 C   0  0  1  0  0  3  0  0  0  0  0  0
  190.8170  173.0610  143.5260 C   0  0  0  0  0  2  0  0  0  0  0  0
  191.8150  177.1130  145.1530 C   0  0  0  0  0  2  0  0  0  0  0  0
  188.5300  175.1210  142.0010 C   0  0  0  0  0  2  0  0  0  0  0  0
  188.3620  174.6370  140.5760 C   0  0  0  0  0  2  0  0  0  0  0  0
  189.8720  172.7390  141.1580 C   0  0  2  0  0  3  0  0  0  0  0  0
  190.9110  176.8820  146.3250 C   0  0  0  0  0  3  0  0  0  0  0  0
  185.2400  179.0140  142.9050 C   0  0  1  0  0  3  0  0  0  0  0  0
  185.4170  177.6730  142.2720 C   0  0  2  0  0  3  0  0  0  0  0  0
  187.0840  178.4690  144.6670 C   0  0  0  0  0  2  0  0  0  0  0  0
  187.7390  175.8020  144.6050 C   0  0  2  0  0  3  0  0  0  0  0  0
  186.8650  176.9870  144.3320 C   0  0  1  0  0  0  0  0  0  0  0  0
  186.8020  176.3000  145.5570 O   0  0  0  0  0  0  0  0  0  0  0  0
  185.7720  176.5990  143.3130 C   0  0  0  0  0  2  0  0  0  0  0  0
  185.7120  179.1760  144.3860 C   0  0  0  0  0  2  0  0  0  0  0  0
  186.3620  178.7210  142.0880 O   0  0  0  0  0  0  0  0  0  0  0  0
  193.9890  174.8270  143.3660 C   0  0  1  0  0  3  0  0  0  0  0  0
  194.2880  175.5620  144.6630 C   0  0  2  0  0  3  0  0  0  0  0  0
  195.0620  173.8700  143.8250 C   0  0  0  0  0  2  0  0  0  0  0  0
  195.2780  174.5750  145.0970 N   0  0  0  0  0  2  0  0  0  0  0  0
  192.9150  174.8820  144.4510 C   0  0  1  0  0  3  0  0  0  0  0  0
  190.6900  172.1800  140.1160 O   0  0  0  0  0  0  0  0  0  0  0  0
  191.4320  173.2350  139.6300 N   0  0  0  0  0  1  0  0  0  0  0  0
  1 10  1  1  0  0  0
  2 14  2  0  0  0  0
  4  1  1  0  0  0  0
  4  3  1  1  0  0  0
  4  8  1  0  0  0  0
  5 11  1  1  0  0  0
  5  4  1  0  0  0  0
  6 13  1  0  0  0  0
  7  5  1  0  0  0  0
  7  9  1  1  0  0  0
  8  2  1  1  0  0  0
  9  3  1  0  0  0  0
 10 14  1  0  0  0  0
 12  6  1  0  0  0  0
 12 11  1  0  0  0  0
 13 29  1  6  0  0  0
 13  7  1  0  0  0  0
 15 22  1  1  0  0  0
 16 15  1  0  0  0  0
 16 21  1  1  0  0  0
 18  8  1  0  0  0  0
 18 20  1  1  0  0  0
 19 21  1  6  0  0  0
 19 18  1  0  0  0  0
 19 17  1  0  0  0  0
 19 20  1  0  0  0  0
 22 17  1  0  0  0  0
 23 16  1  0  0  0  0
 23 15  1  0  0  0  0
 24 26  1  1  0  0  0
 24 28  1  0  0  0  0
 24 25  1  0  0  0  0
 25 27  1  1  0  0  0
 26 27  1  0  0  0  0
 28  1  1  6  0  0  0
 28 25  1  0  0  0  0
 30 29  1  0  0  0  0
M  END
>  <MODEL>
9

>  <REMARK>
 VINA RESULT:      -6.8      2.461      4.843
  Name = 
  3 active torsions:
  status: ('A' for Active; 'I' for Inactive)
    1  A    between atoms: C_2  and  C_16
    2  A    between atoms: O_14  and  C_25
    3  A    between atoms: C_17  and  C_18
                            x       y       z     vdW  Elec       q    Type
                         _______ _______ _______ _____ _____    ______ ____

>  <TORSDO>
F 3

$$$$
