=
 OpenBabel11072409293D

 40 41  0  0  1  0  0  0  0  0999 V2000
  189.6110  176.8060  146.6700 O   0  0  0  0  0  0  0  0  0  0  0  0
  190.0350  175.7150  147.0280 C   0  0  0  0  0  0  0  0  0  0  0  0
  191.6620  177.0240  148.4150 C   0  0  0  0  0  1  0  0  0  0  0  0
  191.2830  175.6520  147.8620 C   0  0  2  0  0  3  0  0  0  0  0  0
  192.4080  175.0720  147.0160 C   0  0  0  0  0  2  0  0  0  0  0  0
  192.9010  176.0580  145.9690 C   0  0  0  0  0  2  0  0  0  0  0  0
  194.4110  176.2350  146.0800 C   0  0  2  0  0  3  0  0  0  0  0  0
  194.6930  177.6520  146.2510 N   0  0  0  0  0  1  0  0  0  0  0  0
  195.1570  175.6880  144.8490 C   0  0  1  0  0  3  0  0  0  0  0  0
  194.2000  174.9170  143.9280 C   0  0  1  0  0  3  0  0  0  0  0  0
  193.9450  175.6060  142.7360 O   0  0  0  0  0  1  0  0  0  0  0  0
  194.6250  173.4620  143.6780 C   0  0  1  0  0  3  0  0  0  0  0  0
  195.5270  172.7950  145.1130 S   0  0  0  0  0  1  0  0  0  0  0  0
  192.2320  171.5360  141.4580 C   0  0  0  0  0  3  0  0  0  0  0  0
  193.2630  172.3780  141.8890 C   0  0  0  0  0  3  0  0  0  0  0  0
  191.7020  171.0070  143.7610 C   0  0  0  0  0  3  0  0  0  0  0  0
  193.5150  172.5430  143.2530 C   0  0  0  0  0  0  0  0  0  0  0  0
  191.4480  170.8550  142.3940 C   0  0  0  0  0  0  0  0  0  0  0  0
  192.7350  171.8470  144.1910 C   0  0  0  0  0  3  0  0  0  0  0  0
  190.4220  170.0200  141.9690 O   0  0  0  0  0  1  0  0  0  0  0  0
  197.0550  176.3180  143.5350 O   0  0  0  0  0  1  0  0  0  0  0  0
  195.8650  176.8040  144.0830 C   0  0  0  0  0  2  0  0  0  0  0  0
  189.2670  174.4710  146.6720 C   0  0  0  0  0  2  0  0  0  0  0  0
  189.8050  173.8170  145.4080 C   0  0  0  0  0  2  0  0  0  0  0  0
  190.3360  174.4550  143.0920 C   0  0  0  0  0  2  0  0  0  0  0  0
  189.7050  174.7470  144.2400 C   0  0  0  0  0  2  0  0  0  0  0  0
  189.3590  174.2240  142.8560 C   0  0  0  0  0  2  0  0  0  0  0  0
  188.0590  174.6890  142.4500 O   0  0  0  0  0  0  0  0  0  0  0  0
  188.2750  175.3950  141.2640 C   0  0  0  0  0  2  0  0  0  0  0  0
  187.5760  176.7370  141.3430 C   0  0  0  0  0  2  0  0  0  0  0  0
  187.5870  177.8720  143.6240 N   0  0  0  0  0  2  0  0  0  0  0  0
  188.2320  177.5890  142.3770 C   0  0  0  0  0  0  0  0  0  0  0  0
  189.3820  178.0520  142.1560 O   0  0  0  0  0  0  0  0  0  0  0  0
  186.2790  177.3340  143.9820 C   0  0  2  0  0  3  0  0  0  0  0  0
  185.1970  179.1880  142.9290 O   0  0  0  0  0  0  0  0  0  0  0  0
  184.1540  178.2890  143.2050 C   0  0  0  0  0  2  0  0  0  0  0  0
  185.2860  178.4760  144.1410 C   0  0  1  0  0  3  0  0  0  0  0  0
  186.3850  176.5560  145.2840 C   0  0  0  0  0  2  0  0  0  0  0  0
  185.7280  177.2390  146.3060 O   0  0  0  0  0  0  0  0  0  0  0  0
  186.3740  176.9020  147.4030 O   0  0  0  0  0  1  0  0  0  0  0  0
  1  2  2  0  0  0  0
  2  4  1  0  0  0  0
  4  3  1  6  0  0  0
  5  4  1  0  0  0  0
  6  7  1  0  0  0  0
  6  5  1  0  0  0  0
  7  8  1  6  0  0  0
  9 22  1  6  0  0  0
  9  7  1  0  0  0  0
 10 11  1  6  0  0  0
 10  9  1  0  0  0  0
 12 10  1  0  0  0  0
 12 13  1  1  0  0  0
 14 15  2  0  0  0  0
 14 18  1  0  0  0  0
 15 17  1  0  0  0  0
 16 19  1  0  0  0  0
 17 12  1  0  0  0  0
 17 19  2  0  0  0  0
 18 16  2  0  0  0  0
 20 18  1  0  0  0  0
 21 22  1  0  0  0  0
 23  2  1  0  0  0  0
 24 23  1  0  0  0  0
 25 26  1  0  0  0  0
 26 24  1  0  0  0  0
 27 25  1  0  0  0  0
 28 27  1  0  0  0  0
 29 30  1  0  0  0  0
 29 28  1  0  0  0  0
 30 32  1  0  0  0  0
 31 34  1  0  0  0  0
 32 31  1  0  0  0  0
 33 32  2  0  0  0  0
 34 38  1  1  0  0  0
 35 36  1  0  0  0  0
 35 37  1  0  0  0  0
 36 37  1  0  0  0  0
 37 34  1  6  0  0  0
 38 39  1  0  0  0  0
 39 40  1  0  0  0  0
M  END
>  <MODEL>
1

>  <REMARK>
 VINA RESULT:      -5.6      0.000      0.000
  Name = 
  21 active torsions:
  status: ('A' for Active; 'I' for Inactive)
    1  A    between atoms: C_1  and  C_21
    2  A    between atoms: C_1  and  N_27
    3  A    between atoms: C_1  and  C_34
    4  A    between atoms: C_2  and  O_11
    5  A    between atoms: C_2  and  C_29
    6  A    between atoms: C_3  and  C_23
    7  A    between atoms: C_3  and  C_39
    8  A    between atoms: C_4  and  C_8
    9  A    between atoms: C_4  and  C_36
   10  A    between atoms: C_8  and  C_32
   11  A    between atoms: O_10  and  C_21
   12  A    between atoms: O_11  and  C_16
   13  A    between atoms: C_13  and  C_31
   14  A    between atoms: C_13  and  C_35
   15  A    between atoms: C_16  and  C_39
   16  A    between atoms: C_20  and  C_23
   17  A    between atoms: C_20  and  C_35
   18  A    between atoms: C_22  and  C_36
   19  A    between atoms: C_24  and  C_31
   20  A    between atoms: C_24  and  C_36
   21  A    between atoms: C_28  and  C_29
                            x       y       z     vdW  Elec       q    Type
                         _______ _______ _______ _____ _____    ______ ____

>  <TORSDO>
F 21

$$$$
=
 OpenBabel11072409293D

 40 41  0  0  1  0  0  0  0  0999 V2000
  185.9910  176.6520  148.2390 O   0  0  0  0  0  0  0  0  0  0  0  0
  186.4250  177.1210  147.1960 C   0  0  0  0  0  0  0  0  0  0  0  0
  186.2440  179.5430  147.8170 C   0  0  0  0  0  1  0  0  0  0  0  0
  185.9620  178.4810  146.7560 C   0  0  2  0  0  3  0  0  0  0  0  0
  184.4760  178.4120  146.4310 C   0  0  0  0  0  2  0  0  0  0  0  0
  184.2060  178.6160  144.9490 C   0  0  0  0  0  2  0  0  0  0  0  0
  185.4900  179.0150  144.2300 C   0  0  2  0  0  3  0  0  0  0  0  0
  185.4900  180.4590  144.0620 N   0  0  0  0  0  1  0  0  0  0  0  0
  185.6350  178.3190  142.8620 C   0  0  1  0  0  3  0  0  0  0  0  0
  186.5060  177.0600  142.9790 C   0  0  1  0  0  3  0  0  0  0  0  0
  185.7430  175.9110  143.2220 O   0  0  0  0  0  1  0  0  0  0  0  0
  187.4790  176.8740  141.8060 C   0  0  1  0  0  3  0  0  0  0  0  0
  188.7420  178.1860  141.7970 S   0  0  0  0  0  1  0  0  0  0  0  0
  188.9090  173.6920  140.3250 C   0  0  0  0  0  3  0  0  0  0  0  0
  188.3350  174.9620  140.4480 C   0  0  0  0  0  3  0  0  0  0  0  0
  189.0360  173.5140  142.7360 C   0  0  0  0  0  3  0  0  0  0  0  0
  188.1050  175.5110  141.7120 C   0  0  0  0  0  0  0  0  0  0  0  0
  189.2550  172.9660  141.4680 C   0  0  0  0  0  0  0  0  0  0  0  0
  188.4650  174.7860  142.8600 C   0  0  0  0  0  3  0  0  0  0  0  0
  189.8210  171.7040  141.3480 O   0  0  0  0  0  1  0  0  0  0  0  0
  184.1340  178.6160  141.0230 O   0  0  0  0  0  1  0  0  0  0  0  0
  184.2720  177.9820  142.2600 C   0  0  0  0  0  2  0  0  0  0  0  0
  187.4500  176.3510  146.4090 C   0  0  0  0  0  2  0  0  0  0  0  0
  188.8510  176.9080  146.6100 C   0  0  0  0  0  2  0  0  0  0  0  0
  190.9060  177.1800  145.2820 C   0  0  1  0  0  3  0  0  0  0  0  0
  189.5720  177.0300  145.3040 C   0  0  0  0  0  2  0  0  0  0  0  0
  190.8040  176.1890  145.0130 C   0  0  0  0  0  1  0  0  0  0  0  0
  191.7970  176.9700  144.3230 O   0  0  0  0  0  0  0  0  0  0  0  0
  191.6810  176.6080  142.9790 C   0  0  0  0  0  2  0  0  0  0  0  0
  193.0200  176.1080  142.4750 C   0  0  0  0  0  2  0  0  0  0  0  0
  194.2660  174.4760  143.9840 N   0  0  0  0  0  2  0  0  0  0  0  0
  193.2700  174.7290  142.9860 C   0  0  0  0  0  0  0  0  0  0  0  0
  192.5790  173.7730  142.5450 O   0  0  0  0  0  0  0  0  0  0  0  0
  195.0730  175.5320  144.5850 C   0  0  2  0  0  3  0  0  0  0  0  0
  196.5070  175.3760  142.6790 O   0  0  0  0  0  0  0  0  0  0  0  0
  196.8430  176.6080  143.2650 C   0  0  0  0  0  2  0  0  0  0  0  0
  196.5060  175.4220  144.0860 C   0  0  1  0  0  3  0  0  0  0  0  0
  195.0410  175.4000  146.0990 C   0  0  0  0  0  2  0  0  0  0  0  0
  194.1600  176.3340  146.6430 O   0  0  0  0  0  0  0  0  0  0  0  0
  194.7000  177.5040  146.3640 O   0  0  0  0  0  1  0  0  0  0  0  0
  2  1  2  0  0  0  0
  4  2  1  0  0  0  0
  4  3  1  1  0  0  0
  5  4  1  0  0  0  0
  6  5  1  0  0  0  0
  7  8  1  6  0  0  0
  7  6  1  0  0  0  0
  9 22  1  1  0  0  0
  9 10  1  0  0  0  0
  9  7  1  0  0  0  0
 10 11  1  6  0  0  0
 12 13  1  1  0  0  0
 12 10  1  0  0  0  0
 14 15  2  0  0  0  0
 14 18  1  0  0  0  0
 15 17  1  0  0  0  0
 16 19  1  0  0  0  0
 17 12  1  0  0  0  0
 17 19  2  0  0  0  0
 18 16  2  0  0  0  0
 20 18  1  0  0  0  0
 21 22  1  0  0  0  0
 23 24  1  0  0  0  0
 23  2  1  0  0  0  0
 25 27  1  1  0  0  0
 25 26  1  0  0  0  0
 26 24  1  0  0  0  0
 28 25  1  0  0  0  0
 29 28  1  0  0  0  0
 30 29  1  0  0  0  0
 30 32  1  0  0  0  0
 31 34  1  0  0  0  0
 32 31  1  0  0  0  0
 33 32  2  0  0  0  0
 34 38  1  1  0  0  0
 35 36  1  0  0  0  0
 35 37  1  0  0  0  0
 36 37  1  0  0  0  0
 37 34  1  6  0  0  0
 38 39  1  0  0  0  0
 40 39  1  0  0  0  0
M  END
>  <MODEL>
2

>  <REMARK>
 VINA RESULT:      -5.5      2.693      7.551
  Name = 
  21 active torsions:
  status: ('A' for Active; 'I' for Inactive)
    1  A    between atoms: C_1  and  C_21
    2  A    between atoms: C_1  and  N_27
    3  A    between atoms: C_1  and  C_34
    4  A    between atoms: C_2  and  O_11
    5  A    between atoms: C_2  and  C_29
    6  A    between atoms: C_3  and  C_23
    7  A    between atoms: C_3  and  C_39
    8  A    between atoms: C_4  and  C_8
    9  A    between atoms: C_4  and  C_36
   10  A    between atoms: C_8  and  C_32
   11  A    between atoms: O_10  and  C_21
   12  A    between atoms: O_11  and  C_16
   13  A    between atoms: C_13  and  C_31
   14  A    between atoms: C_13  and  C_35
   15  A    between atoms: C_16  and  C_39
   16  A    between atoms: C_20  and  C_23
   17  A    between atoms: C_20  and  C_35
   18  A    between atoms: C_22  and  C_36
   19  A    between atoms: C_24  and  C_31
   20  A    between atoms: C_24  and  C_36
   21  A    between atoms: C_28  and  C_29
                            x       y       z     vdW  Elec       q    Type
                         _______ _______ _______ _____ _____    ______ ____

>  <TORSDO>
F 21

$$$$
=
 OpenBabel11072409293D

 40 41  0  0  1  0  0  0  0  0999 V2000
  185.5120  180.4330  144.1340 O   0  0  0  0  0  0  0  0  0  0  0  0
  185.3170  179.2360  143.9690 C   0  0  0  0  0  0  0  0  0  0  0  0
  183.8760  178.6650  145.9390 C   0  0  0  0  0  1  0  0  0  0  0  0
  185.1560  178.3480  145.1710 C   0  0  2  0  0  3  0  0  0  0  0  0
  186.3820  178.5010  146.0610 C   0  0  0  0  0  2  0  0  0  0  0  0
  187.5930  177.7800  145.4920 C   0  0  0  0  0  2  0  0  0  0  0  0
  187.5950  176.3220  145.9380 C   0  0  2  0  0  3  0  0  0  0  0  0
  187.2220  176.2730  147.3430 N   0  0  0  0  0  1  0  0  0  0  0  0
  188.9640  175.6470  145.7270 C   0  0  1  0  0  3  0  0  0  0  0  0
  190.0840  176.6950  145.6500 C   0  0  1  0  0  3  0  0  0  0  0  0
  190.7300  176.8670  146.8800 O   0  0  0  0  0  1  0  0  0  0  0  0
  191.0750  176.4520  144.5020 C   0  0  1  0  0  3  0  0  0  0  0  0
  191.2610  177.9480  143.4800 S   0  0  0  0  0  1  0  0  0  0  0  0
  194.7470  176.3150  145.4310 C   0  0  0  0  0  3  0  0  0  0  0  0
  193.4870  176.7900  145.0480 C   0  0  0  0  0  3  0  0  0  0  0  0
  193.8570  174.0680  145.5780 C   0  0  0  0  0  3  0  0  0  0  0  0
  192.4100  175.9080  144.9230 C   0  0  0  0  0  0  0  0  0  0  0  0
  194.9330  174.9540  145.6910 C   0  0  0  0  0  0  0  0  0  0  0  0
  192.5960  174.5430  145.1970 C   0  0  0  0  0  3  0  0  0  0  0  0
  196.1830  174.4810  146.0680 O   0  0  0  0  0  1  0  0  0  0  0  0
  189.5090  173.3740  146.2420 O   0  0  0  0  0  1  0  0  0  0  0  0
  189.2550  174.6210  146.8210 C   0  0  0  0  0  2  0  0  0  0  0  0
  185.1860  178.6940  142.5720 C   0  0  0  0  0  2  0  0  0  0  0  0
  186.5390  178.3280  141.9790 C   0  0  0  0  0  2  0  0  0  0  0  0
  187.7280  176.3350  141.1620 C   0  0  0  0  0  2  0  0  0  0  0  0
  186.6570  176.8490  141.7860 C   0  0  0  0  0  2  0  0  0  0  0  0
  187.9380  176.1160  142.1480 C   0  0  0  0  0  2  0  0  0  0  0  0
  187.8260  174.7160  141.8330 O   0  0  0  0  0  0  0  0  0  0  0  0
  189.0060  174.1370  142.3080 C   0  0  0  0  0  2  0  0  0  0  0  0
  189.3310  172.9100  141.4810 C   0  0  0  0  0  2  0  0  0  0  0  0
  191.5190  171.6220  141.6990 N   0  0  0  0  0  2  0  0  0  0  0  0
  190.2540  172.0170  142.2410 C   0  0  0  0  0  0  0  0  0  0  0  0
  189.9220  171.6210  143.3900 O   0  0  0  0  0  0  0  0  0  0  0  0
  192.0040  172.0770  140.4000 C   0  0  2  0  0  3  0  0  0  0  0  0
  191.7380  169.7540  139.9040 O   0  0  0  0  0  0  0  0  0  0  0  0
  191.4570  170.4010  138.6900 C   0  0  0  0  0  2  0  0  0  0  0  0
  192.5170  170.8870  139.6030 C   0  0  1  0  0  3  0  0  0  0  0  0
  193.1210  173.0890  140.5980 C   0  0  0  0  0  2  0  0  0  0  0  0
  192.6120  174.3850  140.5310 O   0  0  0  0  0  0  0  0  0  0  0  0
  193.1410  175.0060  141.5660 O   0  0  0  0  0  1  0  0  0  0  0  0
  2  1  2  0  0  0  0
  2  4  1  0  0  0  0
  4  3  1  1  0  0  0
  4  5  1  0  0  0  0
  6  7  1  0  0  0  0
  6  5  1  0  0  0  0
  7  8  1  1  0  0  0
  9  7  1  0  0  0  0
  9 22  1  1  0  0  0
 10  9  1  0  0  0  0
 10 11  1  1  0  0  0
 12 13  1  1  0  0  0
 12 17  1  0  0  0  0
 12 10  1  0  0  0  0
 14 18  1  0  0  0  0
 15 14  2  0  0  0  0
 16 18  2  0  0  0  0
 17 15  1  0  0  0  0
 17 19  2  0  0  0  0
 18 20  1  0  0  0  0
 19 16  1  0  0  0  0
 21 22  1  0  0  0  0
 23  2  1  0  0  0  0
 24 23  1  0  0  0  0
 25 26  1  0  0  0  0
 25 27  1  0  0  0  0
 26 24  1  0  0  0  0
 28 27  1  0  0  0  0
 28 29  1  0  0  0  0
 30 32  1  0  0  0  0
 30 29  1  0  0  0  0
 31 32  1  0  0  0  0
 32 33  2  0  0  0  0
 34 38  1  1  0  0  0
 34 31  1  0  0  0  0
 36 37  1  0  0  0  0
 36 35  1  0  0  0  0
 37 35  1  0  0  0  0
 37 34  1  1  0  0  0
 39 38  1  0  0  0  0
 39 40  1  0  0  0  0
M  END
>  <MODEL>
3

>  <REMARK>
 VINA RESULT:      -5.2      2.637      6.940
  Name = 
  21 active torsions:
  status: ('A' for Active; 'I' for Inactive)
    1  A    between atoms: C_1  and  C_21
    2  A    between atoms: C_1  and  N_27
    3  A    between atoms: C_1  and  C_34
    4  A    between atoms: C_2  and  O_11
    5  A    between atoms: C_2  and  C_29
    6  A    between atoms: C_3  and  C_23
    7  A    between atoms: C_3  and  C_39
    8  A    between atoms: C_4  and  C_8
    9  A    between atoms: C_4  and  C_36
   10  A    between atoms: C_8  and  C_32
   11  A    between atoms: O_10  and  C_21
   12  A    between atoms: O_11  and  C_16
   13  A    between atoms: C_13  and  C_31
   14  A    between atoms: C_13  and  C_35
   15  A    between atoms: C_16  and  C_39
   16  A    between atoms: C_20  and  C_23
   17  A    between atoms: C_20  and  C_35
   18  A    between atoms: C_22  and  C_36
   19  A    between atoms: C_24  and  C_31
   20  A    between atoms: C_24  and  C_36
   21  A    between atoms: C_28  and  C_29
                            x       y       z     vdW  Elec       q    Type
                         _______ _______ _______ _____ _____    ______ ____

>  <TORSDO>
F 21

$$$$
=
 OpenBabel11072409293D

 40 41  0  0  1  0  0  0  0  0999 V2000
  188.0040  175.0160  140.3940 O   0  0  0  0  0  0  0  0  0  0  0  0
  188.2730  175.8650  141.2320 C   0  0  0  0  0  0  0  0  0  0  0  0
  188.3390  178.2140  142.1050 C   0  0  0  0  0  1  0  0  0  0  0  0
  187.8270  177.2830  141.0080 C   0  0  2  0  0  3  0  0  0  0  0  0
  186.3080  177.3120  140.9280 C   0  0  0  0  0  2  0  0  0  0  0  0
  185.7140  178.4350  141.7640 C   0  0  0  0  0  2  0  0  0  0  0  0
  184.7140  177.8720  142.7670 C   0  0  2  0  0  3  0  0  0  0  0  0
  183.3770  178.2560  142.3430 N   0  0  0  0  0  1  0  0  0  0  0  0
  184.9810  178.3670  144.2020 C   0  0  1  0  0  3  0  0  0  0  0  0
  185.6650  177.2760  145.0380 C   0  0  1  0  0  3  0  0  0  0  0  0
  186.2460  176.2840  144.2380 O   0  0  0  0  0  1  0  0  0  0  0  0
  186.6460  177.8260  146.0840 C   0  0  1  0  0  3  0  0  0  0  0  0
  185.8070  178.1060  147.6760 S   0  0  0  0  0  1  0  0  0  0  0  0
  190.2720  176.7530  145.8220 C   0  0  0  0  0  3  0  0  0  0  0  0
  189.0860  177.4840  145.6830 C   0  0  0  0  0  3  0  0  0  0  0  0
  189.0940  175.0890  147.1280 C   0  0  0  0  0  3  0  0  0  0  0  0
  187.9010  177.0190  146.2610 C   0  0  0  0  0  0  0  0  0  0  0  0
  190.2740  175.5530  146.5400 C   0  0  0  0  0  0  0  0  0  0  0  0
  187.9090  175.8210  146.9920 C   0  0  0  0  0  3  0  0  0  0  0  0
  191.4490  174.8250  146.6760 O   0  0  0  0  0  1  0  0  0  0  0  0
  184.9630  180.7570  144.3290 O   0  0  0  0  0  1  0  0  0  0  0  0
  185.8090  179.6510  144.2040 C   0  0  0  0  0  2  0  0  0  0  0  0
  188.9920  175.4600  142.4900 C   0  0  0  0  0  2  0  0  0  0  0  0
  188.9520  173.9550  142.7040 C   0  0  0  0  0  2  0  0  0  0  0  0
  191.3980  174.1550  142.5250 C   0  0  1  0  0  3  0  0  0  0  0  0
  190.3190  173.3590  142.5770 C   0  0  0  0  0  2  0  0  0  0  0  0
  191.4490  173.8000  143.4920 C   0  0  0  0  0  1  0  0  0  0  0  0
  192.4720  174.4790  142.7410 O   0  0  0  0  0  0  0  0  0  0  0  0
  192.8410  175.5730  143.5280 C   0  0  0  0  0  2  0  0  0  0  0  0
  194.0010  175.1810  144.4200 C   0  0  0  0  0  2  0  0  0  0  0  0
  195.9700  176.7070  143.8810 N   0  0  0  0  0  2  0  0  0  0  0  0
  194.8470  176.3770  144.7060 C   0  0  0  0  0  0  0  0  0  0  0  0
  194.5540  177.1200  145.6800 O   0  0  0  0  0  0  0  0  0  0  0  0
  196.3460  175.9310  142.7040 C   0  0  2  0  0  3  0  0  0  0  0  0
  197.9350  174.7160  144.0140 O   0  0  0  0  0  0  0  0  0  0  0  0
  197.8560  173.9960  142.8110 C   0  0  0  0  0  2  0  0  0  0  0  0
  197.7910  175.4750  142.8370 C   0  0  1  0  0  3  0  0  0  0  0  0
  196.1840  176.7830  141.4560 C   0  0  0  0  0  2  0  0  0  0  0  0
  195.1750  176.2620  140.6480 O   0  0  0  0  0  0  0  0  0  0  0  0
  195.7900  175.4110  139.8510 O   0  0  0  0  0  1  0  0  0  0  0  0
  1  2  2  0  0  0  0
  2 23  1  0  0  0  0
  4  2  1  0  0  0  0
  4  3  1  1  0  0  0
  5  4  1  0  0  0  0
  5  6  1  0  0  0  0
  6  7  1  0  0  0  0
  7  8  1  6  0  0  0
  7  9  1  0  0  0  0
  9 22  1  6  0  0  0
  9 10  1  0  0  0  0
 10 11  1  6  0  0  0
 10 12  1  0  0  0  0
 12 17  1  0  0  0  0
 12 13  1  1  0  0  0
 14 18  1  0  0  0  0
 15 14  2  0  0  0  0
 15 17  1  0  0  0  0
 17 19  2  0  0  0  0
 18 20  1  0  0  0  0
 18 16  2  0  0  0  0
 19 16  1  0  0  0  0
 22 21  1  0  0  0  0
 23 24  1  0  0  0  0
 25 26  1  0  0  0  0
 25 28  1  0  0  0  0
 25 27  1  1  0  0  0
 26 24  1  0  0  0  0
 28 29  1  0  0  0  0
 29 30  1  0  0  0  0
 30 32  1  0  0  0  0
 31 32  1  0  0  0  0
 32 33  2  0  0  0  0
 34 38  1  6  0  0  0
 34 31  1  0  0  0  0
 36 37  1  0  0  0  0
 36 35  1  0  0  0  0
 37 34  1  1  0  0  0
 37 35  1  0  0  0  0
 39 38  1  0  0  0  0
 40 39  1  0  0  0  0
M  END
>  <MODEL>
4

>  <REMARK>
 VINA RESULT:      -5.2      2.833      8.699
  Name = 
  21 active torsions:
  status: ('A' for Active; 'I' for Inactive)
    1  A    between atoms: C_1  and  C_21
    2  A    between atoms: C_1  and  N_27
    3  A    between atoms: C_1  and  C_34
    4  A    between atoms: C_2  and  O_11
    5  A    between atoms: C_2  and  C_29
    6  A    between atoms: C_3  and  C_23
    7  A    between atoms: C_3  and  C_39
    8  A    between atoms: C_4  and  C_8
    9  A    between atoms: C_4  and  C_36
   10  A    between atoms: C_8  and  C_32
   11  A    between atoms: O_10  and  C_21
   12  A    between atoms: O_11  and  C_16
   13  A    between atoms: C_13  and  C_31
   14  A    between atoms: C_13  and  C_35
   15  A    between atoms: C_16  and  C_39
   16  A    between atoms: C_20  and  C_23
   17  A    between atoms: C_20  and  C_35
   18  A    between atoms: C_22  and  C_36
   19  A    between atoms: C_24  and  C_31
   20  A    between atoms: C_24  and  C_36
   21  A    between atoms: C_28  and  C_29
                            x       y       z     vdW  Elec       q    Type
                         _______ _______ _______ _____ _____    ______ ____

>  <TORSDO>
F 21

$$$$
=
 OpenBabel11072409293D

 40 41  0  0  1  0  0  0  0  0999 V2000
  192.1640  176.6790  144.6430 O   0  0  0  0  0  0  0  0  0  0  0  0
  192.2040  176.4550  145.8460 C   0  0  0  0  0  0  0  0  0  0  0  0
  190.9330  175.5030  147.7860 C   0  0  0  0  0  1  0  0  0  0  0  0
  190.9330  176.5190  146.6460 C   0  0  2  0  0  3  0  0  0  0  0  0
  189.7540  176.2930  145.7100 C   0  0  0  0  0  2  0  0  0  0  0  0
  188.8470  177.5110  145.6320 C   0  0  0  0  0  2  0  0  0  0  0  0
  187.7970  177.4580  146.7360 C   0  0  2  0  0  3  0  0  0  0  0  0
  187.3750  176.0750  146.8980 N   0  0  0  0  0  1  0  0  0  0  0  0
  186.5810  178.3540  146.4310 C   0  0  1  0  0  3  0  0  0  0  0  0
  185.4760  177.5540  145.7250 C   0  0  1  0  0  3  0  0  0  0  0  0
  184.2880  177.5260  146.4680 O   0  0  0  0  0  1  0  0  0  0  0  0
  185.2400  177.9810  144.2690 C   0  0  1  0  0  3  0  0  0  0  0  0
  185.4080  179.7860  144.0890 S   0  0  0  0  0  1  0  0  0  0  0  0
  187.3250  177.3030  141.1780 C   0  0  0  0  0  3  0  0  0  0  0  0
  186.5540  177.9550  142.1470 C   0  0  0  0  0  3  0  0  0  0  0  0
  187.1420  175.2340  142.4220 C   0  0  0  0  0  3  0  0  0  0  0  0
  186.0710  177.2500  143.2530 C   0  0  0  0  0  0  0  0  0  0  0  0
  187.6140  175.9420  141.3120 C   0  0  0  0  0  0  0  0  0  0  0  0
  186.3740  175.8860  143.3930 C   0  0  0  0  0  3  0  0  0  0  0  0
  188.3760  175.2930  140.3500 O   0  0  0  0  0  1  0  0  0  0  0  0
  187.0930  179.2300  148.5980 O   0  0  0  0  0  1  0  0  0  0  0  0
  186.0450  179.0180  147.6980 C   0  0  0  0  0  2  0  0  0  0  0  0
  193.5110  176.0690  146.4830 C   0  0  0  0  0  2  0  0  0  0  0  0
  194.1230  174.8450  145.8170 C   0  0  0  0  0  2  0  0  0  0  0  0
  196.3470  173.8040  145.9740 C   0  0  0  0  0  2  0  0  0  0  0  0
  195.6180  174.9210  145.8290 C   0  0  0  0  0  2  0  0  0  0  0  0
  196.4510  173.9900  144.9650 C   0  0  0  0  0  2  0  0  0  0  0  0
  197.2140  174.7400  144.0030 O   0  0  0  0  0  0  0  0  0  0  0  0
  197.2790  173.9270  142.8690 C   0  0  0  0  0  2  0  0  0  0  0  0
  197.1130  174.7800  141.6270 C   0  0  0  0  0  2  0  0  0  0  0  0
  194.7490  175.7260  141.7160 N   0  0  0  0  0  2  0  0  0  0  0  0
  196.1590  175.8930  141.9020 C   0  0  0  0  0  0  0  0  0  0  0  0
  196.6010  176.9940  142.3250 O   0  0  0  0  0  0  0  0  0  0  0  0
  194.1490  174.4700  141.2800 C   0  0  2  0  0  3  0  0  0  0  0  0
  194.6240  175.0410  139.0080 O   0  0  0  0  0  0  0  0  0  0  0  0
  194.2640  173.6850  138.9560 C   0  0  0  0  0  2  0  0  0  0  0  0
  193.5920  174.6330  139.8740 C   0  0  1  0  0  3  0  0  0  0  0  0
  193.0340  174.0770  142.2360 C   0  0  0  0  0  2  0  0  0  0  0  0
  191.8620  174.7590  141.9110 O   0  0  0  0  0  0  0  0  0  0  0  0
  190.9100  173.8540  142.0110 O   0  0  0  0  0  1  0  0  0  0  0  0
  1  2  2  0  0  0  0
  2 23  1  0  0  0  0
  2  4  1  0  0  0  0
  4  3  1  1  0  0  0
  5  4  1  0  0  0  0
  6  5  1  0  0  0  0
  6  7  1  0  0  0  0
  7  8  1  6  0  0  0
  9  7  1  0  0  0  0
  9 22  1  1  0  0  0
 10  9  1  0  0  0  0
 10 11  1  1  0  0  0
 12 13  1  1  0  0  0
 12 10  1  0  0  0  0
 14 18  2  0  0  0  0
 14 15  1  0  0  0  0
 15 17  2  0  0  0  0
 16 19  2  0  0  0  0
 17 19  1  0  0  0  0
 17 12  1  0  0  0  0
 18 16  1  0  0  0  0
 20 18  1  0  0  0  0
 22 21  1  0  0  0  0
 24 26  1  0  0  0  0
 24 23  1  0  0  0  0
 26 25  1  0  0  0  0
 27 25  1  0  0  0  0
 28 27  1  0  0  0  0
 29 28  1  0  0  0  0
 30 32  1  0  0  0  0
 30 29  1  0  0  0  0
 31 32  1  0  0  0  0
 32 33  2  0  0  0  0
 34 31  1  0  0  0  0
 34 38  1  1  0  0  0
 35 37  1  0  0  0  0
 36 35  1  0  0  0  0
 36 37  1  0  0  0  0
 37 34  1  1  0  0  0
 39 40  1  0  0  0  0
 39 38  1  0  0  0  0
M  END
>  <MODEL>
5

>  <REMARK>
 VINA RESULT:      -5.2      3.073      8.025
  Name = 
  21 active torsions:
  status: ('A' for Active; 'I' for Inactive)
    1  A    between atoms: C_1  and  C_21
    2  A    between atoms: C_1  and  N_27
    3  A    between atoms: C_1  and  C_34
    4  A    between atoms: C_2  and  O_11
    5  A    between atoms: C_2  and  C_29
    6  A    between atoms: C_3  and  C_23
    7  A    between atoms: C_3  and  C_39
    8  A    between atoms: C_4  and  C_8
    9  A    between atoms: C_4  and  C_36
   10  A    between atoms: C_8  and  C_32
   11  A    between atoms: O_10  and  C_21
   12  A    between atoms: O_11  and  C_16
   13  A    between atoms: C_13  and  C_31
   14  A    between atoms: C_13  and  C_35
   15  A    between atoms: C_16  and  C_39
   16  A    between atoms: C_20  and  C_23
   17  A    between atoms: C_20  and  C_35
   18  A    between atoms: C_22  and  C_36
   19  A    between atoms: C_24  and  C_31
   20  A    between atoms: C_24  and  C_36
   21  A    between atoms: C_28  and  C_29
                            x       y       z     vdW  Elec       q    Type
                         _______ _______ _______ _____ _____    ______ ____

>  <TORSDO>
F 21

$$$$
=
 OpenBabel11072409293D

 40 41  0  0  1  0  0  0  0  0999 V2000
  192.4630  176.7970  144.6760 O   0  0  0  0  0  0  0  0  0  0  0  0
  192.9280  176.0200  145.4990 C   0  0  0  0  0  0  0  0  0  0  0  0
  194.8980  177.5700  145.5090 C   0  0  0  0  0  1  0  0  0  0  0  0
  194.2600  176.3260  146.1240 C   0  0  2  0  0  3  0  0  0  0  0  0
  195.1640  175.1120  145.9680 C   0  0  0  0  0  2  0  0  0  0  0  0
  196.1390  175.2710  144.8120 C   0  0  0  0  0  2  0  0  0  0  0  0
  195.9010  174.1850  143.7690 C   0  0  2  0  0  3  0  0  0  0  0  0
  197.0310  173.2700  143.7960 N   0  0  0  0  0  1  0  0  0  0  0  0
  195.7170  174.7630  142.3530 C   0  0  1  0  0  3  0  0  0  0  0  0
  194.2730  175.2420  142.1410 C   0  0  1  0  0  3  0  0  0  0  0  0
  194.2190  176.5180  141.5660 O   0  0  0  0  0  1  0  0  0  0  0  0
  193.3930  174.2300  141.3930 C   0  0  1  0  0  3  0  0  0  0  0  0
  194.4150  172.9760  140.5560 S   0  0  0  0  0  1  0  0  0  0  0  0
  190.0490  173.6640  143.0860 C   0  0  0  0  0  3  0  0  0  0  0  0
  191.0730  174.2260  142.3140 C   0  0  0  0  0  3  0  0  0  0  0  0
  191.5050  171.8220  143.6770 C   0  0  0  0  0  3  0  0  0  0  0  0
  192.3150  173.5930  142.2240 C   0  0  0  0  0  0  0  0  0  0  0  0
  190.2670  172.4650  143.7710 C   0  0  0  0  0  0  0  0  0  0  0  0
  192.5280  172.3820  142.9030 C   0  0  0  0  0  3  0  0  0  0  0  0
  189.2540  171.9070  144.5400 O   0  0  0  0  0  1  0  0  0  0  0  0
  196.8920  176.0330  140.6990 O   0  0  0  0  0  1  0  0  0  0  0  0
  196.7090  175.8920  142.0780 C   0  0  0  0  0  2  0  0  0  0  0  0
  192.1310  174.8110  145.9070 C   0  0  0  0  0  2  0  0  0  0  0  0
  191.1100  175.1440  146.9840 C   0  0  0  0  0  2  0  0  0  0  0  0
  188.6920  175.5670  147.1530 C   0  0  0  0  0  2  0  0  0  0  0  0
  189.7170  175.0740  146.4410 C   0  0  0  0  0  2  0  0  0  0  0  0
  188.8190  176.3000  146.4390 C   0  0  0  0  0  2  0  0  0  0  0  0
  187.4890  175.9510  146.0160 O   0  0  0  0  0  0  0  0  0  0  0  0
  186.6390  176.5190  146.9680 C   0  0  0  0  0  2  0  0  0  0  0  0
  185.2550  176.6850  146.3730 C   0  0  0  0  0  2  0  0  0  0  0  0
  184.6640  178.8610  145.1850 N   0  0  0  0  0  2  0  0  0  0  0  0
  184.8640  178.1250  146.3970 C   0  0  0  0  0  0  0  0  0  0  0  0
  184.6860  178.6970  147.5050 O   0  0  0  0  0  0  0  0  0  0  0  0
  184.7980  178.2620  143.8610 C   0  0  2  0  0  3  0  0  0  0  0  0
  187.1710  178.5090  144.0010 O   0  0  0  0  0  0  0  0  0  0  0  0
  186.9750  177.6670  142.8930 C   0  0  0  0  0  2  0  0  0  0  0  0
  186.0560  178.7900  143.1890 C   0  0  1  0  0  3  0  0  0  0  0  0
  183.5780  178.6050  143.0200 C   0  0  0  0  0  2  0  0  0  0  0  0
  183.7550  178.1510  141.7140 O   0  0  0  0  0  0  0  0  0  0  0  0
  182.5340  177.9540  141.2600 O   0  0  0  0  0  1  0  0  0  0  0  0
  1  2  2  0  0  0  0
  2 23  1  0  0  0  0
  2  4  1  0  0  0  0
  4  3  1  6  0  0  0
  5  4  1  0  0  0  0
  6  5  1  0  0  0  0
  7  8  1  6  0  0  0
  7  6  1  0  0  0  0
  9 22  1  1  0  0  0
  9  7  1  0  0  0  0
 10 11  1  6  0  0  0
 10  9  1  0  0  0  0
 12 13  1  1  0  0  0
 12 10  1  0  0  0  0
 12 17  1  0  0  0  0
 14 18  1  0  0  0  0
 15 14  2  0  0  0  0
 16 18  2  0  0  0  0
 17 15  1  0  0  0  0
 17 19  2  0  0  0  0
 18 20  1  0  0  0  0
 19 16  1  0  0  0  0
 21 22  1  0  0  0  0
 23 24  1  0  0  0  0
 26 24  1  0  0  0  0
 26 25  1  0  0  0  0
 27 25  1  0  0  0  0
 28 27  1  0  0  0  0
 28 29  1  0  0  0  0
 30 32  1  0  0  0  0
 30 29  1  0  0  0  0
 31 32  1  0  0  0  0
 32 33  2  0  0  0  0
 34 38  1  6  0  0  0
 34 31  1  0  0  0  0
 36 37  1  0  0  0  0
 36 35  1  0  0  0  0
 37 34  1  1  0  0  0
 37 35  1  0  0  0  0
 39 38  1  0  0  0  0
 40 39  1  0  0  0  0
M  END
>  <MODEL>
6

>  <REMARK>
 VINA RESULT:      -5.2      2.150      3.754
  Name = 
  21 active torsions:
  status: ('A' for Active; 'I' for Inactive)
    1  A    between atoms: C_1  and  C_21
    2  A    between atoms: C_1  and  N_27
    3  A    between atoms: C_1  and  C_34
    4  A    between atoms: C_2  and  O_11
    5  A    between atoms: C_2  and  C_29
    6  A    between atoms: C_3  and  C_23
    7  A    between atoms: C_3  and  C_39
    8  A    between atoms: C_4  and  C_8
    9  A    between atoms: C_4  and  C_36
   10  A    between atoms: C_8  and  C_32
   11  A    between atoms: O_10  and  C_21
   12  A    between atoms: O_11  and  C_16
   13  A    between atoms: C_13  and  C_31
   14  A    between atoms: C_13  and  C_35
   15  A    between atoms: C_16  and  C_39
   16  A    between atoms: C_20  and  C_23
   17  A    between atoms: C_20  and  C_35
   18  A    between atoms: C_22  and  C_36
   19  A    between atoms: C_24  and  C_31
   20  A    between atoms: C_24  and  C_36
   21  A    between atoms: C_28  and  C_29
                            x       y       z     vdW  Elec       q    Type
                         _______ _______ _______ _____ _____    ______ ____

>  <TORSDO>
F 21

$$$$
=
 OpenBabel11072409293D

 40 41  0  0  1  0  0  0  0  0999 V2000
  191.8170  177.0330  145.1150 O   0  0  0  0  0  0  0  0  0  0  0  0
  191.5780  176.5760  146.2250 C   0  0  0  0  0  0  0  0  0  0  0  0
  189.6980  175.2330  147.1950 C   0  0  0  0  0  1  0  0  0  0  0  0
  190.1700  176.6140  146.7460 C   0  0  2  0  0  3  0  0  0  0  0  0
  189.2620  177.1780  145.6630 C   0  0  0  0  0  2  0  0  0  0  0  0
  188.8150  176.1090  144.6780 C   0  0  0  0  0  2  0  0  0  0  0  0
  188.8420  176.6580  143.2570 C   0  0  2  0  0  3  0  0  0  0  0  0
  189.3360  178.0250  143.3040 N   0  0  0  0  0  1  0  0  0  0  0  0
  187.4550  176.6150  142.5860 C   0  0  1  0  0  3  0  0  0  0  0  0
  187.0450  178.0090  142.0900 C   0  0  1  0  0  3  0  0  0  0  0  0
  186.9180  178.0560  140.6960 O   0  0  0  0  0  1  0  0  0  0  0  0
  185.8120  178.5790  142.8060 C   0  0  1  0  0  3  0  0  0  0  0  0
  184.2790  178.0560  141.9730 S   0  0  0  0  0  1  0  0  0  0  0  0
  185.9960  179.1220  146.5520 C   0  0  0  0  0  3  0  0  0  0  0  0
  186.0330  179.3450  145.1710 C   0  0  0  0  0  3  0  0  0  0  0  0
  185.3880  176.8110  146.1630 C   0  0  0  0  0  3  0  0  0  0  0  0
  185.7540  178.3040  144.2820 C   0  0  0  0  0  0  0  0  0  0  0  0
  185.6790  177.8540  147.0480 C   0  0  0  0  0  0  0  0  0  0  0  0
  185.4230  177.0340  144.7820 C   0  0  0  0  0  3  0  0  0  0  0  0
  185.6440  177.6300  148.4180 O   0  0  0  0  0  1  0  0  0  0  0  0
  187.4310  174.3040  141.9680 O   0  0  0  0  0  1  0  0  0  0  0  0
  187.4170  175.6000  141.4460 C   0  0  0  0  0  2  0  0  0  0  0  0
  192.6890  175.9370  147.0150 C   0  0  0  0  0  2  0  0  0  0  0  0
  194.0470  176.5150  146.6480 C   0  0  0  0  0  2  0  0  0  0  0  0
  194.4970  174.6420  145.1180 C   0  0  1  0  0  3  0  0  0  0  0  0
  194.9440  175.4580  146.0840 C   0  0  0  0  0  2  0  0  0  0  0  0
  195.0970  175.2870  144.5820 C   0  0  0  0  0  1  0  0  0  0  0  0
  194.3260  174.1630  144.1200 O   0  0  0  0  0  0  0  0  0  0  0  0
  194.5050  174.1390  142.7340 C   0  0  0  0  0  2  0  0  0  0  0  0
  193.2150  173.7020  142.0690 C   0  0  0  0  0  2  0  0  0  0  0  0
  192.1790  171.5060  141.2960 N   0  0  0  0  0  2  0  0  0  0  0  0
  193.3370  172.2880  141.6090 C   0  0  0  0  0  0  0  0  0  0  0  0
  194.4820  171.7790  141.4760 O   0  0  0  0  0  0  0  0  0  0  0  0
  190.8210  172.0330  141.3740 C   0  0  2  0  0  3  0  0  0  0  0  0
  190.8940  171.5000  143.7030 O   0  0  0  0  0  0  0  0  0  0  0  0
  189.8340  172.4160  143.5900 C   0  0  0  0  0  2  0  0  0  0  0  0
  190.0950  171.3960  142.5480 C   0  0  1  0  0  3  0  0  0  0  0  0
  190.0810  171.7290  140.0810 C   0  0  0  0  0  2  0  0  0  0  0  0
  189.4930  172.8900  139.5810 O   0  0  0  0  0  0  0  0  0  0  0  0
  188.2400  172.5570  139.3480 O   0  0  0  0  0  1  0  0  0  0  0  0
  1  2  2  0  0  0  0
  2  4  1  0  0  0  0
  2 23  1  0  0  0  0
  4  3  1  6  0  0  0
  5  4  1  0  0  0  0
  6  5  1  0  0  0  0
  7  8  1  1  0  0  0
  7  6  1  0  0  0  0
  9 22  1  6  0  0  0
  9  7  1  0  0  0  0
 10 11  1  6  0  0  0
 10  9  1  0  0  0  0
 10 12  1  0  0  0  0
 12 13  1  6  0  0  0
 12 17  1  0  0  0  0
 14 18  1  0  0  0  0
 15 14  2  0  0  0  0
 16 18  2  0  0  0  0
 17 19  2  0  0  0  0
 17 15  1  0  0  0  0
 18 20  1  0  0  0  0
 19 16  1  0  0  0  0
 22 21  1  0  0  0  0
 24 23  1  0  0  0  0
 25 27  1  6  0  0  0
 25 26  1  0  0  0  0
 26 24  1  0  0  0  0
 28 25  1  0  0  0  0
 29 28  1  0  0  0  0
 30 29  1  0  0  0  0
 31 34  1  0  0  0  0
 31 32  1  0  0  0  0
 32 30  1  0  0  0  0
 33 32  2  0  0  0  0
 34 38  1  6  0  0  0
 36 35  1  0  0  0  0
 37 34  1  6  0  0  0
 37 36  1  0  0  0  0
 37 35  1  0  0  0  0
 39 38  1  0  0  0  0
 40 39  1  0  0  0  0
M  END
>  <MODEL>
7

>  <REMARK>
 VINA RESULT:      -5.0      3.023      7.827
  Name = 
  21 active torsions:
  status: ('A' for Active; 'I' for Inactive)
    1  A    between atoms: C_1  and  C_21
    2  A    between atoms: C_1  and  N_27
    3  A    between atoms: C_1  and  C_34
    4  A    between atoms: C_2  and  O_11
    5  A    between atoms: C_2  and  C_29
    6  A    between atoms: C_3  and  C_23
    7  A    between atoms: C_3  and  C_39
    8  A    between atoms: C_4  and  C_8
    9  A    between atoms: C_4  and  C_36
   10  A    between atoms: C_8  and  C_32
   11  A    between atoms: O_10  and  C_21
   12  A    between atoms: O_11  and  C_16
   13  A    between atoms: C_13  and  C_31
   14  A    between atoms: C_13  and  C_35
   15  A    between atoms: C_16  and  C_39
   16  A    between atoms: C_20  and  C_23
   17  A    between atoms: C_20  and  C_35
   18  A    between atoms: C_22  and  C_36
   19  A    between atoms: C_24  and  C_31
   20  A    between atoms: C_24  and  C_36
   21  A    between atoms: C_28  and  C_29
                            x       y       z     vdW  Elec       q    Type
                         _______ _______ _______ _____ _____    ______ ____

>  <TORSDO>
F 21

$$$$
=
 OpenBabel11072409293D

 40 41  0  0  1  0  0  0  0  0999 V2000
  186.4020  178.4220  147.9080 O   0  0  0  0  0  0  0  0  0  0  0  0
  186.4830  177.6700  146.9460 C   0  0  0  0  0  0  0  0  0  0  0  0
  184.3400  178.6180  146.0560 C   0  0  0  0  0  1  0  0  0  0  0  0
  185.6790  177.9700  145.7130 C   0  0  2  0  0  3  0  0  0  0  0  0
  185.4790  176.6790  144.9320 C   0  0  0  0  0  2  0  0  0  0  0  0
  185.8990  176.8210  143.4780 C   0  0  0  0  0  2  0  0  0  0  0  0
  187.2310  177.5560  143.3830 C   0  0  2  0  0  3  0  0  0  0  0  0
  187.1420  178.5230  142.3000 N   0  0  0  0  0  1  0  0  0  0  0  0
  188.4130  176.5970  143.1450 C   0  0  1  0  0  3  0  0  0  0  0  0
  188.0300  175.4920  142.1510 C   0  0  1  0  0  3  0  0  0  0  0  0
  188.6650  175.6520  140.9130 O   0  0  0  0  0  1  0  0  0  0  0  0
  188.2010  174.0730  142.7120 C   0  0  1  0  0  3  0  0  0  0  0  0
  187.4750  172.8390  141.5860 S   0  0  0  0  0  1  0  0  0  0  0  0
  191.1380  172.7740  144.7250 C   0  0  0  0  0  3  0  0  0  0  0  0
  189.8380  173.1200  144.3370 C   0  0  0  0  0  3  0  0  0  0  0  0
  191.9880  173.5950  142.6120 C   0  0  0  0  0  3  0  0  0  0  0  0
  189.6080  173.7070  143.0900 C   0  0  0  0  0  0  0  0  0  0  0  0
  192.2120  173.0160  143.8650 C   0  0  0  0  0  0  0  0  0  0  0  0
  190.6880  173.9380  142.2220 C   0  0  0  0  0  3  0  0  0  0  0  0
  193.5030  172.6770  144.2490 O   0  0  0  0  0  1  0  0  0  0  0  0
  190.5030  177.5930  143.7520 O   0  0  0  0  0  1  0  0  0  0  0  0
  189.6550  177.3500  142.6690 C   0  0  0  0  0  2  0  0  0  0  0  0
  187.4250  176.4980  147.0020 C   0  0  0  0  0  2  0  0  0  0  0  0
  188.8720  176.9270  146.8140 C   0  0  0  0  0  2  0  0  0  0  0  0
  191.0400  175.7660  146.7280 C   0  0  1  0  0  3  0  0  0  0  0  0
  189.8120  175.8530  147.2620 C   0  0  0  0  0  2  0  0  0  0  0  0
  191.2440  176.1820  147.6500 C   0  0  0  0  0  1  0  0  0  0  0  0
  192.1530  175.2160  147.0930 O   0  0  0  0  0  0  0  0  0  0  0  0
  192.8000  175.8790  146.0470 C   0  0  0  0  0  2  0  0  0  0  0  0
  194.2800  175.5550  146.0850 C   0  0  0  0  0  2  0  0  0  0  0  0
  195.9010  176.2300  144.2380 N   0  0  0  0  0  2  0  0  0  0  0  0
  195.0440  176.5890  145.3280 C   0  0  0  0  0  0  0  0  0  0  0  0
  194.9170  177.8020  145.6410 O   0  0  0  0  0  0  0  0  0  0  0  0
  196.0650  174.8550  143.7770 C   0  0  2  0  0  3  0  0  0  0  0  0
  197.5590  174.1630  145.5090 O   0  0  0  0  0  0  0  0  0  0  0  0
  197.3910  173.0140  144.7170 C   0  0  0  0  0  2  0  0  0  0  0  0
  197.4640  174.3680  144.1200 C   0  0  1  0  0  3  0  0  0  0  0  0
  195.8490  174.7920  142.2730 C   0  0  0  0  0  2  0  0  0  0  0  0
  195.4150  176.0300  141.7990 O   0  0  0  0  0  0  0  0  0  0  0  0
  195.7010  176.0140  140.5130 O   0  0  0  0  0  1  0  0  0  0  0  0
  2 23  1  0  0  0  0
  2  1  2  0  0  0  0
  4  3  1  1  0  0  0
  4  2  1  0  0  0  0
  5  4  1  0  0  0  0
  6  5  1  0  0  0  0
  7  8  1  6  0  0  0
  7  6  1  0  0  0  0
  9 22  1  6  0  0  0
  9  7  1  0  0  0  0
 10 11  1  6  0  0  0
 10 12  1  0  0  0  0
 10  9  1  0  0  0  0
 12 13  1  6  0  0  0
 12 17  1  0  0  0  0
 15 14  1  0  0  0  0
 16 18  1  0  0  0  0
 17 15  2  0  0  0  0
 18 20  1  0  0  0  0
 18 14  2  0  0  0  0
 19 16  2  0  0  0  0
 19 17  1  0  0  0  0
 22 21  1  0  0  0  0
 24 23  1  0  0  0  0
 24 26  1  0  0  0  0
 25 28  1  0  0  0  0
 25 26  1  0  0  0  0
 25 27  1  1  0  0  0
 29 30  1  0  0  0  0
 29 28  1  0  0  0  0
 31 32  1  0  0  0  0
 32 33  2  0  0  0  0
 32 30  1  0  0  0  0
 34 38  1  6  0  0  0
 34 31  1  0  0  0  0
 36 35  1  0  0  0  0
 37 34  1  1  0  0  0
 37 36  1  0  0  0  0
 37 35  1  0  0  0  0
 39 38  1  0  0  0  0
 40 39  1  0  0  0  0
M  END
>  <MODEL>
8

>  <REMARK>
 VINA RESULT:      -5.0      2.405      7.437
  Name = 
  21 active torsions:
  status: ('A' for Active; 'I' for Inactive)
    1  A    between atoms: C_1  and  C_21
    2  A    between atoms: C_1  and  N_27
    3  A    between atoms: C_1  and  C_34
    4  A    between atoms: C_2  and  O_11
    5  A    between atoms: C_2  and  C_29
    6  A    between atoms: C_3  and  C_23
    7  A    between atoms: C_3  and  C_39
    8  A    between atoms: C_4  and  C_8
    9  A    between atoms: C_4  and  C_36
   10  A    between atoms: C_8  and  C_32
   11  A    between atoms: O_10  and  C_21
   12  A    between atoms: O_11  and  C_16
   13  A    between atoms: C_13  and  C_31
   14  A    between atoms: C_13  and  C_35
   15  A    between atoms: C_16  and  C_39
   16  A    between atoms: C_20  and  C_23
   17  A    between atoms: C_20  and  C_35
   18  A    between atoms: C_22  and  C_36
   19  A    between atoms: C_24  and  C_31
   20  A    between atoms: C_24  and  C_36
   21  A    between atoms: C_28  and  C_29
                            x       y       z     vdW  Elec       q    Type
                         _______ _______ _______ _____ _____    ______ ____

>  <TORSDO>
F 21

$$$$
=
 OpenBabel11072409293D

 40 41  0  0  1  0  0  0  0  0999 V2000
  185.9310  179.1940  147.6910 O   0  0  0  0  0  0  0  0  0  0  0  0
  185.9640  178.0800  147.1860 C   0  0  0  0  0  0  0  0  0  0  0  0
  188.4270  178.1490  147.6420 C   0  0  0  0  0  1  0  0  0  0  0  0
  187.2320  177.2780  147.2620 C   0  0  2  0  0  3  0  0  0  0  0  0
  187.4580  176.5910  145.9230 C   0  0  0  0  0  2  0  0  0  0  0  0
  187.9930  177.5510  144.8720 C   0  0  0  0  0  2  0  0  0  0  0  0
  189.2830  177.0070  144.2690 C   0  0  2  0  0  3  0  0  0  0  0  0
  190.2250  178.1080  144.1370 N   0  0  0  0  0  1  0  0  0  0  0  0
  189.0530  176.3350  142.9020 C   0  0  1  0  0  3  0  0  0  0  0  0
  188.9460  174.8110  143.0530 C   0  0  1  0  0  3  0  0  0  0  0  0
  187.8380  174.2900  142.3740 O   0  0  0  0  0  1  0  0  0  0  0  0
  190.2430  174.0660  142.7050 C   0  0  1  0  0  3  0  0  0  0  0  0
  190.3690  173.7870  140.9090 S   0  0  0  0  0  1  0  0  0  0  0  0
  193.4780  176.0350  142.8680 C   0  0  0  0  0  3  0  0  0  0  0  0
  192.3000  175.4460  142.3940 C   0  0  0  0  0  3  0  0  0  0  0  0
  193.0520  175.1170  145.0680 C   0  0  0  0  0  3  0  0  0  0  0  0
  191.4970  174.6890  143.2510 C   0  0  0  0  0  0  0  0  0  0  0  0
  193.8570  175.8650  144.2030 C   0  0  0  0  0  0  0  0  0  0  0  0
  191.8720  174.5310  144.5950 C   0  0  0  0  0  3  0  0  0  0  0  0
  195.0270  176.4450  144.6750 O   0  0  0  0  0  1  0  0  0  0  0  0
  188.1890  177.9570  141.3700 O   0  0  0  0  0  1  0  0  0  0  0  0
  187.8170  176.9000  142.2040 C   0  0  0  0  0  2  0  0  0  0  0  0
  184.7190  177.5190  146.5530 C   0  0  0  0  0  2  0  0  0  0  0  0
  183.8410  178.6150  145.9680 C   0  0  0  0  0  2  0  0  0  0  0  0
  184.4830  178.4060  143.6020 C   0  0  2  0  0  3  0  0  0  0  0  0
  184.4340  179.1630  144.7090 C   0  0  0  0  0  2  0  0  0  0  0  0
  183.7000  179.0420  143.3840 C   0  0  0  0  0  1  0  0  0  0  0  0
  184.2430  177.9630  142.6020 O   0  0  0  0  0  0  0  0  0  0  0  0
  183.7370  178.1510  141.3130 C   0  0  0  0  0  2  0  0  0  0  0  0
  182.2500  178.4310  141.3930 C   0  0  0  0  0  2  0  0  0  0  0  0
  180.2310  178.3000  139.8430 N   0  0  0  0  0  2  0  0  0  0  0  0
  181.5710  177.9130  140.1690 C   0  0  0  0  0  0  0  0  0  0  0  0
  182.1960  177.1370  139.3990 O   0  0  0  0  0  0  0  0  0  0  0  0
  179.4550  179.2340  140.6520 C   0  0  2  0  0  3  0  0  0  0  0  0
  178.8250  177.6520  142.3290 O   0  0  0  0  0  0  0  0  0  0  0  0
  178.2510  178.8600  142.7590 C   0  0  0  0  0  2  0  0  0  0  0  0
  178.3100  178.4940  141.3250 C   0  0  1  0  0  3  0  0  0  0  0  0
  178.9060  180.3420  139.7670 C   0  0  0  0  0  2  0  0  0  0  0  0
  179.4120  181.5760  140.1750 O   0  0  0  0  0  0  0  0  0  0  0  0
  179.1790  182.3840  139.1610 O   0  0  0  0  0  1  0  0  0  0  0  0
  2  4  1  0  0  0  0
  2  1  2  0  0  0  0
  4  3  1  6  0  0  0
  5  4  1  0  0  0  0
  6  5  1  0  0  0  0
  7  8  1  6  0  0  0
  7  6  1  0  0  0  0
  9 22  1  1  0  0  0
  9 10  1  0  0  0  0
  9  7  1  0  0  0  0
 10 11  1  6  0  0  0
 12 13  1  6  0  0  0
 12 10  1  0  0  0  0
 12 17  1  0  0  0  0
 14 18  1  0  0  0  0
 15 14  2  0  0  0  0
 15 17  1  0  0  0  0
 17 19  2  0  0  0  0
 18 20  1  0  0  0  0
 18 16  2  0  0  0  0
 19 16  1  0  0  0  0
 21 22  1  0  0  0  0
 23  2  1  0  0  0  0
 24 23  1  0  0  0  0
 25 27  1  6  0  0  0
 25 26  1  0  0  0  0
 26 24  1  0  0  0  0
 28 25  1  0  0  0  0
 29 30  1  0  0  0  0
 29 28  1  0  0  0  0
 31 32  1  0  0  0  0
 31 34  1  0  0  0  0
 32 30  1  0  0  0  0
 33 32  2  0  0  0  0
 34 38  1  6  0  0  0
 35 36  1  0  0  0  0
 37 34  1  6  0  0  0
 37 35  1  0  0  0  0
 37 36  1  0  0  0  0
 38 39  1  0  0  0  0
 40 39  1  0  0  0  0
M  END
>  <MODEL>
9

>  <REMARK>
 VINA RESULT:      -4.9      3.712      6.590
  Name = 
  21 active torsions:
  status: ('A' for Active; 'I' for Inactive)
    1  A    between atoms: C_1  and  C_21
    2  A    between atoms: C_1  and  N_27
    3  A    between atoms: C_1  and  C_34
    4  A    between atoms: C_2  and  O_11
    5  A    between atoms: C_2  and  C_29
    6  A    between atoms: C_3  and  C_23
    7  A    between atoms: C_3  and  C_39
    8  A    between atoms: C_4  and  C_8
    9  A    between atoms: C_4  and  C_36
   10  A    between atoms: C_8  and  C_32
   11  A    between atoms: O_10  and  C_21
   12  A    between atoms: O_11  and  C_16
   13  A    between atoms: C_13  and  C_31
   14  A    between atoms: C_13  and  C_35
   15  A    between atoms: C_16  and  C_39
   16  A    between atoms: C_20  and  C_23
   17  A    between atoms: C_20  and  C_35
   18  A    between atoms: C_22  and  C_36
   19  A    between atoms: C_24  and  C_31
   20  A    between atoms: C_24  and  C_36
   21  A    between atoms: C_28  and  C_29
                            x       y       z     vdW  Elec       q    Type
                         _______ _______ _______ _____ _____    ______ ____

>  <TORSDO>
F 21

$$$$
