=
 OpenBabel11062419103D

 54 62  0  0  1  0  0  0  0  0999 V2000
  189.8240  173.9660  143.7760 C   0  0  0  0  0  0  0  0  0  0  0  0
  191.9910  175.3400  145.6720 C   0  0  0  0  0  0  0  0  0  0  0  0
  190.8300  175.6520  146.2640 C   0  0  0  0  0  0  0  0  0  0  0  0
  193.5920  174.4640  144.4390 C   0  0  0  0  0  0  0  0  0  0  0  0
  193.3310  176.8290  147.2300 C   0  0  0  0  0  3  0  0  0  0  0  0
  194.1790  175.3440  145.3590 C   0  0  0  0  0  0  0  0  0  0  0  0
  193.2520  175.8920  146.1160 C   0  0  0  0  0  0  0  0  0  0  0  0
  188.9450  173.2600  143.3120 O   0  0  0  0  0  0  0  0  0  0  0  0
  195.8310  174.3910  143.9670 C   0  0  2  0  0  3  0  0  0  0  0  0
  194.5270  173.8640  143.6330 O   0  0  0  0  0  0  0  0  0  0  0  0
  188.3570  175.3710  145.3750 N   0  0  0  0  0  0  0  0  0  0  0  0
  192.1830  177.1540  147.8510 C   0  0  0  0  0  3  0  0  0  0  0  0
  192.2650  174.4080  144.5290 C   0  0  0  0  0  0  0  0  0  0  0  0
  189.6470  174.8340  145.8550 C   0  0  1  0  0  3  0  0  0  0  0  0
  191.2990  173.5550  143.6910 C   0  0  2  0  0  3  0  0  0  0  0  0
  189.4910  175.2520  144.4510 C   0  0  1  0  0  3  0  0  0  0  0  0
  195.6440  175.3530  145.1920 C   0  0  0  0  0  2  0  0  0  0  0  0
  190.8190  176.5790  147.4680 C   0  0  0  0  0  2  0  0  0  0  0  0
  196.4660  175.1530  142.7790 C   0  0  1  0  0  0  0  0  0  0  0  0
  195.5850  176.4540  141.0800 O   0  0  0  0  0  1  0  0  0  0  0  0
  197.0720  174.4190  141.6000 C   0  0  2  0  0  0  0  0  0  0  0  0
  195.6500  175.1210  141.5040 C   0  0  1  0  0  0  0  0  0  0  0  0
  197.2950  176.3910  143.1240 C   0  0  0  0  0  1  0  0  0  0  0  0
  197.1500  173.0850  142.0050 O   0  0  0  0  0  1  0  0  0  0  0  0
  196.2300  174.3080  140.3520 C   0  0  1  0  0  3  0  0  0  0  0  0
  197.9390  175.6580  139.3760 O   0  0  0  0  0  0  0  0  0  0  0  0
  196.8300  175.0840  139.1980 C   0  0  0  0  0  0  0  0  0  0  0  0
  196.1290  175.2630  137.9060 C   0  0  0  0  0  0  0  0  0  0  0  0
  194.7440  175.0710  137.7950 C   0  0  0  0  0  3  0  0  0  0  0  0
  196.2080  175.8330  135.5430 C   0  0  0  0  0  3  0  0  0  0  0  0
  194.8280  175.6320  135.4430 C   0  0  0  0  0  3  0  0  0  0  0  0
  196.8550  175.6500  136.7680 C   0  0  0  0  0  3  0  0  0  0  0  0
  194.0960  175.2530  136.5700 C   0  0  0  0  0  3  0  0  0  0  0  0
  191.3310  174.3810  141.3840 O   0  0  0  0  0  1  0  0  0  0  0  0
  191.4520  172.0240  141.7220 C   0  0  0  0  0  1  0  0  0  0  0  0
  191.8190  173.3970  142.2510 C   0  0  2  0  0  3  0  0  0  0  0  0
  188.2710  176.7250  145.7470 N   0  0  0  0  0  2  0  0  0  0  0  0
  187.1360  175.8950  147.7680 C   0  0  0  0  0  1  0  0  0  0  0  0
  187.1240  176.9120  146.6380 C   0  0  2  0  0  3  0  0  0  0  0  0
  185.5870  178.1380  145.0850 C   0  0  2  0  0  3  0  0  0  0  0  0
  185.7970  176.8620  145.8750 C   0  0  2  0  0  3  0  0  0  0  0  0
  184.7520  177.8870  146.3280 C   0  0  1  0  0  3  0  0  0  0  0  0
  185.2030  178.8380  147.4270 C   0  0  0  0  0  1  0  0  0  0  0  0
  184.8030  177.8330  143.8960 N   0  0  0  0  0  2  0  0  0  0  0  0
  184.5390  177.7800  141.5920 O   0  0  0  0  0  0  0  0  0  0  0  0
  185.3000  178.0150  142.5680 C   0  0  0  0  0  0  0  0  0  0  0  0
  186.6790  178.5490  142.3290 C   0  0  0  0  0  2  0  0  0  0  0  0
  189.1100  178.0110  142.2930 C   0  0  0  0  0  1  0  0  0  0  0  0
  187.7130  177.4360  142.1860 C   0  0  2  0  0  3  0  0  0  0  0  0
  187.5610  176.7650  140.8310 C   0  0  0  0  0  2  0  0  0  0  0  0
  188.1360  174.5660  139.7340 C   0  0  0  0  0  0  0  0  0  0  0  0
  188.0280  175.3880  140.8960 N   0  0  0  0  0  2  0  0  0  0  0  0
  188.5460  173.2120  139.8650 N   0  0  0  0  0  1  0  0  0  0  0  0
  187.8560  175.0260  138.5940 O   0  0  0  0  0  0  0  0  0  0  0  0
  2  7  1  0  0  0  0
  2  3  2  0  0  0  0
  3 18  1  0  0  0  0
  4 13  2  0  0  0  0
  4  6  1  0  0  0  0
  5 12  2  0  0  0  0
  6  7  2  0  0  0  0
  7  5  1  0  0  0  0
  8  1  2  0  0  0  0
  9 17  1  1  0  0  0
 10  9  1  0  0  0  0
 10  4  1  0  0  0  0
 11 37  1  0  0  0  0
 11 14  1  0  0  0  0
 13  2  1  0  0  0  0
 14  3  1  1  0  0  0
 15 36  1  6  0  0  0
 15  1  1  0  0  0  0
 15 13  1  0  0  0  0
 16  1  1  6  0  0  0
 16 11  1  0  0  0  0
 16 14  1  0  0  0  0
 17  6  1  0  0  0  0
 18 12  1  0  0  0  0
 19 23  1  1  0  0  0
 19  9  1  0  0  0  0
 21 24  1  1  0  0  0
 21 19  1  0  0  0  0
 22 20  1  6  0  0  0
 22 21  1  0  0  0  0
 22 19  1  0  0  0  0
 25 27  1  6  0  0  0
 25 22  1  0  0  0  0
 25 21  1  0  0  0  0
 27 26  2  0  0  0  0
 28 27  1  0  0  0  0
 29 28  1  0  0  0  0
 30 32  1  0  0  0  0
 31 30  2  0  0  0  0
 31 33  1  0  0  0  0
 32 28  2  0  0  0  0
 33 29  2  0  0  0  0
 34 36  1  0  0  0  0
 36 35  1  6  0  0  0
 37 39  1  0  0  0  0
 39 38  1  1  0  0  0
 40 44  1  6  0  0  0
 40 41  1  0  0  0  0
 40 42  1  0  0  0  0
 41 42  1  0  0  0  0
 41 39  1  1  0  0  0
 42 43  1  1  0  0  0
 45 46  2  0  0  0  0
 46 44  1  0  0  0  0
 47 46  1  0  0  0  0
 49 48  1  6  0  0  0
 49 47  1  0  0  0  0
 50 52  1  0  0  0  0
 50 49  1  0  0  0  0
 51 53  1  0  0  0  0
 51 52  1  0  0  0  0
 54 51  2  0  0  0  0
M  END
>  <MODEL>
1

>  <REMARK>
 VINA RESULT:      -8.2      0.000      0.000
  Name = 
  12 active torsions:
  status: ('A' for Active; 'I' for Inactive)
    1  A    between atoms: C_2  and  N_5
    2  A    between atoms: C_8  and  C_43
    3  A    between atoms: C_10  and  C_32
    4  A    between atoms: C_14  and  C_53
    5  A    between atoms: C_23  and  N_29
    6  A    between atoms: C_23  and  C_40
    7  A    between atoms: N_25  and  N_36
    8  A    between atoms: N_25  and  C_43
    9  A    between atoms: C_26  and  C_47
   10  A    between atoms: C_35  and  C_53
   11  A    between atoms: C_40  and  C_48
   12  A    between atoms: C_48  and  C_54
                            x       y       z     vdW  Elec       q    Type
                         _______ _______ _______ _____ _____    ______ ____

>  <TORSDO>
F 12

$$$$
=
 OpenBabel11062419103D

 54 62  0  0  1  0  0  0  0  0999 V2000
  195.6660  173.7350  140.5580 C   0  0  0  0  0  0  0  0  0  0  0  0
  193.0300  172.0300  141.1220 C   0  0  0  0  0  0  0  0  0  0  0  0
  193.5180  171.4710  140.0050 C   0  0  0  0  0  0  0  0  0  0  0  0
  192.7230  173.1600  142.9860 C   0  0  0  0  0  0  0  0  0  0  0  0
  190.8910  170.6670  141.0160 C   0  0  0  0  0  3  0  0  0  0  0  0
  191.5960  172.3540  142.7720 C   0  0  0  0  0  0  0  0  0  0  0  0
  191.7380  171.6610  141.6610 C   0  0  0  0  0  0  0  0  0  0  0  0
  196.8170  174.1070  140.4060 O   0  0  0  0  0  0  0  0  0  0  0  0
  191.3260  173.6340  144.7370 C   0  0  2  0  0  3  0  0  0  0  0  0
  192.6170  173.8950  144.1400 O   0  0  0  0  0  0  0  0  0  0  0  0
  195.4580  172.3050  138.4150 N   0  0  0  0  0  0  0  0  0  0  0  0
  191.3590  170.0820  139.9000 C   0  0  0  0  0  3  0  0  0  0  0  0
  193.6410  173.0550  142.0280 C   0  0  1  0  0  3  0  0  0  0  0  0
  194.9500  171.7730  139.6970 C   0  0  1  0  0  3  0  0  0  0  0  0
  194.9940  173.7800  141.9360 C   0  0  2  0  0  3  0  0  0  0  0  0
  194.8750  173.2150  139.4070 C   0  0  1  0  0  3  0  0  0  0  0  0
  190.6270  172.5300  143.8700 C   0  0  0  0  0  2  0  0  0  0  0  0
  192.7290  170.3850  139.2930 C   0  0  0  0  0  3  0  0  0  0  0  0
  190.4500  174.9090  144.7940 C   0  0  1  0  0  0  0  0  0  0  0  0
  190.9120  177.1280  145.2570 O   0  0  0  0  0  1  0  0  0  0  0  0
  189.4310  175.1220  145.8950 C   0  0  2  0  0  0  0  0  0  0  0  0
  190.8270  175.8820  145.8900 C   0  0  1  0  0  0  0  0  0  0  0  0
  189.9150  175.4300  143.4600 C   0  0  0  0  0  1  0  0  0  0  0  0
  189.3290  173.8870  146.5380 O   0  0  0  0  0  1  0  0  0  0  0  0
  189.8320  176.0250  147.0360 C   0  0  1  0  0  3  0  0  0  0  0  0
  189.4500  178.2840  147.7040 O   0  0  0  0  0  0  0  0  0  0  0  0
  189.0000  177.2910  147.0710 C   0  0  0  0  0  0  0  0  0  0  0  0
  187.6520  177.3760  146.4660 C   0  0  0  0  0  0  0  0  0  0  0  0
  186.5280  176.8330  147.1060 C   0  0  0  0  0  3  0  0  0  0  0  0
  186.2150  178.1270  144.6520 C   0  0  0  0  0  3  0  0  0  0  0  0
  185.1040  177.5750  145.2970 C   0  0  0  0  0  3  0  0  0  0  0  0
  187.4820  178.0290  145.2340 C   0  0  0  0  0  3  0  0  0  0  0  0
  185.2610  176.9300  146.5250 C   0  0  0  0  0  3  0  0  0  0  0  0
  194.6150  176.1750  141.5770 O   0  0  0  0  0  1  0  0  0  0  0  0
  196.1890  175.5380  143.2500 C   0  0  0  0  0  1  0  0  0  0  0  0
  194.8970  175.1950  142.5350 C   0  0  2  0  0  3  0  0  0  0  0  0
  194.4800  172.0950  137.4260 N   0  0  0  0  0  2  0  0  0  0  0  0
  196.2630  172.4720  135.7700 C   0  0  0  0  0  1  0  0  0  0  0  0
  195.1180  171.5760  136.2150 C   0  0  2  0  0  3  0  0  0  0  0  0
  192.8070  170.8160  135.6140 C   0  0  2  0  0  3  0  0  0  0  0  0
  194.1090  171.3800  135.0800 C   0  0  2  0  0  3  0  0  0  0  0  0
  193.7250  169.9230  134.7990 C   0  0  1  0  0  3  0  0  0  0  0  0
  194.3600  168.8920  135.7220 C   0  0  0  0  0  1  0  0  0  0  0  0
  191.7110  171.2860  134.7790 N   0  0  0  0  0  2  0  0  0  0  0  0
  189.5270  172.0250  134.5140 O   0  0  0  0  0  0  0  0  0  0  0  0
  190.4430  171.6820  135.3080 C   0  0  0  0  0  0  0  0  0  0  0  0
  190.1720  171.6220  136.7810 C   0  0  0  0  0  2  0  0  0  0  0  0
  191.0540  173.4850  138.1790 C   0  0  0  0  0  1  0  0  0  0  0  0
  189.8700  172.9970  137.3690 C   0  0  2  0  0  3  0  0  0  0  0  0
  188.6560  172.9110  138.2780 C   0  0  0  0  0  2  0  0  0  0  0  0
  188.2270  174.4820  140.2060 C   0  0  0  0  0  0  0  0  0  0  0  0
  188.3280  174.2280  138.8060 N   0  0  0  0  0  2  0  0  0  0  0  0
  187.8490  175.7740  140.6630 N   0  0  0  0  0  1  0  0  0  0  0  0
  188.4550  173.5670  141.0430 O   0  0  0  0  0  0  0  0  0  0  0  0
  1 15  1  0  0  0  0
  2  7  2  0  0  0  0
  3  2  1  0  0  0  0
  4 10  1  0  0  0  0
  5  7  1  0  0  0  0
  6  4  2  0  0  0  0
  6 17  1  0  0  0  0
  7  6  1  0  0  0  0
  8  1  2  0  0  0  0
  9 17  1  6  0  0  0
  9 19  1  0  0  0  0
 10  9  1  0  0  0  0
 11 16  1  0  0  0  0
 11 14  1  0  0  0  0
 12  5  2  0  0  0  0
 13  2  1  1  0  0  0
 13  4  1  0  0  0  0
 14  3  1  6  0  0  0
 15 13  1  0  0  0  0
 15 36  1  6  0  0  0
 16 14  1  0  0  0  0
 16  1  1  1  0  0  0
 18 12  1  0  0  0  0
 18  3  2  0  0  0  0
 19 23  1  6  0  0  0
 19 22  1  0  0  0  0
 19 21  1  0  0  0  0
 21 24  1  1  0  0  0
 21 25  1  0  0  0  0
 22 20  1  6  0  0  0
 22 21  1  0  0  0  0
 22 25  1  0  0  0  0
 25 27  1  6  0  0  0
 27 26  2  0  0  0  0
 28 27  1  0  0  0  0
 28 29  1  0  0  0  0
 30 32  1  0  0  0  0
 30 31  2  0  0  0  0
 31 33  1  0  0  0  0
 32 28  2  0  0  0  0
 33 29  2  0  0  0  0
 34 36  1  0  0  0  0
 36 35  1  6  0  0  0
 37 11  1  0  0  0  0
 39 38  1  6  0  0  0
 39 37  1  0  0  0  0
 40 44  1  6  0  0  0
 41 40  1  0  0  0  0
 41 39  1  1  0  0  0
 42 41  1  0  0  0  0
 42 40  1  0  0  0  0
 42 43  1  1  0  0  0
 44 46  1  0  0  0  0
 45 46  2  0  0  0  0
 46 47  1  0  0  0  0
 47 49  1  0  0  0  0
 49 48  1  1  0  0  0
 49 50  1  0  0  0  0
 50 52  1  0  0  0  0
 51 53  1  0  0  0  0
 51 54  2  0  0  0  0
 52 51  1  0  0  0  0
M  END
>  <MODEL>
2

>  <REMARK>
 VINA RESULT:      -7.3      3.173      9.544
  Name = 
  12 active torsions:
  status: ('A' for Active; 'I' for Inactive)
    1  A    between atoms: C_2  and  N_5
    2  A    between atoms: C_8  and  C_43
    3  A    between atoms: C_10  and  C_32
    4  A    between atoms: C_14  and  C_53
    5  A    between atoms: C_23  and  N_29
    6  A    between atoms: C_23  and  C_40
    7  A    between atoms: N_25  and  N_36
    8  A    between atoms: N_25  and  C_43
    9  A    between atoms: C_26  and  C_47
   10  A    between atoms: C_35  and  C_53
   11  A    between atoms: C_40  and  C_48
   12  A    between atoms: C_48  and  C_54
                            x       y       z     vdW  Elec       q    Type
                         _______ _______ _______ _____ _____    ______ ____

>  <TORSDO>
F 12

$$$$
=
 OpenBabel11062419103D

 54 62  0  0  1  0  0  0  0  0999 V2000
  190.7090  172.3480  141.6060 C   0  0  0  0  0  0  0  0  0  0  0  0
  191.4220  174.3990  143.9430 C   0  0  0  0  0  0  0  0  0  0  0  0
  192.3060  173.4090  144.1290 C   0  0  0  0  0  0  0  0  0  0  0  0
  189.9090  175.7910  143.1540 C   0  0  0  0  0  0  0  0  0  0  0  0
  192.0900  175.5690  146.0940 C   0  0  0  0  0  3  0  0  0  0  0  0
  190.3730  176.2960  144.3760 C   0  0  0  0  0  0  0  0  0  0  0  0
  191.2810  175.4890  144.8840 C   0  0  0  0  0  0  0  0  0  0  0  0
  190.7290  171.6480  140.6080 O   0  0  0  0  0  0  0  0  0  0  0  0
  188.7110  177.7140  143.4810 C   0  0  2  0  0  3  0  0  0  0  0  0
  188.9630  176.6070  142.5850 O   0  0  0  0  0  0  0  0  0  0  0  0
  192.4070  171.0100  143.0230 N   0  0  0  0  0  0  0  0  0  0  0  0
  192.9930  174.5960  146.3020 C   0  0  0  0  0  3  0  0  0  0  0  0
  190.4630  174.6290  142.8130 C   0  0  0  0  0  0  0  0  0  0  0  0
  192.5050  172.4840  142.9710 C   0  0  1  0  0  3  0  0  0  0  0  0
  190.2000  173.7940  141.5500 C   0  0  2  0  0  3  0  0  0  0  0  0
  191.1900  171.8220  142.9150 C   0  0  1  0  0  3  0  0  0  0  0  0
  189.7090  177.5760  144.6840 C   0  0  0  0  0  2  0  0  0  0  0  0
  193.2310  173.4360  145.3350 C   0  0  0  0  0  2  0  0  0  0  0  0
  187.2510  177.7200  143.9930 C   0  0  1  0  0  0  0  0  0  0  0  0
  185.3820  176.4640  143.4610 O   0  0  0  0  0  1  0  0  0  0  0  0
  186.3030  178.8580  143.6710 C   0  0  2  0  0  0  0  0  0  0  0  0
  186.2100  177.4580  142.9250 C   0  0  1  0  0  0  0  0  0  0  0  0
  187.0240  177.2200  145.4200 C   0  0  0  0  0  1  0  0  0  0  0  0
  187.1120  179.8630  143.1380 O   0  0  0  0  0  1  0  0  0  0  0  0
  185.3170  178.6350  142.5500 C   0  0  1  0  0  3  0  0  0  0  0  0
  183.6960  178.6060  144.3010 O   0  0  0  0  0  0  0  0  0  0  0  0
  183.8890  178.6030  143.0550 C   0  0  0  0  0  0  0  0  0  0  0  0
  182.7250  178.4830  142.1480 C   0  0  0  0  0  0  0  0  0  0  0  0
  181.4660  178.9890  142.5050 C   0  0  0  0  0  3  0  0  0  0  0  0
  181.7920  177.7520  140.0230 C   0  0  0  0  0  3  0  0  0  0  0  0
  180.5410  178.2550  140.3940 C   0  0  0  0  0  3  0  0  0  0  0  0
  182.8780  177.8660  140.8960 C   0  0  0  0  0  3  0  0  0  0  0  0
  180.3790  178.8750  141.6340 C   0  0  0  0  0  3  0  0  0  0  0  0
  187.9550  172.8110  141.4730 O   0  0  0  0  0  1  0  0  0  0  0  0
  188.6610  174.1180  139.6080 C   0  0  0  0  0  1  0  0  0  0  0  0
  188.7300  173.9180  141.1090 C   0  0  2  0  0  3  0  0  0  0  0  0
  192.5100  170.6040  144.3660 N   0  0  0  0  0  2  0  0  0  0  0  0
  192.8120  168.2160  144.8830 C   0  0  0  0  0  1  0  0  0  0  0  0
  193.4840  169.5150  144.4710 C   0  0  2  0  0  3  0  0  0  0  0  0
  195.6050  170.8170  144.7710 C   0  0  2  0  0  3  0  0  0  0  0  0
  194.6260  169.8650  145.4290 C   0  0  2  0  0  3  0  0  0  0  0  0
  196.0100  169.3710  144.9940 C   0  0  1  0  0  3  0  0  0  0  0  0
  196.0560  168.6560  143.6500 C   0  0  0  0  0  1  0  0  0  0  0  0
  196.2050  171.6600  145.7940 N   0  0  0  0  0  2  0  0  0  0  0  0
  197.3240  173.5850  146.4460 O   0  0  0  0  0  0  0  0  0  0  0  0
  196.7740  172.9410  145.5140 C   0  0  0  0  0  0  0  0  0  0  0  0
  196.7880  173.4860  144.1180 C   0  0  0  0  0  2  0  0  0  0  0  0
  195.7230  175.7360  144.0370 C   0  0  0  0  0  1  0  0  0  0  0  0
  197.0410  174.9910  144.0890 C   0  0  2  0  0  3  0  0  0  0  0  0
  197.8570  175.3500  142.8590 C   0  0  0  0  0  2  0  0  0  0  0  0
  196.9180  174.7240  140.6020 C   0  0  0  0  0  0  0  0  0  0  0  0
  197.6190  174.3840  141.7970 N   0  0  0  0  0  2  0  0  0  0  0  0
  196.6670  173.7250  139.6230 N   0  0  0  0  0  1  0  0  0  0  0  0
  196.5050  175.9000  140.4120 O   0  0  0  0  0  0  0  0  0  0  0  0
  2  3  2  0  0  0  0
  2  7  1  0  0  0  0
  3 18  1  0  0  0  0
  4  6  1  0  0  0  0
  5 12  2  0  0  0  0
  6 17  1  0  0  0  0
  6  7  2  0  0  0  0
  7  5  1  0  0  0  0
  8  1  2  0  0  0  0
  9 19  1  0  0  0  0
  9 17  1  1  0  0  0
 10  4  1  0  0  0  0
 10  9  1  0  0  0  0
 11 37  1  0  0  0  0
 13  4  2  0  0  0  0
 13  2  1  0  0  0  0
 14 11  1  0  0  0  0
 14  3  1  1  0  0  0
 15 36  1  1  0  0  0
 15  1  1  0  0  0  0
 15 13  1  0  0  0  0
 16  1  1  6  0  0  0
 16 14  1  0  0  0  0
 16 11  1  0  0  0  0
 18 12  1  0  0  0  0
 19 23  1  1  0  0  0
 21 24  1  6  0  0  0
 21 19  1  0  0  0  0
 22 20  1  1  0  0  0
 22 21  1  0  0  0  0
 22 19  1  0  0  0  0
 25 22  1  0  0  0  0
 25 27  1  1  0  0  0
 25 21  1  0  0  0  0
 27 26  2  0  0  0  0
 28 29  1  0  0  0  0
 28 27  1  0  0  0  0
 30 31  2  0  0  0  0
 30 32  1  0  0  0  0
 31 33  1  0  0  0  0
 32 28  2  0  0  0  0
 33 29  2  0  0  0  0
 36 35  1  6  0  0  0
 36 34  1  0  0  0  0
 37 39  1  0  0  0  0
 39 38  1  1  0  0  0
 40 42  1  0  0  0  0
 40 41  1  0  0  0  0
 40 44  1  1  0  0  0
 41 39  1  6  0  0  0
 42 43  1  6  0  0  0
 42 41  1  0  0  0  0
 46 44  1  0  0  0  0
 46 45  2  0  0  0  0
 47 46  1  0  0  0  0
 49 48  1  6  0  0  0
 49 47  1  0  0  0  0
 50 49  1  0  0  0  0
 51 52  1  0  0  0  0
 52 50  1  0  0  0  0
 53 51  1  0  0  0  0
 54 51  2  0  0  0  0
M  END
>  <MODEL>
3

>  <REMARK>
 VINA RESULT:      -7.3      3.519      9.829
  Name = 
  12 active torsions:
  status: ('A' for Active; 'I' for Inactive)
    1  A    between atoms: C_2  and  N_5
    2  A    between atoms: C_8  and  C_43
    3  A    between atoms: C_10  and  C_32
    4  A    between atoms: C_14  and  C_53
    5  A    between atoms: C_23  and  N_29
    6  A    between atoms: C_23  and  C_40
    7  A    between atoms: N_25  and  N_36
    8  A    between atoms: N_25  and  C_43
    9  A    between atoms: C_26  and  C_47
   10  A    between atoms: C_35  and  C_53
   11  A    between atoms: C_40  and  C_48
   12  A    between atoms: C_48  and  C_54
                            x       y       z     vdW  Elec       q    Type
                         _______ _______ _______ _____ _____    ______ ____

>  <TORSDO>
F 12

$$$$
=
 OpenBabel11062419103D

 54 62  0  0  1  0  0  0  0  0999 V2000
  190.7220  173.2190  142.1940 C   0  0  0  0  0  0  0  0  0  0  0  0
  193.7270  172.9240  143.2220 C   0  0  0  0  0  0  0  0  0  0  0  0
  193.0440  173.1660  144.3490 C   0  0  0  0  0  0  0  0  0  0  0  0
  194.3570  172.4250  141.1710 C   0  0  0  0  0  0  0  0  0  0  0  0
  195.9710  173.0880  144.3970 C   0  0  0  0  0  3  0  0  0  0  0  0
  195.5070  172.5700  141.9590 C   0  0  0  0  0  0  0  0  0  0  0  0
  195.1730  172.8720  143.1970 C   0  0  0  0  0  0  0  0  0  0  0  0
  189.5330  173.0620  141.9730 O   0  0  0  0  0  0  0  0  0  0  0  0
  196.0990  172.0730  139.7290 C   0  0  2  0  0  3  0  0  0  0  0  0
  194.6600  172.1020  139.8730 O   0  0  0  0  0  0  0  0  0  0  0  0
  190.5390  173.9490  144.6670 N   0  0  0  0  0  0  0  0  0  0  0  0
  195.3130  173.3220  145.5460 C   0  0  0  0  0  3  0  0  0  0  0  0
  193.2250  172.6440  141.8370 C   0  0  0  0  0  0  0  0  0  0  0  0
  191.5650  172.9600  144.2740 C   0  0  1  0  0  3  0  0  0  0  0  0
  191.7860  172.5700  141.3000 C   0  0  2  0  0  3  0  0  0  0  0  0
  191.1800  174.0400  143.3500 C   0  0  1  0  0  3  0  0  0  0  0  0
  196.7140  172.3170  141.1510 C   0  0  0  0  0  2  0  0  0  0  0  0
  193.7890  173.3490  145.6620 C   0  0  0  0  0  2  0  0  0  0  0  0
  196.6000  173.1490  138.7350 C   0  0  1  0  0  0  0  0  0  0  0  0
  195.8710  175.2810  138.2110 O   0  0  0  0  0  1  0  0  0  0  0  0
  196.4570  172.9720  137.2370 C   0  0  2  0  0  0  0  0  0  0  0  0
  195.5000  173.9390  138.0590 C   0  0  1  0  0  0  0  0  0  0  0  0
  197.9300  173.8240  139.0720 C   0  0  0  0  0  1  0  0  0  0  0  0
  196.0920  171.6360  137.0640 O   0  0  0  0  0  1  0  0  0  0  0  0
  195.3110  173.6900  136.5670 C   0  0  1  0  0  3  0  0  0  0  0  0
  196.9130  174.6070  135.0540 O   0  0  0  0  0  0  0  0  0  0  0  0
  195.7990  174.7690  135.6220 C   0  0  0  0  0  0  0  0  0  0  0  0
  195.0630  176.0360  135.4090 C   0  0  0  0  0  0  0  0  0  0  0  0
  195.7230  177.2050  135.0010 C   0  0  0  0  0  3  0  0  0  0  0  0
  192.9590  177.2580  135.3940 C   0  0  0  0  0  3  0  0  0  0  0  0
  193.6300  178.4170  134.9940 C   0  0  0  0  0  3  0  0  0  0  0  0
  193.6720  176.0730  135.5990 C   0  0  0  0  0  3  0  0  0  0  0  0
  195.0120  178.3900  134.7960 C   0  0  0  0  0  3  0  0  0  0  0  0
  190.7820  174.0360  139.6110 O   0  0  0  0  0  1  0  0  0  0  0  0
  191.4260  171.8420  138.9370 C   0  0  0  0  0  1  0  0  0  0  0  0
  191.7270  173.0280  139.8310 C   0  0  2  0  0  3  0  0  0  0  0  0
  191.1460  174.9190  145.4860 N   0  0  0  0  0  2  0  0  0  0  0  0
  192.4680  176.8430  144.7060 C   0  0  0  0  0  1  0  0  0  0  0  0
  191.0860  176.2220  144.8200 C   0  0  2  0  0  3  0  0  0  0  0  0
  188.6960  176.6570  145.4350 C   0  0  2  0  0  3  0  0  0  0  0  0
  190.1170  177.1760  145.5240 C   0  0  2  0  0  3  0  0  0  0  0  0
  189.1010  177.8620  144.6050 C   0  0  1  0  0  3  0  0  0  0  0  0
  189.1670  177.4530  143.1400 C   0  0  0  0  0  1  0  0  0  0  0  0
  187.9580  177.0950  146.6110 N   0  0  0  0  0  2  0  0  0  0  0  0
  185.9730  177.6360  147.6830 O   0  0  0  0  0  0  0  0  0  0  0  0
  186.5330  177.1950  146.6440 C   0  0  0  0  0  0  0  0  0  0  0  0
  185.7100  176.8540  145.4390 C   0  0  0  0  0  2  0  0  0  0  0  0
  184.4260  178.9850  145.3310 C   0  0  0  0  0  1  0  0  0  0  0  0
  185.3920  178.0820  144.5910 C   0  0  2  0  0  3  0  0  0  0  0  0
  184.7550  177.6510  143.2810 C   0  0  0  0  0  2  0  0  0  0  0  0
  185.7200  177.8370  140.9570 C   0  0  0  0  0  0  0  0  0  0  0  0
  185.7830  177.3490  142.2960 N   0  0  0  0  0  2  0  0  0  0  0  0
  186.7240  177.4640  140.0230 N   0  0  0  0  0  1  0  0  0  0  0  0
  184.7740  178.5850  140.5900 O   0  0  0  0  0  0  0  0  0  0  0  0
  2  3  2  0  0  0  0
  3 18  1  0  0  0  0
  4 13  2  0  0  0  0
  4  6  1  0  0  0  0
  5 12  2  0  0  0  0
  6  7  2  0  0  0  0
  7  2  1  0  0  0  0
  7  5  1  0  0  0  0
  8  1  2  0  0  0  0
  9 10  1  0  0  0  0
  9 17  1  1  0  0  0
 10  4  1  0  0  0  0
 11 37  1  0  0  0  0
 12 18  1  0  0  0  0
 13  2  1  0  0  0  0
 14  3  1  1  0  0  0
 14 11  1  0  0  0  0
 15 36  1  6  0  0  0
 15 13  1  0  0  0  0
 15  1  1  0  0  0  0
 16  1  1  6  0  0  0
 16 14  1  0  0  0  0
 16 11  1  0  0  0  0
 17  6  1  0  0  0  0
 19 23  1  1  0  0  0
 19  9  1  0  0  0  0
 21 24  1  1  0  0  0
 21 22  1  0  0  0  0
 21 19  1  0  0  0  0
 22 20  1  6  0  0  0
 22 19  1  0  0  0  0
 25 27  1  6  0  0  0
 25 21  1  0  0  0  0
 25 22  1  0  0  0  0
 26 27  2  0  0  0  0
 28 32  1  0  0  0  0
 28 27  1  0  0  0  0
 29 28  2  0  0  0  0
 30 32  2  0  0  0  0
 31 30  1  0  0  0  0
 33 31  2  0  0  0  0
 33 29  1  0  0  0  0
 34 36  1  0  0  0  0
 36 35  1  6  0  0  0
 39 38  1  1  0  0  0
 39 37  1  0  0  0  0
 40 41  1  0  0  0  0
 40 44  1  1  0  0  0
 41 39  1  6  0  0  0
 42 43  1  6  0  0  0
 42 40  1  0  0  0  0
 42 41  1  0  0  0  0
 44 46  1  0  0  0  0
 46 45  2  0  0  0  0
 47 46  1  0  0  0  0
 49 48  1  1  0  0  0
 49 47  1  0  0  0  0
 50 49  1  0  0  0  0
 51 52  1  0  0  0  0
 52 50  1  0  0  0  0
 53 51  1  0  0  0  0
 54 51  2  0  0  0  0
M  END
>  <MODEL>
4

>  <REMARK>
 VINA RESULT:      -7.2      2.235      4.123
  Name = 
  12 active torsions:
  status: ('A' for Active; 'I' for Inactive)
    1  A    between atoms: C_2  and  N_5
    2  A    between atoms: C_8  and  C_43
    3  A    between atoms: C_10  and  C_32
    4  A    between atoms: C_14  and  C_53
    5  A    between atoms: C_23  and  N_29
    6  A    between atoms: C_23  and  C_40
    7  A    between atoms: N_25  and  N_36
    8  A    between atoms: N_25  and  C_43
    9  A    between atoms: C_26  and  C_47
   10  A    between atoms: C_35  and  C_53
   11  A    between atoms: C_40  and  C_48
   12  A    between atoms: C_48  and  C_54
                            x       y       z     vdW  Elec       q    Type
                         _______ _______ _______ _____ _____    ______ ____

>  <TORSDO>
F 12

$$$$
=
 OpenBabel11062419103D

 54 62  0  0  1  0  0  0  0  0999 V2000
  188.5220  173.9060  141.7360 C   0  0  0  0  0  0  0  0  0  0  0  0
  190.6740  175.9260  142.9440 C   0  0  0  0  0  0  0  0  0  0  0  0
  189.5080  176.5250  143.2210 C   0  0  0  0  0  0  0  0  0  0  0  0
  192.2740  174.5120  142.4040 C   0  0  0  0  0  0  0  0  0  0  0  0
  192.0300  177.9230  143.7310 C   0  0  0  0  0  3  0  0  0  0  0  0
  192.8710  175.6990  142.8510 C   0  0  0  0  0  0  0  0  0  0  0  0
  191.9460  176.5750  143.1830 C   0  0  0  0  0  0  0  0  0  0  0  0
  187.6210  173.0980  141.5840 O   0  0  0  0  0  0  0  0  0  0  0  0
  194.5240  174.1400  142.2100 C   0  0  2  0  0  3  0  0  0  0  0  0
  193.2050  173.5670  142.0530 O   0  0  0  0  0  0  0  0  0  0  0  0
  187.0740  175.9530  142.3620 N   0  0  0  0  0  0  0  0  0  0  0  0
  190.8770  178.5450  144.0290 C   0  0  0  0  0  3  0  0  0  0  0  0
  190.9430  174.5560  142.3970 C   0  0  0  0  0  0  0  0  0  0  0  0
  188.2930  175.6570  143.1440 C   0  0  1  0  0  3  0  0  0  0  0  0
  189.9650  173.4460  141.9780 C   0  0  2  0  0  3  0  0  0  0  0  0
  188.2470  175.3700  141.7000 C   0  0  1  0  0  3  0  0  0  0  0  0
  194.3400  175.5720  142.8230 C   0  0  0  0  0  2  0  0  0  0  0  0
  189.4980  177.9110  143.8470 C   0  0  0  0  0  2  0  0  0  0  0  0
  195.2790  174.2250  140.8610 C   0  0  1  0  0  0  0  0  0  0  0  0
  194.7640  173.5370  138.7130 O   0  0  0  0  0  1  0  0  0  0  0  0
  196.5170  173.3950  140.5920 C   0  0  2  0  0  0  0  0  0  0  0  0
  195.1060  173.0160  139.9670 C   0  0  1  0  0  0  0  0  0  0  0  0
  195.4210  175.6170  140.2450 C   0  0  0  0  0  1  0  0  0  0  0  0
  196.8770  172.8690  141.8340 O   0  0  0  0  0  1  0  0  0  0  0  0
  196.3390  172.1410  139.7720 C   0  0  1  0  0  3  0  0  0  0  0  0
  197.7280  173.2700  138.1940 O   0  0  0  0  0  0  0  0  0  0  0  0
  197.0460  172.2370  138.4350 C   0  0  0  0  0  0  0  0  0  0  0  0
  196.8970  171.2120  137.3780 C   0  0  0  0  0  0  0  0  0  0  0  0
  195.9570  171.3580  136.3460 C   0  0  0  0  0  3  0  0  0  0  0  0
  197.6010  169.1010  136.3940 C   0  0  0  0  0  3  0  0  0  0  0  0
  196.6560  169.2550  135.3750 C   0  0  0  0  0  3  0  0  0  0  0  0
  197.7210  170.0750  137.3900 C   0  0  0  0  0  3  0  0  0  0  0  0
  195.8360  170.3850  135.3510 C   0  0  0  0  0  3  0  0  0  0  0  0
  189.8960  172.8180  139.6090 O   0  0  0  0  0  1  0  0  0  0  0  0
  190.4990  171.1370  141.1880 C   0  0  0  0  0  1  0  0  0  0  0  0
  190.5520  172.6080  140.8270 C   0  0  2  0  0  3  0  0  0  0  0  0
  187.0670  177.3250  142.0490 N   0  0  0  0  0  2  0  0  0  0  0  0
  185.5870  178.2890  140.3340 C   0  0  0  0  0  1  0  0  0  0  0  0
  185.6980  177.7480  141.7500 C   0  0  2  0  0  3  0  0  0  0  0  0
  184.4410  178.0850  143.8920 C   0  0  2  0  0  3  0  0  0  0  0  0
  185.1850  178.7730  142.7650 C   0  0  2  0  0  3  0  0  0  0  0  0
  183.6600  178.8810  142.8630 C   0  0  1  0  0  3  0  0  0  0  0  0
  182.8800  177.9170  141.9800 C   0  0  0  0  0  1  0  0  0  0  0  0
  184.5950  178.8690  145.1090 N   0  0  0  0  0  2  0  0  0  0  0  0
  185.7130  179.3730  147.0780 O   0  0  0  0  0  0  0  0  0  0  0  0
  185.6820  178.6920  146.0190 C   0  0  0  0  0  0  0  0  0  0  0  0
  186.7370  177.6590  145.7640 C   0  0  0  0  0  2  0  0  0  0  0  0
  188.5960  178.2060  147.3280 C   0  0  0  0  0  1  0  0  0  0  0  0
  187.4610  177.2440  147.0410 C   0  0  2  0  0  3  0  0  0  0  0  0
  188.0310  175.8460  146.8780 C   0  0  0  0  0  2  0  0  0  0  0  0
  190.2750  174.8300  146.3290 C   0  0  0  0  0  0  0  0  0  0  0  0
  189.4860  175.8960  146.8570 N   0  0  0  0  0  2  0  0  0  0  0  0
  191.6930  174.9090  146.3850 N   0  0  0  0  0  1  0  0  0  0  0  0
  189.7270  173.8120  145.8270 O   0  0  0  0  0  0  0  0  0  0  0  0
  1 15  1  0  0  0  0
  2  7  1  0  0  0  0
  2  3  2  0  0  0  0
  3 18  1  0  0  0  0
  4  6  1  0  0  0  0
  5 12  2  0  0  0  0
  6  7  2  0  0  0  0
  7  5  1  0  0  0  0
  8  1  2  0  0  0  0
  9 17  1  6  0  0  0
 10  9  1  0  0  0  0
 10  4  1  0  0  0  0
 11 14  1  0  0  0  0
 13  4  2  0  0  0  0
 13  2  1  0  0  0  0
 14  3  1  6  0  0  0
 15 36  1  6  0  0  0
 15 13  1  0  0  0  0
 16  1  1  1  0  0  0
 16 11  1  0  0  0  0
 16 14  1  0  0  0  0
 17  6  1  0  0  0  0
 18 12  1  0  0  0  0
 19 23  1  6  0  0  0
 19  9  1  0  0  0  0
 21 19  1  0  0  0  0
 21 24  1  1  0  0  0
 22 20  1  6  0  0  0
 22 21  1  0  0  0  0
 22 19  1  0  0  0  0
 25 27  1  6  0  0  0
 25 22  1  0  0  0  0
 25 21  1  0  0  0  0
 26 27  2  0  0  0  0
 28 32  1  0  0  0  0
 28 27  1  0  0  0  0
 29 28  2  0  0  0  0
 30 32  2  0  0  0  0
 31 30  1  0  0  0  0
 33 31  2  0  0  0  0
 33 29  1  0  0  0  0
 34 36  1  0  0  0  0
 36 35  1  1  0  0  0
 37 11  1  0  0  0  0
 39 38  1  6  0  0  0
 39 37  1  0  0  0  0
 40 44  1  1  0  0  0
 41 39  1  6  0  0  0
 41 42  1  0  0  0  0
 41 40  1  0  0  0  0
 42 43  1  6  0  0  0
 42 40  1  0  0  0  0
 44 46  1  0  0  0  0
 46 45  2  0  0  0  0
 47 46  1  0  0  0  0
 47 49  1  0  0  0  0
 49 48  1  6  0  0  0
 50 49  1  0  0  0  0
 51 53  1  0  0  0  0
 51 52  1  0  0  0  0
 52 50  1  0  0  0  0
 54 51  2  0  0  0  0
M  END
>  <MODEL>
5

>  <REMARK>
 VINA RESULT:      -7.1      2.723      4.191
  Name = 
  12 active torsions:
  status: ('A' for Active; 'I' for Inactive)
    1  A    between atoms: C_2  and  N_5
    2  A    between atoms: C_8  and  C_43
    3  A    between atoms: C_10  and  C_32
    4  A    between atoms: C_14  and  C_53
    5  A    between atoms: C_23  and  N_29
    6  A    between atoms: C_23  and  C_40
    7  A    between atoms: N_25  and  N_36
    8  A    between atoms: N_25  and  C_43
    9  A    between atoms: C_26  and  C_47
   10  A    between atoms: C_35  and  C_53
   11  A    between atoms: C_40  and  C_48
   12  A    between atoms: C_48  and  C_54
                            x       y       z     vdW  Elec       q    Type
                         _______ _______ _______ _____ _____    ______ ____

>  <TORSDO>
F 12

$$$$
=
 OpenBabel11062419103D

 54 62  0  0  1  0  0  0  0  0999 V2000
  196.0830  174.3650  142.5050 C   0  0  0  0  0  0  0  0  0  0  0  0
  193.4250  172.7840  141.7230 C   0  0  0  0  0  0  0  0  0  0  0  0
  194.2650  172.4770  140.7240 C   0  0  0  0  0  0  0  0  0  0  0  0
  192.5000  173.4490  143.6070 C   0  0  0  0  0  0  0  0  0  0  0  0
  191.4570  171.6580  140.5810 C   0  0  0  0  0  3  0  0  0  0  0  0
  191.5170  172.8100  142.8390 C   0  0  0  0  0  0  0  0  0  0  0  0
  192.0310  172.3980  141.6980 C   0  0  0  0  0  0  0  0  0  0  0  0
  197.2150  174.6710  142.8380 O   0  0  0  0  0  0  0  0  0  0  0  0
  190.5930  173.5920  144.8660 C   0  0  2  0  0  3  0  0  0  0  0  0
  192.0070  173.8890  144.8100 O   0  0  0  0  0  0  0  0  0  0  0  0
  196.6190  173.5170  140.1230 N   0  0  0  0  0  0  0  0  0  0  0  0
  192.2780  171.3270  139.5690 C   0  0  0  0  0  3  0  0  0  0  0  0
  193.6880  173.5090  143.0080 C   0  0  1  0  0  3  0  0  0  0  0  0
  195.7140  172.7310  140.9880 C   0  0  1  0  0  3  0  0  0  0  0  0
  194.9870  174.1270  143.5520 C   0  0  2  0  0  3  0  0  0  0  0  0
  195.7290  174.2030  141.0670 C   0  0  1  0  0  3  0  0  0  0  0  0
  190.2350  172.7900  143.5660 C   0  0  0  0  0  2  0  0  0  0  0  0
  193.7690  171.6600  139.5420 C   0  0  0  0  0  3  0  0  0  0  0  0
  189.7380  174.8790  144.9550 C   0  0  1  0  0  0  0  0  0  0  0  0
  190.2700  177.1270  145.0880 O   0  0  0  0  0  1  0  0  0  0  0  0
  188.9470  175.2200  146.2010 C   0  0  2  0  0  0  0  0  0  0  0  0
  190.3130  175.9540  145.8520 C   0  0  1  0  0  0  0  0  0  0  0  0
  188.9570  175.2700  143.7000 C   0  0  0  0  0  1  0  0  0  0  0  0
  188.9740  174.0600  146.9760 O   0  0  0  0  0  1  0  0  0  0  0  0
  189.5530  176.2300  147.1450 C   0  0  1  0  0  3  0  0  0  0  0  0
  189.2170  178.4920  147.8270 O   0  0  0  0  0  0  0  0  0  0  0  0
  188.7380  177.5050  147.2050 C   0  0  0  0  0  0  0  0  0  0  0  0
  187.3740  177.6080  146.6390 C   0  0  0  0  0  0  0  0  0  0  0  0
  186.2540  177.1390  147.3430 C   0  0  0  0  0  3  0  0  0  0  0  0
  185.9040  178.3140  144.8350 C   0  0  0  0  0  3  0  0  0  0  0  0
  184.7970  177.8370  145.5430 C   0  0  0  0  0  3  0  0  0  0  0  0
  187.1850  178.2000  145.3810 C   0  0  0  0  0  3  0  0  0  0  0  0
  184.9720  177.2510  146.7980 C   0  0  0  0  0  3  0  0  0  0  0  0
  195.2720  176.5300  143.9390 O   0  0  0  0  0  1  0  0  0  0  0  0
  195.1460  175.1040  145.8460 C   0  0  0  0  0  1  0  0  0  0  0  0
  194.6830  175.3580  144.4250 C   0  0  2  0  0  3  0  0  0  0  0  0
  196.0320  173.6310  138.8500 N   0  0  0  0  0  2  0  0  0  0  0  0
  197.9210  175.2090  138.8120 C   0  0  0  0  0  1  0  0  0  0  0  0
  196.8860  174.4560  137.9930 C   0  0  2  0  0  3  0  0  0  0  0  0
  194.8550  174.7200  136.5480 C   0  0  2  0  0  3  0  0  0  0  0  0
  196.0650  175.4210  137.1330 C   0  0  2  0  0  3  0  0  0  0  0  0
  196.0180  175.0790  135.6400 C   0  0  1  0  0  3  0  0  0  0  0  0
  196.7460  173.8030  135.2400 C   0  0  0  0  0  1  0  0  0  0  0  0
  193.7820  175.6890  136.3800 N   0  0  0  0  0  2  0  0  0  0  0  0
  191.6990  176.2960  135.5600 O   0  0  0  0  0  0  0  0  0  0  0  0
  192.5550  175.3850  135.7130 C   0  0  0  0  0  0  0  0  0  0  0  0
  192.3130  174.0260  135.1320 C   0  0  0  0  0  2  0  0  0  0  0  0
  192.6580  171.7390  136.0550 C   0  0  0  0  0  1  0  0  0  0  0  0
  191.8590  173.0200  136.1850 C   0  0  2  0  0  3  0  0  0  0  0  0
  190.3870  172.7010  135.9920 C   0  0  0  0  0  2  0  0  0  0  0  0
  188.7820  174.0980  137.3500 C   0  0  0  0  0  0  0  0  0  0  0  0
  189.6480  172.9710  137.2170 N   0  0  0  0  0  2  0  0  0  0  0  0
  188.1290  174.3420  138.5880 N   0  0  0  0  0  1  0  0  0  0  0  0
  188.6020  174.8880  136.3840 O   0  0  0  0  0  0  0  0  0  0  0  0
  1  8  2  0  0  0  0
  1 15  1  0  0  0  0
  3  2  1  0  0  0  0
  4 10  1  0  0  0  0
  5  7  1  0  0  0  0
  6 17  1  0  0  0  0
  6  4  2  0  0  0  0
  7  2  2  0  0  0  0
  7  6  1  0  0  0  0
  9 17  1  6  0  0  0
  9 19  1  0  0  0  0
 10  9  1  0  0  0  0
 11 14  1  0  0  0  0
 11 16  1  0  0  0  0
 12  5  2  0  0  0  0
 13  2  1  1  0  0  0
 13 15  1  0  0  0  0
 13  4  1  0  0  0  0
 14  3  1  6  0  0  0
 14 16  1  0  0  0  0
 15 36  1  6  0  0  0
 16  1  1  1  0  0  0
 18 12  1  0  0  0  0
 18  3  2  0  0  0  0
 19 23  1  6  0  0  0
 19 22  1  0  0  0  0
 19 21  1  0  0  0  0
 21 24  1  1  0  0  0
 21 25  1  0  0  0  0
 22 20  1  6  0  0  0
 22 21  1  0  0  0  0
 22 25  1  0  0  0  0
 25 27  1  6  0  0  0
 27 26  2  0  0  0  0
 28 27  1  0  0  0  0
 28 29  1  0  0  0  0
 30 32  1  0  0  0  0
 30 31  2  0  0  0  0
 31 33  1  0  0  0  0
 32 28  2  0  0  0  0
 33 29  2  0  0  0  0
 34 36  1  0  0  0  0
 36 35  1  1  0  0  0
 37 11  1  0  0  0  0
 39 38  1  1  0  0  0
 39 37  1  0  0  0  0
 40 44  1  6  0  0  0
 40 41  1  0  0  0  0
 41 39  1  1  0  0  0
 42 43  1  1  0  0  0
 42 40  1  0  0  0  0
 42 41  1  0  0  0  0
 45 46  2  0  0  0  0
 46 44  1  0  0  0  0
 47 46  1  0  0  0  0
 47 49  1  0  0  0  0
 49 48  1  6  0  0  0
 50 49  1  0  0  0  0
 50 52  1  0  0  0  0
 51 53  1  0  0  0  0
 52 51  1  0  0  0  0
 54 51  2  0  0  0  0
M  END
>  <MODEL>
6

>  <REMARK>
 VINA RESULT:      -7.1      2.856      9.506
  Name = 
  12 active torsions:
  status: ('A' for Active; 'I' for Inactive)
    1  A    between atoms: C_2  and  N_5
    2  A    between atoms: C_8  and  C_43
    3  A    between atoms: C_10  and  C_32
    4  A    between atoms: C_14  and  C_53
    5  A    between atoms: C_23  and  N_29
    6  A    between atoms: C_23  and  C_40
    7  A    between atoms: N_25  and  N_36
    8  A    between atoms: N_25  and  C_43
    9  A    between atoms: C_26  and  C_47
   10  A    between atoms: C_35  and  C_53
   11  A    between atoms: C_40  and  C_48
   12  A    between atoms: C_48  and  C_54
                            x       y       z     vdW  Elec       q    Type
                         _______ _______ _______ _____ _____    ______ ____

>  <TORSDO>
F 12

$$$$
=
 OpenBabel11062419103D

 54 62  0  0  1  0  0  0  0  0999 V2000
  196.8500  174.6120  140.7830 C   0  0  0  0  0  0  0  0  0  0  0  0
  194.9800  172.1590  141.5980 C   0  0  0  0  0  0  0  0  0  0  0  0
  195.7270  171.6540  140.6070 C   0  0  0  0  0  0  0  0  0  0  0  0
  194.1320  173.3750  143.2270 C   0  0  0  0  0  0  0  0  0  0  0  0
  193.5000  170.0990  141.7010 C   0  0  0  0  0  3  0  0  0  0  0  0
  193.3970  172.1840  143.1400 C   0  0  0  0  0  0  0  0  0  0  0  0
  193.8720  171.4270  142.1730 C   0  0  0  0  0  0  0  0  0  0  0  0
  197.7950  175.3560  140.5870 O   0  0  0  0  0  0  0  0  0  0  0  0
  192.5210  173.5660  144.8430 C   0  0  2  0  0  3  0  0  0  0  0  0
  193.6730  174.1910  144.2300 O   0  0  0  0  0  0  0  0  0  0  0  0
  197.3530  172.8860  138.9260 N   0  0  0  0  0  0  0  0  0  0  0  0
  194.2380  169.5620  140.7150 C   0  0  0  0  0  3  0  0  0  0  0  0
  195.1000  173.4690  142.3170 C   0  0  1  0  0  3  0  0  0  0  0  0
  196.9700  172.4140  140.2730 C   0  0  1  0  0  3  0  0  0  0  0  0
  196.0980  174.6210  142.1200 C   0  0  2  0  0  3  0  0  0  0  0  0
  196.3990  173.6590  139.7300 C   0  0  1  0  0  3  0  0  0  0  0  0
  192.3450  172.1580  144.1730 C   0  0  0  0  0  2  0  0  0  0  0  0
  195.4480  170.2530  140.0860 C   0  0  0  0  0  3  0  0  0  0  0  0
  191.2390  174.4140  144.6570 C   0  0  1  0  0  0  0  0  0  0  0  0
  190.5390  175.8860  143.0150 O   0  0  0  0  0  1  0  0  0  0  0  0
  190.9440  175.6070  145.5420 C   0  0  2  0  0  0  0  0  0  0  0  0
  191.4730  175.7820  144.0540 C   0  0  1  0  0  0  0  0  0  0  0  0
  189.9540  173.6490  144.3410 C   0  0  0  0  0  1  0  0  0  0  0  0
  191.8640  175.5200  146.5880 O   0  0  0  0  0  1  0  0  0  0  0  0
  191.2540  176.9740  144.9790 C   0  0  1  0  0  3  0  0  0  0  0  0
  190.0880  178.8620  144.1020 O   0  0  0  0  0  0  0  0  0  0  0  0
  189.9970  177.7910  144.7610 C   0  0  0  0  0  0  0  0  0  0  0  0
  188.6940  177.4260  145.3610 C   0  0  0  0  0  0  0  0  0  0  0  0
  187.6190  176.9960  144.5680 C   0  0  0  0  0  3  0  0  0  0  0  0
  187.3050  177.1420  147.3390 C   0  0  0  0  0  3  0  0  0  0  0  0
  186.2400  176.7220  146.5370 C   0  0  0  0  0  3  0  0  0  0  0  0
  188.5260  177.4920  146.7540 C   0  0  0  0  0  3  0  0  0  0  0  0
  186.3980  176.6470  145.1510 C   0  0  0  0  0  3  0  0  0  0  0  0
  195.1500  176.7350  141.3200 O   0  0  0  0  0  1  0  0  0  0  0  0
  196.3500  176.7650  143.3790 C   0  0  0  0  0  1  0  0  0  0  0  0
  195.4440  175.9740  142.4560 C   0  0  2  0  0  3  0  0  0  0  0  0
  196.6020  172.1730  137.9730 N   0  0  0  0  0  2  0  0  0  0  0  0
  197.9390  173.7460  136.6330 C   0  0  0  0  0  1  0  0  0  0  0  0
  197.1050  172.4760  136.6320 C   0  0  2  0  0  3  0  0  0  0  0  0
  194.8940  171.5460  135.9050 C   0  0  2  0  0  3  0  0  0  0  0  0
  195.9710  172.5710  135.6080 C   0  0  2  0  0  3  0  0  0  0  0  0
  195.8060  171.3410  134.7080 C   0  0  1  0  0  3  0  0  0  0  0  0
  196.7550  170.1870  135.0010 C   0  0  0  0  0  1  0  0  0  0  0  0
  193.6100  172.0680  135.4610 N   0  0  0  0  0  2  0  0  0  0  0  0
  191.4080  172.6740  135.8720 O   0  0  0  0  0  0  0  0  0  0  0  0
  192.5050  172.2720  136.3440 C   0  0  0  0  0  0  0  0  0  0  0  0
  192.6140  171.9420  137.8010 C   0  0  0  0  0  2  0  0  0  0  0  0
  192.9680  173.9800  139.1880 C   0  0  0  0  0  1  0  0  0  0  0  0
  191.9400  172.9890  138.6830 C   0  0  2  0  0  3  0  0  0  0  0  0
  191.2840  172.3120  139.8740 C   0  0  0  0  0  2  0  0  0  0  0  0
  189.1310  173.5320  140.3700 C   0  0  0  0  0  0  0  0  0  0  0  0
  190.5090  173.2790  140.6390 N   0  0  0  0  0  2  0  0  0  0  0  0
  188.4400  174.5270  141.1130 N   0  0  0  0  0  1  0  0  0  0  0  0
  188.5230  172.8920  139.4700 O   0  0  0  0  0  0  0  0  0  0  0  0
  1 15  1  0  0  0  0
  2  7  2  0  0  0  0
  3  2  1  0  0  0  0
  4 10  1  0  0  0  0
  5  7  1  0  0  0  0
  6  4  2  0  0  0  0
  6 17  1  0  0  0  0
  7  6  1  0  0  0  0
  8  1  2  0  0  0  0
  9 17  1  6  0  0  0
 10  9  1  0  0  0  0
 11 16  1  0  0  0  0
 11 14  1  0  0  0  0
 12  5  2  0  0  0  0
 13  2  1  1  0  0  0
 13  4  1  0  0  0  0
 14  3  1  6  0  0  0
 15 13  1  0  0  0  0
 15 36  1  6  0  0  0
 16 14  1  0  0  0  0
 16  1  1  1  0  0  0
 18  3  2  0  0  0  0
 18 12  1  0  0  0  0
 19 23  1  6  0  0  0
 19  9  1  0  0  0  0
 19 21  1  0  0  0  0
 21 24  1  1  0  0  0
 22 20  1  6  0  0  0
 22 19  1  0  0  0  0
 22 25  1  0  0  0  0
 22 21  1  0  0  0  0
 25 27  1  6  0  0  0
 25 21  1  0  0  0  0
 26 27  2  0  0  0  0
 27 28  1  0  0  0  0
 28 32  1  0  0  0  0
 29 33  1  0  0  0  0
 29 28  2  0  0  0  0
 31 30  1  0  0  0  0
 32 30  2  0  0  0  0
 33 31  2  0  0  0  0
 34 36  1  0  0  0  0
 36 35  1  1  0  0  0
 37 11  1  0  0  0  0
 39 38  1  1  0  0  0
 39 37  1  0  0  0  0
 40 44  1  6  0  0  0
 41 40  1  0  0  0  0
 41 39  1  1  0  0  0
 42 43  1  1  0  0  0
 42 41  1  0  0  0  0
 42 40  1  0  0  0  0
 44 46  1  0  0  0  0
 45 46  2  0  0  0  0
 46 47  1  0  0  0  0
 47 49  1  0  0  0  0
 49 48  1  1  0  0  0
 49 50  1  0  0  0  0
 50 52  1  0  0  0  0
 51 52  1  0  0  0  0
 51 53  1  0  0  0  0
 54 51  2  0  0  0  0
M  END
>  <MODEL>
7

>  <REMARK>
 VINA RESULT:      -6.9      3.172      9.508
  Name = 
  12 active torsions:
  status: ('A' for Active; 'I' for Inactive)
    1  A    between atoms: C_2  and  N_5
    2  A    between atoms: C_8  and  C_43
    3  A    between atoms: C_10  and  C_32
    4  A    between atoms: C_14  and  C_53
    5  A    between atoms: C_23  and  N_29
    6  A    between atoms: C_23  and  C_40
    7  A    between atoms: N_25  and  N_36
    8  A    between atoms: N_25  and  C_43
    9  A    between atoms: C_26  and  C_47
   10  A    between atoms: C_35  and  C_53
   11  A    between atoms: C_40  and  C_48
   12  A    between atoms: C_48  and  C_54
                            x       y       z     vdW  Elec       q    Type
                         _______ _______ _______ _____ _____    ______ ____

>  <TORSDO>
F 12

$$$$
=
 OpenBabel11062419103D

 54 62  0  0  1  0  0  0  0  0999 V2000
  190.3750  173.4680  143.3620 C   0  0  0  0  0  0  0  0  0  0  0  0
  192.8930  174.5760  144.9770 C   0  0  0  0  0  0  0  0  0  0  0  0
  191.8600  174.9000  145.7670 C   0  0  0  0  0  0  0  0  0  0  0  0
  194.2240  173.7170  143.4480 C   0  0  0  0  0  0  0  0  0  0  0  0
  194.5500  175.8680  146.4020 C   0  0  0  0  0  3  0  0  0  0  0  0
  195.0010  174.4910  144.3210 C   0  0  0  0  0  0  0  0  0  0  0  0
  194.2400  175.0260  145.2530 C   0  0  0  0  0  0  0  0  0  0  0  0
  189.3920  172.8470  142.9960 O   0  0  0  0  0  0  0  0  0  0  0  0
  196.3540  173.5660  142.6210 C   0  0  2  0  0  3  0  0  0  0  0  0
  194.9830  173.1350  142.4640 O   0  0  0  0  0  0  0  0  0  0  0  0
  189.2650  174.8180  145.2670 N   0  0  0  0  0  0  0  0  0  0  0  0
  193.5350  176.2020  147.2180 C   0  0  0  0  0  3  0  0  0  0  0  0
  192.9260  173.7230  143.7450 C   0  0  0  0  0  0  0  0  0  0  0  0
  190.5780  174.1790  145.4970 C   0  0  1  0  0  3  0  0  0  0  0  0
  191.7900  172.9890  143.0150 C   0  0  2  0  0  3  0  0  0  0  0  0
  190.2330  174.7130  144.1680 C   0  0  1  0  0  3  0  0  0  0  0  0
  196.4210  174.4380  143.9240 C   0  0  0  0  0  2  0  0  0  0  0  0
  192.0950  175.7300  147.0190 C   0  0  0  0  0  2  0  0  0  0  0  0
  196.8430  174.3850  141.4020 C   0  0  1  0  0  0  0  0  0  0  0  0
  195.8670  176.0380  140.1110 O   0  0  0  0  0  1  0  0  0  0  0  0
  197.0330  173.7440  140.0420 C   0  0  2  0  0  0  0  0  0  0  0  0
  195.7770  174.6640  140.3640 C   0  0  1  0  0  0  0  0  0  0  0  0
  197.9400  175.4160  141.6670 C   0  0  0  0  0  1  0  0  0  0  0  0
  196.9500  172.3700  140.2740 O   0  0  0  0  0  1  0  0  0  0  0  0
  195.9330  173.9470  139.0280 C   0  0  1  0  0  3  0  0  0  0  0  0
  197.6310  175.0280  137.7460 O   0  0  0  0  0  0  0  0  0  0  0  0
  196.4000  174.7800  137.8510 C   0  0  0  0  0  0  0  0  0  0  0  0
  195.4610  175.3800  136.8760 C   0  0  0  0  0  0  0  0  0  0  0  0
  194.0770  175.3890  137.1050 C   0  0  0  0  0  3  0  0  0  0  0  0
  195.0890  176.5500  134.7760 C   0  0  0  0  0  3  0  0  0  0  0  0
  193.7110  176.5460  135.0120 C   0  0  0  0  0  3  0  0  0  0  0  0
  195.9590  175.9700  135.7030 C   0  0  0  0  0  3  0  0  0  0  0  0
  193.2060  175.9670  136.1780 C   0  0  0  0  0  3  0  0  0  0  0  0
  191.3100  173.8330  140.7630 O   0  0  0  0  0  1  0  0  0  0  0  0
  191.8040  171.5130  140.9990 C   0  0  0  0  0  1  0  0  0  0  0  0
  192.0680  172.9180  141.5020 C   0  0  2  0  0  3  0  0  0  0  0  0
  189.3240  176.1410  145.7400 N   0  0  0  0  0  2  0  0  0  0  0  0
  190.5590  177.9780  144.6630 C   0  0  0  0  0  1  0  0  0  0  0  0
  189.3470  177.0630  144.6030 C   0  0  2  0  0  3  0  0  0  0  0  0
  186.9790  177.0920  143.7830 C   0  0  2  0  0  3  0  0  0  0  0  0
  188.0550  177.8790  144.5060 C   0  0  2  0  0  3  0  0  0  0  0  0
  187.6390  178.2660  143.0830 C   0  0  1  0  0  3  0  0  0  0  0  0
  188.5390  177.7380  141.9740 C   0  0  0  0  0  1  0  0  0  0  0  0
  185.6760  177.4930  144.2940 N   0  0  0  0  0  2  0  0  0  0  0  0
  183.6720  178.6420  144.0800 O   0  0  0  0  0  0  0  0  0  0  0  0
  184.7570  178.2910  143.5450 C   0  0  0  0  0  0  0  0  0  0  0  0
  185.1020  178.7720  142.1690 C   0  0  0  0  0  2  0  0  0  0  0  0
  185.3750  177.7720  139.9050 C   0  0  0  0  0  1  0  0  0  0  0  0
  184.4340  177.9370  141.0810 C   0  0  2  0  0  3  0  0  0  0  0  0
  183.1700  178.6310  140.6030 C   0  0  0  0  0  2  0  0  0  0  0  0
  180.7200  178.5970  141.2090 C   0  0  0  0  0  0  0  0  0  0  0  0
  181.9940  177.9580  141.1360 N   0  0  0  0  0  2  0  0  0  0  0  0
  179.6200  177.9100  141.7890 N   0  0  0  0  0  1  0  0  0  0  0  0
  180.5640  179.7710  140.7770 O   0  0  0  0  0  0  0  0  0  0  0  0
  2  7  1  0  0  0  0
  2  3  2  0  0  0  0
  3 18  1  0  0  0  0
  4 13  2  0  0  0  0
  4  6  1  0  0  0  0
  5 12  2  0  0  0  0
  6  7  2  0  0  0  0
  7  5  1  0  0  0  0
  8  1  2  0  0  0  0
  9 17  1  1  0  0  0
 10  9  1  0  0  0  0
 10  4  1  0  0  0  0
 11 14  1  0  0  0  0
 11 37  1  0  0  0  0
 13  2  1  0  0  0  0
 14  3  1  1  0  0  0
 15 36  1  6  0  0  0
 15  1  1  0  0  0  0
 15 13  1  0  0  0  0
 16  1  1  6  0  0  0
 16 11  1  0  0  0  0
 16 14  1  0  0  0  0
 17  6  1  0  0  0  0
 18 12  1  0  0  0  0
 19 23  1  1  0  0  0
 19  9  1  0  0  0  0
 21 24  1  1  0  0  0
 21 22  1  0  0  0  0
 21 19  1  0  0  0  0
 22 20  1  6  0  0  0
 22 19  1  0  0  0  0
 25 27  1  6  0  0  0
 25 21  1  0  0  0  0
 25 22  1  0  0  0  0
 26 27  2  0  0  0  0
 28 29  1  0  0  0  0
 28 27  1  0  0  0  0
 30 31  2  0  0  0  0
 30 32  1  0  0  0  0
 31 33  1  0  0  0  0
 32 28  2  0  0  0  0
 33 29  2  0  0  0  0
 34 36  1  0  0  0  0
 36 35  1  6  0  0  0
 39 38  1  1  0  0  0
 39 37  1  0  0  0  0
 40 44  1  1  0  0  0
 40 41  1  0  0  0  0
 41 39  1  6  0  0  0
 42 43  1  6  0  0  0
 42 40  1  0  0  0  0
 42 41  1  0  0  0  0
 46 45  2  0  0  0  0
 46 44  1  0  0  0  0
 47 46  1  0  0  0  0
 49 48  1  6  0  0  0
 49 47  1  0  0  0  0
 50 49  1  0  0  0  0
 50 52  1  0  0  0  0
 51 53  1  0  0  0  0
 52 51  1  0  0  0  0
 54 51  2  0  0  0  0
M  END
>  <MODEL>
8

>  <REMARK>
 VINA RESULT:      -6.8      1.940      3.191
  Name = 
  12 active torsions:
  status: ('A' for Active; 'I' for Inactive)
    1  A    between atoms: C_2  and  N_5
    2  A    between atoms: C_8  and  C_43
    3  A    between atoms: C_10  and  C_32
    4  A    between atoms: C_14  and  C_53
    5  A    between atoms: C_23  and  N_29
    6  A    between atoms: C_23  and  C_40
    7  A    between atoms: N_25  and  N_36
    8  A    between atoms: N_25  and  C_43
    9  A    between atoms: C_26  and  C_47
   10  A    between atoms: C_35  and  C_53
   11  A    between atoms: C_40  and  C_48
   12  A    between atoms: C_48  and  C_54
                            x       y       z     vdW  Elec       q    Type
                         _______ _______ _______ _____ _____    ______ ____

>  <TORSDO>
F 12

$$$$
=
 OpenBabel11062419103D

 54 62  0  0  1  0  0  0  0  0999 V2000
  195.7510  173.2350  142.0360 C   0  0  0  0  0  0  0  0  0  0  0  0
  192.9700  171.6720  142.0630 C   0  0  0  0  0  0  0  0  0  0  0  0
  193.6330  171.0930  141.0520 C   0  0  0  0  0  0  0  0  0  0  0  0
  192.3740  172.8090  143.8520 C   0  0  0  0  0  0  0  0  0  0  0  0
  190.8220  170.4280  141.5330 C   0  0  0  0  0  3  0  0  0  0  0  0
  191.2670  172.0680  143.4150 C   0  0  0  0  0  0  0  0  0  0  0  0
  191.5820  171.3730  142.3420 C   0  0  0  0  0  0  0  0  0  0  0  0
  196.9280  173.5430  142.1110 O   0  0  0  0  0  0  0  0  0  0  0  0
  190.6960  173.3520  145.3120 C   0  0  2  0  0  3  0  0  0  0  0  0
  192.0890  173.5450  144.9750 O   0  0  0  0  0  0  0  0  0  0  0  0
  195.8820  171.8270  139.8720 N   0  0  0  0  0  0  0  0  0  0  0  0
  191.4630  169.8240  140.5180 C   0  0  0  0  0  3  0  0  0  0  0  0
  193.4510  172.6590  143.0840 C   0  0  1  0  0  3  0  0  0  0  0  0
  195.1110  171.3170  141.0260 C   0  0  1  0  0  3  0  0  0  0  0  0
  194.8330  173.3100  143.2620 C   0  0  2  0  0  3  0  0  0  0  0  0
  195.1680  172.7630  140.7480 C   0  0  1  0  0  3  0  0  0  0  0  0
  190.1170  172.2920  144.3110 C   0  0  0  0  0  2  0  0  0  0  0  0
  192.9380  170.0540  140.1870 C   0  0  0  0  0  3  0  0  0  0  0  0
  189.8930  174.6720  145.2190 C   0  0  1  0  0  0  0  0  0  0  0  0
  190.5110  176.9010  145.1900 O   0  0  0  0  0  1  0  0  0  0  0  0
  189.0290  175.1560  146.3660 C   0  0  2  0  0  0  0  0  0  0  0  0
  190.4470  175.8040  146.0580 C   0  0  1  0  0  0  0  0  0  0  0  0
  189.2220  174.9720  143.8780 C   0  0  0  0  0  1  0  0  0  0  0  0
  188.9490  174.0720  147.2420 O   0  0  0  0  0  1  0  0  0  0  0  0
  189.6080  176.2260  147.2590 C   0  0  1  0  0  3  0  0  0  0  0  0
  189.3540  178.5660  147.6520 O   0  0  0  0  0  0  0  0  0  0  0  0
  188.8470  177.5300  147.1410 C   0  0  0  0  0  0  0  0  0  0  0  0
  187.5010  177.6160  146.5300 C   0  0  0  0  0  0  0  0  0  0  0  0
  186.3430  177.3350  147.2720 C   0  0  0  0  0  3  0  0  0  0  0  0
  186.1070  178.0990  144.5960 C   0  0  0  0  0  3  0  0  0  0  0  0
  184.9610  177.8100  145.3430 C   0  0  0  0  0  3  0  0  0  0  0  0
  187.3700  178.0030  145.1870 C   0  0  0  0  0  3  0  0  0  0  0  0
  185.0800  177.4300  146.6820 C   0  0  0  0  0  3  0  0  0  0  0  0
  194.9110  175.7340  142.9050 O   0  0  0  0  0  1  0  0  0  0  0  0
  195.6680  174.8940  145.0040 C   0  0  0  0  0  1  0  0  0  0  0  0
  194.6980  174.7260  143.8510 C   0  0  2  0  0  3  0  0  0  0  0  0
  195.1000  171.6750  138.7120 N   0  0  0  0  0  2  0  0  0  0  0  0
  197.2270  172.4120  137.7160 C   0  0  0  0  0  1  0  0  0  0  0  0
  195.9790  171.5620  137.5460 C   0  0  2  0  0  3  0  0  0  0  0  0
  194.0220  171.0490  136.0680 C   0  0  2  0  0  3  0  0  0  0  0  0
  195.2500  171.9190  136.2480 C   0  0  2  0  0  3  0  0  0  0  0  0
  195.2360  170.8120  135.1880 C   0  0  1  0  0  3  0  0  0  0  0  0
  195.8980  169.5050  135.6000 C   0  0  0  0  0  1  0  0  0  0  0  0
  193.0160  171.7980  135.3280 N   0  0  0  0  0  2  0  0  0  0  0  0
  190.8800  172.6770  135.1180 O   0  0  0  0  0  0  0  0  0  0  0  0
  191.7110  172.0700  135.8440 C   0  0  0  0  0  0  0  0  0  0  0  0
  191.3020  171.5780  137.1980 C   0  0  0  0  0  2  0  0  0  0  0  0
  189.6900  172.9590  138.5010 C   0  0  0  0  0  1  0  0  0  0  0  0
  191.1560  172.7150  138.2060 C   0  0  2  0  0  3  0  0  0  0  0  0
  191.7600  173.9870  137.6370 C   0  0  0  0  0  2  0  0  0  0  0  0
  194.0310  175.0870  137.6850 C   0  0  0  0  0  0  0  0  0  0  0  0
  193.0230  174.2840  138.2980 N   0  0  0  0  0  2  0  0  0  0  0  0
  195.2670  175.2980  138.3550 N   0  0  0  0  0  1  0  0  0  0  0  0
  193.8430  175.5980  136.5480 O   0  0  0  0  0  0  0  0  0  0  0  0
  1  8  2  0  0  0  0
  1 15  1  0  0  0  0
  2  7  2  0  0  0  0
  3  2  1  0  0  0  0
  4 10  1  0  0  0  0
  5  7  1  0  0  0  0
  6  4  2  0  0  0  0
  6 17  1  0  0  0  0
  7  6  1  0  0  0  0
  9 17  1  6  0  0  0
 10  9  1  0  0  0  0
 11 16  1  0  0  0  0
 11 14  1  0  0  0  0
 12  5  2  0  0  0  0
 13  2  1  1  0  0  0
 13 15  1  0  0  0  0
 13  4  1  0  0  0  0
 14  3  1  6  0  0  0
 15 36  1  6  0  0  0
 16 14  1  0  0  0  0
 16  1  1  1  0  0  0
 18 12  1  0  0  0  0
 18  3  2  0  0  0  0
 19 23  1  6  0  0  0
 19  9  1  0  0  0  0
 19 22  1  0  0  0  0
 19 21  1  0  0  0  0
 21 24  1  1  0  0  0
 21 25  1  0  0  0  0
 22 20  1  6  0  0  0
 22 21  1  0  0  0  0
 22 25  1  0  0  0  0
 25 27  1  6  0  0  0
 27 26  2  0  0  0  0
 28 27  1  0  0  0  0
 28 29  1  0  0  0  0
 30 32  1  0  0  0  0
 30 31  2  0  0  0  0
 31 33  1  0  0  0  0
 32 28  2  0  0  0  0
 33 29  2  0  0  0  0
 34 36  1  0  0  0  0
 36 35  1  1  0  0  0
 37 11  1  0  0  0  0
 39 38  1  1  0  0  0
 39 37  1  0  0  0  0
 40 44  1  6  0  0  0
 40 41  1  0  0  0  0
 41 39  1  1  0  0  0
 42 43  1  1  0  0  0
 42 40  1  0  0  0  0
 42 41  1  0  0  0  0
 44 46  1  0  0  0  0
 45 46  2  0  0  0  0
 46 47  1  0  0  0  0
 47 49  1  0  0  0  0
 49 48  1  6  0  0  0
 50 49  1  0  0  0  0
 50 52  1  0  0  0  0
 51 52  1  0  0  0  0
 51 53  1  0  0  0  0
 54 51  2  0  0  0  0
M  END
>  <MODEL>
9

>  <REMARK>
 VINA RESULT:      -6.6      3.398      9.727
  Name = 
  12 active torsions:
  status: ('A' for Active; 'I' for Inactive)
    1  A    between atoms: C_2  and  N_5
    2  A    between atoms: C_8  and  C_43
    3  A    between atoms: C_10  and  C_32
    4  A    between atoms: C_14  and  C_53
    5  A    between atoms: C_23  and  N_29
    6  A    between atoms: C_23  and  C_40
    7  A    between atoms: N_25  and  N_36
    8  A    between atoms: N_25  and  C_43
    9  A    between atoms: C_26  and  C_47
   10  A    between atoms: C_35  and  C_53
   11  A    between atoms: C_40  and  C_48
   12  A    between atoms: C_48  and  C_54
                            x       y       z     vdW  Elec       q    Type
                         _______ _______ _______ _____ _____    ______ ____

>  <TORSDO>
F 12

$$$$
