=
 OpenBabel11062420453D

 45 52  0  0  1  0  0  0  0  0999 V2000
  190.6620  176.0780  145.1800 C   0  0  0  0  0  0  0  0  0  0  0  0
  191.1790  177.0020  144.5720 O   0  0  0  0  0  0  0  0  0  0  0  0
  191.2080  173.6310  144.5040 C   0  0  1  0  0  3  0  0  0  0  0  0
  192.9090  174.9660  145.9200 C   0  0  2  0  0  3  0  0  0  0  0  0
  193.1470  176.1830  146.8000 C   0  0  0  0  0  1  0  0  0  0  0  0
  193.5170  175.5870  143.5450 C   0  0  0  0  0  2  0  0  0  0  0  0
  193.6990  172.3840  139.8630 O   0  0  0  0  0  1  0  0  0  0  0  0
  191.3890  175.0700  142.3110 C   0  0  0  0  0  2  0  0  0  0  0  0
  191.3330  172.5370  142.1210 C   0  0  1  0  0  3  0  0  0  0  0  0
  193.9550  174.8690  144.8090 C   0  0  0  0  0  2  0  0  0  0  0  0
  193.5700  174.2660  141.3280 C   0  0  0  0  0  0  0  0  0  0  0  0
  191.4440  174.8110  145.4620 C   0  0  1  0  0  3  0  0  0  0  0  0
  189.6360  171.7900  143.8430 C   0  0  0  0  0  2  0  0  0  0  0  0
  192.3630  171.4080  142.3000 C   0  0  2  0  0  3  0  0  0  0  0  0
  189.9010  172.0430  142.3610 C   0  0  0  0  0  2  0  0  0  0  0  0
  193.7710  175.1330  140.4920 O   0  0  0  0  0  0  0  0  0  0  0  0
  192.8240  174.6250  142.5890 C   0  0  1  0  0  0  0  0  0  0  0  0
  194.1280  172.8840  141.0930 C   0  0  1  0  0  3  0  0  0  0  0  0
  189.7860  173.0850  144.6320 C   0  0  0  0  0  2  0  0  0  0  0  0
  193.8240  171.8920  142.2250 C   0  0  0  0  0  2  0  0  0  0  0  0
  191.6370  173.7500  143.0150 C   0  0  2  0  0  0  0  0  0  0  0  0
  191.9680  168.9570  142.0140 C   0  0  0  0  0  1  0  0  0  0  0  0
  192.1180  170.2870  141.2960 C   0  0  0  0  0  2  0  0  0  0  0  0
  189.2170  176.1920  145.5910 C   0  0  2  0  0  0  0  0  0  0  0  0
  185.6200  178.5270  145.6580 C   0  0  0  0  0  3  0  0  0  0  0  0
  187.0770  176.9340  144.5510 C   0  0  0  0  0  0  0  0  0  0  0  0
  187.6760  177.8460  146.7190 O   0  0  0  0  0  0  0  0  0  0  0  0
  189.9550  177.6710  147.4700 O   0  0  0  0  0  1  0  0  0  0  0  0
  188.7100  175.5780  146.9140 C   0  0  1  0  0  3  0  0  0  0  0  0
  188.2550  176.1800  144.5340 O   0  0  0  0  0  0  0  0  0  0  0  0
  189.8040  174.9510  147.7720 C   0  0  0  0  0  1  0  0  0  0  0  0
  184.7270  178.4560  144.5890 C   0  0  0  0  0  3  0  0  0  0  0  0
  188.8880  177.0930  146.7730 C   0  0  2  0  0  0  0  0  0  0  0  0
  186.1800  176.8570  143.4740 C   0  0  0  0  0  0  0  0  0  0  0  0
  186.7920  177.7680  145.6440 C   0  0  0  0  0  0  0  0  0  0  0  0
  185.0070  177.6240  143.5020 C   0  0  0  0  0  3  0  0  0  0  0  0
  186.4840  175.9940  142.3690 N   0  0  0  0  0  2  0  0  0  0  0  0
  186.8100  176.9840  139.9030 O   0  0  0  0  0  0  0  0  0  0  0  0
  188.6140  177.3130  141.5200 O   0  0  0  0  0  0  0  0  0  0  0  0
  187.5530  176.3580  141.0480 S   0  0  0  0  0  0  0  0  0  0  0  0
  188.3070  174.8530  140.4730 C   0  0  0  0  0  2  0  0  0  0  0  0
  188.0990  172.3910  139.4390 O   0  0  0  0  0  1  0  0  0  0  0  0
  189.2980  174.0680  138.4440 O   0  0  0  0  0  0  0  0  0  0  0  0
  188.1810  174.7550  138.9580 C   0  0  1  0  0  3  0  0  0  0  0  0
  188.0820  173.3620  138.4310 C   0  0  2  0  0  3  0  0  0  0  0  0
  2  1  2  0  0  0  0
  3 19  1  6  0  0  0
  3 12  1  0  0  0  0
  4  5  1  6  0  0  0
  6 10  1  0  0  0  0
  9 14  1  0  0  0  0
  9 15  1  1  0  0  0
  9 21  1  0  0  0  0
 10  4  1  0  0  0  0
 11 17  1  0  0  0  0
 12  1  1  6  0  0  0
 12  4  1  0  0  0  0
 13 19  1  0  0  0  0
 14 23  1  6  0  0  0
 15 13  1  0  0  0  0
 16 11  2  0  0  0  0
 17  8  1  6  0  0  0
 17 21  1  0  0  0  0
 17  6  1  0  0  0  0
 18  7  1  6  0  0  0
 18 11  1  0  0  0  0
 18 20  1  0  0  0  0
 20 14  1  0  0  0  0
 21  8  1  6  0  0  0
 21  3  1  0  0  0  0
 23 22  1  0  0  0  0
 24  1  1  6  0  0  0
 24 33  1  0  0  0  0
 24 29  1  0  0  0  0
 26 35  2  0  0  0  0
 27 33  1  0  0  0  0
 29 31  1  1  0  0  0
 30 26  1  0  0  0  0
 30 24  1  0  0  0  0
 32 25  2  0  0  0  0
 33 29  1  0  0  0  0
 33 28  1  1  0  0  0
 34 36  2  0  0  0  0
 34 26  1  0  0  0  0
 35 25  1  0  0  0  0
 35 27  1  0  0  0  0
 36 32  1  0  0  0  0
 37 34  1  0  0  0  0
 38 40  2  0  0  0  0
 40 39  2  0  0  0  0
 40 37  1  0  0  0  0
 41 40  1  0  0  0  0
 43 44  1  0  0  0  0
 44 41  1  1  0  0  0
 45 43  1  0  0  0  0
 45 44  1  0  0  0  0
 45 42  1  1  0  0  0
M  END
>  <MODEL>
1

>  <REMARK>
 VINA RESULT:      -8.4      0.000      0.000
  Name = 
  7 active torsions:
  status: ('A' for Active; 'I' for Inactive)
    1  A    between atoms: C_1  and  C_11
    2  A    between atoms: C_11  and  C_25
    3  A    between atoms: C_23  and  C_31
    4  A    between atoms: C_23  and  S_32
    5  A    between atoms: C_29  and  C_34
    6  A    between atoms: S_32  and  N_35
    7  A    between atoms: N_35  and  C_39
                            x       y       z     vdW  Elec       q    Type
                         _______ _______ _______ _____ _____    ______ ____

>  <TORSDO>
F 7

$$$$
=
 OpenBabel11062420453D

 45 52  0  0  1  0  0  0  0  0999 V2000
  190.9200  176.4720  145.3470 C   0  0  0  0  0  0  0  0  0  0  0  0
  191.4460  177.4760  144.8920 O   0  0  0  0  0  0  0  0  0  0  0  0
  192.3960  174.3350  145.2770 C   0  0  1  0  0  3  0  0  0  0  0  0
  192.6190  175.9690  147.2680 C   0  0  2  0  0  3  0  0  0  0  0  0
  191.9990  177.1270  148.0340 C   0  0  0  0  0  1  0  0  0  0  0  0
  194.2090  176.9270  145.5510 C   0  0  0  0  0  2  0  0  0  0  0  0
  197.2210  174.2150  142.8270 O   0  0  0  0  0  1  0  0  0  0  0  0
  193.3210  175.9440  143.4150 C   0  0  0  0  0  2  0  0  0  0  0  0
  194.0790  173.5190  143.4360 C   0  0  1  0  0  3  0  0  0  0  0  0
  194.0770  176.2570  146.9070 C   0  0  0  0  0  2  0  0  0  0  0  0
  195.8090  175.8590  143.8300 C   0  0  0  0  0  0  0  0  0  0  0  0
  191.7420  175.4520  146.1090 C   0  0  1  0  0  3  0  0  0  0  0  0
  192.0090  172.1920  144.0310 C   0  0  0  0  0  2  0  0  0  0  0  0
  195.1170  172.7090  144.2340 C   0  0  2  0  0  3  0  0  0  0  0  0
  192.9470  172.6300  142.9090 C   0  0  0  0  0  2  0  0  0  0  0  0
  196.1790  176.8140  143.1640 O   0  0  0  0  0  0  0  0  0  0  0  0
  194.4370  175.8920  144.4570 C   0  0  1  0  0  0  0  0  0  0  0  0
  196.7620  174.7100  144.0480 C   0  0  1  0  0  3  0  0  0  0  0  0
  191.3460  173.4090  144.6660 C   0  0  0  0  0  2  0  0  0  0  0  0
  196.1860  173.5830  144.9180 C   0  0  0  0  0  2  0  0  0  0  0  0
  193.5060  174.6910  144.2490 C   0  0  2  0  0  0  0  0  0  0  0  0
  195.7170  170.2920  144.0300 C   0  0  0  0  0  1  0  0  0  0  0  0
  195.7710  171.6510  143.3540 C   0  0  0  0  0  2  0  0  0  0  0  0
  189.4570  176.2320  145.0840 C   0  0  2  0  0  0  0  0  0  0  0  0
  185.7300  177.7290  143.5780 C   0  0  0  0  0  3  0  0  0  0  0  0
  187.8510  176.6080  143.2150 C   0  0  0  0  0  0  0  0  0  0  0  0
  187.2390  177.3920  145.4300 O   0  0  0  0  0  0  0  0  0  0  0  0
  188.9530  177.6260  147.1010 O   0  0  0  0  0  1  0  0  0  0  0  0
  188.5980  175.3870  146.0520 C   0  0  1  0  0  3  0  0  0  0  0  0
  189.0670  176.1280  143.7130 O   0  0  0  0  0  0  0  0  0  0  0  0
  189.3380  174.9190  147.2990 C   0  0  0  0  0  1  0  0  0  0  0  0
  185.4210  177.5840  142.2260 C   0  0  0  0  0  3  0  0  0  0  0  0
  188.4530  176.9120  146.0060 C   0  0  2  0  0  0  0  0  0  0  0  0
  187.5430  176.4570  141.8540 C   0  0  0  0  0  0  0  0  0  0  0  0
  186.9410  177.2420  144.0760 C   0  0  0  0  0  0  0  0  0  0  0  0
  186.3230  176.9500  141.3690 C   0  0  0  0  0  3  0  0  0  0  0  0
  188.4820  175.8010  140.9910 N   0  0  0  0  0  2  0  0  0  0  0  0
  187.8110  173.3130  141.7160 O   0  0  0  0  0  0  0  0  0  0  0  0
  187.9810  173.8060  139.3270 O   0  0  0  0  0  0  0  0  0  0  0  0
  188.5690  174.0940  140.6800 S   0  0  0  0  0  0  0  0  0  0  0  0
  190.2710  173.5770  140.7220 C   0  0  0  0  0  2  0  0  0  0  0  0
  190.4080  170.9250  141.0780 O   0  0  0  0  0  1  0  0  0  0  0  0
  191.8160  172.0750  139.6870 O   0  0  0  0  0  0  0  0  0  0  0  0
  190.5890  172.7360  139.4920 C   0  0  1  0  0  3  0  0  0  0  0  0
  190.6670  171.2670  139.7460 C   0  0  2  0  0  3  0  0  0  0  0  0
  2  1  2  0  0  0  0
  3 19  1  6  0  0  0
  3 12  1  0  0  0  0
  4  5  1  6  0  0  0
  6 10  1  0  0  0  0
  9 15  1  1  0  0  0
  9 14  1  0  0  0  0
  9 21  1  0  0  0  0
 10  4  1  0  0  0  0
 11 18  1  0  0  0  0
 11 17  1  0  0  0  0
 12  1  1  6  0  0  0
 12  4  1  0  0  0  0
 13 19  1  0  0  0  0
 14 23  1  6  0  0  0
 14 20  1  0  0  0  0
 15 13  1  0  0  0  0
 16 11  2  0  0  0  0
 17  8  1  6  0  0  0
 17  6  1  0  0  0  0
 18  7  1  6  0  0  0
 18 20  1  0  0  0  0
 21  8  1  6  0  0  0
 21 17  1  0  0  0  0
 21  3  1  0  0  0  0
 23 22  1  0  0  0  0
 24  1  1  1  0  0  0
 24 33  1  0  0  0  0
 24 29  1  0  0  0  0
 25 35  1  0  0  0  0
 26 30  1  0  0  0  0
 26 35  2  0  0  0  0
 27 33  1  0  0  0  0
 29 31  1  1  0  0  0
 30 24  1  0  0  0  0
 32 25  2  0  0  0  0
 33 29  1  0  0  0  0
 33 28  1  1  0  0  0
 34 26  1  0  0  0  0
 35 27  1  0  0  0  0
 36 34  2  0  0  0  0
 36 32  1  0  0  0  0
 37 34  1  0  0  0  0
 39 40  2  0  0  0  0
 40 41  1  0  0  0  0
 40 37  1  0  0  0  0
 40 38  2  0  0  0  0
 43 45  1  0  0  0  0
 44 43  1  0  0  0  0
 44 45  1  0  0  0  0
 44 41  1  1  0  0  0
 45 42  1  1  0  0  0
M  END
>  <MODEL>
2

>  <REMARK>
 VINA RESULT:      -7.8      1.940      2.772
  Name = 
  7 active torsions:
  status: ('A' for Active; 'I' for Inactive)
    1  A    between atoms: C_1  and  C_11
    2  A    between atoms: C_11  and  C_25
    3  A    between atoms: C_23  and  C_31
    4  A    between atoms: C_23  and  S_32
    5  A    between atoms: C_29  and  C_34
    6  A    between atoms: S_32  and  N_35
    7  A    between atoms: N_35  and  C_39
                            x       y       z     vdW  Elec       q    Type
                         _______ _______ _______ _____ _____    ______ ____

>  <TORSDO>
F 7

$$$$
=
 OpenBabel11062420453D

 45 52  0  0  1  0  0  0  0  0999 V2000
  191.5060  173.3620  142.8660 C   0  0  0  0  0  0  0  0  0  0  0  0
  191.8350  174.1640  142.0060 O   0  0  0  0  0  0  0  0  0  0  0  0
  189.4240  174.0370  144.2630 C   0  0  1  0  0  3  0  0  0  0  0  0
  189.0980  172.8290  142.0010 C   0  0  2  0  0  3  0  0  0  0  0  0
  189.7450  172.0040  140.9000 C   0  0  0  0  0  1  0  0  0  0  0  0
  189.2430  175.2660  141.3420 C   0  0  0  0  0  2  0  0  0  0  0  0
  187.0490  178.8780  143.7890 O   0  0  0  0  0  1  0  0  0  0  0  0
  190.4410  176.2670  143.3130 C   0  0  0  0  0  2  0  0  0  0  0  0
  188.6930  176.3950  145.1530 C   0  0  1  0  0  3  0  0  0  0  0  0
  188.3560  174.0380  141.4290 C   0  0  0  0  0  2  0  0  0  0  0  0
  188.3930  177.4480  142.4280 C   0  0  0  0  0  0  0  0  0  0  0  0
  190.0420  173.1330  143.1820 C   0  0  1  0  0  3  0  0  0  0  0  0
  189.2580  174.4950  146.7250 C   0  0  0  0  0  2  0  0  0  0  0  0
  187.1580  176.2970  145.2060 C   0  0  2  0  0  3  0  0  0  0  0  0
  189.3340  176.0010  146.4890 C   0  0  0  0  0  2  0  0  0  0  0  0
  188.9140  178.3190  141.7480 O   0  0  0  0  0  0  0  0  0  0  0  0
  189.1010  176.1260  142.5910 C   0  0  1  0  0  0  0  0  0  0  0  0
  187.0330  177.7080  143.0280 C   0  0  1  0  0  3  0  0  0  0  0  0
  190.0270  173.7540  145.6380 C   0  0  0  0  0  2  0  0  0  0  0  0
  186.4790  176.5290  143.8420 C   0  0  0  0  0  2  0  0  0  0  0  0
  189.2900  175.5630  144.0060 C   0  0  2  0  0  0  0  0  0  0  0  0
  185.0960  177.0270  146.4160 C   0  0  0  0  0  1  0  0  0  0  0  0
  186.5910  177.2470  146.2550 C   0  0  0  0  0  2  0  0  0  0  0  0
  192.5780  172.6500  143.6490 C   0  0  2  0  0  0  0  0  0  0  0  0
  196.7570  171.9020  144.2610 C   0  0  0  0  0  3  0  0  0  0  0  0
  194.7700  173.2280  144.6860 C   0  0  0  0  0  0  0  0  0  0  0  0
  194.6640  171.2880  143.2300 O   0  0  0  0  0  0  0  0  0  0  0  0
  192.7930  171.0480  141.7380 O   0  0  0  0  0  1  0  0  0  0  0  0
  192.3570  171.2210  144.1910 C   0  0  1  0  0  3  0  0  0  0  0  0
  193.4070  173.4680  144.4770 O   0  0  0  0  0  0  0  0  0  0  0  0
  191.0270  170.5960  143.7850 C   0  0  0  0  0  1  0  0  0  0  0  0
  197.4980  172.7450  145.0890 C   0  0  0  0  0  3  0  0  0  0  0  0
  193.2700  171.4670  142.9850 C   0  0  2  0  0  0  0  0  0  0  0  0
  195.5110  174.0770  145.5230 C   0  0  0  0  0  0  0  0  0  0  0  0
  195.3950  172.1380  144.0590 C   0  0  0  0  0  0  0  0  0  0  0  0
  196.8760  173.8270  145.7170 C   0  0  0  0  0  3  0  0  0  0  0  0
  194.8540  175.1810  146.1610 N   0  0  0  0  0  2  0  0  0  0  0  0
  193.0310  176.8380  145.1120 O   0  0  0  0  0  0  0  0  0  0  0  0
  194.8740  177.8170  146.3870 O   0  0  0  0  0  0  0  0  0  0  0  0
  194.4940  176.7180  145.4340 S   0  0  0  0  0  0  0  0  0  0  0  0
  195.4170  176.8820  143.9230 C   0  0  0  0  0  2  0  0  0  0  0  0
  196.6990  175.1340  142.3490 O   0  0  0  0  0  1  0  0  0  0  0  0
  195.2200  176.6870  141.5490 O   0  0  0  0  0  0  0  0  0  0  0  0
  194.6230  176.2960  142.7620 C   0  0  1  0  0  3  0  0  0  0  0  0
  195.3870  175.3380  141.9080 C   0  0  2  0  0  3  0  0  0  0  0  0
  2  1  2  0  0  0  0
  3 19  1  1  0  0  0
  4  5  1  6  0  0  0
  4 12  1  0  0  0  0
  6 10  1  0  0  0  0
  9 14  1  0  0  0  0
  9 15  1  1  0  0  0
 10  4  1  0  0  0  0
 11 17  1  0  0  0  0
 11 18  1  0  0  0  0
 12  1  1  6  0  0  0
 12  3  1  0  0  0  0
 14 23  1  1  0  0  0
 15 13  1  0  0  0  0
 16 11  2  0  0  0  0
 17  6  1  6  0  0  0
 17  8  1  0  0  0  0
 17 21  1  0  0  0  0
 18  7  1  1  0  0  0
 18 20  1  0  0  0  0
 19 13  1  0  0  0  0
 20 14  1  0  0  0  0
 21  8  1  1  0  0  0
 21  3  1  0  0  0  0
 21  9  1  0  0  0  0
 23 22  1  0  0  0  0
 24  1  1  6  0  0  0
 24 29  1  0  0  0  0
 24 30  1  0  0  0  0
 25 32  1  0  0  0  0
 26 34  2  0  0  0  0
 27 35  1  0  0  0  0
 29 31  1  6  0  0  0
 30 26  1  0  0  0  0
 32 36  2  0  0  0  0
 33 28  1  6  0  0  0
 33 27  1  0  0  0  0
 33 24  1  0  0  0  0
 33 29  1  0  0  0  0
 34 36  1  0  0  0  0
 34 37  1  0  0  0  0
 35 25  2  0  0  0  0
 35 26  1  0  0  0  0
 38 40  2  0  0  0  0
 40 37  1  0  0  0  0
 40 39  2  0  0  0  0
 41 40  1  0  0  0  0
 43 45  1  0  0  0  0
 43 44  1  0  0  0  0
 44 41  1  1  0  0  0
 45 42  1  1  0  0  0
 45 44  1  0  0  0  0
M  END
>  <MODEL>
3

>  <REMARK>
 VINA RESULT:      -7.8      2.852      7.829
  Name = 
  7 active torsions:
  status: ('A' for Active; 'I' for Inactive)
    1  A    between atoms: C_1  and  C_11
    2  A    between atoms: C_11  and  C_25
    3  A    between atoms: C_23  and  C_31
    4  A    between atoms: C_23  and  S_32
    5  A    between atoms: C_29  and  C_34
    6  A    between atoms: S_32  and  N_35
    7  A    between atoms: N_35  and  C_39
                            x       y       z     vdW  Elec       q    Type
                         _______ _______ _______ _____ _____    ______ ____

>  <TORSDO>
F 7

$$$$
=
 OpenBabel11062420453D

 45 52  0  0  1  0  0  0  0  0999 V2000
  193.0840  174.0910  144.5440 C   0  0  0  0  0  0  0  0  0  0  0  0
  193.0630  173.4410  145.5770 O   0  0  0  0  0  0  0  0  0  0  0  0
  191.2500  175.8670  144.0650 C   0  0  1  0  0  3  0  0  0  0  0  0
  193.1470  176.4180  145.7320 C   0  0  2  0  0  3  0  0  0  0  0  0
  194.5260  176.0420  146.2540 C   0  0  0  0  0  1  0  0  0  0  0  0
  191.4230  175.2630  147.1770 C   0  0  0  0  0  2  0  0  0  0  0  0
  186.6200  176.0910  146.8600 O   0  0  0  0  0  1  0  0  0  0  0  0
  190.1010  173.9680  145.4750 C   0  0  0  0  0  2  0  0  0  0  0  0
  188.6430  175.6960  144.3150 C   0  0  1  0  0  3  0  0  0  0  0  0
  192.1410  176.5660  146.8740 C   0  0  0  0  0  2  0  0  0  0  0  0
  188.8420  175.2900  147.2170 C   0  0  0  0  0  0  0  0  0  0  0  0
  192.6760  175.5510  144.5470 C   0  0  1  0  0  3  0  0  0  0  0  0
  189.7440  176.0790  142.0690 C   0  0  0  0  0  2  0  0  0  0  0  0
  188.2170  177.1440  144.6200 C   0  0  2  0  0  3  0  0  0  0  0  0
  188.5990  175.3950  142.8130 C   0  0  0  0  0  2  0  0  0  0  0  0
  188.5660  174.4060  148.0130 O   0  0  0  0  0  0  0  0  0  0  0  0
  190.1100  175.1780  146.4080 C   0  0  1  0  0  0  0  0  0  0  0  0
  187.9320  176.4900  147.1180 C   0  0  1  0  0  3  0  0  0  0  0  0
  191.0840  175.5610  142.5770 C   0  0  0  0  0  2  0  0  0  0  0  0
  188.3990  177.5400  146.0980 C   0  0  0  0  0  2  0  0  0  0  0  0
  190.0310  175.3650  144.8870 C   0  0  2  0  0  0  0  0  0  0  0  0
  186.3160  178.7660  144.6200 C   0  0  0  0  0  1  0  0  0  0  0  0
  186.7820  177.3920  144.1700 C   0  0  0  0  0  2  0  0  0  0  0  0
  193.4590  173.4050  143.2570 C   0  0  2  0  0  0  0  0  0  0  0  0
  193.9390  169.7360  141.0870 C   0  0  0  0  0  3  0  0  0  0  0  0
  192.5450  171.5790  141.8270 C   0  0  0  0  0  0  0  0  0  0  0  0
  194.8850  171.4740  142.4660 O   0  0  0  0  0  0  0  0  0  0  0  0
  195.6530  172.8180  144.3070 O   0  0  0  0  0  1  0  0  0  0  0  0
  194.5870  173.9550  142.3560 C   0  0  1  0  0  3  0  0  0  0  0  0
  192.3960  172.7720  142.5420 O   0  0  0  0  0  0  0  0  0  0  0  0
  195.3150  175.1640  142.9320 C   0  0  0  0  0  1  0  0  0  0  0  0
  192.8520  169.1840  140.4090 C   0  0  0  0  0  3  0  0  0  0  0  0
  194.8060  172.6950  143.2010 C   0  0  2  0  0  0  0  0  0  0  0  0
  191.4490  171.0290  141.1440 C   0  0  0  0  0  0  0  0  0  0  0  0
  193.7910  170.9310  141.7940 C   0  0  0  0  0  0  0  0  0  0  0  0
  191.6130  169.8290  140.4380 C   0  0  0  0  0  3  0  0  0  0  0  0
  190.1860  171.7070  141.1830 N   0  0  0  0  0  2  0  0  0  0  0  0
  189.1130  171.4690  138.7420 O   0  0  0  0  0  0  0  0  0  0  0  0
  188.0780  173.0420  140.3020 O   0  0  0  0  0  0  0  0  0  0  0  0
  189.3840  172.4600  139.8380 S   0  0  0  0  0  0  0  0  0  0  0  0
  190.4220  173.7490  139.1840 C   0  0  0  0  0  2  0  0  0  0  0  0
  193.0630  174.1640  139.3500 O   0  0  0  0  0  1  0  0  0  0  0  0
  191.9000  174.2760  137.3810 O   0  0  0  0  0  0  0  0  0  0  0  0
  191.2730  173.2040  138.0450 C   0  0  1  0  0  3  0  0  0  0  0  0
  192.7350  173.4730  138.1770 C   0  0  2  0  0  3  0  0  0  0  0  0
  1  2  2  0  0  0  0
  3 19  1  6  0  0  0
  3 12  1  0  0  0  0
  3 21  1  0  0  0  0
  4  5  1  1  0  0  0
  4 10  1  0  0  0  0
  9 15  1  6  0  0  0
  9 14  1  0  0  0  0
  9 21  1  0  0  0  0
 10  6  1  0  0  0  0
 11 16  2  0  0  0  0
 12  1  1  1  0  0  0
 12  4  1  0  0  0  0
 13 19  1  0  0  0  0
 13 15  1  0  0  0  0
 14 23  1  1  0  0  0
 14 20  1  0  0  0  0
 17  8  1  6  0  0  0
 17  6  1  0  0  0  0
 17 11  1  0  0  0  0
 18  7  1  6  0  0  0
 18 11  1  0  0  0  0
 20 18  1  0  0  0  0
 21  8  1  6  0  0  0
 21 17  1  0  0  0  0
 23 22  1  0  0  0  0
 24  1  1  1  0  0  0
 25 35  1  0  0  0  0
 26 30  1  0  0  0  0
 27 33  1  0  0  0  0
 29 31  1  1  0  0  0
 29 33  1  0  0  0  0
 29 24  1  0  0  0  0
 30 24  1  0  0  0  0
 32 36  1  0  0  0  0
 32 25  2  0  0  0  0
 33 24  1  0  0  0  0
 33 28  1  1  0  0  0
 34 37  1  0  0  0  0
 34 26  1  0  0  0  0
 35 26  2  0  0  0  0
 35 27  1  0  0  0  0
 36 34  2  0  0  0  0
 38 40  2  0  0  0  0
 40 39  2  0  0  0  0
 40 37  1  0  0  0  0
 41 40  1  0  0  0  0
 43 44  1  0  0  0  0
 43 45  1  0  0  0  0
 44 45  1  0  0  0  0
 44 41  1  1  0  0  0
 45 42  1  1  0  0  0
M  END
>  <MODEL>
4

>  <REMARK>
 VINA RESULT:      -7.6      2.247      6.959
  Name = 
  7 active torsions:
  status: ('A' for Active; 'I' for Inactive)
    1  A    between atoms: C_1  and  C_11
    2  A    between atoms: C_11  and  C_25
    3  A    between atoms: C_23  and  C_31
    4  A    between atoms: C_23  and  S_32
    5  A    between atoms: C_29  and  C_34
    6  A    between atoms: S_32  and  N_35
    7  A    between atoms: N_35  and  C_39
                            x       y       z     vdW  Elec       q    Type
                         _______ _______ _______ _____ _____    ______ ____

>  <TORSDO>
F 7

$$$$
=
 OpenBabel11062420453D

 45 52  0  0  1  0  0  0  0  0999 V2000
  189.1470  176.5090  143.2730 C   0  0  0  0  0  0  0  0  0  0  0  0
  189.8260  177.5070  143.0900 O   0  0  0  0  0  0  0  0  0  0  0  0
  190.2850  174.3570  144.1790 C   0  0  1  0  0  3  0  0  0  0  0  0
  189.6960  176.2680  145.8170 C   0  0  2  0  0  3  0  0  0  0  0  0
  188.8970  177.5420  146.0450 C   0  0  0  0  0  1  0  0  0  0  0  0
  191.9840  176.9220  144.9610 C   0  0  0  0  0  2  0  0  0  0  0  0
  195.6630  173.7670  144.3560 O   0  0  0  0  0  1  0  0  0  0  0  0
  192.1140  175.6460  142.7990 C   0  0  0  0  0  2  0  0  0  0  0  0
  192.5520  173.2370  143.4780 C   0  0  1  0  0  3  0  0  0  0  0  0
  191.1730  176.4680  146.1610 C   0  0  0  0  0  2  0  0  0  0  0  0
  194.1000  175.5740  144.3550 C   0  0  0  0  0  0  0  0  0  0  0  0
  189.4210  175.6000  144.4550 C   0  0  1  0  0  3  0  0  0  0  0  0
  190.3340  172.0580  143.1750 C   0  0  0  0  0  2  0  0  0  0  0  0
  193.0180  172.5360  144.7670 C   0  0  2  0  0  3  0  0  0  0  0  0
  191.7240  172.3010  142.5900 C   0  0  0  0  0  2  0  0  0  0  0  0
  194.8220  176.4090  143.8330 O   0  0  0  0  0  0  0  0  0  0  0  0
  192.6030  175.7290  144.2440 C   0  0  1  0  0  0  0  0  0  0  0  0
  194.7330  174.4520  145.1400 C   0  0  1  0  0  3  0  0  0  0  0  0
  189.5640  173.3700  143.2610 C   0  0  0  0  0  2  0  0  0  0  0  0
  193.7180  173.4810  145.7630 C   0  0  0  0  0  2  0  0  0  0  0  0
  191.7730  174.5300  143.7680 C   0  0  2  0  0  0  0  0  0  0  0  0
  194.5160  170.7730  145.7130 C   0  0  0  0  0  1  0  0  0  0  0  0
  193.9110  171.3430  144.4420 C   0  0  0  0  0  2  0  0  0  0  0  0
  188.0740  176.1620  142.2740 C   0  0  2  0  0  0  0  0  0  0  0  0
  186.5880  176.4790  138.2630 C   0  0  0  0  0  3  0  0  0  0  0  0
  187.9660  175.3590  139.9170 C   0  0  0  0  0  0  0  0  0  0  0  0
  186.6470  177.3020  140.5300 O   0  0  0  0  0  0  0  0  0  0  0  0
  187.1750  178.4800  142.5600 O   0  0  0  0  0  1  0  0  0  0  0  0
  186.5920  176.0550  142.6960 C   0  0  1  0  0  3  0  0  0  0  0  0
  188.4500  175.2660  141.2260 O   0  0  0  0  0  0  0  0  0  0  0  0
  186.3280  176.4160  144.1530 C   0  0  0  0  0  1  0  0  0  0  0  0
  187.0000  175.5610  137.2970 C   0  0  0  0  0  3  0  0  0  0  0  0
  187.0890  177.2560  141.8860 C   0  0  2  0  0  0  0  0  0  0  0  0
  188.3800  174.4320  138.9490 C   0  0  0  0  0  0  0  0  0  0  0  0
  187.0660  176.3800  139.5720 C   0  0  0  0  0  0  0  0  0  0  0  0
  187.8910  174.5420  137.6390 C   0  0  0  0  0  3  0  0  0  0  0  0
  189.2950  173.3910  139.3210 N   0  0  0  0  0  2  0  0  0  0  0  0
  191.1140  173.7950  137.3990 O   0  0  0  0  0  0  0  0  0  0  0  0
  191.8470  173.9580  139.7250 O   0  0  0  0  0  0  0  0  0  0  0  0
  190.9370  173.2270  138.7780 S   0  0  0  0  0  0  0  0  0  0  0  0
  191.3710  171.5020  138.7350 C   0  0  0  0  0  2  0  0  0  0  0  0
  192.2360  169.4220  140.1830 O   0  0  0  0  0  1  0  0  0  0  0  0
  190.3130  169.3690  138.9430 O   0  0  0  0  0  0  0  0  0  0  0  0
  190.3090  170.6810  139.4550 C   0  0  1  0  0  3  0  0  0  0  0  0
  190.8410  169.5260  140.2370 C   0  0  2  0  0  3  0  0  0  0  0  0
  2  1  2  0  0  0  0
  3 19  1  6  0  0  0
  3 12  1  0  0  0  0
  4  5  1  6  0  0  0
  4 10  1  0  0  0  0
  6 10  1  0  0  0  0
  9 15  1  1  0  0  0
  9 21  1  0  0  0  0
  9 14  1  0  0  0  0
 11 18  1  0  0  0  0
 12  1  1  6  0  0  0
 12  4  1  0  0  0  0
 13 19  1  0  0  0  0
 14 23  1  6  0  0  0
 14 20  1  0  0  0  0
 15 13  1  0  0  0  0
 16 11  2  0  0  0  0
 17  8  1  6  0  0  0
 17 11  1  0  0  0  0
 17  6  1  0  0  0  0
 18  7  1  6  0  0  0
 18 20  1  0  0  0  0
 21  8  1  6  0  0  0
 21  3  1  0  0  0  0
 21 17  1  0  0  0  0
 23 22  1  0  0  0  0
 24 29  1  0  0  0  0
 24  1  1  1  0  0  0
 25 35  1  0  0  0  0
 26 30  1  0  0  0  0
 27 33  1  0  0  0  0
 29 31  1  1  0  0  0
 30 24  1  0  0  0  0
 32 36  1  0  0  0  0
 32 25  2  0  0  0  0
 33 24  1  0  0  0  0
 33 28  1  1  0  0  0
 33 29  1  0  0  0  0
 34 37  1  0  0  0  0
 34 26  1  0  0  0  0
 35 26  2  0  0  0  0
 35 27  1  0  0  0  0
 36 34  2  0  0  0  0
 38 40  2  0  0  0  0
 40 37  1  0  0  0  0
 40 39  2  0  0  0  0
 41 40  1  0  0  0  0
 43 44  1  0  0  0  0
 43 45  1  0  0  0  0
 44 41  1  6  0  0  0
 44 45  1  0  0  0  0
 45 42  1  6  0  0  0
M  END
>  <MODEL>
5

>  <REMARK>
 VINA RESULT:      -7.5      2.263      4.455
  Name = 
  7 active torsions:
  status: ('A' for Active; 'I' for Inactive)
    1  A    between atoms: C_1  and  C_11
    2  A    between atoms: C_11  and  C_25
    3  A    between atoms: C_23  and  C_31
    4  A    between atoms: C_23  and  S_32
    5  A    between atoms: C_29  and  C_34
    6  A    between atoms: S_32  and  N_35
    7  A    between atoms: N_35  and  C_39
                            x       y       z     vdW  Elec       q    Type
                         _______ _______ _______ _____ _____    ______ ____

>  <TORSDO>
F 7

$$$$
=
 OpenBabel11062420453D

 45 52  0  0  1  0  0  0  0  0999 V2000
  191.8860  174.5990  144.5100 C   0  0  0  0  0  0  0  0  0  0  0  0
  191.6980  174.4800  145.7110 O   0  0  0  0  0  0  0  0  0  0  0  0
  190.0600  175.8780  143.1770 C   0  0  1  0  0  3  0  0  0  0  0  0
  191.8970  177.2110  144.4140 C   0  0  2  0  0  3  0  0  0  0  0  0
  193.2590  177.1660  145.0890 C   0  0  0  0  0  1  0  0  0  0  0  0
  190.1310  176.8710  146.1910 C   0  0  0  0  0  2  0  0  0  0  0  0
  185.3380  177.3380  145.3830 O   0  0  0  0  0  1  0  0  0  0  0  0
  188.8750  174.8830  145.3030 C   0  0  0  0  0  2  0  0  0  0  0  0
  187.4470  175.7960  143.4090 C   0  0  1  0  0  3  0  0  0  0  0  0
  190.8520  177.8750  145.3110 C   0  0  0  0  0  2  0  0  0  0  0  0
  187.5500  176.8600  146.1440 C   0  0  0  0  0  0  0  0  0  0  0  0
  191.4710  175.8660  143.7900 C   0  0  1  0  0  3  0  0  0  0  0  0
  188.6200  175.0590  141.2920 C   0  0  0  0  0  2  0  0  0  0  0  0
  187.0040  177.1990  142.9570 C   0  0  2  0  0  3  0  0  0  0  0  0
  187.4550  174.7990  142.2440 C   0  0  0  0  0  2  0  0  0  0  0  0
  187.2530  176.4700  147.2630 O   0  0  0  0  0  0  0  0  0  0  0  0
  188.8460  176.3940  145.5270 C   0  0  1  0  0  0  0  0  0  0  0  0
  186.6380  177.8400  145.4480 C   0  0  1  0  0  3  0  0  0  0  0  0
  189.9450  174.8810  142.0240 C   0  0  0  0  0  2  0  0  0  0  0  0
  187.1330  178.2690  144.0590 C   0  0  0  0  0  2  0  0  0  0  0  0
  188.8170  175.8140  144.1070 C   0  0  2  0  0  0  0  0  0  0  0  0
  185.1270  178.5670  142.0350 C   0  0  0  0  0  1  0  0  0  0  0  0
  185.5830  177.1660  142.4060 C   0  0  0  0  0  2  0  0  0  0  0  0
  192.4780  173.4440  143.7460 C   0  0  2  0  0  0  0  0  0  0  0  0
  192.6800  169.2050  143.1250 C   0  0  0  0  0  3  0  0  0  0  0  0
  191.6520  171.3540  142.6660 C   0  0  0  0  0  0  0  0  0  0  0  0
  193.5280  171.1910  144.1990 O   0  0  0  0  0  0  0  0  0  0  0  0
  193.9570  173.0070  145.7170 O   0  0  0  0  0  1  0  0  0  0  0  0
  193.9450  173.4720  143.2630 C   0  0  1  0  0  3  0  0  0  0  0  0
  191.5900  172.7360  142.8780 O   0  0  0  0  0  0  0  0  0  0  0  0
  194.7260  174.7030  143.7060 C   0  0  0  0  0  1  0  0  0  0  0  0
  191.7790  168.5880  142.2570 C   0  0  0  0  0  3  0  0  0  0  0  0
  193.5290  172.5960  144.4490 C   0  0  2  0  0  0  0  0  0  0  0  0
  190.7460  170.7390  141.7890 C   0  0  0  0  0  0  0  0  0  0  0  0
  192.6210  170.5850  143.3300 C   0  0  0  0  0  0  0  0  0  0  0  0
  190.8170  169.3520  141.5920 C   0  0  0  0  0  3  0  0  0  0  0  0
  189.7670  171.5410  141.1140 N   0  0  0  0  0  2  0  0  0  0  0  0
  189.9560  170.5860  138.6210 O   0  0  0  0  0  0  0  0  0  0  0  0
  188.3190  172.3500  139.0530 O   0  0  0  0  0  0  0  0  0  0  0  0
  189.6890  171.8390  139.4040 S   0  0  0  0  0  0  0  0  0  0  0  0
  190.9160  173.0500  138.9630 C   0  0  0  0  0  2  0  0  0  0  0  0
  192.9020  174.4170  140.1290 O   0  0  0  0  0  1  0  0  0  0  0  0
  193.1740  173.2190  138.1980 O   0  0  0  0  0  0  0  0  0  0  0  0
  192.2960  172.4060  138.9400 C   0  0  1  0  0  3  0  0  0  0  0  0
  193.3700  173.2140  139.5900 C   0  0  2  0  0  3  0  0  0  0  0  0
  1  2  2  0  0  0  0
  3 19  1  6  0  0  0
  3 12  1  0  0  0  0
  3 21  1  0  0  0  0
  4  5  1  1  0  0  0
  4 10  1  0  0  0  0
  9 15  1  6  0  0  0
  9 21  1  0  0  0  0
 10  6  1  0  0  0  0
 11 16  2  0  0  0  0
 12  4  1  0  0  0  0
 12  1  1  1  0  0  0
 13 19  1  0  0  0  0
 13 15  1  0  0  0  0
 14 23  1  1  0  0  0
 14  9  1  0  0  0  0
 14 20  1  0  0  0  0
 17  8  1  1  0  0  0
 17 11  1  0  0  0  0
 17  6  1  0  0  0  0
 18  7  1  6  0  0  0
 18 11  1  0  0  0  0
 20 18  1  0  0  0  0
 21  8  1  1  0  0  0
 21 17  1  0  0  0  0
 22 23  1  0  0  0  0
 24 33  1  0  0  0  0
 24  1  1  1  0  0  0
 25 35  1  0  0  0  0
 26 30  1  0  0  0  0
 26 35  2  0  0  0  0
 27 33  1  0  0  0  0
 29 31  1  1  0  0  0
 29 24  1  0  0  0  0
 29 33  1  0  0  0  0
 30 24  1  0  0  0  0
 32 25  2  0  0  0  0
 33 28  1  1  0  0  0
 34 26  1  0  0  0  0
 35 27  1  0  0  0  0
 36 34  2  0  0  0  0
 36 32  1  0  0  0  0
 37 34  1  0  0  0  0
 38 40  2  0  0  0  0
 39 40  2  0  0  0  0
 40 37  1  0  0  0  0
 41 40  1  0  0  0  0
 43 44  1  0  0  0  0
 43 45  1  0  0  0  0
 44 41  1  1  0  0  0
 44 45  1  0  0  0  0
 45 42  1  1  0  0  0
M  END
>  <MODEL>
6

>  <REMARK>
 VINA RESULT:      -7.2      2.285      6.880
  Name = 
  7 active torsions:
  status: ('A' for Active; 'I' for Inactive)
    1  A    between atoms: C_1  and  C_11
    2  A    between atoms: C_11  and  C_25
    3  A    between atoms: C_23  and  C_31
    4  A    between atoms: C_23  and  S_32
    5  A    between atoms: C_29  and  C_34
    6  A    between atoms: S_32  and  N_35
    7  A    between atoms: N_35  and  C_39
                            x       y       z     vdW  Elec       q    Type
                         _______ _______ _______ _____ _____    ______ ____

>  <TORSDO>
F 7

$$$$
=
 OpenBabel11062420453D

 45 52  0  0  1  0  0  0  0  0999 V2000
  191.1450  174.7160  143.0150 C   0  0  0  0  0  0  0  0  0  0  0  0
  191.2060  175.7730  142.4060 O   0  0  0  0  0  0  0  0  0  0  0  0
  189.1620  175.0460  144.6600 C   0  0  1  0  0  3  0  0  0  0  0  0
  188.8190  173.6280  142.5260 C   0  0  2  0  0  3  0  0  0  0  0  0
  189.4830  172.8750  141.3840 C   0  0  0  0  0  1  0  0  0  0  0  0
  188.3460  175.9850  141.7390 C   0  0  0  0  0  2  0  0  0  0  0  0
  185.7520  179.2350  144.3010 O   0  0  0  0  0  1  0  0  0  0  0  0
  189.5400  177.3610  143.4720 C   0  0  0  0  0  2  0  0  0  0  0  0
  188.0570  177.2610  145.5320 C   0  0  1  0  0  3  0  0  0  0  0  0
  187.7650  174.6090  142.0090 C   0  0  0  0  0  2  0  0  0  0  0  0
  187.1890  178.0170  142.8310 C   0  0  0  0  0  0  0  0  0  0  0  0
  189.8180  174.2120  143.5460 C   0  0  1  0  0  3  0  0  0  0  0  0
  189.2180  175.6460  147.0960 C   0  0  0  0  0  2  0  0  0  0  0  0
  186.6000  176.8490  145.8070 C   0  0  2  0  0  3  0  0  0  0  0  0
  188.9350  177.1120  146.7810 C   0  0  0  0  0  2  0  0  0  0  0  0
  187.4170  178.9230  142.0440 O   0  0  0  0  0  0  0  0  0  0  0  0
  188.1820  176.8890  142.9540 C   0  0  1  0  0  0  0  0  0  0  0  0
  185.8940  178.0330  143.6050 C   0  0  1  0  0  3  0  0  0  0  0  0
  189.9840  175.0010  145.9470 C   0  0  0  0  0  2  0  0  0  0  0  0
  185.7180  176.8300  144.5430 C   0  0  0  0  0  2  0  0  0  0  0  0
  188.6680  176.4870  144.3530 C   0  0  2  0  0  0  0  0  0  0  0  0
  184.4690  177.5830  146.8870 C   0  0  0  0  0  1  0  0  0  0  0  0
  185.9800  177.7370  146.8810 C   0  0  0  0  0  2  0  0  0  0  0  0
  192.4160  173.9540  143.2840 C   0  0  2  0  0  0  0  0  0  0  0  0
  194.5730  171.2410  145.8100 C   0  0  0  0  0  3  0  0  0  0  0  0
  193.0480  171.6410  143.9670 C   0  0  0  0  0  0  0  0  0  0  0  0
  194.0050  173.5030  145.1960 O   0  0  0  0  0  0  0  0  0  0  0  0
  192.9810  175.6730  145.0130 O   0  0  0  0  0  1  0  0  0  0  0  0
  193.7970  174.5520  142.9350 C   0  0  1  0  0  3  0  0  0  0  0  0
  192.3430  172.5330  143.1510 O   0  0  0  0  0  0  0  0  0  0  0  0
  193.7440  175.9770  142.3980 C   0  0  0  0  0  1  0  0  0  0  0  0
  194.4530  169.8660  145.6130 C   0  0  0  0  0  3  0  0  0  0  0  0
  193.3270  174.4670  144.3910 C   0  0  2  0  0  0  0  0  0  0  0  0
  192.9260  170.2580  143.7630 C   0  0  0  0  0  0  0  0  0  0  0  0
  193.8750  172.1300  144.9900 C   0  0  0  0  0  0  0  0  0  0  0  0
  193.6330  169.3770  144.5930 C   0  0  0  0  0  3  0  0  0  0  0  0
  192.0810  169.7770  142.7080 N   0  0  0  0  0  2  0  0  0  0  0  0
  194.0570  169.1790  141.0040 O   0  0  0  0  0  0  0  0  0  0  0  0
  191.8600  168.1800  140.6100 O   0  0  0  0  0  0  0  0  0  0  0  0
  192.5760  169.4150  141.0820 S   0  0  0  0  0  0  0  0  0  0  0  0
  192.1700  170.7890  140.0270 C   0  0  0  0  0  2  0  0  0  0  0  0
  191.2260  172.6430  138.3400 O   0  0  0  0  0  1  0  0  0  0  0  0
  190.1900  170.6340  138.6980 O   0  0  0  0  0  0  0  0  0  0  0  0
  191.5530  170.2830  138.7290 C   0  0  1  0  0  3  0  0  0  0  0  0
  191.0300  171.3550  137.8310 C   0  0  2  0  0  3  0  0  0  0  0  0
  2  1  2  0  0  0  0
  3 19  1  1  0  0  0
  4  5  1  6  0  0  0
  4 12  1  0  0  0  0
  6 10  1  0  0  0  0
  9 14  1  0  0  0  0
  9 15  1  1  0  0  0
 10  4  1  0  0  0  0
 11 17  1  0  0  0  0
 11 18  1  0  0  0  0
 12  1  1  6  0  0  0
 12  3  1  0  0  0  0
 14 23  1  1  0  0  0
 15 13  1  0  0  0  0
 16 11  2  0  0  0  0
 17  6  1  6  0  0  0
 17  8  1  0  0  0  0
 17 21  1  0  0  0  0
 18  7  1  1  0  0  0
 18 20  1  0  0  0  0
 19 13  1  0  0  0  0
 20 14  1  0  0  0  0
 21  8  1  6  0  0  0
 21  3  1  0  0  0  0
 21  9  1  0  0  0  0
 23 22  1  0  0  0  0
 24  1  1  6  0  0  0
 24 33  1  0  0  0  0
 26 35  1  0  0  0  0
 29 31  1  6  0  0  0
 29 24  1  0  0  0  0
 29 33  1  0  0  0  0
 30 24  1  0  0  0  0
 30 26  1  0  0  0  0
 32 25  1  0  0  0  0
 33 28  1  1  0  0  0
 33 27  1  0  0  0  0
 34 26  2  0  0  0  0
 34 36  1  0  0  0  0
 35 27  1  0  0  0  0
 35 25  2  0  0  0  0
 36 32  2  0  0  0  0
 37 34  1  0  0  0  0
 38 40  2  0  0  0  0
 39 40  2  0  0  0  0
 40 37  1  0  0  0  0
 41 40  1  0  0  0  0
 43 44  1  0  0  0  0
 44 41  1  1  0  0  0
 45 42  1  1  0  0  0
 45 43  1  0  0  0  0
 45 44  1  0  0  0  0
M  END
>  <MODEL>
7

>  <REMARK>
 VINA RESULT:      -7.2      2.888      7.520
  Name = 
  7 active torsions:
  status: ('A' for Active; 'I' for Inactive)
    1  A    between atoms: C_1  and  C_11
    2  A    between atoms: C_11  and  C_25
    3  A    between atoms: C_23  and  C_31
    4  A    between atoms: C_23  and  S_32
    5  A    between atoms: C_29  and  C_34
    6  A    between atoms: S_32  and  N_35
    7  A    between atoms: N_35  and  C_39
                            x       y       z     vdW  Elec       q    Type
                         _______ _______ _______ _____ _____    ______ ____

>  <TORSDO>
F 7

$$$$
=
 OpenBabel11062420453D

 45 52  0  0  1  0  0  0  0  0999 V2000
  191.5900  175.6460  144.0940 C   0  0  0  0  0  0  0  0  0  0  0  0
  191.5770  176.7340  143.5400 O   0  0  0  0  0  0  0  0  0  0  0  0
  189.1830  175.9130  145.0320 C   0  0  1  0  0  3  0  0  0  0  0  0
  189.7830  173.8090  143.6550 C   0  0  2  0  0  3  0  0  0  0  0  0
  190.8940  172.9430  143.0820 C   0  0  0  0  0  1  0  0  0  0  0  0
  189.1060  175.4850  141.8870 C   0  0  0  0  0  2  0  0  0  0  0  0
  185.2710  178.4790  142.3100 O   0  0  0  0  0  1  0  0  0  0  0  0
  189.4280  177.6690  143.0910 C   0  0  0  0  0  2  0  0  0  0  0  0
  187.4490  177.8500  144.6730 C   0  0  1  0  0  3  0  0  0  0  0  0
  188.7580  174.1820  142.5840 C   0  0  0  0  0  2  0  0  0  0  0  0
  187.2930  177.3200  141.7890 C   0  0  0  0  0  0  0  0  0  0  0  0
  190.2940  174.9820  144.5160 C   0  0  1  0  0  3  0  0  0  0  0  0
  188.3880  177.3090  146.9600 C   0  0  0  0  0  2  0  0  0  0  0  0
  186.0890  177.1410  144.8030 C   0  0  2  0  0  3  0  0  0  0  0  0
  187.9250  178.4160  146.0160 C   0  0  0  0  0  2  0  0  0  0  0  0
  187.5600  177.9200  140.7590 O   0  0  0  0  0  0  0  0  0  0  0  0
  188.4090  176.6600  142.5610 C   0  0  1  0  0  0  0  0  0  0  0  0
  185.8510  177.2130  142.2170 C   0  0  1  0  0  3  0  0  0  0  0  0
  189.5750  176.5680  146.3560 C   0  0  0  0  0  2  0  0  0  0  0  0
  185.6470  176.4180  143.5160 C   0  0  0  0  0  2  0  0  0  0  0  0
  188.5260  176.9370  144.0660 C   0  0  2  0  0  0  0  0  0  0  0  0
  184.4440  177.6760  146.6070 C   0  0  0  0  0  1  0  0  0  0  0  0
  185.0120  178.1150  145.2690 C   0  0  0  0  0  2  0  0  0  0  0  0
  192.9150  175.0010  144.4070 C   0  0  2  0  0  0  0  0  0  0  0  0
  195.2400  171.4100  144.7170 C   0  0  0  0  0  3  0  0  0  0  0  0
  194.3810  173.2560  143.3970 C   0  0  0  0  0  0  0  0  0  0  0  0
  193.8300  173.0700  145.7540 O   0  0  0  0  0  0  0  0  0  0  0  0
  191.9670  174.3210  146.6200 O   0  0  0  0  0  1  0  0  0  0  0  0
  193.8350  175.5590  145.5160 C   0  0  1  0  0  3  0  0  0  0  0  0
  193.6160  174.4240  143.3030 O   0  0  0  0  0  0  0  0  0  0  0  0
  193.2390  176.7270  146.2940 C   0  0  0  0  0  1  0  0  0  0  0  0
  195.8990  170.9120  143.5930 C   0  0  0  0  0  3  0  0  0  0  0  0
  193.0470  174.2620  145.7320 C   0  0  2  0  0  0  0  0  0  0  0  0
  195.0440  172.7600  142.2640 C   0  0  0  0  0  0  0  0  0  0  0  0
  194.4830  172.5800  144.6230 C   0  0  0  0  0  0  0  0  0  0  0  0
  195.8020  171.5850  142.3720 C   0  0  0  0  0  3  0  0  0  0  0  0
  194.9340  173.4670  141.0210 N   0  0  0  0  0  2  0  0  0  0  0  0
  197.0240  173.2510  139.3620 O   0  0  0  0  0  0  0  0  0  0  0  0
  195.6610  175.2770  139.2340 O   0  0  0  0  0  0  0  0  0  0  0  0
  196.2310  174.2430  140.1640 S   0  0  0  0  0  0  0  0  0  0  0  0
  197.3240  175.0200  141.3340 C   0  0  0  0  0  2  0  0  0  0  0  0
  197.1910  175.7260  143.9140 O   0  0  0  0  0  1  0  0  0  0  0  0
  195.6410  176.3720  142.3590 O   0  0  0  0  0  0  0  0  0  0  0  0
  196.8450  176.4340  141.6330 C   0  0  1  0  0  3  0  0  0  0  0  0
  196.7770  176.7740  143.0850 C   0  0  2  0  0  3  0  0  0  0  0  0
  2  1  2  0  0  0  0
  3 19  1  1  0  0  0
  4  5  1  6  0  0  0
  4 12  1  0  0  0  0
  6 10  1  0  0  0  0
  9 14  1  0  0  0  0
  9 15  1  1  0  0  0
 10  4  1  0  0  0  0
 11 18  1  0  0  0  0
 11 17  1  0  0  0  0
 12  1  1  6  0  0  0
 12  3  1  0  0  0  0
 14 23  1  6  0  0  0
 15 13  1  0  0  0  0
 16 11  2  0  0  0  0
 17  6  1  6  0  0  0
 17  8  1  0  0  0  0
 17 21  1  0  0  0  0
 18  7  1  1  0  0  0
 18 20  1  0  0  0  0
 19 13  1  0  0  0  0
 20 14  1  0  0  0  0
 21  8  1  6  0  0  0
 21  9  1  0  0  0  0
 21  3  1  0  0  0  0
 23 22  1  0  0  0  0
 24  1  1  6  0  0  0
 24 29  1  0  0  0  0
 24 33  1  0  0  0  0
 26 35  2  0  0  0  0
 29 33  1  0  0  0  0
 29 31  1  1  0  0  0
 30 26  1  0  0  0  0
 30 24  1  0  0  0  0
 32 25  2  0  0  0  0
 33 27  1  0  0  0  0
 33 28  1  1  0  0  0
 34 36  2  0  0  0  0
 34 26  1  0  0  0  0
 35 25  1  0  0  0  0
 35 27  1  0  0  0  0
 36 32  1  0  0  0  0
 37 34  1  0  0  0  0
 38 40  2  0  0  0  0
 39 40  2  0  0  0  0
 40 37  1  0  0  0  0
 40 41  1  0  0  0  0
 43 45  1  0  0  0  0
 44 41  1  1  0  0  0
 44 43  1  0  0  0  0
 44 45  1  0  0  0  0
 45 42  1  1  0  0  0
M  END
>  <MODEL>
8

>  <REMARK>
 VINA RESULT:      -7.1      3.013      7.893
  Name = 
  7 active torsions:
  status: ('A' for Active; 'I' for Inactive)
    1  A    between atoms: C_1  and  C_11
    2  A    between atoms: C_11  and  C_25
    3  A    between atoms: C_23  and  C_31
    4  A    between atoms: C_23  and  S_32
    5  A    between atoms: C_29  and  C_34
    6  A    between atoms: S_32  and  N_35
    7  A    between atoms: N_35  and  C_39
                            x       y       z     vdW  Elec       q    Type
                         _______ _______ _______ _____ _____    ______ ____

>  <TORSDO>
F 7

$$$$
=
 OpenBabel11062420453D

 45 52  0  0  1  0  0  0  0  0999 V2000
  191.6670  176.1830  145.4000 C   0  0  0  0  0  0  0  0  0  0  0  0
  191.9840  177.1560  144.7340 O   0  0  0  0  0  0  0  0  0  0  0  0
  192.3020  173.8340  144.4900 C   0  0  1  0  0  3  0  0  0  0  0  0
  194.0800  175.2360  145.7380 C   0  0  2  0  0  3  0  0  0  0  0  0
  194.3460  176.4190  146.6560 C   0  0  0  0  0  1  0  0  0  0  0  0
  194.2810  176.0380  143.3490 C   0  0  0  0  0  2  0  0  0  0  0  0
  194.1780  173.0730  139.4700 O   0  0  0  0  0  1  0  0  0  0  0  0
  192.0430  175.4030  142.3960 C   0  0  0  0  0  2  0  0  0  0  0  0
  192.1630  172.8890  142.0460 C   0  0  1  0  0  3  0  0  0  0  0  0
  194.9560  175.2940  144.4870 C   0  0  0  0  0  2  0  0  0  0  0  0
  194.1140  174.8510  141.0630 C   0  0  0  0  0  0  0  0  0  0  0  0
  192.5810  174.9760  145.4830 C   0  0  1  0  0  3  0  0  0  0  0  0
  190.8030  171.9000  143.9360 C   0  0  0  0  0  2  0  0  0  0  0  0
  193.2960  171.8480  142.0000 C   0  0  2  0  0  3  0  0  0  0  0  0
  190.8270  172.2570  142.4510 C   0  0  0  0  0  2  0  0  0  0  0  0
  194.1210  175.7780  140.2670 O   0  0  0  0  0  0  0  0  0  0  0  0
  193.5350  175.0720  142.4380 C   0  0  1  0  0  0  0  0  0  0  0  0
  194.7410  173.5400  140.6580 C   0  0  1  0  0  3  0  0  0  0  0  0
  190.9630  173.1580  144.7810 C   0  0  0  0  0  2  0  0  0  0  0  0
  194.6870  172.4640  141.7530 C   0  0  0  0  0  2  0  0  0  0  0  0
  192.4980  174.0730  142.9670 C   0  0  2  0  0  0  0  0  0  0  0  0
  193.8150  169.5200  141.2540 C   0  0  0  0  0  1  0  0  0  0  0  0
  192.9970  170.7670  140.9680 C   0  0  0  0  0  2  0  0  0  0  0  0
  190.3260  176.1740  146.0870 C   0  0  2  0  0  0  0  0  0  0  0  0
  186.6570  178.2230  146.9470 C   0  0  0  0  0  3  0  0  0  0  0  0
  187.9760  176.7770  145.5130 C   0  0  0  0  0  0  0  0  0  0  0  0
  188.9240  177.6740  147.5600 O   0  0  0  0  0  0  0  0  0  0  0  0
  191.3130  177.6540  147.8480 O   0  0  0  0  0  1  0  0  0  0  0  0
  190.1330  175.4870  147.4580 C   0  0  1  0  0  3  0  0  0  0  0  0
  189.1790  176.1160  145.2370 O   0  0  0  0  0  0  0  0  0  0  0  0
  191.4150  174.9230  148.0610 C   0  0  0  0  0  1  0  0  0  0  0  0
  185.5800  178.1120  146.0680 C   0  0  0  0  0  3  0  0  0  0  0  0
  190.1730  177.0150  147.3480 C   0  0  2  0  0  0  0  0  0  0  0  0
  186.8940  176.6600  144.6280 C   0  0  0  0  0  0  0  0  0  0  0  0
  187.8540  177.5570  146.6740 C   0  0  0  0  0  0  0  0  0  0  0  0
  185.6980  177.3330  144.9150 C   0  0  0  0  0  3  0  0  0  0  0  0
  187.0340  175.8530  143.4500 N   0  0  0  0  0  2  0  0  0  0  0  0
  188.7610  177.4770  142.2070 O   0  0  0  0  0  0  0  0  0  0  0  0
  188.6290  175.1530  141.4580 O   0  0  0  0  0  0  0  0  0  0  0  0
  187.8340  176.3180  141.9790 S   0  0  0  0  0  0  0  0  0  0  0  0
  186.6140  176.8020  140.7780 C   0  0  0  0  0  2  0  0  0  0  0  0
  184.3280  177.5390  141.9640 O   0  0  0  0  0  1  0  0  0  0  0  0
  185.1940  178.6160  140.1390 O   0  0  0  0  0  0  0  0  0  0  0  0
  186.3480  178.2980  140.8810 C   0  0  1  0  0  3  0  0  0  0  0  0
  185.0560  178.6560  141.5380 C   0  0  2  0  0  3  0  0  0  0  0  0
  2  1  2  0  0  0  0
  3 19  1  6  0  0  0
  3 12  1  0  0  0  0
  4  5  1  6  0  0  0
  6 10  1  0  0  0  0
  9 15  1  1  0  0  0
  9 21  1  0  0  0  0
 10  4  1  0  0  0  0
 11 17  1  0  0  0  0
 12  1  1  6  0  0  0
 12  4  1  0  0  0  0
 13 19  1  0  0  0  0
 14 23  1  6  0  0  0
 14  9  1  0  0  0  0
 15 13  1  0  0  0  0
 16 11  2  0  0  0  0
 17  8  1  6  0  0  0
 17 21  1  0  0  0  0
 17  6  1  0  0  0  0
 18  7  1  6  0  0  0
 18 11  1  0  0  0  0
 18 20  1  0  0  0  0
 20 14  1  0  0  0  0
 21  8  1  6  0  0  0
 21  3  1  0  0  0  0
 23 22  1  0  0  0  0
 24  1  1  6  0  0  0
 24 33  1  0  0  0  0
 24 29  1  0  0  0  0
 26 35  2  0  0  0  0
 29 31  1  1  0  0  0
 30 26  1  0  0  0  0
 30 24  1  0  0  0  0
 32 25  2  0  0  0  0
 33 29  1  0  0  0  0
 33 27  1  0  0  0  0
 33 28  1  1  0  0  0
 34 36  2  0  0  0  0
 34 26  1  0  0  0  0
 35 25  1  0  0  0  0
 35 27  1  0  0  0  0
 36 32  1  0  0  0  0
 37 34  1  0  0  0  0
 39 40  2  0  0  0  0
 40 38  2  0  0  0  0
 40 37  1  0  0  0  0
 41 40  1  0  0  0  0
 43 44  1  0  0  0  0
 43 45  1  0  0  0  0
 44 41  1  1  0  0  0
 44 45  1  0  0  0  0
 45 42  1  1  0  0  0
M  END
>  <MODEL>
9

>  <REMARK>
 VINA RESULT:      -7.1      1.560      2.274
  Name = 
  7 active torsions:
  status: ('A' for Active; 'I' for Inactive)
    1  A    between atoms: C_1  and  C_11
    2  A    between atoms: C_11  and  C_25
    3  A    between atoms: C_23  and  C_31
    4  A    between atoms: C_23  and  S_32
    5  A    between atoms: C_29  and  C_34
    6  A    between atoms: S_32  and  N_35
    7  A    between atoms: N_35  and  C_39
                            x       y       z     vdW  Elec       q    Type
                         _______ _______ _______ _____ _____    ______ ____

>  <TORSDO>
F 7

$$$$
