=
 OpenBabel11062419083D

 32 34  0  0  1  0  0  0  0  0999 V2000
  189.0230  176.4140  146.7070 C   0  0  2  0  0  3  0  0  0  0  0  0
  190.2860  176.8240  147.4430 C   0  0  0  0  0  1  0  0  0  0  0  0
  189.5750  174.1650  145.9420 C   0  0  0  0  0  2  0  0  0  0  0  0
  189.3420  175.4370  145.6170 C   0  0  0  0  0  0  0  0  0  0  0  0
  188.2140  175.2820  143.5210 O   0  0  0  0  0  1  0  0  0  0  0  0
  189.2980  175.8720  144.1770 C   0  0  2  0  0  3  0  0  0  0  0  0
  190.4070  175.2570  142.1120 O   0  0  0  0  0  1  0  0  0  0  0  0
  190.6150  175.5690  143.4590 C   0  0  1  0  0  3  0  0  0  0  0  0
  191.6380  176.6940  143.6180 C   0  0  0  0  0  2  0  0  0  0  0  0
  192.9420  176.2070  144.0570 N   0  0  0  0  0  0  0  0  0  0  0  0
  194.7020  176.9420  146.3900 O   0  0  0  0  0  1  0  0  0  0  0  0
  193.0190  175.5690  145.3720 C   0  0  0  0  0  2  0  0  0  0  0  0
  195.4570  175.2160  144.9590 C   0  0  0  0  0  0  0  0  0  0  0  0
  193.8470  176.2520  141.8920 O   0  0  0  0  0  0  0  0  0  0  0  0
  195.2480  175.4570  143.5660 N   0  0  0  0  0  2  0  0  0  0  0  0
  196.5320  174.6880  145.3480 O   0  0  0  0  0  0  0  0  0  0  0  0
  194.4300  175.6430  145.9620 C   0  0  1  0  0  3  0  0  0  0  0  0
  194.0050  175.9900  143.1150 C   0  0  0  0  0  0  0  0  0  0  0  0
  188.3960  177.5470  146.1710 O   0  0  0  0  0  0  0  0  0  0  0  0
  186.2590  176.6620  147.0050 C   0  0  0  0  0  2  0  0  0  0  0  0
  186.0210  177.7740  146.0600 N   0  0  0  0  0  0  0  0  0  0  0  0
  187.2250  177.7460  146.9170 C   0  0  2  0  0  0  0  0  0  0  0  0
  187.2460  178.7200  147.9270 O   0  0  0  0  0  1  0  0  0  0  0  0
  185.0380  178.5860  146.6460 N   0  0  0  0  0  2  0  0  0  0  0  0
  183.9860  178.7490  145.6600 C   0  0  0  0  0  2  0  0  0  0  0  0
  184.4680  178.1560  143.2570 N   0  0  0  0  0  2  0  0  0  0  0  0
  185.2260  180.1560  144.1980 O   0  0  0  0  0  0  0  0  0  0  0  0
  184.5860  179.0810  144.3400 C   0  0  0  0  0  0  0  0  0  0  0  0
  185.0330  178.4110  141.9410 C   0  0  0  0  0  2  0  0  0  0  0  0
  186.0590  177.3480  141.5960 C   0  0  2  0  0  3  0  0  0  0  0  0
  187.3130  177.9610  141.4320 O   0  0  0  0  0  0  0  0  0  0  0  0
  186.6240  177.6120  140.2580 C   0  0  0  0  0  2  0  0  0  0  0  0
  1  2  1  6  0  0  0
  4  3  2  0  0  0  0
  4  1  1  0  0  0  0
  6  5  1  6  0  0  0
  6  4  1  0  0  0  0
  8  7  1  6  0  0  0
  8  9  1  0  0  0  0
  8  6  1  0  0  0  0
  9 10  1  0  0  0  0
 10 12  1  0  0  0  0
 12 17  1  0  0  0  0
 13 16  2  0  0  0  0
 13 17  1  0  0  0  0
 14 18  2  0  0  0  0
 15 13  1  0  0  0  0
 17 11  1  6  0  0  0
 18 15  1  0  0  0  0
 18 10  1  0  0  0  0
 19  1  1  0  0  0  0
 19 22  1  0  0  0  0
 21 24  1  0  0  0  0
 21 22  1  0  0  0  0
 21 20  1  0  0  0  0
 22 20  1  0  0  0  0
 22 23  1  1  0  0  0
 25 24  1  0  0  0  0
 26 28  1  0  0  0  0
 27 28  2  0  0  0  0
 28 25  1  0  0  0  0
 29 26  1  0  0  0  0
 30 29  1  6  0  0  0
 31 30  1  0  0  0  0
 32 31  1  0  0  0  0
 32 30  1  0  0  0  0
M  END
>  <MODEL>
1

>  <REMARK>
 VINA RESULT:      -6.3      0.000      0.000
  Name = 
  12 active torsions:
  status: ('A' for Active; 'I' for Inactive)
    1  A    between atoms: N_1  and  C_5
    2  A    between atoms: C_2  and  O_20
    3  A    between atoms: C_2  and  C_27
    4  A    between atoms: C_4  and  C_30
    5  A    between atoms: C_5  and  C_22
    6  A    between atoms: N_7  and  N_11
    7  A    between atoms: N_7  and  C_31
    8  A    between atoms: N_9  and  C_30
    9  A    between atoms: C_14  and  O_20
   10  A    between atoms: C_19  and  C_22
   11  A    between atoms: C_19  and  C_27
   12  A    between atoms: C_28  and  C_31
                            x       y       z     vdW  Elec       q    Type
                         _______ _______ _______ _____ _____    ______ ____

>  <TORSDO>
F 12

$$$$
=
 OpenBabel11062419083D

 32 34  0  0  1  0  0  0  0  0999 V2000
  185.5690  177.9850  143.1460 C   0  0  2  0  0  3  0  0  0  0  0  0
  184.0910  178.2380  142.9040 C   0  0  0  0  0  1  0  0  0  0  0  0
  185.5920  179.2680  145.2210 C   0  0  0  0  0  2  0  0  0  0  0  0
  185.8960  178.1260  144.6010 C   0  0  0  0  0  0  0  0  0  0  0  0
  185.7510  176.7560  146.5470 O   0  0  0  0  0  1  0  0  0  0  0  0
  186.4650  176.9610  145.3630 C   0  0  2  0  0  3  0  0  0  0  0  0
  188.1920  177.5790  146.9470 O   0  0  0  0  0  1  0  0  0  0  0  0
  187.9590  177.1450  145.6390 C   0  0  1  0  0  3  0  0  0  0  0  0
  188.7700  175.8910  145.3150 C   0  0  0  0  0  2  0  0  0  0  0  0
  190.1710  176.0130  145.7110 N   0  0  0  0  0  0  0  0  0  0  0  0
  191.4870  176.9560  148.2520 O   0  0  0  0  0  1  0  0  0  0  0  0
  190.6250  175.2120  146.8480 C   0  0  0  0  0  2  0  0  0  0  0  0
  192.8990  176.1920  146.5140 C   0  0  0  0  0  0  0  0  0  0  0  0
  190.8090  176.9830  143.6720 O   0  0  0  0  0  0  0  0  0  0  0  0
  192.5170  176.6110  145.2030 N   0  0  0  0  0  2  0  0  0  0  0  0
  194.1160  176.1790  146.8370 O   0  0  0  0  0  0  0  0  0  0  0  0
  191.8550  175.8250  147.5240 C   0  0  1  0  0  3  0  0  0  0  0  0
  191.1470  176.5600  144.8100 C   0  0  0  0  0  0  0  0  0  0  0  0
  186.3350  178.8840  142.3900 O   0  0  0  0  0  0  0  0  0  0  0  0
  186.7790  177.5640  140.3640 C   0  0  0  0  0  2  0  0  0  0  0  0
  186.8060  176.6950  141.5600 N   0  0  0  0  0  0  0  0  0  0  0  0
  187.2290  178.1100  141.6350 C   0  0  2  0  0  0  0  0  0  0  0  0
  188.6020  178.2980  141.8450 O   0  0  0  0  0  1  0  0  0  0  0  0
  187.9320  175.8690  141.4210 N   0  0  0  0  0  2  0  0  0  0  0  0
  187.6190  174.6180  142.0850 C   0  0  0  0  0  2  0  0  0  0  0  0
  189.8810  173.8000  142.8410 N   0  0  0  0  0  2  0  0  0  0  0  0
  188.7660  172.8170  141.0370 O   0  0  0  0  0  0  0  0  0  0  0  0
  188.7670  173.6810  141.9540 C   0  0  0  0  0  0  0  0  0  0  0  0
  191.0400  172.9220  142.7680 C   0  0  0  0  0  2  0  0  0  0  0  0
  191.4490  172.4810  144.1610 C   0  0  2  0  0  3  0  0  0  0  0  0
  192.8520  172.4040  144.2210 O   0  0  0  0  0  0  0  0  0  0  0  0
  192.1590  171.1880  144.0890 C   0  0  0  0  0  2  0  0  0  0  0  0
  1  2  1  1  0  0  0
  1  4  1  0  0  0  0
  4  3  2  0  0  0  0
  4  6  1  0  0  0  0
  6  8  1  0  0  0  0
  6  5  1  1  0  0  0
  8  7  1  1  0  0  0
  9  8  1  0  0  0  0
  9 10  1  0  0  0  0
 10 12  1  0  0  0  0
 12 17  1  0  0  0  0
 13 16  2  0  0  0  0
 13 17  1  0  0  0  0
 14 18  2  0  0  0  0
 15 13  1  0  0  0  0
 17 11  1  6  0  0  0
 18 15  1  0  0  0  0
 18 10  1  0  0  0  0
 19  1  1  0  0  0  0
 20 21  1  0  0  0  0
 20 22  1  0  0  0  0
 21 22  1  0  0  0  0
 22 23  1  1  0  0  0
 22 19  1  0  0  0  0
 24 21  1  0  0  0  0
 24 25  1  0  0  0  0
 27 28  2  0  0  0  0
 28 25  1  0  0  0  0
 28 26  1  0  0  0  0
 29 26  1  0  0  0  0
 30 29  1  6  0  0  0
 30 31  1  0  0  0  0
 32 30  1  0  0  0  0
 32 31  1  0  0  0  0
M  END
>  <MODEL>
2

>  <REMARK>
 VINA RESULT:      -6.3      2.513      5.689
  Name = 
  12 active torsions:
  status: ('A' for Active; 'I' for Inactive)
    1  A    between atoms: N_1  and  C_5
    2  A    between atoms: C_2  and  O_20
    3  A    between atoms: C_2  and  C_27
    4  A    between atoms: C_4  and  C_30
    5  A    between atoms: C_5  and  C_22
    6  A    between atoms: N_7  and  N_11
    7  A    between atoms: N_7  and  C_31
    8  A    between atoms: N_9  and  C_30
    9  A    between atoms: C_14  and  O_20
   10  A    between atoms: C_19  and  C_22
   11  A    between atoms: C_19  and  C_27
   12  A    between atoms: C_28  and  C_31
                            x       y       z     vdW  Elec       q    Type
                         _______ _______ _______ _____ _____    ______ ____

>  <TORSDO>
F 12

$$$$
=
 OpenBabel11062419083D

 32 34  0  0  1  0  0  0  0  0999 V2000
  185.5480  178.2230  143.6170 C   0  0  2  0  0  3  0  0  0  0  0  0
  184.0930  178.6590  143.6400 C   0  0  0  0  0  1  0  0  0  0  0  0
  185.7270  179.0900  145.8900 C   0  0  0  0  0  2  0  0  0  0  0  0
  186.1020  178.1630  145.0080 C   0  0  0  0  0  0  0  0  0  0  0  0
  186.6080  176.5370  146.6770 O   0  0  0  0  0  1  0  0  0  0  0  0
  186.9850  177.0170  145.4200 C   0  0  2  0  0  3  0  0  0  0  0  0
  188.9620  177.6240  146.6820 O   0  0  0  0  0  1  0  0  0  0  0  0
  188.4640  177.4090  145.3940 C   0  0  1  0  0  3  0  0  0  0  0  0
  189.3210  176.4020  144.6260 C   0  0  0  0  0  2  0  0  0  0  0  0
  190.6790  176.3070  145.1530 N   0  0  0  0  0  0  0  0  0  0  0  0
  191.7660  176.2380  147.9630 O   0  0  0  0  0  1  0  0  0  0  0  0
  191.0090  175.1390  145.9690 C   0  0  0  0  0  2  0  0  0  0  0  0
  193.3220  176.0560  146.1910 C   0  0  0  0  0  0  0  0  0  0  0  0
  191.5270  177.8940  143.6460 O   0  0  0  0  0  0  0  0  0  0  0  0
  193.0740  176.9250  145.0830 N   0  0  0  0  0  2  0  0  0  0  0  0
  194.5020  175.8700  146.5870 O   0  0  0  0  0  0  0  0  0  0  0  0
  192.1800  175.4140  146.9170 C   0  0  1  0  0  3  0  0  0  0  0  0
  191.7470  177.0840  144.5860 C   0  0  0  0  0  0  0  0  0  0  0  0
  186.2980  179.1130  142.8370 O   0  0  0  0  0  0  0  0  0  0  0  0
  186.3060  177.9360  140.6780 C   0  0  0  0  0  2  0  0  0  0  0  0
  186.4310  176.9700  141.7910 N   0  0  0  0  0  0  0  0  0  0  0  0
  186.9910  178.3340  141.8980 C   0  0  2  0  0  0  0  0  0  0  0  0
  188.3920  178.3910  141.9010 O   0  0  0  0  0  1  0  0  0  0  0  0
  187.4400  176.0700  141.4180 N   0  0  0  0  0  2  0  0  0  0  0  0
  187.3180  174.9170  142.2920 C   0  0  0  0  0  2  0  0  0  0  0  0
  189.2770  174.1170  140.9210 N   0  0  0  0  0  2  0  0  0  0  0  0
  187.9250  172.6250  142.1080 O   0  0  0  0  0  0  0  0  0  0  0  0
  188.1840  173.8170  141.7920 C   0  0  0  0  0  0  0  0  0  0  0  0
  190.1630  173.0930  140.3900 C   0  0  0  0  0  2  0  0  0  0  0  0
  189.9120  172.9020  138.9060 C   0  0  2  0  0  3  0  0  0  0  0  0
  188.6200  172.3780  138.7250 O   0  0  0  0  0  0  0  0  0  0  0  0
  189.6890  171.4720  138.6140 C   0  0  0  0  0  2  0  0  0  0  0  0
  1  2  1  1  0  0  0
  1  4  1  0  0  0  0
  4  6  1  0  0  0  0
  4  3  2  0  0  0  0
  6  5  1  1  0  0  0
  8  6  1  0  0  0  0
  8  7  1  1  0  0  0
  9 10  1  0  0  0  0
  9  8  1  0  0  0  0
 10 12  1  0  0  0  0
 12 17  1  0  0  0  0
 13 16  2  0  0  0  0
 13 17  1  0  0  0  0
 14 18  2  0  0  0  0
 15 13  1  0  0  0  0
 17 11  1  1  0  0  0
 18 15  1  0  0  0  0
 18 10  1  0  0  0  0
 19  1  1  0  0  0  0
 20 21  1  0  0  0  0
 20 22  1  0  0  0  0
 21 22  1  0  0  0  0
 22 23  1  6  0  0  0
 22 19  1  0  0  0  0
 24 21  1  0  0  0  0
 24 25  1  0  0  0  0
 26 28  1  0  0  0  0
 28 27  2  0  0  0  0
 28 25  1  0  0  0  0
 29 26  1  0  0  0  0
 30 29  1  1  0  0  0
 31 30  1  0  0  0  0
 32 31  1  0  0  0  0
 32 30  1  0  0  0  0
M  END
>  <MODEL>
3

>  <REMARK>
 VINA RESULT:      -6.3      2.833      5.143
  Name = 
  12 active torsions:
  status: ('A' for Active; 'I' for Inactive)
    1  A    between atoms: N_1  and  C_5
    2  A    between atoms: C_2  and  O_20
    3  A    between atoms: C_2  and  C_27
    4  A    between atoms: C_4  and  C_30
    5  A    between atoms: C_5  and  C_22
    6  A    between atoms: N_7  and  N_11
    7  A    between atoms: N_7  and  C_31
    8  A    between atoms: N_9  and  C_30
    9  A    between atoms: C_14  and  O_20
   10  A    between atoms: C_19  and  C_22
   11  A    between atoms: C_19  and  C_27
   12  A    between atoms: C_28  and  C_31
                            x       y       z     vdW  Elec       q    Type
                         _______ _______ _______ _____ _____    ______ ____

>  <TORSDO>
F 12

$$$$
=
 OpenBabel11062419083D

 32 34  0  0  1  0  0  0  0  0999 V2000
  191.3890  176.1700  144.9180 C   0  0  2  0  0  3  0  0  0  0  0  0
  190.9370  175.2020  143.8390 C   0  0  0  0  0  1  0  0  0  0  0  0
  190.0290  178.0490  144.1620 C   0  0  0  0  0  2  0  0  0  0  0  0
  190.3460  177.2180  145.1570 C   0  0  0  0  0  0  0  0  0  0  0  0
  190.4480  176.8990  147.5180 O   0  0  0  0  0  1  0  0  0  0  0  0
  189.6030  177.2610  146.4640 C   0  0  2  0  0  3  0  0  0  0  0  0
  188.5540  175.1680  147.0900 O   0  0  0  0  0  1  0  0  0  0  0  0
  188.3500  176.3830  146.4290 C   0  0  1  0  0  3  0  0  0  0  0  0
  187.1150  177.1080  146.9630 C   0  0  0  0  0  2  0  0  0  0  0  0
  186.2000  177.5120  145.9000 N   0  0  0  0  0  0  0  0  0  0  0  0
  186.6640  178.6400  143.1440 O   0  0  0  0  0  1  0  0  0  0  0  0
  186.2810  176.7940  144.6280 C   0  0  0  0  0  2  0  0  0  0  0  0
  184.4250  178.2430  143.7940 C   0  0  0  0  0  0  0  0  0  0  0  0
  184.7710  178.6550  147.3690 O   0  0  0  0  0  0  0  0  0  0  0  0
  184.1170  178.6090  145.1410 N   0  0  0  0  0  2  0  0  0  0  0  0
  183.5950  178.4790  142.8770 O   0  0  0  0  0  0  0  0  0  0  0  0
  185.7520  177.6340  143.4620 C   0  0  1  0  0  3  0  0  0  0  0  0
  185.0220  178.2800  146.1930 C   0  0  0  0  0  0  0  0  0  0  0  0
  192.5980  176.7710  144.5420 O   0  0  0  0  0  0  0  0  0  0  0  0
  194.6020  177.3450  145.8470 C   0  0  0  0  0  2  0  0  0  0  0  0
  194.8900  176.2220  144.9280 N   0  0  0  0  0  0  0  0  0  0  0  0
  193.5440  176.4050  145.5110 C   0  0  2  0  0  0  0  0  0  0  0  0
  193.1790  175.4310  146.4520 O   0  0  0  0  0  1  0  0  0  0  0  0
  195.6090  175.2770  145.6760 N   0  0  0  0  0  2  0  0  0  0  0  0
  196.1780  174.3370  144.7280 C   0  0  0  0  0  2  0  0  0  0  0  0
  196.7920  171.8930  144.8080 N   0  0  0  0  0  2  0  0  0  0  0  0
  197.1030  173.2920  146.6540 O   0  0  0  0  0  0  0  0  0  0  0  0
  196.7300  173.1640  145.4570 C   0  0  0  0  0  0  0  0  0  0  0  0
  197.3150  170.7020  145.4600 C   0  0  0  0  0  2  0  0  0  0  0  0
  196.2400  169.6350  145.5410 C   0  0  2  0  0  3  0  0  0  0  0  0
  195.2110  170.0870  146.3860 O   0  0  0  0  0  0  0  0  0  0  0  0
  196.1120  169.1560  146.9320 C   0  0  0  0  0  2  0  0  0  0  0  0
  1  2  1  6  0  0  0
  1  4  1  0  0  0  0
  3  4  2  0  0  0  0
  4  6  1  0  0  0  0
  6  5  1  1  0  0  0
  8  6  1  0  0  0  0
  8  9  1  0  0  0  0
  8  7  1  1  0  0  0
 10 18  1  0  0  0  0
 10  9  1  0  0  0  0
 12 10  1  0  0  0  0
 13 15  1  0  0  0  0
 15 18  1  0  0  0  0
 16 13  2  0  0  0  0
 17 11  1  1  0  0  0
 17 13  1  0  0  0  0
 17 12  1  0  0  0  0
 18 14  2  0  0  0  0
 19  1  1  0  0  0  0
 19 22  1  0  0  0  0
 21 22  1  0  0  0  0
 21 24  1  0  0  0  0
 21 20  1  0  0  0  0
 22 20  1  0  0  0  0
 22 23  1  1  0  0  0
 25 28  1  0  0  0  0
 25 24  1  0  0  0  0
 26 28  1  0  0  0  0
 26 29  1  0  0  0  0
 28 27  2  0  0  0  0
 30 29  1  1  0  0  0
 30 31  1  0  0  0  0
 30 32  1  0  0  0  0
 31 32  1  0  0  0  0
M  END
>  <MODEL>
4

>  <REMARK>
 VINA RESULT:      -6.2      2.688      9.637
  Name = 
  12 active torsions:
  status: ('A' for Active; 'I' for Inactive)
    1  A    between atoms: N_1  and  C_5
    2  A    between atoms: C_2  and  O_20
    3  A    between atoms: C_2  and  C_27
    4  A    between atoms: C_4  and  C_30
    5  A    between atoms: C_5  and  C_22
    6  A    between atoms: N_7  and  N_11
    7  A    between atoms: N_7  and  C_31
    8  A    between atoms: N_9  and  C_30
    9  A    between atoms: C_14  and  O_20
   10  A    between atoms: C_19  and  C_22
   11  A    between atoms: C_19  and  C_27
   12  A    between atoms: C_28  and  C_31
                            x       y       z     vdW  Elec       q    Type
                         _______ _______ _______ _____ _____    ______ ____

>  <TORSDO>
F 12

$$$$
=
 OpenBabel11062419083D

 32 34  0  0  1  0  0  0  0  0999 V2000
  190.7300  172.9780  142.8580 C   0  0  2  0  0  3  0  0  0  0  0  0
  190.6620  171.4620  142.9270 C   0  0  0  0  0  1  0  0  0  0  0  0
  192.3610  172.6980  144.6500 C   0  0  0  0  0  2  0  0  0  0  0  0
  191.8470  173.4940  143.7110 C   0  0  0  0  0  0  0  0  0  0  0  0
  193.4020  174.7710  142.4300 O   0  0  0  0  0  1  0  0  0  0  0  0
  192.4390  174.8500  143.4410 C   0  0  2  0  0  3  0  0  0  0  0  0
  194.4080  175.5910  144.6440 O   0  0  0  0  0  1  0  0  0  0  0  0
  193.0170  175.4760  144.7120 C   0  0  1  0  0  3  0  0  0  0  0  0
  192.3640  176.8150  145.0520 C   0  0  0  0  0  2  0  0  0  0  0  0
  190.9790  176.6670  145.4900 N   0  0  0  0  0  0  0  0  0  0  0  0
  189.3880  174.2810  146.4160 O   0  0  0  0  0  1  0  0  0  0  0  0
  190.7480  176.2070  146.8600 C   0  0  0  0  0  2  0  0  0  0  0  0
  188.2970  176.3800  146.4100 C   0  0  0  0  0  0  0  0  0  0  0  0
  190.1350  177.9870  143.7430 O   0  0  0  0  0  0  0  0  0  0  0  0
  188.5730  177.1960  145.2690 N   0  0  0  0  0  2  0  0  0  0  0  0
  187.1280  176.3300  146.8750 O   0  0  0  0  0  0  0  0  0  0  0  0
  189.3790  175.5400  147.0160 C   0  0  1  0  0  3  0  0  0  0  0  0
  189.9080  177.3110  144.7810 C   0  0  0  0  0  0  0  0  0  0  0  0
  189.5110  173.5280  143.2740 O   0  0  0  0  0  0  0  0  0  0  0  0
  189.5590  174.2400  140.9210 C   0  0  0  0  0  2  0  0  0  0  0  0
  188.9610  175.2960  141.7660 N   0  0  0  0  0  0  0  0  0  0  0  0
  188.8070  173.8670  142.1090 C   0  0  2  0  0  0  0  0  0  0  0  0
  187.5050  173.3680  141.9580 O   0  0  0  0  0  1  0  0  0  0  0  0
  187.8210  175.7480  141.0840 N   0  0  0  0  0  2  0  0  0  0  0  0
  187.5560  177.0940  141.5560 C   0  0  0  0  0  2  0  0  0  0  0  0
  185.4950  178.2550  142.4290 N   0  0  0  0  0  2  0  0  0  0  0  0
  186.0580  176.0910  143.1070 O   0  0  0  0  0  0  0  0  0  0  0  0
  186.3300  177.0960  142.3980 C   0  0  0  0  0  0  0  0  0  0  0  0
  184.2830  178.3290  143.2320 C   0  0  0  0  0  2  0  0  0  0  0  0
  184.4570  179.3440  144.3460 C   0  0  2  0  0  3  0  0  0  0  0  0
  185.5050  178.9260  145.1850 O   0  0  0  0  0  0  0  0  0  0  0  0
  184.1980  178.7040  145.6520 C   0  0  0  0  0  2  0  0  0  0  0  0
  1  2  1  1  0  0  0
  1 19  1  0  0  0  0
  1  4  1  0  0  0  0
  4  3  2  0  0  0  0
  6  5  1  6  0  0  0
  6  4  1  0  0  0  0
  6  8  1  0  0  0  0
  8  7  1  6  0  0  0
  8  9  1  0  0  0  0
  9 10  1  0  0  0  0
 10 12  1  0  0  0  0
 12 17  1  0  0  0  0
 13 16  2  0  0  0  0
 13 17  1  0  0  0  0
 14 18  2  0  0  0  0
 15 13  1  0  0  0  0
 17 11  1  6  0  0  0
 18 15  1  0  0  0  0
 18 10  1  0  0  0  0
 20 21  1  0  0  0  0
 20 22  1  0  0  0  0
 21 22  1  0  0  0  0
 22 23  1  6  0  0  0
 22 19  1  0  0  0  0
 24 25  1  0  0  0  0
 24 21  1  0  0  0  0
 25 28  1  0  0  0  0
 26 29  1  0  0  0  0
 28 26  1  0  0  0  0
 28 27  2  0  0  0  0
 30 29  1  6  0  0  0
 30 31  1  0  0  0  0
 30 32  1  0  0  0  0
 31 32  1  0  0  0  0
M  END
>  <MODEL>
5

>  <REMARK>
 VINA RESULT:      -6.2      2.392      5.277
  Name = 
  12 active torsions:
  status: ('A' for Active; 'I' for Inactive)
    1  A    between atoms: N_1  and  C_5
    2  A    between atoms: C_2  and  O_20
    3  A    between atoms: C_2  and  C_27
    4  A    between atoms: C_4  and  C_30
    5  A    between atoms: C_5  and  C_22
    6  A    between atoms: N_7  and  N_11
    7  A    between atoms: N_7  and  C_31
    8  A    between atoms: N_9  and  C_30
    9  A    between atoms: C_14  and  O_20
   10  A    between atoms: C_19  and  C_22
   11  A    between atoms: C_19  and  C_27
   12  A    between atoms: C_28  and  C_31
                            x       y       z     vdW  Elec       q    Type
                         _______ _______ _______ _____ _____    ______ ____

>  <TORSDO>
F 12

$$$$
=
 OpenBabel11062419083D

 32 34  0  0  1  0  0  0  0  0999 V2000
  185.5540  178.2560  141.7210 C   0  0  2  0  0  3  0  0  0  0  0  0
  184.6790  178.5250  140.5090 C   0  0  0  0  0  1  0  0  0  0  0  0
  187.0550  177.2660  140.0730 C   0  0  0  0  0  2  0  0  0  0  0  0
  186.7020  177.3670  141.3560 C   0  0  0  0  0  0  0  0  0  0  0  0
  188.2130  177.6210  143.1840 O   0  0  0  0  0  1  0  0  0  0  0  0
  187.4990  176.6830  142.4320 C   0  0  2  0  0  3  0  0  0  0  0  0
  189.7160  175.7040  142.3850 O   0  0  0  0  0  1  0  0  0  0  0  0
  188.4270  175.6130  141.8510 C   0  0  1  0  0  3  0  0  0  0  0  0
  187.8590  174.2030  142.0050 C   0  0  0  0  0  2  0  0  0  0  0  0
  188.7430  173.1800  141.4520 N   0  0  0  0  0  0  0  0  0  0  0  0
  191.5740  172.3780  142.1030 O   0  0  0  0  0  1  0  0  0  0  0  0
  189.2020  172.1230  142.3530 C   0  0  0  0  0  2  0  0  0  0  0  0
  190.4530  171.1450  140.4250 C   0  0  0  0  0  0  0  0  0  0  0  0
  188.1920  173.7020  139.2310 O   0  0  0  0  0  0  0  0  0  0  0  0
  189.6670  171.9310  139.5270 N   0  0  0  0  0  2  0  0  0  0  0  0
  191.1330  170.1830  139.9820 O   0  0  0  0  0  0  0  0  0  0  0  0
  190.5170  171.4970  141.8790 C   0  0  1  0  0  3  0  0  0  0  0  0
  188.8400  172.9770  140.0330 C   0  0  0  0  0  0  0  0  0  0  0  0
  184.7890  177.6640  142.7360 O   0  0  0  0  0  0  0  0  0  0  0  0
  185.5690  179.6360  143.9820 C   0  0  0  0  0  2  0  0  0  0  0  0
  185.3250  178.5070  144.9060 N   0  0  0  0  0  0  0  0  0  0  0  0
  184.5230  178.6720  143.6750 C   0  0  2  0  0  0  0  0  0  0  0  0
  183.1850  179.0310  143.8940 O   0  0  0  0  0  1  0  0  0  0  0  0
  184.6290  179.0390  146.0020 N   0  0  0  0  0  2  0  0  0  0  0  0
  184.8970  178.1670  147.1310 C   0  0  0  0  0  2  0  0  0  0  0  0
  187.0780  176.9660  146.7320 N   0  0  0  0  0  2  0  0  0  0  0  0
  186.9640  178.8820  148.0650 O   0  0  0  0  0  0  0  0  0  0  0  0
  186.3660  178.0490  147.3340 C   0  0  0  0  0  0  0  0  0  0  0  0
  188.5130  176.7850  146.8900 C   0  0  0  0  0  2  0  0  0  0  0  0
  188.9120  175.3820  146.4710 C   0  0  2  0  0  3  0  0  0  0  0  0
  188.9410  174.5580  147.6100 O   0  0  0  0  0  0  0  0  0  0  0  0
  190.1820  175.0060  147.1250 C   0  0  0  0  0  2  0  0  0  0  0  0
  1  2  1  6  0  0  0
  1 19  1  0  0  0  0
  3  4  2  0  0  0  0
  4  1  1  0  0  0  0
  4  6  1  0  0  0  0
  6  5  1  6  0  0  0
  8  9  1  0  0  0  0
  8  7  1  1  0  0  0
  8  6  1  0  0  0  0
 10  9  1  0  0  0  0
 10 12  1  0  0  0  0
 13 17  1  0  0  0  0
 14 18  2  0  0  0  0
 15 18  1  0  0  0  0
 15 13  1  0  0  0  0
 16 13  2  0  0  0  0
 17 11  1  6  0  0  0
 17 12  1  0  0  0  0
 18 10  1  0  0  0  0
 19 22  1  0  0  0  0
 20 21  1  0  0  0  0
 21 24  1  0  0  0  0
 22 23  1  1  0  0  0
 22 20  1  0  0  0  0
 22 21  1  0  0  0  0
 24 25  1  0  0  0  0
 25 28  1  0  0  0  0
 26 29  1  0  0  0  0
 26 28  1  0  0  0  0
 28 27  2  0  0  0  0
 30 29  1  1  0  0  0
 30 32  1  0  0  0  0
 30 31  1  0  0  0  0
 32 31  1  0  0  0  0
M  END
>  <MODEL>
6

>  <REMARK>
 VINA RESULT:      -6.1      3.309      5.735
  Name = 
  12 active torsions:
  status: ('A' for Active; 'I' for Inactive)
    1  A    between atoms: N_1  and  C_5
    2  A    between atoms: C_2  and  O_20
    3  A    between atoms: C_2  and  C_27
    4  A    between atoms: C_4  and  C_30
    5  A    between atoms: C_5  and  C_22
    6  A    between atoms: N_7  and  N_11
    7  A    between atoms: N_7  and  C_31
    8  A    between atoms: N_9  and  C_30
    9  A    between atoms: C_14  and  O_20
   10  A    between atoms: C_19  and  C_22
   11  A    between atoms: C_19  and  C_27
   12  A    between atoms: C_28  and  C_31
                            x       y       z     vdW  Elec       q    Type
                         _______ _______ _______ _____ _____    ______ ____

>  <TORSDO>
F 12

$$$$
=
 OpenBabel11062419083D

 32 34  0  0  1  0  0  0  0  0999 V2000
  187.1100  177.9920  146.7730 C   0  0  2  0  0  3  0  0  0  0  0  0
  186.7160  178.7060  148.0540 C   0  0  0  0  0  1  0  0  0  0  0  0
  185.2080  176.5330  146.3250 C   0  0  0  0  0  2  0  0  0  0  0  0
  185.8940  177.6230  145.9800 C   0  0  0  0  0  0  0  0  0  0  0  0
  184.1440  179.0380  145.1910 O   0  0  0  0  0  1  0  0  0  0  0  0
  185.4070  178.5270  144.8800 C   0  0  2  0  0  3  0  0  0  0  0  0
  184.2090  178.0340  142.8330 O   0  0  0  0  0  1  0  0  0  0  0  0
  185.4010  177.8130  143.5270 C   0  0  1  0  0  3  0  0  0  0  0  0
  186.6170  178.1730  142.6730 C   0  0  0  0  0  2  0  0  0  0  0  0
  187.1930  177.0110  142.0020 N   0  0  0  0  0  0  0  0  0  0  0  0
  189.8590  175.6300  142.2670 O   0  0  0  0  0  1  0  0  0  0  0  0
  187.5370  175.8540  142.8280 C   0  0  0  0  0  2  0  0  0  0  0  0
  188.3010  174.7060  140.7460 C   0  0  0  0  0  0  0  0  0  0  0  0
  186.4800  177.7060  139.8770 O   0  0  0  0  0  0  0  0  0  0  0  0
  187.5840  175.6640  139.9650 N   0  0  0  0  0  2  0  0  0  0  0  0
  188.7060  173.6410  140.2110 O   0  0  0  0  0  0  0  0  0  0  0  0
  188.6230  174.9900  142.1810 C   0  0  1  0  0  3  0  0  0  0  0  0
  187.0630  176.8390  140.5820 C   0  0  0  0  0  0  0  0  0  0  0  0
  187.8530  176.8430  147.0790 O   0  0  0  0  0  0  0  0  0  0  0  0
  189.4190  177.6430  145.3590 C   0  0  0  0  0  2  0  0  0  0  0  0
  189.6260  176.2010  145.6130 N   0  0  0  0  0  0  0  0  0  0  0  0
  189.1750  177.1080  146.6900 C   0  0  2  0  0  0  0  0  0  0  0  0
  190.1240  177.3350  147.6970 O   0  0  0  0  0  1  0  0  0  0  0  0
  191.0130  176.0120  145.7000 N   0  0  0  0  0  2  0  0  0  0  0  0
  191.2580  174.5960  145.4960 C   0  0  0  0  0  2  0  0  0  0  0  0
  192.9860  175.0640  143.7210 N   0  0  0  0  0  2  0  0  0  0  0  0
  193.4270  173.6220  145.5070 O   0  0  0  0  0  0  0  0  0  0  0  0
  192.6200  174.4000  144.9330 C   0  0  0  0  0  0  0  0  0  0  0  0
  194.2990  174.9160  143.1110 C   0  0  0  0  0  2  0  0  0  0  0  0
  195.1570  176.1290  143.4180 C   0  0  2  0  0  3  0  0  0  0  0  0
  196.2790  176.1200  142.5710 O   0  0  0  0  0  0  0  0  0  0  0  0
  196.4860  175.6950  143.8950 C   0  0  0  0  0  2  0  0  0  0  0  0
  1 19  1  0  0  0  0
  1  2  1  1  0  0  0
  4  3  2  0  0  0  0
  4  1  1  0  0  0  0
  6  5  1  1  0  0  0
  6  4  1  0  0  0  0
  8  7  1  6  0  0  0
  8  6  1  0  0  0  0
  9  8  1  0  0  0  0
 10  9  1  0  0  0  0
 10 12  1  0  0  0  0
 13 17  1  0  0  0  0
 14 18  2  0  0  0  0
 15 18  1  0  0  0  0
 15 13  1  0  0  0  0
 16 13  2  0  0  0  0
 17 11  1  6  0  0  0
 17 12  1  0  0  0  0
 18 10  1  0  0  0  0
 20 21  1  0  0  0  0
 20 22  1  0  0  0  0
 21 24  1  0  0  0  0
 21 22  1  0  0  0  0
 22 19  1  0  0  0  0
 22 23  1  1  0  0  0
 25 24  1  0  0  0  0
 26 28  1  0  0  0  0
 28 25  1  0  0  0  0
 28 27  2  0  0  0  0
 29 26  1  0  0  0  0
 30 29  1  6  0  0  0
 30 32  1  0  0  0  0
 31 30  1  0  0  0  0
 31 32  1  0  0  0  0
M  END
>  <MODEL>
7

>  <REMARK>
 VINA RESULT:      -6.0      2.225      6.992
  Name = 
  12 active torsions:
  status: ('A' for Active; 'I' for Inactive)
    1  A    between atoms: N_1  and  C_5
    2  A    between atoms: C_2  and  O_20
    3  A    between atoms: C_2  and  C_27
    4  A    between atoms: C_4  and  C_30
    5  A    between atoms: C_5  and  C_22
    6  A    between atoms: N_7  and  N_11
    7  A    between atoms: N_7  and  C_31
    8  A    between atoms: N_9  and  C_30
    9  A    between atoms: C_14  and  O_20
   10  A    between atoms: C_19  and  C_22
   11  A    between atoms: C_19  and  C_27
   12  A    between atoms: C_28  and  C_31
                            x       y       z     vdW  Elec       q    Type
                         _______ _______ _______ _____ _____    ______ ____

>  <TORSDO>
F 12

$$$$
=
 OpenBabel11062419083D

 32 34  0  0  1  0  0  0  0  0999 V2000
  188.6780  176.1220  145.0730 C   0  0  2  0  0  3  0  0  0  0  0  0
  188.8480  177.4120  145.8550 C   0  0  0  0  0  1  0  0  0  0  0  0
  189.2000  174.7530  147.0230 C   0  0  0  0  0  2  0  0  0  0  0  0
  189.4250  175.0030  145.7320 C   0  0  0  0  0  0  0  0  0  0  0  0
  189.9370  172.7850  145.0220 O   0  0  0  0  0  1  0  0  0  0  0  0
  190.3340  174.1210  144.9210 C   0  0  2  0  0  3  0  0  0  0  0  0
  192.6450  173.4820  144.5720 O   0  0  0  0  0  1  0  0  0  0  0  0
  191.7990  174.2990  145.3270 C   0  0  1  0  0  3  0  0  0  0  0  0
  192.2440  175.7600  145.2770 C   0  0  0  0  0  2  0  0  0  0  0  0
  193.3700  175.9710  144.3710 N   0  0  0  0  0  0  0  0  0  0  0  0
  194.1580  174.6620  141.7740 O   0  0  0  0  0  1  0  0  0  0  0  0
  193.0700  176.4080  143.0070 C   0  0  0  0  0  2  0  0  0  0  0  0
  195.5290  176.4200  142.5650 C   0  0  0  0  0  0  0  0  0  0  0  0
  194.9380  176.0700  146.1150 O   0  0  0  0  0  0  0  0  0  0  0  0
  195.7730  176.4020  143.9720 N   0  0  0  0  0  2  0  0  0  0  0  0
  196.4610  176.7140  141.7720 O   0  0  0  0  0  0  0  0  0  0  0  0
  194.1850  176.0320  142.0270 C   0  0  1  0  0  3  0  0  0  0  0  0
  194.7040  176.1390  144.8780 C   0  0  0  0  0  0  0  0  0  0  0  0
  189.1340  176.2980  143.7600 O   0  0  0  0  0  0  0  0  0  0  0  0
  188.3810  175.3300  141.6280 C   0  0  0  0  0  2  0  0  0  0  0  0
  188.0270  176.7640  141.6950 N   0  0  0  0  0  0  0  0  0  0  0  0
  188.0740  175.9320  142.9160 C   0  0  2  0  0  0  0  0  0  0  0  0
  186.8240  175.6830  143.5010 O   0  0  0  0  0  1  0  0  0  0  0  0
  186.7040  176.8650  141.2390 N   0  0  0  0  0  2  0  0  0  0  0  0
  186.3590  178.2750  141.2620 C   0  0  0  0  0  2  0  0  0  0  0  0
  185.7840  179.0360  143.5960 N   0  0  0  0  0  2  0  0  0  0  0  0
  184.1440  178.2500  142.1280 O   0  0  0  0  0  0  0  0  0  0  0  0
  185.3560  178.5250  142.3320 C   0  0  0  0  0  0  0  0  0  0  0  0
  184.8610  179.3010  144.6890 C   0  0  0  0  0  2  0  0  0  0  0  0
  185.4720  178.8660  146.0070 C   0  0  2  0  0  3  0  0  0  0  0  0
  185.3010  177.4790  146.1540 O   0  0  0  0  0  0  0  0  0  0  0  0
  184.4260  178.3030  146.8840 C   0  0  0  0  0  2  0  0  0  0  0  0
  1  4  1  0  0  0  0
  1  2  1  1  0  0  0
  4  3  2  0  0  0  0
  6  5  1  1  0  0  0
  6  8  1  0  0  0  0
  6  4  1  0  0  0  0
  8  7  1  6  0  0  0
  9  8  1  0  0  0  0
 10 18  1  0  0  0  0
 10  9  1  0  0  0  0
 12 10  1  0  0  0  0
 13 15  1  0  0  0  0
 15 18  1  0  0  0  0
 16 13  2  0  0  0  0
 17 11  1  1  0  0  0
 17 13  1  0  0  0  0
 17 12  1  0  0  0  0
 18 14  2  0  0  0  0
 19  1  1  0  0  0  0
 20 21  1  0  0  0  0
 20 22  1  0  0  0  0
 21 22  1  0  0  0  0
 22 23  1  1  0  0  0
 22 19  1  0  0  0  0
 24 25  1  0  0  0  0
 24 21  1  0  0  0  0
 25 28  1  0  0  0  0
 26 29  1  0  0  0  0
 27 28  2  0  0  0  0
 28 26  1  0  0  0  0
 30 29  1  6  0  0  0
 30 31  1  0  0  0  0
 30 32  1  0  0  0  0
 31 32  1  0  0  0  0
M  END
>  <MODEL>
8

>  <REMARK>
 VINA RESULT:      -6.0      1.962      3.738
  Name = 
  12 active torsions:
  status: ('A' for Active; 'I' for Inactive)
    1  A    between atoms: N_1  and  C_5
    2  A    between atoms: C_2  and  O_20
    3  A    between atoms: C_2  and  C_27
    4  A    between atoms: C_4  and  C_30
    5  A    between atoms: C_5  and  C_22
    6  A    between atoms: N_7  and  N_11
    7  A    between atoms: N_7  and  C_31
    8  A    between atoms: N_9  and  C_30
    9  A    between atoms: C_14  and  O_20
   10  A    between atoms: C_19  and  C_22
   11  A    between atoms: C_19  and  C_27
   12  A    between atoms: C_28  and  C_31
                            x       y       z     vdW  Elec       q    Type
                         _______ _______ _______ _____ _____    ______ ____

>  <TORSDO>
F 12

$$$$
=
 OpenBabel11062419083D

 32 34  0  0  1  0  0  0  0  0999 V2000
  186.2670  178.4540  144.1460 C   0  0  2  0  0  3  0  0  0  0  0  0
  185.4440  179.7080  144.3840 C   0  0  0  0  0  1  0  0  0  0  0  0
  184.7890  177.9190  142.2810 C   0  0  0  0  0  2  0  0  0  0  0  0
  186.0320  177.9240  142.7650 C   0  0  0  0  0  0  0  0  0  0  0  0
  186.8450  177.5310  140.5580 O   0  0  0  0  0  1  0  0  0  0  0  0
  187.1960  177.5020  141.9100 C   0  0  2  0  0  3  0  0  0  0  0  0
  186.6930  175.2910  142.7640 O   0  0  0  0  0  1  0  0  0  0  0  0
  187.7230  176.1240  142.3190 C   0  0  1  0  0  3  0  0  0  0  0  0
  188.5370  175.4600  141.2090 C   0  0  0  0  0  2  0  0  0  0  0  0
  189.3590  174.3580  141.7020 N   0  0  0  0  0  0  0  0  0  0  0  0
  188.7100  171.9290  143.3630 O   0  0  0  0  0  1  0  0  0  0  0  0
  189.0260  173.0080  141.2440 C   0  0  0  0  0  2  0  0  0  0  0  0
  190.9410  172.1690  142.6120 C   0  0  0  0  0  0  0  0  0  0  0  0
  191.0980  175.7740  142.3900 O   0  0  0  0  0  0  0  0  0  0  0  0
  191.4590  173.4980  142.6870 N   0  0  0  0  0  2  0  0  0  0  0  0
  191.6740  171.1940  142.9220 O   0  0  0  0  0  0  0  0  0  0  0  0
  189.5130  171.9360  142.2230 C   0  0  1  0  0  3  0  0  0  0  0  0
  190.6560  174.6010  142.2700 C   0  0  0  0  0  0  0  0  0  0  0  0
  185.9350  177.4800  145.0990 O   0  0  0  0  0  0  0  0  0  0  0  0
  188.3170  177.7210  145.6600 C   0  0  0  0  0  2  0  0  0  0  0  0
  187.8450  176.3590  145.9920 N   0  0  0  0  0  0  0  0  0  0  0  0
  186.9380  177.5240  146.0790 C   0  0  2  0  0  0  0  0  0  0  0  0
  186.5680  177.8790  147.3840 O   0  0  0  0  0  1  0  0  0  0  0  0
  188.3620  176.0640  147.2630 N   0  0  0  0  0  2  0  0  0  0  0  0
  189.0420  174.7860  147.1520 C   0  0  0  0  0  2  0  0  0  0  0  0
  191.2680  174.7540  145.9680 N   0  0  0  0  0  2  0  0  0  0  0  0
  191.0880  175.3660  148.2170 O   0  0  0  0  0  0  0  0  0  0  0  0
  190.5140  175.0030  147.1560 C   0  0  0  0  0  0  0  0  0  0  0  0
  192.7100  174.9410  145.9000 C   0  0  0  0  0  2  0  0  0  0  0  0
  193.0370  176.4030  145.6620 C   0  0  2  0  0  3  0  0  0  0  0  0
  194.3380  176.5000  145.1370 O   0  0  0  0  0  0  0  0  0  0  0  0
  194.1850  176.8030  146.5010 C   0  0  0  0  0  2  0  0  0  0  0  0
  1  2  1  1  0  0  0
  1 19  1  0  0  0  0
  3  4  2  0  0  0  0
  4  1  1  0  0  0  0
  6  5  1  6  0  0  0
  6  8  1  0  0  0  0
  6  4  1  0  0  0  0
  8  7  1  6  0  0  0
  9 10  1  0  0  0  0
  9  8  1  0  0  0  0
 10 18  1  0  0  0  0
 12 10  1  0  0  0  0
 12 17  1  0  0  0  0
 13 15  1  0  0  0  0
 13 16  2  0  0  0  0
 17 13  1  0  0  0  0
 17 11  1  1  0  0  0
 18 14  2  0  0  0  0
 18 15  1  0  0  0  0
 19 22  1  0  0  0  0
 20 21  1  0  0  0  0
 20 22  1  0  0  0  0
 21 22  1  0  0  0  0
 21 24  1  0  0  0  0
 22 23  1  1  0  0  0
 25 28  1  0  0  0  0
 25 24  1  0  0  0  0
 26 28  1  0  0  0  0
 28 27  2  0  0  0  0
 29 26  1  0  0  0  0
 30 29  1  1  0  0  0
 30 32  1  0  0  0  0
 31 30  1  0  0  0  0
 31 32  1  0  0  0  0
M  END
>  <MODEL>
9

>  <REMARK>
 VINA RESULT:      -6.0      2.484      5.868
  Name = 
  12 active torsions:
  status: ('A' for Active; 'I' for Inactive)
    1  A    between atoms: N_1  and  C_5
    2  A    between atoms: C_2  and  O_20
    3  A    between atoms: C_2  and  C_27
    4  A    between atoms: C_4  and  C_30
    5  A    between atoms: C_5  and  C_22
    6  A    between atoms: N_7  and  N_11
    7  A    between atoms: N_7  and  C_31
    8  A    between atoms: N_9  and  C_30
    9  A    between atoms: C_14  and  O_20
   10  A    between atoms: C_19  and  C_22
   11  A    between atoms: C_19  and  C_27
   12  A    between atoms: C_28  and  C_31
                            x       y       z     vdW  Elec       q    Type
                         _______ _______ _______ _____ _____    ______ ____

>  <TORSDO>
F 12

$$$$
