=
 OpenBabel11062421573D

 35 38  0  0  1  0  0  0  0  0999 V2000
  188.8980  174.8250  142.9360 C   0  0  2  0  0  3  0  0  0  0  0  0
  190.4310  173.1810  143.8130 N   0  0  0  0  0  0  0  0  0  0  0  0
  189.4960  174.0310  144.0600 C   0  0  0  0  0  3  0  0  0  0  0  0
  190.8930  172.9510  142.4580 C   0  0  2  0  0  3  0  0  0  0  0  0
  192.4560  174.8640  141.8600 C   0  0  0  0  0  2  0  0  0  0  0  0
  193.2590  172.8960  140.4440 N   0  0  0  0  0  0  0  0  0  0  0  0
  192.6980  171.9300  141.0950 C   0  0  0  0  0  3  0  0  0  0  0  0
  192.1520  172.0860  142.4800 C   0  0  0  0  0  2  0  0  0  0  0  0
  191.0620  174.2800  141.6700 C   0  0  2  0  0  3  0  0  0  0  0  0
  193.5320  174.2380  140.9480 C   0  0  2  0  0  3  0  0  0  0  0  0
  190.0170  175.3520  142.0320 C   0  0  0  0  0  2  0  0  0  0  0  0
  188.5690  176.8170  144.4040 C   0  0  0  0  0  3  0  0  0  0  0  0
  185.9490  177.1690  143.4900 C   0  0  0  0  0  3  0  0  0  0  0  0
  188.0420  175.9390  143.4500 C   0  0  0  0  0  0  0  0  0  0  0  0
  186.4820  178.0470  144.4400 C   0  0  0  0  0  0  0  0  0  0  0  0
  186.7270  176.1190  142.9930 C   0  0  0  0  0  3  0  0  0  0  0  0
  187.7900  177.8670  144.8990 C   0  0  0  0  0  3  0  0  0  0  0  0
  185.6460  179.1560  144.9810 C   0  0  0  0  0  2  0  0  0  0  0  0
  185.2340  178.8650  146.3850 C   0  0  0  0  0  0  0  0  0  0  0  0
  184.1870  177.9370  146.6440 N   0  0  0  0  0  1  0  0  0  0  0  0
  185.7930  179.4630  147.3420 O   0  0  0  0  0  0  0  0  0  0  0  0
  195.9510  173.3960  140.8500 C   0  0  0  0  0  1  0  0  0  0  0  0
  194.9490  174.3260  141.5250 C   0  0  2  0  0  3  0  0  0  0  0  0
  195.7520  176.3250  143.5240 O   0  0  0  0  0  0  0  0  0  0  0  0
  194.9600  174.1860  142.9800 N   0  0  0  0  0  2  0  0  0  0  0  0
  195.4050  175.1800  143.9160 C   0  0  0  0  0  0  0  0  0  0  0  0
  195.4300  174.8740  145.3780 C   0  0  2  0  0  3  0  0  0  0  0  0
  195.7370  173.4060  145.6270 C   0  0  0  0  0  1  0  0  0  0  0  0
  194.1560  175.2930  146.0450 C   0  0  0  0  0  0  0  0  0  0  0  0
  192.5420  176.6360  147.0960 N   0  0  0  0  0  0  0  0  0  0  0  0
  194.6580  177.5790  146.6300 O   0  0  0  0  0  0  0  0  0  0  0  0
  193.8660  176.6010  146.5950 C   0  0  0  0  0  0  0  0  0  0  0  0
  192.0870  175.4490  146.8540 C   0  0  0  0  0  0  0  0  0  0  0  0
  193.0540  174.5640  146.1870 C   0  0  0  0  0  3  0  0  0  0  0  0
  190.7650  175.0550  147.2010 N   0  0  0  0  0  1  0  0  0  0  0  0
  1 14  1  1  0  0  0
  1  3  1  0  0  0  0
  2  3  2  0  0  0  0
  4  8  1  1  0  0  0
  4  2  1  0  0  0  0
  6 10  1  0  0  0  0
  6  7  2  0  0  0  0
  7  8  1  0  0  0  0
  9  5  1  1  0  0  0
  9 11  1  0  0  0  0
  9  4  1  0  0  0  0
 10 23  1  1  0  0  0
 10  5  1  0  0  0  0
 11  1  1  0  0  0  0
 12 17  1  0  0  0  0
 13 15  1  0  0  0  0
 14 12  2  0  0  0  0
 15 17  2  0  0  0  0
 15 18  1  0  0  0  0
 16 14  1  0  0  0  0
 16 13  2  0  0  0  0
 18 19  1  0  0  0  0
 19 20  1  0  0  0  0
 19 21  2  0  0  0  0
 23 22  1  6  0  0  0
 23 25  1  0  0  0  0
 24 26  2  0  0  0  0
 25 26  1  0  0  0  0
 26 27  1  0  0  0  0
 27 28  1  6  0  0  0
 27 29  1  0  0  0  0
 29 34  2  0  0  0  0
 29 32  1  0  0  0  0
 32 31  2  0  0  0  0
 32 30  1  0  0  0  0
 33 30  2  0  0  0  0
 33 35  1  0  0  0  0
 34 33  1  0  0  0  0
M  END
>  <MODEL>
1

>  <REMARK>
 VINA RESULT:      -7.4      0.000      0.000
  Name = 
  7 active torsions:
  status: ('A' for Active; 'I' for Inactive)
    1  A    between atoms: C_1  and  C_11
    2  A    between atoms: C_2  and  C_33
    3  A    between atoms: C_4  and  C_23
    4  A    between atoms: C_15  and  C_33
    5  A    between atoms: N_21  and  C_34
    6  A    between atoms: C_23  and  C_27
    7  A    between atoms: C_30  and  C_34
                            x       y       z     vdW  Elec       q    Type
                         _______ _______ _______ _____ _____    ______ ____

>  <TORSDO>
F 7

$$$$
=
 OpenBabel11062421573D

 35 38  0  0  1  0  0  0  0  0999 V2000
  190.8760  176.9350  145.1000 C   0  0  2  0  0  3  0  0  0  0  0  0
  192.3320  176.3320  143.2730 N   0  0  0  0  0  0  0  0  0  0  0  0
  191.1340  176.5990  143.6600 C   0  0  0  0  0  3  0  0  0  0  0  0
  193.4460  176.3860  144.1990 C   0  0  2  0  0  3  0  0  0  0  0  0
  193.3970  174.2420  145.5640 C   0  0  0  0  0  2  0  0  0  0  0  0
  195.8540  174.9370  145.5280 N   0  0  0  0  0  0  0  0  0  0  0  0
  195.8240  175.7510  144.5240 C   0  0  0  0  0  3  0  0  0  0  0  0
  194.6950  175.7980  143.5420 C   0  0  0  0  0  2  0  0  0  0  0  0
  193.0950  175.7350  145.5670 C   0  0  2  0  0  3  0  0  0  0  0  0
  194.8760  173.8960  145.8290 C   0  0  2  0  0  3  0  0  0  0  0  0
  191.6320  175.9500  145.9970 C   0  0  0  0  0  2  0  0  0  0  0  0
  188.9550  176.2780  146.5530 C   0  0  0  0  0  3  0  0  0  0  0  0
  187.1290  177.5720  144.8750 C   0  0  0  0  0  3  0  0  0  0  0  0
  189.4120  176.9370  145.4050 C   0  0  0  0  0  0  0  0  0  0  0  0
  186.6780  176.9160  146.0260 C   0  0  0  0  0  0  0  0  0  0  0  0
  188.4920  177.5860  144.5670 C   0  0  0  0  0  3  0  0  0  0  0  0
  187.5920  176.2660  146.8610 C   0  0  0  0  0  3  0  0  0  0  0  0
  185.2220  176.8880  146.3460 C   0  0  0  0  0  2  0  0  0  0  0  0
  184.7190  178.2650  146.6190 C   0  0  0  0  0  0  0  0  0  0  0  0
  183.7980  178.8790  145.7240 N   0  0  0  0  0  1  0  0  0  0  0  0
  185.1310  178.8980  147.6260 O   0  0  0  0  0  0  0  0  0  0  0  0
  196.8110  172.3040  145.2860 C   0  0  0  0  0  1  0  0  0  0  0  0
  195.3080  172.5530  145.2300 C   0  0  2  0  0  3  0  0  0  0  0  0
  193.1220  170.7660  144.4180 O   0  0  0  0  0  0  0  0  0  0  0  0
  194.7660  172.3510  143.8870 N   0  0  0  0  0  2  0  0  0  0  0  0
  193.7230  171.4300  143.5330 C   0  0  0  0  0  0  0  0  0  0  0  0
  193.3150  171.2730  142.1040 C   0  0  2  0  0  3  0  0  0  0  0  0
  194.3630  171.8520  141.1680 C   0  0  0  0  0  1  0  0  0  0  0  0
  191.9620  171.8660  141.8540 C   0  0  0  0  0  0  0  0  0  0  0  0
  189.6350  172.0500  141.6040 N   0  0  0  0  0  0  0  0  0  0  0  0
  190.5620  169.9030  141.9420 O   0  0  0  0  0  0  0  0  0  0  0  0
  190.7060  171.1470  141.8120 C   0  0  0  0  0  0  0  0  0  0  0  0
  190.2130  173.2060  141.5370 C   0  0  0  0  0  0  0  0  0  0  0  0
  191.6740  173.1530  141.6960 C   0  0  0  0  0  3  0  0  0  0  0  0
  189.4840  174.4110  141.3350 N   0  0  0  0  0  1  0  0  0  0  0  0
  1 14  1  6  0  0  0
  1 11  1  0  0  0  0
  2  3  2  0  0  0  0
  2  4  1  0  0  0  0
  3  1  1  0  0  0  0
  4  8  1  6  0  0  0
  4  9  1  0  0  0  0
  5 10  1  0  0  0  0
  6 10  1  0  0  0  0
  7  6  2  0  0  0  0
  8  7  1  0  0  0  0
  9  5  1  6  0  0  0
  9 11  1  0  0  0  0
 10 23  1  6  0  0  0
 12 17  1  0  0  0  0
 13 15  1  0  0  0  0
 14 12  2  0  0  0  0
 15 18  1  0  0  0  0
 15 17  2  0  0  0  0
 16 13  2  0  0  0  0
 16 14  1  0  0  0  0
 18 19  1  0  0  0  0
 19 21  2  0  0  0  0
 20 19  1  0  0  0  0
 23 22  1  6  0  0  0
 25 23  1  0  0  0  0
 26 25  1  0  0  0  0
 26 24  2  0  0  0  0
 27 28  1  6  0  0  0
 27 26  1  0  0  0  0
 29 27  1  0  0  0  0
 30 32  1  0  0  0  0
 32 29  1  0  0  0  0
 32 31  2  0  0  0  0
 33 30  2  0  0  0  0
 33 34  1  0  0  0  0
 34 29  2  0  0  0  0
 35 33  1  0  0  0  0
M  END
>  <MODEL>
2

>  <REMARK>
 VINA RESULT:      -7.4      2.550      4.717
  Name = 
  7 active torsions:
  status: ('A' for Active; 'I' for Inactive)
    1  A    between atoms: C_1  and  C_11
    2  A    between atoms: C_2  and  C_33
    3  A    between atoms: C_4  and  C_23
    4  A    between atoms: C_15  and  C_33
    5  A    between atoms: N_21  and  C_34
    6  A    between atoms: C_23  and  C_27
    7  A    between atoms: C_30  and  C_34
                            x       y       z     vdW  Elec       q    Type
                         _______ _______ _______ _____ _____    ______ ____

>  <TORSDO>
F 7

$$$$
=
 OpenBabel11062421573D

 35 38  0  0  1  0  0  0  0  0999 V2000
  193.9690  174.5420  145.2720 C   0  0  2  0  0  3  0  0  0  0  0  0
  192.1940  175.7790  146.3410 N   0  0  0  0  0  0  0  0  0  0  0  0
  193.0770  174.8470  146.4400 C   0  0  0  0  0  3  0  0  0  0  0  0
  192.0710  176.5660  145.1290 C   0  0  2  0  0  3  0  0  0  0  0  0
  190.7910  175.1590  143.4430 C   0  0  0  0  0  2  0  0  0  0  0  0
  190.2750  177.5770  142.8030 N   0  0  0  0  0  0  0  0  0  0  0  0
  190.6130  178.1600  143.9060 C   0  0  0  0  0  3  0  0  0  0  0  0
  190.8080  177.4230  145.1950 C   0  0  0  0  0  2  0  0  0  0  0  0
  192.1620  175.6830  143.8530 C   0  0  2  0  0  3  0  0  0  0  0  0
  189.9470  176.1650  142.6340 C   0  0  2  0  0  3  0  0  0  0  0  0
  193.1320  174.4950  143.9890 C   0  0  0  0  0  2  0  0  0  0  0  0
  194.0360  172.0480  145.3730 C   0  0  0  0  0  3  0  0  0  0  0  0
  196.7710  172.0580  145.9620 C   0  0  0  0  0  3  0  0  0  0  0  0
  194.7200  173.2640  145.4790 C   0  0  0  0  0  0  0  0  0  0  0  0
  196.0840  170.8440  145.8510 C   0  0  0  0  0  0  0  0  0  0  0  0
  196.0920  173.2650  145.7740 C   0  0  0  0  0  3  0  0  0  0  0  0
  194.7160  170.8410  145.5610 C   0  0  0  0  0  3  0  0  0  0  0  0
  196.8040  169.5570  146.0690 C   0  0  0  0  0  2  0  0  0  0  0  0
  196.3250  168.8920  147.3150 C   0  0  0  0  0  0  0  0  0  0  0  0
  197.2500  168.5440  148.3390 N   0  0  0  0  0  1  0  0  0  0  0  0
  195.1050  168.6120  147.4500 O   0  0  0  0  0  0  0  0  0  0  0  0
  187.9030  174.8120  141.8830 C   0  0  0  0  0  1  0  0  0  0  0  0
  188.4360  175.9370  142.7610 C   0  0  2  0  0  3  0  0  0  0  0  0
  186.1460  176.8820  144.3420 O   0  0  0  0  0  0  0  0  0  0  0  0
  187.6780  177.1760  142.5920 N   0  0  0  0  0  2  0  0  0  0  0  0
  186.5350  177.5730  143.3640 C   0  0  0  0  0  0  0  0  0  0  0  0
  185.8090  178.8370  143.0330 C   0  0  2  0  0  3  0  0  0  0  0  0
  185.4330  179.6000  144.2920 C   0  0  0  0  0  1  0  0  0  0  0  0
  184.6130  178.5700  142.1710 C   0  0  0  0  0  0  0  0  0  0  0  0
  183.3100  178.0050  140.3010 N   0  0  0  0  0  0  0  0  0  0  0  0
  185.6530  178.1630  140.0330 O   0  0  0  0  0  0  0  0  0  0  0  0
  184.6290  178.2390  140.7610 C   0  0  0  0  0  0  0  0  0  0  0  0
  182.5800  178.1750  141.3560 C   0  0  0  0  0  0  0  0  0  0  0  0
  183.3440  178.5240  142.5630 C   0  0  0  0  0  3  0  0  0  0  0  0
  181.1650  178.0270  141.3330 N   0  0  0  0  0  1  0  0  0  0  0  0
  1 14  1  1  0  0  0
  1  3  1  0  0  0  0
  2  3  2  0  0  0  0
  4  8  1  1  0  0  0
  4  2  1  0  0  0  0
  6  7  2  0  0  0  0
  7  8  1  0  0  0  0
  9  5  1  1  0  0  0
  9 11  1  0  0  0  0
  9  4  1  0  0  0  0
 10 23  1  1  0  0  0
 10  6  1  0  0  0  0
 10  5  1  0  0  0  0
 11  1  1  0  0  0  0
 12 14  2  0  0  0  0
 12 17  1  0  0  0  0
 14 16  1  0  0  0  0
 15 13  1  0  0  0  0
 15 18  1  0  0  0  0
 16 13  2  0  0  0  0
 17 15  2  0  0  0  0
 18 19  1  0  0  0  0
 19 21  2  0  0  0  0
 19 20  1  0  0  0  0
 23 22  1  6  0  0  0
 25 23  1  0  0  0  0
 25 26  1  0  0  0  0
 26 24  2  0  0  0  0
 27 26  1  0  0  0  0
 27 28  1  1  0  0  0
 29 34  2  0  0  0  0
 29 27  1  0  0  0  0
 30 32  1  0  0  0  0
 30 33  2  0  0  0  0
 31 32  2  0  0  0  0
 32 29  1  0  0  0  0
 33 34  1  0  0  0  0
 35 33  1  0  0  0  0
M  END
>  <MODEL>
3

>  <REMARK>
 VINA RESULT:      -7.4      3.705      9.669
  Name = 
  7 active torsions:
  status: ('A' for Active; 'I' for Inactive)
    1  A    between atoms: C_1  and  C_11
    2  A    between atoms: C_2  and  C_33
    3  A    between atoms: C_4  and  C_23
    4  A    between atoms: C_15  and  C_33
    5  A    between atoms: N_21  and  C_34
    6  A    between atoms: C_23  and  C_27
    7  A    between atoms: C_30  and  C_34
                            x       y       z     vdW  Elec       q    Type
                         _______ _______ _______ _____ _____    ______ ____

>  <TORSDO>
F 7

$$$$
=
 OpenBabel11062421573D

 35 38  0  0  1  0  0  0  0  0999 V2000
  185.9980  178.4420  142.0220 C   0  0  2  0  0  3  0  0  0  0  0  0
  187.9730  177.2130  141.3790 N   0  0  0  0  0  0  0  0  0  0  0  0
  186.7290  177.4600  141.1540 C   0  0  0  0  0  3  0  0  0  0  0  0
  188.6910  177.8970  142.4360 C   0  0  2  0  0  3  0  0  0  0  0  0
  188.0600  176.7710  144.6260 C   0  0  0  0  0  2  0  0  0  0  0  0
  190.4040  177.7050  145.0230 N   0  0  0  0  0  0  0  0  0  0  0  0
  190.7680  177.8770  143.7940 C   0  0  0  0  0  3  0  0  0  0  0  0
  190.0600  177.2480  142.6350 C   0  0  0  0  0  2  0  0  0  0  0  0
  187.8500  177.9930  143.7400 C   0  0  2  0  0  3  0  0  0  0  0  0
  189.3330  176.8330  145.4950 C   0  0  2  0  0  3  0  0  0  0  0  0
  186.3420  178.1780  143.4920 C   0  0  0  0  0  2  0  0  0  0  0  0
  183.6530  178.6110  142.8620 C   0  0  0  0  0  3  0  0  0  0  0  0
  182.6110  178.0570  140.3250 C   0  0  0  0  0  3  0  0  0  0  0  0
  184.5220  178.3830  141.7890 C   0  0  0  0  0  0  0  0  0  0  0  0
  181.7470  178.2900  141.4010 C   0  0  0  0  0  0  0  0  0  0  0  0
  183.9950  178.1060  140.5170 C   0  0  0  0  0  3  0  0  0  0  0  0
  182.2700  178.5630  142.6690 C   0  0  0  0  0  3  0  0  0  0  0  0
  180.2710  178.2210  141.2000 C   0  0  0  0  0  2  0  0  0  0  0  0
  179.7930  179.3990  140.4200 C   0  0  0  0  0  0  0  0  0  0  0  0
  178.7690  179.2420  139.4460 N   0  0  0  0  0  1  0  0  0  0  0  0
  180.3170  180.5290  140.6030 O   0  0  0  0  0  0  0  0  0  0  0  0
  189.1830  174.8170  147.0700 C   0  0  0  0  0  1  0  0  0  0  0  0
  189.8820  175.4540  145.8750 C   0  0  2  0  0  3  0  0  0  0  0  0
  191.8830  174.1190  144.1870 O   0  0  0  0  0  0  0  0  0  0  0  0
  191.3360  175.4640  146.0280 N   0  0  0  0  0  2  0  0  0  0  0  0
  192.2720  174.7570  145.2010 C   0  0  0  0  0  0  0  0  0  0  0  0
  193.7320  174.7990  145.5170 C   0  0  2  0  0  3  0  0  0  0  0  0
  194.0360  175.8520  146.5700 C   0  0  0  0  0  1  0  0  0  0  0  0
  194.5530  175.0010  144.2800 C   0  0  0  0  0  0  0  0  0  0  0  0
  195.9010  174.5370  142.4150 N   0  0  0  0  0  0  0  0  0  0  0  0
  195.3830  172.7690  143.8940 O   0  0  0  0  0  0  0  0  0  0  0  0
  195.2900  173.9800  143.5640 C   0  0  0  0  0  0  0  0  0  0  0  0
  195.5470  175.7820  142.4480 C   0  0  0  0  0  0  0  0  0  0  0  0
  194.6930  176.1290  143.5930 C   0  0  0  0  0  3  0  0  0  0  0  0
  195.9520  176.7140  141.4530 N   0  0  0  0  0  1  0  0  0  0  0  0
  1 14  1  1  0  0  0
  1 11  1  0  0  0  0
  2  4  1  0  0  0  0
  3  2  2  0  0  0  0
  3  1  1  0  0  0  0
  4  8  1  1  0  0  0
  4  9  1  0  0  0  0
  5 10  1  0  0  0  0
  6 10  1  0  0  0  0
  7  6  2  0  0  0  0
  8  7  1  0  0  0  0
  9 11  1  6  0  0  0
  9  5  1  0  0  0  0
 10 23  1  6  0  0  0
 13 16  2  0  0  0  0
 13 15  1  0  0  0  0
 14 12  2  0  0  0  0
 15 17  2  0  0  0  0
 16 14  1  0  0  0  0
 17 12  1  0  0  0  0
 18 15  1  0  0  0  0
 19 21  2  0  0  0  0
 19 18  1  0  0  0  0
 20 19  1  0  0  0  0
 23 25  1  0  0  0  0
 23 22  1  1  0  0  0
 24 26  2  0  0  0  0
 26 27  1  0  0  0  0
 26 25  1  0  0  0  0
 27 28  1  1  0  0  0
 29 27  1  0  0  0  0
 30 33  2  0  0  0  0
 30 32  1  0  0  0  0
 32 31  2  0  0  0  0
 32 29  1  0  0  0  0
 33 34  1  0  0  0  0
 34 29  2  0  0  0  0
 35 33  1  0  0  0  0
M  END
>  <MODEL>
4

>  <REMARK>
 VINA RESULT:      -7.3      3.688      5.829
  Name = 
  7 active torsions:
  status: ('A' for Active; 'I' for Inactive)
    1  A    between atoms: C_1  and  C_11
    2  A    between atoms: C_2  and  C_33
    3  A    between atoms: C_4  and  C_23
    4  A    between atoms: C_15  and  C_33
    5  A    between atoms: N_21  and  C_34
    6  A    between atoms: C_23  and  C_27
    7  A    between atoms: C_30  and  C_34
                            x       y       z     vdW  Elec       q    Type
                         _______ _______ _______ _____ _____    ______ ____

>  <TORSDO>
F 7

$$$$
=
 OpenBabel11062421573D

 35 38  0  0  1  0  0  0  0  0999 V2000
  186.5010  178.4180  142.3180 C   0  0  2  0  0  3  0  0  0  0  0  0
  188.5980  177.3300  141.8290 N   0  0  0  0  0  0  0  0  0  0  0  0
  187.3860  177.5620  141.4610 C   0  0  0  0  0  3  0  0  0  0  0  0
  189.1350  177.9140  143.0420 C   0  0  2  0  0  3  0  0  0  0  0  0
  188.2670  176.5330  144.9910 C   0  0  0  0  0  2  0  0  0  0  0  0
  190.4900  177.4890  145.8070 N   0  0  0  0  0  0  0  0  0  0  0  0
  191.0090  177.8080  144.6660 C   0  0  0  0  0  3  0  0  0  0  0  0
  190.4930  177.2900  143.3590 C   0  0  0  0  0  2  0  0  0  0  0  0
  188.1220  177.8380  144.2190 C   0  0  2  0  0  3  0  0  0  0  0  0
  189.4070  176.5370  146.0300 C   0  0  2  0  0  3  0  0  0  0  0  0
  186.6540  178.0030  143.7850 C   0  0  0  0  0  2  0  0  0  0  0  0
  184.0580  178.4340  142.8350 C   0  0  0  0  0  3  0  0  0  0  0  0
  183.3950  178.1070  140.1370 C   0  0  0  0  0  3  0  0  0  0  0  0
  185.0740  178.3400  141.8760 C   0  0  0  0  0  0  0  0  0  0  0  0
  182.3830  178.2050  141.0990 C   0  0  0  0  0  0  0  0  0  0  0  0
  184.7360  178.1770  140.5240 C   0  0  0  0  0  3  0  0  0  0  0  0
  182.7170  178.3650  142.4480 C   0  0  0  0  0  3  0  0  0  0  0  0
  180.9530  178.1140  140.6890 C   0  0  0  0  0  2  0  0  0  0  0  0
  180.1730  179.2540  141.2510 C   0  0  0  0  0  0  0  0  0  0  0  0
  179.2790  179.0410  142.3380 N   0  0  0  0  0  1  0  0  0  0  0  0
  180.2820  180.4020  140.7450 O   0  0  0  0  0  0  0  0  0  0  0  0
  190.8610  175.0870  147.5640 C   0  0  0  0  0  1  0  0  0  0  0  0
  189.9620  175.1410  146.3350 C   0  0  2  0  0  3  0  0  0  0  0  0
  189.3780  172.5270  145.1270 O   0  0  0  0  0  0  0  0  0  0  0  0
  190.5920  174.5330  145.1640 N   0  0  0  0  0  2  0  0  0  0  0  0
  190.3010  173.2290  144.6370 C   0  0  0  0  0  0  0  0  0  0  0  0
  191.0750  172.7020  143.4740 C   0  0  2  0  0  3  0  0  0  0  0  0
  192.4480  173.3500  143.3880 C   0  0  0  0  0  1  0  0  0  0  0  0
  190.3110  172.8560  142.1940 C   0  0  0  0  0  0  0  0  0  0  0  0
  189.2640  172.3260  140.1600 N   0  0  0  0  0  0  0  0  0  0  0  0
  190.4960  170.6380  141.2630 O   0  0  0  0  0  0  0  0  0  0  0  0
  190.0680  171.8210  141.2110 C   0  0  0  0  0  0  0  0  0  0  0  0
  189.0450  173.5550  140.5020 C   0  0  0  0  0  0  0  0  0  0  0  0
  189.6710  173.9420  141.7750 C   0  0  0  0  0  3  0  0  0  0  0  0
  188.2600  174.4360  139.7080 N   0  0  0  0  0  1  0  0  0  0  0  0
  1 14  1  6  0  0  0
  1 11  1  0  0  0  0
  2  4  1  0  0  0  0
  3  2  2  0  0  0  0
  3  1  1  0  0  0  0
  4  8  1  1  0  0  0
  4  9  1  0  0  0  0
  5 10  1  0  0  0  0
  6 10  1  0  0  0  0
  7  6  2  0  0  0  0
  8  7  1  0  0  0  0
  9 11  1  6  0  0  0
  9  5  1  0  0  0  0
 10 23  1  6  0  0  0
 13 16  2  0  0  0  0
 13 15  1  0  0  0  0
 14 12  2  0  0  0  0
 15 17  2  0  0  0  0
 16 14  1  0  0  0  0
 17 12  1  0  0  0  0
 18 15  1  0  0  0  0
 18 19  1  0  0  0  0
 19 20  1  0  0  0  0
 21 19  2  0  0  0  0
 23 22  1  1  0  0  0
 25 23  1  0  0  0  0
 26 24  2  0  0  0  0
 26 25  1  0  0  0  0
 27 28  1  6  0  0  0
 27 26  1  0  0  0  0
 29 27  1  0  0  0  0
 30 33  2  0  0  0  0
 30 32  1  0  0  0  0
 32 31  2  0  0  0  0
 32 29  1  0  0  0  0
 33 34  1  0  0  0  0
 34 29  2  0  0  0  0
 35 33  1  0  0  0  0
M  END
>  <MODEL>
5

>  <REMARK>
 VINA RESULT:      -7.1      3.834      6.341
  Name = 
  7 active torsions:
  status: ('A' for Active; 'I' for Inactive)
    1  A    between atoms: C_1  and  C_11
    2  A    between atoms: C_2  and  C_33
    3  A    between atoms: C_4  and  C_23
    4  A    between atoms: C_15  and  C_33
    5  A    between atoms: N_21  and  C_34
    6  A    between atoms: C_23  and  C_27
    7  A    between atoms: C_30  and  C_34
                            x       y       z     vdW  Elec       q    Type
                         _______ _______ _______ _____ _____    ______ ____

>  <TORSDO>
F 7

$$$$
=
 OpenBabel11062421573D

 35 38  0  0  1  0  0  0  0  0999 V2000
  193.8950  174.7630  145.4490 C   0  0  2  0  0  3  0  0  0  0  0  0
  191.8240  175.5280  146.4220 N   0  0  0  0  0  0  0  0  0  0  0  0
  192.8200  174.7150  146.4940 C   0  0  0  0  0  3  0  0  0  0  0  0
  191.7410  176.5150  145.3640 C   0  0  2  0  0  3  0  0  0  0  0  0
  190.9300  175.3160  143.2740 C   0  0  0  0  0  2  0  0  0  0  0  0
  190.1330  177.7260  142.9950 N   0  0  0  0  0  0  0  0  0  0  0  0
  190.2270  178.1190  144.2230 C   0  0  0  0  0  3  0  0  0  0  0  0
  190.3620  177.1730  145.3760 C   0  0  0  0  0  2  0  0  0  0  0  0
  192.1360  175.9200  143.9830 C   0  0  2  0  0  3  0  0  0  0  0  0
  190.0540  176.3440  142.5310 C   0  0  2  0  0  3  0  0  0  0  0  0
  193.2530  174.8630  144.0610 C   0  0  0  0  0  2  0  0  0  0  0  0
  194.2640  172.2940  145.3900 C   0  0  0  0  0  3  0  0  0  0  0  0
  197.0030  172.6040  145.8700 C   0  0  0  0  0  3  0  0  0  0  0  0
  194.8020  173.5770  145.5450 C   0  0  0  0  0  0  0  0  0  0  0  0
  196.4610  171.3230  145.7100 C   0  0  0  0  0  0  0  0  0  0  0  0
  196.1770  173.7280  145.7850 C   0  0  0  0  0  3  0  0  0  0  0  0
  195.0910  171.1710  145.4740 C   0  0  0  0  0  3  0  0  0  0  0  0
  197.3390  170.1230  145.8170 C   0  0  0  0  0  2  0  0  0  0  0  0
  196.6600  169.0450  146.5920 C   0  0  0  0  0  0  0  0  0  0  0  0
  196.8850  168.9230  147.9920 N   0  0  0  0  0  1  0  0  0  0  0  0
  195.9110  168.2230  146.0020 O   0  0  0  0  0  0  0  0  0  0  0  0
  188.2590  175.3490  140.9940 C   0  0  0  0  0  1  0  0  0  0  0  0
  188.5940  175.9050  142.3730 C   0  0  2  0  0  3  0  0  0  0  0  0
  185.9580  175.5680  143.6290 O   0  0  0  0  0  0  0  0  0  0  0  0
  187.6580  176.9480  142.7900 N   0  0  0  0  0  2  0  0  0  0  0  0
  186.3590  176.7310  143.3600 C   0  0  0  0  0  0  0  0  0  0  0  0
  185.4740  177.8940  143.6730 C   0  0  2  0  0  3  0  0  0  0  0  0
  185.7650  179.0690  142.7530 C   0  0  0  0  0  1  0  0  0  0  0  0
  185.5760  178.2850  145.1160 C   0  0  0  0  0  0  0  0  0  0  0  0
  184.9640  179.0080  147.2640 N   0  0  0  0  0  0  0  0  0  0  0  0
  183.3280  179.0410  145.5600 O   0  0  0  0  0  0  0  0  0  0  0  0
  184.5050  178.8030  145.9410 C   0  0  0  0  0  0  0  0  0  0  0  0
  186.2030  178.6340  147.2230 C   0  0  0  0  0  0  0  0  0  0  0  0
  186.6410  178.1630  145.9010 C   0  0  0  0  0  3  0  0  0  0  0  0
  187.0480  178.6750  148.3670 N   0  0  0  0  0  1  0  0  0  0  0  0
  1 14  1  6  0  0  0
  1  3  1  0  0  0  0
  2  3  2  0  0  0  0
  4  8  1  6  0  0  0
  4  2  1  0  0  0  0
  6  7  2  0  0  0  0
  7  8  1  0  0  0  0
  9  5  1  1  0  0  0
  9 11  1  0  0  0  0
  9  4  1  0  0  0  0
 10 23  1  1  0  0  0
 10  6  1  0  0  0  0
 10  5  1  0  0  0  0
 11  1  1  0  0  0  0
 12 17  2  0  0  0  0
 12 14  1  0  0  0  0
 14 16  2  0  0  0  0
 15 18  1  0  0  0  0
 15 13  2  0  0  0  0
 16 13  1  0  0  0  0
 17 15  1  0  0  0  0
 18 19  1  0  0  0  0
 19 20  1  0  0  0  0
 21 19  2  0  0  0  0
 23 22  1  6  0  0  0
 23 25  1  0  0  0  0
 25 26  1  0  0  0  0
 26 24  2  0  0  0  0
 26 27  1  0  0  0  0
 27 28  1  6  0  0  0
 27 29  1  0  0  0  0
 29 34  2  0  0  0  0
 29 32  1  0  0  0  0
 31 32  2  0  0  0  0
 32 30  1  0  0  0  0
 33 30  2  0  0  0  0
 33 35  1  0  0  0  0
 34 33  1  0  0  0  0
M  END
>  <MODEL>
6

>  <REMARK>
 VINA RESULT:      -6.9      3.250      9.084
  Name = 
  7 active torsions:
  status: ('A' for Active; 'I' for Inactive)
    1  A    between atoms: C_1  and  C_11
    2  A    between atoms: C_2  and  C_33
    3  A    between atoms: C_4  and  C_23
    4  A    between atoms: C_15  and  C_33
    5  A    between atoms: N_21  and  C_34
    6  A    between atoms: C_23  and  C_27
    7  A    between atoms: C_30  and  C_34
                            x       y       z     vdW  Elec       q    Type
                         _______ _______ _______ _____ _____    ______ ____

>  <TORSDO>
F 7

$$$$
=
 OpenBabel11062421573D

 35 38  0  0  1  0  0  0  0  0999 V2000
  190.5490  177.1400  145.5810 C   0  0  2  0  0  3  0  0  0  0  0  0
  192.4100  177.2280  144.0490 N   0  0  0  0  0  0  0  0  0  0  0  0
  191.1820  177.5390  144.2810 C   0  0  0  0  0  3  0  0  0  0  0  0
  193.2040  176.5280  145.0390 C   0  0  2  0  0  3  0  0  0  0  0  0
  192.5490  174.0740  144.9330 C   0  0  0  0  0  2  0  0  0  0  0  0
  194.9650  174.0710  145.7630 N   0  0  0  0  0  0  0  0  0  0  0  0
  195.3090  175.2630  145.4020 C   0  0  0  0  0  3  0  0  0  0  0  0
  194.5270  176.0790  144.4200 C   0  0  0  0  0  2  0  0  0  0  0  0
  192.4060  175.3750  145.7120 C   0  0  2  0  0  3  0  0  0  0  0  0
  193.8460  173.2950  145.2380 C   0  0  2  0  0  3  0  0  0  0  0  0
  190.9100  175.6850  145.9000 C   0  0  0  0  0  2  0  0  0  0  0  0
  188.4200  177.4440  144.3120 C   0  0  0  0  0  3  0  0  0  0  0  0
  186.9310  177.6030  146.6750 C   0  0  0  0  0  3  0  0  0  0  0  0
  189.0660  177.3380  145.5490 C   0  0  0  0  0  0  0  0  0  0  0  0
  186.2890  177.7040  145.4350 C   0  0  0  0  0  0  0  0  0  0  0  0
  188.3150  177.4180  146.7320 C   0  0  0  0  0  3  0  0  0  0  0  0
  187.0360  177.6290  144.2550 C   0  0  0  0  0  3  0  0  0  0  0  0
  184.8150  177.9190  145.3740 C   0  0  0  0  0  2  0  0  0  0  0  0
  184.4630  178.8160  144.2350 C   0  0  0  0  0  0  0  0  0  0  0  0
  183.7820  178.2940  143.1000 N   0  0  0  0  0  1  0  0  0  0  0  0
  184.7940  180.0300  144.2650 O   0  0  0  0  0  0  0  0  0  0  0  0
  195.7940  172.0810  144.0960 C   0  0  0  0  0  1  0  0  0  0  0  0
  194.3020  172.3920  144.0860 C   0  0  2  0  0  3  0  0  0  0  0  0
  192.3120  171.1900  142.2880 O   0  0  0  0  0  0  0  0  0  0  0  0
  193.8500  172.8880  142.7870 N   0  0  0  0  0  2  0  0  0  0  0  0
  192.9050  172.2390  141.9230 C   0  0  0  0  0  0  0  0  0  0  0  0
  192.5890  172.8240  140.5850 C   0  0  2  0  0  3  0  0  0  0  0  0
  193.5930  173.9000  140.2050 C   0  0  0  0  0  1  0  0  0  0  0  0
  191.1830  173.3380  140.5310 C   0  0  0  0  0  0  0  0  0  0  0  0
  188.9780  173.6890  139.8050 N   0  0  0  0  0  0  0  0  0  0  0  0
  190.4220  172.4160  138.4350 O   0  0  0  0  0  0  0  0  0  0  0  0
  190.2160  173.0820  139.4840 C   0  0  0  0  0  0  0  0  0  0  0  0
  189.1960  174.2490  140.9510 C   0  0  0  0  0  0  0  0  0  0  0  0
  190.5610  174.0550  141.4610 C   0  0  0  0  0  3  0  0  0  0  0  0
  188.1900  174.9780  141.6450 N   0  0  0  0  0  1  0  0  0  0  0  0
  1 14  1  6  0  0  0
  1 11  1  0  0  0  0
  2  3  2  0  0  0  0
  2  4  1  0  0  0  0
  3  1  1  0  0  0  0
  4  8  1  6  0  0  0
  4  9  1  0  0  0  0
  5 10  1  0  0  0  0
  7  6  2  0  0  0  0
  8  7  1  0  0  0  0
  9  5  1  6  0  0  0
  9 11  1  0  0  0  0
 10 23  1  6  0  0  0
 10  6  1  0  0  0  0
 12 14  1  0  0  0  0
 13 16  1  0  0  0  0
 14 16  2  0  0  0  0
 15 13  2  0  0  0  0
 17 12  2  0  0  0  0
 17 15  1  0  0  0  0
 18 15  1  0  0  0  0
 19 21  2  0  0  0  0
 19 18  1  0  0  0  0
 20 19  1  0  0  0  0
 23 22  1  6  0  0  0
 25 23  1  0  0  0  0
 26 24  2  0  0  0  0
 26 25  1  0  0  0  0
 27 28  1  1  0  0  0
 27 26  1  0  0  0  0
 29 27  1  0  0  0  0
 29 34  2  0  0  0  0
 30 33  2  0  0  0  0
 31 32  2  0  0  0  0
 32 30  1  0  0  0  0
 32 29  1  0  0  0  0
 33 34  1  0  0  0  0
 33 35  1  0  0  0  0
M  END
>  <MODEL>
7

>  <REMARK>
 VINA RESULT:      -6.8      2.682      5.003
  Name = 
  7 active torsions:
  status: ('A' for Active; 'I' for Inactive)
    1  A    between atoms: C_1  and  C_11
    2  A    between atoms: C_2  and  C_33
    3  A    between atoms: C_4  and  C_23
    4  A    between atoms: C_15  and  C_33
    5  A    between atoms: N_21  and  C_34
    6  A    between atoms: C_23  and  C_27
    7  A    between atoms: C_30  and  C_34
                            x       y       z     vdW  Elec       q    Type
                         _______ _______ _______ _____ _____    ______ ____

>  <TORSDO>
F 7

$$$$
=
 OpenBabel11062421573D

 35 38  0  0  1  0  0  0  0  0999 V2000
  189.6580  173.1860  139.7920 C   0  0  2  0  0  3  0  0  0  0  0  0
  188.5120  173.0970  141.9140 N   0  0  0  0  0  0  0  0  0  0  0  0
  188.4370  173.3390  140.6510 C   0  0  0  0  0  3  0  0  0  0  0  0
  189.7500  172.6450  142.5160 C   0  0  2  0  0  3  0  0  0  0  0  0
  191.2370  174.6850  142.8060 C   0  0  0  0  0  2  0  0  0  0  0  0
  191.9660  173.0780  144.6520 N   0  0  0  0  0  0  0  0  0  0  0  0
  190.9310  172.3030  144.6720 C   0  0  0  0  0  3  0  0  0  0  0  0
  189.6240  172.6680  144.0380 C   0  0  0  0  0  2  0  0  0  0  0  0
  190.9780  173.4330  141.9790 C   0  0  2  0  0  3  0  0  0  0  0  0
  192.0260  174.4300  144.1070 C   0  0  2  0  0  3  0  0  0  0  0  0
  190.8590  173.8280  140.4950 C   0  0  0  0  0  2  0  0  0  0  0  0
  188.2240  174.3920  138.1420 C   0  0  0  0  0  3  0  0  0  0  0  0
  190.2220  174.2720  136.1860 C   0  0  0  0  0  3  0  0  0  0  0  0
  189.4450  173.7730  138.4330 C   0  0  0  0  0  0  0  0  0  0  0  0
  189.0010  174.8940  135.9020 C   0  0  0  0  0  0  0  0  0  0  0  0
  190.4450  173.7160  137.4490 C   0  0  0  0  0  3  0  0  0  0  0  0
  188.0020  174.9490  136.8790 C   0  0  0  0  0  3  0  0  0  0  0  0
  188.7560  175.4720  134.5500 C   0  0  0  0  0  2  0  0  0  0  0  0
  189.0710  176.9300  134.5390 C   0  0  0  0  0  0  0  0  0  0  0  0
  188.0190  177.8870  134.5130 N   0  0  0  0  0  1  0  0  0  0  0  0
  190.2700  177.3150  134.5230 O   0  0  0  0  0  0  0  0  0  0  0  0
  192.2950  175.0820  146.5710 C   0  0  0  0  0  1  0  0  0  0  0  0
  191.7570  175.4700  145.2000 C   0  0  2  0  0  3  0  0  0  0  0  0
  190.5920  178.1000  144.5960 O   0  0  0  0  0  0  0  0  0  0  0  0
  190.3490  175.8620  145.2510 N   0  0  0  0  0  2  0  0  0  0  0  0
  189.8330  177.1760  144.9890 C   0  0  0  0  0  0  0  0  0  0  0  0
  188.3740  177.4530  145.1500 C   0  0  2  0  0  3  0  0  0  0  0  0
  187.7140  176.4200  146.0480 C   0  0  0  0  0  1  0  0  0  0  0  0
  187.6860  177.5500  143.8220 C   0  0  0  0  0  0  0  0  0  0  0  0
  186.2400  178.2820  142.1230 N   0  0  0  0  0  0  0  0  0  0  0  0
  186.0230  179.2390  144.2730 O   0  0  0  0  0  0  0  0  0  0  0  0
  186.5920  178.4370  143.4860 C   0  0  0  0  0  0  0  0  0  0  0  0
  187.0650  177.3830  141.6910 C   0  0  0  0  0  0  0  0  0  0  0  0
  188.0030  176.8920  142.7120 C   0  0  0  0  0  3  0  0  0  0  0  0
  187.0570  176.9280  140.3430 N   0  0  0  0  0  1  0  0  0  0  0  0
  1 14  1  6  0  0  0
  1 11  1  0  0  0  0
  1  3  1  0  0  0  0
  2  4  1  0  0  0  0
  3  2  2  0  0  0  0
  4  8  1  1  0  0  0
  5 10  1  0  0  0  0
  6  7  2  0  0  0  0
  8  7  1  0  0  0  0
  9 11  1  6  0  0  0
  9  4  1  0  0  0  0
  9  5  1  0  0  0  0
 10  6  1  0  0  0  0
 10 23  1  1  0  0  0
 12 14  1  0  0  0  0
 13 16  1  0  0  0  0
 15 13  2  0  0  0  0
 15 17  1  0  0  0  0
 16 14  2  0  0  0  0
 17 12  2  0  0  0  0
 18 15  1  0  0  0  0
 19 18  1  0  0  0  0
 20 19  1  0  0  0  0
 21 19  2  0  0  0  0
 23 25  1  0  0  0  0
 23 22  1  1  0  0  0
 24 26  2  0  0  0  0
 26 27  1  0  0  0  0
 26 25  1  0  0  0  0
 27 28  1  1  0  0  0
 29 27  1  0  0  0  0
 30 32  1  0  0  0  0
 32 29  1  0  0  0  0
 32 31  2  0  0  0  0
 33 30  2  0  0  0  0
 33 34  1  0  0  0  0
 34 29  2  0  0  0  0
 35 33  1  0  0  0  0
M  END
>  <MODEL>
8

>  <REMARK>
 VINA RESULT:      -6.8      4.219      7.256
  Name = 
  7 active torsions:
  status: ('A' for Active; 'I' for Inactive)
    1  A    between atoms: C_1  and  C_11
    2  A    between atoms: C_2  and  C_33
    3  A    between atoms: C_4  and  C_23
    4  A    between atoms: C_15  and  C_33
    5  A    between atoms: N_21  and  C_34
    6  A    between atoms: C_23  and  C_27
    7  A    between atoms: C_30  and  C_34
                            x       y       z     vdW  Elec       q    Type
                         _______ _______ _______ _____ _____    ______ ____

>  <TORSDO>
F 7

$$$$
=
 OpenBabel11062421573D

 35 38  0  0  1  0  0  0  0  0999 V2000
  185.4590  178.3860  142.1460 C   0  0  2  0  0  3  0  0  0  0  0  0
  187.4980  177.2270  141.5810 N   0  0  0  0  0  0  0  0  0  0  0  0
  186.2770  177.4870  141.2660 C   0  0  0  0  0  3  0  0  0  0  0  0
  188.1090  177.8170  142.7560 C   0  0  2  0  0  3  0  0  0  0  0  0
  187.2940  176.4990  144.7710 C   0  0  0  0  0  2  0  0  0  0  0  0
  189.5810  177.4040  145.4620 N   0  0  0  0  0  0  0  0  0  0  0  0
  190.0540  177.6850  144.2920 C   0  0  0  0  0  3  0  0  0  0  0  0
  189.4620  177.1590  143.0220 C   0  0  0  0  0  2  0  0  0  0  0  0
  187.1510  177.7940  143.9810 C   0  0  2  0  0  3  0  0  0  0  0  0
  188.4820  176.4890  145.7550 C   0  0  2  0  0  3  0  0  0  0  0  0
  185.6700  177.9940  143.6120 C   0  0  0  0  0  2  0  0  0  0  0  0
  183.0510  178.7010  142.7280 C   0  0  0  0  0  3  0  0  0  0  0  0
  182.2390  177.9180  140.1670 C   0  0  0  0  0  3  0  0  0  0  0  0
  184.0100  178.3420  141.7740 C   0  0  0  0  0  0  0  0  0  0  0  0
  181.2840  178.2820  141.1230 C   0  0  0  0  0  0  0  0  0  0  0  0
  183.5990  177.9510  140.4900 C   0  0  0  0  0  3  0  0  0  0  0  0
  181.6920  178.6690  142.4040 C   0  0  0  0  0  3  0  0  0  0  0  0
  179.8330  178.2320  140.7840 C   0  0  0  0  0  2  0  0  0  0  0  0
  179.0110  178.0840  142.0200 C   0  0  0  0  0  0  0  0  0  0  0  0
  178.5260  176.8040  142.4060 N   0  0  0  0  0  1  0  0  0  0  0  0
  178.7210  179.0990  142.7070 O   0  0  0  0  0  0  0  0  0  0  0  0
  188.9360  174.7010  147.5350 C   0  0  0  0  0  1  0  0  0  0  0  0
  189.0110  175.0830  146.0620 C   0  0  2  0  0  3  0  0  0  0  0  0
  190.0030  172.7080  144.6450 O   0  0  0  0  0  0  0  0  0  0  0  0
  190.3430  174.8630  145.5020 N   0  0  0  0  0  2  0  0  0  0  0  0
  190.7950  173.6640  144.8560 C   0  0  0  0  0  0  0  0  0  0  0  0
  192.2110  173.5490  144.3940 C   0  0  2  0  0  3  0  0  0  0  0  0
  192.9000  172.3520  145.0290 C   0  0  0  0  0  1  0  0  0  0  0  0
  192.9700  174.8180  144.6380 C   0  0  0  0  0  0  0  0  0  0  0  0
  193.9390  176.9250  144.2750 N   0  0  0  0  0  0  0  0  0  0  0  0
  192.9130  175.8310  142.4490 O   0  0  0  0  0  0  0  0  0  0  0  0
  193.2420  175.8550  143.6650 C   0  0  0  0  0  0  0  0  0  0  0  0
  194.0600  176.5520  145.5090 C   0  0  0  0  0  0  0  0  0  0  0  0
  193.4630  175.2400  145.7970 C   0  0  0  0  0  3  0  0  0  0  0  0
  194.7090  177.3560  146.4860 N   0  0  0  0  0  1  0  0  0  0  0  0
  1 14  1  6  0  0  0
  1 11  1  0  0  0  0
  2  4  1  0  0  0  0
  3  2  2  0  0  0  0
  3  1  1  0  0  0  0
  4  8  1  1  0  0  0
  4  9  1  0  0  0  0
  5 10  1  0  0  0  0
  6 10  1  0  0  0  0
  7  6  2  0  0  0  0
  8  7  1  0  0  0  0
  9 11  1  6  0  0  0
  9  5  1  0  0  0  0
 10 23  1  6  0  0  0
 13 16  2  0  0  0  0
 13 15  1  0  0  0  0
 14 12  2  0  0  0  0
 15 17  2  0  0  0  0
 16 14  1  0  0  0  0
 17 12  1  0  0  0  0
 18 15  1  0  0  0  0
 18 19  1  0  0  0  0
 19 20  1  0  0  0  0
 19 21  2  0  0  0  0
 23 22  1  1  0  0  0
 24 26  2  0  0  0  0
 25 23  1  0  0  0  0
 26 25  1  0  0  0  0
 27 29  1  0  0  0  0
 27 26  1  0  0  0  0
 27 28  1  1  0  0  0
 29 34  2  0  0  0  0
 30 33  2  0  0  0  0
 31 32  2  0  0  0  0
 32 30  1  0  0  0  0
 32 29  1  0  0  0  0
 33 34  1  0  0  0  0
 33 35  1  0  0  0  0
M  END
>  <MODEL>
9

>  <REMARK>
 VINA RESULT:      -6.6      3.810      5.818
  Name = 
  7 active torsions:
  status: ('A' for Active; 'I' for Inactive)
    1  A    between atoms: C_1  and  C_11
    2  A    between atoms: C_2  and  C_33
    3  A    between atoms: C_4  and  C_23
    4  A    between atoms: C_15  and  C_33
    5  A    between atoms: N_21  and  C_34
    6  A    between atoms: C_23  and  C_27
    7  A    between atoms: C_30  and  C_34
                            x       y       z     vdW  Elec       q    Type
                         _______ _______ _______ _____ _____    ______ ____

>  <TORSDO>
F 7

$$$$
