=
 OpenBabel11062419423D

 30 32  0  0  1  0  0  0  0  0999 V2000
  187.7290  177.0920  142.5580 N   0  0  0  0  0  0  0  0  0  0  0  0
  186.6610  177.6190  143.0870 C   0  0  0  0  0  0  0  0  0  0  0  0
  190.3580  174.6850  144.0580 C   0  0  0  0  0  2  0  0  0  0  0  0
  188.9500  176.7380  143.2790 C   0  0  1  0  0  3  0  0  0  0  0  0
  190.7340  178.5950  144.5720 O   0  0  0  0  0  1  0  0  0  0  0  0
  191.0190  175.6490  145.0300 C   0  0  2  0  0  3  0  0  0  0  0  0
  191.9660  176.5560  144.2490 C   0  0  0  0  0  2  0  0  0  0  0  0
  189.0420  175.2080  143.4700 C   0  0  1  0  0  3  0  0  0  0  0  0
  191.2550  177.7400  143.5980 C   0  0  1  0  0  3  0  0  0  0  0  0
  190.1790  177.3310  142.5880 C   0  0  0  0  0  2  0  0  0  0  0  0
  187.5510  174.0100  142.0950 O   0  0  0  0  0  0  0  0  0  0  0  0
  188.6880  174.4300  142.2330 C   0  0  0  0  0  0  0  0  0  0  0  0
  189.0970  174.0900  139.9280 O   0  0  0  0  0  1  0  0  0  0  0  0
  189.7110  174.1540  141.1780 C   0  0  0  0  0  2  0  0  0  0  0  0
  191.8100  174.8480  146.0460 C   0  0  0  0  0  2  0  0  0  0  0  0
  191.4310  175.2110  147.3390 O   0  0  0  0  0  1  0  0  0  0  0  0
  186.7690  176.7300  146.7880 C   0  0  0  0  0  2  0  0  0  0  0  0
  185.9000  179.5130  146.3830 C   0  0  0  0  0  2  0  0  0  0  0  0
  186.6200  177.8730  144.5760 C   0  0  0  0  0  3  0  0  0  0  0  0
  186.2270  176.6270  145.3710 C   0  0  0  0  0  2  0  0  0  0  0  0
  185.0210  178.5890  147.2120 C   0  0  0  0  0  2  0  0  0  0  0  0
  185.8070  179.1260  144.9130 C   0  0  0  0  0  2  0  0  0  0  0  0
  185.7770  177.3760  147.7600 C   0  0  0  0  0  2  0  0  0  0  0  0
  185.5470  177.8920  140.7770 C   0  0  0  0  0  0  0  0  0  0  0  0
  184.4110  178.1140  140.0650 N   0  0  0  0  0  0  0  0  0  0  0  0
  183.1050  178.2390  142.0060 C   0  0  0  0  0  3  0  0  0  0  0  0
  183.2290  178.2860  140.6580 N   0  0  0  0  0  0  0  0  0  0  0  0
  184.2320  178.0160  142.7890 C   0  0  0  0  0  3  0  0  0  0  0  0
  186.7590  177.6670  140.0670 N   0  0  0  0  0  1  0  0  0  0  0  0
  185.4870  177.8440  142.1900 C   0  0  0  0  0  0  0  0  0  0  0  0
  1  2  2  0  0  0  0
  2 19  1  0  0  0  0
  3  6  1  0  0  0  0
  4  1  1  6  0  0  0
  4  8  1  0  0  0  0
  6 15  1  1  0  0  0
  7  6  1  0  0  0  0
  8 12  1  6  0  0  0
  8  3  1  0  0  0  0
  9  7  1  0  0  0  0
  9  5  1  1  0  0  0
 10  4  1  0  0  0  0
 10  9  1  0  0  0  0
 11 12  2  0  0  0  0
 13 14  1  0  0  0  0
 14 12  1  0  0  0  0
 15 16  1  0  0  0  0
 17 23  1  0  0  0  0
 18 21  1  0  0  0  0
 19 22  1  0  0  0  0
 19 20  1  0  0  0  0
 20 17  1  0  0  0  0
 21 23  1  0  0  0  0
 22 18  1  0  0  0  0
 24 30  1  0  0  0  0
 25 27  1  0  0  0  0
 25 24  2  0  0  0  0
 26 28  1  0  0  0  0
 27 26  2  0  0  0  0
 29 24  1  0  0  0  0
 30 28  2  0  0  0  0
 30  2  1  0  0  0  0
M  END
>  <MODEL>
1

>  <REMARK>
 VINA RESULT:      -7.8      0.000      0.000
  Name = 
  6 active torsions:
  status: ('A' for Active; 'I' for Inactive)
    1  A    between atoms: C_4  and  N_23
    2  A    between atoms: C_5  and  C_29
    3  A    between atoms: C_12  and  C_15
    4  A    between atoms: C_13  and  C_18
    5  A    between atoms: C_13  and  C_19
    6  A    between atoms: C_27  and  C_29
                            x       y       z     vdW  Elec       q    Type
                         _______ _______ _______ _____ _____    ______ ____

>  <TORSDO>
F 6

$$$$
=
 OpenBabel11062419423D

 30 32  0  0  1  0  0  0  0  0999 V2000
  191.0050  176.3670  145.0340 N   0  0  0  0  0  0  0  0  0  0  0  0
  191.5380  175.3800  144.3710 C   0  0  0  0  0  0  0  0  0  0  0  0
  187.6740  177.0520  146.8740 C   0  0  0  0  0  2  0  0  0  0  0  0
  189.5740  176.6520  145.1340 C   0  0  1  0  0  3  0  0  0  0  0  0
  187.7410  176.8380  142.9190 O   0  0  0  0  0  1  0  0  0  0  0  0
  186.7180  176.7480  145.7320 C   0  0  2  0  0  3  0  0  0  0  0  0
  186.6980  177.9430  144.7830 C   0  0  0  0  0  2  0  0  0  0  0  0
  189.1150  176.6020  146.6080 C   0  0  1  0  0  3  0  0  0  0  0  0
  187.8530  177.9290  143.7850 C   0  0  1  0  0  3  0  0  0  0  0  0
  189.2340  177.9730  144.4440 C   0  0  0  0  0  2  0  0  0  0  0  0
  189.7850  178.4300  147.9350 O   0  0  0  0  0  0  0  0  0  0  0  0
  190.0540  177.3040  147.5500 C   0  0  0  0  0  0  0  0  0  0  0  0
  191.0930  175.2860  148.2160 O   0  0  0  0  0  1  0  0  0  0  0  0
  191.3170  176.6480  148.0090 C   0  0  0  0  0  2  0  0  0  0  0  0
  185.3290  176.5360  146.3050 C   0  0  0  0  0  2  0  0  0  0  0  0
  184.5590  177.6860  146.1280 O   0  0  0  0  0  1  0  0  0  0  0  0
  189.7900  172.0550  143.7520 C   0  0  0  0  0  2  0  0  0  0  0  0
  189.4760  173.8690  141.4560 C   0  0  0  0  0  2  0  0  0  0  0  0
  190.6400  174.3970  143.6560 C   0  0  0  0  0  3  0  0  0  0  0  0
  191.0060  172.9440  143.9590 C   0  0  0  0  0  2  0  0  0  0  0  0
  190.0400  172.4770  141.2120 C   0  0  0  0  0  2  0  0  0  0  0  0
  190.5170  174.7250  142.1660 C   0  0  0  0  0  2  0  0  0  0  0  0
  189.6990  171.4900  142.3310 C   0  0  0  0  0  2  0  0  0  0  0  0
  193.9310  175.6160  143.4390 C   0  0  0  0  0  0  0  0  0  0  0  0
  195.2620  175.4100  143.6180 N   0  0  0  0  0  0  0  0  0  0  0  0
  194.9280  174.4560  145.7310 C   0  0  0  0  0  3  0  0  0  0  0  0
  195.7460  174.8450  144.7250 N   0  0  0  0  0  0  0  0  0  0  0  0
  193.5560  174.6400  145.6060 C   0  0  0  0  0  3  0  0  0  0  0  0
  193.5000  176.2710  142.2510 N   0  0  0  0  0  1  0  0  0  0  0  0
  193.0220  175.2190  144.4480 C   0  0  0  0  0  0  0  0  0  0  0  0
  2 30  1  0  0  0  0
  2  1  2  0  0  0  0
  4  1  1  1  0  0  0
  4  8  1  0  0  0  0
  6 15  1  1  0  0  0
  6  3  1  0  0  0  0
  7  6  1  0  0  0  0
  8  3  1  0  0  0  0
  8 12  1  1  0  0  0
  9  5  1  1  0  0  0
  9 10  1  0  0  0  0
  9  7  1  0  0  0  0
 10  4  1  0  0  0  0
 12 11  2  0  0  0  0
 12 14  1  0  0  0  0
 14 13  1  0  0  0  0
 16 15  1  0  0  0  0
 17 20  1  0  0  0  0
 18 22  1  0  0  0  0
 19 20  1  0  0  0  0
 19  2  1  0  0  0  0
 21 18  1  0  0  0  0
 21 23  1  0  0  0  0
 22 19  1  0  0  0  0
 23 17  1  0  0  0  0
 24 25  2  0  0  0  0
 24 30  1  0  0  0  0
 25 27  1  0  0  0  0
 27 26  2  0  0  0  0
 28 26  1  0  0  0  0
 29 24  1  0  0  0  0
 30 28  2  0  0  0  0
M  END
>  <MODEL>
2

>  <REMARK>
 VINA RESULT:      -7.5      3.428      7.519
  Name = 
  6 active torsions:
  status: ('A' for Active; 'I' for Inactive)
    1  A    between atoms: C_4  and  N_23
    2  A    between atoms: C_5  and  C_29
    3  A    between atoms: C_12  and  C_15
    4  A    between atoms: C_13  and  C_18
    5  A    between atoms: C_13  and  C_19
    6  A    between atoms: C_27  and  C_29
                            x       y       z     vdW  Elec       q    Type
                         _______ _______ _______ _____ _____    ______ ____

>  <TORSDO>
F 6

$$$$
=
 OpenBabel11062419423D

 30 32  0  0  1  0  0  0  0  0999 V2000
  188.1110  177.0180  144.0110 N   0  0  0  0  0  0  0  0  0  0  0  0
  187.7200  177.2480  145.2330 C   0  0  0  0  0  0  0  0  0  0  0  0
  190.3600  174.3040  142.4200 C   0  0  0  0  0  2  0  0  0  0  0  0
  189.3770  176.3990  143.6250 C   0  0  1  0  0  3  0  0  0  0  0  0
  192.0010  177.4010  144.2680 O   0  0  0  0  0  1  0  0  0  0  0  0
  191.6660  174.6570  143.1140 C   0  0  2  0  0  3  0  0  0  0  0  0
  192.2690  175.8790  142.4260 C   0  0  0  0  0  2  0  0  0  0  0  0
  189.1330  174.9950  143.0260 C   0  0  1  0  0  3  0  0  0  0  0  0
  191.6770  177.1950  142.9250 C   0  0  1  0  0  3  0  0  0  0  0  0
  190.1690  177.3180  142.6930 C   0  0  0  0  0  2  0  0  0  0  0  0
  186.9190  174.4800  142.4080 O   0  0  0  0  0  0  0  0  0  0  0  0
  187.9870  174.9520  142.0540 C   0  0  0  0  0  0  0  0  0  0  0  0
  187.3780  176.6230  140.4940 O   0  0  0  0  0  1  0  0  0  0  0  0
  188.1420  175.4670  140.6590 C   0  0  0  0  0  2  0  0  0  0  0  0
  192.6180  173.4830  142.9840 C   0  0  0  0  0  2  0  0  0  0  0  0
  192.1470  172.5940  142.0170 O   0  0  0  0  0  1  0  0  0  0  0  0
  190.3050  177.6780  147.9950 C   0  0  0  0  0  2  0  0  0  0  0  0
  189.6630  174.8380  147.5670 C   0  0  0  0  0  2  0  0  0  0  0  0
  188.6020  176.8260  146.3850 C   0  0  0  0  0  3  0  0  0  0  0  0
  189.8160  177.7390  146.5560 C   0  0  0  0  0  2  0  0  0  0  0  0
  191.1200  175.2710  147.5090 C   0  0  0  0  0  2  0  0  0  0  0  0
  188.9320  175.3320  146.3240 C   0  0  0  0  0  2  0  0  0  0  0  0
  191.3750  176.6050  148.2160 C   0  0  0  0  0  2  0  0  0  0  0  0
  185.5420  177.6270  146.5610 C   0  0  0  0  0  0  0  0  0  0  0  0
  184.3120  178.2020  146.6160 N   0  0  0  0  0  0  0  0  0  0  0  0
  184.5790  179.2020  144.5140 C   0  0  0  0  0  3  0  0  0  0  0  0
  183.8420  178.9610  145.6250 N   0  0  0  0  0  0  0  0  0  0  0  0
  185.8460  178.6410  144.4000 C   0  0  0  0  0  3  0  0  0  0  0  0
  185.9890  176.8740  147.6830 N   0  0  0  0  0  1  0  0  0  0  0  0
  186.3560  177.8300  145.4220 C   0  0  0  0  0  0  0  0  0  0  0  0
  1  2  2  0  0  0  0
  2 30  1  0  0  0  0
  2 19  1  0  0  0  0
  3  8  1  0  0  0  0
  3  6  1  0  0  0  0
  4  1  1  6  0  0  0
  6 15  1  6  0  0  0
  7  9  1  0  0  0  0
  7  6  1  0  0  0  0
  8 12  1  6  0  0  0
  8  4  1  0  0  0  0
  9  5  1  1  0  0  0
 10  9  1  0  0  0  0
 10  4  1  0  0  0  0
 12 11  2  0  0  0  0
 13 14  1  0  0  0  0
 14 12  1  0  0  0  0
 16 15  1  0  0  0  0
 17 23  1  0  0  0  0
 19 20  1  0  0  0  0
 20 17  1  0  0  0  0
 21 18  1  0  0  0  0
 21 23  1  0  0  0  0
 22 19  1  0  0  0  0
 22 18  1  0  0  0  0
 24 25  1  0  0  0  0
 24 29  1  0  0  0  0
 26 27  1  0  0  0  0
 27 25  2  0  0  0  0
 28 26  2  0  0  0  0
 28 30  1  0  0  0  0
 30 24  2  0  0  0  0
M  END
>  <MODEL>
3

>  <REMARK>
 VINA RESULT:      -7.2      2.540      3.907
  Name = 
  6 active torsions:
  status: ('A' for Active; 'I' for Inactive)
    1  A    between atoms: C_4  and  N_23
    2  A    between atoms: C_5  and  C_29
    3  A    between atoms: C_12  and  C_15
    4  A    between atoms: C_13  and  C_18
    5  A    between atoms: C_13  and  C_19
    6  A    between atoms: C_27  and  C_29
                            x       y       z     vdW  Elec       q    Type
                         _______ _______ _______ _____ _____    ______ ____

>  <TORSDO>
F 6

$$$$
=
 OpenBabel11062419423D

 30 32  0  0  1  0  0  0  0  0999 V2000
  191.4880  175.9980  142.8890 N   0  0  0  0  0  0  0  0  0  0  0  0
  190.2930  176.2440  143.3460 C   0  0  0  0  0  0  0  0  0  0  0  0
  194.9140  174.3200  143.5240 C   0  0  0  0  0  2  0  0  0  0  0  0
  192.6380  175.5830  143.6910 C   0  0  1  0  0  3  0  0  0  0  0  0
  192.9330  175.9730  146.5300 O   0  0  0  0  0  1  0  0  0  0  0  0
  194.8310  174.2010  145.0370 C   0  0  2  0  0  3  0  0  0  0  0  0
  195.1330  175.5660  145.6500 C   0  0  0  0  0  2  0  0  0  0  0  0
  193.5810  174.6850  142.8590 C   0  0  1  0  0  3  0  0  0  0  0  0
  193.9160  176.4870  145.6810 C   0  0  1  0  0  3  0  0  0  0  0  0
  193.3450  176.7970  144.2950 C   0  0  0  0  0  2  0  0  0  0  0  0
  193.2310  174.6960  140.5300 O   0  0  0  0  0  0  0  0  0  0  0  0
  193.8250  175.2010  141.4680 C   0  0  0  0  0  0  0  0  0  0  0  0
  195.8610  175.8500  140.4530 O   0  0  0  0  0  1  0  0  0  0  0  0
  194.7920  176.3140  141.2200 C   0  0  0  0  0  2  0  0  0  0  0  0
  195.8680  173.1970  145.5030 C   0  0  0  0  0  2  0  0  0  0  0  0
  196.8550  173.8430  146.2490 O   0  0  0  0  0  1  0  0  0  0  0  0
  189.8540  174.3390  146.6130 C   0  0  0  0  0  2  0  0  0  0  0  0
  188.9660  177.1320  146.8790 C   0  0  0  0  0  2  0  0  0  0  0  0
  190.0130  176.0650  144.8200 C   0  0  0  0  0  3  0  0  0  0  0  0
  189.5420  174.6490  145.1570 C   0  0  0  0  0  2  0  0  0  0  0  0
  188.0000  176.0220  147.2630 C   0  0  0  0  0  2  0  0  0  0  0  0
  189.1160  177.1800  145.3640 C   0  0  0  0  0  2  0  0  0  0  0  0
  188.7020  174.6940  147.5580 C   0  0  0  0  0  2  0  0  0  0  0  0
  188.5130  175.6510  141.5760 C   0  0  0  0  0  0  0  0  0  0  0  0
  187.5760  176.0880  140.6940 N   0  0  0  0  0  0  0  0  0  0  0  0
  187.9510  178.3300  141.2580 C   0  0  0  0  0  3  0  0  0  0  0  0
  187.3050  177.3840  140.5360 N   0  0  0  0  0  0  0  0  0  0  0  0
  188.9220  177.9450  142.1760 C   0  0  0  0  0  3  0  0  0  0  0  0
  188.7060  174.2490  141.7220 N   0  0  0  0  0  1  0  0  0  0  0  0
  189.2330  176.5910  142.3520 C   0  0  0  0  0  0  0  0  0  0  0  0
  1  2  2  0  0  0  0
  2 19  1  0  0  0  0
  3  6  1  0  0  0  0
  4  1  1  6  0  0  0
  4 10  1  0  0  0  0
  6 15  1  1  0  0  0
  6  7  1  0  0  0  0
  7  9  1  0  0  0  0
  8 12  1  6  0  0  0
  8  3  1  0  0  0  0
  8  4  1  0  0  0  0
  9  5  1  1  0  0  0
 10  9  1  0  0  0  0
 11 12  2  0  0  0  0
 13 14  1  0  0  0  0
 14 12  1  0  0  0  0
 15 16  1  0  0  0  0
 17 23  1  0  0  0  0
 18 21  1  0  0  0  0
 19 20  1  0  0  0  0
 19 22  1  0  0  0  0
 20 17  1  0  0  0  0
 21 23  1  0  0  0  0
 22 18  1  0  0  0  0
 24 29  1  0  0  0  0
 24 30  1  0  0  0  0
 25 24  2  0  0  0  0
 26 28  1  0  0  0  0
 27 25  1  0  0  0  0
 27 26  2  0  0  0  0
 28 30  2  0  0  0  0
 30  2  1  0  0  0  0
M  END
>  <MODEL>
4

>  <REMARK>
 VINA RESULT:      -7.2      3.034      4.424
  Name = 
  6 active torsions:
  status: ('A' for Active; 'I' for Inactive)
    1  A    between atoms: C_4  and  N_23
    2  A    between atoms: C_5  and  C_29
    3  A    between atoms: C_12  and  C_15
    4  A    between atoms: C_13  and  C_18
    5  A    between atoms: C_13  and  C_19
    6  A    between atoms: C_27  and  C_29
                            x       y       z     vdW  Elec       q    Type
                         _______ _______ _______ _____ _____    ______ ____

>  <TORSDO>
F 6

$$$$
=
 OpenBabel11062419423D

 30 32  0  0  1  0  0  0  0  0999 V2000
  191.6510  175.3010  145.1870 N   0  0  0  0  0  0  0  0  0  0  0  0
  192.1450  174.5040  144.2820 C   0  0  0  0  0  0  0  0  0  0  0  0
  188.3240  176.5630  146.7020 C   0  0  0  0  0  2  0  0  0  0  0  0
  190.3190  175.9030  145.1570 C   0  0  1  0  0  3  0  0  0  0  0  0
  188.9070  176.7360  142.7870 O   0  0  0  0  0  1  0  0  0  0  0  0
  187.4980  176.6090  145.4270 C   0  0  2  0  0  3  0  0  0  0  0  0
  187.8770  177.8630  144.6450 C   0  0  0  0  0  2  0  0  0  0  0  0
  189.6550  175.8160  146.5490 C   0  0  1  0  0  3  0  0  0  0  0  0
  189.1320  177.6780  143.7950 C   0  0  1  0  0  3  0  0  0  0  0  0
  190.3800  177.3300  144.6100 C   0  0  0  0  0  2  0  0  0  0  0  0
  191.2060  175.3000  148.2440 O   0  0  0  0  0  0  0  0  0  0  0  0
  190.5810  176.1800  147.6760 C   0  0  0  0  0  0  0  0  0  0  0  0
  191.6160  177.6670  149.1970 O   0  0  0  0  0  1  0  0  0  0  0  0
  190.7360  177.6000  148.1170 C   0  0  0  0  0  2  0  0  0  0  0  0
  186.0300  176.6720  145.8030 C   0  0  0  0  0  2  0  0  0  0  0  0
  185.8970  176.8350  147.1820 O   0  0  0  0  0  1  0  0  0  0  0  0
  189.1480  173.0000  142.4790 C   0  0  0  0  0  2  0  0  0  0  0  0
  191.2940  173.6910  140.5880 C   0  0  0  0  0  2  0  0  0  0  0  0
  191.2930  174.1110  143.0970 C   0  0  0  0  0  3  0  0  0  0  0  0
  190.3430  172.9570  143.4190 C   0  0  0  0  0  2  0  0  0  0  0  0
  190.7460  172.2720  140.5790 C   0  0  0  0  0  2  0  0  0  0  0  0
  192.1380  173.9070  141.8370 C   0  0  0  0  0  2  0  0  0  0  0  0
  189.3560  172.1650  141.2130 C   0  0  0  0  0  2  0  0  0  0  0  0
  194.7200  174.5650  144.1660 C   0  0  0  0  0  0  0  0  0  0  0  0
  195.9010  173.9470  144.4360 N   0  0  0  0  0  0  0  0  0  0  0  0
  194.8260  172.1170  145.4280 C   0  0  0  0  0  3  0  0  0  0  0  0
  195.9530  172.7610  145.0430 N   0  0  0  0  0  0  0  0  0  0  0  0
  193.5880  172.6990  145.1780 C   0  0  0  0  0  3  0  0  0  0  0  0
  194.7520  175.8530  143.5610 N   0  0  0  0  0  1  0  0  0  0  0  0
  193.5050  173.9380  144.5310 C   0  0  0  0  0  0  0  0  0  0  0  0
  2 30  1  0  0  0  0
  2  1  2  0  0  0  0
  4  1  1  1  0  0  0
  4  8  1  0  0  0  0
  6 15  1  1  0  0  0
  6  3  1  0  0  0  0
  7  6  1  0  0  0  0
  8  3  1  0  0  0  0
  8 12  1  1  0  0  0
  9  5  1  6  0  0  0
  9 10  1  0  0  0  0
  9  7  1  0  0  0  0
 10  4  1  0  0  0  0
 12 14  1  0  0  0  0
 12 11  2  0  0  0  0
 14 13  1  0  0  0  0
 15 16  1  0  0  0  0
 17 20  1  0  0  0  0
 18 22  1  0  0  0  0
 19 20  1  0  0  0  0
 19  2  1  0  0  0  0
 21 18  1  0  0  0  0
 21 23  1  0  0  0  0
 22 19  1  0  0  0  0
 23 17  1  0  0  0  0
 24 25  2  0  0  0  0
 24 30  1  0  0  0  0
 25 27  1  0  0  0  0
 27 26  2  0  0  0  0
 28 26  1  0  0  0  0
 29 24  1  0  0  0  0
 30 28  2  0  0  0  0
M  END
>  <MODEL>
5

>  <REMARK>
 VINA RESULT:      -7.0      3.803      7.993
  Name = 
  6 active torsions:
  status: ('A' for Active; 'I' for Inactive)
    1  A    between atoms: C_4  and  N_23
    2  A    between atoms: C_5  and  C_29
    3  A    between atoms: C_12  and  C_15
    4  A    between atoms: C_13  and  C_18
    5  A    between atoms: C_13  and  C_19
    6  A    between atoms: C_27  and  C_29
                            x       y       z     vdW  Elec       q    Type
                         _______ _______ _______ _____ _____    ______ ____

>  <TORSDO>
F 6

$$$$
=
 OpenBabel11062419423D

 30 32  0  0  1  0  0  0  0  0999 V2000
  188.7710  175.7210  143.1820 N   0  0  0  0  0  0  0  0  0  0  0  0
  188.2600  176.4370  144.1440 C   0  0  0  0  0  0  0  0  0  0  0  0
  190.6550  172.3520  142.9430 C   0  0  0  0  0  2  0  0  0  0  0  0
  189.9240  174.8300  143.3040 C   0  0  1  0  0  3  0  0  0  0  0  0
  192.5060  175.5580  144.3540 O   0  0  0  0  0  1  0  0  0  0  0  0
  191.8290  172.6850  143.8500 C   0  0  2  0  0  3  0  0  0  0  0  0
  192.8170  173.5490  143.0710 C   0  0  0  0  0  2  0  0  0  0  0  0
  189.5100  173.3690  143.0190 C   0  0  1  0  0  3  0  0  0  0  0  0
  192.4370  175.0280  143.0640 C   0  0  1  0  0  3  0  0  0  0  0  0
  191.0770  175.3090  142.4210 C   0  0  0  0  0  2  0  0  0  0  0  0
  187.4400  172.9400  141.9810 O   0  0  0  0  0  0  0  0  0  0  0  0
  188.6150  173.2250  141.8190 C   0  0  0  0  0  0  0  0  0  0  0  0
  188.5650  174.5380  139.8530 O   0  0  0  0  0  1  0  0  0  0  0  0
  189.1480  173.4130  140.4350 C   0  0  0  0  0  2  0  0  0  0  0  0
  192.5050  171.3910  144.2620 C   0  0  0  0  0  2  0  0  0  0  0  0
  193.7210  171.6680  144.8900 O   0  0  0  0  0  1  0  0  0  0  0  0
  190.0850  177.6650  147.2510 C   0  0  0  0  0  2  0  0  0  0  0  0
  189.6690  174.7530  147.3390 C   0  0  0  0  0  2  0  0  0  0  0  0
  188.8530  176.3460  145.5300 C   0  0  0  0  0  3  0  0  0  0  0  0
  189.9560  177.3780  145.7630 C   0  0  0  0  0  2  0  0  0  0  0  0
  191.0800  175.2920  147.5180 C   0  0  0  0  0  2  0  0  0  0  0  0
  189.2420  174.9080  145.8850 C   0  0  0  0  0  2  0  0  0  0  0  0
  191.1080  176.7610  147.9450 C   0  0  0  0  0  2  0  0  0  0  0  0
  186.8630  178.0310  142.6750 C   0  0  0  0  0  0  0  0  0  0  0  0
  185.7050  178.7230  142.5050 N   0  0  0  0  0  0  0  0  0  0  0  0
  184.8160  177.9180  144.5170 C   0  0  0  0  0  3  0  0  0  0  0  0
  184.7150  178.6720  143.3960 N   0  0  0  0  0  0  0  0  0  0  0  0
  185.9770  177.1890  144.7480 C   0  0  0  0  0  3  0  0  0  0  0  0
  187.8490  178.0990  141.6520 N   0  0  0  0  0  1  0  0  0  0  0  0
  187.0360  177.2350  143.8320 C   0  0  0  0  0  0  0  0  0  0  0  0
  1  2  2  0  0  0  0
  2 19  1  0  0  0  0
  3  8  1  0  0  0  0
  3  6  1  0  0  0  0
  4  1  1  6  0  0  0
  6 15  1  6  0  0  0
  7  6  1  0  0  0  0
  8 12  1  6  0  0  0
  8  4  1  0  0  0  0
  9  7  1  0  0  0  0
  9  5  1  1  0  0  0
 10  9  1  0  0  0  0
 10  4  1  0  0  0  0
 12 11  2  0  0  0  0
 13 14  1  0  0  0  0
 14 12  1  0  0  0  0
 15 16  1  0  0  0  0
 17 23  1  0  0  0  0
 18 21  1  0  0  0  0
 19 20  1  0  0  0  0
 19 22  1  0  0  0  0
 20 17  1  0  0  0  0
 21 23  1  0  0  0  0
 22 18  1  0  0  0  0
 24 30  1  0  0  0  0
 25 24  2  0  0  0  0
 25 27  1  0  0  0  0
 26 28  1  0  0  0  0
 27 26  2  0  0  0  0
 29 24  1  0  0  0  0
 30  2  1  0  0  0  0
 30 28  2  0  0  0  0
M  END
>  <MODEL>
6

>  <REMARK>
 VINA RESULT:      -7.0      2.273      3.393
  Name = 
  6 active torsions:
  status: ('A' for Active; 'I' for Inactive)
    1  A    between atoms: C_4  and  N_23
    2  A    between atoms: C_5  and  C_29
    3  A    between atoms: C_12  and  C_15
    4  A    between atoms: C_13  and  C_18
    5  A    between atoms: C_13  and  C_19
    6  A    between atoms: C_27  and  C_29
                            x       y       z     vdW  Elec       q    Type
                         _______ _______ _______ _____ _____    ______ ____

>  <TORSDO>
F 6

$$$$
=
 OpenBabel11062419423D

 30 32  0  0  1  0  0  0  0  0999 V2000
  190.5140  175.3520  144.1170 N   0  0  0  0  0  0  0  0  0  0  0  0
  190.9890  174.4830  143.2690 C   0  0  0  0  0  0  0  0  0  0  0  0
  187.3040  177.1700  145.2760 C   0  0  0  0  0  2  0  0  0  0  0  0
  189.2890  176.1310  143.9420 C   0  0  1  0  0  3  0  0  0  0  0  0
  188.1910  176.9880  141.4200 O   0  0  0  0  0  1  0  0  0  0  0  0
  186.5880  177.2420  143.9370 C   0  0  2  0  0  3  0  0  0  0  0  0
  187.2030  178.3740  143.1170 C   0  0  0  0  0  2  0  0  0  0  0  0
  188.5190  176.2340  145.2770 C   0  0  1  0  0  3  0  0  0  0  0  0
  188.4760  177.9560  142.3860 C   0  0  1  0  0  3  0  0  0  0  0  0
  189.5970  177.4930  143.3200 C   0  0  0  0  0  2  0  0  0  0  0  0
  189.6800  177.7020  146.7070 O   0  0  0  0  0  0  0  0  0  0  0  0
  189.4030  176.5420  146.4540 C   0  0  0  0  0  0  0  0  0  0  0  0
  188.9410  174.5410  147.6280 O   0  0  0  0  0  1  0  0  0  0  0  0
  189.9530  175.4460  147.3090 C   0  0  0  0  0  2  0  0  0  0  0  0
  185.1210  177.5370  144.1850 C   0  0  0  0  0  2  0  0  0  0  0  0
  184.8620  177.5410  145.5570 O   0  0  0  0  0  1  0  0  0  0  0  0
  188.0010  173.4680  141.1400 C   0  0  0  0  0  2  0  0  0  0  0  0
  190.4480  173.6690  139.5180 C   0  0  0  0  0  2  0  0  0  0  0  0
  190.2270  174.1970  141.9970 C   0  0  0  0  0  3  0  0  0  0  0  0
  189.0460  173.2520  142.2240 C   0  0  0  0  0  2  0  0  0  0  0  0
  189.6500  172.3740  139.4740 C   0  0  0  0  0  2  0  0  0  0  0  0
  191.1630  173.7840  140.8580 C   0  0  0  0  0  2  0  0  0  0  0  0
  188.1990  172.5510  139.9290 C   0  0  0  0  0  2  0  0  0  0  0  0
  193.5440  174.2140  143.4930 C   0  0  0  0  0  0  0  0  0  0  0  0
  194.5910  173.4400  143.8840 N   0  0  0  0  0  0  0  0  0  0  0  0
  193.1730  171.7330  144.6350 C   0  0  0  0  0  3  0  0  0  0  0  0
  194.4140  172.2380  144.4330 N   0  0  0  0  0  0  0  0  0  0  0  0
  192.0620  172.4780  144.2560 C   0  0  0  0  0  3  0  0  0  0  0  0
  193.8170  175.5060  142.9620 N   0  0  0  0  0  1  0  0  0  0  0  0
  192.2230  173.7380  143.6650 C   0  0  0  0  0  0  0  0  0  0  0  0
  2 30  1  0  0  0  0
  2  1  2  0  0  0  0
  3  8  1  0  0  0  0
  4  1  1  1  0  0  0
  4  8  1  0  0  0  0
  6 15  1  1  0  0  0
  6  3  1  0  0  0  0
  7  6  1  0  0  0  0
  8 12  1  1  0  0  0
  9  5  1  6  0  0  0
  9  7  1  0  0  0  0
  9 10  1  0  0  0  0
 10  4  1  0  0  0  0
 12 11  2  0  0  0  0
 12 14  1  0  0  0  0
 14 13  1  0  0  0  0
 15 16  1  0  0  0  0
 17 20  1  0  0  0  0
 18 22  1  0  0  0  0
 19 20  1  0  0  0  0
 19  2  1  0  0  0  0
 21 18  1  0  0  0  0
 21 23  1  0  0  0  0
 22 19  1  0  0  0  0
 23 17  1  0  0  0  0
 24 30  2  0  0  0  0
 24 25  1  0  0  0  0
 25 27  2  0  0  0  0
 27 26  1  0  0  0  0
 28 26  2  0  0  0  0
 29 24  1  0  0  0  0
 30 28  1  0  0  0  0
M  END
>  <MODEL>
7

>  <REMARK>
 VINA RESULT:      -7.0      3.295      7.478
  Name = 
  6 active torsions:
  status: ('A' for Active; 'I' for Inactive)
    1  A    between atoms: C_4  and  N_23
    2  A    between atoms: C_5  and  C_29
    3  A    between atoms: C_12  and  C_15
    4  A    between atoms: C_13  and  C_18
    5  A    between atoms: C_13  and  C_19
    6  A    between atoms: C_27  and  C_29
                            x       y       z     vdW  Elec       q    Type
                         _______ _______ _______ _____ _____    ______ ____

>  <TORSDO>
F 6

$$$$
=
 OpenBabel11062419423D

 30 32  0  0  1  0  0  0  0  0999 V2000
  188.8950  175.9720  146.1490 N   0  0  0  0  0  0  0  0  0  0  0  0
  187.9760  176.5660  145.4390 C   0  0  0  0  0  0  0  0  0  0  0  0
  192.6980  175.3090  145.9180 C   0  0  0  0  0  2  0  0  0  0  0  0
  190.1070  175.3480  145.6210 C   0  0  1  0  0  3  0  0  0  0  0  0
  190.2200  173.5090  143.4050 O   0  0  0  0  0  1  0  0  0  0  0  0
  192.7340  174.6800  144.5340 C   0  0  2  0  0  3  0  0  0  0  0  0
  192.2610  173.2330  144.6440 C   0  0  0  0  0  2  0  0  0  0  0  0
  191.3640  175.9870  146.2520 C   0  0  1  0  0  3  0  0  0  0  0  0
  190.7400  173.1020  144.6360 C   0  0  1  0  0  3  0  0  0  0  0  0
  190.0550  173.8290  145.7950 C   0  0  0  0  0  2  0  0  0  0  0  0
  191.1910  175.2160  148.4710 O   0  0  0  0  0  0  0  0  0  0  0  0
  191.2490  176.1890  147.7380 C   0  0  0  0  0  0  0  0  0  0  0  0
  191.5660  177.5190  149.6680 O   0  0  0  0  0  1  0  0  0  0  0  0
  191.1910  177.5620  148.3260 C   0  0  0  0  0  2  0  0  0  0  0  0
  194.1630  174.7070  144.0260 C   0  0  0  0  0  2  0  0  0  0  0  0
  194.9400  175.5410  144.8330 O   0  0  0  0  0  1  0  0  0  0  0  0
  188.6690  178.2900  142.1170 C   0  0  0  0  0  2  0  0  0  0  0  0
  187.6520  175.5590  141.7090 C   0  0  0  0  0  2  0  0  0  0  0  0
  188.1500  176.6720  143.9420 C   0  0  0  0  0  3  0  0  0  0  0  0
  187.9250  178.0950  143.4280 C   0  0  0  0  0  2  0  0  0  0  0  0
  186.9400  176.7110  141.0170 C   0  0  0  0  0  2  0  0  0  0  0  0
  187.3530  175.5950  143.2030 C   0  0  0  0  0  2  0  0  0  0  0  0
  187.8120  177.9620  140.8900 C   0  0  0  0  0  2  0  0  0  0  0  0
  186.9870  178.1450  147.2220 C   0  0  0  0  0  0  0  0  0  0  0  0
  185.8790  178.6510  147.8250 N   0  0  0  0  0  0  0  0  0  0  0  0
  184.4460  177.4040  146.4540 C   0  0  0  0  0  3  0  0  0  0  0  0
  184.6490  178.2910  147.4580 N   0  0  0  0  0  0  0  0  0  0  0  0
  185.5410  176.8510  145.7990 C   0  0  0  0  0  3  0  0  0  0  0  0
  188.2620  178.6190  147.6390 N   0  0  0  0  0  1  0  0  0  0  0  0
  186.8430  177.2040  146.1750 C   0  0  0  0  0  0  0  0  0  0  0  0
  2  1  2  0  0  0  0
  2 30  1  0  0  0  0
  3  8  1  0  0  0  0
  4 10  1  0  0  0  0
  4  1  1  1  0  0  0
  4  8  1  0  0  0  0
  6 15  1  1  0  0  0
  6  7  1  0  0  0  0
  6  3  1  0  0  0  0
  8 12  1  1  0  0  0
  9  5  1  6  0  0  0
  9  7  1  0  0  0  0
  9 10  1  0  0  0  0
 12 14  1  0  0  0  0
 12 11  2  0  0  0  0
 14 13  1  0  0  0  0
 15 16  1  0  0  0  0
 17 20  1  0  0  0  0
 18 22  1  0  0  0  0
 19  2  1  0  0  0  0
 20 19  1  0  0  0  0
 21 18  1  0  0  0  0
 22 19  1  0  0  0  0
 23 21  1  0  0  0  0
 23 17  1  0  0  0  0
 24 29  1  0  0  0  0
 24 25  1  0  0  0  0
 26 27  1  0  0  0  0
 27 25  2  0  0  0  0
 28 30  1  0  0  0  0
 28 26  2  0  0  0  0
 30 24  2  0  0  0  0
M  END
>  <MODEL>
8

>  <REMARK>
 VINA RESULT:      -6.9      3.205      5.506
  Name = 
  6 active torsions:
  status: ('A' for Active; 'I' for Inactive)
    1  A    between atoms: C_4  and  N_23
    2  A    between atoms: C_5  and  C_29
    3  A    between atoms: C_12  and  C_15
    4  A    between atoms: C_13  and  C_18
    5  A    between atoms: C_13  and  C_19
    6  A    between atoms: C_27  and  C_29
                            x       y       z     vdW  Elec       q    Type
                         _______ _______ _______ _____ _____    ______ ____

>  <TORSDO>
F 6

$$$$
=
 OpenBabel11062419423D

 30 32  0  0  1  0  0  0  0  0999 V2000
  191.4400  175.1100  145.1990 N   0  0  0  0  0  0  0  0  0  0  0  0
  190.2730  174.9820  144.6320 C   0  0  0  0  0  0  0  0  0  0  0  0
  194.9540  174.9960  143.5880 C   0  0  0  0  0  2  0  0  0  0  0  0
  192.6780  174.4750  144.7510 C   0  0  1  0  0  3  0  0  0  0  0  0
  193.2640  171.6570  144.8870 O   0  0  0  0  0  1  0  0  0  0  0  0
  195.0350  173.5010  143.3270 C   0  0  2  0  0  3  0  0  0  0  0  0
  195.3670  172.7950  144.6390 C   0  0  0  0  0  2  0  0  0  0  0  0
  193.5490  175.4810  143.9660 C   0  0  1  0  0  3  0  0  0  0  0  0
  194.1380  172.5500  145.5110 C   0  0  1  0  0  3  0  0  0  0  0  0
  193.4160  173.8330  145.9270 C   0  0  0  0  0  2  0  0  0  0  0  0
  192.8030  177.6840  144.3360 O   0  0  0  0  0  0  0  0  0  0  0  0
  193.6310  176.8340  144.6180 C   0  0  0  0  0  0  0  0  0  0  0  0
  194.2000  177.1760  146.8880 O   0  0  0  0  0  1  0  0  0  0  0  0
  194.7180  177.1540  145.5930 C   0  0  0  0  0  2  0  0  0  0  0  0
  196.1400  173.2430  142.3200 C   0  0  0  0  0  2  0  0  0  0  0  0
  196.4590  174.4250  141.6510 O   0  0  0  0  0  1  0  0  0  0  0  0
  190.8020  174.0570  140.9770 C   0  0  0  0  0  2  0  0  0  0  0  0
  188.8090  172.3010  142.2440 C   0  0  0  0  0  2  0  0  0  0  0  0
  190.1450  174.1450  143.3810 C   0  0  0  0  0  3  0  0  0  0  0  0
  190.3400  174.9660  142.1060 C   0  0  0  0  0  2  0  0  0  0  0  0
  188.4270  173.0320  140.9660 C   0  0  0  0  0  2  0  0  0  0  0  0
  188.8740  173.2910  143.4000 C   0  0  0  0  0  2  0  0  0  0  0  0
  189.6410  173.4910  140.1540 C   0  0  0  0  0  2  0  0  0  0  0  0
  188.5540  175.5400  146.4710 C   0  0  0  0  0  0  0  0  0  0  0  0
  187.5180  176.3180  146.8810 N   0  0  0  0  0  0  0  0  0  0  0  0
  187.5590  177.5810  144.9080 C   0  0  0  0  0  3  0  0  0  0  0  0
  187.0320  177.3040  146.1250 N   0  0  0  0  0  0  0  0  0  0  0  0
  188.6200  176.8190  144.4330 C   0  0  0  0  0  3  0  0  0  0  0  0
  189.0450  174.5430  147.3590 N   0  0  0  0  0  1  0  0  0  0  0  0
  189.1390  175.7700  145.2040 C   0  0  0  0  0  0  0  0  0  0  0  0
  2  1  2  0  0  0  0
  2 30  1  0  0  0  0
  3  8  1  0  0  0  0
  4  1  1  1  0  0  0
  4 10  1  0  0  0  0
  6 15  1  6  0  0  0
  6  3  1  0  0  0  0
  6  7  1  0  0  0  0
  7  9  1  0  0  0  0
  8 12  1  1  0  0  0
  8  4  1  0  0  0  0
  9  5  1  6  0  0  0
  9 10  1  0  0  0  0
 11 12  2  0  0  0  0
 12 14  1  0  0  0  0
 14 13  1  0  0  0  0
 16 15  1  0  0  0  0
 17 20  1  0  0  0  0
 18 22  1  0  0  0  0
 19 22  1  0  0  0  0
 19  2  1  0  0  0  0
 20 19  1  0  0  0  0
 21 18  1  0  0  0  0
 23 21  1  0  0  0  0
 23 17  1  0  0  0  0
 24 25  1  0  0  0  0
 24 29  1  0  0  0  0
 26 27  1  0  0  0  0
 27 25  2  0  0  0  0
 28 26  2  0  0  0  0
 28 30  1  0  0  0  0
 30 24  2  0  0  0  0
M  END
>  <MODEL>
9

>  <REMARK>
 VINA RESULT:      -6.8      3.676      6.600
  Name = 
  6 active torsions:
  status: ('A' for Active; 'I' for Inactive)
    1  A    between atoms: C_4  and  N_23
    2  A    between atoms: C_5  and  C_29
    3  A    between atoms: C_12  and  C_15
    4  A    between atoms: C_13  and  C_18
    5  A    between atoms: C_13  and  C_19
    6  A    between atoms: C_27  and  C_29
                            x       y       z     vdW  Elec       q    Type
                         _______ _______ _______ _____ _____    ______ ____

>  <TORSDO>
F 6

$$$$
