=
 OpenBabel11062423053D

 57 61  0  0  1  0  0  0  0  0999 V2000
  191.2010  171.7690  140.3180 C   0  0  1  0  0  3  0  0  0  0  0  0
  190.9230  169.9330  138.6040 N   0  0  0  0  0  0  0  0  0  0  0  0
  193.0330  168.3180  139.1720 S   0  0  0  0  0  0  0  0  0  0  0  0
  193.3280  169.9920  141.4130 C   0  0  0  0  0  2  0  0  0  0  0  0
  191.8460  172.0430  141.6990 C   0  0  2  0  0  3  0  0  0  0  0  0
  191.8430  173.4150  141.9500 O   0  0  0  0  0  1  0  0  0  0  0  0
  191.7410  168.8920  138.0810 C   0  0  0  0  0  0  0  0  0  0  0  0
  191.3540  170.2840  139.9520 C   0  0  1  0  0  3  0  0  0  0  0  0
  192.8280  169.9230  139.9900 C   0  0  2  0  0  3  0  0  0  0  0  0
  193.2870  171.4700  141.8310 C   0  0  1  0  0  3  0  0  0  0  0  0
  191.6110  168.4590  136.9060 O   0  0  0  0  0  0  0  0  0  0  0  0
  193.9300  171.7180  143.2220 C   0  0  2  0  0  0  0  0  0  0  0  0
  194.7160  170.4950  143.6910 C   0  0  0  0  0  1  0  0  0  0  0  0
  192.9210  171.9750  144.1580 O   0  0  0  0  0  1  0  0  0  0  0  0
  194.8930  172.9230  143.1320 C   0  0  2  0  0  3  0  0  0  0  0  0
  196.1340  172.6580  142.2580 C   0  0  2  0  0  3  0  0  0  0  0  0
  197.3210  172.5690  142.9900 O   0  0  0  0  0  1  0  0  0  0  0  0
  195.6650  172.9540  139.8190 C   0  0  0  0  0  2  0  0  0  0  0  0
  196.2110  173.6310  141.0830 C   0  0  2  0  0  3  0  0  0  0  0  0
  197.5890  175.2860  139.7450 C   0  0  0  0  0  2  0  0  0  0  0  0
  196.4010  175.1690  138.7770 C   0  0  0  0  0  2  0  0  0  0  0  0
  195.9930  173.7150  138.5250 C   0  0  1  0  0  3  0  0  0  0  0  0
  196.9990  173.0420  137.8290 O   0  0  0  0  0  1  0  0  0  0  0  0
  197.6080  174.2020  140.8340 C   0  0  0  0  0  2  0  0  0  0  0  0
  195.0520  173.7660  144.4210 C   0  0  2  0  0  3  0  0  0  0  0  0
  196.1290  176.0550  143.6470 C   0  0  0  0  0  1  0  0  0  0  0  0
  193.5950  175.7840  143.7500 C   0  0  0  0  0  2  0  0  0  0  0  0
  194.0360  176.0670  145.1750 C   0  0  1  0  0  0  0  0  0  0  0  0
  194.9550  175.2870  144.2380 C   0  0  1  0  0  0  0  0  0  0  0  0
  194.3860  177.4010  145.3830 O   0  0  0  0  0  1  0  0  0  0  0  0
  192.2700  174.5700  145.7710 F   0  0  0  0  0  0  0  0  0  0  0  0
  192.6950  176.2880  147.1970 O   0  0  0  0  0  1  0  0  0  0  0  0
  193.2590  175.3750  146.3030 C   0  0  2  0  0  3  0  0  0  0  0  0
  196.0550  172.2150  145.9310 O   0  0  0  0  0  1  0  0  0  0  0  0
  197.2320  174.1560  145.6220 O   0  0  0  0  0  0  0  0  0  0  0  0
  196.1400  173.3340  145.3610 C   0  0  0  0  0  0  0  0  0  0  0  0
  189.7420  170.9680  136.7310 C   0  0  0  0  0  1  0  0  0  0  0  0
  189.6050  170.2330  138.0530 C   0  0  0  0  0  2  0  0  0  0  0  0
  189.7210  172.1260  140.3810 C   0  0  0  0  0  2  0  0  0  0  0  0
  188.6340  173.2680  138.5770 O   0  0  0  0  0  1  0  0  0  0  0  0
  189.4330  173.4610  139.7050 C   0  0  1  0  0  3  0  0  0  0  0  0
  187.9770  175.5730  140.1310 C   0  0  0  0  0  2  0  0  0  0  0  0
  186.8810  175.7210  142.3690 C   0  0  1  0  0  3  0  0  0  0  0  0
  188.6530  174.0000  141.9520 C   0  0  0  0  0  3  0  0  0  0  0  0
  188.7450  174.3790  140.6650 C   0  0  0  0  0  0  0  0  0  0  0  0
  187.5010  176.5220  141.2290 C   0  0  0  0  0  2  0  0  0  0  0  0
  187.9490  174.8260  142.9940 C   0  0  0  0  0  2  0  0  0  0  0  0
  186.2610  176.6260  143.3890 C   0  0  0  0  0  3  0  0  0  0  0  0
  186.7310  177.8530  143.6390 C   0  0  0  0  0  3  0  0  0  0  0  0
  186.0710  178.7350  144.6480 C   0  0  0  0  0  2  0  0  0  0  0  0
  186.1500  178.1270  146.0070 C   0  0  0  0  0  0  0  0  0  0  0  0
  184.7620  177.7670  146.8000 S   0  0  0  0  0  0  0  0  0  0  0  0
  187.4300  177.7370  146.5210 N   0  0  0  0  0  2  0  0  0  0  0  0
  187.8560  176.3530  146.6870 C   0  0  0  0  0  2  0  0  0  0  0  0
  189.2580  176.1570  146.1330 C   0  0  0  0  0  2  0  0  0  0  0  0
  190.3810  177.2990  144.2440 C   0  0  0  0  0  1  0  0  0  0  0  0
  189.8250  177.4760  145.6420 C   0  0  0  0  0  2  0  0  0  0  0  0
  1 39  1  1  0  0  0
  1  5  1  0  0  0  0
  3  9  1  0  0  0  0
  4 10  1  0  0  0  0
  5 10  1  0  0  0  0
  5  6  1  6  0  0  0
  7  2  1  0  0  0  0
  7  3  1  0  0  0  0
  8  2  1  6  0  0  0
  8  9  1  0  0  0  0
  8  1  1  0  0  0  0
  9  4  1  1  0  0  0
 10 12  1  1  0  0  0
 11  7  2  0  0  0  0
 12 13  1  1  0  0  0
 12 14  1  0  0  0  0
 15 16  1  1  0  0  0
 15 12  1  0  0  0  0
 15 25  1  0  0  0  0
 16 17  1  1  0  0  0
 18 19  1  0  0  0  0
 19 16  1  1  0  0  0
 20 24  1  0  0  0  0
 21 20  1  0  0  0  0
 22 23  1  1  0  0  0
 22 21  1  0  0  0  0
 22 18  1  0  0  0  0
 24 19  1  0  0  0  0
 25 36  1  6  0  0  0
 27 29  1  0  0  0  0
 27 28  1  0  0  0  0
 28 30  1  1  0  0  0
 28 33  1  0  0  0  0
 29 26  1  6  0  0  0
 29 25  1  0  0  0  0
 29 28  1  0  0  0  0
 33 31  1  6  0  0  0
 33 32  1  0  0  0  0
 36 35  2  0  0  0  0
 36 34  1  0  0  0  0
 37 38  1  0  0  0  0
 38  2  1  0  0  0  0
 41 40  1  6  0  0  0
 41 39  1  0  0  0  0
 41 45  1  0  0  0  0
 42 45  1  0  0  0  0
 42 46  1  0  0  0  0
 43 47  1  0  0  0  0
 43 48  1  1  0  0  0
 44 47  1  0  0  0  0
 45 44  2  0  0  0  0
 46 43  1  0  0  0  0
 48 49  2  0  0  0  0
 49 50  1  0  0  0  0
 50 51  1  0  0  0  0
 51 53  1  0  0  0  0
 51 52  2  0  0  0  0
 53 54  1  0  0  0  0
 55 54  1  0  0  0  0
 56 57  1  0  0  0  0
 57 55  1  0  0  0  0
M  END
>  <MODEL>
1

>  <REMARK>
 VINA RESULT:      -6.1      0.000      0.000
  Name = 
  19 active torsions:
  status: ('A' for Active; 'I' for Inactive)
    1  A    between atoms: C_3  and  C_6
    2  A    between atoms: C_4  and  C_23
    3  A    between atoms: C_6  and  C_30
    4  A    between atoms: C_7  and  C_24
    5  A    between atoms: C_9  and  C_18
    6  A    between atoms: C_9  and  C_53
    7  A    between atoms: N_10  and  C_28
    8  A    between atoms: C_17  and  C_52
    9  A    between atoms: C_18  and  C_24
   10  A    between atoms: C_18  and  C_32
   11  A    between atoms: C_20  and  C_30
   12  A    between atoms: C_22  and  C_31
   13  A    between atoms: C_22  and  C_43
   14  A    between atoms: C_31  and  N_40
   15  A    between atoms: C_32  and  C_33
   16  A    between atoms: C_32  and  C_46
   17  A    between atoms: C_34  and  C_35
   18  A    between atoms: C_34  and  N_40
   19  A    between atoms: C_35  and  C_50
                            x       y       z     vdW  Elec       q    Type
                         _______ _______ _______ _____ _____    ______ ____

>  <TORSDO>
F 19

$$$$
=
 OpenBabel11062423053D

 57 61  0  0  1  0  0  0  0  0999 V2000
  191.3430  173.4720  145.1210 C   0  0  1  0  0  3  0  0  0  0  0  0
  191.0390  175.6710  146.3280 N   0  0  0  0  0  0  0  0  0  0  0  0
  193.5950  176.2850  147.0180 S   0  0  0  0  0  0  0  0  0  0  0  0
  194.2450  174.0910  145.3820 C   0  0  0  0  0  2  0  0  0  0  0  0
  192.4110  172.6530  144.3580 C   0  0  2  0  0  3  0  0  0  0  0  0
  191.9580  171.3450  144.1830 O   0  0  0  0  0  1  0  0  0  0  0  0
  191.8290  176.4770  147.1960 C   0  0  0  0  0  0  0  0  0  0  0  0
  191.8980  174.8620  145.4720 C   0  0  1  0  0  3  0  0  0  0  0  0
  193.1790  174.6870  146.2680 C   0  0  2  0  0  3  0  0  0  0  0  0
  193.8040  172.6570  145.0510 C   0  0  1  0  0  3  0  0  0  0  0  0
  191.3190  177.2160  148.0790 O   0  0  0  0  0  0  0  0  0  0  0  0
  194.8870  171.8580  144.2780 C   0  0  2  0  0  0  0  0  0  0  0  0
  194.7780  170.3620  144.5650 C   0  0  0  0  0  1  0  0  0  0  0  0
  196.1560  172.2900  144.6840 O   0  0  0  0  0  1  0  0  0  0  0  0
  194.7060  172.0870  142.7610 C   0  0  2  0  0  3  0  0  0  0  0  0
  194.4190  170.7950  141.9710 C   0  0  2  0  0  3  0  0  0  0  0  0
  195.5740  170.1070  141.5930 O   0  0  0  0  0  1  0  0  0  0  0  0
  192.0840  170.4340  141.1510 C   0  0  0  0  0  2  0  0  0  0  0  0
  193.4500  171.0470  140.8170 C   0  0  2  0  0  3  0  0  0  0  0  0
  193.0080  170.9710  138.3220 C   0  0  0  0  0  2  0  0  0  0  0  0
  191.5690  171.2460  138.7830 C   0  0  0  0  0  2  0  0  0  0  0  0
  191.1410  170.3400  139.9410 C   0  0  1  0  0  3  0  0  0  0  0  0
  191.0580  169.0140  139.5140 O   0  0  0  0  0  1  0  0  0  0  0  0
  193.9520  170.5520  139.4600 C   0  0  0  0  0  2  0  0  0  0  0  0
  195.6100  173.1690  142.1220 C   0  0  2  0  0  3  0  0  0  0  0  0
  194.1080  174.2130  140.2110 C   0  0  0  0  0  1  0  0  0  0  0  0
  194.1770  175.2720  142.5300 C   0  0  0  0  0  2  0  0  0  0  0  0
  195.4200  175.7700  141.8150 C   0  0  1  0  0  0  0  0  0  0  0  0
  194.8800  174.3740  141.5140 C   0  0  1  0  0  0  0  0  0  0  0  0
  195.1430  176.7390  140.8510 O   0  0  0  0  0  1  0  0  0  0  0  0
  196.5890  177.1680  143.3610 F   0  0  0  0  0  0  0  0  0  0  0  0
  197.8460  175.9790  141.8880 O   0  0  0  0  0  1  0  0  0  0  0  0
  196.6820  175.9810  142.6600 C   0  0  2  0  0  3  0  0  0  0  0  0
  196.6580  172.6890  140.0320 O   0  0  0  0  0  0  0  0  0  0  0  0
  197.9050  172.1580  141.8790 O   0  0  0  0  0  1  0  0  0  0  0  0
  196.7530  172.6640  141.2870 C   0  0  0  0  0  0  0  0  0  0  0  0
  188.7380  175.3630  147.0930 C   0  0  0  0  0  1  0  0  0  0  0  0
  189.6420  175.9820  146.0410 C   0  0  0  0  0  2  0  0  0  0  0  0
  190.1100  173.6270  144.2390 C   0  0  0  0  0  2  0  0  0  0  0  0
  190.5620  173.5430  141.8870 O   0  0  0  0  0  1  0  0  0  0  0  0
  190.4180  174.4130  142.9700 C   0  0  1  0  0  3  0  0  0  0  0  0
  189.6650  176.8120  142.3090 C   0  0  0  0  0  2  0  0  0  0  0  0
  187.3110  177.0470  141.5130 C   0  0  1  0  0  3  0  0  0  0  0  0
  188.0620  174.9170  142.5980 C   0  0  0  0  0  3  0  0  0  0  0  0
  189.3170  175.3880  142.6960 C   0  0  0  0  0  0  0  0  0  0  0  0
  188.4500  177.7360  142.2570 C   0  0  0  0  0  2  0  0  0  0  0  0
  186.8840  175.8010  142.2870 C   0  0  0  0  0  2  0  0  0  0  0  0
  186.1580  177.9820  141.3050 C   0  0  0  0  0  3  0  0  0  0  0  0
  185.1590  177.7090  140.4600 C   0  0  0  0  0  3  0  0  0  0  0  0
  184.0140  178.6570  140.2980 C   0  0  0  0  0  2  0  0  0  0  0  0
  183.0210  178.4720  141.3950 C   0  0  0  0  0  0  0  0  0  0  0  0
  181.4240  178.4490  141.0270 S   0  0  0  0  0  0  0  0  0  0  0  0
  183.4910  178.1710  142.7150 N   0  0  0  0  0  2  0  0  0  0  0  0
  183.4450  179.1050  143.8320 C   0  0  0  0  0  2  0  0  0  0  0  0
  184.8350  179.3090  144.4130 C   0  0  0  0  0  2  0  0  0  0  0  0
  186.7620  178.1320  145.4300 C   0  0  0  0  0  1  0  0  0  0  0  0
  185.2650  178.0870  145.2030 C   0  0  0  0  0  2  0  0  0  0  0  0
  1 39  1  6  0  0  0
  1  8  1  0  0  0  0
  2  7  1  0  0  0  0
  3  7  1  0  0  0  0
  5  6  1  1  0  0  0
  5 10  1  0  0  0  0
  5  1  1  0  0  0  0
  7 11  2  0  0  0  0
  8  9  1  0  0  0  0
  8  2  1  1  0  0  0
  9  4  1  6  0  0  0
  9  3  1  0  0  0  0
 10 12  1  6  0  0  0
 10  4  1  0  0  0  0
 12 13  1  1  0  0  0
 12 14  1  0  0  0  0
 15 16  1  6  0  0  0
 15 12  1  0  0  0  0
 16 17  1  6  0  0  0
 19 18  1  0  0  0  0
 19 16  1  1  0  0  0
 20 21  1  0  0  0  0
 20 24  1  0  0  0  0
 21 22  1  0  0  0  0
 22 23  1  6  0  0  0
 22 18  1  0  0  0  0
 24 19  1  0  0  0  0
 25 36  1  6  0  0  0
 25 15  1  0  0  0  0
 28 30  1  6  0  0  0
 28 27  1  0  0  0  0
 28 33  1  0  0  0  0
 29 26  1  6  0  0  0
 29 28  1  0  0  0  0
 29 25  1  0  0  0  0
 29 27  1  0  0  0  0
 33 32  1  6  0  0  0
 33 31  1  0  0  0  0
 34 36  2  0  0  0  0
 36 35  1  0  0  0  0
 38  2  1  0  0  0  0
 38 37  1  0  0  0  0
 41 40  1  6  0  0  0
 41 39  1  0  0  0  0
 42 45  1  0  0  0  0
 43 48  1  1  0  0  0
 43 46  1  0  0  0  0
 43 47  1  0  0  0  0
 44 45  2  0  0  0  0
 45 41  1  0  0  0  0
 46 42  1  0  0  0  0
 47 44  1  0  0  0  0
 49 48  2  0  0  0  0
 50 49  1  0  0  0  0
 50 51  1  0  0  0  0
 51 53  1  0  0  0  0
 52 51  2  0  0  0  0
 53 54  1  0  0  0  0
 54 55  1  0  0  0  0
 55 57  1  0  0  0  0
 57 56  1  0  0  0  0
M  END
>  <MODEL>
2

>  <REMARK>
 VINA RESULT:      -5.9      2.947      5.666
  Name = 
  19 active torsions:
  status: ('A' for Active; 'I' for Inactive)
    1  A    between atoms: C_3  and  C_6
    2  A    between atoms: C_4  and  C_23
    3  A    between atoms: C_6  and  C_30
    4  A    between atoms: C_7  and  C_24
    5  A    between atoms: C_9  and  C_18
    6  A    between atoms: C_9  and  C_53
    7  A    between atoms: N_10  and  C_28
    8  A    between atoms: C_17  and  C_52
    9  A    between atoms: C_18  and  C_24
   10  A    between atoms: C_18  and  C_32
   11  A    between atoms: C_20  and  C_30
   12  A    between atoms: C_22  and  C_31
   13  A    between atoms: C_22  and  C_43
   14  A    between atoms: C_31  and  N_40
   15  A    between atoms: C_32  and  C_33
   16  A    between atoms: C_32  and  C_46
   17  A    between atoms: C_34  and  C_35
   18  A    between atoms: C_34  and  N_40
   19  A    between atoms: C_35  and  C_50
                            x       y       z     vdW  Elec       q    Type
                         _______ _______ _______ _____ _____    ______ ____

>  <TORSDO>
F 19

$$$$
=
 OpenBabel11062423053D

 57 61  0  0  1  0  0  0  0  0999 V2000
  190.7570  175.9020  142.7020 C   0  0  1  0  0  3  0  0  0  0  0  0
  188.9000  174.2640  142.1970 N   0  0  0  0  0  0  0  0  0  0  0  0
  189.9480  171.9330  143.1210 S   0  0  0  0  0  0  0  0  0  0  0  0
  191.9670  173.5980  144.1520 C   0  0  0  0  0  2  0  0  0  0  0  0
  191.9790  176.0910  143.6330 C   0  0  2  0  0  3  0  0  0  0  0  0
  192.7590  177.1510  143.1680 O   0  0  0  0  0  1  0  0  0  0  0  0
  188.7790  172.8470  142.1280 C   0  0  0  0  0  0  0  0  0  0  0  0
  189.9840  174.6340  143.0980 C   0  0  1  0  0  3  0  0  0  0  0  0
  190.9370  173.4530  143.0590 C   0  0  2  0  0  3  0  0  0  0  0  0
  192.8430  174.8060  143.7840 C   0  0  1  0  0  3  0  0  0  0  0  0
  187.9570  172.2770  141.3620 O   0  0  0  0  0  0  0  0  0  0  0  0
  194.0560  174.9800  144.7370 C   0  0  2  0  0  0  0  0  0  0  0  0
  193.6960  174.5790  146.1660 C   0  0  0  0  0  1  0  0  0  0  0  0
  194.4470  176.3250  144.7450 O   0  0  0  0  0  1  0  0  0  0  0  0
  195.2210  174.0890  144.2500 C   0  0  2  0  0  3  0  0  0  0  0  0
  196.2220  173.7190  145.3620 C   0  0  2  0  0  3  0  0  0  0  0  0
  197.5400  174.0690  145.0610 O   0  0  0  0  0  1  0  0  0  0  0  0
  197.3830  171.5170  145.5990 C   0  0  0  0  0  2  0  0  0  0  0  0
  196.0590  172.2650  145.8010 C   0  0  2  0  0  3  0  0  0  0  0  0
  194.6990  170.1280  145.7090 C   0  0  0  0  0  2  0  0  0  0  0  0
  195.9520  169.5520  146.3880 C   0  0  0  0  0  2  0  0  0  0  0  0
  197.2470  169.9890  145.6960 C   0  0  1  0  0  3  0  0  0  0  0  0
  197.3280  169.4300  144.4200 O   0  0  0  0  0  1  0  0  0  0  0  0
  194.9070  171.5290  145.1150 C   0  0  0  0  0  2  0  0  0  0  0  0
  195.7580  174.3860  142.8280 C   0  0  2  0  0  3  0  0  0  0  0  0
  196.9510  172.1330  142.1210 C   0  0  0  0  0  1  0  0  0  0  0  0
  194.5250  172.5740  141.4700 C   0  0  0  0  0  2  0  0  0  0  0  0
  195.3660  173.3290  140.4570 C   0  0  1  0  0  0  0  0  0  0  0  0
  195.8650  173.1750  141.8910 C   0  0  1  0  0  0  0  0  0  0  0  0
  195.9710  172.4920  139.5190 O   0  0  0  0  0  1  0  0  0  0  0  0
  193.5810  174.4600  139.3400 F   0  0  0  0  0  0  0  0  0  0  0  0
  195.6780  175.2790  139.0290 O   0  0  0  0  0  1  0  0  0  0  0  0
  194.8120  174.6610  139.9340 C   0  0  2  0  0  3  0  0  0  0  0  0
  197.9410  174.9910  142.0800 O   0  0  0  0  0  0  0  0  0  0  0  0
  196.9130  176.5470  143.4100 O   0  0  0  0  0  1  0  0  0  0  0  0
  196.9270  175.3240  142.7480 C   0  0  0  0  0  0  0  0  0  0  0  0
  187.8870  175.4510  140.3150 C   0  0  0  0  0  1  0  0  0  0  0  0
  187.8110  175.1540  141.8030 C   0  0  0  0  0  2  0  0  0  0  0  0
  189.8420  177.1140  142.8300 C   0  0  0  0  0  2  0  0  0  0  0  0
  189.9050  178.1630  144.9840 O   0  0  0  0  0  1  0  0  0  0  0  0
  189.2250  177.2120  144.2200 C   0  0  1  0  0  3  0  0  0  0  0  0
  186.8560  177.3320  145.2860 C   0  0  0  0  0  2  0  0  0  0  0  0
  185.2380  178.8920  144.1990 C   0  0  1  0  0  3  0  0  0  0  0  0
  187.3940  178.3230  143.0550 C   0  0  0  0  0  3  0  0  0  0  0  0
  187.7810  177.5850  144.1110 C   0  0  0  0  0  0  0  0  0  0  0  0
  185.3840  177.5780  144.9570 C   0  0  0  0  0  2  0  0  0  0  0  0
  185.9760  178.7880  142.8640 C   0  0  0  0  0  2  0  0  0  0  0  0
  183.7950  179.2430  143.9990 C   0  0  0  0  0  3  0  0  0  0  0  0
  183.0470  178.6810  143.0430 C   0  0  0  0  0  3  0  0  0  0  0  0
  181.6040  179.0400  142.8910 C   0  0  0  0  0  2  0  0  0  0  0  0
  181.0760  178.5420  141.5880 C   0  0  0  0  0  0  0  0  0  0  0  0
  182.1320  178.0410  140.4400 S   0  0  0  0  0  0  0  0  0  0  0  0
  179.6610  178.3730  141.4310 N   0  0  0  0  0  2  0  0  0  0  0  0
  178.7180  179.4750  141.2860 C   0  0  0  0  0  2  0  0  0  0  0  0
  178.8520  180.1140  139.9130 C   0  0  0  0  0  2  0  0  0  0  0  0
  179.1240  182.4240  139.0640 C   0  0  0  0  0  1  0  0  0  0  0  0
  179.6960  181.3720  139.9930 C   0  0  0  0  0  2  0  0  0  0  0  0
  1 39  1  1  0  0  0
  1  8  1  0  0  0  0
  1  5  1  0  0  0  0
  5  6  1  6  0  0  0
  5 10  1  0  0  0  0
  7  2  1  0  0  0  0
  7  3  1  0  0  0  0
  8  2  1  6  0  0  0
  9  8  1  0  0  0  0
  9  3  1  0  0  0  0
  9  4  1  1  0  0  0
 10  4  1  0  0  0  0
 10 12  1  1  0  0  0
 11  7  2  0  0  0  0
 12 14  1  0  0  0  0
 12 13  1  1  0  0  0
 15 25  1  6  0  0  0
 15 12  1  0  0  0  0
 15 16  1  0  0  0  0
 16 17  1  6  0  0  0
 18 22  1  0  0  0  0
 18 19  1  0  0  0  0
 19 16  1  6  0  0  0
 20 21  1  0  0  0  0
 22 23  1  6  0  0  0
 22 21  1  0  0  0  0
 24 20  1  0  0  0  0
 24 19  1  0  0  0  0
 25 36  1  1  0  0  0
 27 29  1  0  0  0  0
 28 30  1  6  0  0  0
 28 27  1  0  0  0  0
 28 29  1  0  0  0  0
 29 26  1  1  0  0  0
 29 25  1  0  0  0  0
 31 33  1  0  0  0  0
 33 32  1  6  0  0  0
 33 28  1  0  0  0  0
 34 36  2  0  0  0  0
 36 35  1  0  0  0  0
 37 38  1  0  0  0  0
 38  2  1  0  0  0  0
 39 41  1  0  0  0  0
 41 40  1  1  0  0  0
 43 48  1  6  0  0  0
 43 46  1  0  0  0  0
 44 45  2  0  0  0  0
 45 41  1  0  0  0  0
 45 42  1  0  0  0  0
 46 42  1  0  0  0  0
 47 44  1  0  0  0  0
 47 43  1  0  0  0  0
 49 48  2  0  0  0  0
 50 49  1  0  0  0  0
 51 50  1  0  0  0  0
 52 51  2  0  0  0  0
 53 51  1  0  0  0  0
 54 53  1  0  0  0  0
 55 57  1  0  0  0  0
 55 54  1  0  0  0  0
 56 57  1  0  0  0  0
M  END
>  <MODEL>
3

>  <REMARK>
 VINA RESULT:      -5.7      3.733      6.368
  Name = 
  19 active torsions:
  status: ('A' for Active; 'I' for Inactive)
    1  A    between atoms: C_3  and  C_6
    2  A    between atoms: C_4  and  C_23
    3  A    between atoms: C_6  and  C_30
    4  A    between atoms: C_7  and  C_24
    5  A    between atoms: C_9  and  C_18
    6  A    between atoms: C_9  and  C_53
    7  A    between atoms: N_10  and  C_28
    8  A    between atoms: C_17  and  C_52
    9  A    between atoms: C_18  and  C_24
   10  A    between atoms: C_18  and  C_32
   11  A    between atoms: C_20  and  C_30
   12  A    between atoms: C_22  and  C_31
   13  A    between atoms: C_22  and  C_43
   14  A    between atoms: C_31  and  N_40
   15  A    between atoms: C_32  and  C_33
   16  A    between atoms: C_32  and  C_46
   17  A    between atoms: C_34  and  C_35
   18  A    between atoms: C_34  and  N_40
   19  A    between atoms: C_35  and  C_50
                            x       y       z     vdW  Elec       q    Type
                         _______ _______ _______ _____ _____    ______ ____

>  <TORSDO>
F 19

$$$$
=
 OpenBabel11062423053D

 57 61  0  0  1  0  0  0  0  0999 V2000
  191.4360  171.6790  140.1880 C   0  0  1  0  0  3  0  0  0  0  0  0
  191.2920  170.2530  138.1070 N   0  0  0  0  0  0  0  0  0  0  0  0
  193.7550  169.1060  138.0480 S   0  0  0  0  0  0  0  0  0  0  0  0
  194.0280  170.2680  140.5950 C   0  0  0  0  0  2  0  0  0  0  0  0
  192.2100  171.7890  141.5240 C   0  0  2  0  0  3  0  0  0  0  0  0
  191.9570  173.0320  142.1070 O   0  0  0  0  0  1  0  0  0  0  0  0
  192.2210  169.5780  137.2650 C   0  0  0  0  0  0  0  0  0  0  0  0
  191.8390  170.3920  139.4520 C   0  0  1  0  0  3  0  0  0  0  0  0
  193.3440  170.3950  139.2560 C   0  0  2  0  0  3  0  0  0  0  0  0
  193.7420  171.5640  141.3690 C   0  0  1  0  0  3  0  0  0  0  0  0
  192.0090  169.3950  136.0380 O   0  0  0  0  0  0  0  0  0  0  0  0
  194.5220  171.6470  142.7090 C   0  0  2  0  0  0  0  0  0  0  0  0
  195.6530  170.6210  142.7520 C   0  0  0  0  0  1  0  0  0  0  0  0
  193.6470  171.3810  143.7690 O   0  0  0  0  0  1  0  0  0  0  0  0
  195.1280  173.0600  142.8600 C   0  0  2  0  0  3  0  0  0  0  0  0
  196.5260  173.2040  142.2280 C   0  0  2  0  0  3  0  0  0  0  0  0
  197.4630  173.7940  143.0800 O   0  0  0  0  0  1  0  0  0  0  0  0
  195.0750  174.5020  140.6580 C   0  0  0  0  0  2  0  0  0  0  0  0
  196.4540  173.8580  140.8490 C   0  0  2  0  0  3  0  0  0  0  0  0
  196.8420  173.6640  138.3520 C   0  0  0  0  0  2  0  0  0  0  0  0
  196.0400  174.9750  138.3400 C   0  0  0  0  0  2  0  0  0  0  0  0
  194.7780  174.8980  139.2030 C   0  0  1  0  0  3  0  0  0  0  0  0
  193.8660  173.9980  138.6500 O   0  0  0  0  0  1  0  0  0  0  0  0
  196.7790  172.9140  139.6910 C   0  0  0  0  0  2  0  0  0  0  0  0
  194.8310  173.7910  144.1920 C   0  0  2  0  0  3  0  0  0  0  0  0
  195.4540  176.3000  143.6320 C   0  0  0  0  0  1  0  0  0  0  0  0
  193.0390  175.4960  143.4680 C   0  0  0  0  0  2  0  0  0  0  0  0
  193.2810  175.7730  144.9410 C   0  0  1  0  0  0  0  0  0  0  0  0
  194.4250  175.2660  144.0680 C   0  0  1  0  0  0  0  0  0  0  0  0
  193.3150  177.1350  145.2410 O   0  0  0  0  0  1  0  0  0  0  0  0
  191.4980  174.2360  145.3560 F   0  0  0  0  0  0  0  0  0  0  0  0
  192.1450  175.5590  147.0860 O   0  0  0  0  0  1  0  0  0  0  0  0
  192.5740  174.8630  145.9540 C   0  0  2  0  0  3  0  0  0  0  0  0
  196.2490  174.4760  145.9850 O   0  0  0  0  0  1  0  0  0  0  0  0
  196.1630  172.2140  145.6360 O   0  0  0  0  0  0  0  0  0  0  0  0
  195.7820  173.5140  145.3220 C   0  0  0  0  0  0  0  0  0  0  0  0
  189.6450  171.3920  136.7060 C   0  0  0  0  0  1  0  0  0  0  0  0
  189.8720  170.3410  137.7780 C   0  0  0  0  0  2  0  0  0  0  0  0
  189.9410  171.6490  140.4810 C   0  0  0  0  0  2  0  0  0  0  0  0
  188.0400  172.6060  139.3800 O   0  0  0  0  0  1  0  0  0  0  0  0
  189.2460  172.9210  140.0090 C   0  0  1  0  0  3  0  0  0  0  0  0
  189.1110  173.2720  142.5820 C   0  0  0  0  0  2  0  0  0  0  0  0
  189.2000  175.6370  143.3760 C   0  0  1  0  0  3  0  0  0  0  0  0
  188.8740  175.1420  140.9410 C   0  0  0  0  0  3  0  0  0  0  0  0
  188.9930  173.8240  141.1740 C   0  0  0  0  0  0  0  0  0  0  0  0
  188.6330  174.2490  143.6540 C   0  0  0  0  0  2  0  0  0  0  0  0
  188.6570  176.1460  142.0410 C   0  0  0  0  0  2  0  0  0  0  0  0
  188.8810  176.5850  144.4920 C   0  0  0  0  0  3  0  0  0  0  0  0
  187.8120  176.4290  145.2790 C   0  0  0  0  0  3  0  0  0  0  0  0
  187.5400  177.3830  146.3980 C   0  0  0  0  0  2  0  0  0  0  0  0
  186.3450  178.2210  146.0930 C   0  0  0  0  0  0  0  0  0  0  0  0
  185.2230  178.4610  147.2630 S   0  0  0  0  0  0  0  0  0  0  0  0
  186.2850  178.9170  144.8410 N   0  0  0  0  0  2  0  0  0  0  0  0
  185.0540  179.4170  144.2430 C   0  0  0  0  0  2  0  0  0  0  0  0
  184.3450  178.3090  143.4790 C   0  0  0  0  0  2  0  0  0  0  0  0
  185.4960  178.2260  141.2880 C   0  0  0  0  0  1  0  0  0  0  0  0
  185.3330  177.5360  142.6260 C   0  0  0  0  0  2  0  0  0  0  0  0
  1 39  1  1  0  0  0
  1  5  1  0  0  0  0
  3  9  1  0  0  0  0
  4 10  1  0  0  0  0
  5  6  1  6  0  0  0
  7  3  1  0  0  0  0
  7  2  1  0  0  0  0
  8  2  1  6  0  0  0
  8  1  1  0  0  0  0
  9  8  1  0  0  0  0
  9  4  1  1  0  0  0
 10  5  1  0  0  0  0
 10 12  1  1  0  0  0
 11  7  2  0  0  0  0
 12 13  1  6  0  0  0
 12 15  1  0  0  0  0
 12 14  1  0  0  0  0
 15 16  1  1  0  0  0
 15 25  1  0  0  0  0
 16 17  1  1  0  0  0
 18 19  1  0  0  0  0
 19 16  1  1  0  0  0
 20 24  1  0  0  0  0
 21 20  1  0  0  0  0
 21 22  1  0  0  0  0
 22 23  1  6  0  0  0
 22 18  1  0  0  0  0
 24 19  1  0  0  0  0
 25 36  1  1  0  0  0
 27 29  1  0  0  0  0
 27 28  1  0  0  0  0
 28 30  1  1  0  0  0
 28 33  1  0  0  0  0
 29 26  1  6  0  0  0
 29 25  1  0  0  0  0
 29 28  1  0  0  0  0
 33 31  1  6  0  0  0
 33 32  1  0  0  0  0
 36 35  2  0  0  0  0
 36 34  1  0  0  0  0
 37 38  1  0  0  0  0
 38  2  1  0  0  0  0
 41 40  1  1  0  0  0
 41 39  1  0  0  0  0
 41 45  1  0  0  0  0
 42 46  1  0  0  0  0
 43 46  1  0  0  0  0
 43 48  1  1  0  0  0
 44 45  2  0  0  0  0
 44 47  1  0  0  0  0
 45 42  1  0  0  0  0
 47 43  1  0  0  0  0
 48 49  2  0  0  0  0
 49 50  1  0  0  0  0
 51 50  1  0  0  0  0
 51 52  2  0  0  0  0
 53 51  1  0  0  0  0
 54 53  1  0  0  0  0
 55 54  1  0  0  0  0
 56 57  1  0  0  0  0
 57 55  1  0  0  0  0
M  END
>  <MODEL>
4

>  <REMARK>
 VINA RESULT:      -5.7      1.187      2.087
  Name = 
  19 active torsions:
  status: ('A' for Active; 'I' for Inactive)
    1  A    between atoms: C_3  and  C_6
    2  A    between atoms: C_4  and  C_23
    3  A    between atoms: C_6  and  C_30
    4  A    between atoms: C_7  and  C_24
    5  A    between atoms: C_9  and  C_18
    6  A    between atoms: C_9  and  C_53
    7  A    between atoms: N_10  and  C_28
    8  A    between atoms: C_17  and  C_52
    9  A    between atoms: C_18  and  C_24
   10  A    between atoms: C_18  and  C_32
   11  A    between atoms: C_20  and  C_30
   12  A    between atoms: C_22  and  C_31
   13  A    between atoms: C_22  and  C_43
   14  A    between atoms: C_31  and  N_40
   15  A    between atoms: C_32  and  C_33
   16  A    between atoms: C_32  and  C_46
   17  A    between atoms: C_34  and  C_35
   18  A    between atoms: C_34  and  N_40
   19  A    between atoms: C_35  and  C_50
                            x       y       z     vdW  Elec       q    Type
                         _______ _______ _______ _____ _____    ______ ____

>  <TORSDO>
F 19

$$$$
=
 OpenBabel11062423053D

 57 61  0  0  1  0  0  0  0  0999 V2000
  194.5240  174.4290  142.7780 C   0  0  1  0  0  3  0  0  0  0  0  0
  196.5640  173.4690  143.9170 N   0  0  0  0  0  0  0  0  0  0  0  0
  197.2750  171.4840  142.2020 S   0  0  0  0  0  0  0  0  0  0  0  0
  195.3060  172.6190  140.5450 C   0  0  0  0  0  2  0  0  0  0  0  0
  193.8590  174.5380  141.3840 C   0  0  2  0  0  3  0  0  0  0  0  0
  192.5470  174.9920  141.5280 O   0  0  0  0  0  1  0  0  0  0  0  0
  197.3300  172.2740  143.8020 C   0  0  0  0  0  0  0  0  0  0  0  0
  195.9050  173.7670  142.6510 C   0  0  1  0  0  3  0  0  0  0  0  0
  195.7370  172.4180  141.9770 C   0  0  2  0  0  3  0  0  0  0  0  0
  193.8860  173.2050  140.5830 C   0  0  1  0  0  3  0  0  0  0  0  0
  197.9410  171.7680  144.7810 O   0  0  0  0  0  0  0  0  0  0  0  0
  193.2440  173.3120  139.1730 C   0  0  2  0  0  0  0  0  0  0  0  0
  194.2590  172.9860  138.0790 C   0  0  0  0  0  1  0  0  0  0  0  0
  192.7890  174.6210  138.9730 O   0  0  0  0  0  1  0  0  0  0  0  0
  192.0660  172.3170  139.0710 C   0  0  2  0  0  3  0  0  0  0  0  0
  191.4420  171.9560  140.4320 C   0  0  2  0  0  3  0  0  0  0  0  0
  190.9930  170.6350  140.5040 O   0  0  0  0  0  1  0  0  0  0  0  0
  189.5810  172.4280  142.0350 C   0  0  0  0  0  2  0  0  0  0  0  0
  190.3950  172.9840  140.8600 C   0  0  2  0  0  3  0  0  0  0  0  0
  188.5510  174.5860  140.1840 C   0  0  0  0  0  2  0  0  0  0  0  0
  188.3190  174.6250  141.7030 C   0  0  0  0  0  2  0  0  0  0  0  0
  188.3020  173.2280  142.3290 C   0  0  1  0  0  3  0  0  0  0  0  0
  187.1890  172.5120  141.8860 O   0  0  0  0  0  1  0  0  0  0  0  0
  189.4740  173.4460  139.7290 C   0  0  0  0  0  2  0  0  0  0  0  0
  192.1970  171.2140  137.9920 C   0  0  2  0  0  3  0  0  0  0  0  0
  189.7730  170.3410  137.3960 C   0  0  0  0  0  1  0  0  0  0  0  0
  190.7410  172.3840  136.2150 C   0  0  0  0  0  2  0  0  0  0  0  0
  191.3390  171.1800  135.5110 C   0  0  1  0  0  0  0  0  0  0  0  0
  191.0280  171.1070  137.0030 C   0  0  1  0  0  0  0  0  0  0  0  0
  190.4300  170.5280  134.6770 O   0  0  0  0  0  1  0  0  0  0  0  0
  193.6050  170.4370  135.6690 F   0  0  0  0  0  0  0  0  0  0  0  0
  193.2690  172.6130  135.1080 O   0  0  0  0  0  1  0  0  0  0  0  0
  192.7770  171.3110  134.9920 C   0  0  2  0  0  3  0  0  0  0  0  0
  192.1570  168.8300  138.0780 O   0  0  0  0  0  0  0  0  0  0  0  0
  193.8020  169.8120  139.3350 O   0  0  0  0  0  1  0  0  0  0  0  0
  192.7190  169.8880  138.4650 C   0  0  0  0  0  0  0  0  0  0  0  0
  196.4640  173.8530  146.3290 C   0  0  0  0  0  1  0  0  0  0  0  0
  196.8080  174.4460  144.9730 C   0  0  0  0  0  2  0  0  0  0  0  0
  194.6830  175.8270  143.3630 C   0  0  0  0  0  2  0  0  0  0  0  0
  194.5600  177.0600  145.4140 O   0  0  0  0  0  1  0  0  0  0  0  0
  194.0700  175.9310  144.7550 C   0  0  1  0  0  3  0  0  0  0  0  0
  191.7340  174.9050  145.2560 C   0  0  0  0  0  2  0  0  0  0  0  0
  189.7880  176.4590  145.0770 C   0  0  1  0  0  3  0  0  0  0  0  0
  192.0340  177.1550  144.2080 C   0  0  0  0  0  3  0  0  0  0  0  0
  192.5800  176.0090  144.6500 C   0  0  0  0  0  0  0  0  0  0  0  0
  190.2530  175.0180  144.8990 C   0  0  0  0  0  2  0  0  0  0  0  0
  190.5460  177.3570  144.1000 C   0  0  0  0  0  2  0  0  0  0  0  0
  188.3060  176.5760  144.8880 C   0  0  0  0  0  3  0  0  0  0  0  0
  187.4460  176.4790  145.9070 C   0  0  0  0  0  3  0  0  0  0  0  0
  185.9750  176.6240  145.6820 C   0  0  0  0  0  2  0  0  0  0  0  0
  185.4690  177.8740  146.3190 C   0  0  0  0  0  0  0  0  0  0  0  0
  186.2620  178.4830  147.6170 S   0  0  0  0  0  0  0  0  0  0  0  0
  184.3970  178.5890  145.6910 N   0  0  0  0  0  2  0  0  0  0  0  0
  184.3430  178.8960  144.2670 C   0  0  0  0  0  2  0  0  0  0  0  0
  185.6040  179.6260  143.8310 C   0  0  0  0  0  2  0  0  0  0  0  0
  185.3500  178.2820  141.7670 C   0  0  0  0  0  1  0  0  0  0  0  0
  186.3420  178.8270  142.7740 C   0  0  0  0  0  2  0  0  0  0  0  0
  1 39  1  6  0  0  0
  2 38  1  0  0  0  0
  3  7  1  0  0  0  0
  4 10  1  0  0  0  0
  5  6  1  1  0  0  0
  5  1  1  0  0  0  0
  7  2  1  0  0  0  0
  7 11  2  0  0  0  0
  8  1  1  0  0  0  0
  8  2  1  1  0  0  0
  9  4  1  6  0  0  0
  9  3  1  0  0  0  0
  9  8  1  0  0  0  0
 10 12  1  6  0  0  0
 10  5  1  0  0  0  0
 12 13  1  6  0  0  0
 14 12  1  0  0  0  0
 15 25  1  1  0  0  0
 15 12  1  0  0  0  0
 15 16  1  0  0  0  0
 16 17  1  6  0  0  0
 18 22  1  0  0  0  0
 19 16  1  6  0  0  0
 19 18  1  0  0  0  0
 20 21  1  0  0  0  0
 21 22  1  0  0  0  0
 22 23  1  6  0  0  0
 24 20  1  0  0  0  0
 24 19  1  0  0  0  0
 25 36  1  1  0  0  0
 27 29  1  0  0  0  0
 28 30  1  6  0  0  0
 28 27  1  0  0  0  0
 28 29  1  0  0  0  0
 29 26  1  1  0  0  0
 29 25  1  0  0  0  0
 33 32  1  1  0  0  0
 33 28  1  0  0  0  0
 33 31  1  0  0  0  0
 34 36  2  0  0  0  0
 36 35  1  0  0  0  0
 38 37  1  0  0  0  0
 39 41  1  0  0  0  0
 41 40  1  6  0  0  0
 43 48  1  6  0  0  0
 44 45  2  0  0  0  0
 45 41  1  0  0  0  0
 45 42  1  0  0  0  0
 46 43  1  0  0  0  0
 46 42  1  0  0  0  0
 47 44  1  0  0  0  0
 47 43  1  0  0  0  0
 48 49  2  0  0  0  0
 50 49  1  0  0  0  0
 50 51  1  0  0  0  0
 51 52  2  0  0  0  0
 53 51  1  0  0  0  0
 54 53  1  0  0  0  0
 55 54  1  0  0  0  0
 56 57  1  0  0  0  0
 57 55  1  0  0  0  0
M  END
>  <MODEL>
5

>  <REMARK>
 VINA RESULT:      -5.6      2.776      7.418
  Name = 
  19 active torsions:
  status: ('A' for Active; 'I' for Inactive)
    1  A    between atoms: C_3  and  C_6
    2  A    between atoms: C_4  and  C_23
    3  A    between atoms: C_6  and  C_30
    4  A    between atoms: C_7  and  C_24
    5  A    between atoms: C_9  and  C_18
    6  A    between atoms: C_9  and  C_53
    7  A    between atoms: N_10  and  C_28
    8  A    between atoms: C_17  and  C_52
    9  A    between atoms: C_18  and  C_24
   10  A    between atoms: C_18  and  C_32
   11  A    between atoms: C_20  and  C_30
   12  A    between atoms: C_22  and  C_31
   13  A    between atoms: C_22  and  C_43
   14  A    between atoms: C_31  and  N_40
   15  A    between atoms: C_32  and  C_33
   16  A    between atoms: C_32  and  C_46
   17  A    between atoms: C_34  and  C_35
   18  A    between atoms: C_34  and  N_40
   19  A    between atoms: C_35  and  C_50
                            x       y       z     vdW  Elec       q    Type
                         _______ _______ _______ _____ _____    ______ ____

>  <TORSDO>
F 19

$$$$
=
 OpenBabel11062423053D

 57 61  0  0  1  0  0  0  0  0999 V2000
  194.1490  172.9710  143.0700 C   0  0  1  0  0  3  0  0  0  0  0  0
  194.7890  175.3220  143.7380 N   0  0  0  0  0  0  0  0  0  0  0  0
  195.8850  176.2750  141.4410 S   0  0  0  0  0  0  0  0  0  0  0  0
  194.9110  173.8780  140.3360 C   0  0  0  0  0  2  0  0  0  0  0  0
  193.8210  172.1190  141.8200 C   0  0  2  0  0  3  0  0  0  0  0  0
  193.8200  170.7670  142.1650 O   0  0  0  0  0  1  0  0  0  0  0  0
  195.6280  176.3430  143.2060 C   0  0  0  0  0  0  0  0  0  0  0  0
  194.3250  174.4450  142.6710 C   0  0  1  0  0  3  0  0  0  0  0  0
  195.4010  174.5340  141.6040 C   0  0  2  0  0  3  0  0  0  0  0  0
  194.7880  172.3750  140.6280 C   0  0  1  0  0  3  0  0  0  0  0  0
  196.2090  177.1870  143.9380 O   0  0  0  0  0  0  0  0  0  0  0  0
  194.4500  171.5430  139.3620 C   0  0  2  0  0  0  0  0  0  0  0  0
  194.0960  170.1020  139.7280 C   0  0  0  0  0  1  0  0  0  0  0  0
  195.5660  171.5180  138.5150 O   0  0  0  0  0  1  0  0  0  0  0  0
  193.2450  172.1810  138.6370 C   0  0  2  0  0  3  0  0  0  0  0  0
  191.9040  171.4820  138.9340 C   0  0  2  0  0  3  0  0  0  0  0  0
  191.6760  170.3580  138.1350 O   0  0  0  0  0  1  0  0  0  0  0  0
  190.4460  172.9050  140.3840 C   0  0  0  0  0  2  0  0  0  0  0  0
  190.7430  172.4750  138.9420 C   0  0  2  0  0  3  0  0  0  0  0  0
  188.4030  173.0560  138.1590 C   0  0  0  0  0  2  0  0  0  0  0  0
  188.5550  174.1640  139.2130 C   0  0  0  0  0  2  0  0  0  0  0  0
  189.1040  173.6370  140.5420 C   0  0  1  0  0  3  0  0  0  0  0  0
  188.1760  172.7880  141.1470 O   0  0  0  0  0  1  0  0  0  0  0  0
  189.4760  171.9620  138.2540 C   0  0  0  0  0  2  0  0  0  0  0  0
  193.5110  172.7110  137.2070 C   0  0  2  0  0  3  0  0  0  0  0  0
  191.6740  174.5510  136.7220 C   0  0  0  0  0  1  0  0  0  0  0  0
  193.8860  175.1870  137.8200 C   0  0  0  0  0  2  0  0  0  0  0  0
  194.1770  175.0960  136.3340 C   0  0  1  0  0  0  0  0  0  0  0  0
  193.1310  174.1770  136.9580 C   0  0  1  0  0  0  0  0  0  0  0  0
  193.6700  176.1770  135.6110 O   0  0  0  0  0  1  0  0  0  0  0  0
  196.3640  174.4310  137.0300 F   0  0  0  0  0  0  0  0  0  0  0  0
  196.1850  175.4170  134.9910 O   0  0  0  0  0  1  0  0  0  0  0  0
  195.5600  174.5790  135.9170 C   0  0  2  0  0  3  0  0  0  0  0  0
  193.7800  170.7100  135.9360 O   0  0  0  0  0  1  0  0  0  0  0  0
  192.1240  172.1080  135.1930 O   0  0  0  0  0  0  0  0  0  0  0  0
  193.1440  171.7870  136.0820 C   0  0  0  0  0  0  0  0  0  0  0  0
  195.0920  175.0050  146.1430 C   0  0  0  0  0  1  0  0  0  0  0  0
  194.1450  175.4510  145.0420 C   0  0  0  0  0  2  0  0  0  0  0  0
  193.0050  172.8490  144.0690 C   0  0  0  0  0  2  0  0  0  0  0  0
  190.9660  171.7730  143.4160 O   0  0  0  0  0  1  0  0  0  0  0  0
  191.6460  172.9920  143.3930 C   0  0  1  0  0  3  0  0  0  0  0  0
  190.3570  173.7860  145.5060 C   0  0  0  0  0  2  0  0  0  0  0  0
  189.9170  176.2380  145.6700 C   0  0  1  0  0  3  0  0  0  0  0  0
  190.7430  175.2530  143.5190 C   0  0  0  0  0  3  0  0  0  0  0  0
  190.8380  174.0390  144.0900 C   0  0  0  0  0  0  0  0  0  0  0  0
  189.3840  174.8500  146.0100 C   0  0  0  0  0  2  0  0  0  0  0  0
  189.9890  176.3920  144.1510 C   0  0  0  0  0  2  0  0  0  0  0  0
  189.0690  177.3080  146.2880 C   0  0  0  0  0  3  0  0  0  0  0  0
  187.7650  177.1380  146.5300 C   0  0  0  0  0  3  0  0  0  0  0  0
  186.9580  178.2210  147.1700 C   0  0  0  0  0  2  0  0  0  0  0  0
  185.7750  178.5600  146.3270 C   0  0  0  0  0  0  0  0  0  0  0  0
  184.2940  178.0300  146.7850 S   0  0  0  0  0  0  0  0  0  0  0  0
  185.9420  179.4620  145.2250 N   0  0  0  0  0  2  0  0  0  0  0  0
  185.6660  179.1160  143.8370 C   0  0  0  0  0  2  0  0  0  0  0  0
  186.6780  178.1010  143.3300 C   0  0  0  0  0  2  0  0  0  0  0  0
  187.0070  175.8370  142.3820 C   0  0  0  0  0  1  0  0  0  0  0  0
  185.9770  176.8420  142.8570 C   0  0  0  0  0  2  0  0  0  0  0  0
  1 39  1  1  0  0  0
  2 38  1  0  0  0  0
  3  9  1  0  0  0  0
  3  7  1  0  0  0  0
  4 10  1  0  0  0  0
  5  6  1  1  0  0  0
  5  1  1  0  0  0  0
  7  2  1  0  0  0  0
  7 11  2  0  0  0  0
  8  1  1  0  0  0  0
  8  2  1  1  0  0  0
  9  4  1  6  0  0  0
  9  8  1  0  0  0  0
 10 12  1  6  0  0  0
 10  5  1  0  0  0  0
 12 13  1  1  0  0  0
 14 12  1  0  0  0  0
 15 25  1  6  0  0  0
 15 16  1  0  0  0  0
 15 12  1  0  0  0  0
 16 17  1  6  0  0  0
 18 22  1  0  0  0  0
 19 16  1  1  0  0  0
 19 18  1  0  0  0  0
 20 24  1  0  0  0  0
 20 21  1  0  0  0  0
 21 22  1  0  0  0  0
 22 23  1  6  0  0  0
 24 19  1  0  0  0  0
 25 36  1  6  0  0  0
 28 30  1  6  0  0  0
 28 29  1  0  0  0  0
 28 27  1  0  0  0  0
 29 26  1  6  0  0  0
 29 25  1  0  0  0  0
 29 27  1  0  0  0  0
 33 32  1  6  0  0  0
 33 28  1  0  0  0  0
 33 31  1  0  0  0  0
 34 36  1  0  0  0  0
 35 36  2  0  0  0  0
 38 37  1  0  0  0  0
 41 40  1  1  0  0  0
 41 39  1  0  0  0  0
 41 45  1  0  0  0  0
 42 46  1  0  0  0  0
 43 46  1  0  0  0  0
 43 48  1  6  0  0  0
 44 45  2  0  0  0  0
 44 47  1  0  0  0  0
 45 42  1  0  0  0  0
 47 43  1  0  0  0  0
 48 49  2  0  0  0  0
 49 50  1  0  0  0  0
 51 52  2  0  0  0  0
 51 50  1  0  0  0  0
 53 51  1  0  0  0  0
 54 53  1  0  0  0  0
 55 54  1  0  0  0  0
 56 57  1  0  0  0  0
 57 55  1  0  0  0  0
M  END
>  <MODEL>
6

>  <REMARK>
 VINA RESULT:      -5.4      2.949      6.990
  Name = 
  19 active torsions:
  status: ('A' for Active; 'I' for Inactive)
    1  A    between atoms: C_3  and  C_6
    2  A    between atoms: C_4  and  C_23
    3  A    between atoms: C_6  and  C_30
    4  A    between atoms: C_7  and  C_24
    5  A    between atoms: C_9  and  C_18
    6  A    between atoms: C_9  and  C_53
    7  A    between atoms: N_10  and  C_28
    8  A    between atoms: C_17  and  C_52
    9  A    between atoms: C_18  and  C_24
   10  A    between atoms: C_18  and  C_32
   11  A    between atoms: C_20  and  C_30
   12  A    between atoms: C_22  and  C_31
   13  A    between atoms: C_22  and  C_43
   14  A    between atoms: C_31  and  N_40
   15  A    between atoms: C_32  and  C_33
   16  A    between atoms: C_32  and  C_46
   17  A    between atoms: C_34  and  C_35
   18  A    between atoms: C_34  and  N_40
   19  A    between atoms: C_35  and  C_50
                            x       y       z     vdW  Elec       q    Type
                         _______ _______ _______ _____ _____    ______ ____

>  <TORSDO>
F 19

$$$$
=
 OpenBabel11062423053D

 57 61  0  0  1  0  0  0  0  0999 V2000
  188.8190  175.2920  141.6570 C   0  0  1  0  0  3  0  0  0  0  0  0
  188.3120  174.5610  139.2920 N   0  0  0  0  0  0  0  0  0  0  0  0
  190.1350  172.5790  138.9210 S   0  0  0  0  0  0  0  0  0  0  0  0
  190.6170  172.9180  141.6710 C   0  0  0  0  0  2  0  0  0  0  0  0
  189.4580  174.7760  142.9690 C   0  0  2  0  0  3  0  0  0  0  0  0
  189.6570  175.8460  143.8420 O   0  0  0  0  0  1  0  0  0  0  0  0
  188.9770  173.7870  138.2980 C   0  0  0  0  0  0  0  0  0  0  0  0
  188.7540  174.1580  140.6220 C   0  0  1  0  0  3  0  0  0  0  0  0
  190.1540  173.6100  140.4130 C   0  0  2  0  0  3  0  0  0  0  0  0
  190.7900  174.0040  142.7430 C   0  0  1  0  0  3  0  0  0  0  0  0
  188.8160  173.9910  137.0660 O   0  0  0  0  0  0  0  0  0  0  0  0
  191.4240  173.4620  144.0520 C   0  0  2  0  0  0  0  0  0  0  0  0
  191.0910  171.9840  144.2540 C   0  0  0  0  0  1  0  0  0  0  0  0
  190.9160  174.1780  145.1430 O   0  0  0  0  0  1  0  0  0  0  0  0
  192.9600  173.6190  143.9800 C   0  0  2  0  0  3  0  0  0  0  0  0
  193.6790  173.2680  145.2970 C   0  0  2  0  0  3  0  0  0  0  0  0
  194.1110  174.3900  146.0090 O   0  0  0  0  0  1  0  0  0  0  0  0
  194.2600  170.8470  145.5230 C   0  0  0  0  0  2  0  0  0  0  0  0
  194.7710  172.2230  145.0790 C   0  0  2  0  0  3  0  0  0  0  0  0
  197.1970  171.5510  145.3770 C   0  0  0  0  0  2  0  0  0  0  0  0
  196.6540  170.1870  144.9210 C   0  0  0  0  0  2  0  0  0  0  0  0
  195.3700  169.7920  145.6550 C   0  0  1  0  0  3  0  0  0  0  0  0
  195.6370  169.5590  147.0060 O   0  0  0  0  0  1  0  0  0  0  0  0
  196.1000  172.5560  145.7590 C   0  0  0  0  0  2  0  0  0  0  0  0
  193.4850  174.8030  143.1330 C   0  0  2  0  0  3  0  0  0  0  0  0
  196.0650  175.3150  143.4170 C   0  0  0  0  0  1  0  0  0  0  0  0
  195.2840  173.3030  142.0570 C   0  0  0  0  0  2  0  0  0  0  0  0
  195.1560  174.4990  141.1310 C   0  0  1  0  0  0  0  0  0  0  0  0
  194.9290  174.6740  142.6300 C   0  0  1  0  0  0  0  0  0  0  0  0
  196.3860  174.9540  140.6550 O   0  0  0  0  0  1  0  0  0  0  0  0
  193.7200  173.2040  139.7260 F   0  0  0  0  0  0  0  0  0  0  0  0
  194.2420  175.3000  139.0190 O   0  0  0  0  0  1  0  0  0  0  0  0
  193.9910  174.4960  140.1340 C   0  0  2  0  0  3  0  0  0  0  0  0
  192.6580  177.0210  142.8270 O   0  0  0  0  0  0  0  0  0  0  0  0
  193.3380  176.5320  144.9590 O   0  0  0  0  0  1  0  0  0  0  0  0
  193.1330  176.1760  143.6300 C   0  0  0  0  0  0  0  0  0  0  0  0
  187.2680  176.2390  137.8540 C   0  0  0  0  0  1  0  0  0  0  0  0
  187.0720  175.2770  139.0130 C   0  0  0  0  0  2  0  0  0  0  0  0
  187.4090  175.7900  141.9530 C   0  0  0  0  0  2  0  0  0  0  0  0
  188.2200  177.9320  141.2470 O   0  0  0  0  0  1  0  0  0  0  0  0
  187.3750  177.3000  142.1620 C   0  0  1  0  0  3  0  0  0  0  0  0
  185.3880  177.9200  140.6050 C   0  0  0  0  0  2  0  0  0  0  0  0
  183.1480  178.0890  141.6930 C   0  0  1  0  0  3  0  0  0  0  0  0
  185.2170  177.9410  143.0980 C   0  0  0  0  0  3  0  0  0  0  0  0
  185.9770  177.8040  141.9970 C   0  0  0  0  0  0  0  0  0  0  0  0
  184.0370  178.6320  140.5800 C   0  0  0  0  0  2  0  0  0  0  0  0
  183.7860  178.4030  143.0460 C   0  0  0  0  0  2  0  0  0  0  0  0
  181.7620  178.6510  141.6000 C   0  0  0  0  0  3  0  0  0  0  0  0
  180.9930  178.4850  140.5190 C   0  0  0  0  0  3  0  0  0  0  0  0
  179.6070  179.0420  140.4730 C   0  0  0  0  0  2  0  0  0  0  0  0
  178.6290  178.0570  141.0200 C   0  0  0  0  0  0  0  0  0  0  0  0
  178.3050  178.0670  142.6260 S   0  0  0  0  0  0  0  0  0  0  0  0
  177.8880  177.2340  140.1090 N   0  0  0  0  0  2  0  0  0  0  0  0
  178.3750  176.8220  138.7990 C   0  0  0  0  0  2  0  0  0  0  0  0
  178.0350  175.3630  138.5390 C   0  0  0  0  0  2  0  0  0  0  0  0
  177.8710  174.4610  136.2390 C   0  0  0  0  0  1  0  0  0  0  0  0
  178.8240  174.8360  137.3550 C   0  0  0  0  0  2  0  0  0  0  0  0
  1 39  1  1  0  0  0
  1  5  1  0  0  0  0
  3  9  1  0  0  0  0
  4 10  1  0  0  0  0
  5  6  1  1  0  0  0
  7  3  1  0  0  0  0
  7  2  1  0  0  0  0
  8  2  1  6  0  0  0
  8  1  1  0  0  0  0
  9  8  1  0  0  0  0
  9  4  1  1  0  0  0
 10  5  1  0  0  0  0
 10 12  1  1  0  0  0
 11  7  2  0  0  0  0
 12 13  1  1  0  0  0
 12 14  1  0  0  0  0
 15 25  1  1  0  0  0
 15 12  1  0  0  0  0
 15 16  1  0  0  0  0
 16 17  1  6  0  0  0
 18 22  1  0  0  0  0
 19 16  1  1  0  0  0
 19 18  1  0  0  0  0
 19 24  1  0  0  0  0
 20 24  1  0  0  0  0
 21 20  1  0  0  0  0
 21 22  1  0  0  0  0
 22 23  1  1  0  0  0
 25 36  1  1  0  0  0
 27 29  1  0  0  0  0
 28 30  1  6  0  0  0
 28 27  1  0  0  0  0
 28 29  1  0  0  0  0
 29 25  1  0  0  0  0
 29 26  1  1  0  0  0
 31 33  1  0  0  0  0
 33 32  1  6  0  0  0
 33 28  1  0  0  0  0
 34 36  2  0  0  0  0
 36 35  1  0  0  0  0
 37 38  1  0  0  0  0
 38  2  1  0  0  0  0
 39 41  1  0  0  0  0
 41 40  1  6  0  0  0
 42 45  1  0  0  0  0
 43 48  1  1  0  0  0
 43 47  1  0  0  0  0
 45 41  1  0  0  0  0
 45 44  2  0  0  0  0
 46 42  1  0  0  0  0
 46 43  1  0  0  0  0
 47 44  1  0  0  0  0
 49 48  2  0  0  0  0
 50 49  1  0  0  0  0
 50 51  1  0  0  0  0
 51 52  2  0  0  0  0
 53 51  1  0  0  0  0
 54 53  1  0  0  0  0
 55 54  1  0  0  0  0
 56 57  1  0  0  0  0
 57 55  1  0  0  0  0
M  END
>  <MODEL>
7

>  <REMARK>
 VINA RESULT:      -5.2      4.410      6.534
  Name = 
  19 active torsions:
  status: ('A' for Active; 'I' for Inactive)
    1  A    between atoms: C_3  and  C_6
    2  A    between atoms: C_4  and  C_23
    3  A    between atoms: C_6  and  C_30
    4  A    between atoms: C_7  and  C_24
    5  A    between atoms: C_9  and  C_18
    6  A    between atoms: C_9  and  C_53
    7  A    between atoms: N_10  and  C_28
    8  A    between atoms: C_17  and  C_52
    9  A    between atoms: C_18  and  C_24
   10  A    between atoms: C_18  and  C_32
   11  A    between atoms: C_20  and  C_30
   12  A    between atoms: C_22  and  C_31
   13  A    between atoms: C_22  and  C_43
   14  A    between atoms: C_31  and  N_40
   15  A    between atoms: C_32  and  C_33
   16  A    between atoms: C_32  and  C_46
   17  A    between atoms: C_34  and  C_35
   18  A    between atoms: C_34  and  N_40
   19  A    between atoms: C_35  and  C_50
                            x       y       z     vdW  Elec       q    Type
                         _______ _______ _______ _____ _____    ______ ____

>  <TORSDO>
F 19

$$$$
=
 OpenBabel11062423053D

 57 61  0  0  1  0  0  0  0  0999 V2000
  191.5300  173.2610  145.3380 C   0  0  1  0  0  3  0  0  0  0  0  0
  190.9770  175.4600  146.4540 N   0  0  0  0  0  0  0  0  0  0  0  0
  193.4510  176.4260  147.0320 S   0  0  0  0  0  0  0  0  0  0  0  0
  194.3350  174.2560  145.4770 C   0  0  0  0  0  2  0  0  0  0  0  0
  192.6750  172.5480  144.5780 C   0  0  2  0  0  3  0  0  0  0  0  0
  192.3890  171.1850  144.4780 O   0  0  0  0  0  1  0  0  0  0  0  0
  191.6800  176.4010  147.2590 C   0  0  0  0  0  0  0  0  0  0  0  0
  191.9110  174.7250  145.6080 C   0  0  1  0  0  3  0  0  0  0  0  0
  193.2240  174.7540  146.3690 C   0  0  2  0  0  3  0  0  0  0  0  0
  194.0730  172.7630  145.2260 C   0  0  1  0  0  3  0  0  0  0  0  0
  191.1030  177.1110  148.1240 O   0  0  0  0  0  0  0  0  0  0  0  0
  195.2290  172.0720  144.4550 C   0  0  2  0  0  0  0  0  0  0  0  0
  195.3020  170.5830  144.7900 C   0  0  0  0  0  1  0  0  0  0  0  0
  196.4450  172.6630  144.8210 O   0  0  0  0  0  1  0  0  0  0  0  0
  194.9960  172.2280  142.9360 C   0  0  2  0  0  3  0  0  0  0  0  0
  194.9540  170.8880  142.1760 C   0  0  2  0  0  3  0  0  0  0  0  0
  196.2060  170.4700  141.7180 O   0  0  0  0  0  1  0  0  0  0  0  0
  192.7780  169.8810  141.4640 C   0  0  0  0  0  2  0  0  0  0  0  0
  193.8750  170.8890  141.0950 C   0  0  2  0  0  3  0  0  0  0  0  0
  193.2990  170.7960  138.6280 C   0  0  0  0  0  2  0  0  0  0  0  0
  191.8790  170.6070  139.1840 C   0  0  0  0  0  2  0  0  0  0  0  0
  191.8210  169.5640  140.3040 C   0  0  1  0  0  3  0  0  0  0  0  0
  192.1040  168.2940  139.7980 O   0  0  0  0  0  1  0  0  0  0  0  0
  194.4020  170.6280  139.6830 C   0  0  0  0  0  2  0  0  0  0  0  0
  195.6730  173.4470  142.2630 C   0  0  2  0  0  3  0  0  0  0  0  0
  193.6830  174.2100  140.6970 C   0  0  0  0  0  1  0  0  0  0  0  0
  194.2090  175.4890  142.8400 C   0  0  0  0  0  2  0  0  0  0  0  0
  195.2030  175.9900  141.8080 C   0  0  1  0  0  0  0  0  0  0  0  0
  194.7240  174.5420  141.7580 C   0  0  1  0  0  0  0  0  0  0  0  0
  194.6280  176.8440  140.8670 O   0  0  0  0  0  1  0  0  0  0  0  0
  197.5550  175.9480  141.3860 F   0  0  0  0  0  0  0  0  0  0  0  0
  196.8920  175.8060  143.5550 O   0  0  0  0  0  1  0  0  0  0  0  0
  196.6080  176.3580  142.3040 C   0  0  2  0  0  3  0  0  0  0  0  0
  197.9250  172.8130  141.7930 O   0  0  0  0  0  1  0  0  0  0  0  0
  196.6330  173.2200  139.9460 O   0  0  0  0  0  0  0  0  0  0  0  0
  196.8040  173.1390  141.3240 C   0  0  0  0  0  0  0  0  0  0  0  0
  188.7570  174.8910  147.3020 C   0  0  0  0  0  1  0  0  0  0  0  0
  189.5450  175.5760  146.1990 C   0  0  0  0  0  2  0  0  0  0  0  0
  190.2650  173.2130  144.4900 C   0  0  0  0  0  2  0  0  0  0  0  0
  190.3950  172.5950  142.1790 O   0  0  0  0  0  1  0  0  0  0  0  0
  190.5260  173.6710  143.0600 C   0  0  1  0  0  3  0  0  0  0  0  0
  190.0450  176.1890  142.6270 C   0  0  0  0  0  2  0  0  0  0  0  0
  187.9720  176.7080  141.3370 C   0  0  1  0  0  3  0  0  0  0  0  0
  188.3550  174.3940  142.2180 C   0  0  0  0  0  3  0  0  0  0  0  0
  189.5620  174.7520  142.6880 C   0  0  0  0  0  0  0  0  0  0  0  0
  188.9140  177.1970  142.4320 C   0  0  0  0  0  2  0  0  0  0  0  0
  187.3230  175.3970  141.7780 C   0  0  0  0  0  2  0  0  0  0  0  0
  186.9410  177.7450  141.0100 C   0  0  0  0  0  3  0  0  0  0  0  0
  185.6290  177.4970  141.0780 C   0  0  0  0  0  3  0  0  0  0  0  0
  184.6310  178.5650  140.7670 C   0  0  0  0  0  2  0  0  0  0  0  0
  183.4010  178.3890  141.5910 C   0  0  0  0  0  0  0  0  0  0  0  0
  183.4750  178.6750  143.2030 S   0  0  0  0  0  0  0  0  0  0  0  0
  182.1550  178.1220  140.9330 N   0  0  0  0  0  2  0  0  0  0  0  0
  180.8490  178.4290  141.5020 C   0  0  0  0  0  2  0  0  0  0  0  0
  179.9200  178.9830  140.4330 C   0  0  0  0  0  2  0  0  0  0  0  0
  177.8930  178.8070  141.8440 C   0  0  0  0  0  1  0  0  0  0  0  0
  178.7810  179.7580  141.0680 C   0  0  0  0  0  2  0  0  0  0  0  0
  1 39  1  6  0  0  0
  1  8  1  0  0  0  0
  2  7  1  0  0  0  0
  3  7  1  0  0  0  0
  5  6  1  1  0  0  0
  5 10  1  0  0  0  0
  5  1  1  0  0  0  0
  7 11  2  0  0  0  0
  8  9  1  0  0  0  0
  8  2  1  1  0  0  0
  9  4  1  6  0  0  0
  9  3  1  0  0  0  0
 10 12  1  6  0  0  0
 10  4  1  0  0  0  0
 12 13  1  1  0  0  0
 12 14  1  0  0  0  0
 15 16  1  6  0  0  0
 15 12  1  0  0  0  0
 16 17  1  6  0  0  0
 19 18  1  0  0  0  0
 19 16  1  1  0  0  0
 20 21  1  0  0  0  0
 20 24  1  0  0  0  0
 21 22  1  0  0  0  0
 22 23  1  6  0  0  0
 22 18  1  0  0  0  0
 24 19  1  0  0  0  0
 25 36  1  6  0  0  0
 25 15  1  0  0  0  0
 28 30  1  6  0  0  0
 28 33  1  0  0  0  0
 28 27  1  0  0  0  0
 29 26  1  6  0  0  0
 29 28  1  0  0  0  0
 29 25  1  0  0  0  0
 29 27  1  0  0  0  0
 33 31  1  6  0  0  0
 33 32  1  0  0  0  0
 35 36  2  0  0  0  0
 36 34  1  0  0  0  0
 38  2  1  0  0  0  0
 38 37  1  0  0  0  0
 41 40  1  6  0  0  0
 41 39  1  0  0  0  0
 42 45  1  0  0  0  0
 43 48  1  1  0  0  0
 43 47  1  0  0  0  0
 43 46  1  0  0  0  0
 44 45  2  0  0  0  0
 45 41  1  0  0  0  0
 46 42  1  0  0  0  0
 47 44  1  0  0  0  0
 48 49  2  0  0  0  0
 50 49  1  0  0  0  0
 50 51  1  0  0  0  0
 51 52  2  0  0  0  0
 53 54  1  0  0  0  0
 53 51  1  0  0  0  0
 55 57  1  0  0  0  0
 55 54  1  0  0  0  0
 57 56  1  0  0  0  0
M  END
>  <MODEL>
8

>  <REMARK>
 VINA RESULT:      -5.2      3.333      6.252
  Name = 
  19 active torsions:
  status: ('A' for Active; 'I' for Inactive)
    1  A    between atoms: C_3  and  C_6
    2  A    between atoms: C_4  and  C_23
    3  A    between atoms: C_6  and  C_30
    4  A    between atoms: C_7  and  C_24
    5  A    between atoms: C_9  and  C_18
    6  A    between atoms: C_9  and  C_53
    7  A    between atoms: N_10  and  C_28
    8  A    between atoms: C_17  and  C_52
    9  A    between atoms: C_18  and  C_24
   10  A    between atoms: C_18  and  C_32
   11  A    between atoms: C_20  and  C_30
   12  A    between atoms: C_22  and  C_31
   13  A    between atoms: C_22  and  C_43
   14  A    between atoms: C_31  and  N_40
   15  A    between atoms: C_32  and  C_33
   16  A    between atoms: C_32  and  C_46
   17  A    between atoms: C_34  and  C_35
   18  A    between atoms: C_34  and  N_40
   19  A    between atoms: C_35  and  C_50
                            x       y       z     vdW  Elec       q    Type
                         _______ _______ _______ _____ _____    ______ ____

>  <TORSDO>
F 19

$$$$
=
 OpenBabel11062423053D

 57 61  0  0  1  0  0  0  0  0999 V2000
  188.2830  175.2000  143.2010 C   0  0  1  0  0  3  0  0  0  0  0  0
  188.6760  176.8480  145.0760 N   0  0  0  0  0  0  0  0  0  0  0  0
  191.3910  176.9420  145.1710 S   0  0  0  0  0  0  0  0  0  0  0  0
  191.2280  175.4200  142.8120 C   0  0  0  0  0  2  0  0  0  0  0  0
  188.9740  174.6100  141.9480 C   0  0  2  0  0  3  0  0  0  0  0  0
  188.2610  173.4960  141.5040 O   0  0  0  0  0  1  0  0  0  0  0  0
  189.7820  177.2190  145.8930 C   0  0  0  0  0  0  0  0  0  0  0  0
  189.1480  176.3190  143.8010 C   0  0  1  0  0  3  0  0  0  0  0  0
  190.5260  175.7580  144.1040 C   0  0  2  0  0  3  0  0  0  0  0  0
  190.4670  174.2420  142.1830 C   0  0  1  0  0  3  0  0  0  0  0  0
  189.6370  177.6410  147.0710 O   0  0  0  0  0  0  0  0  0  0  0  0
  191.1750  173.6740  140.9240 C   0  0  2  0  0  0  0  0  0  0  0  0
  192.3710  174.5370  140.5280 C   0  0  0  0  0  1  0  0  0  0  0  0
  190.2710  173.6610  139.8540 O   0  0  0  0  0  1  0  0  0  0  0  0
  191.6720  172.2410  141.2190 C   0  0  2  0  0  3  0  0  0  0  0  0
  190.6590  171.1450  140.8390 C   0  0  2  0  0  3  0  0  0  0  0  0
  190.4580  170.2000  141.8490 O   0  0  0  0  0  1  0  0  0  0  0  0
  192.2690  171.1540  138.9260 C   0  0  0  0  0  2  0  0  0  0  0  0
  190.9820  170.5280  139.4790 C   0  0  2  0  0  3  0  0  0  0  0  0
  190.1730  169.8580  137.1720 C   0  0  0  0  0  2  0  0  0  0  0  0
  191.6790  169.6690  136.9310 C   0  0  0  0  0  2  0  0  0  0  0  0
  192.5070  170.8530  137.4370 C   0  0  1  0  0  3  0  0  0  0  0  0
  192.2360  171.9940  136.6800 O   0  0  0  0  0  1  0  0  0  0  0  0
  189.8460  170.6290  138.4600 C   0  0  0  0  0  2  0  0  0  0  0  0
  192.5190  172.0650  142.5030 C   0  0  2  0  0  3  0  0  0  0  0  0
  194.2290  170.2950  141.5350 C   0  0  0  0  0  1  0  0  0  0  0  0
  194.9570  172.7020  141.9600 C   0  0  0  0  0  2  0  0  0  0  0  0
  195.0170  172.0100  143.3100 C   0  0  1  0  0  0  0  0  0  0  0  0
  193.9630  171.5900  142.2890 C   0  0  1  0  0  0  0  0  0  0  0  0
  196.1070  171.1480  143.4330 O   0  0  0  0  0  1  0  0  0  0  0  0
  194.9380  174.1770  144.3160 F   0  0  0  0  0  0  0  0  0  0  0  0
  195.3250  172.4120  145.6940 O   0  0  0  0  0  1  0  0  0  0  0  0
  194.6560  172.8440  144.5460 C   0  0  2  0  0  3  0  0  0  0  0  0
  190.9230  172.0340  144.2780 O   0  0  0  0  0  1  0  0  0  0  0  0
  192.1790  170.1290  144.0790 O   0  0  0  0  0  0  0  0  0  0  0  0
  191.8270  171.4090  143.6640 C   0  0  0  0  0  0  0  0  0  0  0  0
  186.6830  176.6390  146.4750 C   0  0  0  0  0  1  0  0  0  0  0  0
  187.3320  177.3660  145.3100 C   0  0  0  0  0  2  0  0  0  0  0  0
  186.9260  175.7680  142.7990 C   0  0  0  0  0  2  0  0  0  0  0  0
  187.6500  176.9110  140.8210 O   0  0  0  0  0  1  0  0  0  0  0  0
  187.0640  177.1020  142.0740 C   0  0  1  0  0  3  0  0  0  0  0  0
  185.0850  177.8010  140.5400 C   0  0  0  0  0  2  0  0  0  0  0  0
  182.9230  178.2910  141.6870 C   0  0  1  0  0  3  0  0  0  0  0  0
  185.0250  178.0390  143.0270 C   0  0  0  0  0  3  0  0  0  0  0  0
  185.7190  177.7360  141.9160 C   0  0  0  0  0  0  0  0  0  0  0  0
  183.8140  178.6470  140.5020 C   0  0  0  0  0  2  0  0  0  0  0  0
  183.6470  178.6430  142.9860 C   0  0  0  0  0  2  0  0  0  0  0  0
  181.5990  178.9870  141.5950 C   0  0  0  0  0  3  0  0  0  0  0  0
  180.4630  178.3320  141.3310 C   0  0  0  0  0  3  0  0  0  0  0  0
  179.1580  179.0580  141.2710 C   0  0  0  0  0  2  0  0  0  0  0  0
  178.6200  179.0540  139.8800 C   0  0  0  0  0  0  0  0  0  0  0  0
  178.2760  177.6210  139.1640 S   0  0  0  0  0  0  0  0  0  0  0  0
  178.2770  180.3020  139.2630 N   0  0  0  0  0  2  0  0  0  0  0  0
  179.1650  181.4570  139.2080 C   0  0  0  0  0  2  0  0  0  0  0  0
  178.5060  182.6650  139.8550 C   0  0  0  0  0  2  0  0  0  0  0  0
  179.7640  183.6090  137.9430 C   0  0  0  0  0  1  0  0  0  0  0  0
  178.7430  183.9090  139.0210 C   0  0  0  0  0  2  0  0  0  0  0  0
  1 39  1  6  0  0  0
  1  8  1  0  0  0  0
  2 38  1  0  0  0  0
  2  7  1  0  0  0  0
  3  7  1  0  0  0  0
  5  6  1  1  0  0  0
  5 10  1  0  0  0  0
  5  1  1  0  0  0  0
  7 11  2  0  0  0  0
  8  9  1  0  0  0  0
  8  2  1  1  0  0  0
  9  4  1  6  0  0  0
  9  3  1  0  0  0  0
 10 12  1  6  0  0  0
 10  4  1  0  0  0  0
 12 13  1  6  0  0  0
 12 15  1  0  0  0  0
 14 12  1  0  0  0  0
 15 16  1  1  0  0  0
 15 25  1  0  0  0  0
 16 17  1  1  0  0  0
 18 19  1  0  0  0  0
 19 16  1  1  0  0  0
 20 24  1  0  0  0  0
 21 20  1  0  0  0  0
 21 22  1  0  0  0  0
 22 23  1  6  0  0  0
 22 18  1  0  0  0  0
 24 19  1  0  0  0  0
 25 36  1  1  0  0  0
 27 29  1  0  0  0  0
 27 28  1  0  0  0  0
 28 30  1  1  0  0  0
 28 33  1  0  0  0  0
 29 26  1  6  0  0  0
 29 25  1  0  0  0  0
 29 28  1  0  0  0  0
 33 31  1  6  0  0  0
 33 32  1  0  0  0  0
 36 35  2  0  0  0  0
 36 34  1  0  0  0  0
 38 37  1  0  0  0  0
 41 40  1  6  0  0  0
 41 39  1  0  0  0  0
 42 45  1  0  0  0  0
 43 48  1  6  0  0  0
 43 47  1  0  0  0  0
 45 41  1  0  0  0  0
 45 44  2  0  0  0  0
 46 42  1  0  0  0  0
 46 43  1  0  0  0  0
 47 44  1  0  0  0  0
 49 48  2  0  0  0  0
 50 49  1  0  0  0  0
 51 50  1  0  0  0  0
 52 51  2  0  0  0  0
 53 51  1  0  0  0  0
 54 53  1  0  0  0  0
 54 55  1  0  0  0  0
 56 57  1  0  0  0  0
 57 55  1  0  0  0  0
M  END
>  <MODEL>
9

>  <REMARK>
 VINA RESULT:      -5.1      4.407      7.543
  Name = 
  19 active torsions:
  status: ('A' for Active; 'I' for Inactive)
    1  A    between atoms: C_3  and  C_6
    2  A    between atoms: C_4  and  C_23
    3  A    between atoms: C_6  and  C_30
    4  A    between atoms: C_7  and  C_24
    5  A    between atoms: C_9  and  C_18
    6  A    between atoms: C_9  and  C_53
    7  A    between atoms: N_10  and  C_28
    8  A    between atoms: C_17  and  C_52
    9  A    between atoms: C_18  and  C_24
   10  A    between atoms: C_18  and  C_32
   11  A    between atoms: C_20  and  C_30
   12  A    between atoms: C_22  and  C_31
   13  A    between atoms: C_22  and  C_43
   14  A    between atoms: C_31  and  N_40
   15  A    between atoms: C_32  and  C_33
   16  A    between atoms: C_32  and  C_46
   17  A    between atoms: C_34  and  C_35
   18  A    between atoms: C_34  and  N_40
   19  A    between atoms: C_35  and  C_50
                            x       y       z     vdW  Elec       q    Type
                         _______ _______ _______ _____ _____    ______ ____

>  <TORSDO>
F 19

$$$$
