=
 OpenBabel11062419303D

 40 45  0  0  1  0  0  0  0  0999 V2000
  193.0080  173.3130  144.9420 C   0  0  0  0  0  2  0  0  0  0  0  0
  190.8380  172.2330  144.6530 O   0  0  0  0  0  0  0  0  0  0  0  0
  194.6640  175.1100  144.3990 C   0  0  0  0  0  3  0  0  0  0  0  0
  190.6980  174.6620  144.8470 C   0  0  0  0  0  2  0  0  0  0  0  0
  190.6240  174.9630  146.3540 C   0  0  1  0  0  3  0  0  0  0  0  0
  191.0570  172.6560  143.3230 C   0  0  1  0  0  3  0  0  0  0  0  0
  191.5430  173.4370  144.4920 C   0  0  1  0  0  0  0  0  0  0  0  0
  194.7140  177.1930  145.6360 C   0  0  0  0  0  3  0  0  0  0  0  0
  193.6160  174.6560  145.2050 C   0  0  0  0  0  0  0  0  0  0  0  0
  195.2150  176.3770  144.6160 C   0  0  0  0  0  0  0  0  0  0  0  0
  193.1140  175.4770  146.2320 C   0  0  0  0  0  0  0  0  0  0  0  0
  193.6640  176.7460  146.4420 C   0  0  0  0  0  3  0  0  0  0  0  0
  191.9750  175.0050  147.0860 C   0  0  0  0  0  2  0  0  0  0  0  0
  196.5260  176.9420  143.6060 Cl  0  0  0  0  0  0  0  0  0  0  0  0
  189.9230  176.2190  146.5600 N   0  0  0  0  0  2  0  0  0  0  0  0
  189.2690  176.5290  145.3600 N   0  0  0  0  0  2  0  0  0  0  0  0
  186.1840  176.7230  147.5700 C   0  0  0  0  0  2  0  0  0  0  0  0
  186.4450  176.9680  141.1190 O   0  0  0  0  0  0  0  0  0  0  0  0
  185.8760  179.3250  143.7870 C   0  0  0  0  0  0  0  0  0  0  0  0
  185.8900  178.7760  142.4720 N   0  0  0  0  0  2  0  0  0  0  0  0
  185.5050  180.5130  143.9660 O   0  0  0  0  0  0  0  0  0  0  0  0
  187.5850  177.0430  147.0330 C   0  0  0  0  0  2  0  0  0  0  0  0
  185.0730  176.7720  146.5180 C   0  0  0  0  0  2  0  0  0  0  0  0
  187.1240  176.8210  143.3440 N   0  0  0  0  0  0  0  0  0  0  0  0
  187.8410  176.4890  145.6300 C   0  0  1  0  0  3  0  0  0  0  0  0
  187.0980  177.2640  144.5680 C   0  0  0  0  0  0  0  0  0  0  0  0
  184.9930  178.1010  145.7600 C   0  0  0  0  0  2  0  0  0  0  0  0
  186.2560  178.4720  144.9620 C   0  0  2  0  0  3  0  0  0  0  0  0
  186.4720  177.4930  142.2630 C   0  0  0  0  0  0  0  0  0  0  0  0
  192.1370  171.7880  142.6650 C   0  0  1  0  0  3  0  0  0  0  0  0
  194.0530  169.8040  143.8470 C   0  0  0  0  0  1  0  0  0  0  0  0
  192.2940  168.2360  143.5580 O   0  0  0  0  0  0  0  0  0  0  0  0
  192.6800  169.4240  143.4100 C   0  0  0  0  0  0  0  0  0  0  0  0
  191.8020  170.3790  142.8090 N   0  0  0  0  0  2  0  0  0  0  0  0
  191.2160  172.3920  140.4460 O   0  0  0  0  0  0  0  0  0  0  0  0
  192.3840  172.1180  141.1830 C   0  0  2  0  0  0  0  0  0  0  0  0
  191.8700  171.1690  140.1690 C   0  0  0  0  0  2  0  0  0  0  0  0
  193.5770  173.0120  140.8140 C   0  0  0  0  0  3  0  0  0  0  0  0
  193.2240  174.4770  140.9960 C   0  0  0  0  0  1  0  0  0  0  0  0
  194.8550  172.6980  141.5820 C   0  0  0  0  0  1  0  0  0  0  0  0
  1  9  1  0  0  0  0
  3 10  2  0  0  0  0
  3  9  1  0  0  0  0
  4  5  1  0  0  0  0
  5 15  1  6  0  0  0
  5 13  1  0  0  0  0
  6 30  1  6  0  0  0
  6  7  1  0  0  0  0
  6  2  1  0  0  0  0
  7  2  1  0  0  0  0
  7  4  1  1  0  0  0
  7  1  1  0  0  0  0
  8 12  2  0  0  0  0
  9 11  2  0  0  0  0
 10  8  1  0  0  0  0
 11 12  1  0  0  0  0
 11 13  1  0  0  0  0
 14 10  1  0  0  0  0
 16 15  1  0  0  0  0
 18 29  2  0  0  0  0
 19 21  2  0  0  0  0
 19 28  1  0  0  0  0
 20 19  1  0  0  0  0
 22 17  1  0  0  0  0
 23 17  1  0  0  0  0
 24 26  2  0  0  0  0
 25 16  1  6  0  0  0
 25 22  1  0  0  0  0
 26 28  1  0  0  0  0
 26 25  1  0  0  0  0
 27 23  1  0  0  0  0
 28 27  1  6  0  0  0
 29 20  1  0  0  0  0
 29 24  1  0  0  0  0
 30 34  1  6  0  0  0
 33 32  2  0  0  0  0
 33 31  1  0  0  0  0
 34 33  1  0  0  0  0
 35 36  1  0  0  0  0
 36 38  1  6  0  0  0
 36 30  1  0  0  0  0
 37 35  1  0  0  0  0
 37 36  1  0  0  0  0
 38 39  1  0  0  0  0
 38 40  1  0  0  0  0
M  END
>  <MODEL>
1

>  <REMARK>
 VINA RESULT:      -8.3      0.000      0.000
  Name = 
  7 active torsions:
  status: ('A' for Active; 'I' for Inactive)
    1  A    between atoms: N_1  and  C_13
    2  A    between atoms: N_1  and  N_34
    3  A    between atoms: C_6  and  C_12
    4  A    between atoms: C_6  and  C_17
    5  A    between atoms: C_6  and  N_38
    6  A    between atoms: C_7  and  C_12
    7  A    between atoms: C_30  and  N_34
                            x       y       z     vdW  Elec       q    Type
                         _______ _______ _______ _____ _____    ______ ____

>  <TORSDO>
F 7

$$$$
=
 OpenBabel11062419303D

 40 45  0  0  1  0  0  0  0  0999 V2000
  189.6490  175.4240  145.3480 C   0  0  0  0  0  2  0  0  0  0  0  0
  189.7760  177.8420  145.6660 O   0  0  0  0  0  0  0  0  0  0  0  0
  190.0810  173.3530  144.0110 C   0  0  0  0  0  3  0  0  0  0  0  0
  191.8550  176.8570  144.8500 C   0  0  0  0  0  2  0  0  0  0  0  0
  192.6280  176.4040  146.1010 C   0  0  1  0  0  3  0  0  0  0  0  0
  189.5690  177.8100  144.2690 C   0  0  1  0  0  3  0  0  0  0  0  0
  190.3340  176.7510  144.9790 C   0  0  1  0  0  0  0  0  0  0  0  0
  192.1300  172.0870  144.2740 C   0  0  0  0  0  3  0  0  0  0  0  0
  190.5060  174.2480  144.9960 C   0  0  0  0  0  0  0  0  0  0  0  0
  190.8910  172.2710  143.6520 C   0  0  0  0  0  0  0  0  0  0  0  0
  191.7530  174.0610  145.6230 C   0  0  0  0  0  0  0  0  0  0  0  0
  192.5630  172.9820  145.2570 C   0  0  0  0  0  3  0  0  0  0  0  0
  192.2250  175.0310  146.6650 C   0  0  0  0  0  2  0  0  0  0  0  0
  190.3550  171.1530  142.4180 Cl  0  0  0  0  0  0  0  0  0  0  0  0
  194.0530  176.4100  145.8160 N   0  0  0  0  0  2  0  0  0  0  0  0
  194.1950  176.3310  144.4240 N   0  0  0  0  0  2  0  0  0  0  0  0
  197.1400  174.1250  145.3710 C   0  0  0  0  0  2  0  0  0  0  0  0
  194.9170  175.4180  139.4440 O   0  0  0  0  0  0  0  0  0  0  0  0
  194.8380  172.5990  141.6910 C   0  0  0  0  0  0  0  0  0  0  0  0
  194.7450  173.3410  140.4780 N   0  0  0  0  0  2  0  0  0  0  0  0
  194.5220  171.3820  141.7050 O   0  0  0  0  0  0  0  0  0  0  0  0
  195.7140  174.6880  145.3700 C   0  0  0  0  0  2  0  0  0  0  0  0
  197.6740  173.7380  143.9890 C   0  0  0  0  0  2  0  0  0  0  0  0
  195.1190  175.4160  141.7660 N   0  0  0  0  0  0  0  0  0  0  0  0
  195.4100  175.5760  144.1620 C   0  0  1  0  0  3  0  0  0  0  0  0
  195.2510  174.7760  142.8920 C   0  0  0  0  0  0  0  0  0  0  0  0
  196.7790  172.7500  143.2320 C   0  0  0  0  0  2  0  0  0  0  0  0
  195.3560  173.2550  142.9370 C   0  0  2  0  0  3  0  0  0  0  0  0
  194.9400  174.7520  140.5130 C   0  0  0  0  0  0  0  0  0  0  0  0
  188.1170  177.4240  143.9600 C   0  0  1  0  0  3  0  0  0  0  0  0
  186.2490  176.6640  146.1830 C   0  0  0  0  0  1  0  0  0  0  0  0
  185.6250  178.9550  146.1710 O   0  0  0  0  0  0  0  0  0  0  0  0
  186.3380  178.0560  145.6560 C   0  0  0  0  0  0  0  0  0  0  0  0
  187.2050  178.3820  144.5680 N   0  0  0  0  0  2  0  0  0  0  0  0
  188.4970  178.2130  141.6430 O   0  0  0  0  0  0  0  0  0  0  0  0
  187.8120  177.2910  142.4590 C   0  0  2  0  0  0  0  0  0  0  0  0
  187.1050  178.4100  141.7960 C   0  0  0  0  0  2  0  0  0  0  0  0
  187.6990  175.8860  141.8480 C   0  0  0  0  0  3  0  0  0  0  0  0
  189.0710  175.3480  141.4870 C   0  0  0  0  0  1  0  0  0  0  0  0
  186.9740  174.8780  142.7310 C   0  0  0  0  0  1  0  0  0  0  0  0
  3  9  1  0  0  0  0
  4  5  1  0  0  0  0
  5 15  1  6  0  0  0
  5 13  1  0  0  0  0
  6 30  1  1  0  0  0
  6  7  1  0  0  0  0
  6  2  1  0  0  0  0
  7  4  1  6  0  0  0
  7  1  1  0  0  0  0
  7  2  1  0  0  0  0
  8 12  2  0  0  0  0
  9  1  1  0  0  0  0
  9 11  2  0  0  0  0
 10  3  2  0  0  0  0
 10  8  1  0  0  0  0
 11 13  1  0  0  0  0
 12 11  1  0  0  0  0
 14 10  1  0  0  0  0
 16 15  1  0  0  0  0
 18 29  2  0  0  0  0
 19 21  2  0  0  0  0
 19 28  1  0  0  0  0
 20 29  1  0  0  0  0
 20 19  1  0  0  0  0
 22 17  1  0  0  0  0
 23 17  1  0  0  0  0
 24 26  2  0  0  0  0
 25 16  1  1  0  0  0
 25 22  1  0  0  0  0
 26 28  1  0  0  0  0
 26 25  1  0  0  0  0
 27 23  1  0  0  0  0
 28 27  1  6  0  0  0
 29 24  1  0  0  0  0
 30 34  1  6  0  0  0
 33 32  2  0  0  0  0
 33 31  1  0  0  0  0
 34 33  1  0  0  0  0
 35 37  1  0  0  0  0
 35 36  1  0  0  0  0
 36 38  1  6  0  0  0
 36 30  1  0  0  0  0
 37 36  1  0  0  0  0
 38 40  1  0  0  0  0
 39 38  1  0  0  0  0
M  END
>  <MODEL>
2

>  <REMARK>
 VINA RESULT:      -8.0      2.961      8.105
  Name = 
  7 active torsions:
  status: ('A' for Active; 'I' for Inactive)
    1  A    between atoms: N_1  and  C_13
    2  A    between atoms: N_1  and  N_34
    3  A    between atoms: C_6  and  C_12
    4  A    between atoms: C_6  and  C_17
    5  A    between atoms: C_6  and  N_38
    6  A    between atoms: C_7  and  C_12
    7  A    between atoms: C_30  and  N_34
                            x       y       z     vdW  Elec       q    Type
                         _______ _______ _______ _____ _____    ______ ____

>  <TORSDO>
F 7

$$$$
=
 OpenBabel11062419303D

 40 45  0  0  1  0  0  0  0  0999 V2000
  192.6780  175.8330  142.5740 C   0  0  0  0  0  2  0  0  0  0  0  0
  193.7690  176.9420  144.4550 O   0  0  0  0  0  0  0  0  0  0  0  0
  191.2150  174.0390  141.6210 C   0  0  0  0  0  3  0  0  0  0  0  0
  191.4340  176.3740  144.8810 C   0  0  0  0  0  2  0  0  0  0  0  0
  190.6070  177.5550  144.3460 C   0  0  1  0  0  3  0  0  0  0  0  0
  193.8590  175.6040  144.9000 C   0  0  1  0  0  3  0  0  0  0  0  0
  192.7120  176.0920  144.0890 C   0  0  1  0  0  0  0  0  0  0  0  0
  188.8270  174.3590  141.3740 C   0  0  0  0  0  3  0  0  0  0  0  0
  191.3370  175.3340  142.1320 C   0  0  0  0  0  0  0  0  0  0  0  0
  189.9610  173.5530  141.2380 C   0  0  0  0  0  0  0  0  0  0  0  0
  190.1940  176.1450  142.2670 C   0  0  0  0  0  0  0  0  0  0  0  0
  188.9410  175.6530  141.8890 C   0  0  0  0  0  3  0  0  0  0  0  0
  190.3140  177.5280  142.8370 C   0  0  0  0  0  2  0  0  0  0  0  0
  189.8130  171.9320  140.5980 Cl  0  0  0  0  0  0  0  0  0  0  0  0
  189.3550  177.6380  145.0790 N   0  0  0  0  0  2  0  0  0  0  0  0
  188.8520  176.3340  145.1850 N   0  0  0  0  0  2  0  0  0  0  0  0
  186.0110  176.8250  147.6600 C   0  0  0  0  0  2  0  0  0  0  0  0
  185.7360  177.1580  141.2140 O   0  0  0  0  0  0  0  0  0  0  0  0
  185.6640  179.5130  143.9420 C   0  0  0  0  0  0  0  0  0  0  0  0
  185.5040  178.9910  142.6260 N   0  0  0  0  0  2  0  0  0  0  0  0
  185.4440  180.7320  144.1630 O   0  0  0  0  0  0  0  0  0  0  0  0
  187.3860  176.9990  147.0050 C   0  0  0  0  0  2  0  0  0  0  0  0
  184.8240  177.0140  146.7110 C   0  0  0  0  0  2  0  0  0  0  0  0
  186.5850  176.8970  143.3690 N   0  0  0  0  0  0  0  0  0  0  0  0
  187.4570  176.4470  145.5790 C   0  0  1  0  0  3  0  0  0  0  0  0
  186.7140  177.3170  144.5940 C   0  0  0  0  0  0  0  0  0  0  0  0
  184.8260  178.3580  145.9740 C   0  0  0  0  0  2  0  0  0  0  0  0
  186.0480  178.6030  145.0720 C   0  0  2  0  0  3  0  0  0  0  0  0
  185.9200  177.6560  142.3550 C   0  0  0  0  0  0  0  0  0  0  0  0
  194.9160  174.8480  144.0860 C   0  0  1  0  0  3  0  0  0  0  0  0
  196.1530  176.1220  141.6670 C   0  0  0  0  0  1  0  0  0  0  0  0
  197.8490  176.8450  143.1630 O   0  0  0  0  0  0  0  0  0  0  0  0
  196.7770  176.2030  143.0180 C   0  0  0  0  0  0  0  0  0  0  0  0
  196.1900  175.5500  144.1470 N   0  0  0  0  0  2  0  0  0  0  0  0
  194.8690  173.1450  145.8860 O   0  0  0  0  0  0  0  0  0  0  0  0
  195.1060  173.3840  144.5180 C   0  0  2  0  0  0  0  0  0  0  0  0
  196.2130  173.0760  145.4510 C   0  0  0  0  0  2  0  0  0  0  0  0
  194.5930  172.2680  143.5940 C   0  0  0  0  0  3  0  0  0  0  0  0
  193.1610  171.9050  143.9410 C   0  0  0  0  0  1  0  0  0  0  0  0
  194.6900  172.5930  142.1090 C   0  0  0  0  0  1  0  0  0  0  0  0
  2  6  1  0  0  0  0
  3  9  1  0  0  0  0
  5  4  1  0  0  0  0
  5 15  1  1  0  0  0
  6 30  1  6  0  0  0
  7  1  1  6  0  0  0
  7  2  1  0  0  0  0
  7  4  1  0  0  0  0
  7  6  1  0  0  0  0
  8 12  2  0  0  0  0
  9 11  2  0  0  0  0
  9  1  1  0  0  0  0
 10  8  1  0  0  0  0
 10  3  2  0  0  0  0
 11 13  1  0  0  0  0
 12 11  1  0  0  0  0
 13  5  1  0  0  0  0
 14 10  1  0  0  0  0
 15 16  1  0  0  0  0
 18 29  2  0  0  0  0
 19 21  2  0  0  0  0
 19 28  1  0  0  0  0
 20 19  1  0  0  0  0
 22 17  1  0  0  0  0
 23 17  1  0  0  0  0
 24 26  2  0  0  0  0
 25 16  1  6  0  0  0
 25 22  1  0  0  0  0
 26 28  1  0  0  0  0
 26 25  1  0  0  0  0
 27 23  1  0  0  0  0
 28 27  1  6  0  0  0
 29 20  1  0  0  0  0
 29 24  1  0  0  0  0
 30 34  1  1  0  0  0
 30 36  1  0  0  0  0
 31 33  1  0  0  0  0
 33 32  2  0  0  0  0
 33 34  1  0  0  0  0
 36 38  1  6  0  0  0
 36 37  1  0  0  0  0
 36 35  1  0  0  0  0
 37 35  1  0  0  0  0
 38 39  1  0  0  0  0
 40 38  1  0  0  0  0
M  END
>  <MODEL>
3

>  <REMARK>
 VINA RESULT:      -7.9      3.015      4.566
  Name = 
  7 active torsions:
  status: ('A' for Active; 'I' for Inactive)
    1  A    between atoms: N_1  and  C_13
    2  A    between atoms: N_1  and  N_34
    3  A    between atoms: C_6  and  C_12
    4  A    between atoms: C_6  and  C_17
    5  A    between atoms: C_6  and  N_38
    6  A    between atoms: C_7  and  C_12
    7  A    between atoms: C_30  and  N_34
                            x       y       z     vdW  Elec       q    Type
                         _______ _______ _______ _____ _____    ______ ____

>  <TORSDO>
F 7

$$$$
=
 OpenBabel11062419303D

 40 45  0  0  1  0  0  0  0  0999 V2000
  192.5320  173.2880  143.4860 C   0  0  0  0  0  2  0  0  0  0  0  0
  190.4900  173.7540  142.2310 O   0  0  0  0  0  0  0  0  0  0  0  0
  194.8670  173.8570  144.1830 C   0  0  0  0  0  3  0  0  0  0  0  0
  191.3980  175.7100  143.3760 C   0  0  0  0  0  2  0  0  0  0  0  0
  190.8100  175.6790  144.7970 C   0  0  1  0  0  3  0  0  0  0  0  0
  191.4400  174.2360  141.3020 C   0  0  1  0  0  3  0  0  0  0  0  0
  191.6530  174.3280  142.7710 C   0  0  1  0  0  0  0  0  0  0  0  0
  195.3040  175.2140  146.1420 C   0  0  0  0  0  3  0  0  0  0  0  0
  193.4950  173.9390  144.4300 C   0  0  0  0  0  0  0  0  0  0  0  0
  195.7720  174.4910  145.0400 C   0  0  0  0  0  0  0  0  0  0  0  0
  193.0240  174.6660  145.5400 C   0  0  0  0  0  0  0  0  0  0  0  0
  193.9320  175.3040  146.3910 C   0  0  0  0  0  3  0  0  0  0  0  0
  191.5510  174.7780  145.7990 C   0  0  0  0  0  2  0  0  0  0  0  0
  197.4900  174.3850  144.7280 Cl  0  0  0  0  0  0  0  0  0  0  0  0
  190.7450  177.0330  145.3220 N   0  0  0  0  0  2  0  0  0  0  0  0
  189.7580  177.7100  144.5940 N   0  0  0  0  0  2  0  0  0  0  0  0
  187.1830  176.7910  147.2320 C   0  0  0  0  0  2  0  0  0  0  0  0
  186.2330  177.5820  140.8910 O   0  0  0  0  0  0  0  0  0  0  0  0
  185.4830  179.4480  143.8830 C   0  0  0  0  0  0  0  0  0  0  0  0
  185.4250  179.0300  142.5210 N   0  0  0  0  0  2  0  0  0  0  0  0
  184.8220  180.4510  144.2580 O   0  0  0  0  0  0  0  0  0  0  0  0
  188.3160  177.5610  146.5430 C   0  0  0  0  0  2  0  0  0  0  0  0
  185.9390  176.5770  146.3650 C   0  0  0  0  0  2  0  0  0  0  0  0
  187.3020  177.4840  142.9590 N   0  0  0  0  0  0  0  0  0  0  0  0
  188.4720  177.2180  145.0600 C   0  0  1  0  0  3  0  0  0  0  0  0
  187.3640  177.8060  144.2190 C   0  0  0  0  0  0  0  0  0  0  0  0
  185.3480  177.8710  145.7960 C   0  0  0  0  0  2  0  0  0  0  0  0
  186.2910  178.6670  144.8770 C   0  0  2  0  0  3  0  0  0  0  0  0
  186.3060  178.0040  142.0740 C   0  0  0  0  0  0  0  0  0  0  0  0
  192.1730  173.0620  140.6420 C   0  0  1  0  0  3  0  0  0  0  0  0
  190.8190  170.3970  140.9110 C   0  0  0  0  0  1  0  0  0  0  0  0
  189.9260  170.8600  138.7610 O   0  0  0  0  0  0  0  0  0  0  0  0
  190.6650  171.2520  139.6990 C   0  0  0  0  0  0  0  0  0  0  0  0
  191.3550  172.4970  139.5780 N   0  0  0  0  0  2  0  0  0  0  0  0
  194.0950  172.4850  139.1900 O   0  0  0  0  0  0  0  0  0  0  0  0
  193.5650  173.4230  140.0970 C   0  0  2  0  0  0  0  0  0  0  0  0
  194.7000  172.5480  140.4660 C   0  0  0  0  0  2  0  0  0  0  0  0
  193.8560  174.8840  139.7210 C   0  0  0  0  0  3  0  0  0  0  0  0
  194.8560  175.4940  140.6840 C   0  0  0  0  0  1  0  0  0  0  0  0
  194.3440  175.0750  138.2910 C   0  0  0  0  0  1  0  0  0  0  0  0
  1  9  1  0  0  0  0
  2  7  1  0  0  0  0
  3  9  2  0  0  0  0
  3 10  1  0  0  0  0
  4  5  1  0  0  0  0
  5 15  1  1  0  0  0
  5 13  1  0  0  0  0
  6 30  1  6  0  0  0
  6  2  1  0  0  0  0
  6  7  1  0  0  0  0
  7  4  1  1  0  0  0
  7  1  1  0  0  0  0
  8 12  1  0  0  0  0
  9 11  1  0  0  0  0
 10  8  2  0  0  0  0
 11 13  1  0  0  0  0
 11 12  2  0  0  0  0
 14 10  1  0  0  0  0
 16 15  1  0  0  0  0
 18 29  2  0  0  0  0
 19 21  2  0  0  0  0
 19 28  1  0  0  0  0
 20 19  1  0  0  0  0
 22 17  1  0  0  0  0
 23 17  1  0  0  0  0
 24 26  2  0  0  0  0
 25 16  1  6  0  0  0
 25 22  1  0  0  0  0
 26 28  1  0  0  0  0
 26 25  1  0  0  0  0
 27 23  1  0  0  0  0
 28 27  1  6  0  0  0
 29 20  1  0  0  0  0
 29 24  1  0  0  0  0
 30 34  1  6  0  0  0
 32 33  2  0  0  0  0
 33 31  1  0  0  0  0
 34 33  1  0  0  0  0
 35 36  1  0  0  0  0
 35 37  1  0  0  0  0
 36 38  1  6  0  0  0
 36 37  1  0  0  0  0
 36 30  1  0  0  0  0
 38 39  1  0  0  0  0
 40 38  1  0  0  0  0
M  END
>  <MODEL>
4

>  <REMARK>
 VINA RESULT:      -7.4      1.891      2.302
  Name = 
  7 active torsions:
  status: ('A' for Active; 'I' for Inactive)
    1  A    between atoms: N_1  and  C_13
    2  A    between atoms: N_1  and  N_34
    3  A    between atoms: C_6  and  C_12
    4  A    between atoms: C_6  and  C_17
    5  A    between atoms: C_6  and  N_38
    6  A    between atoms: C_7  and  C_12
    7  A    between atoms: C_30  and  N_34
                            x       y       z     vdW  Elec       q    Type
                         _______ _______ _______ _____ _____    ______ ____

>  <TORSDO>
F 7

$$$$
=
 OpenBabel11062419303D

 40 45  0  0  1  0  0  0  0  0999 V2000
  191.2410  172.2980  141.5920 C   0  0  0  0  0  2  0  0  0  0  0  0
  190.2880  172.4690  139.3500 O   0  0  0  0  0  0  0  0  0  0  0  0
  192.3190  173.3110  143.6110 C   0  0  0  0  0  3  0  0  0  0  0  0
  189.5340  174.2270  140.8670 C   0  0  0  0  0  2  0  0  0  0  0  0
  188.3150  173.6520  141.6080 C   0  0  1  0  0  3  0  0  0  0  0  0
  191.3150  173.4330  139.2320 C   0  0  1  0  0  3  0  0  0  0  0  0
  190.6020  173.1900  140.5150 C   0  0  1  0  0  0  0  0  0  0  0  0
  190.9960  174.1660  145.4510 C   0  0  0  0  0  3  0  0  0  0  0  0
  191.1500  172.9250  142.9490 C   0  0  0  0  0  0  0  0  0  0  0  0
  192.2420  173.9280  144.8630 C   0  0  0  0  0  0  0  0  0  0  0  0
  189.8960  173.1630  143.5420 C   0  0  0  0  0  0  0  0  0  0  0  0
  189.8230  173.7860  144.7910 C   0  0  0  0  0  3  0  0  0  0  0  0
  188.6370  172.7720  142.8260 C   0  0  0  0  0  2  0  0  0  0  0  0
  193.7060  174.4100  145.6890 Cl  0  0  0  0  0  0  0  0  0  0  0  0
  187.4410  174.7400  142.0160 N   0  0  0  0  0  2  0  0  0  0  0  0
  187.8550  175.8840  141.3190 N   0  0  0  0  0  2  0  0  0  0  0  0
  185.1810  178.0580  142.9190 C   0  0  0  0  0  2  0  0  0  0  0  0
  191.5640  178.2910  143.8880 O   0  0  0  0  0  0  0  0  0  0  0  0
  188.6960  177.1320  145.7400 C   0  0  0  0  0  0  0  0  0  0  0  0
  190.0300  177.5600  145.4750 N   0  0  0  0  0  2  0  0  0  0  0  0
  188.3870  176.7220  146.8880 O   0  0  0  0  0  0  0  0  0  0  0  0
  185.9090  176.7910  142.4560 C   0  0  0  0  0  2  0  0  0  0  0  0
  186.0410  179.0230  143.7420 C   0  0  0  0  0  2  0  0  0  0  0  0
  189.4870  177.6270  143.0660 N   0  0  0  0  0  0  0  0  0  0  0  0
  187.3670  177.0340  142.0630 C   0  0  1  0  0  3  0  0  0  0  0  0
  188.2490  177.2780  143.2640 C   0  0  0  0  0  0  0  0  0  0  0  0
  186.6910  178.3800  144.9710 C   0  0  0  0  0  2  0  0  0  0  0  0
  187.6510  177.2170  144.6660 C   0  0  2  0  0  3  0  0  0  0  0  0
  190.4080  177.8590  144.1350 C   0  0  0  0  0  0  0  0  0  0  0  0
  192.6800  172.7390  139.1410 C   0  0  1  0  0  3  0  0  0  0  0  0
  193.1270  169.8020  139.5650 C   0  0  0  0  0  1  0  0  0  0  0  0
  192.7800  169.6160  137.2240 O   0  0  0  0  0  0  0  0  0  0  0  0
  192.8510  170.3810  138.2190 C   0  0  0  0  0  0  0  0  0  0  0  0
  192.6850  171.7890  138.0380 N   0  0  0  0  0  2  0  0  0  0  0  0
  193.5770  174.8750  138.2640 O   0  0  0  0  0  0  0  0  0  0  0  0
  193.8640  173.7100  139.0010 C   0  0  2  0  0  0  0  0  0  0  0  0
  194.4250  173.9260  137.6480 C   0  0  0  0  0  2  0  0  0  0  0  0
  194.7700  173.9520  140.2190 C   0  0  0  0  0  3  0  0  0  0  0  0
  194.2440  175.1030  141.0560 C   0  0  0  0  0  1  0  0  0  0  0  0
  194.9670  172.7280  141.1040 C   0  0  0  0  0  1  0  0  0  0  0  0
  1  9  1  0  0  0  0
  2  7  1  0  0  0  0
  3 10  1  0  0  0  0
  4  5  1  0  0  0  0
  5 15  1  1  0  0  0
  5 13  1  0  0  0  0
  6 30  1  1  0  0  0
  6  2  1  0  0  0  0
  6  7  1  0  0  0  0
  7  4  1  1  0  0  0
  7  1  1  0  0  0  0
  9 11  1  0  0  0  0
  9  3  2  0  0  0  0
 10  8  2  0  0  0  0
 10 14  1  0  0  0  0
 11 12  2  0  0  0  0
 12  8  1  0  0  0  0
 13 11  1  0  0  0  0
 16 15  1  0  0  0  0
 17 23  1  0  0  0  0
 18 29  2  0  0  0  0
 19 21  2  0  0  0  0
 20 19  1  0  0  0  0
 22 17  1  0  0  0  0
 23 27  1  0  0  0  0
 24 26  2  0  0  0  0
 24 29  1  0  0  0  0
 25 16  1  1  0  0  0
 25 22  1  0  0  0  0
 25 26  1  0  0  0  0
 26 28  1  0  0  0  0
 28 27  1  1  0  0  0
 28 19  1  0  0  0  0
 29 20  1  0  0  0  0
 30 34  1  6  0  0  0
 32 33  2  0  0  0  0
 33 31  1  0  0  0  0
 34 33  1  0  0  0  0
 35 36  1  0  0  0  0
 36 30  1  0  0  0  0
 36 38  1  1  0  0  0
 37 35  1  0  0  0  0
 37 36  1  0  0  0  0
 38 39  1  0  0  0  0
 38 40  1  0  0  0  0
M  END
>  <MODEL>
5

>  <REMARK>
 VINA RESULT:      -7.4      2.916      4.294
  Name = 
  7 active torsions:
  status: ('A' for Active; 'I' for Inactive)
    1  A    between atoms: N_1  and  C_13
    2  A    between atoms: N_1  and  N_34
    3  A    between atoms: C_6  and  C_12
    4  A    between atoms: C_6  and  C_17
    5  A    between atoms: C_6  and  N_38
    6  A    between atoms: C_7  and  C_12
    7  A    between atoms: C_30  and  N_34
                            x       y       z     vdW  Elec       q    Type
                         _______ _______ _______ _____ _____    ______ ____

>  <TORSDO>
F 7

$$$$
=
 OpenBabel11062419303D

 40 45  0  0  1  0  0  0  0  0999 V2000
  192.9440  173.7140  141.9760 C   0  0  0  0  0  2  0  0  0  0  0  0
  192.6590  176.0790  142.5100 O   0  0  0  0  0  0  0  0  0  0  0  0
  192.6410  171.2850  142.4990 C   0  0  0  0  0  3  0  0  0  0  0  0
  190.6440  174.7490  142.8710 C   0  0  0  0  0  2  0  0  0  0  0  0
  189.9130  174.7140  141.5180 C   0  0  1  0  0  3  0  0  0  0  0  0
  192.8570  175.5760  143.8160 C   0  0  1  0  0  3  0  0  0  0  0  0
  192.1700  174.7860  142.7600 C   0  0  1  0  0  0  0  0  0  0  0  0
  190.6840  170.0690  141.7510 C   0  0  0  0  0  3  0  0  0  0  0  0
  192.1650  172.4400  141.8720 C   0  0  0  0  0  0  0  0  0  0  0  0
  191.9030  170.1000  142.4360 C   0  0  0  0  0  0  0  0  0  0  0  0
  190.9380  172.4090  141.1820 C   0  0  0  0  0  0  0  0  0  0  0  0
  190.2000  171.2220  141.1260 C   0  0  0  0  0  3  0  0  0  0  0  0
  190.4100  173.6500  140.5260 C   0  0  0  0  0  2  0  0  0  0  0  0
  192.5020  168.6570  143.2210 Cl  0  0  0  0  0  0  0  0  0  0  0  0
  188.4890  174.5350  141.7440 N   0  0  0  0  0  2  0  0  0  0  0  0
  188.2300  174.9190  143.0670 N   0  0  0  0  0  2  0  0  0  0  0  0
  186.0940  177.7840  141.7750 C   0  0  0  0  0  2  0  0  0  0  0  0
  189.5330  177.5720  147.2410 O   0  0  0  0  0  0  0  0  0  0  0  0
  186.0410  177.4020  146.3610 C   0  0  0  0  0  0  0  0  0  0  0  0
  187.2090  177.5660  147.1610 N   0  0  0  0  0  2  0  0  0  0  0  0
  184.9050  177.4170  146.9010 O   0  0  0  0  0  0  0  0  0  0  0  0
  186.4810  176.3600  142.1910 C   0  0  0  0  0  2  0  0  0  0  0  0
  186.3640  178.8540  142.8380 C   0  0  0  0  0  2  0  0  0  0  0  0
  188.5850  176.9260  145.2120 N   0  0  0  0  0  0  0  0  0  0  0  0
  187.7610  176.2950  143.0270 C   0  0  1  0  0  3  0  0  0  0  0  0
  187.5490  176.8050  144.4330 C   0  0  0  0  0  0  0  0  0  0  0  0
  185.7060  178.5640  144.1920 C   0  0  0  0  0  2  0  0  0  0  0  0
  186.1620  177.2610  144.8720 C   0  0  2  0  0  3  0  0  0  0  0  0
  188.4890  177.3780  146.5650 C   0  0  0  0  0  0  0  0  0  0  0  0
  194.3290  175.1950  144.0150 C   0  0  1  0  0  3  0  0  0  0  0  0
  196.4030  174.6350  141.9190 C   0  0  0  0  0  1  0  0  0  0  0  0
  196.8220  176.9710  141.9970 O   0  0  0  0  0  0  0  0  0  0  0  0
  196.1570  176.0060  142.4520 C   0  0  0  0  0  0  0  0  0  0  0  0
  195.1930  176.2380  143.4820 N   0  0  0  0  0  2  0  0  0  0  0  0
  193.6430  175.0490  146.3910 O   0  0  0  0  0  0  0  0  0  0  0  0
  194.7050  174.9020  145.4780 C   0  0  2  0  0  0  0  0  0  0  0  0
  194.6630  176.0260  146.4400 C   0  0  0  0  0  2  0  0  0  0  0  0
  195.6250  173.7090  145.7800 C   0  0  0  0  0  3  0  0  0  0  0  0
  195.1710  172.4780  145.0180 C   0  0  0  0  0  1  0  0  0  0  0  0
  197.0990  173.9690  145.4950 C   0  0  0  0  0  1  0  0  0  0  0  0
  2  7  1  0  0  0  0
  2  6  1  0  0  0  0
  5 15  1  1  0  0  0
  5  4  1  0  0  0  0
  6 30  1  6  0  0  0
  7  1  1  6  0  0  0
  7  4  1  0  0  0  0
  7  6  1  0  0  0  0
  8 10  2  0  0  0  0
  9  1  1  0  0  0  0
  9  3  2  0  0  0  0
 10  3  1  0  0  0  0
 10 14  1  0  0  0  0
 11  9  1  0  0  0  0
 12 11  2  0  0  0  0
 12  8  1  0  0  0  0
 13 11  1  0  0  0  0
 13  5  1  0  0  0  0
 15 16  1  0  0  0  0
 17 22  1  0  0  0  0
 17 23  1  0  0  0  0
 19 21  2  0  0  0  0
 19 20  1  0  0  0  0
 22 25  1  0  0  0  0
 23 27  1  0  0  0  0
 24 29  1  0  0  0  0
 25 16  1  1  0  0  0
 25 26  1  0  0  0  0
 26 28  1  0  0  0  0
 26 24  2  0  0  0  0
 28 27  1  6  0  0  0
 28 19  1  0  0  0  0
 29 20  1  0  0  0  0
 29 18  2  0  0  0  0
 30 34  1  1  0  0  0
 30 36  1  0  0  0  0
 31 33  1  0  0  0  0
 32 33  2  0  0  0  0
 33 34  1  0  0  0  0
 35 37  1  0  0  0  0
 36 38  1  1  0  0  0
 36 35  1  0  0  0  0
 36 37  1  0  0  0  0
 39 38  1  0  0  0  0
 40 38  1  0  0  0  0
M  END
>  <MODEL>
6

>  <REMARK>
 VINA RESULT:      -7.4      3.089      5.554
  Name = 
  7 active torsions:
  status: ('A' for Active; 'I' for Inactive)
    1  A    between atoms: N_1  and  C_13
    2  A    between atoms: N_1  and  N_34
    3  A    between atoms: C_6  and  C_12
    4  A    between atoms: C_6  and  C_17
    5  A    between atoms: C_6  and  N_38
    6  A    between atoms: C_7  and  C_12
    7  A    between atoms: C_30  and  N_34
                            x       y       z     vdW  Elec       q    Type
                         _______ _______ _______ _____ _____    ______ ____

>  <TORSDO>
F 7

$$$$
=
 OpenBabel11062419303D

 40 45  0  0  1  0  0  0  0  0999 V2000
  190.4170  173.0020  140.3900 C   0  0  0  0  0  2  0  0  0  0  0  0
  188.3160  172.6460  139.1990 O   0  0  0  0  0  0  0  0  0  0  0  0
  192.2950  174.4690  141.1550 C   0  0  0  0  0  3  0  0  0  0  0  0
  188.3250  174.6610  140.5780 C   0  0  0  0  0  2  0  0  0  0  0  0
  187.8890  174.2130  141.9830 C   0  0  1  0  0  3  0  0  0  0  0  0
  188.9040  173.6010  138.3380 C   0  0  1  0  0  3  0  0  0  0  0  0
  189.1330  173.6140  139.8070 C   0  0  1  0  0  0  0  0  0  0  0  0
  192.1910  175.6510  143.2680 C   0  0  0  0  0  3  0  0  0  0  0  0
  191.0420  173.9040  141.4090 C   0  0  0  0  0  0  0  0  0  0  0  0
  192.8710  175.3400  142.0860 C   0  0  0  0  0  0  0  0  0  0  0  0
  190.3590  174.2160  142.5990 C   0  0  0  0  0  0  0  0  0  0  0  0
  190.9350  175.0920  143.5240 C   0  0  0  0  0  3  0  0  0  0  0  0
  189.0040  173.6300  142.8670 C   0  0  0  0  0  2  0  0  0  0  0  0
  194.4390  176.0450  141.7650 Cl  0  0  0  0  0  0  0  0  0  0  0  0
  187.2610  175.3280  142.6710 N   0  0  0  0  0  2  0  0  0  0  0  0
  187.6240  176.4940  141.9830 N   0  0  0  0  0  2  0  0  0  0  0  0
  184.9590  178.9780  143.0650 C   0  0  0  0  0  2  0  0  0  0  0  0
  190.5720  177.6780  145.9910 O   0  0  0  0  0  0  0  0  0  0  0  0
  187.0940  176.9480  146.6000 C   0  0  0  0  0  0  0  0  0  0  0  0
  188.4890  177.1030  146.8500 N   0  0  0  0  0  2  0  0  0  0  0  0
  186.3480  176.4700  147.4930 O   0  0  0  0  0  0  0  0  0  0  0  0
  185.5840  177.6510  142.6140 C   0  0  0  0  0  2  0  0  0  0  0  0
  185.6320  179.6160  144.2850 C   0  0  0  0  0  2  0  0  0  0  0  0
  188.8220  177.5970  144.4530 N   0  0  0  0  0  0  0  0  0  0  0  0
  187.1070  177.6180  142.7470 C   0  0  1  0  0  3  0  0  0  0  0  0
  187.5510  177.5060  144.1860 C   0  0  0  0  0  0  0  0  0  0  0  0
  185.7070  178.6930  145.5060 C   0  0  0  0  0  2  0  0  0  0  0  0
  186.5090  177.3970  145.2940 C   0  0  2  0  0  3  0  0  0  0  0  0
  189.3460  177.4820  145.7780 C   0  0  0  0  0  0  0  0  0  0  0  0
  190.0440  172.9570  137.5390 C   0  0  1  0  0  3  0  0  0  0  0  0
  191.7900  170.5940  138.1500 C   0  0  0  0  0  1  0  0  0  0  0  0
  190.0590  169.3120  137.1530 O   0  0  0  0  0  0  0  0  0  0  0  0
  190.4720  170.4570  137.4680 C   0  0  0  0  0  0  0  0  0  0  0  0
  189.6790  171.6030  137.1490 N   0  0  0  0  0  2  0  0  0  0  0  0
  189.6210  174.8450  135.9910 O   0  0  0  0  0  0  0  0  0  0  0  0
  190.4680  173.7620  136.2990 C   0  0  2  0  0  0  0  0  0  0  0  0
  189.5740  173.7340  135.1190 C   0  0  0  0  0  2  0  0  0  0  0  0
  191.9600  174.0590  136.0840 C   0  0  0  0  0  3  0  0  0  0  0  0
  192.6170  174.4660  137.3890 C   0  0  0  0  0  1  0  0  0  0  0  0
  192.7410  172.9100  135.4580 C   0  0  0  0  0  1  0  0  0  0  0  0
  1  9  1  0  0  0  0
  2  7  1  0  0  0  0
  3  9  2  0  0  0  0
  3 10  1  0  0  0  0
  4  5  1  0  0  0  0
  5 15  1  1  0  0  0
  5 13  1  0  0  0  0
  6 30  1  6  0  0  0
  6  2  1  0  0  0  0
  6  7  1  0  0  0  0
  7  1  1  1  0  0  0
  7  4  1  0  0  0  0
  8 12  1  0  0  0  0
  9 11  1  0  0  0  0
 10  8  2  0  0  0  0
 11 13  1  0  0  0  0
 11 12  2  0  0  0  0
 14 10  1  0  0  0  0
 16 15  1  0  0  0  0
 17 23  1  0  0  0  0
 19 20  1  0  0  0  0
 19 21  2  0  0  0  0
 22 25  1  0  0  0  0
 22 17  1  0  0  0  0
 23 27  1  0  0  0  0
 24 29  1  0  0  0  0
 25 16  1  6  0  0  0
 25 26  1  0  0  0  0
 26 24  2  0  0  0  0
 26 28  1  0  0  0  0
 28 27  1  1  0  0  0
 28 19  1  0  0  0  0
 29 18  2  0  0  0  0
 29 20  1  0  0  0  0
 30 34  1  6  0  0  0
 32 33  2  0  0  0  0
 33 31  1  0  0  0  0
 34 33  1  0  0  0  0
 35 36  1  0  0  0  0
 36 38  1  6  0  0  0
 36 30  1  0  0  0  0
 37 35  1  0  0  0  0
 37 36  1  0  0  0  0
 38 39  1  0  0  0  0
 40 38  1  0  0  0  0
M  END
>  <MODEL>
7

>  <REMARK>
 VINA RESULT:      -7.2      3.273      4.860
  Name = 
  7 active torsions:
  status: ('A' for Active; 'I' for Inactive)
    1  A    between atoms: N_1  and  C_13
    2  A    between atoms: N_1  and  N_34
    3  A    between atoms: C_6  and  C_12
    4  A    between atoms: C_6  and  C_17
    5  A    between atoms: C_6  and  N_38
    6  A    between atoms: C_7  and  C_12
    7  A    between atoms: C_30  and  N_34
                            x       y       z     vdW  Elec       q    Type
                         _______ _______ _______ _____ _____    ______ ____

>  <TORSDO>
F 7

$$$$
=
 OpenBabel11062419303D

 40 45  0  0  1  0  0  0  0  0999 V2000
  192.1580  172.8740  142.8090 C   0  0  0  0  0  2  0  0  0  0  0  0
  191.1770  172.6740  140.5830 O   0  0  0  0  0  0  0  0  0  0  0  0
  193.2090  174.2180  144.6410 C   0  0  0  0  0  3  0  0  0  0  0  0
  190.3600  174.6020  141.8360 C   0  0  0  0  0  2  0  0  0  0  0  0
  189.1750  174.0920  142.6730 C   0  0  1  0  0  3  0  0  0  0  0  0
  192.1590  173.6520  140.3080 C   0  0  1  0  0  3  0  0  0  0  0  0
  191.4700  173.5700  141.6240 C   0  0  1  0  0  0  0  0  0  0  0  0
  191.8670  175.2780  146.3560 C   0  0  0  0  0  3  0  0  0  0  0  0
  192.0520  173.6900  144.0610 C   0  0  0  0  0  0  0  0  0  0  0  0
  193.1170  175.0100  145.7900 C   0  0  0  0  0  0  0  0  0  0  0  0
  190.7940  173.9600  144.6320 C   0  0  0  0  0  0  0  0  0  0  0  0
  190.7060  174.7570  145.7780 C   0  0  0  0  0  3  0  0  0  0  0  0
  189.5470  173.4140  144.0020 C   0  0  0  0  0  2  0  0  0  0  0  0
  194.5660  175.6690  146.5130 Cl  0  0  0  0  0  0  0  0  0  0  0  0
  188.2580  175.1900  142.9310 N   0  0  0  0  0  2  0  0  0  0  0  0
  188.9380  176.3750  142.6200 N   0  0  0  0  0  2  0  0  0  0  0  0
  185.9440  178.6660  142.1430 C   0  0  0  0  0  2  0  0  0  0  0  0
  189.5370  177.9160  147.4600 O   0  0  0  0  0  0  0  0  0  0  0  0
  186.2390  176.9250  146.3910 C   0  0  0  0  0  0  0  0  0  0  0  0
  187.3330  177.2000  147.2630 N   0  0  0  0  0  2  0  0  0  0  0  0
  185.1850  176.4160  146.8520 O   0  0  0  0  0  0  0  0  0  0  0  0
  186.7820  177.3820  142.1300 C   0  0  0  0  0  2  0  0  0  0  0  0
  185.9130  179.3930  143.4900 C   0  0  0  0  0  2  0  0  0  0  0  0
  188.7440  177.6470  145.2850 N   0  0  0  0  0  0  0  0  0  0  0  0
  188.0560  177.4760  142.9720 C   0  0  1  0  0  3  0  0  0  0  0  0
  187.7630  177.4440  144.4530 C   0  0  0  0  0  0  0  0  0  0  0  0
  185.4480  178.5170  144.6580 C   0  0  0  0  0  2  0  0  0  0  0  0
  186.3260  177.2850  144.9370 C   0  0  2  0  0  3  0  0  0  0  0  0
  188.5760  177.6140  146.7040 C   0  0  0  0  0  0  0  0  0  0  0  0
  193.5520  173.0110  140.2980 C   0  0  1  0  0  3  0  0  0  0  0  0
  194.1970  170.2080  141.1550 C   0  0  0  0  0  1  0  0  0  0  0  0
  193.7930  169.6360  138.8870 O   0  0  0  0  0  0  0  0  0  0  0  0
  193.8450  170.5510  139.7480 C   0  0  0  0  0  0  0  0  0  0  0  0
  193.5850  171.9010  139.3570 N   0  0  0  0  0  2  0  0  0  0  0  0
  194.3540  174.9920  139.0460 O   0  0  0  0  0  0  0  0  0  0  0  0
  194.6900  173.9970  139.9840 C   0  0  2  0  0  0  0  0  0  0  0  0
  195.2520  173.9890  138.6150 C   0  0  0  0  0  2  0  0  0  0  0  0
  195.5710  174.5010  141.1380 C   0  0  0  0  0  3  0  0  0  0  0  0
  194.9480  175.7200  141.7920 C   0  0  0  0  0  1  0  0  0  0  0  0
  195.8700  173.4510  142.2000 C   0  0  0  0  0  1  0  0  0  0  0  0
  1  9  1  0  0  0  0
  2  7  1  0  0  0  0
  3 10  1  0  0  0  0
  4  5  1  0  0  0  0
  5 15  1  1  0  0  0
  5 13  1  0  0  0  0
  6 30  1  1  0  0  0
  6  2  1  0  0  0  0
  6  7  1  0  0  0  0
  7  4  1  1  0  0  0
  7  1  1  0  0  0  0
  9 11  1  0  0  0  0
  9  3  2  0  0  0  0
 10  8  2  0  0  0  0
 10 14  1  0  0  0  0
 11 12  2  0  0  0  0
 12  8  1  0  0  0  0
 13 11  1  0  0  0  0
 16 15  1  0  0  0  0
 17 23  1  0  0  0  0
 19 21  2  0  0  0  0
 19 20  1  0  0  0  0
 22 17  1  0  0  0  0
 22 25  1  0  0  0  0
 23 27  1  0  0  0  0
 24 29  1  0  0  0  0
 25 16  1  6  0  0  0
 25 26  1  0  0  0  0
 26 28  1  0  0  0  0
 26 24  2  0  0  0  0
 28 27  1  1  0  0  0
 28 19  1  0  0  0  0
 29 20  1  0  0  0  0
 29 18  2  0  0  0  0
 30 34  1  6  0  0  0
 32 33  2  0  0  0  0
 33 31  1  0  0  0  0
 34 33  1  0  0  0  0
 35 36  1  0  0  0  0
 36 30  1  0  0  0  0
 36 38  1  1  0  0  0
 37 35  1  0  0  0  0
 37 36  1  0  0  0  0
 38 39  1  0  0  0  0
 38 40  1  0  0  0  0
M  END
>  <MODEL>
8

>  <REMARK>
 VINA RESULT:      -7.2      2.374      3.704
  Name = 
  7 active torsions:
  status: ('A' for Active; 'I' for Inactive)
    1  A    between atoms: N_1  and  C_13
    2  A    between atoms: N_1  and  N_34
    3  A    between atoms: C_6  and  C_12
    4  A    between atoms: C_6  and  C_17
    5  A    between atoms: C_6  and  N_38
    6  A    between atoms: C_7  and  C_12
    7  A    between atoms: C_30  and  N_34
                            x       y       z     vdW  Elec       q    Type
                         _______ _______ _______ _____ _____    ______ ____

>  <TORSDO>
F 7

$$$$
=
 OpenBabel11062419303D

 40 45  0  0  1  0  0  0  0  0999 V2000
  190.3770  171.6560  141.2240 C   0  0  0  0  0  2  0  0  0  0  0  0
  189.6330  172.1340  138.9480 O   0  0  0  0  0  0  0  0  0  0  0  0
  191.7580  172.1760  143.2450 C   0  0  0  0  0  3  0  0  0  0  0  0
  189.7070  174.1070  140.3840 C   0  0  0  0  0  2  0  0  0  0  0  0
  188.3470  174.1590  141.1020 C   0  0  1  0  0  3  0  0  0  0  0  0
  190.9810  172.5430  138.8350 C   0  0  1  0  0  3  0  0  0  0  0  0
  190.2140  172.6920  140.1000 C   0  0  1  0  0  0  0  0  0  0  0  0
  190.9180  173.6030  145.0140 C   0  0  0  0  0  3  0  0  0  0  0  0
  190.5500  172.3160  142.5570 C   0  0  0  0  0  0  0  0  0  0  0  0
  191.9410  172.8170  144.4750 C   0  0  0  0  0  0  0  0  0  0  0  0
  189.5200  173.1060  143.1010 C   0  0  0  0  0  0  0  0  0  0  0  0
  189.7090  173.7500  144.3280 C   0  0  0  0  0  3  0  0  0  0  0  0
  188.2290  173.2780  142.3570 C   0  0  0  0  0  2  0  0  0  0  0  0
  193.4550  172.6400  145.3330 Cl  0  0  0  0  0  0  0  0  0  0  0  0
  188.0360  175.5360  141.4470 N   0  0  0  0  0  2  0  0  0  0  0  0
  187.0680  175.4980  142.4600 N   0  0  0  0  0  2  0  0  0  0  0  0
  184.9920  178.6650  142.7790 C   0  0  0  0  0  2  0  0  0  0  0  0
  190.4270  177.1670  145.9360 O   0  0  0  0  0  0  0  0  0  0  0  0
  186.9190  177.3480  146.7450 C   0  0  0  0  0  0  0  0  0  0  0  0
  188.3300  177.2880  146.9330 N   0  0  0  0  0  2  0  0  0  0  0  0
  186.1520  177.3040  147.7410 O   0  0  0  0  0  0  0  0  0  0  0  0
  185.3260  177.1690  142.7330 C   0  0  0  0  0  2  0  0  0  0  0  0
  185.8470  179.4780  143.7560 C   0  0  0  0  0  2  0  0  0  0  0  0
  188.6030  177.0000  144.4950 N   0  0  0  0  0  0  0  0  0  0  0  0
  186.8210  176.8730  142.8640 C   0  0  1  0  0  3  0  0  0  0  0  0
  187.3240  177.0910  144.2710 C   0  0  0  0  0  0  0  0  0  0  0  0
  185.8220  178.9470  145.1940 C   0  0  0  0  0  2  0  0  0  0  0  0
  186.3490  177.5120  145.3660 C   0  0  2  0  0  3  0  0  0  0  0  0
  189.1760  177.1660  145.7940 C   0  0  0  0  0  0  0  0  0  0  0  0
  191.9020  171.3160  138.8100 C   0  0  1  0  0  3  0  0  0  0  0  0
  190.5970  168.6600  138.3090 C   0  0  0  0  0  1  0  0  0  0  0  0
  191.1940  169.0220  136.0400 O   0  0  0  0  0  0  0  0  0  0  0  0
  191.2260  169.4590  137.2190 C   0  0  0  0  0  0  0  0  0  0  0  0
  191.8800  170.7000  137.4910 N   0  0  0  0  0  2  0  0  0  0  0  0
  194.3020  170.7110  138.7120 O   0  0  0  0  0  0  0  0  0  0  0  0
  193.3530  171.6180  139.2220 C   0  0  2  0  0  0  0  0  0  0  0  0
  194.0390  170.6430  140.0990 C   0  0  0  0  0  2  0  0  0  0  0  0
  193.8310  173.0780  139.2320 C   0  0  0  0  0  3  0  0  0  0  0  0
  194.0520  173.5580  140.6540 C   0  0  0  0  0  1  0  0  0  0  0  0
  195.0880  173.3290  138.4090 C   0  0  0  0  0  1  0  0  0  0  0  0
  1  9  1  0  0  0  0
  2  7  1  0  0  0  0
  3 10  1  0  0  0  0
  4  5  1  0  0  0  0
  5 15  1  1  0  0  0
  5 13  1  0  0  0  0
  6 30  1  1  0  0  0
  6  2  1  0  0  0  0
  6  7  1  0  0  0  0
  7  4  1  1  0  0  0
  7  1  1  0  0  0  0
  9 11  1  0  0  0  0
  9  3  2  0  0  0  0
 10  8  2  0  0  0  0
 10 14  1  0  0  0  0
 11 12  2  0  0  0  0
 12  8  1  0  0  0  0
 13 11  1  0  0  0  0
 15 16  1  0  0  0  0
 17 23  1  0  0  0  0
 19 20  1  0  0  0  0
 19 21  2  0  0  0  0
 22 17  1  0  0  0  0
 22 25  1  0  0  0  0
 23 27  1  0  0  0  0
 24 29  1  0  0  0  0
 25 16  1  1  0  0  0
 25 26  1  0  0  0  0
 26 24  2  0  0  0  0
 26 28  1  0  0  0  0
 28 27  1  6  0  0  0
 28 19  1  0  0  0  0
 29 18  2  0  0  0  0
 29 20  1  0  0  0  0
 30 34  1  6  0  0  0
 30 36  1  0  0  0  0
 32 33  2  0  0  0  0
 33 34  1  0  0  0  0
 33 31  1  0  0  0  0
 35 36  1  0  0  0  0
 35 37  1  0  0  0  0
 36 38  1  1  0  0  0
 36 37  1  0  0  0  0
 38 39  1  0  0  0  0
 40 38  1  0  0  0  0
M  END
>  <MODEL>
9

>  <REMARK>
 VINA RESULT:      -6.9      3.017      4.616
  Name = 
  7 active torsions:
  status: ('A' for Active; 'I' for Inactive)
    1  A    between atoms: N_1  and  C_13
    2  A    between atoms: N_1  and  N_34
    3  A    between atoms: C_6  and  C_12
    4  A    between atoms: C_6  and  C_17
    5  A    between atoms: C_6  and  N_38
    6  A    between atoms: C_7  and  C_12
    7  A    between atoms: C_30  and  N_34
                            x       y       z     vdW  Elec       q    Type
                         _______ _______ _______ _____ _____    ______ ____

>  <TORSDO>
F 7

$$$$
