=
 OpenBabel11072408453D

 36 40  0  0  1  0  0  0  0  0999 V2000
  192.9980  176.2010  145.8110 C   0  0  0  0  0  0  0  0  0  0  0  0
  194.9660  176.2270  144.4530 O   0  0  0  0  0  1  0  0  0  0  0  0
  188.7480  176.2560  145.5450 C   0  0  2  0  0  3  0  0  0  0  0  0
  191.5640  175.8910  145.7420 C   0  0  0  0  0  0  0  0  0  0  0  0
  193.6800  176.7590  144.5940 C   0  0  1  0  0  3  0  0  0  0  0  0
  189.4260  175.6490  144.3140 C   0  0  2  0  0  3  0  0  0  0  0  0
  192.8490  176.5790  143.3020 C   0  0  2  0  0  3  0  0  0  0  0  0
  190.9690  175.7680  144.3550 C   0  0  1  0  0  3  0  0  0  0  0  0
  193.6290  176.0980  146.8980 O   0  0  0  0  0  0  0  0  0  0  0  0
  191.4640  176.7940  143.5180 O   0  0  0  0  0  0  0  0  0  0  0  0
  189.3390  175.6050  146.7920 C   0  0  0  0  0  2  0  0  0  0  0  0
  190.8150  175.8480  146.8490 C   0  0  0  0  0  3  0  0  0  0  0  0
  193.1320  175.2760  142.5490 C   0  0  0  0  0  1  0  0  0  0  0  0
  188.8180  176.2050  143.0260 C   0  0  0  0  0  2  0  0  0  0  0  0
  188.9630  175.2930  141.9760 O   0  0  0  0  0  0  0  0  0  0  0  0
  187.9010  174.3920  142.1180 C   0  0  0  0  0  2  0  0  0  0  0  0
  188.3530  172.9710  141.8000 C   0  0  0  0  0  2  0  0  0  0  0  0
  189.6780  172.7270  142.3510 N   0  0  0  0  0  0  0  0  0  0  0  0
  189.4850  172.1710  143.6870 C   0  0  0  0  0  2  0  0  0  0  0  0
  191.7440  171.4550  141.9970 C   0  0  0  0  0  2  0  0  0  0  0  0
  190.3110  171.6970  141.5280 C   0  0  0  0  0  2  0  0  0  0  0  0
  191.7600  171.2030  143.4750 C   0  0  0  0  0  0  0  0  0  0  0  0
  192.5790  170.4360  143.9540 O   0  0  0  0  0  0  0  0  0  0  0  0
  190.8360  171.9700  144.3750 C   0  0  0  0  0  2  0  0  0  0  0  0
  187.3160  175.9950  145.4990 N   0  0  0  0  0  2  0  0  0  0  0  0
  184.3780  178.1700  142.9410 C   0  0  0  0  0  0  0  0  0  0  0  0
  185.1750  178.4720  147.3490 C   0  0  0  0  0  3  0  0  0  0  0  0
  185.5170  177.5030  144.7970 C   0  0  0  0  0  0  0  0  0  0  0  0
  185.4670  177.2060  143.3440 C   0  0  0  0  0  2  0  0  0  0  0  0
  184.4080  178.9530  146.3260 N   0  0  0  0  0  0  0  0  0  0  0  0
  184.5890  178.4650  145.0730 C   0  0  0  0  0  0  0  0  0  0  0  0
  186.1480  177.4800  147.1080 C   0  0  0  0  0  3  0  0  0  0  0  0
  186.3270  176.9820  145.8040 C   0  0  0  0  0  0  0  0  0  0  0  0
  183.8860  178.8750  143.9180 N   0  0  0  0  0  0  0  0  0  0  0  0
  183.9360  178.2930  141.6240 O   0  0  0  0  0  0  0  0  0  0  0  0
  184.8180  178.1580  140.5200 C   0  0  0  0  0  1  0  0  0  0  0  0
  1  9  2  0  0  0  0
  3 25  1  6  0  0  0
  3 11  1  0  0  0  0
  4  1  1  0  0  0  0
  4 12  2  0  0  0  0
  5  2  1  6  0  0  0
  5  1  1  0  0  0  0
  6 14  1  6  0  0  0
  6  8  1  0  0  0  0
  6  3  1  0  0  0  0
  7 13  1  1  0  0  0
  7 10  1  0  0  0  0
  7  5  1  0  0  0  0
  8 10  1  6  0  0  0
  8  4  1  0  0  0  0
 11 12  1  0  0  0  0
 15 16  1  0  0  0  0
 15 14  1  0  0  0  0
 17 16  1  0  0  0  0
 17 18  1  0  0  0  0
 18 19  1  0  0  0  0
 19 24  1  0  0  0  0
 20 22  1  0  0  0  0
 21 20  1  0  0  0  0
 21 18  1  0  0  0  0
 22 23  2  0  0  0  0
 22 24  1  0  0  0  0
 25 33  1  0  0  0  0
 26 29  1  0  0  0  0
 26 34  2  0  0  0  0
 28 31  2  0  0  0  0
 28 33  1  0  0  0  0
 29 28  1  0  0  0  0
 30 27  2  0  0  0  0
 31 30  1  0  0  0  0
 32 27  1  0  0  0  0
 33 32  2  0  0  0  0
 34 31  1  0  0  0  0
 35 26  1  0  0  0  0
 36 35  1  0  0  0  0
M  END
>  <MODEL>
1

>  <REMARK>
 VINA RESULT:      -7.6      0.000      0.000
  Name = 
  8 active torsions:
  status: ('A' for Active; 'I' for Inactive)
    1  A    between atoms: C_2  and  O_22
    2  A    between atoms: C_2  and  C_31
    3  A    between atoms: C_4  and  N_17
    4  A    between atoms: C_5  and  C_10
    5  A    between atoms: C_5  and  O_22
    6  A    between atoms: N_6  and  C_31
    7  A    between atoms: C_9  and  O_11
    8  A    between atoms: N_17  and  C_26
                            x       y       z     vdW  Elec       q    Type
                         _______ _______ _______ _____ _____    ______ ____

>  <TORSDO>
F 8

$$$$
=
 OpenBabel11072408453D

 36 40  0  0  1  0  0  0  0  0999 V2000
  193.8750  176.2400  146.1300 C   0  0  0  0  0  0  0  0  0  0  0  0
  195.8100  175.2060  145.1800 O   0  0  0  0  0  1  0  0  0  0  0  0
  189.6210  176.0760  146.0630 C   0  0  2  0  0  3  0  0  0  0  0  0
  192.4480  175.9910  146.3740 C   0  0  0  0  0  0  0  0  0  0  0  0
  194.5160  175.6560  144.9020 C   0  0  1  0  0  3  0  0  0  0  0  0
  190.2850  174.7390  145.7240 C   0  0  2  0  0  3  0  0  0  0  0  0
  193.6600  174.5460  144.2480 C   0  0  2  0  0  3  0  0  0  0  0  0
  191.8250  174.8440  145.6070 C   0  0  1  0  0  3  0  0  0  0  0  0
  194.5330  177.0110  146.8800 O   0  0  0  0  0  0  0  0  0  0  0  0
  192.2750  174.8510  144.2660 O   0  0  0  0  0  0  0  0  0  0  0  0
  190.2560  176.6220  147.3380 C   0  0  0  0  0  2  0  0  0  0  0  0
  191.7260  176.8190  147.1370 C   0  0  0  0  0  3  0  0  0  0  0  0
  193.9580  173.1350  144.7630 C   0  0  0  0  0  1  0  0  0  0  0  0
  189.6340  174.1010  144.4970 C   0  0  0  0  0  2  0  0  0  0  0  0
  189.6370  172.7060  144.6040 O   0  0  0  0  0  0  0  0  0  0  0  0
  189.3320  172.2360  143.3210 C   0  0  0  0  0  2  0  0  0  0  0  0
  190.5730  172.2400  142.4350 C   0  0  0  0  0  2  0  0  0  0  0  0
  190.1910  172.3180  141.0330 N   0  0  0  0  0  0  0  0  0  0  0  0
  188.8000  172.7630  140.9960 C   0  0  0  0  0  2  0  0  0  0  0  0
  190.7220  173.4360  138.9160 C   0  0  0  0  0  2  0  0  0  0  0  0
  191.0080  173.3620  140.4150 C   0  0  0  0  0  2  0  0  0  0  0  0
  189.2440  173.5490  138.6850 C   0  0  0  0  0  0  0  0  0  0  0  0
  188.8230  174.1960  137.7410 O   0  0  0  0  0  0  0  0  0  0  0  0
  188.2910  172.7840  139.5550 C   0  0  0  0  0  2  0  0  0  0  0  0
  188.1940  175.8770  146.2830 N   0  0  0  0  0  2  0  0  0  0  0  0
  186.5300  178.2870  142.9180 C   0  0  0  0  0  0  0  0  0  0  0  0
  185.7230  178.5110  147.3290 C   0  0  0  0  0  3  0  0  0  0  0  0
  186.8800  177.5250  145.0360 C   0  0  0  0  0  0  0  0  0  0  0  0
  187.3300  177.2380  143.6510 C   0  0  0  0  0  2  0  0  0  0  0  0
  185.4100  179.0550  146.1160 N   0  0  0  0  0  0  0  0  0  0  0  0
  185.9880  178.5580  144.9950 C   0  0  0  0  0  0  0  0  0  0  0  0
  186.6430  177.4460  147.4190 C   0  0  0  0  0  3  0  0  0  0  0  0
  187.2380  176.9390  146.2480 C   0  0  0  0  0  0  0  0  0  0  0  0
  185.7750  179.0260  143.6790 N   0  0  0  0  0  0  0  0  0  0  0  0
  186.5970  178.4490  141.5350 O   0  0  0  0  0  0  0  0  0  0  0  0
  185.5020  178.1340  140.6870 C   0  0  0  0  0  1  0  0  0  0  0  0
  1  4  1  0  0  0  0
  1  9  2  0  0  0  0
  3 25  1  1  0  0  0
  3 11  1  0  0  0  0
  4 12  2  0  0  0  0
  5  2  1  1  0  0  0
  5  1  1  0  0  0  0
  6 14  1  6  0  0  0
  6  3  1  0  0  0  0
  7 10  1  0  0  0  0
  7 13  1  1  0  0  0
  7  5  1  0  0  0  0
  8 10  1  6  0  0  0
  8  6  1  0  0  0  0
  8  4  1  0  0  0  0
 12 11  1  0  0  0  0
 14 15  1  0  0  0  0
 16 15  1  0  0  0  0
 17 16  1  0  0  0  0
 18 17  1  0  0  0  0
 19 18  1  0  0  0  0
 20 21  1  0  0  0  0
 21 18  1  0  0  0  0
 22 20  1  0  0  0  0
 22 24  1  0  0  0  0
 23 22  2  0  0  0  0
 24 19  1  0  0  0  0
 26 29  1  0  0  0  0
 26 34  2  0  0  0  0
 27 32  1  0  0  0  0
 28 33  1  0  0  0  0
 29 28  1  0  0  0  0
 30 27  2  0  0  0  0
 31 28  2  0  0  0  0
 31 30  1  0  0  0  0
 33 25  1  0  0  0  0
 33 32  2  0  0  0  0
 34 31  1  0  0  0  0
 35 26  1  0  0  0  0
 36 35  1  0  0  0  0
M  END
>  <MODEL>
2

>  <REMARK>
 VINA RESULT:      -7.4      1.890      2.711
  Name = 
  8 active torsions:
  status: ('A' for Active; 'I' for Inactive)
    1  A    between atoms: C_2  and  O_22
    2  A    between atoms: C_2  and  C_31
    3  A    between atoms: C_4  and  N_17
    4  A    between atoms: C_5  and  C_10
    5  A    between atoms: C_5  and  O_22
    6  A    between atoms: N_6  and  C_31
    7  A    between atoms: C_9  and  O_11
    8  A    between atoms: N_17  and  C_26
                            x       y       z     vdW  Elec       q    Type
                         _______ _______ _______ _____ _____    ______ ____

>  <TORSDO>
F 8

$$$$
=
 OpenBabel11072408453D

 36 40  0  0  1  0  0  0  0  0999 V2000
  189.7640  172.7340  141.8490 C   0  0  0  0  0  0  0  0  0  0  0  0
  190.9990  170.7610  142.3930 O   0  0  0  0  0  1  0  0  0  0  0  0
  188.2110  176.2960  143.5900 C   0  0  2  0  0  3  0  0  0  0  0  0
  189.5110  174.0960  142.3370 C   0  0  0  0  0  0  0  0  0  0  0  0
  190.0100  171.6380  142.8470 C   0  0  1  0  0  3  0  0  0  0  0  0
  189.4450  175.7530  144.3160 C   0  0  2  0  0  3  0  0  0  0  0  0
  190.3360  172.1740  144.2610 C   0  0  2  0  0  3  0  0  0  0  0  0
  189.9130  174.3830  143.7680 C   0  0  1  0  0  3  0  0  0  0  0  0
  189.6810  172.4630  140.6190 O   0  0  0  0  0  0  0  0  0  0  0  0
  189.5480  173.3020  144.6040 O   0  0  0  0  0  0  0  0  0  0  0  0
  188.5140  176.3510  142.0960 C   0  0  0  0  0  2  0  0  0  0  0  0
  188.8450  174.9820  141.5880 C   0  0  0  0  0  3  0  0  0  0  0  0
  191.8280  172.3970  144.5210 C   0  0  0  0  0  1  0  0  0  0  0  0
  189.2310  175.7500  145.8290 C   0  0  0  0  0  2  0  0  0  0  0  0
  190.1470  176.5970  146.4610 O   0  0  0  0  0  0  0  0  0  0  0  0
  191.1150  175.7510  147.0140 C   0  0  0  0  0  2  0  0  0  0  0  0
  192.5100  176.3420  146.8450 C   0  0  0  0  0  2  0  0  0  0  0  0
  193.2730  175.5670  145.8780 N   0  0  0  0  0  0  0  0  0  0  0  0
  193.1670  176.2630  144.5990 C   0  0  0  0  0  2  0  0  0  0  0  0
  195.5240  174.7390  145.3690 C   0  0  0  0  0  2  0  0  0  0  0  0
  194.6750  175.6100  146.2920 C   0  0  0  0  0  2  0  0  0  0  0  0
  195.2600  175.1050  143.9380 C   0  0  0  0  0  0  0  0  0  0  0  0
  196.1570  175.0340  143.1160 O   0  0  0  0  0  0  0  0  0  0  0  0
  193.8690  175.4610  143.5020 C   0  0  0  0  0  2  0  0  0  0  0  0
  187.9070  177.6380  144.0690 N   0  0  0  0  0  2  0  0  0  0  0  0
  184.0110  178.2550  141.9850 C   0  0  0  0  0  0  0  0  0  0  0  0
  185.0990  178.7400  146.3140 C   0  0  0  0  0  3  0  0  0  0  0  0
  185.5440  178.1400  143.6660 C   0  0  0  0  0  0  0  0  0  0  0  0
  185.4630  177.9070  142.2020 C   0  0  0  0  0  2  0  0  0  0  0  0
  184.0800  178.8380  145.4090 N   0  0  0  0  0  0  0  0  0  0  0  0
  184.3150  178.5390  144.1070 C   0  0  0  0  0  0  0  0  0  0  0  0
  186.3850  178.3360  145.9000 C   0  0  0  0  0  3  0  0  0  0  0  0
  186.6170  178.0280  144.5460 C   0  0  0  0  0  0  0  0  0  0  0  0
  183.3690  178.6080  143.0600 N   0  0  0  0  0  0  0  0  0  0  0  0
  183.4080  178.2020  140.7290 O   0  0  0  0  0  0  0  0  0  0  0  0
  182.0030  178.0670  140.5740 C   0  0  0  0  0  1  0  0  0  0  0  0
  1  4  1  0  0  0  0
  1  5  1  0  0  0  0
  3 25  1  1  0  0  0
  3  6  1  0  0  0  0
  5  2  1  6  0  0  0
  5  7  1  0  0  0  0
  6 14  1  1  0  0  0
  7 13  1  6  0  0  0
  7 10  1  0  0  0  0
  8  4  1  6  0  0  0
  8  6  1  0  0  0  0
  8 10  1  0  0  0  0
  9  1  2  0  0  0  0
 11  3  1  0  0  0  0
 12 11  1  0  0  0  0
 12  4  2  0  0  0  0
 14 15  1  0  0  0  0
 15 16  1  0  0  0  0
 17 16  1  0  0  0  0
 18 21  1  0  0  0  0
 18 17  1  0  0  0  0
 19 18  1  0  0  0  0
 20 21  1  0  0  0  0
 22 20  1  0  0  0  0
 23 22  2  0  0  0  0
 24 22  1  0  0  0  0
 24 19  1  0  0  0  0
 25 33  1  0  0  0  0
 26 29  1  0  0  0  0
 26 34  2  0  0  0  0
 28 31  2  0  0  0  0
 28 33  1  0  0  0  0
 29 28  1  0  0  0  0
 30 27  2  0  0  0  0
 31 30  1  0  0  0  0
 32 27  1  0  0  0  0
 33 32  2  0  0  0  0
 34 31  1  0  0  0  0
 35 26  1  0  0  0  0
 36 35  1  0  0  0  0
M  END
>  <MODEL>
3

>  <REMARK>
 VINA RESULT:      -7.4      1.930      4.506
  Name = 
  8 active torsions:
  status: ('A' for Active; 'I' for Inactive)
    1  A    between atoms: C_2  and  O_22
    2  A    between atoms: C_2  and  C_31
    3  A    between atoms: C_4  and  N_17
    4  A    between atoms: C_5  and  C_10
    5  A    between atoms: C_5  and  O_22
    6  A    between atoms: N_6  and  C_31
    7  A    between atoms: C_9  and  O_11
    8  A    between atoms: N_17  and  C_26
                            x       y       z     vdW  Elec       q    Type
                         _______ _______ _______ _____ _____    ______ ____

>  <TORSDO>
F 8

$$$$
=
 OpenBabel11072408453D

 36 40  0  0  1  0  0  0  0  0999 V2000
  186.3920  177.0860  146.7760 C   0  0  0  0  0  0  0  0  0  0  0  0
  184.1670  177.9170  146.5080 O   0  0  0  0  0  1  0  0  0  0  0  0
  190.0400  176.5420  144.6480 C   0  0  2  0  0  3  0  0  0  0  0  0
  187.7320  177.1880  146.1810 C   0  0  0  0  0  0  0  0  0  0  0  0
  185.1890  177.1970  145.8830 C   0  0  1  0  0  3  0  0  0  0  0  0
  189.1940  177.7010  144.1150 C   0  0  2  0  0  3  0  0  0  0  0  0
  185.5260  177.7850  144.4920 C   0  0  2  0  0  3  0  0  0  0  0  0
  187.8070  177.7980  144.7980 C   0  0  1  0  0  3  0  0  0  0  0  0
  186.2490  176.8110  147.9990 O   0  0  0  0  0  0  0  0  0  0  0  0
  186.7600  177.3030  143.9870 O   0  0  0  0  0  0  0  0  0  0  0  0
  190.1560  176.6830  146.1620 C   0  0  0  0  0  2  0  0  0  0  0  0
  188.7960  176.6520  146.7870 C   0  0  0  0  0  3  0  0  0  0  0  0
  185.4100  179.3090  144.4080 C   0  0  0  0  0  1  0  0  0  0  0  0
  189.1080  177.6590  142.5900 C   0  0  0  0  0  2  0  0  0  0  0  0
  189.2410  176.3480  142.1210 O   0  0  0  0  0  0  0  0  0  0  0  0
  188.1060  176.1170  141.3360 C   0  0  0  0  0  2  0  0  0  0  0  0
  188.2710  174.8470  140.5090 C   0  0  0  0  0  2  0  0  0  0  0  0
  189.1390  173.9040  141.1990 N   0  0  0  0  0  0  0  0  0  0  0  0
  188.2690  172.9730  141.9140 C   0  0  0  0  0  2  0  0  0  0  0  0
  190.8580  172.1940  140.8350 C   0  0  0  0  0  2  0  0  0  0  0  0
  189.8580  173.1440  140.1770 C   0  0  0  0  0  2  0  0  0  0  0  0
  190.1660  171.3740  141.8840 C   0  0  0  0  0  0  0  0  0  0  0  0
  190.5220  170.2270  142.0930 O   0  0  0  0  0  0  0  0  0  0  0  0
  189.1060  172.0000  142.7430 C   0  0  0  0  0  2  0  0  0  0  0  0
  191.3710  176.5890  144.0560 N   0  0  0  0  0  2  0  0  0  0  0  0
  193.0320  172.4990  144.7000 C   0  0  0  0  0  0  0  0  0  0  0  0
  194.5600  176.5000  146.0460 C   0  0  0  0  0  3  0  0  0  0  0  0
  192.8420  174.7670  144.7750 C   0  0  0  0  0  0  0  0  0  0  0  0
  192.1200  173.5990  144.2130 C   0  0  0  0  0  2  0  0  0  0  0  0
  194.8040  175.1560  146.0670 N   0  0  0  0  0  0  0  0  0  0  0  0
  193.9470  174.3150  145.4360 C   0  0  0  0  0  0  0  0  0  0  0  0
  193.4280  177.0110  145.3780 C   0  0  0  0  0  3  0  0  0  0  0  0
  192.5460  176.1280  144.7270 C   0  0  0  0  0  0  0  0  0  0  0  0
  194.0590  172.9070  145.3860 N   0  0  0  0  0  0  0  0  0  0  0  0
  192.7880  171.1520  144.4340 O   0  0  0  0  0  0  0  0  0  0  0  0
  193.7800  170.1550  144.6320 C   0  0  0  0  0  1  0  0  0  0  0  0
  1  9  2  0  0  0  0
  3 25  1  6  0  0  0
  3 11  1  0  0  0  0
  4  1  1  0  0  0  0
  4 12  2  0  0  0  0
  5  2  1  1  0  0  0
  5  1  1  0  0  0  0
  6 14  1  6  0  0  0
  6  3  1  0  0  0  0
  6  8  1  0  0  0  0
  7 13  1  1  0  0  0
  7  5  1  0  0  0  0
  8 10  1  6  0  0  0
  8  4  1  0  0  0  0
 10  7  1  0  0  0  0
 11 12  1  0  0  0  0
 15 14  1  0  0  0  0
 16 15  1  0  0  0  0
 17 18  1  0  0  0  0
 17 16  1  0  0  0  0
 18 19  1  0  0  0  0
 19 24  1  0  0  0  0
 20 22  1  0  0  0  0
 21 20  1  0  0  0  0
 21 18  1  0  0  0  0
 22 23  2  0  0  0  0
 22 24  1  0  0  0  0
 25 33  1  0  0  0  0
 26 34  2  0  0  0  0
 27 30  1  0  0  0  0
 28 31  1  0  0  0  0
 29 26  1  0  0  0  0
 29 28  1  0  0  0  0
 31 30  2  0  0  0  0
 32 27  2  0  0  0  0
 33 28  2  0  0  0  0
 33 32  1  0  0  0  0
 34 31  1  0  0  0  0
 35 36  1  0  0  0  0
 35 26  1  0  0  0  0
M  END
>  <MODEL>
4

>  <REMARK>
 VINA RESULT:      -7.2      2.842      6.779
  Name = 
  8 active torsions:
  status: ('A' for Active; 'I' for Inactive)
    1  A    between atoms: C_2  and  O_22
    2  A    between atoms: C_2  and  C_31
    3  A    between atoms: C_4  and  N_17
    4  A    between atoms: C_5  and  C_10
    5  A    between atoms: C_5  and  O_22
    6  A    between atoms: N_6  and  C_31
    7  A    between atoms: C_9  and  O_11
    8  A    between atoms: N_17  and  C_26
                            x       y       z     vdW  Elec       q    Type
                         _______ _______ _______ _____ _____    ______ ____

>  <TORSDO>
F 8

$$$$
=
 OpenBabel11072408453D

 36 40  0  0  1  0  0  0  0  0999 V2000
  184.9780  177.9170  143.0760 C   0  0  0  0  0  0  0  0  0  0  0  0
  183.3380  179.2090  144.2410 O   0  0  0  0  0  1  0  0  0  0  0  0
  188.7730  176.0600  143.6070 C   0  0  2  0  0  3  0  0  0  0  0  0
  186.1040  177.0070  143.3220 C   0  0  0  0  0  0  0  0  0  0  0  0
  184.7120  179.0250  144.0540 C   0  0  1  0  0  3  0  0  0  0  0  0
  187.9710  176.1850  144.9050 C   0  0  2  0  0  3  0  0  0  0  0  0
  185.4450  178.8270  145.4020 C   0  0  2  0  0  3  0  0  0  0  0  0
  186.6610  176.9910  144.7290 C   0  0  1  0  0  3  0  0  0  0  0  0
  184.3030  177.8360  142.0130 O   0  0  0  0  0  0  0  0  0  0  0  0
  186.7540  178.3100  145.2330 O   0  0  0  0  0  0  0  0  0  0  0  0
  187.8690  175.4560  142.5370 C   0  0  0  0  0  2  0  0  0  0  0  0
  186.6750  176.3320  142.3180 C   0  0  0  0  0  3  0  0  0  0  0  0
  184.6370  178.0540  146.4490 C   0  0  0  0  0  1  0  0  0  0  0  0
  188.8480  176.7120  146.0410 C   0  0  0  0  0  2  0  0  0  0  0  0
  188.8020  175.8510  147.1430 O   0  0  0  0  0  0  0  0  0  0  0  0
  190.1130  175.3920  147.3100 C   0  0  0  0  0  2  0  0  0  0  0  0
  191.1050  176.5460  147.2240 C   0  0  0  0  0  2  0  0  0  0  0  0
  192.2500  176.1680  146.4090 N   0  0  0  0  0  0  0  0  0  0  0  0
  193.4080  176.8720  146.9540 C   0  0  0  0  0  2  0  0  0  0  0  0
  193.6060  174.2500  145.7040 C   0  0  0  0  0  2  0  0  0  0  0  0
  192.4700  174.7350  146.6030 C   0  0  0  0  0  2  0  0  0  0  0  0
  194.8120  175.1220  145.8940 C   0  0  0  0  0  0  0  0  0  0  0  0
  195.9300  174.6430  145.8030 O   0  0  0  0  0  0  0  0  0  0  0  0
  194.6430  176.5990  146.0940 C   0  0  0  0  0  2  0  0  0  0  0  0
  189.9200  175.1870  143.8180 N   0  0  0  0  0  2  0  0  0  0  0  0
  191.4710  172.2980  140.7920 C   0  0  0  0  0  0  0  0  0  0  0  0
  193.1670  176.2030  142.2180 C   0  0  0  0  0  3  0  0  0  0  0  0
  191.3330  174.1560  142.1030 C   0  0  0  0  0  0  0  0  0  0  0  0
  190.5600  172.9200  141.8220 C   0  0  0  0  0  2  0  0  0  0  0  0
  193.3680  175.1510  141.3700 N   0  0  0  0  0  0  0  0  0  0  0  0
  192.4550  174.1490  141.3260 C   0  0  0  0  0  0  0  0  0  0  0  0
  192.0240  176.2490  143.0420 C   0  0  0  0  0  3  0  0  0  0  0  0
  191.0830  175.2030  142.9870 C   0  0  0  0  0  0  0  0  0  0  0  0
  192.5350  172.9950  140.5150 N   0  0  0  0  0  0  0  0  0  0  0  0
  191.1920  171.0730  140.1880 O   0  0  0  0  0  0  0  0  0  0  0  0
  190.4790  170.9840  138.9630 C   0  0  0  0  0  1  0  0  0  0  0  0
  1  4  1  0  0  0  0
  1  5  1  0  0  0  0
  3 25  1  1  0  0  0
  3  6  1  0  0  0  0
  5  2  1  1  0  0  0
  5  7  1  0  0  0  0
  6 14  1  1  0  0  0
  7 13  1  1  0  0  0
  8  4  1  6  0  0  0
  8  6  1  0  0  0  0
  8 10  1  0  0  0  0
  9  1  2  0  0  0  0
 10  7  1  0  0  0  0
 11  3  1  0  0  0  0
 12 11  1  0  0  0  0
 12  4  2  0  0  0  0
 14 15  1  0  0  0  0
 15 16  1  0  0  0  0
 17 16  1  0  0  0  0
 18 21  1  0  0  0  0
 18 19  1  0  0  0  0
 18 17  1  0  0  0  0
 20 22  1  0  0  0  0
 20 21  1  0  0  0  0
 22 24  1  0  0  0  0
 23 22  2  0  0  0  0
 24 19  1  0  0  0  0
 26 29  1  0  0  0  0
 27 32  1  0  0  0  0
 28 33  1  0  0  0  0
 29 28  1  0  0  0  0
 30 27  2  0  0  0  0
 31 30  1  0  0  0  0
 31 28  2  0  0  0  0
 33 32  2  0  0  0  0
 33 25  1  0  0  0  0
 34 26  2  0  0  0  0
 34 31  1  0  0  0  0
 35 26  1  0  0  0  0
 36 35  1  0  0  0  0
M  END
>  <MODEL>
5

>  <REMARK>
 VINA RESULT:      -7.2      2.672      7.460
  Name = 
  8 active torsions:
  status: ('A' for Active; 'I' for Inactive)
    1  A    between atoms: C_2  and  O_22
    2  A    between atoms: C_2  and  C_31
    3  A    between atoms: C_4  and  N_17
    4  A    between atoms: C_5  and  C_10
    5  A    between atoms: C_5  and  O_22
    6  A    between atoms: N_6  and  C_31
    7  A    between atoms: C_9  and  O_11
    8  A    between atoms: N_17  and  C_26
                            x       y       z     vdW  Elec       q    Type
                         _______ _______ _______ _____ _____    ______ ____

>  <TORSDO>
F 8

$$$$
=
 OpenBabel11072408453D

 36 40  0  0  1  0  0  0  0  0999 V2000
  189.8580  172.1950  141.7660 C   0  0  0  0  0  0  0  0  0  0  0  0
  191.3450  170.5920  142.7330 O   0  0  0  0  0  1  0  0  0  0  0  0
  188.0570  175.9770  142.5310 C   0  0  2  0  0  3  0  0  0  0  0  0
  189.4920  173.6160  141.8530 C   0  0  0  0  0  0  0  0  0  0  0  0
  190.3020  171.4810  143.0110 C   0  0  1  0  0  3  0  0  0  0  0  0
  189.3960  175.7870  143.2470 C   0  0  2  0  0  3  0  0  0  0  0  0
  190.6750  172.4490  144.1590 C   0  0  2  0  0  3  0  0  0  0  0  0
  189.9700  174.3580  143.0820 C   0  0  1  0  0  3  0  0  0  0  0  0
  189.7090  171.5550  140.6890 O   0  0  0  0  0  0  0  0  0  0  0  0
  189.7960  173.5590  144.2360 O   0  0  0  0  0  0  0  0  0  0  0  0
  188.2340  175.5980  141.0650 C   0  0  0  0  0  2  0  0  0  0  0  0
  188.6750  174.1720  140.9520 C   0  0  0  0  0  3  0  0  0  0  0  0
  192.1490  172.8640  144.1780 C   0  0  0  0  0  1  0  0  0  0  0  0
  189.3030  176.2280  144.7080 C   0  0  0  0  0  2  0  0  0  0  0  0
  190.1910  177.2780  144.9660 O   0  0  0  0  0  0  0  0  0  0  0  0
  191.3320  176.6750  145.5070 C   0  0  0  0  0  2  0  0  0  0  0  0
  192.5740  177.0560  144.7100 C   0  0  0  0  0  2  0  0  0  0  0  0
  193.5460  175.9730  144.7420 N   0  0  0  0  0  0  0  0  0  0  0  0
  194.4210  176.1560  143.5870 C   0  0  0  0  0  2  0  0  0  0  0  0
  195.3440  174.9930  146.0910 C   0  0  0  0  0  2  0  0  0  0  0  0
  194.3580  176.1510  145.9460 C   0  0  0  0  0  2  0  0  0  0  0  0
  196.1110  174.8160  144.8140 C   0  0  0  0  0  0  0  0  0  0  0  0
  197.2700  174.4400  144.8470 O   0  0  0  0  0  0  0  0  0  0  0  0
  195.4200  175.0020  143.4950 C   0  0  0  0  0  2  0  0  0  0  0  0
  187.6420  177.3710  142.6210 N   0  0  0  0  0  2  0  0  0  0  0  0
  185.2480  178.7420  146.1280 C   0  0  0  0  0  0  0  0  0  0  0  0
  184.0500  178.1620  141.8390 C   0  0  0  0  0  3  0  0  0  0  0  0
  185.7730  178.1770  143.9840 C   0  0  0  0  0  0  0  0  0  0  0  0
  186.4300  178.2770  145.3120 C   0  0  0  0  0  2  0  0  0  0  0  0
  183.6030  178.5400  143.0740 N   0  0  0  0  0  0  0  0  0  0  0  0
  184.4650  178.5420  144.1210 C   0  0  0  0  0  0  0  0  0  0  0  0
  185.3930  177.7730  141.6540 C   0  0  0  0  0  3  0  0  0  0  0  0
  186.2780  177.7790  142.7490 C   0  0  0  0  0  0  0  0  0  0  0  0
  184.1450  178.8910  145.4520 N   0  0  0  0  0  0  0  0  0  0  0  0
  185.3350  178.9910  147.4970 O   0  0  0  0  0  0  0  0  0  0  0  0
  186.5630  178.8930  148.2020 C   0  0  0  0  0  1  0  0  0  0  0  0
  1  4  1  0  0  0  0
  1  5  1  0  0  0  0
  3 25  1  6  0  0  0
  3  6  1  0  0  0  0
  5  2  1  6  0  0  0
  5  7  1  0  0  0  0
  6 14  1  1  0  0  0
  7 13  1  6  0  0  0
  7 10  1  0  0  0  0
  8  4  1  6  0  0  0
  8  6  1  0  0  0  0
  8 10  1  0  0  0  0
  9  1  2  0  0  0  0
 11  3  1  0  0  0  0
 12 11  1  0  0  0  0
 12  4  2  0  0  0  0
 14 15  1  0  0  0  0
 15 16  1  0  0  0  0
 17 18  1  0  0  0  0
 17 16  1  0  0  0  0
 18 21  1  0  0  0  0
 19 18  1  0  0  0  0
 21 20  1  0  0  0  0
 22 23  2  0  0  0  0
 22 20  1  0  0  0  0
 24 19  1  0  0  0  0
 24 22  1  0  0  0  0
 25 33  1  0  0  0  0
 26 35  1  0  0  0  0
 27 30  1  0  0  0  0
 28 31  1  0  0  0  0
 28 29  1  0  0  0  0
 29 26  1  0  0  0  0
 30 31  2  0  0  0  0
 31 34  1  0  0  0  0
 32 27  2  0  0  0  0
 32 33  1  0  0  0  0
 33 28  2  0  0  0  0
 34 26  2  0  0  0  0
 35 36  1  0  0  0  0
M  END
>  <MODEL>
6

>  <REMARK>
 VINA RESULT:      -7.2      2.230      5.124
  Name = 
  8 active torsions:
  status: ('A' for Active; 'I' for Inactive)
    1  A    between atoms: C_2  and  O_22
    2  A    between atoms: C_2  and  C_31
    3  A    between atoms: C_4  and  N_17
    4  A    between atoms: C_5  and  C_10
    5  A    between atoms: C_5  and  O_22
    6  A    between atoms: N_6  and  C_31
    7  A    between atoms: C_9  and  O_11
    8  A    between atoms: N_17  and  C_26
                            x       y       z     vdW  Elec       q    Type
                         _______ _______ _______ _____ _____    ______ ____

>  <TORSDO>
F 8

$$$$
=
 OpenBabel11072408453D

 36 40  0  0  1  0  0  0  0  0999 V2000
  184.8590  177.9840  143.7280 C   0  0  0  0  0  0  0  0  0  0  0  0
  183.3160  179.0800  145.1880 O   0  0  0  0  0  1  0  0  0  0  0  0
  188.8060  176.3880  143.6180 C   0  0  2  0  0  3  0  0  0  0  0  0
  186.0670  177.1480  143.7580 C   0  0  0  0  0  0  0  0  0  0  0  0
  184.6590  179.0110  144.8060 C   0  0  1  0  0  3  0  0  0  0  0  0
  188.1850  176.3780  145.0170 C   0  0  2  0  0  3  0  0  0  0  0  0
  185.5830  178.7890  146.0270 C   0  0  2  0  0  3  0  0  0  0  0  0
  186.8130  177.0920  145.0740 C   0  0  1  0  0  3  0  0  0  0  0  0
  184.0500  177.9160  142.7620 O   0  0  0  0  0  0  0  0  0  0  0  0
  186.8880  178.3820  145.6490 O   0  0  0  0  0  0  0  0  0  0  0  0
  187.8040  175.7820  142.6400 C   0  0  0  0  0  2  0  0  0  0  0  0
  186.5360  176.5780  142.6430 C   0  0  0  0  0  3  0  0  0  0  0  0
  184.9820  177.8990  147.1180 C   0  0  0  0  0  1  0  0  0  0  0  0
  189.1750  176.9010  146.0580 C   0  0  0  0  0  2  0  0  0  0  0  0
  189.5500  175.8830  146.9410 O   0  0  0  0  0  0  0  0  0  0  0  0
  190.7680  176.3000  147.4910 C   0  0  0  0  0  2  0  0  0  0  0  0
  191.8950  175.3580  147.0850 C   0  0  0  0  0  2  0  0  0  0  0  0
  192.6870  175.9500  146.0160 N   0  0  0  0  0  0  0  0  0  0  0  0
  193.8180  176.6220  146.6490 C   0  0  0  0  0  2  0  0  0  0  0  0
  193.9870  175.4080  144.0090 C   0  0  0  0  0  2  0  0  0  0  0  0
  193.2170  174.8530  145.2060 C   0  0  0  0  0  2  0  0  0  0  0  0
  194.9950  176.4150  144.4750 C   0  0  0  0  0  0  0  0  0  0  0  0
  196.0580  176.5290  143.8880 O   0  0  0  0  0  0  0  0  0  0  0  0
  194.6540  177.3510  145.5970 C   0  0  0  0  0  2  0  0  0  0  0  0
  190.0260  175.5920  143.6130 N   0  0  0  0  0  2  0  0  0  0  0  0
  190.7760  172.8980  140.1370 C   0  0  0  0  0  0  0  0  0  0  0  0
  189.7420  171.9260  144.3970 C   0  0  0  0  0  3  0  0  0  0  0  0
  190.3140  173.5680  142.2640 C   0  0  0  0  0  0  0  0  0  0  0  0
  190.6390  174.1650  140.9450 C   0  0  0  0  0  2  0  0  0  0  0  0
  190.0180  171.3860  143.1720 N   0  0  0  0  0  0  0  0  0  0  0  0
  190.2980  172.2100  142.1310 C   0  0  0  0  0  0  0  0  0  0  0  0
  189.7430  173.3250  144.5780 C   0  0  0  0  0  3  0  0  0  0  0  0
  190.0350  174.1680  143.4900 C   0  0  0  0  0  0  0  0  0  0  0  0
  190.5850  171.8000  140.8100 N   0  0  0  0  0  0  0  0  0  0  0  0
  191.0840  172.9060  138.7770 O   0  0  0  0  0  0  0  0  0  0  0  0
  190.1340  173.2910  137.7940 C   0  0  0  0  0  1  0  0  0  0  0  0
  1  4  1  0  0  0  0
  1  5  1  0  0  0  0
  3 25  1  1  0  0  0
  3  6  1  0  0  0  0
  5  2  1  1  0  0  0
  5  7  1  0  0  0  0
  6  8  1  0  0  0  0
  6 14  1  1  0  0  0
  7 13  1  1  0  0  0
  8  4  1  6  0  0  0
  8 10  1  0  0  0  0
  9  1  2  0  0  0  0
 10  7  1  0  0  0  0
 11 12  1  0  0  0  0
 11  3  1  0  0  0  0
 12  4  2  0  0  0  0
 14 15  1  0  0  0  0
 15 16  1  0  0  0  0
 17 16  1  0  0  0  0
 18 19  1  0  0  0  0
 18 17  1  0  0  0  0
 20 22  1  0  0  0  0
 20 21  1  0  0  0  0
 21 18  1  0  0  0  0
 22 24  1  0  0  0  0
 23 22  2  0  0  0  0
 24 19  1  0  0  0  0
 26 34  2  0  0  0  0
 26 29  1  0  0  0  0
 27 32  1  0  0  0  0
 28 33  1  0  0  0  0
 29 28  1  0  0  0  0
 30 27  2  0  0  0  0
 31 28  2  0  0  0  0
 31 30  1  0  0  0  0
 33 25  1  0  0  0  0
 33 32  2  0  0  0  0
 34 31  1  0  0  0  0
 35 26  1  0  0  0  0
 36 35  1  0  0  0  0
M  END
>  <MODEL>
7

>  <REMARK>
 VINA RESULT:      -7.1      2.668      7.179
  Name = 
  8 active torsions:
  status: ('A' for Active; 'I' for Inactive)
    1  A    between atoms: C_2  and  O_22
    2  A    between atoms: C_2  and  C_31
    3  A    between atoms: C_4  and  N_17
    4  A    between atoms: C_5  and  C_10
    5  A    between atoms: C_5  and  O_22
    6  A    between atoms: N_6  and  C_31
    7  A    between atoms: C_9  and  O_11
    8  A    between atoms: N_17  and  C_26
                            x       y       z     vdW  Elec       q    Type
                         _______ _______ _______ _____ _____    ______ ____

>  <TORSDO>
F 8

$$$$
=
 OpenBabel11072408453D

 36 40  0  0  1  0  0  0  0  0999 V2000
  185.6120  178.7070  143.3450 C   0  0  0  0  0  0  0  0  0  0  0  0
  183.6100  179.0510  144.6060 O   0  0  0  0  0  1  0  0  0  0  0  0
  189.6380  177.3810  143.7540 C   0  0  2  0  0  3  0  0  0  0  0  0
  186.8760  177.9590  143.3860 C   0  0  0  0  0  0  0  0  0  0  0  0
  185.0020  179.1760  144.6360 C   0  0  1  0  0  3  0  0  0  0  0  0
  188.6890  176.7670  144.7860 C   0  0  2  0  0  3  0  0  0  0  0  0
  185.6060  178.4740  145.8760 C   0  0  2  0  0  3  0  0  0  0  0  0
  187.2620  177.3640  144.7240 C   0  0  1  0  0  3  0  0  0  0  0  0
  185.0940  179.0390  142.2440 O   0  0  0  0  0  0  0  0  0  0  0  0
  187.0070  178.2900  145.7620 O   0  0  0  0  0  0  0  0  0  0  0  0
  189.0130  177.2290  142.3710 C   0  0  0  0  0  2  0  0  0  0  0  0
  187.6890  177.9240  142.3250 C   0  0  0  0  0  3  0  0  0  0  0  0
  184.8760  177.1940  146.2920 C   0  0  0  0  0  1  0  0  0  0  0  0
  189.2970  176.8180  146.1870 C   0  0  0  0  0  2  0  0  0  0  0  0
  188.8720  175.7270  146.9520 O   0  0  0  0  0  0  0  0  0  0  0  0
  190.0290  174.9840  147.2150 C   0  0  0  0  0  2  0  0  0  0  0  0
  191.1690  175.8980  147.6500 C   0  0  0  0  0  2  0  0  0  0  0  0
  192.4460  175.3540  147.2120 N   0  0  0  0  0  0  0  0  0  0  0  0
  192.1510  174.3320  146.2110 C   0  0  0  0  0  2  0  0  0  0  0  0
  194.5660  175.9550  146.1360 C   0  0  0  0  0  2  0  0  0  0  0  0
  193.1740  176.4330  146.5430 C   0  0  0  0  0  2  0  0  0  0  0  0
  194.4580  174.6720  145.3650 C   0  0  0  0  0  0  0  0  0  0  0  0
  195.2510  174.4310  144.4710 O   0  0  0  0  0  0  0  0  0  0  0  0
  193.4400  173.6440  145.7630 C   0  0  0  0  0  2  0  0  0  0  0  0
  190.9170  176.6860  143.7840 N   0  0  0  0  0  2  0  0  0  0  0  0
  194.2920  175.3440  141.1920 C   0  0  0  0  0  0  0  0  0  0  0  0
  190.5230  173.2160  142.3900 C   0  0  0  0  0  3  0  0  0  0  0  0
  192.3250  175.2950  142.3420 C   0  0  0  0  0  0  0  0  0  0  0  0
  193.4650  176.2160  142.1060 C   0  0  0  0  0  2  0  0  0  0  0  0
  191.6770  173.1050  141.6660 N   0  0  0  0  0  0  0  0  0  0  0  0
  192.5560  174.1390  141.6530 C   0  0  0  0  0  0  0  0  0  0  0  0
  190.2430  174.3950  143.1120 C   0  0  0  0  0  3  0  0  0  0  0  0
  191.1630  175.4600  143.0900 C   0  0  0  0  0  0  0  0  0  0  0  0
  193.7760  174.1750  140.9420 N   0  0  0  0  0  0  0  0  0  0  0  0
  195.5110  175.7610  140.6600 O   0  0  0  0  0  0  0  0  0  0  0  0
  196.2810  176.7910  141.2620 C   0  0  0  0  0  1  0  0  0  0  0  0
  1  4  1  0  0  0  0
  1  5  1  0  0  0  0
  3 25  1  6  0  0  0
  3  6  1  0  0  0  0
  5  2  1  6  0  0  0
  5  7  1  0  0  0  0
  6 14  1  1  0  0  0
  7 13  1  6  0  0  0
  8  4  1  6  0  0  0
  8  6  1  0  0  0  0
  8 10  1  0  0  0  0
  9  1  2  0  0  0  0
 10  7  1  0  0  0  0
 11  3  1  0  0  0  0
 12 11  1  0  0  0  0
 12  4  2  0  0  0  0
 14 15  1  0  0  0  0
 15 16  1  0  0  0  0
 16 17  1  0  0  0  0
 18 17  1  0  0  0  0
 19 18  1  0  0  0  0
 20 21  1  0  0  0  0
 21 18  1  0  0  0  0
 22 24  1  0  0  0  0
 22 20  1  0  0  0  0
 23 22  2  0  0  0  0
 24 19  1  0  0  0  0
 26 29  1  0  0  0  0
 27 32  1  0  0  0  0
 28 33  1  0  0  0  0
 29 28  1  0  0  0  0
 30 27  2  0  0  0  0
 31 30  1  0  0  0  0
 31 28  2  0  0  0  0
 33 32  2  0  0  0  0
 33 25  1  0  0  0  0
 34 26  2  0  0  0  0
 34 31  1  0  0  0  0
 35 26  1  0  0  0  0
 35 36  1  0  0  0  0
M  END
>  <MODEL>
8

>  <REMARK>
 VINA RESULT:      -7.0      2.842      7.492
  Name = 
  8 active torsions:
  status: ('A' for Active; 'I' for Inactive)
    1  A    between atoms: C_2  and  O_22
    2  A    between atoms: C_2  and  C_31
    3  A    between atoms: C_4  and  N_17
    4  A    between atoms: C_5  and  C_10
    5  A    between atoms: C_5  and  O_22
    6  A    between atoms: N_6  and  C_31
    7  A    between atoms: C_9  and  O_11
    8  A    between atoms: N_17  and  C_26
                            x       y       z     vdW  Elec       q    Type
                         _______ _______ _______ _____ _____    ______ ____

>  <TORSDO>
F 8

$$$$
=
 OpenBabel11072408453D

 36 40  0  0  1  0  0  0  0  0999 V2000
  186.1780  177.5040  146.7400 C   0  0  0  0  0  0  0  0  0  0  0  0
  183.9980  178.3900  146.3160 O   0  0  0  0  0  1  0  0  0  0  0  0
  189.8510  176.5780  144.7940 C   0  0  2  0  0  3  0  0  0  0  0  0
  187.5350  177.4840  146.1770 C   0  0  0  0  0  0  0  0  0  0  0  0
  185.0030  177.5630  145.8050 C   0  0  1  0  0  3  0  0  0  0  0  0
  189.0690  177.7040  144.1130 C   0  0  2  0  0  3  0  0  0  0  0  0
  185.4000  177.9790  144.3680 C   0  0  2  0  0  3  0  0  0  0  0  0
  187.6720  177.9330  144.7390 C   0  0  1  0  0  3  0  0  0  0  0  0
  185.9910  177.3720  147.9810 O   0  0  0  0  0  0  0  0  0  0  0  0
  186.6240  177.3940  143.9560 O   0  0  0  0  0  0  0  0  0  0  0  0
  189.9340  176.8820  146.2860 C   0  0  0  0  0  2  0  0  0  0  0  0
  188.5590  176.9760  146.8710 C   0  0  0  0  0  3  0  0  0  0  0  0
  185.3540  179.4880  144.1140 C   0  0  0  0  0  1  0  0  0  0  0  0
  189.0200  177.4970  142.5990 C   0  0  0  0  0  2  0  0  0  0  0  0
  188.9660  176.1350  142.2870 O   0  0  0  0  0  0  0  0  0  0  0  0
  188.0840  176.0370  141.2040 C   0  0  0  0  0  2  0  0  0  0  0  0
  188.2910  174.7250  140.4570 C   0  0  0  0  0  2  0  0  0  0  0  0
  189.1720  173.8460  141.2120 N   0  0  0  0  0  0  0  0  0  0  0  0
  188.3220  172.8630  141.8780 C   0  0  0  0  0  2  0  0  0  0  0  0
  191.0230  172.2540  140.9800 C   0  0  0  0  0  2  0  0  0  0  0  0
  190.0080  173.1310  140.2480 C   0  0  0  0  0  2  0  0  0  0  0  0
  190.3200  171.3960  141.9890 C   0  0  0  0  0  0  0  0  0  0  0  0
  190.7370  170.2770  142.2340 O   0  0  0  0  0  0  0  0  0  0  0  0
  189.1660  171.9540  142.7700 C   0  0  0  0  0  2  0  0  0  0  0  0
  191.1960  176.5050  144.2410 N   0  0  0  0  0  2  0  0  0  0  0  0
  194.5140  175.3200  141.5040 C   0  0  0  0  0  0  0  0  0  0  0  0
  192.3430  172.9460  144.6360 C   0  0  0  0  0  3  0  0  0  0  0  0
  192.9350  175.1780  143.1400 C   0  0  0  0  0  0  0  0  0  0  0  0
  193.4740  176.1770  142.1840 C   0  0  0  0  0  2  0  0  0  0  0  0
  193.3300  172.8960  143.6930 N   0  0  0  0  0  0  0  0  0  0  0  0
  193.6100  174.0050  142.9640 C   0  0  0  0  0  0  0  0  0  0  0  0
  191.6170  174.1370  144.8480 C   0  0  0  0  0  3  0  0  0  0  0  0
  191.9170  175.2810  144.0840 C   0  0  0  0  0  0  0  0  0  0  0  0
  194.5880  174.0990  141.9480 N   0  0  0  0  0  0  0  0  0  0  0  0
  195.3290  175.8030  140.4810 O   0  0  0  0  0  0  0  0  0  0  0  0
  196.7420  175.8520  140.6060 C   0  0  0  0  0  1  0  0  0  0  0  0
  1  9  2  0  0  0  0
  3 25  1  6  0  0  0
  3 11  1  0  0  0  0
  4  1  1  0  0  0  0
  4 12  2  0  0  0  0
  5  2  1  1  0  0  0
  5  1  1  0  0  0  0
  6 14  1  6  0  0  0
  6  8  1  0  0  0  0
  6  3  1  0  0  0  0
  7 13  1  1  0  0  0
  7  5  1  0  0  0  0
  8 10  1  6  0  0  0
  8  4  1  0  0  0  0
 10  7  1  0  0  0  0
 11 12  1  0  0  0  0
 15 14  1  0  0  0  0
 16 15  1  0  0  0  0
 17 16  1  0  0  0  0
 17 18  1  0  0  0  0
 18 19  1  0  0  0  0
 19 24  1  0  0  0  0
 20 22  1  0  0  0  0
 21 20  1  0  0  0  0
 21 18  1  0  0  0  0
 22 23  2  0  0  0  0
 22 24  1  0  0  0  0
 26 34  2  0  0  0  0
 26 29  1  0  0  0  0
 27 32  1  0  0  0  0
 28 33  1  0  0  0  0
 29 28  1  0  0  0  0
 30 27  2  0  0  0  0
 31 28  2  0  0  0  0
 31 30  1  0  0  0  0
 33 25  1  0  0  0  0
 33 32  2  0  0  0  0
 34 31  1  0  0  0  0
 35 36  1  0  0  0  0
 35 26  1  0  0  0  0
M  END
>  <MODEL>
9

>  <REMARK>
 VINA RESULT:      -6.9      2.829      6.784
  Name = 
  8 active torsions:
  status: ('A' for Active; 'I' for Inactive)
    1  A    between atoms: C_2  and  O_22
    2  A    between atoms: C_2  and  C_31
    3  A    between atoms: C_4  and  N_17
    4  A    between atoms: C_5  and  C_10
    5  A    between atoms: C_5  and  O_22
    6  A    between atoms: N_6  and  C_31
    7  A    between atoms: C_9  and  O_11
    8  A    between atoms: N_17  and  C_26
                            x       y       z     vdW  Elec       q    Type
                         _______ _______ _______ _____ _____    ______ ____

>  <TORSDO>
F 8

$$$$
