=
 OpenBabel11072408373D

 47 50  0  0  1  0  0  0  0  0999 V2000
  188.1200  176.5240  145.3350 C   0  0  1  0  0  3  0  0  0  0  0  0
  186.2600  177.9530  147.7450 N   0  0  0  0  0  2  0  0  0  0  0  0
  184.7690  178.6680  143.1640 C   0  0  2  0  0  3  0  0  0  0  0  0
  186.9500  177.5590  142.8370 C   0  0  0  0  0  2  0  0  0  0  0  0
  187.5370  177.5870  147.2920 N   0  0  0  0  0  2  0  0  0  0  0  0
  185.4790  177.3220  143.1440 C   0  0  0  0  0  2  0  0  0  0  0  0
  183.7960  178.8220  144.3380 C   0  0  0  0  0  2  0  0  0  0  0  0
  185.7050  179.1330  145.8680 N   0  0  0  0  0  2  0  0  0  0  0  0
  187.4990  175.7430  144.3570 O   0  0  0  0  0  0  0  0  0  0  0  0
  187.3730  176.3810  146.5930 N   0  0  2  0  0  0  0  0  0  0  0  0
  184.4040  178.4960  145.7000 C   0  0  0  0  0  2  0  0  0  0  0  0
  185.9750  179.2380  147.2460 N   0  0  0  0  0  2  0  0  0  0  0  0
  188.6640  175.6730  146.3870 C   0  0  2  0  0  3  0  0  0  0  0  0
  187.8190  176.3300  143.1240 C   0  0  1  0  0  3  0  0  0  0  0  0
  187.6610  175.3110  142.0080 C   0  0  0  0  0  2  0  0  0  0  0  0
  189.0180  174.9970  141.3810 C   0  0  1  0  0  3  0  0  0  0  0  0
  189.5210  173.5660  141.6080 C   0  0  2  0  0  3  0  0  0  0  0  0
  188.8480  173.9470  140.3030 C   0  0  0  0  0  2  0  0  0  0  0  0
  188.5860  172.6810  142.4210 C   0  0  0  0  0  2  0  0  0  0  0  0
  189.6940  172.8660  144.5150 O   0  0  0  0  0  1  0  0  0  0  0  0
  189.3720  171.9670  143.4990 C   0  0  0  0  0  2  0  0  0  0  0  0
  189.8750  176.3380  147.0480 C   0  0  0  0  0  2  0  0  0  0  0  0
  191.0630  175.5150  146.8690 N   0  0  0  0  0  2  0  0  0  0  0  0
  191.8670  176.7010  145.0240 O   0  0  0  0  0  0  0  0  0  0  0  0
  192.0280  175.7490  145.8380 C   0  0  0  0  0  0  0  0  0  0  0  0
  193.0770  173.5980  145.8060 N   0  0  0  0  0  0  0  0  0  0  0  0
  194.1580  172.7490  145.7230 O   0  0  0  0  0  1  0  0  0  0  0  0
  193.2130  174.8870  145.7320 C   0  0  0  0  0  0  0  0  0  0  0  0
  194.5710  175.5080  145.5710 C   0  0  0  0  0  2  0  0  0  0  0  0
  195.8740  176.9280  144.0820 N   0  0  0  0  0  0  0  0  0  0  0  0
  194.7920  175.9590  144.1320 C   0  0  1  0  0  3  0  0  0  0  0  0
  195.3280  174.8430  143.2930 C   0  0  0  0  0  3  0  0  0  0  0  0
  196.5200  175.2150  142.8560 C   0  0  0  0  0  3  0  0  0  0  0  0
  196.8280  176.5050  143.3600 N   0  0  0  0  0  0  0  0  0  0  0  0
  184.0820  178.9540  141.8300 C   0  0  0  0  0  2  0  0  0  0  0  0
  183.3440  177.7330  141.3000 C   0  0  0  0  0  2  0  0  0  0  0  0
  182.0180  178.1570  140.6980 C   0  0  0  0  0  2  0  0  0  0  0  0
  181.1780  178.8880  141.7340 C   0  0  0  0  0  2  0  0  0  0  0  0
  179.9350  179.4350  141.1180 C   0  0  0  0  0  0  0  0  0  0  0  0
  179.9980  180.6540  140.3680 N   0  0  0  0  0  2  0  0  0  0  0  0
  178.8380  178.8380  141.2870 O   0  0  0  0  0  0  0  0  0  0  0  0
  177.8980  181.6220  140.7230 O   0  0  0  0  0  1  0  0  0  0  0  0
  178.2140  180.3660  138.7290 C   0  0  0  0  0  1  0  0  0  0  0  0
  178.8430  181.2980  139.7480 C   0  0  2  0  0  0  0  0  0  0  0  0
  179.2900  182.5630  139.0330 C   0  0  0  0  0  2  0  0  0  0  0  0
  179.4500  182.3270  137.6670 O   0  0  0  0  0  0  0  0  0  0  0  0
  179.9520  183.5250  137.1610 C   0  0  0  0  0  1  0  0  0  0  0  0
  1  9  1  6  0  0  0
  1 13  1  0  0  0  0
  1 10  1  0  0  0  0
  3 35  1  6  0  0  0
  3  7  1  0  0  0  0
  4 14  1  0  0  0  0
  4  6  1  0  0  0  0
  5  2  1  0  0  0  0
  6  3  1  0  0  0  0
  7 11  1  0  0  0  0
  8 12  1  0  0  0  0
 10  5  1  1  0  0  0
 11  8  1  0  0  0  0
 12  2  1  0  0  0  0
 13 10  1  0  0  0  0
 13 22  1  1  0  0  0
 14 15  1  6  0  0  0
 14  9  1  0  0  0  0
 16 17  1  0  0  0  0
 16 15  1  1  0  0  0
 17 19  1  1  0  0  0
 18 16  1  0  0  0  0
 18 17  1  0  0  0  0
 19 21  1  0  0  0  0
 21 20  1  0  0  0  0
 23 22  1  0  0  0  0
 24 25  2  0  0  0  0
 25 23  1  0  0  0  0
 27 26  1  0  0  0  0
 28 26  2  0  0  0  0
 28 25  1  0  0  0  0
 29 28  1  0  0  0  0
 30 31  1  0  0  0  0
 31 29  1  1  0  0  0
 32 31  1  0  0  0  0
 33 32  2  0  0  0  0
 33 34  1  0  0  0  0
 34 30  2  0  0  0  0
 36 35  1  0  0  0  0
 37 36  1  0  0  0  0
 37 38  1  0  0  0  0
 39 41  2  0  0  0  0
 39 38  1  0  0  0  0
 40 39  1  0  0  0  0
 44 43  1  6  0  0  0
 44 40  1  0  0  0  0
 44 42  1  0  0  0  0
 45 44  1  0  0  0  0
 46 45  1  0  0  0  0
 47 46  1  0  0  0  0
M  END
>  <MODEL>
1

>  <REMARK>
 VINA RESULT:      -7.1      0.000      0.000
  Name = 
  17 active torsions:
  status: ('A' for Active; 'I' for Inactive)
    1  A    between atoms: N_1  and  C_38
    2  A    between atoms: C_2  and  C_31
    3  A    between atoms: C_4  and  C_14
    4  A    between atoms: C_4  and  C_47
    5  A    between atoms: C_6  and  C_18
    6  A    between atoms: C_6  and  C_41
    7  A    between atoms: C_9  and  C_12
    8  A    between atoms: C_9  and  C_39
    9  A    between atoms: O_15  and  C_32
   10  A    between atoms: C_16  and  C_36
   11  A    between atoms: C_18  and  C_47
   12  A    between atoms: C_31  and  C_46
   13  A    between atoms: C_32  and  C_42
   14  A    between atoms: C_36  and  C_37
   15  A    between atoms: C_38  and  C_40
   16  A    between atoms: C_39  and  C_45
   17  A    between atoms: C_42  and  N_43
                            x       y       z     vdW  Elec       q    Type
                         _______ _______ _______ _____ _____    ______ ____

>  <TORSDO>
F 17

$$$$
=
 OpenBabel11072408373D

 47 50  0  0  1  0  0  0  0  0999 V2000
  189.0930  174.3830  142.0220 C   0  0  1  0  0  3  0  0  0  0  0  0
  189.1750  173.2820  138.8440 N   0  0  0  0  0  2  0  0  0  0  0  0
  192.9530  172.0350  141.6560 C   0  0  2  0  0  3  0  0  0  0  0  0
  191.7260  173.6190  143.0990 C   0  0  0  0  0  2  0  0  0  0  0  0
  188.8280  174.3090  139.7350 N   0  0  0  0  0  2  0  0  0  0  0  0
  191.7770  172.1780  142.6120 C   0  0  0  0  0  2  0  0  0  0  0  0
  192.6140  171.2310  140.3960 C   0  0  0  0  0  2  0  0  0  0  0  0
  191.3580  173.1600  139.5120 N   0  0  0  0  0  2  0  0  0  0  0  0
  189.2990  173.4810  143.0690 O   0  0  0  0  0  0  0  0  0  0  0  0
  188.4210  173.6760  140.9210 N   0  0  2  0  0  0  0  0  0  0  0  0
  191.3610  171.7100  139.6670 C   0  0  0  0  0  2  0  0  0  0  0  0
  190.5080  173.4920  138.4410 N   0  0  0  0  0  2  0  0  0  0  0  0
  187.6650  174.5930  141.8140 C   0  0  2  0  0  3  0  0  0  0  0  0
  190.4020  173.9630  143.7890 C   0  0  1  0  0  3  0  0  0  0  0  0
  190.3880  173.3940  145.1980 C   0  0  0  0  0  2  0  0  0  0  0  0
  189.5090  174.2510  146.1070 C   0  0  1  0  0  3  0  0  0  0  0  0
  190.2690  175.2400  146.9990 C   0  0  2  0  0  3  0  0  0  0  0  0
  189.6300  175.7070  145.7050 C   0  0  0  0  0  2  0  0  0  0  0  0
  191.7840  175.2150  146.8360 C   0  0  0  0  0  2  0  0  0  0  0  0
  191.5010  177.0180  148.3570 O   0  0  0  0  0  1  0  0  0  0  0  0
  192.3780  176.4800  147.4160 C   0  0  0  0  0  2  0  0  0  0  0  0
  187.4040  175.9860  141.2330 C   0  0  0  0  0  2  0  0  0  0  0  0
  186.3390  176.6490  141.9730 N   0  0  0  0  0  2  0  0  0  0  0  0
  187.4440  178.7010  142.1390 O   0  0  0  0  0  0  0  0  0  0  0  0
  186.4150  178.0150  142.3960 C   0  0  0  0  0  0  0  0  0  0  0  0
  184.0780  178.4380  142.6960 N   0  0  0  0  0  0  0  0  0  0  0  0
  182.9930  178.9950  143.3360 O   0  0  0  0  0  1  0  0  0  0  0  0
  185.2910  178.6230  143.1220 C   0  0  0  0  0  0  0  0  0  0  0  0
  185.5610  179.4740  144.3290 C   0  0  0  0  0  2  0  0  0  0  0  0
  185.7060  179.2490  146.7490 N   0  0  0  0  0  0  0  0  0  0  0  0
  186.0680  178.6260  145.4880 C   0  0  1  0  0  3  0  0  0  0  0  0
  185.3420  177.3200  145.5600 C   0  0  0  0  0  3  0  0  0  0  0  0
  184.7120  177.2830  146.7230 C   0  0  0  0  0  3  0  0  0  0  0  0
  184.9560  178.4870  147.4320 N   0  0  0  0  0  0  0  0  0  0  0  0
  194.1810  171.4680  142.3650 C   0  0  0  0  0  2  0  0  0  0  0  0
  193.8160  170.8020  143.6840 C   0  0  0  0  0  2  0  0  0  0  0  0
  194.7710  171.2590  144.7700 C   0  0  0  0  0  2  0  0  0  0  0  0
  194.2090  172.4770  145.4880 C   0  0  0  0  0  2  0  0  0  0  0  0
  195.0970  173.6610  145.2940 C   0  0  0  0  0  0  0  0  0  0  0  0
  194.8740  174.5330  144.1800 N   0  0  0  0  0  2  0  0  0  0  0  0
  196.0500  173.8640  146.0930 O   0  0  0  0  0  0  0  0  0  0  0  0
  197.0450  175.4010  144.0810 O   0  0  0  0  0  1  0  0  0  0  0  0
  195.2980  176.8650  144.7630 C   0  0  0  0  0  1  0  0  0  0  0  0
  195.6970  175.7000  143.8750 C   0  0  2  0  0  0  0  0  0  0  0  0
  195.4840  176.1060  142.4240 C   0  0  0  0  0  2  0  0  0  0  0  0
  194.1810  175.8150  142.0180 O   0  0  0  0  0  0  0  0  0  0  0  0
  194.3130  175.3920  140.6960 C   0  0  0  0  0  1  0  0  0  0  0  0
  1  9  1  1  0  0  0
  2  5  1  0  0  0  0
  3 35  1  1  0  0  0
  3  6  1  0  0  0  0
  4 14  1  0  0  0  0
  6  4  1  0  0  0  0
  7  3  1  0  0  0  0
  8 11  1  0  0  0  0
  9 14  1  0  0  0  0
 10  5  1  6  0  0  0
 10 13  1  0  0  0  0
 10  1  1  0  0  0  0
 11  7  1  0  0  0  0
 12  2  1  0  0  0  0
 12  8  1  0  0  0  0
 13 22  1  6  0  0  0
 13  1  1  0  0  0  0
 14 15  1  1  0  0  0
 16 15  1  6  0  0  0
 16 17  1  0  0  0  0
 17 19  1  6  0  0  0
 18 16  1  0  0  0  0
 18 17  1  0  0  0  0
 19 21  1  0  0  0  0
 21 20  1  0  0  0  0
 22 23  1  0  0  0  0
 23 25  1  0  0  0  0
 24 25  2  0  0  0  0
 25 28  1  0  0  0  0
 26 28  2  0  0  0  0
 26 27  1  0  0  0  0
 28 29  1  0  0  0  0
 30 34  2  0  0  0  0
 31 29  1  6  0  0  0
 31 32  1  0  0  0  0
 31 30  1  0  0  0  0
 32 33  2  0  0  0  0
 33 34  1  0  0  0  0
 35 36  1  0  0  0  0
 36 37  1  0  0  0  0
 37 38  1  0  0  0  0
 39 38  1  0  0  0  0
 39 41  2  0  0  0  0
 40 39  1  0  0  0  0
 44 42  1  0  0  0  0
 44 40  1  0  0  0  0
 44 43  1  1  0  0  0
 45 44  1  0  0  0  0
 46 45  1  0  0  0  0
 47 46  1  0  0  0  0
M  END
>  <MODEL>
2

>  <REMARK>
 VINA RESULT:      -7.1      3.723     11.441
  Name = 
  17 active torsions:
  status: ('A' for Active; 'I' for Inactive)
    1  A    between atoms: N_1  and  C_38
    2  A    between atoms: C_2  and  C_31
    3  A    between atoms: C_4  and  C_14
    4  A    between atoms: C_4  and  C_47
    5  A    between atoms: C_6  and  C_18
    6  A    between atoms: C_6  and  C_41
    7  A    between atoms: C_9  and  C_12
    8  A    between atoms: C_9  and  C_39
    9  A    between atoms: O_15  and  C_32
   10  A    between atoms: C_16  and  C_36
   11  A    between atoms: C_18  and  C_47
   12  A    between atoms: C_31  and  C_46
   13  A    between atoms: C_32  and  C_42
   14  A    between atoms: C_36  and  C_37
   15  A    between atoms: C_38  and  C_40
   16  A    between atoms: C_39  and  C_45
   17  A    between atoms: C_42  and  N_43
                            x       y       z     vdW  Elec       q    Type
                         _______ _______ _______ _____ _____    ______ ____

>  <TORSDO>
F 17

$$$$
=
 OpenBabel11072408373D

 47 50  0  0  1  0  0  0  0  0999 V2000
  193.9110  175.0300  142.5260 C   0  0  1  0  0  3  0  0  0  0  0  0
  195.1880  175.7960  145.5420 N   0  0  0  0  0  2  0  0  0  0  0  0
  190.3280  175.7650  145.2030 C   0  0  2  0  0  3  0  0  0  0  0  0
  191.0190  175.4900  142.8500 C   0  0  0  0  0  2  0  0  0  0  0  0
  195.3030  175.8900  144.1470 N   0  0  0  0  0  2  0  0  0  0  0  0
  190.8050  174.7580  144.1660 C   0  0  0  0  0  2  0  0  0  0  0  0
  191.0210  175.6080  146.5620 C   0  0  0  0  0  2  0  0  0  0  0  0
  193.0620  176.6310  145.6310 N   0  0  0  0  0  2  0  0  0  0  0  0
  192.9270  174.0440  142.4250 O   0  0  0  0  0  0  0  0  0  0  0  0
  194.8140  174.6790  143.6320 N   0  0  2  0  0  0  0  0  0  0  0  0
  192.5460  175.5690  146.4860 C   0  0  0  0  0  2  0  0  0  0  0  0
  194.4020  176.8770  145.9850 N   0  0  0  0  0  2  0  0  0  0  0  0
  195.2210  174.4670  142.2180 C   0  0  2  0  0  3  0  0  0  0  0  0
  191.8130  174.6600  141.8350 C   0  0  1  0  0  3  0  0  0  0  0  0
  190.9130  173.6100  141.2050 C   0  0  0  0  0  2  0  0  0  0  0  0
  189.4450  173.9530  141.4530 C   0  0  1  0  0  3  0  0  0  0  0  0
  188.4680  173.4110  140.4030 C   0  0  2  0  0  3  0  0  0  0  0  0
  188.6650  172.6820  141.7180 C   0  0  0  0  0  2  0  0  0  0  0  0
  189.1140  172.6130  139.2790 C   0  0  0  0  0  2  0  0  0  0  0  0
  188.0700  174.3490  138.0390 O   0  0  0  0  0  1  0  0  0  0  0  0
  188.5220  173.0330  137.9520 C   0  0  0  0  0  2  0  0  0  0  0  0
  196.1500  175.5430  141.6480 C   0  0  0  0  0  2  0  0  0  0  0  0
  195.9290  175.6930  140.2160 N   0  0  0  0  0  2  0  0  0  0  0  0
  197.4420  174.0250  139.5920 O   0  0  0  0  0  0  0  0  0  0  0  0
  196.6040  174.8990  139.2340 C   0  0  0  0  0  0  0  0  0  0  0  0
  197.0920  175.8490  137.0920 N   0  0  0  0  0  0  0  0  0  0  0  0
  196.8560  176.0710  135.7530 O   0  0  0  0  0  1  0  0  0  0  0  0
  196.3140  175.0940  137.8060 C   0  0  0  0  0  0  0  0  0  0  0  0
  195.1040  174.4440  137.1990 C   0  0  0  0  0  2  0  0  0  0  0  0
  193.4470  176.1040  136.5480 N   0  0  0  0  0  2  0  0  0  0  0  0
  193.8330  175.1820  137.6010 C   0  0  1  0  0  3  0  0  0  0  0  0
  192.6620  174.2520  137.6540 C   0  0  0  0  0  2  0  0  0  0  0  0
  191.7860  174.6700  136.7540 C   0  0  0  0  0  3  0  0  0  0  0  0
  192.3000  175.8140  136.0890 N   0  0  0  0  0  0  0  0  0  0  0  0
  188.8080  175.7390  145.3480 C   0  0  0  0  0  2  0  0  0  0  0  0
  188.3730  175.9210  146.7940 C   0  0  0  0  0  2  0  0  0  0  0  0
  187.6410  177.2400  146.9480 C   0  0  0  0  0  2  0  0  0  0  0  0
  186.1380  177.0080  146.9840 C   0  0  0  0  0  2  0  0  0  0  0  0
  185.4520  177.8220  145.9390 C   0  0  0  0  0  0  0  0  0  0  0  0
  186.0860  178.0200  144.6700 N   0  0  0  0  0  2  0  0  0  0  0  0
  184.3370  178.3530  146.1930 O   0  0  0  0  0  0  0  0  0  0  0  0
  185.3140  180.1310  144.0230 O   0  0  0  0  0  1  0  0  0  0  0  0
  184.2040  178.2260  143.1300 C   0  0  0  0  0  1  0  0  0  0  0  0
  185.5240  178.8220  143.5870 C   0  0  2  0  0  0  0  0  0  0  0  0
  186.4840  178.8260  142.4070 C   0  0  0  0  0  2  0  0  0  0  0  0
  187.5140  177.9070  142.6070 O   0  0  0  0  0  0  0  0  0  0  0  0
  187.4240  177.0380  141.5210 C   0  0  0  0  0  1  0  0  0  0  0  0
  1  9  1  1  0  0  0
  1 10  1  0  0  0  0
  2 12  1  0  0  0  0
  3 35  1  1  0  0  0
  3  7  1  0  0  0  0
  4  6  1  0  0  0  0
  5  2  1  0  0  0  0
  6  3  1  0  0  0  0
  8 12  1  0  0  0  0
  8 11  1  0  0  0  0
 10  5  1  6  0  0  0
 11  7  1  0  0  0  0
 13 22  1  6  0  0  0
 13  1  1  0  0  0  0
 13 10  1  0  0  0  0
 14 15  1  1  0  0  0
 14  9  1  0  0  0  0
 14  4  1  0  0  0  0
 16 15  1  6  0  0  0
 16 18  1  0  0  0  0
 17 19  1  6  0  0  0
 17 16  1  0  0  0  0
 17 18  1  0  0  0  0
 21 20  1  0  0  0  0
 21 19  1  0  0  0  0
 23 22  1  0  0  0  0
 25 24  2  0  0  0  0
 25 23  1  0  0  0  0
 26 28  2  0  0  0  0
 27 26  1  0  0  0  0
 28 25  1  0  0  0  0
 29 28  1  0  0  0  0
 30 31  1  0  0  0  0
 31 29  1  6  0  0  0
 31 32  1  0  0  0  0
 33 32  1  0  0  0  0
 34 30  1  0  0  0  0
 34 33  2  0  0  0  0
 35 36  1  0  0  0  0
 36 37  1  0  0  0  0
 37 38  1  0  0  0  0
 39 41  2  0  0  0  0
 39 38  1  0  0  0  0
 40 39  1  0  0  0  0
 44 43  1  6  0  0  0
 44 42  1  0  0  0  0
 44 40  1  0  0  0  0
 45 46  1  0  0  0  0
 45 44  1  0  0  0  0
 47 46  1  0  0  0  0
M  END
>  <MODEL>
3

>  <REMARK>
 VINA RESULT:      -6.8      3.901      7.572
  Name = 
  17 active torsions:
  status: ('A' for Active; 'I' for Inactive)
    1  A    between atoms: N_1  and  C_38
    2  A    between atoms: C_2  and  C_31
    3  A    between atoms: C_4  and  C_14
    4  A    between atoms: C_4  and  C_47
    5  A    between atoms: C_6  and  C_18
    6  A    between atoms: C_6  and  C_41
    7  A    between atoms: C_9  and  C_12
    8  A    between atoms: C_9  and  C_39
    9  A    between atoms: O_15  and  C_32
   10  A    between atoms: C_16  and  C_36
   11  A    between atoms: C_18  and  C_47
   12  A    between atoms: C_31  and  C_46
   13  A    between atoms: C_32  and  C_42
   14  A    between atoms: C_36  and  C_37
   15  A    between atoms: C_38  and  C_40
   16  A    between atoms: C_39  and  C_45
   17  A    between atoms: C_42  and  N_43
                            x       y       z     vdW  Elec       q    Type
                         _______ _______ _______ _____ _____    ______ ____

>  <TORSDO>
F 17

$$$$
=
 OpenBabel11072408373D

 47 50  0  0  1  0  0  0  0  0999 V2000
  190.3770  175.2230  142.2930 C   0  0  1  0  0  3  0  0  0  0  0  0
  190.9130  172.8140  140.0080 N   0  0  0  0  0  2  0  0  0  0  0  0
  194.8280  175.3300  141.4480 C   0  0  2  0  0  3  0  0  0  0  0  0
  192.9840  176.5780  142.5120 C   0  0  0  0  0  2  0  0  0  0  0  0
  190.0650  173.8210  140.4930 N   0  0  0  0  0  2  0  0  0  0  0  0
  193.8800  175.3550  142.6380 C   0  0  0  0  0  2  0  0  0  0  0  0
  194.9770  173.9380  140.8220 C   0  0  0  0  0  2  0  0  0  0  0  0
  192.7430  174.1680  139.8010 N   0  0  0  0  0  2  0  0  0  0  0  0
  191.1640  175.2650  143.4470 O   0  0  0  0  0  0  0  0  0  0  0  0
  190.2140  173.8190  141.8890 N   0  0  2  0  0  0  0  0  0  0  0  0
  193.6510  173.2570  140.4900 C   0  0  0  0  0  2  0  0  0  0  0  0
  191.8020  173.4030  139.0880 N   0  0  0  0  0  2  0  0  0  0  0  0
  189.1130  174.5490  142.5710 C   0  0  2  0  0  3  0  0  0  0  0  0
  191.7780  176.5260  143.4560 C   0  0  1  0  0  3  0  0  0  0  0  0
  192.2100  176.8810  144.8690 C   0  0  0  0  0  2  0  0  0  0  0  0
  191.3760  176.1080  145.8890 C   0  0  1  0  0  3  0  0  0  0  0  0
  192.1200  174.9790  146.6120 C   0  0  2  0  0  3  0  0  0  0  0  0
  191.9380  176.3300  147.2780 C   0  0  0  0  0  2  0  0  0  0  0  0
  193.5770  174.8080  146.2030 C   0  0  0  0  0  2  0  0  0  0  0  0
  192.6630  172.9370  145.0600 O   0  0  0  0  0  1  0  0  0  0  0  0
  193.8060  173.3940  145.7150 C   0  0  0  0  0  2  0  0  0  0  0  0
  188.0110  175.0650  141.6410 C   0  0  0  0  0  2  0  0  0  0  0  0
  187.0610  175.8790  142.3880 N   0  0  0  0  0  2  0  0  0  0  0  0
  188.1630  177.9020  141.9970 O   0  0  0  0  0  0  0  0  0  0  0  0
  187.1890  177.2980  142.5270 C   0  0  0  0  0  0  0  0  0  0  0  0
  186.2330  179.3520  143.3010 N   0  0  0  0  0  0  0  0  0  0  0  0
  185.3160  180.1050  144.0010 O   0  0  0  0  0  1  0  0  0  0  0  0
  186.1790  178.0550  143.2800 C   0  0  0  0  0  0  0  0  0  0  0  0
  185.1150  177.3180  144.0420 C   0  0  0  0  0  2  0  0  0  0  0  0
  186.8740  177.5840  145.7050 N   0  0  0  0  0  0  0  0  0  0  0  0
  185.6210  176.9070  145.4190 C   0  0  1  0  0  3  0  0  0  0  0  0
  184.7270  177.4260  146.5010 C   0  0  0  0  0  3  0  0  0  0  0  0
  185.4490  178.2440  147.2500 C   0  0  0  0  0  3  0  0  0  0  0  0
  186.7680  178.3200  146.7330 N   0  0  0  0  0  0  0  0  0  0  0  0
  196.1880  175.9270  141.8050 C   0  0  0  0  0  2  0  0  0  0  0  0
  196.4730  175.8330  143.2970 C   0  0  0  0  0  2  0  0  0  0  0  0
  197.6010  174.8490  143.5430 C   0  0  0  0  0  2  0  0  0  0  0  0
  197.4260  174.1730  144.8940 C   0  0  0  0  0  2  0  0  0  0  0  0
  197.1740  172.7120  144.7250 C   0  0  0  0  0  0  0  0  0  0  0  0
  196.8210  172.2030  143.4340 N   0  0  0  0  0  2  0  0  0  0  0  0
  197.2440  171.9460  145.7240 O   0  0  0  0  0  0  0  0  0  0  0  0
  197.5200  169.9850  143.6970 O   0  0  0  0  0  1  0  0  0  0  0  0
  196.4390  170.5700  141.6600 C   0  0  0  0  0  1  0  0  0  0  0  0
  196.5220  170.8000  143.1580 C   0  0  2  0  0  0  0  0  0  0  0  0
  195.1810  170.4360  143.7770 C   0  0  0  0  0  2  0  0  0  0  0  0
  195.3170  169.3550  144.6490 O   0  0  0  0  0  0  0  0  0  0  0  0
  194.5430  169.6990  145.7560 C   0  0  0  0  0  1  0  0  0  0  0  0
  1 13  1  0  0  0  0
  1  9  1  1  0  0  0
  2  5  1  0  0  0  0
  3 35  1  1  0  0  0
  3  6  1  0  0  0  0
  4  6  1  0  0  0  0
  4 14  1  0  0  0  0
  7  3  1  0  0  0  0
  8 11  1  0  0  0  0
  9 14  1  0  0  0  0
 10  5  1  6  0  0  0
 10  1  1  0  0  0  0
 10 13  1  0  0  0  0
 11  7  1  0  0  0  0
 12  8  1  0  0  0  0
 12  2  1  0  0  0  0
 13 22  1  6  0  0  0
 14 15  1  1  0  0  0
 16 15  1  6  0  0  0
 16 17  1  0  0  0  0
 16 18  1  0  0  0  0
 17 19  1  6  0  0  0
 17 18  1  0  0  0  0
 20 21  1  0  0  0  0
 21 19  1  0  0  0  0
 22 23  1  0  0  0  0
 23 25  1  0  0  0  0
 24 25  2  0  0  0  0
 25 28  1  0  0  0  0
 26 27  1  0  0  0  0
 28 26  2  0  0  0  0
 28 29  1  0  0  0  0
 30 34  2  0  0  0  0
 31 29  1  6  0  0  0
 31 30  1  0  0  0  0
 31 32  1  0  0  0  0
 32 33  2  0  0  0  0
 34 33  1  0  0  0  0
 35 36  1  0  0  0  0
 36 37  1  0  0  0  0
 37 38  1  0  0  0  0
 39 38  1  0  0  0  0
 39 41  2  0  0  0  0
 40 39  1  0  0  0  0
 44 43  1  6  0  0  0
 44 40  1  0  0  0  0
 44 42  1  0  0  0  0
 44 45  1  0  0  0  0
 45 46  1  0  0  0  0
 46 47  1  0  0  0  0
M  END
>  <MODEL>
4

>  <REMARK>
 VINA RESULT:      -6.7      4.332     12.336
  Name = 
  17 active torsions:
  status: ('A' for Active; 'I' for Inactive)
    1  A    between atoms: N_1  and  C_38
    2  A    between atoms: C_2  and  C_31
    3  A    between atoms: C_4  and  C_14
    4  A    between atoms: C_4  and  C_47
    5  A    between atoms: C_6  and  C_18
    6  A    between atoms: C_6  and  C_41
    7  A    between atoms: C_9  and  C_12
    8  A    between atoms: C_9  and  C_39
    9  A    between atoms: O_15  and  C_32
   10  A    between atoms: C_16  and  C_36
   11  A    between atoms: C_18  and  C_47
   12  A    between atoms: C_31  and  C_46
   13  A    between atoms: C_32  and  C_42
   14  A    between atoms: C_36  and  C_37
   15  A    between atoms: C_38  and  C_40
   16  A    between atoms: C_39  and  C_45
   17  A    between atoms: C_42  and  N_43
                            x       y       z     vdW  Elec       q    Type
                         _______ _______ _______ _____ _____    ______ ____

>  <TORSDO>
F 17

$$$$
=
 OpenBabel11072408373D

 47 50  0  0  1  0  0  0  0  0999 V2000
  188.8460  174.1250  140.9750 C   0  0  1  0  0  3  0  0  0  0  0  0
  189.8220  171.2460  142.4150 N   0  0  0  0  0  2  0  0  0  0  0  0
  190.1340  175.2490  145.1730 C   0  0  2  0  0  3  0  0  0  0  0  0
  189.5610  176.1810  142.9610 C   0  0  0  0  0  2  0  0  0  0  0  0
  189.7610  172.0290  141.2530 N   0  0  0  0  0  2  0  0  0  0  0  0
  188.9890  175.5210  144.2070 C   0  0  0  0  0  2  0  0  0  0  0  0
  190.0670  173.8590  145.8140 C   0  0  0  0  0  2  0  0  0  0  0  0
  190.8250  172.8530  143.6940 N   0  0  0  0  0  2  0  0  0  0  0  0
  187.9340  174.9510  141.6370 O   0  0  0  0  0  0  0  0  0  0  0  0
  188.5440  172.7270  141.3160 N   0  0  2  0  0  0  0  0  0  0  0  0
  189.9020  172.7160  144.8140 C   0  0  0  0  0  2  0  0  0  0  0  0
  191.0020  171.5870  143.1040 N   0  0  0  0  0  2  0  0  0  0  0  0
  188.1540  173.2930  139.9980 C   0  0  2  0  0  3  0  0  0  0  0  0
  188.5700  176.1920  141.7920 C   0  0  1  0  0  3  0  0  0  0  0  0
  187.5330  177.2830  142.0000 C   0  0  0  0  0  2  0  0  0  0  0  0
  186.1990  176.6720  142.4270 C   0  0  1  0  0  3  0  0  0  0  0  0
  185.6180  177.2300  143.7310 C   0  0  2  0  0  3  0  0  0  0  0  0
  185.1200  177.7340  142.3900 C   0  0  0  0  0  2  0  0  0  0  0  0
  186.4620  178.3110  144.3960 C   0  0  0  0  0  2  0  0  0  0  0  0
  185.0970  179.0810  146.1810 O   0  0  0  0  0  1  0  0  0  0  0  0
  186.2150  178.3010  145.8890 C   0  0  0  0  0  2  0  0  0  0  0  0
  189.0880  172.9300  138.8400 C   0  0  0  0  0  2  0  0  0  0  0  0
  189.2110  174.0530  137.9200 N   0  0  0  0  0  2  0  0  0  0  0  0
  189.5950  172.7350  136.0290 O   0  0  0  0  0  0  0  0  0  0  0  0
  189.4610  173.8910  136.5200 C   0  0  0  0  0  0  0  0  0  0  0  0
  188.5000  175.8050  135.4500 N   0  0  0  0  0  0  0  0  0  0  0  0
  188.5330  176.9140  134.6350 O   0  0  0  0  0  1  0  0  0  0  0  0
  189.5530  175.0720  135.6490 C   0  0  0  0  0  0  0  0  0  0  0  0
  190.8550  175.3970  134.9760 C   0  0  0  0  0  2  0  0  0  0  0  0
  192.9480  174.3350  135.6250 N   0  0  0  0  0  2  0  0  0  0  0  0
  192.0020  175.3790  135.9790 C   0  0  1  0  0  3  0  0  0  0  0  0
  192.8380  176.6150  135.8650 C   0  0  0  0  0  2  0  0  0  0  0  0
  194.0580  176.2360  135.5200 C   0  0  0  0  0  3  0  0  0  0  0  0
  194.0930  174.8240  135.3790 N   0  0  0  0  0  0  0  0  0  0  0  0
  190.2410  176.3450  146.2320 C   0  0  0  0  0  2  0  0  0  0  0  0
  191.2620  175.9970  147.3050 C   0  0  0  0  0  2  0  0  0  0  0  0
  192.6210  176.5490  146.9190 C   0  0  0  0  0  2  0  0  0  0  0  0
  193.5350  175.4240  146.4600 C   0  0  0  0  0  2  0  0  0  0  0  0
  193.7600  175.4930  144.9870 C   0  0  0  0  0  0  0  0  0  0  0  0
  193.9550  174.2820  144.2460 N   0  0  0  0  0  2  0  0  0  0  0  0
  193.8070  176.6150  144.4130 O   0  0  0  0  0  0  0  0  0  0  0  0
  193.1690  174.8440  142.1150 O   0  0  0  0  0  1  0  0  0  0  0  0
  194.3430  172.7890  142.3550 C   0  0  0  0  0  1  0  0  0  0  0  0
  194.2140  174.2310  142.8090 C   0  0  2  0  0  0  0  0  0  0  0  0
  195.5180  174.9520  142.5030 C   0  0  0  0  0  2  0  0  0  0  0  0
  195.4720  175.5360  141.2370 O   0  0  0  0  0  0  0  0  0  0  0  0
  196.0790  176.7800  141.4040 C   0  0  0  0  0  1  0  0  0  0  0  0
  1 10  1  0  0  0  0
  1  9  1  1  0  0  0
  2 12  1  0  0  0  0
  3  7  1  0  0  0  0
  3 35  1  1  0  0  0
  4  6  1  0  0  0  0
  5  2  1  0  0  0  0
  6  3  1  0  0  0  0
  8 11  1  0  0  0  0
  9 14  1  0  0  0  0
 10  5  1  6  0  0  0
 11  7  1  0  0  0  0
 12  8  1  0  0  0  0
 13 22  1  6  0  0  0
 13  1  1  0  0  0  0
 13 10  1  0  0  0  0
 14 15  1  1  0  0  0
 14  4  1  0  0  0  0
 16 15  1  1  0  0  0
 16 17  1  0  0  0  0
 17 19  1  1  0  0  0
 18 16  1  0  0  0  0
 18 17  1  0  0  0  0
 19 21  1  0  0  0  0
 21 20  1  0  0  0  0
 23 22  1  0  0  0  0
 24 25  2  0  0  0  0
 25 23  1  0  0  0  0
 26 28  2  0  0  0  0
 27 26  1  0  0  0  0
 28 25  1  0  0  0  0
 29 28  1  0  0  0  0
 30 31  1  0  0  0  0
 31 29  1  6  0  0  0
 32 31  1  0  0  0  0
 33 32  1  0  0  0  0
 34 33  2  0  0  0  0
 34 30  1  0  0  0  0
 35 36  1  0  0  0  0
 37 36  1  0  0  0  0
 38 37  1  0  0  0  0
 39 38  1  0  0  0  0
 40 39  1  0  0  0  0
 41 39  2  0  0  0  0
 42 44  1  0  0  0  0
 44 43  1  6  0  0  0
 44 40  1  0  0  0  0
 45 44  1  0  0  0  0
 46 47  1  0  0  0  0
 46 45  1  0  0  0  0
M  END
>  <MODEL>
5

>  <REMARK>
 VINA RESULT:      -6.7      4.963     10.583
  Name = 
  17 active torsions:
  status: ('A' for Active; 'I' for Inactive)
    1  A    between atoms: N_1  and  C_38
    2  A    between atoms: C_2  and  C_31
    3  A    between atoms: C_4  and  C_14
    4  A    between atoms: C_4  and  C_47
    5  A    between atoms: C_6  and  C_18
    6  A    between atoms: C_6  and  C_41
    7  A    between atoms: C_9  and  C_12
    8  A    between atoms: C_9  and  C_39
    9  A    between atoms: O_15  and  C_32
   10  A    between atoms: C_16  and  C_36
   11  A    between atoms: C_18  and  C_47
   12  A    between atoms: C_31  and  C_46
   13  A    between atoms: C_32  and  C_42
   14  A    between atoms: C_36  and  C_37
   15  A    between atoms: C_38  and  C_40
   16  A    between atoms: C_39  and  C_45
   17  A    between atoms: C_42  and  N_43
                            x       y       z     vdW  Elec       q    Type
                         _______ _______ _______ _____ _____    ______ ____

>  <TORSDO>
F 17

$$$$
=
 OpenBabel11072408373D

 47 50  0  0  1  0  0  0  0  0999 V2000
  193.3230  174.9440  143.4210 C   0  0  1  0  0  3  0  0  0  0  0  0
  194.7740  175.6380  146.3750 N   0  0  0  0  0  2  0  0  0  0  0  0
  189.9040  175.7320  146.2900 C   0  0  2  0  0  3  0  0  0  0  0  0
  190.4650  175.4710  143.9010 C   0  0  0  0  0  2  0  0  0  0  0  0
  194.8190  175.7480  144.9770 N   0  0  0  0  0  2  0  0  0  0  0  0
  190.3000  174.7270  145.2180 C   0  0  0  0  0  2  0  0  0  0  0  0
  190.6620  175.5410  147.6090 C   0  0  0  0  0  2  0  0  0  0  0  0
  192.6780  176.5250  146.5850 N   0  0  0  0  0  2  0  0  0  0  0  0
  192.3100  173.9840  143.3600 O   0  0  0  0  0  0  0  0  0  0  0  0
  194.2730  174.5560  144.4740 N   0  0  2  0  0  0  0  0  0  0  0  0
  192.1790  175.4650  147.4530 C   0  0  0  0  0  2  0  0  0  0  0  0
  194.0400  176.7320  146.8710 N   0  0  0  0  0  2  0  0  0  0  0  0
  194.6000  174.3520  143.0390 C   0  0  2  0  0  3  0  0  0  0  0  0
  191.1840  174.6350  142.8370 C   0  0  1  0  0  3  0  0  0  0  0  0
  190.2260  173.6160  142.2420 C   0  0  0  0  0  2  0  0  0  0  0  0
  188.8640  174.2570  141.9820 C   0  0  1  0  0  3  0  0  0  0  0  0
  188.2700  173.9770  140.5970 C   0  0  2  0  0  3  0  0  0  0  0  0
  187.8190  173.1750  141.8030 C   0  0  0  0  0  2  0  0  0  0  0  0
  189.1300  173.0990  139.6970 C   0  0  0  0  0  2  0  0  0  0  0  0
  188.1850  174.0800  137.7520 O   0  0  0  0  0  1  0  0  0  0  0  0
  189.3950  173.8140  138.3910 C   0  0  0  0  0  2  0  0  0  0  0  0
  195.5260  175.4120  142.4330 C   0  0  0  0  0  2  0  0  0  0  0  0
  196.2780  174.8480  141.3200 N   0  0  0  0  0  2  0  0  0  0  0  0
  194.8230  175.6280  139.6660 O   0  0  0  0  0  0  0  0  0  0  0  0
  195.8770  174.9940  139.9540 C   0  0  0  0  0  0  0  0  0  0  0  0
  196.8830  173.1300  138.8400 N   0  0  0  0  0  0  0  0  0  0  0  0
  197.6530  172.5400  137.8620 O   0  0  0  0  0  1  0  0  0  0  0  0
  196.6980  174.4140  138.8820 C   0  0  0  0  0  0  0  0  0  0  0  0
  197.3390  175.3170  137.8680 C   0  0  0  0  0  2  0  0  0  0  0  0
  195.4030  175.6050  136.4190 N   0  0  0  0  0  0  0  0  0  0  0  0
  196.7540  175.0750  136.4810 C   0  0  1  0  0  3  0  0  0  0  0  0
  197.4620  175.8920  135.4470 C   0  0  0  0  0  3  0  0  0  0  0  0
  196.5710  176.7130  134.9150 C   0  0  0  0  0  3  0  0  0  0  0  0
  195.3110  176.5110  135.5360 N   0  0  0  0  0  0  0  0  0  0  0  0
  188.3930  175.7420  146.5130 C   0  0  0  0  0  2  0  0  0  0  0  0
  187.8370  177.1580  146.5610 C   0  0  0  0  0  2  0  0  0  0  0  0
  186.4930  177.1570  147.2640 C   0  0  0  0  0  2  0  0  0  0  0  0
  185.3950  176.7290  146.3030 C   0  0  0  0  0  2  0  0  0  0  0  0
  185.3830  177.6020  145.0930 C   0  0  0  0  0  0  0  0  0  0  0  0
  185.7320  177.0460  143.8200 N   0  0  0  0  0  2  0  0  0  0  0  0
  185.0960  178.8240  145.2060 O   0  0  0  0  0  0  0  0  0  0  0  0
  186.3700  179.0570  142.8070 O   0  0  0  0  0  1  0  0  0  0  0  0
  184.3830  178.0060  142.0270 C   0  0  0  0  0  1  0  0  0  0  0  0
  185.7840  177.8100  142.5760 C   0  0  2  0  0  0  0  0  0  0  0  0
  186.6030  177.0480  141.5460 C   0  0  0  0  0  2  0  0  0  0  0  0
  186.9360  177.8740  140.4720 O   0  0  0  0  0  0  0  0  0  0  0  0
  186.4390  177.2100  139.3520 C   0  0  0  0  0  1  0  0  0  0  0  0
  1  9  1  1  0  0  0
  1 10  1  0  0  0  0
  2 12  1  0  0  0  0
  3 35  1  1  0  0  0
  3  7  1  0  0  0  0
  4  6  1  0  0  0  0
  5  2  1  0  0  0  0
  6  3  1  0  0  0  0
  8 12  1  0  0  0  0
  8 11  1  0  0  0  0
 10  5  1  6  0  0  0
 11  7  1  0  0  0  0
 13 22  1  6  0  0  0
 13  1  1  0  0  0  0
 13 10  1  0  0  0  0
 14 15  1  1  0  0  0
 14  9  1  0  0  0  0
 14  4  1  0  0  0  0
 16 15  1  6  0  0  0
 17 19  1  6  0  0  0
 17 18  1  0  0  0  0
 17 16  1  0  0  0  0
 18 16  1  0  0  0  0
 20 21  1  0  0  0  0
 21 19  1  0  0  0  0
 23 22  1  0  0  0  0
 24 25  2  0  0  0  0
 25 23  1  0  0  0  0
 26 28  2  0  0  0  0
 27 26  1  0  0  0  0
 28 25  1  0  0  0  0
 29 28  1  0  0  0  0
 30 31  1  0  0  0  0
 31 29  1  1  0  0  0
 32 31  1  0  0  0  0
 33 32  2  0  0  0  0
 33 34  1  0  0  0  0
 34 30  2  0  0  0  0
 35 36  1  0  0  0  0
 36 37  1  0  0  0  0
 38 37  1  0  0  0  0
 39 41  2  0  0  0  0
 39 38  1  0  0  0  0
 40 39  1  0  0  0  0
 44 43  1  6  0  0  0
 44 42  1  0  0  0  0
 44 40  1  0  0  0  0
 45 44  1  0  0  0  0
 46 45  1  0  0  0  0
 47 46  1  0  0  0  0
M  END
>  <MODEL>
6

>  <REMARK>
 VINA RESULT:      -6.6      3.942      7.158
  Name = 
  17 active torsions:
  status: ('A' for Active; 'I' for Inactive)
    1  A    between atoms: N_1  and  C_38
    2  A    between atoms: C_2  and  C_31
    3  A    between atoms: C_4  and  C_14
    4  A    between atoms: C_4  and  C_47
    5  A    between atoms: C_6  and  C_18
    6  A    between atoms: C_6  and  C_41
    7  A    between atoms: C_9  and  C_12
    8  A    between atoms: C_9  and  C_39
    9  A    between atoms: O_15  and  C_32
   10  A    between atoms: C_16  and  C_36
   11  A    between atoms: C_18  and  C_47
   12  A    between atoms: C_31  and  C_46
   13  A    between atoms: C_32  and  C_42
   14  A    between atoms: C_36  and  C_37
   15  A    between atoms: C_38  and  C_40
   16  A    between atoms: C_39  and  C_45
   17  A    between atoms: C_42  and  N_43
                            x       y       z     vdW  Elec       q    Type
                         _______ _______ _______ _____ _____    ______ ____

>  <TORSDO>
F 17

$$$$
=
 OpenBabel11072408373D

 47 50  0  0  1  0  0  0  0  0999 V2000
  193.4510  174.3800  142.1870 C   0  0  1  0  0  3  0  0  0  0  0  0
  196.2440  175.3640  143.7830 N   0  0  0  0  0  2  0  0  0  0  0  0
  192.0260  176.3420  146.0160 C   0  0  2  0  0  3  0  0  0  0  0  0
  191.2740  175.5130  143.8160 C   0  0  0  0  0  2  0  0  0  0  0  0
  195.5770  175.1840  142.5620 N   0  0  0  0  0  2  0  0  0  0  0  0
  191.7590  175.0890  145.1940 C   0  0  0  0  0  2  0  0  0  0  0  0
  193.3370  176.2780  146.8080 C   0  0  0  0  0  2  0  0  0  0  0  0
  194.6050  176.6480  144.7260 N   0  0  0  0  0  2  0  0  0  0  0  0
  192.4920  173.6320  142.8740 O   0  0  0  0  0  0  0  0  0  0  0  0
  194.7800  174.0390  142.7170 N   0  0  2  0  0  0  0  0  0  0  0  0
  194.5550  175.8920  145.9720 C   0  0  0  0  0  2  0  0  0  0  0  0
  195.9330  176.6520  144.2600 N   0  0  0  0  0  2  0  0  0  0  0  0
  194.3170  173.4980  141.4120 C   0  0  2  0  0  3  0  0  0  0  0  0
  191.2980  174.3650  142.8020 C   0  0  1  0  0  3  0  0  0  0  0  0
  190.1120  173.4440  143.0320 C   0  0  0  0  0  2  0  0  0  0  0  0
  189.5140  173.0050  141.6970 C   0  0  1  0  0  3  0  0  0  0  0  0
  188.2650  173.7800  141.2590 C   0  0  2  0  0  3  0  0  0  0  0  0
  189.6270  174.1350  140.6940 C   0  0  0  0  0  2  0  0  0  0  0  0
  187.8180  174.8690  142.2250 C   0  0  0  0  0  2  0  0  0  0  0  0
  187.1710  176.5780  140.7070 O   0  0  0  0  0  1  0  0  0  0  0  0
  188.1420  176.2280  141.6440 C   0  0  0  0  0  2  0  0  0  0  0  0
  194.8670  174.2260  140.1820 C   0  0  0  0  0  2  0  0  0  0  0  0
  193.7770  174.6180  139.2990 N   0  0  0  0  0  2  0  0  0  0  0  0
  194.5020  173.3340  137.4860 O   0  0  0  0  0  0  0  0  0  0  0  0
  193.6460  174.1330  137.9580 C   0  0  0  0  0  0  0  0  0  0  0  0
  192.6180  175.6140  136.3830 N   0  0  0  0  0  0  0  0  0  0  0  0
  191.5760  176.0590  135.5990 O   0  0  0  0  0  1  0  0  0  0  0  0
  192.5080  174.5590  137.1320 C   0  0  0  0  0  0  0  0  0  0  0  0
  191.2210  173.7870  137.1880 C   0  0  0  0  0  2  0  0  0  0  0  0
  190.6780  171.7240  138.3620 N   0  0  0  0  0  0  0  0  0  0  0  0
  191.4910  172.2920  137.3010 C   0  0  1  0  0  3  0  0  0  0  0  0
  190.9930  171.5600  136.0940 C   0  0  0  0  0  3  0  0  0  0  0  0
  190.0620  170.7130  136.5030 C   0  0  0  0  0  3  0  0  0  0  0  0
  189.8910  170.8390  137.9060 N   0  0  0  0  0  0  0  0  0  0  0  0
  190.8440  176.6760  146.9230 C   0  0  0  0  0  2  0  0  0  0  0  0
  190.0320  175.4380  147.2740 C   0  0  0  0  0  2  0  0  0  0  0  0
  188.5570  175.7100  147.0470 C   0  0  0  0  0  2  0  0  0  0  0  0
  188.3350  176.2830  145.6560 C   0  0  0  0  0  2  0  0  0  0  0  0
  187.1870  177.2350  145.6540 C   0  0  0  0  0  0  0  0  0  0  0  0
  186.6170  177.6480  144.4070 N   0  0  0  0  0  2  0  0  0  0  0  0
  186.7510  177.6910  146.7450 O   0  0  0  0  0  0  0  0  0  0  0  0
  185.9410  179.8750  144.6510 O   0  0  0  0  0  1  0  0  0  0  0  0
  184.3610  178.1760  145.1740 C   0  0  0  0  0  1  0  0  0  0  0  0
  185.5140  178.5980  144.2820 C   0  0  2  0  0  0  0  0  0  0  0  0
  185.0250  178.6220  142.8420 C   0  0  0  0  0  2  0  0  0  0  0  0
  183.6740  178.2780  142.7750 O   0  0  0  0  0  0  0  0  0  0  0  0
  183.3780  178.2910  141.4130 C   0  0  0  0  0  1  0  0  0  0  0  0
  1 10  1  0  0  0  0
  1  9  1  1  0  0  0
  2 12  1  0  0  0  0
  3  7  1  0  0  0  0
  3 35  1  1  0  0  0
  4  6  1  0  0  0  0
  5  2  1  0  0  0  0
  6  3  1  0  0  0  0
  8 11  1  0  0  0  0
 10  5  1  6  0  0  0
 11  7  1  0  0  0  0
 12  8  1  0  0  0  0
 13 22  1  6  0  0  0
 13  1  1  0  0  0  0
 13 10  1  0  0  0  0
 14  9  1  0  0  0  0
 14 15  1  1  0  0  0
 14  4  1  0  0  0  0
 16 15  1  1  0  0  0
 17 16  1  0  0  0  0
 17 19  1  1  0  0  0
 18 17  1  0  0  0  0
 18 16  1  0  0  0  0
 20 21  1  0  0  0  0
 21 19  1  0  0  0  0
 23 22  1  0  0  0  0
 24 25  2  0  0  0  0
 25 23  1  0  0  0  0
 26 28  2  0  0  0  0
 27 26  1  0  0  0  0
 28 29  1  0  0  0  0
 28 25  1  0  0  0  0
 31 29  1  6  0  0  0
 31 30  1  0  0  0  0
 32 33  2  0  0  0  0
 32 31  1  0  0  0  0
 33 34  1  0  0  0  0
 34 30  2  0  0  0  0
 35 36  1  0  0  0  0
 37 36  1  0  0  0  0
 38 37  1  0  0  0  0
 39 38  1  0  0  0  0
 39 41  2  0  0  0  0
 40 39  1  0  0  0  0
 44 40  1  0  0  0  0
 44 42  1  0  0  0  0
 44 43  1  1  0  0  0
 45 44  1  0  0  0  0
 46 45  1  0  0  0  0
 47 46  1  0  0  0  0
M  END
>  <MODEL>
7

>  <REMARK>
 VINA RESULT:      -6.6      3.835      8.213
  Name = 
  17 active torsions:
  status: ('A' for Active; 'I' for Inactive)
    1  A    between atoms: N_1  and  C_38
    2  A    between atoms: C_2  and  C_31
    3  A    between atoms: C_4  and  C_14
    4  A    between atoms: C_4  and  C_47
    5  A    between atoms: C_6  and  C_18
    6  A    between atoms: C_6  and  C_41
    7  A    between atoms: C_9  and  C_12
    8  A    between atoms: C_9  and  C_39
    9  A    between atoms: O_15  and  C_32
   10  A    between atoms: C_16  and  C_36
   11  A    between atoms: C_18  and  C_47
   12  A    between atoms: C_31  and  C_46
   13  A    between atoms: C_32  and  C_42
   14  A    between atoms: C_36  and  C_37
   15  A    between atoms: C_38  and  C_40
   16  A    between atoms: C_39  and  C_45
   17  A    between atoms: C_42  and  N_43
                            x       y       z     vdW  Elec       q    Type
                         _______ _______ _______ _____ _____    ______ ____

>  <TORSDO>
F 17

$$$$
=
 OpenBabel11072408373D

 47 50  0  0  1  0  0  0  0  0999 V2000
  189.2260  173.7410  140.9900 C   0  0  1  0  0  3  0  0  0  0  0  0
  190.7340  171.0650  142.3620 N   0  0  0  0  0  2  0  0  0  0  0  0
  191.4000  175.3180  144.6410 C   0  0  2  0  0  3  0  0  0  0  0  0
  190.2420  176.0080  142.5730 C   0  0  0  0  0  2  0  0  0  0  0  0
  190.3350  171.7320  141.1940 N   0  0  0  0  0  2  0  0  0  0  0  0
  190.0390  175.4370  143.9690 C   0  0  0  0  0  2  0  0  0  0  0  0
  191.5950  173.9920  145.3840 C   0  0  0  0  0  2  0  0  0  0  0  0
  191.8930  172.8360  143.2260 N   0  0  0  0  0  2  0  0  0  0  0  0
  188.4410  174.5740  141.7910 O   0  0  0  0  0  0  0  0  0  0  0  0
  189.1200  172.3660  141.5010 N   0  0  2  0  0  0  0  0  0  0  0  0
  191.2790  172.7540  144.5460 C   0  0  0  0  0  2  0  0  0  0  0  0
  192.0160  171.5320  142.7100 N   0  0  0  0  0  2  0  0  0  0  0  0
  188.3830  172.7850  140.2810 C   0  0  2  0  0  3  0  0  0  0  0  0
  189.0000  175.8560  141.6880 C   0  0  1  0  0  3  0  0  0  0  0  0
  187.9650  176.9040  142.0610 C   0  0  0  0  0  2  0  0  0  0  0  0
  186.7040  176.2340  142.6030 C   0  0  1  0  0  3  0  0  0  0  0  0
  186.0940  176.9050  143.8390 C   0  0  2  0  0  3  0  0  0  0  0  0
  185.5270  177.1760  142.4590 C   0  0  0  0  0  2  0  0  0  0  0  0
  186.8400  178.1370  144.3320 C   0  0  0  0  0  2  0  0  0  0  0  0
  185.5710  180.1440  144.2880 O   0  0  0  0  0  1  0  0  0  0  0  0
  185.8870  179.0430  145.0810 C   0  0  0  0  0  2  0  0  0  0  0  0
  189.0350  172.3670  138.9600 C   0  0  0  0  0  2  0  0  0  0  0  0
  189.8270  173.4630  138.4190 N   0  0  0  0  0  2  0  0  0  0  0  0
  191.3020  172.0930  137.2340 O   0  0  0  0  0  0  0  0  0  0  0  0
  190.9510  173.2620  137.5550 C   0  0  0  0  0  0  0  0  0  0  0  0
  191.2910  174.9970  135.9400 N   0  0  0  0  0  0  0  0  0  0  0  0
  191.9560  176.0770  135.4060 O   0  0  0  0  0  1  0  0  0  0  0  0
  191.6910  174.4200  137.0320 C   0  0  0  0  0  0  0  0  0  0  0  0
  192.9180  174.9010  137.7510 C   0  0  0  0  0  2  0  0  0  0  0  0
  195.1160  175.1840  136.7410 N   0  0  0  0  0  2  0  0  0  0  0  0
  194.1640  174.1990  137.2250 C   0  0  1  0  0  3  0  0  0  0  0  0
  194.9240  173.5440  138.3350 C   0  0  0  0  0  2  0  0  0  0  0  0
  196.1170  174.1140  138.3850 C   0  0  0  0  0  3  0  0  0  0  0  0
  196.2040  175.1210  137.3900 N   0  0  0  0  0  0  0  0  0  0  0  0
  191.6770  176.5120  145.5520 C   0  0  0  0  0  2  0  0  0  0  0  0
  192.5620  176.1320  146.7300 C   0  0  0  0  0  2  0  0  0  0  0  0
  193.9440  176.7280  146.5470 C   0  0  0  0  0  2  0  0  0  0  0  0
  194.9310  175.6500  146.1250 C   0  0  0  0  0  2  0  0  0  0  0  0
  195.2020  175.7250  144.6600 C   0  0  0  0  0  0  0  0  0  0  0  0
  194.9750  174.5720  143.8420 N   0  0  0  0  0  2  0  0  0  0  0  0
  195.6570  176.7900  144.1620 O   0  0  0  0  0  0  0  0  0  0  0  0
  196.4580  175.1290  142.1200 O   0  0  0  0  0  1  0  0  0  0  0  0
  194.1280  175.2340  141.6510 C   0  0  0  0  0  1  0  0  0  0  0  0
  195.2350  174.5200  142.4050 C   0  0  2  0  0  0  0  0  0  0  0  0
  195.2710  173.0700  141.9480 C   0  0  0  0  0  2  0  0  0  0  0  0
  196.5850  172.6540  141.7320 O   0  0  0  0  0  0  0  0  0  0  0  0
  196.6730  171.4220  142.3790 C   0  0  0  0  0  1  0  0  0  0  0  0
  1 10  1  0  0  0  0
  1  9  1  1  0  0  0
  2 12  1  0  0  0  0
  3  7  1  0  0  0  0
  3 35  1  1  0  0  0
  4  6  1  0  0  0  0
  5  2  1  0  0  0  0
  6  3  1  0  0  0  0
  8 11  1  0  0  0  0
 10  5  1  6  0  0  0
 11  7  1  0  0  0  0
 12  8  1  0  0  0  0
 13 22  1  6  0  0  0
 13  1  1  0  0  0  0
 13 10  1  0  0  0  0
 14  9  1  0  0  0  0
 14 15  1  1  0  0  0
 14  4  1  0  0  0  0
 16 15  1  6  0  0  0
 16 17  1  0  0  0  0
 17 19  1  6  0  0  0
 18 16  1  0  0  0  0
 18 17  1  0  0  0  0
 19 21  1  0  0  0  0
 20 21  1  0  0  0  0
 23 22  1  0  0  0  0
 24 25  2  0  0  0  0
 25 23  1  0  0  0  0
 26 28  2  0  0  0  0
 27 26  1  0  0  0  0
 28 25  1  0  0  0  0
 28 29  1  0  0  0  0
 30 31  1  0  0  0  0
 30 34  1  0  0  0  0
 31 29  1  1  0  0  0
 31 32  1  0  0  0  0
 32 33  1  0  0  0  0
 34 33  2  0  0  0  0
 35 36  1  0  0  0  0
 37 36  1  0  0  0  0
 38 37  1  0  0  0  0
 39 38  1  0  0  0  0
 40 39  1  0  0  0  0
 41 39  2  0  0  0  0
 42 44  1  0  0  0  0
 44 43  1  6  0  0  0
 44 40  1  0  0  0  0
 45 44  1  0  0  0  0
 46 45  1  0  0  0  0
 46 47  1  0  0  0  0
M  END
>  <MODEL>
8

>  <REMARK>
 VINA RESULT:      -6.5      5.228     10.833
  Name = 
  17 active torsions:
  status: ('A' for Active; 'I' for Inactive)
    1  A    between atoms: N_1  and  C_38
    2  A    between atoms: C_2  and  C_31
    3  A    between atoms: C_4  and  C_14
    4  A    between atoms: C_4  and  C_47
    5  A    between atoms: C_6  and  C_18
    6  A    between atoms: C_6  and  C_41
    7  A    between atoms: C_9  and  C_12
    8  A    between atoms: C_9  and  C_39
    9  A    between atoms: O_15  and  C_32
   10  A    between atoms: C_16  and  C_36
   11  A    between atoms: C_18  and  C_47
   12  A    between atoms: C_31  and  C_46
   13  A    between atoms: C_32  and  C_42
   14  A    between atoms: C_36  and  C_37
   15  A    between atoms: C_38  and  C_40
   16  A    between atoms: C_39  and  C_45
   17  A    between atoms: C_42  and  N_43
                            x       y       z     vdW  Elec       q    Type
                         _______ _______ _______ _____ _____    ______ ____

>  <TORSDO>
F 17

$$$$
=
 OpenBabel11072408373D

 47 50  0  0  1  0  0  0  0  0999 V2000
  192.2940  171.7140  143.7470 C   0  0  1  0  0  3  0  0  0  0  0  0
  195.5980  172.1140  143.2590 N   0  0  0  0  0  2  0  0  0  0  0  0
  192.8710  176.1390  142.9520 C   0  0  2  0  0  3  0  0  0  0  0  0
  191.1660  174.3620  143.1220 C   0  0  0  0  0  2  0  0  0  0  0  0
  194.4620  171.3090  143.0840 N   0  0  0  0  0  2  0  0  0  0  0  0
  192.1280  175.2280  143.9210 C   0  0  0  0  0  2  0  0  0  0  0  0
  194.3740  176.2300  143.2400 C   0  0  0  0  0  2  0  0  0  0  0  0
  194.6840  173.9730  142.2940 N   0  0  0  0  0  2  0  0  0  0  0  0
  191.6280  172.5370  144.6590 O   0  0  0  0  0  0  0  0  0  0  0  0
  193.6680  171.5000  144.2260 N   0  0  2  0  0  0  0  0  0  0  0  0
  195.0680  174.8760  143.3730 C   0  0  0  0  0  2  0  0  0  0  0  0
  195.6810  172.9890  142.1600 N   0  0  0  0  0  2  0  0  0  0  0  0
  192.6350  170.4410  144.3730 C   0  0  2  0  0  3  0  0  0  0  0  0
  190.6170  173.1850  143.9350 C   0  0  1  0  0  3  0  0  0  0  0  0
  189.5320  173.6700  144.8820 C   0  0  0  0  0  2  0  0  0  0  0  0
  190.1550  174.3740  146.0860 C   0  0  1  0  0  3  0  0  0  0  0  0
  189.4940  175.7030  146.4730 C   0  0  2  0  0  3  0  0  0  0  0  0
  189.1510  174.4270  147.2190 C   0  0  0  0  0  2  0  0  0  0  0  0
  188.3160  176.1110  145.5980 C   0  0  0  0  0  2  0  0  0  0  0  0
  186.2540  176.5790  146.6780 O   0  0  0  0  0  1  0  0  0  0  0  0
  187.4780  177.1410  146.3210 C   0  0  0  0  0  2  0  0  0  0  0  0
  192.7030  169.3260  143.3270 C   0  0  0  0  0  2  0  0  0  0  0  0
  191.7490  169.5810  142.2550 N   0  0  0  0  0  2  0  0  0  0  0  0
  193.2750  169.2170  140.5230 O   0  0  0  0  0  0  0  0  0  0  0  0
  192.0960  169.5060  140.8680 C   0  0  0  0  0  0  0  0  0  0  0  0
  190.8200  168.8460  138.9520 N   0  0  0  0  0  0  0  0  0  0  0  0
  189.8800  169.0380  137.9650 O   0  0  0  0  0  1  0  0  0  0  0  0
  191.0730  169.7570  139.8420 C   0  0  0  0  0  0  0  0  0  0  0  0
  190.3560  171.0760  139.8170 C   0  0  0  0  0  2  0  0  0  0  0  0
  191.9400  171.8660  138.1440 N   0  0  0  0  0  2  0  0  0  0  0  0
  191.3010  172.1990  139.4060 C   0  0  1  0  0  3  0  0  0  0  0  0
  190.5430  173.4420  139.0590 C   0  0  0  0  0  2  0  0  0  0  0  0
  190.7910  173.7120  137.7870 C   0  0  0  0  0  3  0  0  0  0  0  0
  191.6550  172.7210  137.2520 N   0  0  0  0  0  0  0  0  0  0  0  0
  192.2320  177.5240  142.8890 C   0  0  0  0  0  2  0  0  0  0  0  0
  191.4070  177.8250  144.1310 C   0  0  0  0  0  2  0  0  0  0  0  0
  190.0110  178.2590  143.7270 C   0  0  0  0  0  2  0  0  0  0  0  0
  189.6800  177.7410  142.3360 C   0  0  0  0  0  2  0  0  0  0  0  0
  188.2250  177.4340  142.2180 C   0  0  0  0  0  0  0  0  0  0  0  0
  187.2680  178.3100  142.8250 N   0  0  0  0  0  2  0  0  0  0  0  0
  187.8530  176.3920  141.6140 O   0  0  0  0  0  0  0  0  0  0  0  0
  185.5280  176.8040  143.2470 O   0  0  0  0  0  1  0  0  0  0  0  0
  185.2950  178.2700  141.3890 C   0  0  0  0  0  1  0  0  0  0  0  0
  185.8240  178.0930  142.8000 C   0  0  2  0  0  0  0  0  0  0  0  0
  185.1420  179.1110  143.7020 C   0  0  0  0  0  2  0  0  0  0  0  0
  183.9710  178.5830  144.2440 O   0  0  0  0  0  0  0  0  0  0  0  0
  184.0310  178.9130  145.5970 C   0  0  0  0  0  1  0  0  0  0  0  0
  1 10  1  0  0  0  0
  1 13  1  0  0  0  0
  1  9  1  1  0  0  0
  3 35  1  1  0  0  0
  3  7  1  0  0  0  0
  3  6  1  0  0  0  0
  4  6  1  0  0  0  0
  4 14  1  0  0  0  0
  5  2  1  0  0  0  0
  7 11  1  0  0  0  0
  8 11  1  0  0  0  0
 10  5  1  6  0  0  0
 10 13  1  0  0  0  0
 12  8  1  0  0  0  0
 12  2  1  0  0  0  0
 13 22  1  6  0  0  0
 14  9  1  0  0  0  0
 14 15  1  1  0  0  0
 16 15  1  6  0  0  0
 16 17  1  0  0  0  0
 16 18  1  0  0  0  0
 17 19  1  6  0  0  0
 17 18  1  0  0  0  0
 19 21  1  0  0  0  0
 21 20  1  0  0  0  0
 23 22  1  0  0  0  0
 24 25  2  0  0  0  0
 25 23  1  0  0  0  0
 26 28  2  0  0  0  0
 27 26  1  0  0  0  0
 28 25  1  0  0  0  0
 29 28  1  0  0  0  0
 30 31  1  0  0  0  0
 31 29  1  6  0  0  0
 32 31  1  0  0  0  0
 33 32  1  0  0  0  0
 34 33  2  0  0  0  0
 34 30  1  0  0  0  0
 35 36  1  0  0  0  0
 37 36  1  0  0  0  0
 38 37  1  0  0  0  0
 39 38  1  0  0  0  0
 39 40  1  0  0  0  0
 41 39  2  0  0  0  0
 44 43  1  6  0  0  0
 44 40  1  0  0  0  0
 44 42  1  0  0  0  0
 44 45  1  0  0  0  0
 45 46  1  0  0  0  0
 46 47  1  0  0  0  0
M  END
>  <MODEL>
9

>  <REMARK>
 VINA RESULT:      -6.5      4.139      8.258
  Name = 
  17 active torsions:
  status: ('A' for Active; 'I' for Inactive)
    1  A    between atoms: N_1  and  C_38
    2  A    between atoms: C_2  and  C_31
    3  A    between atoms: C_4  and  C_14
    4  A    between atoms: C_4  and  C_47
    5  A    between atoms: C_6  and  C_18
    6  A    between atoms: C_6  and  C_41
    7  A    between atoms: C_9  and  C_12
    8  A    between atoms: C_9  and  C_39
    9  A    between atoms: O_15  and  C_32
   10  A    between atoms: C_16  and  C_36
   11  A    between atoms: C_18  and  C_47
   12  A    between atoms: C_31  and  C_46
   13  A    between atoms: C_32  and  C_42
   14  A    between atoms: C_36  and  C_37
   15  A    between atoms: C_38  and  C_40
   16  A    between atoms: C_39  and  C_45
   17  A    between atoms: C_42  and  N_43
                            x       y       z     vdW  Elec       q    Type
                         _______ _______ _______ _____ _____    ______ ____

>  <TORSDO>
F 17

$$$$
