=
 OpenBabel11062420563D

 31 35  0  0  1  0  0  0  0  0999 V2000
  188.2840  176.5130  144.6060 C   0  0  0  0  0  0  0  0  0  0  0  0
  184.3400  178.8500  145.0690 N   0  0  0  0  0  0  0  0  0  0  0  0
  187.8170  175.2760  140.9680 C   0  0  0  0  0  3  0  0  0  0  0  0
  191.1090  173.9230  141.2690 C   0  0  0  0  0  3  0  0  0  0  0  0
  188.3100  175.4800  142.3460 N   0  0  0  0  0  0  0  0  0  0  0  0
  185.5490  179.0410  147.2560 C   0  0  0  0  0  1  0  0  0  0  0  0
  183.6640  178.3030  142.7170 C   0  0  0  0  0  1  0  0  0  0  0  0
  191.6070  174.3160  142.5200 C   0  0  0  0  0  3  0  0  0  0  0  0
  187.7250  176.2700  143.2920 C   0  0  0  0  0  0  0  0  0  0  0  0
  186.4720  176.8440  142.9670 C   0  0  0  0  0  3  0  0  0  0  0  0
  187.5480  177.2770  145.5350 C   0  0  0  0  0  3  0  0  0  0  0  0
  190.6300  175.4500  144.5410 C   0  0  0  0  0  0  0  0  0  0  0  0
  189.5470  176.1440  145.0930 C   0  0  0  0  0  3  0  0  0  0  0  0
  186.3160  177.7940  145.1640 C   0  0  0  0  0  0  0  0  0  0  0  0
  185.4070  178.5660  145.8530 C   0  0  0  0  0  0  0  0  0  0  0  0
  185.8030  177.5960  143.9210 C   0  0  0  0  0  0  0  0  0  0  0  0
  189.4040  174.7300  142.4620 C   0  0  0  0  0  0  0  0  0  0  0  0
  188.8470  174.4790  140.2790 N   0  0  0  0  0  0  0  0  0  0  0  0
  189.7540  174.1650  141.3170 C   0  0  0  0  0  0  0  0  0  0  0  0
  190.5660  174.8640  143.2790 C   0  0  0  0  0  0  0  0  0  0  0  0
  184.5910  178.2490  143.8810 C   0  0  0  0  0  0  0  0  0  0  0  0
  192.9840  176.2220  145.1030 N   0  0  0  0  0  2  0  0  0  0  0  0
  191.8620  175.3740  145.3710 C   0  0  0  0  0  0  0  0  0  0  0  0
  191.9290  174.5390  146.3150 O   0  0  0  0  0  0  0  0  0  0  0  0
  194.2230  176.1560  145.8630 C   0  0  2  0  0  3  0  0  0  0  0  0
  194.5670  177.5410  146.3740 C   0  0  0  0  0  1  0  0  0  0  0  0
  195.3450  175.6430  144.9740 C   0  0  0  0  0  2  0  0  0  0  0  0
  195.1380  176.0700  143.6360 O   0  0  0  0  0  0  0  0  0  0  0  0
  197.1470  177.1660  143.5060 O   0  0  0  0  0  1  0  0  0  0  0  0
  196.0680  176.7900  141.5220 O   0  0  0  0  0  0  0  0  0  0  0  0
  196.1490  176.6900  142.9070 C   0  0  0  0  0  0  0  0  0  0  0  0
  1 13  2  0  0  0  0
  1 11  1  0  0  0  0
  2 15  2  0  0  0  0
  3  5  1  0  0  0  0
  4 19  1  0  0  0  0
  4  8  2  0  0  0  0
  5 17  1  0  0  0  0
  5  9  1  0  0  0  0
  7 21  1  0  0  0  0
  8 20  1  0  0  0  0
  9  1  1  0  0  0  0
 10  9  2  0  0  0  0
 10 16  1  0  0  0  0
 12 13  1  0  0  0  0
 12 23  1  0  0  0  0
 14 11  2  0  0  0  0
 14 15  1  0  0  0  0
 15  6  1  0  0  0  0
 16 14  1  0  0  0  0
 17 20  1  0  0  0  0
 18  3  2  0  0  0  0
 18 19  1  0  0  0  0
 19 17  2  0  0  0  0
 20 12  2  0  0  0  0
 21 16  2  0  0  0  0
 21  2  1  0  0  0  0
 22 23  1  0  0  0  0
 22 25  1  0  0  0  0
 23 24  2  0  0  0  0
 25 26  1  6  0  0  0
 27 25  1  0  0  0  0
 28 27  1  0  0  0  0
 30 31  2  0  0  0  0
 31 29  1  0  0  0  0
 31 28  1  0  0  0  0
M  END
>  <MODEL>
1

>  <REMARK>
 VINA RESULT:      -7.7      0.000      0.000
  Name = 
  5 active torsions:
  status: ('A' for Active; 'I' for Inactive)
    1  A    between atoms: C_2  and  N_6
    2  A    between atoms: C_2  and  C_23
    3  A    between atoms: C_13  and  C_18
    4  A    between atoms: C_23  and  O_31
    5  A    between atoms: C_24  and  O_31
                            x       y       z     vdW  Elec       q    Type
                         _______ _______ _______ _____ _____    ______ ____

>  <TORSDO>
F 5

$$$$
=
 OpenBabel11062420563D

 31 35  0  0  1  0  0  0  0  0999 V2000
  187.6160  176.0160  143.4310 C   0  0  0  0  0  0  0  0  0  0  0  0
  184.3120  178.8510  144.9410 N   0  0  0  0  0  0  0  0  0  0  0  0
  189.8130  175.9160  146.6160 C   0  0  0  0  0  3  0  0  0  0  0  0
  191.8030  173.5190  144.8660 C   0  0  0  0  0  3  0  0  0  0  0  0
  189.3040  175.7640  145.2370 N   0  0  0  0  0  0  0  0  0  0  0  0
  183.7350  178.2730  142.5710 C   0  0  0  0  0  1  0  0  0  0  0  0
  185.4060  179.0320  147.1900 C   0  0  0  0  0  1  0  0  0  0  0  0
  191.1650  173.2620  143.6450 C   0  0  0  0  0  3  0  0  0  0  0  0
  188.1230  176.2580  144.7660 C   0  0  0  0  0  0  0  0  0  0  0  0
  187.3820  177.0940  145.6360 C   0  0  0  0  0  3  0  0  0  0  0  0
  186.4250  176.6500  143.0220 C   0  0  0  0  0  3  0  0  0  0  0  0
  189.2150  174.2700  142.4150 C   0  0  0  0  0  0  0  0  0  0  0  0
  188.1210  175.1410  142.4570 C   0  0  0  0  0  3  0  0  0  0  0  0
  185.7560  177.4750  143.9140 C   0  0  0  0  0  0  0  0  0  0  0  0
  184.5910  178.1990  143.7870 C   0  0  0  0  0  0  0  0  0  0  0  0
  186.2100  177.6790  145.1780 C   0  0  0  0  0  0  0  0  0  0  0  0
  190.2330  175.0780  144.5740 C   0  0  0  0  0  0  0  0  0  0  0  0
  191.0330  175.0920  146.6940 N   0  0  0  0  0  0  0  0  0  0  0  0
  191.2140  174.6630  145.3600 C   0  0  0  0  0  0  0  0  0  0  0  0
  190.1450  174.2020  143.4500 C   0  0  0  0  0  0  0  0  0  0  0  0
  185.3140  178.5260  145.7930 C   0  0  0  0  0  0  0  0  0  0  0  0
  189.6990  173.9630  139.9400 N   0  0  0  0  0  2  0  0  0  0  0  0
  189.3330  173.4090  141.2080 C   0  0  0  0  0  0  0  0  0  0  0  0
  189.0910  172.1730  141.2970 O   0  0  0  0  0  0  0  0  0  0  0  0
  189.7900  173.1670  138.7260 C   0  0  2  0  0  3  0  0  0  0  0  0
  190.9340  173.6830  137.8760 C   0  0  0  0  0  1  0  0  0  0  0  0
  188.4880  173.2650  137.9480 C   0  0  0  0  0  2  0  0  0  0  0  0
  187.8410  174.4960  138.2370 O   0  0  0  0  0  0  0  0  0  0  0  0
  188.0660  175.4450  136.1640 O   0  0  0  0  0  0  0  0  0  0  0  0
  186.2190  176.0660  137.3660 O   0  0  0  0  0  1  0  0  0  0  0  0
  187.3970  175.3390  137.2220 C   0  0  0  0  0  0  0  0  0  0  0  0
  1  9  1  0  0  0  0
  2 21  1  0  0  0  0
  3 18  2  0  0  0  0
  4 19  1  0  0  0  0
  5  3  1  0  0  0  0
  6 15  1  0  0  0  0
  8  4  2  0  0  0  0
  9  5  1  0  0  0  0
  9 10  2  0  0  0  0
 11  1  1  0  0  0  0
 11 14  2  0  0  0  0
 12 13  1  0  0  0  0
 12 20  2  0  0  0  0
 13  1  2  0  0  0  0
 14 16  1  0  0  0  0
 15 14  1  0  0  0  0
 15  2  2  0  0  0  0
 16 10  1  0  0  0  0
 16 21  2  0  0  0  0
 17  5  1  0  0  0  0
 17 19  2  0  0  0  0
 19 18  1  0  0  0  0
 20  8  1  0  0  0  0
 20 17  1  0  0  0  0
 21  7  1  0  0  0  0
 22 23  1  0  0  0  0
 23 24  2  0  0  0  0
 23 12  1  0  0  0  0
 25 26  1  6  0  0  0
 25 22  1  0  0  0  0
 27 28  1  0  0  0  0
 27 25  1  0  0  0  0
 29 31  2  0  0  0  0
 31 30  1  0  0  0  0
 31 28  1  0  0  0  0
M  END
>  <MODEL>
2

>  <REMARK>
 VINA RESULT:      -7.5      3.634      5.886
  Name = 
  5 active torsions:
  status: ('A' for Active; 'I' for Inactive)
    1  A    between atoms: C_2  and  N_6
    2  A    between atoms: C_2  and  C_23
    3  A    between atoms: C_13  and  C_18
    4  A    between atoms: C_23  and  O_31
    5  A    between atoms: C_24  and  O_31
                            x       y       z     vdW  Elec       q    Type
                         _______ _______ _______ _____ _____    ______ ____

>  <TORSDO>
F 5

$$$$
=
 OpenBabel11062420563D

 31 35  0  0  1  0  0  0  0  0999 V2000
  188.3330  176.4390  144.2630 C   0  0  0  0  0  0  0  0  0  0  0  0
  184.4230  178.8230  144.7700 N   0  0  0  0  0  0  0  0  0  0  0  0
  187.7830  175.1580  140.6520 C   0  0  0  0  0  3  0  0  0  0  0  0
  191.0660  173.7730  140.9090 C   0  0  0  0  0  3  0  0  0  0  0  0
  188.3040  175.3750  142.0180 N   0  0  0  0  0  0  0  0  0  0  0  0
  185.6760  179.0310  146.9310 C   0  0  0  0  0  1  0  0  0  0  0  0
  183.6970  178.2520  142.4390 C   0  0  0  0  0  1  0  0  0  0  0  0
  191.5920  174.1780  142.1440 C   0  0  0  0  0  3  0  0  0  0  0  0
  187.7460  176.1840  142.9630 C   0  0  0  0  0  0  0  0  0  0  0  0
  186.4930  176.7660  142.6550 C   0  0  0  0  0  3  0  0  0  0  0  0
  187.6230  177.2220  145.1960 C   0  0  0  0  0  3  0  0  0  0  0  0
  190.6660  175.3500  144.1680 C   0  0  0  0  0  0  0  0  0  0  0  0
  189.6010  176.0620  144.7310 C   0  0  0  0  0  3  0  0  0  0  0  0
  186.3900  177.7480  144.8410 C   0  0  0  0  0  0  0  0  0  0  0  0
  185.5020  178.5390  145.5370 C   0  0  0  0  0  0  0  0  0  0  0  0
  185.8510  177.5390  143.6110 C   0  0  0  0  0  0  0  0  0  0  0  0
  189.3930  174.6150  142.1220 C   0  0  0  0  0  0  0  0  0  0  0  0
  188.7920  174.3400  139.9550 N   0  0  0  0  0  0  0  0  0  0  0  0
  189.7150  174.0300  140.9790 C   0  0  0  0  0  0  0  0  0  0  0  0
  190.5720  174.7480  142.9160 C   0  0  0  0  0  0  0  0  0  0  0  0
  184.6450  178.2040  143.5850 C   0  0  0  0  0  0  0  0  0  0  0  0
  192.9300  176.2730  144.8580 N   0  0  0  0  0  2  0  0  0  0  0  0
  191.9130  175.2720  144.9750 C   0  0  0  0  0  0  0  0  0  0  0  0
  192.0870  174.3010  145.7630 O   0  0  0  0  0  0  0  0  0  0  0  0
  194.1820  176.2170  145.5980 C   0  0  2  0  0  3  0  0  0  0  0  0
  194.0870  177.1300  146.8050 C   0  0  0  0  0  1  0  0  0  0  0  0
  195.3280  176.6640  144.7050 C   0  0  0  0  0  2  0  0  0  0  0  0
  195.6130  175.6590  143.7430 O   0  0  0  0  0  0  0  0  0  0  0  0
  196.9510  174.1080  144.7700 O   0  0  0  0  0  1  0  0  0  0  0  0
  195.0410  173.3090  143.7910 O   0  0  0  0  0  0  0  0  0  0  0  0
  195.9010  174.3510  144.1220 C   0  0  0  0  0  0  0  0  0  0  0  0
  1 13  2  0  0  0  0
  1 11  1  0  0  0  0
  2 15  2  0  0  0  0
  3  5  1  0  0  0  0
  4 19  1  0  0  0  0
  4  8  2  0  0  0  0
  5 17  1  0  0  0  0
  5  9  1  0  0  0  0
  7 21  1  0  0  0  0
  8 20  1  0  0  0  0
  9  1  1  0  0  0  0
 10  9  2  0  0  0  0
 10 16  1  0  0  0  0
 12 13  1  0  0  0  0
 12 23  1  0  0  0  0
 14 11  2  0  0  0  0
 14 15  1  0  0  0  0
 15  6  1  0  0  0  0
 16 14  1  0  0  0  0
 17 20  1  0  0  0  0
 18  3  2  0  0  0  0
 18 19  1  0  0  0  0
 19 17  2  0  0  0  0
 20 12  2  0  0  0  0
 21 16  2  0  0  0  0
 21  2  1  0  0  0  0
 22 23  1  0  0  0  0
 22 25  1  0  0  0  0
 23 24  2  0  0  0  0
 25 26  1  1  0  0  0
 27 25  1  0  0  0  0
 28 31  1  0  0  0  0
 28 27  1  0  0  0  0
 30 31  2  0  0  0  0
 31 29  1  0  0  0  0
M  END
>  <MODEL>
3

>  <REMARK>
 VINA RESULT:      -7.4      0.883      1.160
  Name = 
  5 active torsions:
  status: ('A' for Active; 'I' for Inactive)
    1  A    between atoms: C_2  and  N_6
    2  A    between atoms: C_2  and  C_23
    3  A    between atoms: C_13  and  C_18
    4  A    between atoms: C_23  and  O_31
    5  A    between atoms: C_24  and  O_31
                            x       y       z     vdW  Elec       q    Type
                         _______ _______ _______ _____ _____    ______ ____

>  <TORSDO>
F 5

$$$$
=
 OpenBabel11062420563D

 31 35  0  0  1  0  0  0  0  0999 V2000
  188.9640  177.0230  143.4020 C   0  0  0  0  0  0  0  0  0  0  0  0
  184.7090  178.7850  143.2760 N   0  0  0  0  0  0  0  0  0  0  0  0
  189.5690  177.2040  147.2210 C   0  0  0  0  0  3  0  0  0  0  0  0
  192.6670  175.5530  146.5570 C   0  0  0  0  0  3  0  0  0  0  0  0
  189.7430  177.0500  145.7610 N   0  0  0  0  0  0  0  0  0  0  0  0
  185.3510  178.2910  140.9050 C   0  0  0  0  0  1  0  0  0  0  0  0
  184.6700  179.0390  145.7700 C   0  0  0  0  0  1  0  0  0  0  0  0
  192.6910  175.2510  145.1880 C   0  0  0  0  0  3  0  0  0  0  0  0
  188.7820  177.2670  144.8180 C   0  0  0  0  0  0  0  0  0  0  0  0
  187.5520  177.8090  145.2640 C   0  0  0  0  0  3  0  0  0  0  0  0
  187.9320  177.3690  142.5060 C   0  0  0  0  0  3  0  0  0  0  0  0
  191.2430  175.8350  143.2160 C   0  0  0  0  0  0  0  0  0  0  0  0
  190.0430  176.3940  142.7620 C   0  0  0  0  0  3  0  0  0  0  0  0
  186.7580  177.9160  143.0030 C   0  0  0  0  0  0  0  0  0  0  0  0
  185.6060  178.3290  142.3700 C   0  0  0  0  0  0  0  0  0  0  0  0
  186.5700  178.1160  144.3340 C   0  0  0  0  0  0  0  0  0  0  0  0
  191.0100  176.6820  145.5770 C   0  0  0  0  0  0  0  0  0  0  0  0
  190.8150  176.7120  147.8350 N   0  0  0  0  0  0  0  0  0  0  0  0
  191.6440  176.4610  146.7180 C   0  0  0  0  0  0  0  0  0  0  0  0
  191.6370  175.9150  144.5500 C   0  0  0  0  0  0  0  0  0  0  0  0
  185.3090  178.6510  144.4830 C   0  0  0  0  0  0  0  0  0  0  0  0
  193.4510  175.5020  142.0050 N   0  0  0  0  0  2  0  0  0  0  0  0
  192.0790  175.1420  142.2000 C   0  0  0  0  0  0  0  0  0  0  0  0
  191.5700  174.2340  141.4860 O   0  0  0  0  0  0  0  0  0  0  0  0
  194.2960  174.8770  140.9980 C   0  0  2  0  0  3  0  0  0  0  0  0
  194.8700  173.5910  141.5580 C   0  0  0  0  0  1  0  0  0  0  0  0
  195.4250  175.8200  140.6160 C   0  0  0  0  0  2  0  0  0  0  0  0
  195.6130  176.7890  141.6370 O   0  0  0  0  0  0  0  0  0  0  0  0
  197.6720  176.0390  142.3100 O   0  0  0  0  0  0  0  0  0  0  0  0
  196.4430  177.1670  143.8790 O   0  0  0  0  0  1  0  0  0  0  0  0
  196.6090  176.6460  142.5990 C   0  0  0  0  0  0  0  0  0  0  0  0
  1  9  1  0  0  0  0
  2 21  1  0  0  0  0
  3 18  2  0  0  0  0
  4 19  1  0  0  0  0
  5  3  1  0  0  0  0
  6 15  1  0  0  0  0
  8  4  2  0  0  0  0
  9 10  2  0  0  0  0
  9  5  1  0  0  0  0
 11 14  2  0  0  0  0
 11  1  1  0  0  0  0
 12 20  2  0  0  0  0
 13 12  1  0  0  0  0
 13  1  2  0  0  0  0
 14 16  1  0  0  0  0
 15 14  1  0  0  0  0
 15  2  2  0  0  0  0
 16 21  2  0  0  0  0
 16 10  1  0  0  0  0
 17  5  1  0  0  0  0
 17 19  2  0  0  0  0
 19 18  1  0  0  0  0
 20  8  1  0  0  0  0
 20 17  1  0  0  0  0
 21  7  1  0  0  0  0
 22 23  1  0  0  0  0
 23 12  1  0  0  0  0
 24 23  2  0  0  0  0
 25 26  1  1  0  0  0
 25 22  1  0  0  0  0
 27 25  1  0  0  0  0
 27 28  1  0  0  0  0
 28 31  1  0  0  0  0
 29 31  2  0  0  0  0
 31 30  1  0  0  0  0
M  END
>  <MODEL>
4

>  <REMARK>
 VINA RESULT:      -7.3      2.144      3.914
  Name = 
  5 active torsions:
  status: ('A' for Active; 'I' for Inactive)
    1  A    between atoms: C_2  and  N_6
    2  A    between atoms: C_2  and  C_23
    3  A    between atoms: C_13  and  C_18
    4  A    between atoms: C_23  and  O_31
    5  A    between atoms: C_24  and  O_31
                            x       y       z     vdW  Elec       q    Type
                         _______ _______ _______ _____ _____    ______ ____

>  <TORSDO>
F 5

$$$$
=
 OpenBabel11062420563D

 31 35  0  0  1  0  0  0  0  0999 V2000
  188.4520  176.0070  143.9620 C   0  0  0  0  0  0  0  0  0  0  0  0
  184.9080  178.7010  145.1500 N   0  0  0  0  0  0  0  0  0  0  0  0
  190.5340  176.2980  147.2120 C   0  0  0  0  0  3  0  0  0  0  0  0
  192.7470  173.9280  145.7100 C   0  0  0  0  0  3  0  0  0  0  0  0
  190.0860  176.0090  145.8330 N   0  0  0  0  0  0  0  0  0  0  0  0
  184.4580  177.9120  142.8140 C   0  0  0  0  0  1  0  0  0  0  0  0
  185.9040  179.1230  147.4120 C   0  0  0  0  0  1  0  0  0  0  0  0
  192.1730  173.5380  144.4920 C   0  0  0  0  0  3  0  0  0  0  0  0
  188.8920  176.3810  145.2890 C   0  0  0  0  0  0  0  0  0  0  0  0
  188.0640  177.2240  146.0700 C   0  0  0  0  0  3  0  0  0  0  0  0
  187.2360  176.5230  143.4690 C   0  0  0  0  0  3  0  0  0  0  0  0
  190.2040  174.3110  143.1300 C   0  0  0  0  0  0  0  0  0  0  0  0
  189.0510  175.1020  143.0720 C   0  0  0  0  0  3  0  0  0  0  0  0
  186.4790  177.3610  144.2750 C   0  0  0  0  0  0  0  0  0  0  0  0
  185.2720  177.9880  144.0580 C   0  0  0  0  0  0  0  0  0  0  0  0
  186.8720  177.6890  145.5340 C   0  0  0  0  0  0  0  0  0  0  0  0
  191.0840  175.3450  145.2520 C   0  0  0  0  0  0  0  0  0  0  0  0
  191.8040  175.5710  147.3890 N   0  0  0  0  0  0  0  0  0  0  0  0
  192.0620  175.0590  146.0970 C   0  0  0  0  0  0  0  0  0  0  0  0
  191.0980  174.3860  144.1950 C   0  0  0  0  0  0  0  0  0  0  0  0
  185.8980  178.5110  146.0550 C   0  0  0  0  0  0  0  0  0  0  0  0
  191.2060  173.7630  140.8610 N   0  0  0  0  0  2  0  0  0  0  0  0
  190.4240  173.3740  141.9960 C   0  0  0  0  0  0  0  0  0  0  0  0
  189.9020  172.2250  142.0230 O   0  0  0  0  0  0  0  0  0  0  0  0
  191.4170  172.8950  139.7120 C   0  0  2  0  0  3  0  0  0  0  0  0
  192.9020  172.6380  139.5490 C   0  0  0  0  0  1  0  0  0  0  0  0
  190.8700  173.5580  138.4590 C   0  0  0  0  0  2  0  0  0  0  0  0
  189.6640  172.9220  138.0600 O   0  0  0  0  0  0  0  0  0  0  0  0
  187.8190  172.6790  139.3970 O   0  0  0  0  0  1  0  0  0  0  0  0
  187.8520  174.5250  138.0430 O   0  0  0  0  0  0  0  0  0  0  0  0
  188.4260  173.3540  138.5280 C   0  0  0  0  0  0  0  0  0  0  0  0
  1  9  1  0  0  0  0
  2 21  1  0  0  0  0
  3 18  2  0  0  0  0
  4 19  1  0  0  0  0
  5  3  1  0  0  0  0
  6 15  1  0  0  0  0
  8  4  2  0  0  0  0
  9  5  1  0  0  0  0
  9 10  2  0  0  0  0
 11  1  1  0  0  0  0
 11 14  2  0  0  0  0
 12 20  2  0  0  0  0
 13 12  1  0  0  0  0
 13  1  2  0  0  0  0
 14 16  1  0  0  0  0
 15 14  1  0  0  0  0
 15  2  2  0  0  0  0
 16 21  2  0  0  0  0
 16 10  1  0  0  0  0
 17  5  1  0  0  0  0
 17 19  2  0  0  0  0
 19 18  1  0  0  0  0
 20  8  1  0  0  0  0
 20 17  1  0  0  0  0
 21  7  1  0  0  0  0
 22 23  1  0  0  0  0
 23 24  2  0  0  0  0
 23 12  1  0  0  0  0
 25 26  1  6  0  0  0
 25 22  1  0  0  0  0
 27 25  1  0  0  0  0
 28 27  1  0  0  0  0
 28 31  1  0  0  0  0
 30 31  2  0  0  0  0
 31 29  1  0  0  0  0
M  END
>  <MODEL>
5

>  <REMARK>
 VINA RESULT:      -7.2      3.231      5.472
  Name = 
  5 active torsions:
  status: ('A' for Active; 'I' for Inactive)
    1  A    between atoms: C_2  and  N_6
    2  A    between atoms: C_2  and  C_23
    3  A    between atoms: C_13  and  C_18
    4  A    between atoms: C_23  and  O_31
    5  A    between atoms: C_24  and  O_31
                            x       y       z     vdW  Elec       q    Type
                         _______ _______ _______ _____ _____    ______ ____

>  <TORSDO>
F 5

$$$$
=
 OpenBabel11062420563D

 31 35  0  0  1  0  0  0  0  0999 V2000
  187.6750  176.3060  142.8890 C   0  0  0  0  0  0  0  0  0  0  0  0
  183.7520  178.6460  143.4920 N   0  0  0  0  0  0  0  0  0  0  0  0
  188.7810  176.0370  146.5890 C   0  0  0  0  0  3  0  0  0  0  0  0
  191.4850  174.0420  145.3760 C   0  0  0  0  0  3  0  0  0  0  0  0
  188.7420  175.9990  145.1110 N   0  0  0  0  0  0  0  0  0  0  0  0
  184.0060  178.2950  141.0240 C   0  0  0  0  0  1  0  0  0  0  0  0
  184.0700  178.6640  145.9800 C   0  0  0  0  0  1  0  0  0  0  0  0
  191.2900  173.8720  143.9980 C   0  0  0  0  0  3  0  0  0  0  0  0
  187.7140  176.4370  144.3310 C   0  0  0  0  0  0  0  0  0  0  0  0
  186.6460  177.1000  144.9840 C   0  0  0  0  0  3  0  0  0  0  0  0
  186.6010  176.8750  142.1750 C   0  0  0  0  0  3  0  0  0  0  0  0
  189.7070  174.8370  142.2970 C   0  0  0  0  0  0  0  0  0  0  0  0
  188.5570  175.5970  142.0590 C   0  0  0  0  0  3  0  0  0  0  0  0
  185.5960  177.5300  142.8710 C   0  0  0  0  0  0  0  0  0  0  0  0
  184.4480  178.1580  142.4380 C   0  0  0  0  0  0  0  0  0  0  0  0
  185.6110  177.6270  144.2260 C   0  0  0  0  0  0  0  0  0  0  0  0
  189.9060  175.4790  144.7250 C   0  0  0  0  0  0  0  0  0  0  0  0
  190.0070  175.3210  146.9830 N   0  0  0  0  0  0  0  0  0  0  0  0
  190.6400  175.0650  145.7460 C   0  0  0  0  0  0  0  0  0  0  0  0
  190.2740  174.7340  143.5650 C   0  0  0  0  0  0  0  0  0  0  0  0
  184.4740  178.3150  144.5900 C   0  0  0  0  0  0  0  0  0  0  0  0
  189.4670  173.3920  140.2220 N   0  0  0  0  0  2  0  0  0  0  0  0
  190.2930  174.1330  141.1250 C   0  0  0  0  0  0  0  0  0  0  0  0
  191.5400  174.1760  140.9310 O   0  0  0  0  0  0  0  0  0  0  0  0
  190.0010  172.6570  139.0840 C   0  0  2  0  0  3  0  0  0  0  0  0
  189.1570  172.9530  137.8610 C   0  0  0  0  0  1  0  0  0  0  0  0
  189.9760  171.1660  139.3770 C   0  0  0  0  0  2  0  0  0  0  0  0
  191.0820  170.8130  140.1960 O   0  0  0  0  0  0  0  0  0  0  0  0
  191.5020  169.2230  141.7910 O   0  0  0  0  0  0  0  0  0  0  0  0
  190.0630  170.9000  142.3890 O   0  0  0  0  0  1  0  0  0  0  0  0
  190.9010  170.2790  141.4690 C   0  0  0  0  0  0  0  0  0  0  0  0
  1  9  1  0  0  0  0
  2 21  1  0  0  0  0
  3 18  2  0  0  0  0
  4 19  1  0  0  0  0
  5  3  1  0  0  0  0
  6 15  1  0  0  0  0
  8  4  2  0  0  0  0
  9 10  2  0  0  0  0
  9  5  1  0  0  0  0
 11 14  2  0  0  0  0
 11  1  1  0  0  0  0
 12 20  2  0  0  0  0
 13 12  1  0  0  0  0
 13  1  2  0  0  0  0
 14 16  1  0  0  0  0
 15 14  1  0  0  0  0
 15  2  2  0  0  0  0
 16 21  2  0  0  0  0
 16 10  1  0  0  0  0
 17  5  1  0  0  0  0
 17 19  2  0  0  0  0
 19 18  1  0  0  0  0
 20  8  1  0  0  0  0
 20 17  1  0  0  0  0
 21  7  1  0  0  0  0
 22 23  1  0  0  0  0
 23 12  1  0  0  0  0
 24 23  2  0  0  0  0
 25 26  1  6  0  0  0
 25 27  1  0  0  0  0
 25 22  1  0  0  0  0
 27 28  1  0  0  0  0
 28 31  1  0  0  0  0
 31 29  2  0  0  0  0
 31 30  1  0  0  0  0
M  END
>  <MODEL>
6

>  <REMARK>
 VINA RESULT:      -7.1      2.879      5.442
  Name = 
  5 active torsions:
  status: ('A' for Active; 'I' for Inactive)
    1  A    between atoms: C_2  and  N_6
    2  A    between atoms: C_2  and  C_23
    3  A    between atoms: C_13  and  C_18
    4  A    between atoms: C_23  and  O_31
    5  A    between atoms: C_24  and  O_31
                            x       y       z     vdW  Elec       q    Type
                         _______ _______ _______ _____ _____    ______ ____

>  <TORSDO>
F 5

$$$$
=
 OpenBabel11062420563D

 31 35  0  0  1  0  0  0  0  0999 V2000
  189.0560  177.0340  143.4060 C   0  0  0  0  0  0  0  0  0  0  0  0
  184.7930  178.7790  143.3180 N   0  0  0  0  0  0  0  0  0  0  0  0
  189.6910  177.2120  147.2200 C   0  0  0  0  0  3  0  0  0  0  0  0
  192.7900  175.5740  146.5290 C   0  0  0  0  0  3  0  0  0  0  0  0
  189.8540  177.0600  145.7590 N   0  0  0  0  0  0  0  0  0  0  0  0
  185.4180  178.2910  140.9410 C   0  0  0  0  0  1  0  0  0  0  0  0
  184.7740  179.0290  145.8130 C   0  0  0  0  0  1  0  0  0  0  0  0
  192.8050  175.2750  145.1590 C   0  0  0  0  0  3  0  0  0  0  0  0
  188.8850  177.2760  144.8240 C   0  0  0  0  0  0  0  0  0  0  0  0
  187.6560  177.8120  145.2810 C   0  0  0  0  0  3  0  0  0  0  0  0
  188.0150  177.3770  142.5190 C   0  0  0  0  0  3  0  0  0  0  0  0
  191.3380  175.8560  143.2000 C   0  0  0  0  0  0  0  0  0  0  0  0
  190.1320  176.4110  142.7570 C   0  0  0  0  0  3  0  0  0  0  0  0
  186.8430  177.9190  143.0270 C   0  0  0  0  0  0  0  0  0  0  0  0
  185.6850  178.3280  142.4040 C   0  0  0  0  0  0  0  0  0  0  0  0
  186.6650  178.1160  144.3590 C   0  0  0  0  0  0  0  0  0  0  0  0
  191.1210  176.6980  145.5640 C   0  0  0  0  0  0  0  0  0  0  0  0
  190.9450  176.7250  147.8230 N   0  0  0  0  0  0  0  0  0  0  0  0
  191.7650  176.4790  146.6990 C   0  0  0  0  0  0  0  0  0  0  0  0
  191.7420  175.9360  144.5300 C   0  0  0  0  0  0  0  0  0  0  0  0
  185.4030  178.6450  144.5200 C   0  0  0  0  0  0  0  0  0  0  0  0
  191.7100  173.9700  141.5390 N   0  0  0  0  0  2  0  0  0  0  0  0
  192.1680  175.1670  142.1760 C   0  0  0  0  0  0  0  0  0  0  0  0
  193.3020  175.6340  141.8750 O   0  0  0  0  0  0  0  0  0  0  0  0
  192.5050  173.2410  140.5610 C   0  0  2  0  0  3  0  0  0  0  0  0
  191.7660  173.2200  139.2380 C   0  0  0  0  0  1  0  0  0  0  0  0
  192.7370  171.8190  141.0430 C   0  0  0  0  0  2  0  0  0  0  0  0
  191.6530  170.9900  140.6490 O   0  0  0  0  0  0  0  0  0  0  0  0
  190.8180  169.1430  141.7190 O   0  0  0  0  0  0  0  0  0  0  0  0
  189.9770  171.1660  142.3850 O   0  0  0  0  0  1  0  0  0  0  0  0
  190.8160  170.3940  141.5880 C   0  0  0  0  0  0  0  0  0  0  0  0
  1  9  1  0  0  0  0
  2 21  1  0  0  0  0
  3 18  2  0  0  0  0
  4 19  1  0  0  0  0
  5  3  1  0  0  0  0
  6 15  1  0  0  0  0
  8  4  2  0  0  0  0
  9 10  2  0  0  0  0
  9  5  1  0  0  0  0
 11 14  2  0  0  0  0
 11  1  1  0  0  0  0
 12 20  2  0  0  0  0
 13 12  1  0  0  0  0
 13  1  2  0  0  0  0
 14 16  1  0  0  0  0
 15 14  1  0  0  0  0
 15  2  2  0  0  0  0
 16 21  2  0  0  0  0
 16 10  1  0  0  0  0
 17  5  1  0  0  0  0
 17 19  2  0  0  0  0
 19 18  1  0  0  0  0
 20  8  1  0  0  0  0
 20 17  1  0  0  0  0
 21  7  1  0  0  0  0
 22 23  1  0  0  0  0
 23 12  1  0  0  0  0
 24 23  2  0  0  0  0
 25 26  1  6  0  0  0
 25 27  1  0  0  0  0
 25 22  1  0  0  0  0
 28 27  1  0  0  0  0
 28 31  1  0  0  0  0
 31 29  2  0  0  0  0
 31 30  1  0  0  0  0
M  END
>  <MODEL>
7

>  <REMARK>
 VINA RESULT:      -7.1      2.764      5.198
  Name = 
  5 active torsions:
  status: ('A' for Active; 'I' for Inactive)
    1  A    between atoms: C_2  and  N_6
    2  A    between atoms: C_2  and  C_23
    3  A    between atoms: C_13  and  C_18
    4  A    between atoms: C_23  and  O_31
    5  A    between atoms: C_24  and  O_31
                            x       y       z     vdW  Elec       q    Type
                         _______ _______ _______ _____ _____    ______ ____

>  <TORSDO>
F 5

$$$$
=
 OpenBabel11062420563D

 31 35  0  0  1  0  0  0  0  0999 V2000
  191.5130  175.3050  143.0420 C   0  0  0  0  0  0  0  0  0  0  0  0
  195.9210  175.1370  141.7110 N   0  0  0  0  0  0  0  0  0  0  0  0
  192.0510  175.3300  146.8750 C   0  0  0  0  0  3  0  0  0  0  0  0
  188.5070  175.7150  147.1190 C   0  0  0  0  0  3  0  0  0  0  0  0
  191.4530  175.2580  145.5250 N   0  0  0  0  0  0  0  0  0  0  0  0
  194.5390  175.1220  139.6200 C   0  0  0  0  0  1  0  0  0  0  0  0
  196.7080  175.1780  144.0910 C   0  0  0  0  0  1  0  0  0  0  0  0
  188.0130  175.8420  145.8130 C   0  0  0  0  0  3  0  0  0  0  0  0
  192.1390  175.2910  144.3470 C   0  0  0  0  0  0  0  0  0  0  0  0
  193.5530  175.2630  144.4250 C   0  0  0  0  0  3  0  0  0  0  0  0
  192.3230  175.2490  141.8890 C   0  0  0  0  0  3  0  0  0  0  0  0
  188.9960  175.5950  143.5110 C   0  0  0  0  0  0  0  0  0  0  0  0
  190.1510  175.4460  142.7350 C   0  0  0  0  0  3  0  0  0  0  0  0
  193.7020  175.2020  142.0320 C   0  0  0  0  0  0  0  0  0  0  0  0
  194.7130  175.1520  141.0980 C   0  0  0  0  0  0  0  0  0  0  0  0
  194.2960  175.2210  143.2540 C   0  0  0  0  0  0  0  0  0  0  0  0
  190.1390  175.1380  145.7100 C   0  0  0  0  0  0  0  0  0  0  0  0
  190.9220  175.4170  147.8180 N   0  0  0  0  0  0  0  0  0  0  0  0
  189.7950  175.2430  146.9840 C   0  0  0  0  0  0  0  0  0  0  0  0
  189.0270  175.5250  144.9020 C   0  0  0  0  0  0  0  0  0  0  0  0
  195.6560  175.1800  143.0390 C   0  0  0  0  0  0  0  0  0  0  0  0
  187.2230  177.1700  142.6010 N   0  0  0  0  0  2  0  0  0  0  0  0
  187.7280  175.8410  142.7750 C   0  0  0  0  0  0  0  0  0  0  0  0
  187.0760  174.8650  142.3110 O   0  0  0  0  0  0  0  0  0  0  0  0
  185.9680  177.4550  141.9210 C   0  0  2  0  0  3  0  0  0  0  0  0
  186.2560  177.8300  140.4810 C   0  0  0  0  0  1  0  0  0  0  0  0
  185.2540  178.6020  142.6180 C   0  0  0  0  0  2  0  0  0  0  0  0
  184.5710  178.1220  143.7660 O   0  0  0  0  0  0  0  0  0  0  0  0
  185.7300  179.4810  145.2020 O   0  0  0  0  0  0  0  0  0  0  0  0
  183.9020  178.4120  146.0740 O   0  0  0  0  0  1  0  0  0  0  0  0
  184.7650  178.6960  145.0190 C   0  0  0  0  0  0  0  0  0  0  0  0
  1  9  1  0  0  0  0
  2 21  1  0  0  0  0
  3 18  2  0  0  0  0
  5 17  1  0  0  0  0
  5  3  1  0  0  0  0
  6 15  1  0  0  0  0
  8  4  2  0  0  0  0
  9 10  2  0  0  0  0
  9  5  1  0  0  0  0
 11 14  2  0  0  0  0
 11  1  1  0  0  0  0
 12 20  2  0  0  0  0
 13  1  2  0  0  0  0
 13 12  1  0  0  0  0
 14 16  1  0  0  0  0
 15  2  2  0  0  0  0
 15 14  1  0  0  0  0
 16 10  1  0  0  0  0
 17 19  2  0  0  0  0
 19  4  1  0  0  0  0
 19 18  1  0  0  0  0
 20 17  1  0  0  0  0
 20  8  1  0  0  0  0
 21 16  2  0  0  0  0
 21  7  1  0  0  0  0
 22 23  1  0  0  0  0
 23 12  1  0  0  0  0
 24 23  2  0  0  0  0
 25 26  1  6  0  0  0
 25 22  1  0  0  0  0
 25 27  1  0  0  0  0
 27 28  1  0  0  0  0
 28 31  1  0  0  0  0
 31 29  2  0  0  0  0
 31 30  1  0  0  0  0
M  END
>  <MODEL>
8

>  <REMARK>
 VINA RESULT:      -7.1      3.597      8.553
  Name = 
  5 active torsions:
  status: ('A' for Active; 'I' for Inactive)
    1  A    between atoms: C_2  and  N_6
    2  A    between atoms: C_2  and  C_23
    3  A    between atoms: C_13  and  C_18
    4  A    between atoms: C_23  and  O_31
    5  A    between atoms: C_24  and  O_31
                            x       y       z     vdW  Elec       q    Type
                         _______ _______ _______ _____ _____    ______ ____

>  <TORSDO>
F 5

$$$$
=
 OpenBabel11062420563D

 31 35  0  0  1  0  0  0  0  0999 V2000
  189.6560  174.5040  142.9850 C   0  0  0  0  0  0  0  0  0  0  0  0
  190.4470  171.7840  139.3510 N   0  0  0  0  0  0  0  0  0  0  0  0
  192.9220  173.8320  144.9510 C   0  0  0  0  0  3  0  0  0  0  0  0
  191.7450  176.2930  147.2590 C   0  0  0  0  0  3  0  0  0  0  0  0
  191.5670  174.2720  144.5560 N   0  0  0  0  0  0  0  0  0  0  0  0
  188.1920  172.8200  138.9960 C   0  0  0  0  0  1  0  0  0  0  0  0
  192.6830  171.1080  140.2630 C   0  0  0  0  0  1  0  0  0  0  0  0
  190.5560  176.8200  146.7340 C   0  0  0  0  0  3  0  0  0  0  0  0
  190.9510  173.9850  143.3730 C   0  0  0  0  0  0  0  0  0  0  0  0
  191.6130  173.0860  142.5030 C   0  0  0  0  0  3  0  0  0  0  0  0
  189.0750  174.0700  141.7760 C   0  0  0  0  0  3  0  0  0  0  0  0
  189.0610  176.2370  144.7970 C   0  0  0  0  0  0  0  0  0  0  0  0
  188.8850  175.4820  143.6320 C   0  0  0  0  0  3  0  0  0  0  0  0
  189.7650  173.1710  140.9770 C   0  0  0  0  0  0  0  0  0  0  0  0
  189.4460  172.5970  139.7660 C   0  0  0  0  0  0  0  0  0  0  0  0
  190.9950  172.7060  141.3210 C   0  0  0  0  0  0  0  0  0  0  0  0
  191.0900  174.9700  145.5850 C   0  0  0  0  0  0  0  0  0  0  0  0
  193.2130  174.5070  146.2290 N   0  0  0  0  0  0  0  0  0  0  0  0
  191.9900  175.1440  146.5400 C   0  0  0  0  0  0  0  0  0  0  0  0
  190.1400  176.0320  145.6530 C   0  0  0  0  0  0  0  0  0  0  0  0
  191.3970  171.8570  140.3140 C   0  0  0  0  0  0  0  0  0  0  0  0
  187.2140  177.2120  146.2430 N   0  0  0  0  0  2  0  0  0  0  0  0
  188.0370  177.2800  145.0740 C   0  0  0  0  0  0  0  0  0  0  0  0
  187.8780  178.2310  144.2590 O   0  0  0  0  0  0  0  0  0  0  0  0
  186.1740  178.1880  146.5350 C   0  0  2  0  0  3  0  0  0  0  0  0
  186.1870  178.4980  148.0190 C   0  0  0  0  0  1  0  0  0  0  0  0
  184.8180  177.6300  146.1380 C   0  0  0  0  0  2  0  0  0  0  0  0
  184.0810  178.6090  145.4220 O   0  0  0  0  0  0  0  0  0  0  0  0
  184.0710  178.2760  143.1540 O   0  0  0  0  0  0  0  0  0  0  0  0
  185.1890  180.1300  143.9000 O   0  0  0  0  0  1  0  0  0  0  0  0
  184.4350  178.9830  144.1280 C   0  0  0  0  0  0  0  0  0  0  0  0
  1  9  1  0  0  0  0
  1 13  2  0  0  0  0
  2 15  2  0  0  0  0
  2 21  1  0  0  0  0
  3 18  2  0  0  0  0
  5  3  1  0  0  0  0
  5 17  1  0  0  0  0
  6 15  1  0  0  0  0
  7 21  1  0  0  0  0
  8  4  2  0  0  0  0
  9  5  1  0  0  0  0
 10  9  2  0  0  0  0
 11  1  1  0  0  0  0
 12 23  1  0  0  0  0
 12 20  2  0  0  0  0
 13 12  1  0  0  0  0
 14 16  1  0  0  0  0
 14 11  2  0  0  0  0
 15 14  1  0  0  0  0
 16 10  1  0  0  0  0
 17 20  1  0  0  0  0
 17 19  2  0  0  0  0
 18 19  1  0  0  0  0
 19  4  1  0  0  0  0
 20  8  1  0  0  0  0
 21 16  2  0  0  0  0
 22 25  1  0  0  0  0
 23 22  1  0  0  0  0
 24 23  2  0  0  0  0
 25 26  1  1  0  0  0
 27 25  1  0  0  0  0
 28 27  1  0  0  0  0
 29 31  2  0  0  0  0
 30 31  1  0  0  0  0
 31 28  1  0  0  0  0
M  END
>  <MODEL>
9

>  <REMARK>
 VINA RESULT:      -7.1      3.514      7.900
  Name = 
  5 active torsions:
  status: ('A' for Active; 'I' for Inactive)
    1  A    between atoms: C_2  and  N_6
    2  A    between atoms: C_2  and  C_23
    3  A    between atoms: C_13  and  C_18
    4  A    between atoms: C_23  and  O_31
    5  A    between atoms: C_24  and  O_31
                            x       y       z     vdW  Elec       q    Type
                         _______ _______ _______ _____ _____    ______ ____

>  <TORSDO>
F 5

$$$$
