=
 OpenBabel11062419453D

 30 33  0  0  1  0  0  0  0  0999 V2000
  186.9580  177.9550  147.0300 C   0  0  0  0  0  2  0  0  0  0  0  0
  184.7350  178.3350  146.0810 C   0  0  0  0  0  2  0  0  0  0  0  0
  184.1780  178.6880  144.7270 C   0  0  0  0  0  3  0  0  0  0  0  0
  185.4880  176.8300  143.7810 C   0  0  0  0  0  2  0  0  0  0  0  0
  186.6550  177.1870  144.7140 C   0  0  2  0  0  3  0  0  0  0  0  0
  184.5300  177.9820  143.6440 C   0  0  0  0  0  0  0  0  0  0  0  0
  186.1690  177.8910  145.9620 C   0  0  0  0  0  0  0  0  0  0  0  0
  187.5690  178.0010  144.0380 O   0  0  0  0  0  0  0  0  0  0  0  0
  189.5110  176.6540  144.4640 C   0  0  2  0  0  3  0  0  0  0  0  0
  188.4760  177.1160  143.4460 C   0  0  2  0  0  3  0  0  0  0  0  0
  189.5420  177.8870  142.7000 C   0  0  0  0  0  2  0  0  0  0  0  0
  190.2170  177.7740  145.1940 C   0  0  0  0  0  2  0  0  0  0  0  0
  190.5640  177.4990  143.7480 C   0  0  1  0  0  0  0  0  0  0  0  0
  191.6230  175.8810  142.3560 O   0  0  0  0  0  0  0  0  0  0  0  0
  191.7010  176.5950  143.3910 C   0  0  0  0  0  0  0  0  0  0  0  0
  192.8330  176.5430  144.2090 O   0  0  0  0  0  0  0  0  0  0  0  0
  193.2970  175.3240  144.7690 C   0  0  0  0  0  2  0  0  0  0  0  0
  192.7100  175.1490  146.1540 C   0  0  0  0  0  1  0  0  0  0  0  0
  183.9850  178.3450  142.3070 C   0  0  0  0  0  2  0  0  0  0  0  0
  182.5680  178.4140  142.3740 O   0  0  0  0  0  0  0  0  0  0  0  0
  181.7770  178.4580  141.2250 C   0  0  0  0  0  0  0  0  0  0  0  0
  182.1550  177.9010  140.1590 O   0  0  0  0  0  0  0  0  0  0  0  0
  180.4730  179.1860  141.2490 C   0  0  2  0  0  3  0  0  0  0  0  0
  178.9290  178.2480  142.9070 N   0  0  0  0  0  0  0  0  0  0  0  0
  179.3740  178.2750  141.6960 C   0  0  0  0  0  0  0  0  0  0  0  0
  178.6830  177.4150  140.8070 N   0  0  0  0  0  0  0  0  0  0  0  0
  177.8420  177.2830  142.9370 C   0  0  0  0  0  2  0  0  0  0  0  0
  177.7820  176.8240  141.5170 C   0  0  0  0  0  3  0  0  0  0  0  0
  179.6390  180.9690  140.2310 C   0  0  0  0  0  1  0  0  0  0  0  0
  180.1910  179.7100  139.9840 O   0  0  0  0  0  0  0  0  0  0  0  0
  3  2  1  0  0  0  0
  4  5  1  0  0  0  0
  5  8  1  6  0  0  0
  5  7  1  0  0  0  0
  6  4  1  0  0  0  0
  6  3  2  0  0  0  0
  7  2  1  0  0  0  0
  7  1  2  0  0  0  0
  9 12  1  1  0  0  0
 10  8  1  1  0  0  0
 10  9  1  0  0  0  0
 11 10  1  0  0  0  0
 11 13  1  0  0  0  0
 13 15  1  6  0  0  0
 13  9  1  0  0  0  0
 13 12  1  0  0  0  0
 14 15  2  0  0  0  0
 15 16  1  0  0  0  0
 16 17  1  0  0  0  0
 17 18  1  0  0  0  0
 19 20  1  0  0  0  0
 19  6  1  0  0  0  0
 21 23  1  0  0  0  0
 21 20  1  0  0  0  0
 22 21  2  0  0  0  0
 23 30  1  6  0  0  0
 23 25  1  0  0  0  0
 24 27  1  0  0  0  0
 25 24  2  0  0  0  0
 26 28  2  0  0  0  0
 26 25  1  0  0  0  0
 28 27  1  0  0  0  0
 30 29  1  0  0  0  0
M  END
>  <MODEL>
1

>  <REMARK>
 VINA RESULT:      -6.6      0.000      0.000
  Name = 
  11 active torsions:
  status: ('A' for Active; 'I' for Inactive)
    1  A    between atoms: C_3  and  C_27
    2  A    between atoms: O_4  and  C_8
    3  A    between atoms: O_4  and  C_17
    4  A    between atoms: C_6  and  C_18
    5  A    between atoms: C_6  and  O_22
    6  A    between atoms: O_15  and  C_27
    7  A    between atoms: C_19  and  O_22
    8  A    between atoms: C_19  and  C_27
    9  A    between atoms: O_20  and  C_23
   10  A    between atoms: O_20  and  C_25
   11  A    between atoms: C_23  and  C_29
                            x       y       z     vdW  Elec       q    Type
                         _______ _______ _______ _____ _____    ______ ____

>  <TORSDO>
F 11

$$$$
=
 OpenBabel11062419453D

 30 33  0  0  1  0  0  0  0  0999 V2000
  186.7040  178.2980  147.1600 C   0  0  0  0  0  2  0  0  0  0  0  0
  184.5320  178.5780  146.0660 C   0  0  0  0  0  2  0  0  0  0  0  0
  184.0480  178.8140  144.6600 C   0  0  0  0  0  3  0  0  0  0  0  0
  185.4140  176.8950  143.9420 C   0  0  0  0  0  2  0  0  0  0  0  0
  186.5290  177.3390  144.9030 C   0  0  2  0  0  3  0  0  0  0  0  0
  184.4600  178.0240  143.6590 C   0  0  0  0  0  0  0  0  0  0  0  0
  185.9730  178.1390  146.0610 C   0  0  0  0  0  0  0  0  0  0  0  0
  187.4730  178.1020  144.2110 O   0  0  0  0  0  0  0  0  0  0  0  0
  189.2930  176.5920  144.6330 C   0  0  2  0  0  3  0  0  0  0  0  0
  188.3240  177.1690  143.6090 C   0  0  2  0  0  3  0  0  0  0  0  0
  189.4650  177.8780  142.9160 C   0  0  0  0  0  2  0  0  0  0  0  0
  190.0650  177.6280  145.4190 C   0  0  0  0  0  2  0  0  0  0  0  0
  190.4270  177.3750  143.9730 C   0  0  1  0  0  0  0  0  0  0  0  0
  191.4810  175.8530  142.4730 O   0  0  0  0  0  0  0  0  0  0  0  0
  191.4990  176.3980  143.6090 C   0  0  0  0  0  0  0  0  0  0  0  0
  192.5030  176.0900  144.5320 O   0  0  0  0  0  0  0  0  0  0  0  0
  192.5580  174.8320  145.1870 C   0  0  0  0  0  2  0  0  0  0  0  0
  192.5750  175.0440  146.6860 C   0  0  0  0  0  1  0  0  0  0  0  0
  183.9860  178.2700  142.2700 C   0  0  0  0  0  2  0  0  0  0  0  0
  182.6360  178.7080  142.2990 O   0  0  0  0  0  0  0  0  0  0  0  0
  181.7200  178.3430  141.3110 C   0  0  0  0  0  0  0  0  0  0  0  0
  182.1130  177.8680  140.2110 O   0  0  0  0  0  0  0  0  0  0  0  0
  180.2570  178.5300  141.5480 C   0  0  2  0  0  3  0  0  0  0  0  0
  178.7410  179.0850  139.7020 N   0  0  0  0  0  0  0  0  0  0  0  0
  179.6750  179.4440  140.5160 C   0  0  0  0  0  0  0  0  0  0  0  0
  180.0540  180.8050  140.3980 N   0  0  0  0  0  0  0  0  0  0  0  0
  178.4100  180.2500  138.8980 C   0  0  0  0  0  2  0  0  0  0  0  0
  179.3230  181.2930  139.4520 C   0  0  0  0  0  3  0  0  0  0  0  0
  178.7240  178.6780  143.1390 C   0  0  0  0  0  1  0  0  0  0  0  0
  180.0380  179.0360  142.8310 O   0  0  0  0  0  0  0  0  0  0  0  0
  3  2  1  0  0  0  0
  4  5  1  0  0  0  0
  5  8  1  6  0  0  0
  5  7  1  0  0  0  0
  6  4  1  0  0  0  0
  6  3  2  0  0  0  0
  7  2  1  0  0  0  0
  7  1  2  0  0  0  0
  9 12  1  1  0  0  0
 10  8  1  1  0  0  0
 10  9  1  0  0  0  0
 11 10  1  0  0  0  0
 11 13  1  0  0  0  0
 13 15  1  6  0  0  0
 13  9  1  0  0  0  0
 13 12  1  0  0  0  0
 14 15  2  0  0  0  0
 15 16  1  0  0  0  0
 16 17  1  0  0  0  0
 17 18  1  0  0  0  0
 19 20  1  0  0  0  0
 19  6  1  0  0  0  0
 21 20  1  0  0  0  0
 22 21  2  0  0  0  0
 23 21  1  6  0  0  0
 23 30  1  0  0  0  0
 24 25  2  0  0  0  0
 25 23  1  0  0  0  0
 26 25  1  0  0  0  0
 27 28  1  0  0  0  0
 27 24  1  0  0  0  0
 28 26  2  0  0  0  0
 30 29  1  0  0  0  0
M  END
>  <MODEL>
2

>  <REMARK>
 VINA RESULT:      -6.6      1.112      1.881
  Name = 
  11 active torsions:
  status: ('A' for Active; 'I' for Inactive)
    1  A    between atoms: C_3  and  C_27
    2  A    between atoms: O_4  and  C_8
    3  A    between atoms: O_4  and  C_17
    4  A    between atoms: C_6  and  C_18
    5  A    between atoms: C_6  and  O_22
    6  A    between atoms: O_15  and  C_27
    7  A    between atoms: C_19  and  O_22
    8  A    between atoms: C_19  and  C_27
    9  A    between atoms: O_20  and  C_23
   10  A    between atoms: O_20  and  C_25
   11  A    between atoms: C_23  and  C_29
                            x       y       z     vdW  Elec       q    Type
                         _______ _______ _______ _____ _____    ______ ____

>  <TORSDO>
F 11

$$$$
=
 OpenBabel11062419453D

 30 33  0  0  1  0  0  0  0  0999 V2000
  191.1170  176.3340  148.2050 C   0  0  0  0  0  2  0  0  0  0  0  0
  192.6990  175.9860  146.3700 C   0  0  0  0  0  2  0  0  0  0  0  0
  192.6060  175.6290  144.9110 C   0  0  0  0  0  3  0  0  0  0  0  0
  190.9730  177.4530  144.6390 C   0  0  0  0  0  2  0  0  0  0  0  0
  190.3470  177.0830  145.9930 C   0  0  2  0  0  3  0  0  0  0  0  0
  191.7960  176.3170  144.0940 C   0  0  0  0  0  0  0  0  0  0  0  0
  191.3510  176.4020  146.8980 C   0  0  0  0  0  0  0  0  0  0  0  0
  189.2460  176.2450  145.7920 O   0  0  0  0  0  0  0  0  0  0  0  0
  187.4420  177.6470  146.5330 C   0  0  2  0  0  3  0  0  0  0  0  0
  188.2230  177.0890  145.3500 C   0  0  2  0  0  3  0  0  0  0  0  0
  187.0200  176.2730  144.9320 C   0  0  0  0  0  2  0  0  0  0  0  0
  186.9280  176.6000  147.4960 C   0  0  0  0  0  2  0  0  0  0  0  0
  186.2600  176.7590  146.1490 C   0  0  1  0  0  0  0  0  0  0  0  0
  184.5210  178.1450  147.0050 O   0  0  0  0  0  0  0  0  0  0  0  0
  185.0660  177.6440  145.9840 C   0  0  0  0  0  0  0  0  0  0  0  0
  184.5600  177.9010  144.7070 O   0  0  0  0  0  0  0  0  0  0  0  0
  184.2450  179.2170  144.2770 C   0  0  0  0  0  2  0  0  0  0  0  0
  185.5050  180.0560  144.2560 C   0  0  0  0  0  1  0  0  0  0  0  0
  191.7010  175.9500  142.6540 C   0  0  0  0  0  2  0  0  0  0  0  0
  191.0710  174.6830  142.5280 O   0  0  0  0  0  0  0  0  0  0  0  0
  189.6850  174.5560  142.4290 C   0  0  0  0  0  0  0  0  0  0  0  0
  189.0140  174.0520  143.3710 O   0  0  0  0  0  0  0  0  0  0  0  0
  188.9840  175.0040  141.1890 C   0  0  2  0  0  3  0  0  0  0  0  0
  188.7420  177.3710  141.7840 N   0  0  0  0  0  0  0  0  0  0  0  0
  188.1970  176.2490  141.4550 C   0  0  0  0  0  0  0  0  0  0  0  0
  186.7900  176.3130  141.2980 N   0  0  0  0  0  0  0  0  0  0  0  0
  187.6670  178.3430  141.9060 C   0  0  0  0  0  2  0  0  0  0  0  0
  186.4620  177.5340  141.5600 C   0  0  0  0  0  3  0  0  0  0  0  0
  188.9560  173.2260  139.8680 C   0  0  0  0  0  1  0  0  0  0  0  0
  188.1490  173.9890  140.7140 O   0  0  0  0  0  0  0  0  0  0  0  0
  2  7  1  0  0  0  0
  3  2  1  0  0  0  0
  4  5  1  0  0  0  0
  5  8  1  6  0  0  0
  5  7  1  0  0  0  0
  6  4  1  0  0  0  0
  6  3  2  0  0  0  0
  7  1  2  0  0  0  0
  9 12  1  1  0  0  0
 10  8  1  1  0  0  0
 10  9  1  0  0  0  0
 11 10  1  0  0  0  0
 11 13  1  0  0  0  0
 13 15  1  6  0  0  0
 13  9  1  0  0  0  0
 13 12  1  0  0  0  0
 15 14  2  0  0  0  0
 16 15  1  0  0  0  0
 17 16  1  0  0  0  0
 18 17  1  0  0  0  0
 19  6  1  0  0  0  0
 20 19  1  0  0  0  0
 21 20  1  0  0  0  0
 21 22  2  0  0  0  0
 23 30  1  1  0  0  0
 23 25  1  0  0  0  0
 23 21  1  0  0  0  0
 24 27  1  0  0  0  0
 25 24  2  0  0  0  0
 26 25  1  0  0  0  0
 26 28  2  0  0  0  0
 28 27  1  0  0  0  0
 29 30  1  0  0  0  0
M  END
>  <MODEL>
3

>  <REMARK>
 VINA RESULT:      -6.6      3.993      7.781
  Name = 
  11 active torsions:
  status: ('A' for Active; 'I' for Inactive)
    1  A    between atoms: C_3  and  C_27
    2  A    between atoms: O_4  and  C_8
    3  A    between atoms: O_4  and  C_17
    4  A    between atoms: C_6  and  C_18
    5  A    between atoms: C_6  and  O_22
    6  A    between atoms: O_15  and  C_27
    7  A    between atoms: C_19  and  O_22
    8  A    between atoms: C_19  and  C_27
    9  A    between atoms: O_20  and  C_23
   10  A    between atoms: O_20  and  C_25
   11  A    between atoms: C_23  and  C_29
                            x       y       z     vdW  Elec       q    Type
                         _______ _______ _______ _____ _____    ______ ____

>  <TORSDO>
F 11

$$$$
=
 OpenBabel11062419453D

 30 33  0  0  1  0  0  0  0  0999 V2000
  191.1620  176.3800  148.1380 C   0  0  0  0  0  2  0  0  0  0  0  0
  192.3520  175.9040  146.0520 C   0  0  0  0  0  2  0  0  0  0  0  0
  191.9670  175.5510  144.6390 C   0  0  0  0  0  3  0  0  0  0  0  0
  190.4560  177.4960  144.6390 C   0  0  0  0  0  2  0  0  0  0  0  0
  190.0610  177.1800  146.0900 C   0  0  2  0  0  3  0  0  0  0  0  0
  191.0770  176.2980  143.9720 C   0  0  0  0  0  0  0  0  0  0  0  0
  191.1580  176.4250  146.8080 C   0  0  0  0  0  0  0  0  0  0  0  0
  188.8820  176.4300  146.1060 O   0  0  0  0  0  0  0  0  0  0  0  0
  187.0540  177.8690  146.7030 C   0  0  2  0  0  3  0  0  0  0  0  0
  187.9020  177.2800  145.5830 C   0  0  2  0  0  3  0  0  0  0  0  0
  186.7190  176.4740  145.1000 C   0  0  0  0  0  2  0  0  0  0  0  0
  186.4610  176.8450  147.6460 C   0  0  0  0  0  2  0  0  0  0  0  0
  185.8870  176.9910  146.2550 C   0  0  1  0  0  0  0  0  0  0  0  0
  184.0080  178.2730  146.9640 O   0  0  0  0  0  0  0  0  0  0  0  0
  184.7190  177.8890  145.9970 C   0  0  0  0  0  0  0  0  0  0  0  0
  184.4210  178.2870  144.6910 O   0  0  0  0  0  0  0  0  0  0  0  0
  184.8530  179.5350  144.1710 C   0  0  0  0  0  2  0  0  0  0  0  0
  185.8540  179.3000  143.0600 C   0  0  0  0  0  1  0  0  0  0  0  0
  190.6930  175.9360  142.5800 C   0  0  0  0  0  2  0  0  0  0  0  0
  189.2770  175.9100  142.4700 O   0  0  0  0  0  0  0  0  0  0  0  0
  188.5810  174.7340  142.1820 C   0  0  0  0  0  0  0  0  0  0  0  0
  187.3240  174.6910  142.2670 O   0  0  0  0  0  0  0  0  0  0  0  0
  189.3320  173.5050  141.7860 C   0  0  2  0  0  3  0  0  0  0  0  0
  188.2430  172.9040  139.6720 N   0  0  0  0  0  0  0  0  0  0  0  0
  189.2880  173.3240  140.3010 C   0  0  0  0  0  0  0  0  0  0  0  0
  190.3730  173.6660  139.4560 N   0  0  0  0  0  0  0  0  0  0  0  0
  188.5710  172.9080  138.2550 C   0  0  0  0  0  2  0  0  0  0  0  0
  189.9710  173.4280  138.2520 C   0  0  0  0  0  3  0  0  0  0  0  0
  189.8750  171.5070  142.5720 C   0  0  0  0  0  1  0  0  0  0  0  0
  188.7990  172.3860  142.4310 O   0  0  0  0  0  0  0  0  0  0  0  0
  2  7  1  0  0  0  0
  3  2  1  0  0  0  0
  4  5  1  0  0  0  0
  5  8  1  6  0  0  0
  5  7  1  0  0  0  0
  6  4  1  0  0  0  0
  6  3  2  0  0  0  0
  7  1  2  0  0  0  0
  9 12  1  1  0  0  0
 10  8  1  1  0  0  0
 10  9  1  0  0  0  0
 11 10  1  0  0  0  0
 11 13  1  0  0  0  0
 13 15  1  6  0  0  0
 13  9  1  0  0  0  0
 13 12  1  0  0  0  0
 15 14  2  0  0  0  0
 16 15  1  0  0  0  0
 17 16  1  0  0  0  0
 18 17  1  0  0  0  0
 19  6  1  0  0  0  0
 20 19  1  0  0  0  0
 21 22  2  0  0  0  0
 21 20  1  0  0  0  0
 23 21  1  6  0  0  0
 23 30  1  0  0  0  0
 24 25  2  0  0  0  0
 25 23  1  0  0  0  0
 26 25  1  0  0  0  0
 27 24  1  0  0  0  0
 28 27  1  0  0  0  0
 28 26  2  0  0  0  0
 30 29  1  0  0  0  0
M  END
>  <MODEL>
4

>  <REMARK>
 VINA RESULT:      -6.4      4.568      8.403
  Name = 
  11 active torsions:
  status: ('A' for Active; 'I' for Inactive)
    1  A    between atoms: C_3  and  C_27
    2  A    between atoms: O_4  and  C_8
    3  A    between atoms: O_4  and  C_17
    4  A    between atoms: C_6  and  C_18
    5  A    between atoms: C_6  and  O_22
    6  A    between atoms: O_15  and  C_27
    7  A    between atoms: C_19  and  O_22
    8  A    between atoms: C_19  and  C_27
    9  A    between atoms: O_20  and  C_23
   10  A    between atoms: O_20  and  C_25
   11  A    between atoms: C_23  and  C_29
                            x       y       z     vdW  Elec       q    Type
                         _______ _______ _______ _____ _____    ______ ____

>  <TORSDO>
F 11

$$$$
=
 OpenBabel11062419453D

 30 33  0  0  1  0  0  0  0  0999 V2000
  187.0460  178.7790  148.6100 C   0  0  0  0  0  2  0  0  0  0  0  0
  185.3300  179.1650  146.9080 C   0  0  0  0  0  2  0  0  0  0  0  0
  185.2670  179.1320  145.4040 C   0  0  0  0  0  3  0  0  0  0  0  0
  186.2700  176.8840  145.4810 C   0  0  0  0  0  2  0  0  0  0  0  0
  187.1940  177.3440  146.6190 C   0  0  2  0  0  3  0  0  0  0  0  0
  185.7070  178.0600  144.7300 C   0  0  0  0  0  0  0  0  0  0  0  0
  186.5830  178.4890  147.3980 C   0  0  0  0  0  0  0  0  0  0  0  0
  188.4300  177.7340  146.0960 O   0  0  0  0  0  0  0  0  0  0  0  0
  189.8090  175.8800  146.7540 C   0  0  2  0  0  3  0  0  0  0  0  0
  189.0200  176.5520  145.6370 C   0  0  2  0  0  3  0  0  0  0  0  0
  190.3060  176.8630  144.9060 C   0  0  0  0  0  2  0  0  0  0  0  0
  190.8140  176.7770  147.4400 C   0  0  0  0  0  2  0  0  0  0  0  0
  191.1060  176.2680  146.0460 C   0  0  1  0  0  0  0  0  0  0  0  0
  191.4240  174.0980  145.1160 O   0  0  0  0  0  0  0  0  0  0  0  0
  191.8980  175.0170  145.8370 C   0  0  0  0  0  0  0  0  0  0  0  0
  193.1470  174.8730  146.4460 O   0  0  0  0  0  0  0  0  0  0  0  0
  194.2540  175.6880  146.0870 C   0  0  0  0  0  2  0  0  0  0  0  0
  195.5020  174.8350  146.0070 C   0  0  0  0  0  1  0  0  0  0  0  0
  185.6520  178.0400  143.2430 C   0  0  0  0  0  2  0  0  0  0  0  0
  186.8600  178.5680  142.7150 O   0  0  0  0  0  0  0  0  0  0  0  0
  187.7160  177.8020  141.9220 C   0  0  0  0  0  0  0  0  0  0  0  0
  188.9350  178.1030  141.8100 O   0  0  0  0  0  0  0  0  0  0  0  0
  187.1820  176.6210  141.1800 C   0  0  2  0  0  3  0  0  0  0  0  0
  188.1420  174.9280  142.6720 N   0  0  0  0  0  0  0  0  0  0  0  0
  187.9980  175.4030  141.4820 C   0  0  0  0  0  0  0  0  0  0  0  0
  188.6230  174.6310  140.4710 N   0  0  0  0  0  0  0  0  0  0  0  0
  188.9520  173.7260  142.5530 C   0  0  0  0  0  2  0  0  0  0  0  0
  189.1890  173.6440  141.0810 C   0  0  0  0  0  3  0  0  0  0  0  0
  185.9400  177.4820  139.5610 C   0  0  0  0  0  1  0  0  0  0  0  0
  187.1750  176.8770  139.8070 O   0  0  0  0  0  0  0  0  0  0  0  0
  2  7  1  0  0  0  0
  3  2  1  0  0  0  0
  4  5  1  0  0  0  0
  5  8  1  6  0  0  0
  5  7  1  0  0  0  0
  6  3  2  0  0  0  0
  6  4  1  0  0  0  0
  7  1  2  0  0  0  0
  9 12  1  1  0  0  0
 10  8  1  1  0  0  0
 10  9  1  0  0  0  0
 11 10  1  0  0  0  0
 11 13  1  0  0  0  0
 13 15  1  6  0  0  0
 13  9  1  0  0  0  0
 13 12  1  0  0  0  0
 14 15  2  0  0  0  0
 15 16  1  0  0  0  0
 17 16  1  0  0  0  0
 18 17  1  0  0  0  0
 19  6  1  0  0  0  0
 20 19  1  0  0  0  0
 21 20  1  0  0  0  0
 22 21  2  0  0  0  0
 23 30  1  6  0  0  0
 23 25  1  0  0  0  0
 23 21  1  0  0  0  0
 25 24  2  0  0  0  0
 26 28  2  0  0  0  0
 26 25  1  0  0  0  0
 27 24  1  0  0  0  0
 28 27  1  0  0  0  0
 29 30  1  0  0  0  0
M  END
>  <MODEL>
5

>  <REMARK>
 VINA RESULT:      -6.4      4.545      5.549
  Name = 
  11 active torsions:
  status: ('A' for Active; 'I' for Inactive)
    1  A    between atoms: C_3  and  C_27
    2  A    between atoms: O_4  and  C_8
    3  A    between atoms: O_4  and  C_17
    4  A    between atoms: C_6  and  C_18
    5  A    between atoms: C_6  and  O_22
    6  A    between atoms: O_15  and  C_27
    7  A    between atoms: C_19  and  O_22
    8  A    between atoms: C_19  and  C_27
    9  A    between atoms: O_20  and  C_23
   10  A    between atoms: O_20  and  C_25
   11  A    between atoms: C_23  and  C_29
                            x       y       z     vdW  Elec       q    Type
                         _______ _______ _______ _____ _____    ______ ____

>  <TORSDO>
F 11

$$$$
=
 OpenBabel11062419453D

 30 33  0  0  1  0  0  0  0  0999 V2000
  187.4560  176.5950  146.8030 C   0  0  0  0  0  2  0  0  0  0  0  0
  189.8730  176.5640  147.1900 C   0  0  0  0  0  2  0  0  0  0  0  0
  191.1010  176.2930  146.3640 C   0  0  0  0  0  3  0  0  0  0  0  0
  190.2610  177.9150  144.7110 C   0  0  0  0  0  2  0  0  0  0  0  0
  188.8360  177.3840  144.9260 C   0  0  2  0  0  3  0  0  0  0  0  0
  191.2870  176.9270  145.1980 C   0  0  0  0  0  0  0  0  0  0  0  0
  188.6750  176.7750  146.3020 C   0  0  0  0  0  0  0  0  0  0  0  0
  188.5330  176.4310  143.9490 O   0  0  0  0  0  0  0  0  0  0  0  0
  186.9620  177.8730  142.8440 C   0  0  2  0  0  3  0  0  0  0  0  0
  188.3100  177.1660  142.7810 C   0  0  2  0  0  3  0  0  0  0  0  0
  187.7910  176.2600  141.6870 C   0  0  0  0  0  2  0  0  0  0  0  0
  185.7930  176.9680  143.1690 C   0  0  0  0  0  2  0  0  0  0  0  0
  186.4230  176.9010  141.7960 C   0  0  1  0  0  0  0  0  0  0  0  0
  186.4250  177.6320  139.5280 O   0  0  0  0  0  0  0  0  0  0  0  0
  185.8820  177.7130  140.6630 C   0  0  0  0  0  0  0  0  0  0  0  0
  184.7900  178.5590  140.8720 O   0  0  0  0  0  0  0  0  0  0  0  0
  183.4980  178.2540  140.3690 C   0  0  0  0  0  2  0  0  0  0  0  0
  182.5190  178.1570  141.5190 C   0  0  0  0  0  1  0  0  0  0  0  0
  192.4990  176.6450  144.3800 C   0  0  0  0  0  2  0  0  0  0  0  0
  193.3040  175.6790  145.0400 O   0  0  0  0  0  0  0  0  0  0  0  0
  194.5520  176.0010  145.5760 C   0  0  0  0  0  0  0  0  0  0  0  0
  194.6580  176.8550  146.4970 O   0  0  0  0  0  0  0  0  0  0  0  0
  195.7810  175.3400  145.0450 C   0  0  2  0  0  3  0  0  0  0  0  0
  196.4370  176.6770  143.0970 N   0  0  0  0  0  0  0  0  0  0  0  0
  195.9190  175.5980  143.5770 C   0  0  0  0  0  0  0  0  0  0  0  0
  195.5560  174.6430  142.5950 N   0  0  0  0  0  0  0  0  0  0  0  0
  196.4420  176.5360  141.6500 C   0  0  0  0  0  2  0  0  0  0  0  0
  195.8550  175.1770  141.4580 C   0  0  0  0  0  3  0  0  0  0  0  0
  196.9690  173.6700  145.8850 C   0  0  0  0  0  1  0  0  0  0  0  0
  195.7370  173.9660  145.2980 O   0  0  0  0  0  0  0  0  0  0  0  0
  3  2  1  0  0  0  0
  4  5  1  0  0  0  0
  4  6  1  0  0  0  0
  5  8  1  6  0  0  0
  5  7  1  0  0  0  0
  6  3  2  0  0  0  0
  7  1  2  0  0  0  0
  7  2  1  0  0  0  0
  9 12  1  1  0  0  0
 10  9  1  0  0  0  0
 10  8  1  1  0  0  0
 11 13  1  0  0  0  0
 11 10  1  0  0  0  0
 13 15  1  6  0  0  0
 13  9  1  0  0  0  0
 13 12  1  0  0  0  0
 14 15  2  0  0  0  0
 15 16  1  0  0  0  0
 17 16  1  0  0  0  0
 17 18  1  0  0  0  0
 19 20  1  0  0  0  0
 19  6  1  0  0  0  0
 20 21  1  0  0  0  0
 21 22  2  0  0  0  0
 23 30  1  6  0  0  0
 23 21  1  0  0  0  0
 24 25  2  0  0  0  0
 25 23  1  0  0  0  0
 26 25  1  0  0  0  0
 27 24  1  0  0  0  0
 28 27  1  0  0  0  0
 28 26  2  0  0  0  0
 30 29  1  0  0  0  0
M  END
>  <MODEL>
6

>  <REMARK>
 VINA RESULT:      -6.2      5.076     11.218
  Name = 
  11 active torsions:
  status: ('A' for Active; 'I' for Inactive)
    1  A    between atoms: C_3  and  C_27
    2  A    between atoms: O_4  and  C_8
    3  A    between atoms: O_4  and  C_17
    4  A    between atoms: C_6  and  C_18
    5  A    between atoms: C_6  and  O_22
    6  A    between atoms: O_15  and  C_27
    7  A    between atoms: C_19  and  O_22
    8  A    between atoms: C_19  and  C_27
    9  A    between atoms: O_20  and  C_23
   10  A    between atoms: O_20  and  C_25
   11  A    between atoms: C_23  and  C_29
                            x       y       z     vdW  Elec       q    Type
                         _______ _______ _______ _____ _____    ______ ____

>  <TORSDO>
F 11

$$$$
=
 OpenBabel11062419453D

 30 33  0  0  1  0  0  0  0  0999 V2000
  185.8200  177.6690  148.0350 C   0  0  0  0  0  2  0  0  0  0  0  0
  184.3640  178.1370  146.1240 C   0  0  0  0  0  2  0  0  0  0  0  0
  184.5580  178.4900  144.6730 C   0  0  0  0  0  3  0  0  0  0  0  0
  186.0630  176.5500  144.4750 C   0  0  0  0  0  2  0  0  0  0  0  0
  186.6450  176.8700  145.8610 C   0  0  2  0  0  3  0  0  0  0  0  0
  185.3550  177.7450  143.8950 C   0  0  0  0  0  0  0  0  0  0  0  0
  185.6490  177.6220  146.7170 C   0  0  0  0  0  0  0  0  0  0  0  0
  187.8130  177.6240  145.7210 O   0  0  0  0  0  0  0  0  0  0  0  0
  189.5190  175.9720  146.0800 C   0  0  2  0  0  3  0  0  0  0  0  0
  188.7160  176.7790  145.0680 C   0  0  2  0  0  3  0  0  0  0  0  0
  189.9590  177.5460  144.6810 C   0  0  0  0  0  2  0  0  0  0  0  0
  190.2000  176.8010  147.1460 C   0  0  0  0  0  2  0  0  0  0  0  0
  190.7520  176.8070  145.7390 C   0  0  1  0  0  0  0  0  0  0  0  0
  191.7760  175.2810  144.2210 O   0  0  0  0  0  0  0  0  0  0  0  0
  191.8400  175.8620  145.3380 C   0  0  0  0  0  0  0  0  0  0  0  0
  192.9100  175.6240  146.2040 O   0  0  0  0  0  0  0  0  0  0  0  0
  193.7160  176.6790  146.7070 C   0  0  0  0  0  2  0  0  0  0  0  0
  194.5940  177.2150  145.5960 C   0  0  0  0  0  1  0  0  0  0  0  0
  185.5520  178.1070  142.4640 C   0  0  0  0  0  2  0  0  0  0  0  0
  186.1070  177.0010  141.7660 O   0  0  0  0  0  0  0  0  0  0  0  0
  187.4680  176.9260  141.4670 C   0  0  0  0  0  0  0  0  0  0  0  0
  188.1870  177.9610  141.4670 O   0  0  0  0  0  0  0  0  0  0  0  0
  188.0810  175.6080  141.1250 C   0  0  2  0  0  3  0  0  0  0  0  0
  187.1370  176.0140  138.8990 N   0  0  0  0  0  0  0  0  0  0  0  0
  187.8740  175.2960  139.6760 C   0  0  0  0  0  0  0  0  0  0  0  0
  188.5300  174.2230  139.0230 N   0  0  0  0  0  0  0  0  0  0  0  0
  187.2240  175.4270  137.5710 C   0  0  0  0  0  2  0  0  0  0  0  0
  188.1600  174.2840  137.7870 C   0  0  0  0  0  3  0  0  0  0  0  0
  188.6290  174.0380  142.5880 C   0  0  0  0  0  1  0  0  0  0  0  0
  187.5360  174.6010  141.9250 O   0  0  0  0  0  0  0  0  0  0  0  0
  2  7  1  0  0  0  0
  3  2  1  0  0  0  0
  4  5  1  0  0  0  0
  5  8  1  6  0  0  0
  5  7  1  0  0  0  0
  6  4  1  0  0  0  0
  6  3  2  0  0  0  0
  7  1  2  0  0  0  0
  9 12  1  1  0  0  0
 10  8  1  1  0  0  0
 10  9  1  0  0  0  0
 11 10  1  0  0  0  0
 11 13  1  0  0  0  0
 13 15  1  6  0  0  0
 13  9  1  0  0  0  0
 13 12  1  0  0  0  0
 14 15  2  0  0  0  0
 15 16  1  0  0  0  0
 16 17  1  0  0  0  0
 18 17  1  0  0  0  0
 19  6  1  0  0  0  0
 20 19  1  0  0  0  0
 21 20  1  0  0  0  0
 22 21  2  0  0  0  0
 23 21  1  1  0  0  0
 23 30  1  0  0  0  0
 24 25  2  0  0  0  0
 25 23  1  0  0  0  0
 26 25  1  0  0  0  0
 27 28  1  0  0  0  0
 27 24  1  0  0  0  0
 28 26  2  0  0  0  0
 30 29  1  0  0  0  0
M  END
>  <MODEL>
7

>  <REMARK>
 VINA RESULT:      -6.2      4.155      5.679
  Name = 
  11 active torsions:
  status: ('A' for Active; 'I' for Inactive)
    1  A    between atoms: C_3  and  C_27
    2  A    between atoms: O_4  and  C_8
    3  A    between atoms: O_4  and  C_17
    4  A    between atoms: C_6  and  C_18
    5  A    between atoms: C_6  and  O_22
    6  A    between atoms: O_15  and  C_27
    7  A    between atoms: C_19  and  O_22
    8  A    between atoms: C_19  and  C_27
    9  A    between atoms: O_20  and  C_23
   10  A    between atoms: O_20  and  C_25
   11  A    between atoms: C_23  and  C_29
                            x       y       z     vdW  Elec       q    Type
                         _______ _______ _______ _____ _____    ______ ____

>  <TORSDO>
F 11

$$$$
=
 OpenBabel11062419453D

 30 33  0  0  1  0  0  0  0  0999 V2000
  191.3440  175.6630  147.6380 C   0  0  0  0  0  2  0  0  0  0  0  0
  189.0840  176.4420  147.1100 C   0  0  0  0  0  2  0  0  0  0  0  0
  188.4100  177.0990  145.9350 C   0  0  0  0  0  3  0  0  0  0  0  0
  189.3380  175.3260  144.5000 C   0  0  0  0  0  2  0  0  0  0  0  0
  190.6510  175.3790  145.2960 C   0  0  2  0  0  3  0  0  0  0  0  0
  188.5270  176.5760  144.7070 C   0  0  0  0  0  0  0  0  0  0  0  0
  190.4220  175.8820  146.7050 C   0  0  0  0  0  0  0  0  0  0  0  0
  191.5680  176.2060  144.6410 O   0  0  0  0  0  0  0  0  0  0  0  0
  193.7120  175.1750  144.9730 C   0  0  2  0  0  3  0  0  0  0  0  0
  192.4980  175.3340  144.0660 C   0  0  2  0  0  3  0  0  0  0  0  0
  193.3430  176.0710  143.0520 C   0  0  0  0  0  2  0  0  0  0  0  0
  194.3530  176.4770  145.3980 C   0  0  0  0  0  2  0  0  0  0  0  0
  194.5380  175.9890  143.9790 C   0  0  1  0  0  0  0  0  0  0  0  0
  195.6580  174.3990  142.6010 O   0  0  0  0  0  0  0  0  0  0  0  0
  195.7280  175.1650  143.6000 C   0  0  0  0  0  0  0  0  0  0  0  0
  196.8990  175.2440  144.3570 O   0  0  0  0  0  0  0  0  0  0  0  0
  197.5380  174.0850  144.8710 C   0  0  0  0  0  2  0  0  0  0  0  0
  196.8370  173.6420  146.1370 C   0  0  0  0  0  1  0  0  0  0  0  0
  187.8670  177.2380  143.5480 C   0  0  0  0  0  2  0  0  0  0  0  0
  187.5110  178.5670  143.9000 O   0  0  0  0  0  0  0  0  0  0  0  0
  186.1830  178.9970  143.9090 C   0  0  0  0  0  0  0  0  0  0  0  0
  185.9020  180.2220  144.0070 O   0  0  0  0  0  0  0  0  0  0  0  0
  185.0780  177.9970  143.8180 C   0  0  2  0  0  3  0  0  0  0  0  0
  184.9880  177.9770  141.3680 N   0  0  0  0  0  0  0  0  0  0  0  0
  184.3810  178.1060  142.4980 C   0  0  0  0  0  0  0  0  0  0  0  0
  182.9810  178.2930  142.3850 N   0  0  0  0  0  0  0  0  0  0  0  0
  183.9780  178.0970  140.3290 C   0  0  0  0  0  2  0  0  0  0  0  0
  182.7260  178.2910  141.1200 C   0  0  0  0  0  3  0  0  0  0  0  0
  184.7610  177.5530  145.9650 C   0  0  0  0  0  1  0  0  0  0  0  0
  184.1730  178.1830  144.8670 O   0  0  0  0  0  0  0  0  0  0  0  0
  3  2  1  0  0  0  0
  4  6  1  0  0  0  0
  4  5  1  0  0  0  0
  5  8  1  6  0  0  0
  5  7  1  0  0  0  0
  6  3  2  0  0  0  0
  7  2  1  0  0  0  0
  7  1  2  0  0  0  0
  9 12  1  1  0  0  0
 10  8  1  1  0  0  0
 10  9  1  0  0  0  0
 11 13  1  0  0  0  0
 11 10  1  0  0  0  0
 13 15  1  6  0  0  0
 13  9  1  0  0  0  0
 13 12  1  0  0  0  0
 14 15  2  0  0  0  0
 15 16  1  0  0  0  0
 16 17  1  0  0  0  0
 17 18  1  0  0  0  0
 19 20  1  0  0  0  0
 19  6  1  0  0  0  0
 20 21  1  0  0  0  0
 21 22  2  0  0  0  0
 23 21  1  6  0  0  0
 23 30  1  0  0  0  0
 24 25  2  0  0  0  0
 25 23  1  0  0  0  0
 26 25  1  0  0  0  0
 27 28  1  0  0  0  0
 27 24  1  0  0  0  0
 28 26  2  0  0  0  0
 30 29  1  0  0  0  0
M  END
>  <MODEL>
8

>  <REMARK>
 VINA RESULT:      -6.2      2.879      5.045
  Name = 
  11 active torsions:
  status: ('A' for Active; 'I' for Inactive)
    1  A    between atoms: C_3  and  C_27
    2  A    between atoms: O_4  and  C_8
    3  A    between atoms: O_4  and  C_17
    4  A    between atoms: C_6  and  C_18
    5  A    between atoms: C_6  and  O_22
    6  A    between atoms: O_15  and  C_27
    7  A    between atoms: C_19  and  O_22
    8  A    between atoms: C_19  and  C_27
    9  A    between atoms: O_20  and  C_23
   10  A    between atoms: O_20  and  C_25
   11  A    between atoms: C_23  and  C_29
                            x       y       z     vdW  Elec       q    Type
                         _______ _______ _______ _____ _____    ______ ____

>  <TORSDO>
F 11

$$$$
=
 OpenBabel11062419453D

 30 33  0  0  1  0  0  0  0  0999 V2000
  191.2100  175.7080  147.9430 C   0  0  0  0  0  2  0  0  0  0  0  0
  189.3950  176.7790  146.6980 C   0  0  0  0  0  2  0  0  0  0  0  0
  189.2580  177.5000  145.3840 C   0  0  0  0  0  3  0  0  0  0  0  0
  190.3740  175.5910  144.3000 C   0  0  0  0  0  2  0  0  0  0  0  0
  191.3300  175.4790  145.4980 C   0  0  2  0  0  3  0  0  0  0  0  0
  189.7170  176.9440  144.2540 C   0  0  0  0  0  0  0  0  0  0  0  0
  190.7030  176.0340  146.7580 C   0  0  0  0  0  0  0  0  0  0  0  0
  192.5180  176.1620  145.2210 O   0  0  0  0  0  0  0  0  0  0  0  0
  194.2160  174.4630  145.2220 C   0  0  2  0  0  3  0  0  0  0  0  0
  193.2480  175.3000  144.3960 C   0  0  2  0  0  3  0  0  0  0  0  0
  194.4100  176.0390  143.7710 C   0  0  0  0  0  2  0  0  0  0  0  0
  195.1190  175.2640  146.1340 C   0  0  0  0  0  2  0  0  0  0  0  0
  195.3780  175.2690  144.6440 C   0  0  1  0  0  0  0  0  0  0  0  0
  196.2170  173.9980  142.8120 O   0  0  0  0  0  0  0  0  0  0  0  0
  196.3380  174.3010  144.0300 C   0  0  0  0  0  0  0  0  0  0  0  0
  197.3500  173.7340  144.8080 O   0  0  0  0  0  0  0  0  0  0  0  0
  197.5740  172.3320  144.8420 C   0  0  0  0  0  2  0  0  0  0  0  0
  196.6290  171.6950  145.8380 C   0  0  0  0  0  1  0  0  0  0  0  0
  189.5900  177.6680  142.9600 C   0  0  0  0  0  2  0  0  0  0  0  0
  188.3340  178.3290  142.9070 O   0  0  0  0  0  0  0  0  0  0  0  0
  187.1670  177.6660  142.5220 C   0  0  0  0  0  0  0  0  0  0  0  0
  187.2160  176.6610  141.7630 O   0  0  0  0  0  0  0  0  0  0  0  0
  185.8410  178.1590  143.0000 C   0  0  2  0  0  3  0  0  0  0  0  0
  185.6550  179.0950  145.2590 N   0  0  0  0  0  0  0  0  0  0  0  0
  185.7540  178.0640  144.4910 C   0  0  0  0  0  0  0  0  0  0  0  0
  185.7040  176.8250  145.1770 N   0  0  0  0  0  0  0  0  0  0  0  0
  185.5450  178.5990  146.6210 C   0  0  0  0  0  2  0  0  0  0  0  0
  185.5820  177.1190  146.4280 C   0  0  0  0  0  3  0  0  0  0  0  0
  183.7160  178.2940  142.3890 C   0  0  0  0  0  1  0  0  0  0  0  0
  184.8110  177.4280  142.4020 O   0  0  0  0  0  0  0  0  0  0  0  0
  2  7  1  0  0  0  0
  3  2  1  0  0  0  0
  4  5  1  0  0  0  0
  5  8  1  6  0  0  0
  5  7  1  0  0  0  0
  6  4  1  0  0  0  0
  6  3  2  0  0  0  0
  7  1  2  0  0  0  0
  9 12  1  1  0  0  0
 10  8  1  1  0  0  0
 10  9  1  0  0  0  0
 11 10  1  0  0  0  0
 11 13  1  0  0  0  0
 13 15  1  6  0  0  0
 13  9  1  0  0  0  0
 13 12  1  0  0  0  0
 14 15  2  0  0  0  0
 15 16  1  0  0  0  0
 16 17  1  0  0  0  0
 17 18  1  0  0  0  0
 19  6  1  0  0  0  0
 20 19  1  0  0  0  0
 21 20  1  0  0  0  0
 21 23  1  0  0  0  0
 22 21  2  0  0  0  0
 23 30  1  6  0  0  0
 23 25  1  0  0  0  0
 24 27  1  0  0  0  0
 25 26  1  0  0  0  0
 25 24  2  0  0  0  0
 26 28  2  0  0  0  0
 28 27  1  0  0  0  0
 29 30  1  0  0  0  0
M  END
>  <MODEL>
9

>  <REMARK>
 VINA RESULT:      -6.2      3.401      5.879
  Name = 
  11 active torsions:
  status: ('A' for Active; 'I' for Inactive)
    1  A    between atoms: C_3  and  C_27
    2  A    between atoms: O_4  and  C_8
    3  A    between atoms: O_4  and  C_17
    4  A    between atoms: C_6  and  C_18
    5  A    between atoms: C_6  and  O_22
    6  A    between atoms: O_15  and  C_27
    7  A    between atoms: C_19  and  O_22
    8  A    between atoms: C_19  and  C_27
    9  A    between atoms: O_20  and  C_23
   10  A    between atoms: O_20  and  C_25
   11  A    between atoms: C_23  and  C_29
                            x       y       z     vdW  Elec       q    Type
                         _______ _______ _______ _____ _____    ______ ____

>  <TORSDO>
F 11

$$$$
