=
 OpenBabel11062420383D

 32 36  0  0  1  0  0  0  0  0999 V2000
  191.8560  175.9370  146.1410 C   0  0  0  0  0  0  0  0  0  0  0  0
  187.7510  175.1410  141.7190 N   0  0  0  0  0  1  0  0  0  0  0  0
  193.8510  174.7670  144.5080 N   0  0  0  0  0  0  0  0  0  0  0  0
  190.0670  174.8300  142.3820 N   0  0  0  0  0  0  0  0  0  0  0  0
  191.0770  173.6450  140.3960 S   0  0  0  0  0  0  0  0  0  0  0  0
  189.0750  174.6830  141.4650 C   0  0  0  0  0  0  0  0  0  0  0  0
  189.4480  174.0550  140.2780 C   0  0  0  0  0  0  0  0  0  0  0  0
  191.2310  174.3090  141.9340 C   0  0  0  0  0  0  0  0  0  0  0  0
  194.1570  175.2720  145.8090 C   0  0  0  0  0  0  0  0  0  0  0  0
  191.5380  175.5580  144.7180 C   0  0  0  0  0  2  0  0  0  0  0  0
  193.0900  175.8340  146.6360 C   0  0  0  0  0  3  0  0  0  0  0  0
  192.4560  174.3090  142.6750 N   0  0  0  0  0  2  0  0  0  0  0  0
  192.6630  174.8560  143.9840 C   0  0  0  0  0  0  0  0  0  0  0  0
  195.3570  175.1810  146.2720 N   0  0  0  0  0  2  0  0  0  0  0  0
  187.9590  172.3780  139.3420 N   0  0  0  0  0  2  0  0  0  0  0  0
  188.5410  173.7140  139.1370 C   0  0  2  0  0  3  0  0  0  0  0  0
  189.0680  172.5700  138.4000 C   0  0  0  0  0  2  0  0  0  0  0  0
  190.7740  176.5230  146.9800 C   0  0  0  0  0  2  0  0  0  0  0  0
  189.9470  177.5060  146.1660 C   0  0  0  0  0  2  0  0  0  0  0  0
  188.4730  177.1460  146.2240 C   0  0  1  0  0  0  0  0  0  0  0  0
  185.6180  176.3830  145.5290 O   0  0  0  0  0  0  0  0  0  0  0  0
  188.1530  175.7500  145.9290 C   0  0  0  0  0  2  0  0  0  0  0  0
  185.2660  177.2660  146.5640 C   0  0  0  0  0  2  0  0  0  0  0  0
  186.3280  177.2760  147.6440 C   0  0  0  0  0  2  0  0  0  0  0  0
  187.5610  177.9990  147.1260 C   0  0  0  0  0  2  0  0  0  0  0  0
  186.5210  177.0140  144.6280 C   0  0  2  0  0  3  0  0  0  0  0  0
  187.9610  176.7780  144.8790 N   0  0  1  0  0  0  0  0  0  0  0  0
  186.2090  178.4590  144.2060 C   0  0  0  0  0  2  0  0  0  0  0  0
  184.0610  178.3600  142.8530 S   0  0  0  0  0  0  0  0  0  0  0  0
  185.4910  178.4980  142.8940 C   0  0  0  0  0  0  0  0  0  0  0  0
  185.4510  178.0270  140.5730 O   0  0  0  0  0  1  0  0  0  0  0  0
  186.2840  178.3860  141.6340 C   0  0  0  0  0  2  0  0  0  0  0  0
  1 11  2  0  0  0  0
  1 18  1  0  0  0  0
  3  9  1  0  0  0  0
  5  8  1  0  0  0  0
  6  2  1  0  0  0  0
  6  4  1  0  0  0  0
  7  5  1  0  0  0  0
  7  6  2  0  0  0  0
  8  4  2  0  0  0  0
  8 12  1  0  0  0  0
  9 14  2  0  0  0  0
  9 11  1  0  0  0  0
 10  1  1  0  0  0  0
 12 13  1  0  0  0  0
 13  3  2  0  0  0  0
 13 10  1  0  0  0  0
 16 15  1  0  0  0  0
 16  7  1  1  0  0  0
 17 16  1  0  0  0  0
 17 15  1  0  0  0  0
 19 18  1  0  0  0  0
 20 19  1  1  0  0  0
 20 25  1  0  0  0  0
 21 23  1  0  0  0  0
 22 20  1  0  0  0  0
 23 24  1  0  0  0  0
 25 24  1  0  0  0  0
 26 28  1  1  0  0  0
 26 27  1  0  0  0  0
 26 21  1  0  0  0  0
 27 22  1  1  0  0  0
 27 20  1  0  0  0  0
 29 30  2  0  0  0  0
 30 28  1  0  0  0  0
 31 32  1  0  0  0  0
 32 30  1  0  0  0  0
M  END
>  <MODEL>
1

>  <REMARK>
 VINA RESULT:      -7.1      0.000      0.000
  Name = 
  7 active torsions:
  status: ('A' for Active; 'I' for Inactive)
    1  A    between atoms: C_1  and  C_29
    2  A    between atoms: C_5  and  C_13
    3  A    between atoms: C_7  and  C_9
    4  A    between atoms: C_7  and  C_29
    5  A    between atoms: C_14  and  C_17
    6  A    between atoms: C_14  and  C_22
    7  A    between atoms: C_17  and  C_28
                            x       y       z     vdW  Elec       q    Type
                         _______ _______ _______ _____ _____    ______ ____

>  <TORSDO>
F 7

$$$$
=
 OpenBabel11062420383D

 32 36  0  0  1  0  0  0  0  0999 V2000
  190.2180  173.1740  143.1680 C   0  0  0  0  0  0  0  0  0  0  0  0
  187.6570  177.2300  146.9150 N   0  0  0  0  0  1  0  0  0  0  0  0
  188.5420  174.0540  141.0620 N   0  0  0  0  0  0  0  0  0  0  0  0
  187.6810  176.3200  144.6630 N   0  0  0  0  0  0  0  0  0  0  0  0
  185.8330  177.5930  143.5090 S   0  0  0  0  0  0  0  0  0  0  0  0
  187.1640  177.1790  145.5800 C   0  0  0  0  0  0  0  0  0  0  0  0
  186.1280  177.9890  145.1190 C   0  0  0  0  0  0  0  0  0  0  0  0
  187.0520  176.4340  143.4720 C   0  0  0  0  0  0  0  0  0  0  0  0
  189.5250  173.0380  140.8560 C   0  0  0  0  0  0  0  0  0  0  0  0
  189.3020  174.3530  143.3750 C   0  0  0  0  0  2  0  0  0  0  0  0
  190.3450  172.5850  141.9790 C   0  0  0  0  0  3  0  0  0  0  0  0
  187.3710  175.6600  142.3100 N   0  0  0  0  0  2  0  0  0  0  0  0
  188.3920  174.6610  142.2020 C   0  0  0  0  0  0  0  0  0  0  0  0
  189.6510  172.4840  139.6980 N   0  0  0  0  0  2  0  0  0  0  0  0
  184.3520  178.2600  146.7550 N   0  0  0  0  0  2  0  0  0  0  0  0
  185.3460  178.9700  145.9360 C   0  0  2  0  0  3  0  0  0  0  0  0
  183.9440  178.9580  145.5300 C   0  0  0  0  0  2  0  0  0  0  0  0
  191.0630  172.7220  144.3080 C   0  0  0  0  0  2  0  0  0  0  0  0
  192.5360  172.9170  143.9850 C   0  0  0  0  0  2  0  0  0  0  0  0
  193.0450  174.2250  144.5630 C   0  0  1  0  0  0  0  0  0  0  0  0
  194.7370  176.6330  145.3080 O   0  0  0  0  0  0  0  0  0  0  0  0
  193.1970  175.3200  143.6060 C   0  0  0  0  0  2  0  0  0  0  0  0
  194.1200  176.5160  146.5650 C   0  0  0  0  0  2  0  0  0  0  0  0
  192.7130  175.9750  146.4240 C   0  0  0  0  0  2  0  0  0  0  0  0
  192.7780  174.5010  146.0560 C   0  0  0  0  0  2  0  0  0  0  0  0
  195.2660  175.3780  144.8990 C   0  0  2  0  0  3  0  0  0  0  0  0
  194.3930  174.5540  144.0330 N   0  0  1  0  0  0  0  0  0  0  0  0
  196.0270  174.5520  145.9500 C   0  0  0  0  0  2  0  0  0  0  0  0
  197.9400  174.1980  144.3170 S   0  0  0  0  0  0  0  0  0  0  0  0
  197.0470  173.6650  145.3090 C   0  0  0  0  0  0  0  0  0  0  0  0
  195.6190  171.8420  145.8060 O   0  0  0  0  0  1  0  0  0  0  0  0
  196.9340  172.1870  145.4890 C   0  0  0  0  0  2  0  0  0  0  0  0
  1 10  1  0  0  0  0
  1 18  1  0  0  0  0
  3 13  2  0  0  0  0
  4  6  1  0  0  0  0
  5  7  1  0  0  0  0
  6  2  1  0  0  0  0
  7  6  2  0  0  0  0
  8  5  1  0  0  0  0
  8  4  2  0  0  0  0
  9  3  1  0  0  0  0
  9 11  1  0  0  0  0
 11  1  2  0  0  0  0
 12  8  1  0  0  0  0
 13 12  1  0  0  0  0
 13 10  1  0  0  0  0
 14  9  2  0  0  0  0
 16  7  1  6  0  0  0
 16 15  1  0  0  0  0
 17 16  1  0  0  0  0
 17 15  1  0  0  0  0
 19 18  1  0  0  0  0
 20 19  1  6  0  0  0
 20 25  1  0  0  0  0
 21 23  1  0  0  0  0
 22 20  1  0  0  0  0
 24 23  1  0  0  0  0
 25 24  1  0  0  0  0
 26 21  1  0  0  0  0
 26 28  1  1  0  0  0
 27 22  1  6  0  0  0
 27 20  1  0  0  0  0
 27 26  1  0  0  0  0
 29 30  2  0  0  0  0
 30 32  1  0  0  0  0
 30 28  1  0  0  0  0
 32 31  1  0  0  0  0
M  END
>  <MODEL>
2

>  <REMARK>
 VINA RESULT:      -6.9      3.443      8.119
  Name = 
  7 active torsions:
  status: ('A' for Active; 'I' for Inactive)
    1  A    between atoms: C_1  and  C_29
    2  A    between atoms: C_5  and  C_13
    3  A    between atoms: C_7  and  C_9
    4  A    between atoms: C_7  and  C_29
    5  A    between atoms: C_14  and  C_17
    6  A    between atoms: C_14  and  C_22
    7  A    between atoms: C_17  and  C_28
                            x       y       z     vdW  Elec       q    Type
                         _______ _______ _______ _____ _____    ______ ____

>  <TORSDO>
F 7

$$$$
=
 OpenBabel11062420383D

 32 36  0  0  1  0  0  0  0  0999 V2000
  188.4100  177.1880  144.9790 C   0  0  0  0  0  0  0  0  0  0  0  0
  192.0780  173.9090  141.3960 N   0  0  0  0  0  1  0  0  0  0  0  0
  186.2190  176.5990  143.2840 N   0  0  0  0  0  0  0  0  0  0  0  0
  189.8100  174.7050  141.7480 N   0  0  0  0  0  0  0  0  0  0  0  0
  188.5680  173.8040  139.7440 S   0  0  0  0  0  0  0  0  0  0  0  0
  190.7120  174.0100  141.0060 C   0  0  0  0  0  0  0  0  0  0  0  0
  190.2040  173.4180  139.8510 C   0  0  0  0  0  0  0  0  0  0  0  0
  188.5830  174.6800  141.1810 C   0  0  0  0  0  0  0  0  0  0  0  0
  186.0530  177.3770  144.4710 C   0  0  0  0  0  0  0  0  0  0  0  0
  188.5850  176.2360  143.8230 C   0  0  0  0  0  2  0  0  0  0  0  0
  187.2170  177.6910  145.2980 C   0  0  0  0  0  3  0  0  0  0  0  0
  187.4260  175.3240  141.7260 N   0  0  0  0  0  2  0  0  0  0  0  0
  187.3620  176.0810  142.9400 C   0  0  0  0  0  0  0  0  0  0  0  0
  184.8930  177.8470  144.7800 N   0  0  0  0  0  2  0  0  0  0  0  0
  191.4420  173.5640  137.7660 N   0  0  0  0  0  2  0  0  0  0  0  0
  190.9900  172.6560  138.8310 C   0  0  2  0  0  3  0  0  0  0  0  0
  190.2980  172.6710  137.5470 C   0  0  0  0  0  2  0  0  0  0  0  0
  189.5920  177.4960  145.8310 C   0  0  0  0  0  2  0  0  0  0  0  0
  190.2550  176.2120  146.3020 C   0  0  0  0  0  2  0  0  0  0  0  0
  191.7200  176.1870  145.9070 C   0  0  1  0  0  0  0  0  0  0  0  0
  194.4020  175.5120  144.6530 O   0  0  0  0  0  0  0  0  0  0  0  0
  192.0150  176.6440  144.5490 C   0  0  0  0  0  2  0  0  0  0  0  0
  194.9260  175.8190  145.9200 C   0  0  0  0  0  2  0  0  0  0  0  0
  194.0990  176.8920  146.5970 C   0  0  0  0  0  2  0  0  0  0  0  0
  192.7690  176.2990  147.0310 C   0  0  0  0  0  2  0  0  0  0  0  0
  193.3210  174.5950  144.7760 C   0  0  2  0  0  3  0  0  0  0  0  0
  191.9660  175.1900  144.8340 N   0  0  1  0  0  0  0  0  0  0  0  0
  193.5020  173.4090  145.7370 C   0  0  0  0  0  2  0  0  0  0  0  0
  192.9700  171.4870  144.1640 S   0  0  0  0  0  0  0  0  0  0  0  0
  193.9140  172.1730  145.0020 C   0  0  0  0  0  0  0  0  0  0  0  0
  196.1330  172.4620  145.7780 O   0  0  0  0  0  1  0  0  0  0  0  0
  195.1990  171.5080  145.3710 C   0  0  0  0  0  2  0  0  0  0  0  0
  1 11  2  0  0  0  0
  1 18  1  0  0  0  0
  3  9  1  0  0  0  0
  5  7  1  0  0  0  0
  5  8  1  0  0  0  0
  6  2  1  0  0  0  0
  6  4  1  0  0  0  0
  7  6  2  0  0  0  0
  8 12  1  0  0  0  0
  8  4  2  0  0  0  0
  9 14  2  0  0  0  0
  9 11  1  0  0  0  0
 10  1  1  0  0  0  0
 12 13  1  0  0  0  0
 13  3  2  0  0  0  0
 13 10  1  0  0  0  0
 15 16  1  0  0  0  0
 16  7  1  1  0  0  0
 17 15  1  0  0  0  0
 17 16  1  0  0  0  0
 18 19  1  0  0  0  0
 20 19  1  1  0  0  0
 20 25  1  0  0  0  0
 21 26  1  0  0  0  0
 21 23  1  0  0  0  0
 22 20  1  0  0  0  0
 23 24  1  0  0  0  0
 24 25  1  0  0  0  0
 26 27  1  0  0  0  0
 26 28  1  1  0  0  0
 27 22  1  6  0  0  0
 27 20  1  0  0  0  0
 29 30  2  0  0  0  0
 30 32  1  0  0  0  0
 30 28  1  0  0  0  0
 32 31  1  0  0  0  0
M  END
>  <MODEL>
3

>  <REMARK>
 VINA RESULT:      -6.5      3.213      6.733
  Name = 
  7 active torsions:
  status: ('A' for Active; 'I' for Inactive)
    1  A    between atoms: C_1  and  C_29
    2  A    between atoms: C_5  and  C_13
    3  A    between atoms: C_7  and  C_9
    4  A    between atoms: C_7  and  C_29
    5  A    between atoms: C_14  and  C_17
    6  A    between atoms: C_14  and  C_22
    7  A    between atoms: C_17  and  C_28
                            x       y       z     vdW  Elec       q    Type
                         _______ _______ _______ _____ _____    ______ ____

>  <TORSDO>
F 7

$$$$
=
 OpenBabel11062420383D

 32 36  0  0  1  0  0  0  0  0999 V2000
  189.6980  173.3620  141.4060 C   0  0  0  0  0  0  0  0  0  0  0  0
  187.6630  176.3550  146.3000 N   0  0  0  0  0  1  0  0  0  0  0  0
  188.0800  174.9800  139.7380 N   0  0  0  0  0  0  0  0  0  0  0  0
  187.5420  176.1530  143.8820 N   0  0  0  0  0  0  0  0  0  0  0  0
  185.8150  177.8800  143.2470 S   0  0  0  0  0  0  0  0  0  0  0  0
  187.1390  176.7480  145.0350 C   0  0  0  0  0  0  0  0  0  0  0  0
  186.1850  177.7520  144.8860 C   0  0  0  0  0  0  0  0  0  0  0  0
  186.9030  176.6730  142.8110 C   0  0  0  0  0  0  0  0  0  0  0  0
  188.9450  173.9810  139.1940 C   0  0  0  0  0  0  0  0  0  0  0  0
  188.9170  174.5090  141.9950 C   0  0  0  0  0  2  0  0  0  0  0  0
  189.7350  173.1410  140.0920 C   0  0  0  0  0  3  0  0  0  0  0  0
  187.1130  176.2500  141.4590 N   0  0  0  0  0  2  0  0  0  0  0  0
  188.0200  175.2350  141.0120 C   0  0  0  0  0  0  0  0  0  0  0  0
  188.9860  173.7850  137.9200 N   0  0  0  0  0  2  0  0  0  0  0  0
  184.3970  177.7490  146.5310 N   0  0  0  0  0  2  0  0  0  0  0  0
  185.5290  178.5180  145.9920 C   0  0  2  0  0  3  0  0  0  0  0  0
  184.1650  178.8740  145.6180 C   0  0  0  0  0  2  0  0  0  0  0  0
  190.5140  172.5150  142.3190 C   0  0  0  0  0  2  0  0  0  0  0  0
  190.7280  173.2220  143.6490 C   0  0  0  0  0  2  0  0  0  0  0  0
  192.2070  173.4470  143.9060 C   0  0  1  0  0  0  0  0  0  0  0  0
  194.8960  174.0610  145.1750 O   0  0  0  0  0  0  0  0  0  0  0  0
  192.8680  172.4270  144.7200 C   0  0  0  0  0  2  0  0  0  0  0  0
  195.1940  174.6690  143.9430 C   0  0  0  0  0  2  0  0  0  0  0  0
  194.4800  173.9610  142.8100 C   0  0  0  0  0  2  0  0  0  0  0  0
  192.9960  174.2800  142.8770 C   0  0  0  0  0  2  0  0  0  0  0  0
  193.6490  174.5350  145.6700 C   0  0  2  0  0  3  0  0  0  0  0  0
  192.4630  173.7090  145.3450 N   0  0  1  0  0  0  0  0  0  0  0  0
  193.3770  176.0450  145.5790 C   0  0  0  0  0  2  0  0  0  0  0  0
  191.0330  176.9050  145.1110 S   0  0  0  0  0  0  0  0  0  0  0  0
  191.9930  176.3760  146.0400 C   0  0  0  0  0  0  0  0  0  0  0  0
  190.9170  175.3440  147.8810 O   0  0  0  0  0  1  0  0  0  0  0  0
  191.7140  176.4270  147.5060 C   0  0  0  0  0  2  0  0  0  0  0  0
  1 10  1  0  0  0  0
  1 18  1  0  0  0  0
  3 13  2  0  0  0  0
  4  6  1  0  0  0  0
  5  7  1  0  0  0  0
  6  2  1  0  0  0  0
  7  6  2  0  0  0  0
  8  5  1  0  0  0  0
  8  4  2  0  0  0  0
  9  3  1  0  0  0  0
  9 11  1  0  0  0  0
 11  1  2  0  0  0  0
 12  8  1  0  0  0  0
 13 12  1  0  0  0  0
 13 10  1  0  0  0  0
 14  9  2  0  0  0  0
 16  7  1  6  0  0  0
 16 15  1  0  0  0  0
 17 16  1  0  0  0  0
 17 15  1  0  0  0  0
 18 19  1  0  0  0  0
 20 19  1  6  0  0  0
 20 22  1  0  0  0  0
 20 27  1  0  0  0  0
 21 26  1  0  0  0  0
 23 21  1  0  0  0  0
 24 25  1  0  0  0  0
 24 23  1  0  0  0  0
 25 20  1  0  0  0  0
 26 28  1  6  0  0  0
 27 22  1  1  0  0  0
 27 26  1  0  0  0  0
 28 30  1  0  0  0  0
 29 30  2  0  0  0  0
 30 32  1  0  0  0  0
 32 31  1  0  0  0  0
M  END
>  <MODEL>
4

>  <REMARK>
 VINA RESULT:      -6.4      2.816      7.493
  Name = 
  7 active torsions:
  status: ('A' for Active; 'I' for Inactive)
    1  A    between atoms: C_1  and  C_29
    2  A    between atoms: C_5  and  C_13
    3  A    between atoms: C_7  and  C_9
    4  A    between atoms: C_7  and  C_29
    5  A    between atoms: C_14  and  C_17
    6  A    between atoms: C_14  and  C_22
    7  A    between atoms: C_17  and  C_28
                            x       y       z     vdW  Elec       q    Type
                         _______ _______ _______ _____ _____    ______ ____

>  <TORSDO>
F 7

$$$$
=
 OpenBabel11062420383D

 32 36  0  0  1  0  0  0  0  0999 V2000
  191.2930  174.0200  143.8080 C   0  0  0  0  0  0  0  0  0  0  0  0
  187.7050  177.6230  147.1530 N   0  0  0  0  0  1  0  0  0  0  0  0
  189.7690  174.6350  141.5020 N   0  0  0  0  0  0  0  0  0  0  0  0
  188.1410  176.7330  144.9360 N   0  0  0  0  0  0  0  0  0  0  0  0
  186.2720  177.7080  143.5480 S   0  0  0  0  0  0  0  0  0  0  0  0
  187.3910  177.5000  145.7700 C   0  0  0  0  0  0  0  0  0  0  0  0
  186.3060  178.1410  145.1750 C   0  0  0  0  0  0  0  0  0  0  0  0
  187.6500  176.7510  143.6760 C   0  0  0  0  0  0  0  0  0  0  0  0
  190.9140  173.7830  141.4320 C   0  0  0  0  0  0  0  0  0  0  0  0
  190.1890  175.0430  143.8840 C   0  0  0  0  0  2  0  0  0  0  0  0
  191.6510  173.4590  142.6530 C   0  0  0  0  0  3  0  0  0  0  0  0
  188.2220  176.0380  142.5740 N   0  0  0  0  0  2  0  0  0  0  0  0
  189.3910  175.2090  142.6060 C   0  0  0  0  0  0  0  0  0  0  0  0
  191.2620  173.2580  140.3070 N   0  0  0  0  0  2  0  0  0  0  0  0
  184.1990  178.1420  146.3850 N   0  0  0  0  0  2  0  0  0  0  0  0
  185.2890  178.9880  145.8760 C   0  0  2  0  0  3  0  0  0  0  0  0
  184.0170  178.9370  145.1650 C   0  0  0  0  0  2  0  0  0  0  0  0
  192.0530  173.7010  145.0480 C   0  0  0  0  0  2  0  0  0  0  0  0
  192.6580  174.9650  145.6390 C   0  0  0  0  0  2  0  0  0  0  0  0
  194.1330  175.0660  145.2960 C   0  0  1  0  0  0  0  0  0  0  0  0
  196.7910  175.6470  143.9480 O   0  0  0  0  0  0  0  0  0  0  0  0
  194.7150  176.4040  145.4000 C   0  0  0  0  0  2  0  0  0  0  0  0
  197.1650  174.3810  144.4300 C   0  0  0  0  0  2  0  0  0  0  0  0
  196.4700  174.0790  145.7410 C   0  0  0  0  0  2  0  0  0  0  0  0
  194.9990  173.8040  145.4750 C   0  0  0  0  0  2  0  0  0  0  0  0
  195.5460  175.5660  143.2640 C   0  0  2  0  0  3  0  0  0  0  0  0
  194.3400  175.8730  144.0670 N   0  0  1  0  0  0  0  0  0  0  0  0
  195.3430  174.3880  142.2960 C   0  0  0  0  0  2  0  0  0  0  0  0
  194.5930  175.1250  139.9850 S   0  0  0  0  0  0  0  0  0  0  0  0
  195.6560  174.7830  140.8880 C   0  0  0  0  0  0  0  0  0  0  0  0
  197.7200  175.7430  140.2340 O   0  0  0  0  0  1  0  0  0  0  0  0
  197.0300  174.5370  140.3570 C   0  0  0  0  0  2  0  0  0  0  0  0
  1 10  1  0  0  0  0
  1 18  1  0  0  0  0
  3 13  2  0  0  0  0
  4  6  1  0  0  0  0
  5  8  1  0  0  0  0
  5  7  1  0  0  0  0
  6  2  1  0  0  0  0
  7  6  2  0  0  0  0
  8  4  2  0  0  0  0
  9  3  1  0  0  0  0
  9 11  1  0  0  0  0
 11  1  2  0  0  0  0
 12 13  1  0  0  0  0
 12  8  1  0  0  0  0
 13 10  1  0  0  0  0
 14  9  2  0  0  0  0
 16  7  1  6  0  0  0
 16 15  1  0  0  0  0
 17 16  1  0  0  0  0
 17 15  1  0  0  0  0
 18 19  1  0  0  0  0
 20 22  1  0  0  0  0
 20 25  1  0  0  0  0
 20 19  1  1  0  0  0
 21 23  1  0  0  0  0
 23 24  1  0  0  0  0
 25 24  1  0  0  0  0
 26 28  1  1  0  0  0
 26 21  1  0  0  0  0
 26 27  1  0  0  0  0
 27 20  1  0  0  0  0
 27 22  1  1  0  0  0
 29 30  2  0  0  0  0
 30 28  1  0  0  0  0
 31 32  1  0  0  0  0
 32 30  1  0  0  0  0
M  END
>  <MODEL>
5

>  <REMARK>
 VINA RESULT:      -6.4      3.800      7.963
  Name = 
  7 active torsions:
  status: ('A' for Active; 'I' for Inactive)
    1  A    between atoms: C_1  and  C_29
    2  A    between atoms: C_5  and  C_13
    3  A    between atoms: C_7  and  C_9
    4  A    between atoms: C_7  and  C_29
    5  A    between atoms: C_14  and  C_17
    6  A    between atoms: C_14  and  C_22
    7  A    between atoms: C_17  and  C_28
                            x       y       z     vdW  Elec       q    Type
                         _______ _______ _______ _____ _____    ______ ____

>  <TORSDO>
F 7

$$$$
=
 OpenBabel11062420383D

 32 36  0  0  1  0  0  0  0  0999 V2000
  188.9230  177.1090  144.5570 C   0  0  0  0  0  0  0  0  0  0  0  0
  192.0840  173.7480  140.5870 N   0  0  0  0  0  1  0  0  0  0  0  0
  186.5010  176.1160  143.4760 N   0  0  0  0  0  0  0  0  0  0  0  0
  189.8700  174.3750  141.3630 N   0  0  0  0  0  0  0  0  0  0  0  0
  188.3370  173.1210  139.7990 S   0  0  0  0  0  0  0  0  0  0  0  0
  190.6640  173.6760  140.5110 C   0  0  0  0  0  0  0  0  0  0  0  0
  189.9910  172.9010  139.5690 C   0  0  0  0  0  0  0  0  0  0  0  0
  188.5610  174.1680  141.0970 C   0  0  0  0  0  0  0  0  0  0  0  0
  186.5070  177.0200  144.5830 C   0  0  0  0  0  0  0  0  0  0  0  0
  188.9530  176.0390  143.4960 C   0  0  0  0  0  2  0  0  0  0  0  0
  187.7780  177.5390  145.0870 C   0  0  0  0  0  3  0  0  0  0  0  0
  187.4820  174.7690  141.8230 N   0  0  0  0  0  2  0  0  0  0  0  0
  187.5950  175.6650  142.9360 C   0  0  0  0  0  0  0  0  0  0  0  0
  185.3940  177.4180  145.0990 N   0  0  0  0  0  2  0  0  0  0  0  0
  190.8230  172.9250  137.2870 N   0  0  0  0  0  2  0  0  0  0  0  0
  190.6210  172.0900  138.4800 C   0  0  2  0  0  3  0  0  0  0  0  0
  189.7090  171.9720  137.3480 C   0  0  0  0  0  2  0  0  0  0  0  0
  190.2170  177.6270  145.0800 C   0  0  0  0  0  2  0  0  0  0  0  0
  191.2880  177.5660  144.0020 C   0  0  0  0  0  2  0  0  0  0  0  0
  192.3980  176.6110  144.4000 C   0  0  1  0  0  0  0  0  0  0  0  0
  194.2580  174.2240  144.6410 O   0  0  0  0  0  0  0  0  0  0  0  0
  193.4500  176.4160  143.4030 C   0  0  0  0  0  2  0  0  0  0  0  0
  194.2600  174.5270  146.0130 C   0  0  0  0  0  2  0  0  0  0  0  0
  194.1070  176.0170  146.2330 C   0  0  0  0  0  2  0  0  0  0  0  0
  192.6810  176.4280  145.9040 C   0  0  0  0  0  2  0  0  0  0  0  0
  192.9240  174.1540  144.1530 C   0  0  2  0  0  3  0  0  0  0  0  0
  192.3850  175.3940  143.5490 N   0  0  1  0  0  0  0  0  0  0  0  0
  191.8930  173.4030  145.0120 C   0  0  0  0  0  2  0  0  0  0  0  0
  189.6910  172.2920  144.4030 S   0  0  0  0  0  0  0  0  0  0  0  0
  191.1050  172.4330  144.1890 C   0  0  0  0  0  0  0  0  0  0  0  0
  190.9580  170.8050  142.4750 O   0  0  0  0  0  1  0  0  0  0  0  0
  191.8360  171.4240  143.3670 C   0  0  0  0  0  2  0  0  0  0  0  0
  1 18  1  0  0  0  0
  1 11  2  0  0  0  0
  3  9  1  0  0  0  0
  5  8  1  0  0  0  0
  6  2  1  0  0  0  0
  6  4  1  0  0  0  0
  7  5  1  0  0  0  0
  7  6  2  0  0  0  0
  8  4  2  0  0  0  0
  8 12  1  0  0  0  0
  9 11  1  0  0  0  0
  9 14  2  0  0  0  0
 10  1  1  0  0  0  0
 12 13  1  0  0  0  0
 13  3  2  0  0  0  0
 13 10  1  0  0  0  0
 15 17  1  0  0  0  0
 15 16  1  0  0  0  0
 16  7  1  1  0  0  0
 17 16  1  0  0  0  0
 19 18  1  0  0  0  0
 20 19  1  6  0  0  0
 20 25  1  0  0  0  0
 21 23  1  0  0  0  0
 22 20  1  0  0  0  0
 23 24  1  0  0  0  0
 25 24  1  0  0  0  0
 26 21  1  0  0  0  0
 26 28  1  1  0  0  0
 27 22  1  6  0  0  0
 27 26  1  0  0  0  0
 27 20  1  0  0  0  0
 30 29  2  0  0  0  0
 30 28  1  0  0  0  0
 31 32  1  0  0  0  0
 32 30  1  0  0  0  0
M  END
>  <MODEL>
6

>  <REMARK>
 VINA RESULT:      -6.3      3.174      6.047
  Name = 
  7 active torsions:
  status: ('A' for Active; 'I' for Inactive)
    1  A    between atoms: C_1  and  C_29
    2  A    between atoms: C_5  and  C_13
    3  A    between atoms: C_7  and  C_9
    4  A    between atoms: C_7  and  C_29
    5  A    between atoms: C_14  and  C_17
    6  A    between atoms: C_14  and  C_22
    7  A    between atoms: C_17  and  C_28
                            x       y       z     vdW  Elec       q    Type
                         _______ _______ _______ _____ _____    ______ ____

>  <TORSDO>
F 7

$$$$
=
 OpenBabel11062420383D

 32 36  0  0  1  0  0  0  0  0999 V2000
  188.1780  174.6300  139.9720 C   0  0  0  0  0  0  0  0  0  0  0  0
  188.3180  175.8700  145.9290 N   0  0  0  0  0  1  0  0  0  0  0  0
  186.6600  176.9760  139.5140 N   0  0  0  0  0  0  0  0  0  0  0  0
  187.5300  176.5980  143.7500 N   0  0  0  0  0  0  0  0  0  0  0  0
  186.2050  178.6780  144.2850 S   0  0  0  0  0  0  0  0  0  0  0  0
  187.6060  176.7780  145.0950 C   0  0  0  0  0  0  0  0  0  0  0  0
  186.9390  177.8990  145.5850 C   0  0  0  0  0  0  0  0  0  0  0  0
  186.7930  177.5690  143.1650 C   0  0  0  0  0  0  0  0  0  0  0  0
  187.0660  176.1310  138.4370 C   0  0  0  0  0  0  0  0  0  0  0  0
  187.8990  175.5820  141.1070 C   0  0  0  0  0  2  0  0  0  0  0  0
  187.8160  174.9080  138.7190 C   0  0  0  0  0  3  0  0  0  0  0  0
  186.5310  177.6500  141.7600 N   0  0  0  0  0  2  0  0  0  0  0  0
  186.9980  176.7470  140.7490 C   0  0  0  0  0  0  0  0  0  0  0  0
  186.7250  176.4170  137.2260 N   0  0  0  0  0  2  0  0  0  0  0  0
  185.6570  177.6080  147.6290 N   0  0  0  0  0  2  0  0  0  0  0  0
  186.8110  178.2910  147.0240 C   0  0  2  0  0  3  0  0  0  0  0  0
  185.5660  179.0200  147.2390 C   0  0  0  0  0  2  0  0  0  0  0  0
  188.9540  173.3920  140.2570 C   0  0  0  0  0  2  0  0  0  0  0  0
  188.6110  172.8570  141.6390 C   0  0  0  0  0  2  0  0  0  0  0  0
  189.8550  172.7720  142.5060 C   0  0  1  0  0  0  0  0  0  0  0  0
  191.9620  173.1990  144.6490 O   0  0  0  0  0  0  0  0  0  0  0  0
  189.6590  172.1890  143.8330 C   0  0  0  0  0  2  0  0  0  0  0  0
  192.8800  172.9720  143.6100 C   0  0  0  0  0  2  0  0  0  0  0  0
  192.3110  172.0040  142.5940 C   0  0  0  0  0  2  0  0  0  0  0  0
  191.2210  172.6990  141.7960 C   0  0  0  0  0  2  0  0  0  0  0  0
  191.0070  174.1780  144.2580 C   0  0  2  0  0  3  0  0  0  0  0  0
  189.7410  173.6620  143.6890 N   0  0  1  0  0  0  0  0  0  0  0  0
  191.5290  175.4300  143.5330 C   0  0  0  0  0  2  0  0  0  0  0  0
  191.1720  177.9190  143.8880 S   0  0  0  0  0  0  0  0  0  0  0  0
  191.4980  176.6280  144.4280 C   0  0  0  0  0  0  0  0  0  0  0  0
  193.4670  176.7040  145.7420 O   0  0  0  0  0  1  0  0  0  0  0  0
  192.0840  176.5220  145.7970 C   0  0  0  0  0  2  0  0  0  0  0  0
  1 18  1  0  0  0  0
  1 10  1  0  0  0  0
  3 13  2  0  0  0  0
  4  6  1  0  0  0  0
  5  7  1  0  0  0  0
  6  7  2  0  0  0  0
  6  2  1  0  0  0  0
  8  4  2  0  0  0  0
  8  5  1  0  0  0  0
  9 11  1  0  0  0  0
  9  3  1  0  0  0  0
 11  1  2  0  0  0  0
 12  8  1  0  0  0  0
 13 10  1  0  0  0  0
 13 12  1  0  0  0  0
 14  9  2  0  0  0  0
 16  7  1  6  0  0  0
 16 17  1  0  0  0  0
 16 15  1  0  0  0  0
 17 15  1  0  0  0  0
 18 19  1  0  0  0  0
 20 19  1  6  0  0  0
 20 27  1  0  0  0  0
 20 22  1  0  0  0  0
 23 21  1  0  0  0  0
 24 23  1  0  0  0  0
 25 20  1  0  0  0  0
 25 24  1  0  0  0  0
 26 28  1  6  0  0  0
 26 21  1  0  0  0  0
 27 22  1  1  0  0  0
 27 26  1  0  0  0  0
 28 30  1  0  0  0  0
 29 30  2  0  0  0  0
 30 32  1  0  0  0  0
 31 32  1  0  0  0  0
M  END
>  <MODEL>
7

>  <REMARK>
 VINA RESULT:      -6.2      3.179      7.698
  Name = 
  7 active torsions:
  status: ('A' for Active; 'I' for Inactive)
    1  A    between atoms: C_1  and  C_29
    2  A    between atoms: C_5  and  C_13
    3  A    between atoms: C_7  and  C_9
    4  A    between atoms: C_7  and  C_29
    5  A    between atoms: C_14  and  C_17
    6  A    between atoms: C_14  and  C_22
    7  A    between atoms: C_17  and  C_28
                            x       y       z     vdW  Elec       q    Type
                         _______ _______ _______ _____ _____    ______ ____

>  <TORSDO>
F 7

$$$$
=
 OpenBabel11062420383D

 32 36  0  0  1  0  0  0  0  0999 V2000
  191.8000  174.8150  145.5950 C   0  0  0  0  0  0  0  0  0  0  0  0
  188.5820  172.6440  140.9080 N   0  0  0  0  0  1  0  0  0  0  0  0
  194.2060  174.1750  144.2470 N   0  0  0  0  0  0  0  0  0  0  0  0
  190.8080  173.0410  141.7960 N   0  0  0  0  0  0  0  0  0  0  0  0
  192.3170  172.0880  140.0120 S   0  0  0  0  0  0  0  0  0  0  0  0
  190.0010  172.5690  140.8100 C   0  0  0  0  0  0  0  0  0  0  0  0
  190.6600  172.0090  139.7170 C   0  0  0  0  0  0  0  0  0  0  0  0
  192.1120  172.8500  141.4980 C   0  0  0  0  0  0  0  0  0  0  0  0
  194.2170  174.8150  145.5240 C   0  0  0  0  0  0  0  0  0  0  0  0
  191.7560  174.2840  144.1860 C   0  0  0  0  0  2  0  0  0  0  0  0
  192.9530  175.0940  146.2040 C   0  0  0  0  0  3  0  0  0  0  0  0
  193.2010  173.2400  142.3420 N   0  0  0  0  0  2  0  0  0  0  0  0
  193.1050  173.8930  143.6140 C   0  0  0  0  0  0  0  0  0  0  0  0
  195.3370  175.0960  146.0980 N   0  0  0  0  0  2  0  0  0  0  0  0
  190.1110  169.9000  138.6450 N   0  0  0  0  0  2  0  0  0  0  0  0
  190.0130  171.3630  138.5330 C   0  0  2  0  0  3  0  0  0  0  0  0
  191.0080  170.6390  137.7490 C   0  0  0  0  0  2  0  0  0  0  0  0
  190.5130  175.1120  146.2830 C   0  0  0  0  0  2  0  0  0  0  0  0
  190.1280  176.5690  146.0790 C   0  0  0  0  0  2  0  0  0  0  0  0
  189.1830  176.7140  144.8990 C   0  0  1  0  0  0  0  0  0  0  0  0
  187.0020  177.6200  142.9920 O   0  0  0  0  0  0  0  0  0  0  0  0
  189.4100  177.8830  144.0500 C   0  0  0  0  0  2  0  0  0  0  0  0
  186.8330  176.2480  142.7380 C   0  0  0  0  0  2  0  0  0  0  0  0
  188.1510  175.5130  142.8690 C   0  0  0  0  0  2  0  0  0  0  0  0
  188.5350  175.4340  144.3370 C   0  0  0  0  0  2  0  0  0  0  0  0
  186.9940  177.8660  144.3930 C   0  0  2  0  0  3  0  0  0  0  0  0
  188.3190  177.9120  145.0540 N   0  0  1  0  0  0  0  0  0  0  0  0
  185.9240  177.1500  145.2340 C   0  0  0  0  0  2  0  0  0  0  0  0
  184.2450  179.0320  144.9370 S   0  0  0  0  0  0  0  0  0  0  0  0
  184.9420  178.1230  145.8050 C   0  0  0  0  0  0  0  0  0  0  0  0
  186.0190  177.7290  147.8770 O   0  0  0  0  0  1  0  0  0  0  0  0
  184.9130  178.3370  147.2820 C   0  0  0  0  0  2  0  0  0  0  0  0
  1 11  2  0  0  0  0
  1 18  1  0  0  0  0
  3  9  1  0  0  0  0
  5  8  1  0  0  0  0
  6  2  1  0  0  0  0
  6  4  1  0  0  0  0
  7  5  1  0  0  0  0
  7  6  2  0  0  0  0
  8  4  2  0  0  0  0
  8 12  1  0  0  0  0
  9 14  2  0  0  0  0
  9 11  1  0  0  0  0
 10  1  1  0  0  0  0
 12 13  1  0  0  0  0
 13 10  1  0  0  0  0
 13  3  2  0  0  0  0
 16 15  1  0  0  0  0
 16  7  1  1  0  0  0
 17 16  1  0  0  0  0
 17 15  1  0  0  0  0
 19 18  1  0  0  0  0
 20 27  1  0  0  0  0
 20 19  1  1  0  0  0
 21 26  1  0  0  0  0
 22 20  1  0  0  0  0
 23 24  1  0  0  0  0
 23 21  1  0  0  0  0
 24 25  1  0  0  0  0
 25 20  1  0  0  0  0
 26 27  1  0  0  0  0
 26 28  1  1  0  0  0
 27 22  1  6  0  0  0
 28 30  1  0  0  0  0
 29 30  2  0  0  0  0
 30 32  1  0  0  0  0
 32 31  1  0  0  0  0
M  END
>  <MODEL>
8

>  <REMARK>
 VINA RESULT:      -6.2      1.758      2.855
  Name = 
  7 active torsions:
  status: ('A' for Active; 'I' for Inactive)
    1  A    between atoms: C_1  and  C_29
    2  A    between atoms: C_5  and  C_13
    3  A    between atoms: C_7  and  C_9
    4  A    between atoms: C_7  and  C_29
    5  A    between atoms: C_14  and  C_17
    6  A    between atoms: C_14  and  C_22
    7  A    between atoms: C_17  and  C_28
                            x       y       z     vdW  Elec       q    Type
                         _______ _______ _______ _____ _____    ______ ____

>  <TORSDO>
F 7

$$$$
=
 OpenBabel11062420383D

 32 36  0  0  1  0  0  0  0  0999 V2000
  189.6490  175.9620  146.3090 C   0  0  0  0  0  0  0  0  0  0  0  0
  191.5040  172.7180  141.5050 N   0  0  0  0  0  1  0  0  0  0  0  0
  187.3860  176.8390  144.8500 N   0  0  0  0  0  0  0  0  0  0  0  0
  189.7990  174.2140  142.3740 N   0  0  0  0  0  0  0  0  0  0  0  0
  188.2560  174.5320  140.4030 S   0  0  0  0  0  0  0  0  0  0  0  0
  190.3050  173.4710  141.3550 C   0  0  0  0  0  0  0  0  0  0  0  0
  189.5730  173.5080  140.1700 C   0  0  0  0  0  0  0  0  0  0  0  0
  188.6690  174.8550  142.0010 C   0  0  0  0  0  0  0  0  0  0  0  0
  187.5900  177.2250  146.2110 C   0  0  0  0  0  0  0  0  0  0  0  0
  189.3810  175.4130  144.9320 C   0  0  0  0  0  2  0  0  0  0  0  0
  188.7910  176.7820  146.9170 C   0  0  0  0  0  3  0  0  0  0  0  0
  187.9070  175.7150  142.8560 N   0  0  0  0  0  2  0  0  0  0  0  0
  188.1930  176.0340  144.2230 C   0  0  0  0  0  0  0  0  0  0  0  0
  186.7460  178.0060  146.7950 N   0  0  0  0  0  2  0  0  0  0  0  0
  190.6900  173.7690  138.0280 N   0  0  0  0  0  2  0  0  0  0  0  0
  189.9410  172.8360  138.8840 C   0  0  2  0  0  3  0  0  0  0  0  0
  189.2730  173.4920  137.7640 C   0  0  0  0  0  2  0  0  0  0  0  0
  190.8650  175.5000  147.0340 C   0  0  0  0  0  2  0  0  0  0  0  0
  192.0680  176.3430  146.6430 C   0  0  0  0  0  2  0  0  0  0  0  0
  193.1230  175.4910  145.9610 C   0  0  1  0  0  0  0  0  0  0  0  0
  195.3900  174.4880  144.2080 O   0  0  0  0  0  0  0  0  0  0  0  0
  194.5070  175.7750  146.3420 C   0  0  0  0  0  2  0  0  0  0  0  0
  194.6260  173.3110  144.1160 C   0  0  0  0  0  2  0  0  0  0  0  0
  193.8370  173.0830  145.3880 C   0  0  0  0  0  2  0  0  0  0  0  0
  192.7050  174.0940  145.4620 C   0  0  0  0  0  2  0  0  0  0  0  0
  194.5860  175.6220  143.9070 C   0  0  2  0  0  3  0  0  0  0  0  0
  193.9760  176.3140  145.0660 N   0  0  1  0  0  0  0  0  0  0  0  0
  193.6430  175.5230  142.6980 C   0  0  0  0  0  2  0  0  0  0  0  0
  194.3930  174.5930  140.4560 S   0  0  0  0  0  0  0  0  0  0  0  0
  194.3930  175.6660  141.4110 C   0  0  0  0  0  0  0  0  0  0  0  0
  196.6670  176.3280  141.4410 O   0  0  0  0  0  1  0  0  0  0  0  0
  195.3630  176.7920  141.2630 C   0  0  0  0  0  2  0  0  0  0  0  0
  1 11  2  0  0  0  0
  1 18  1  0  0  0  0
  3  9  1  0  0  0  0
  5  8  1  0  0  0  0
  6  2  1  0  0  0  0
  6  4  1  0  0  0  0
  7  5  1  0  0  0  0
  7  6  2  0  0  0  0
  8  4  2  0  0  0  0
  8 12  1  0  0  0  0
  9 14  2  0  0  0  0
  9 11  1  0  0  0  0
 10  1  1  0  0  0  0
 12 13  1  0  0  0  0
 13  3  2  0  0  0  0
 13 10  1  0  0  0  0
 15 16  1  0  0  0  0
 16  7  1  1  0  0  0
 17 15  1  0  0  0  0
 17 16  1  0  0  0  0
 19 18  1  0  0  0  0
 20 22  1  0  0  0  0
 20 19  1  1  0  0  0
 23 21  1  0  0  0  0
 23 24  1  0  0  0  0
 24 25  1  0  0  0  0
 25 20  1  0  0  0  0
 26 28  1  6  0  0  0
 26 21  1  0  0  0  0
 26 27  1  0  0  0  0
 27 20  1  0  0  0  0
 27 22  1  1  0  0  0
 29 30  2  0  0  0  0
 30 28  1  0  0  0  0
 32 30  1  0  0  0  0
 32 31  1  0  0  0  0
M  END
>  <MODEL>
9

>  <REMARK>
 VINA RESULT:      -6.2      3.409      6.398
  Name = 
  7 active torsions:
  status: ('A' for Active; 'I' for Inactive)
    1  A    between atoms: C_1  and  C_29
    2  A    between atoms: C_5  and  C_13
    3  A    between atoms: C_7  and  C_9
    4  A    between atoms: C_7  and  C_29
    5  A    between atoms: C_14  and  C_17
    6  A    between atoms: C_14  and  C_22
    7  A    between atoms: C_17  and  C_28
                            x       y       z     vdW  Elec       q    Type
                         _______ _______ _______ _____ _____    ______ ____

>  <TORSDO>
F 7

$$$$
