=
 OpenBabel11062420153D

 25 26  0  0  1  0  0  0  0  0999 V2000
  186.3040  178.7040  143.3070 N   0  0  0  0  0  0  0  0  0  0  0  0
  185.7580  177.9680  141.1080 C   0  0  0  0  0  0  0  0  0  0  0  0
  184.0370  178.3100  142.7010 C   0  0  0  0  0  3  0  0  0  0  0  0
  186.7150  178.3550  142.0590 C   0  0  0  0  0  0  0  0  0  0  0  0
  186.1440  177.5880  139.7910 N   0  0  0  0  0  1  0  0  0  0  0  0
  184.4430  177.9570  141.4530 N   0  0  0  0  0  0  0  0  0  0  0  0
  184.9890  178.6880  143.6500 C   0  0  0  0  0  0  0  0  0  0  0  0
  188.1740  178.3620  141.7340 C   0  0  0  0  0  2  0  0  0  0  0  0
  188.2910  175.9870  142.5180 C   0  0  0  0  0  3  0  0  0  0  0  0
  188.9370  174.9540  143.2040 C   0  0  0  0  0  3  0  0  0  0  0  0
  188.8760  177.2550  142.4460 C   0  0  0  0  0  0  0  0  0  0  0  0
  190.7520  176.4610  143.7570 C   0  0  0  0  0  3  0  0  0  0  0  0
  190.1690  175.1890  143.8240 C   0  0  0  0  0  0  0  0  0  0  0  0
  190.1050  177.4920  143.0710 C   0  0  0  0  0  3  0  0  0  0  0  0
  189.8680  173.2350  145.5160 O   0  0  0  0  0  0  0  0  0  0  0  0
  190.9790  173.8720  144.6930 S   0  0  2  0  0  0  0  0  0  0  0  0
  192.0180  174.7020  145.9060 C   0  0  0  0  0  1  0  0  0  0  0  0
  184.5650  179.0920  145.0210 C   0  0  0  0  0  2  0  0  0  0  0  0
  185.5670  178.6040  146.0610 C   0  0  1  0  0  3  0  0  0  0  0  0
  185.1750  179.0020  147.4150 N   0  0  0  0  0  2  0  0  0  0  0  0
  186.2100  179.6580  147.9980 O   0  0  0  0  0  1  0  0  0  0  0  0
  186.9290  176.5030  146.0770 C   0  0  0  0  0  3  0  0  0  0  0  0
  185.7430  177.1160  145.9590 C   0  0  0  0  0  3  0  0  0  0  0  0
  189.1200  176.4060  146.9760 O   0  0  0  0  0  1  0  0  0  0  0  0
  188.2140  177.2350  146.3120 C   0  0  0  0  0  2  0  0  0  0  0  0
  1  7  1  0  0  0  0
  2  6  2  0  0  0  0
  2  4  1  0  0  0  0
  3  7  2  0  0  0  0
  4  1  2  0  0  0  0
  5  2  1  0  0  0  0
  6  3  1  0  0  0  0
  7 18  1  0  0  0  0
  8  4  1  0  0  0  0
  8 11  1  0  0  0  0
  9 10  1  0  0  0  0
 10 13  2  0  0  0  0
 11  9  2  0  0  0  0
 11 14  1  0  0  0  0
 12 13  1  0  0  0  0
 13 16  1  0  0  0  0
 14 12  2  0  0  0  0
 16 15  2  0  0  0  0
 16 17  1  1  0  0  0
 19 18  1  6  0  0  0
 19 20  1  0  0  0  0
 20 21  1  0  0  0  0
 22 25  1  0  0  0  0
 23 19  1  0  0  0  0
 23 22  2  0  0  0  0
 25 24  1  0  0  0  0
M  END
>  <MODEL>
1

>  <REMARK>
 VINA RESULT:      -6.2      0.000      0.000
  Name = 
  8 active torsions:
  status: ('A' for Active; 'I' for Inactive)
    1  A    between atoms: S_2  and  C_20
    2  A    between atoms: N_5  and  C_12
    3  A    between atoms: C_10  and  C_24
    4  A    between atoms: C_12  and  C_23
    5  A    between atoms: C_12  and  C_25
    6  A    between atoms: C_13  and  C_24
    7  A    between atoms: C_15  and  C_19
    8  A    between atoms: C_22  and  C_25
                            x       y       z     vdW  Elec       q    Type
                         _______ _______ _______ _____ _____    ______ ____

>  <TORSDO>
F 8

$$$$
=
 OpenBabel11062420153D

 25 26  0  0  1  0  0  0  0  0999 V2000
  186.3380  177.0960  144.5320 N   0  0  0  0  0  0  0  0  0  0  0  0
  185.8350  178.8070  146.1120 C   0  0  0  0  0  0  0  0  0  0  0  0
  185.5080  179.2020  143.7990 C   0  0  0  0  0  3  0  0  0  0  0  0
  186.2850  177.5080  145.8260 C   0  0  0  0  0  0  0  0  0  0  0  0
  185.7700  179.2820  147.4530 N   0  0  0  0  0  1  0  0  0  0  0  0
  185.4560  179.6200  145.0910 N   0  0  0  0  0  0  0  0  0  0  0  0
  185.9620  177.9140  143.5120 C   0  0  0  0  0  0  0  0  0  0  0  0
  186.7330  176.5840  146.9130 C   0  0  0  0  0  2  0  0  0  0  0  0
  189.0790  177.4520  146.8030 C   0  0  0  0  0  3  0  0  0  0  0  0
  190.4590  177.2430  146.7100 C   0  0  0  0  0  3  0  0  0  0  0  0
  188.2050  176.3600  146.8370 C   0  0  0  0  0  0  0  0  0  0  0  0
  190.0920  174.8490  146.6750 C   0  0  0  0  0  3  0  0  0  0  0  0
  190.9670  175.9410  146.6470 C   0  0  0  0  0  0  0  0  0  0  0  0
  188.7130  175.0580  146.7680 C   0  0  0  0  0  3  0  0  0  0  0  0
  193.1880  176.7930  145.5900 O   0  0  0  0  0  0  0  0  0  0  0  0
  192.7190  175.6890  146.5280 S   0  0  2  0  0  0  0  0  0  0  0  0
  192.8930  174.1780  145.5650 C   0  0  0  0  0  1  0  0  0  0  0  0
  186.0150  177.4300  142.1040 C   0  0  0  0  0  2  0  0  0  0  0  0
  187.4020  176.8950  141.7680 C   0  0  1  0  0  3  0  0  0  0  0  0
  187.4600  176.3690  140.4010 N   0  0  0  0  0  2  0  0  0  0  0  0
  186.6850  177.1430  139.6000 O   0  0  0  0  0  1  0  0  0  0  0  0
  189.6130  177.7330  142.5930 C   0  0  0  0  0  3  0  0  0  0  0  0
  188.4390  177.9600  141.9880 C   0  0  0  0  0  3  0  0  0  0  0  0
  191.3640  176.1560  142.8490 O   0  0  0  0  0  1  0  0  0  0  0  0
  190.0170  176.3940  143.1290 C   0  0  0  0  0  2  0  0  0  0  0  0
  1  4  1  0  0  0  0
  2  5  1  0  0  0  0
  3  6  2  0  0  0  0
  4  2  2  0  0  0  0
  4  8  1  0  0  0  0
  6  2  1  0  0  0  0
  7  3  1  0  0  0  0
  7  1  2  0  0  0  0
  9 11  1  0  0  0  0
 10  9  2  0  0  0  0
 11  8  1  0  0  0  0
 12 14  1  0  0  0  0
 13 12  2  0  0  0  0
 13 10  1  0  0  0  0
 14 11  2  0  0  0  0
 15 16  2  0  0  0  0
 16 17  1  6  0  0  0
 16 13  1  0  0  0  0
 18  7  1  0  0  0  0
 19 23  1  6  0  0  0
 19 18  1  0  0  0  0
 20 19  1  0  0  0  0
 21 20  1  0  0  0  0
 22 25  1  0  0  0  0
 23 22  2  0  0  0  0
 24 25  1  0  0  0  0
M  END
>  <MODEL>
2

>  <REMARK>
 VINA RESULT:      -6.2      2.474      4.721
  Name = 
  8 active torsions:
  status: ('A' for Active; 'I' for Inactive)
    1  A    between atoms: S_2  and  C_20
    2  A    between atoms: N_5  and  C_12
    3  A    between atoms: C_10  and  C_24
    4  A    between atoms: C_12  and  C_23
    5  A    between atoms: C_12  and  C_25
    6  A    between atoms: C_13  and  C_24
    7  A    between atoms: C_15  and  C_19
    8  A    between atoms: C_22  and  C_25
                            x       y       z     vdW  Elec       q    Type
                         _______ _______ _______ _____ _____    ______ ____

>  <TORSDO>
F 8

$$$$
=
 OpenBabel11062420153D

 25 26  0  0  1  0  0  0  0  0999 V2000
  186.3180  176.8440  143.6330 N   0  0  0  0  0  0  0  0  0  0  0  0
  185.5300  177.8680  141.6310 C   0  0  0  0  0  0  0  0  0  0  0  0
  184.4340  178.2970  143.6880 C   0  0  0  0  0  3  0  0  0  0  0  0
  186.4410  177.0290  142.2920 C   0  0  0  0  0  0  0  0  0  0  0  0
  185.6180  178.0840  140.2260 N   0  0  0  0  0  1  0  0  0  0  0  0
  184.5500  178.4810  142.3470 N   0  0  0  0  0  0  0  0  0  0  0  0
  185.3350  177.4560  144.3450 C   0  0  0  0  0  0  0  0  0  0  0  0
  187.5220  176.3150  141.5460 C   0  0  0  0  0  2  0  0  0  0  0  0
  189.4530  177.6460  142.4250 C   0  0  0  0  0  3  0  0  0  0  0  0
  190.6780  177.7310  143.0930 C   0  0  0  0  0  3  0  0  0  0  0  0
  188.8170  176.4080  142.2800 C   0  0  0  0  0  0  0  0  0  0  0  0
  190.6380  175.3370  143.4670 C   0  0  0  0  0  3  0  0  0  0  0  0
  191.2710  176.5770  143.6170 C   0  0  0  0  0  0  0  0  0  0  0  0
  189.4130  175.2540  142.7980 C   0  0  0  0  0  3  0  0  0  0  0  0
  193.8490  176.2780  143.4150 O   0  0  0  0  0  0  0  0  0  0  0  0
  192.8260  176.6970  144.4620 S   0  0  2  0  0  0  0  0  0  0  0  0
  192.8060  175.3360  145.6400 C   0  0  0  0  0  1  0  0  0  0  0  0
  185.2330  177.2500  145.8170 C   0  0  0  0  0  2  0  0  0  0  0  0
  186.5660  177.5430  146.4970 C   0  0  1  0  0  3  0  0  0  0  0  0
  186.3890  178.3510  147.7050 N   0  0  0  0  0  2  0  0  0  0  0  0
  185.0770  178.6780  147.8260 O   0  0  0  0  0  1  0  0  0  0  0  0
  188.6250  176.1710  146.8840 C   0  0  0  0  0  3  0  0  0  0  0  0
  187.2910  176.2620  146.7980 C   0  0  0  0  0  3  0  0  0  0  0  0
  190.6050  177.2710  147.5820 O   0  0  0  0  0  1  0  0  0  0  0  0
  189.5440  177.3360  146.6780 C   0  0  0  0  0  2  0  0  0  0  0  0
  1  7  1  0  0  0  0
  2  4  1  0  0  0  0
  2  6  2  0  0  0  0
  3  7  2  0  0  0  0
  4  1  2  0  0  0  0
  5  2  1  0  0  0  0
  6  3  1  0  0  0  0
  7 18  1  0  0  0  0
  8 11  1  0  0  0  0
  8  4  1  0  0  0  0
  9 10  1  0  0  0  0
 10 13  2  0  0  0  0
 11  9  2  0  0  0  0
 11 14  1  0  0  0  0
 12 13  1  0  0  0  0
 13 16  1  0  0  0  0
 14 12  2  0  0  0  0
 15 16  2  0  0  0  0
 16 17  1  1  0  0  0
 19 18  1  1  0  0  0
 19 23  1  0  0  0  0
 19 20  1  0  0  0  0
 20 21  1  0  0  0  0
 23 22  2  0  0  0  0
 25 22  1  0  0  0  0
 25 24  1  0  0  0  0
M  END
>  <MODEL>
3

>  <REMARK>
 VINA RESULT:      -5.9      1.670      2.069
  Name = 
  8 active torsions:
  status: ('A' for Active; 'I' for Inactive)
    1  A    between atoms: S_2  and  C_20
    2  A    between atoms: N_5  and  C_12
    3  A    between atoms: C_10  and  C_24
    4  A    between atoms: C_12  and  C_23
    5  A    between atoms: C_12  and  C_25
    6  A    between atoms: C_13  and  C_24
    7  A    between atoms: C_15  and  C_19
    8  A    between atoms: C_22  and  C_25
                            x       y       z     vdW  Elec       q    Type
                         _______ _______ _______ _____ _____    ______ ____

>  <TORSDO>
F 8

$$$$
=
 OpenBabel11062420153D

 25 26  0  0  1  0  0  0  0  0999 V2000
  187.1870  178.2000  144.7490 N   0  0  0  0  0  0  0  0  0  0  0  0
  185.9330  177.3890  146.6060 C   0  0  0  0  0  0  0  0  0  0  0  0
  184.8110  178.0990  144.6440 C   0  0  0  0  0  3  0  0  0  0  0  0
  187.1670  177.6940  146.0110 C   0  0  0  0  0  0  0  0  0  0  0  0
  185.8660  176.8640  147.9280 N   0  0  0  0  0  1  0  0  0  0  0  0
  184.7870  177.5970  145.9060 N   0  0  0  0  0  0  0  0  0  0  0  0
  186.0380  178.4110  144.0540 C   0  0  0  0  0  0  0  0  0  0  0  0
  188.4530  177.5030  146.7480 C   0  0  0  0  0  2  0  0  0  0  0  0
  190.2890  176.8190  145.1890 C   0  0  0  0  0  3  0  0  0  0  0  0
  191.0540  175.8350  144.5550 C   0  0  0  0  0  3  0  0  0  0  0  0
  189.2840  176.4540  146.0910 C   0  0  0  0  0  0  0  0  0  0  0  0
  189.8040  174.1170  145.7170 C   0  0  0  0  0  3  0  0  0  0  0  0
  190.8130  174.4830  144.8190 C   0  0  0  0  0  0  0  0  0  0  0  0
  189.0400  175.1010  146.3510 C   0  0  0  0  0  3  0  0  0  0  0  0
  192.0270  173.8130  142.6160 O   0  0  0  0  0  0  0  0  0  0  0  0
  191.7900  173.2430  144.0080 S   0  0  2  0  0  0  0  0  0  0  0  0
  190.6520  171.8730  143.7440 C   0  0  0  0  0  1  0  0  0  0  0  0
  186.0890  178.9500  142.6650 C   0  0  0  0  0  2  0  0  0  0  0  0
  186.3000  177.8260  141.6570 C   0  0  1  0  0  3  0  0  0  0  0  0
  185.5990  178.0930  140.3980 N   0  0  0  0  0  2  0  0  0  0  0  0
  184.3090  178.4130  140.6740 O   0  0  0  0  0  1  0  0  0  0  0  0
  188.4210  176.5120  141.8560 C   0  0  0  0  0  3  0  0  0  0  0  0
  187.7670  177.5990  141.4280 C   0  0  0  0  0  3  0  0  0  0  0  0
  188.3410  174.1810  142.2810 O   0  0  0  0  0  1  0  0  0  0  0  0
  187.7650  175.4050  142.6240 C   0  0  0  0  0  2  0  0  0  0  0  0
  1  4  1  0  0  0  0
  2  5  1  0  0  0  0
  3  6  2  0  0  0  0
  4  2  2  0  0  0  0
  4  8  1  0  0  0  0
  6  2  1  0  0  0  0
  7  3  1  0  0  0  0
  7  1  2  0  0  0  0
  9 11  1  0  0  0  0
 10 13  1  0  0  0  0
 10  9  2  0  0  0  0
 11 14  2  0  0  0  0
 11  8  1  0  0  0  0
 12 14  1  0  0  0  0
 13 12  2  0  0  0  0
 15 16  2  0  0  0  0
 16 17  1  6  0  0  0
 16 13  1  0  0  0  0
 18  7  1  0  0  0  0
 19 23  1  6  0  0  0
 19 18  1  0  0  0  0
 20 21  1  0  0  0  0
 20 19  1  0  0  0  0
 22 25  1  0  0  0  0
 23 22  2  0  0  0  0
 24 25  1  0  0  0  0
M  END
>  <MODEL>
4

>  <REMARK>
 VINA RESULT:      -5.9      2.363      4.418
  Name = 
  8 active torsions:
  status: ('A' for Active; 'I' for Inactive)
    1  A    between atoms: S_2  and  C_20
    2  A    between atoms: N_5  and  C_12
    3  A    between atoms: C_10  and  C_24
    4  A    between atoms: C_12  and  C_23
    5  A    between atoms: C_12  and  C_25
    6  A    between atoms: C_13  and  C_24
    7  A    between atoms: C_15  and  C_19
    8  A    between atoms: C_22  and  C_25
                            x       y       z     vdW  Elec       q    Type
                         _______ _______ _______ _____ _____    ______ ____

>  <TORSDO>
F 8

$$$$
=
 OpenBabel11062420153D

 25 26  0  0  1  0  0  0  0  0999 V2000
  186.6770  176.4950  144.4270 N   0  0  0  0  0  0  0  0  0  0  0  0
  184.9910  177.9400  145.2890 C   0  0  0  0  0  0  0  0  0  0  0  0
  185.1300  177.5480  142.9570 C   0  0  0  0  0  3  0  0  0  0  0  0
  186.0870  177.0880  145.4980 C   0  0  0  0  0  0  0  0  0  0  0  0
  184.3470  178.5880  146.3830 N   0  0  0  0  0  1  0  0  0  0  0  0
  184.5400  178.1470  144.0240 N   0  0  0  0  0  0  0  0  0  0  0  0
  186.2260  176.7070  143.1620 C   0  0  0  0  0  0  0  0  0  0  0  0
  186.6340  176.8460  146.8680 C   0  0  0  0  0  2  0  0  0  0  0  0
  189.0160  177.4510  146.3870 C   0  0  0  0  0  3  0  0  0  0  0  0
  190.3710  177.1170  146.3030 C   0  0  0  0  0  3  0  0  0  0  0  0
  188.0820  176.4950  146.8010 C   0  0  0  0  0  0  0  0  0  0  0  0
  189.8590  174.8660  147.0380 C   0  0  0  0  0  3  0  0  0  0  0  0
  190.7950  175.8240  146.6290 C   0  0  0  0  0  0  0  0  0  0  0  0
  188.5050  175.2010  147.1220 C   0  0  0  0  0  3  0  0  0  0  0  0
  193.2290  176.6700  146.9930 O   0  0  0  0  0  0  0  0  0  0  0  0
  192.5170  175.4120  146.5170 S   0  0  2  0  0  0  0  0  0  0  0  0
  192.8520  175.3470  144.7500 C   0  0  0  0  0  1  0  0  0  0  0  0
  186.8810  176.0290  142.0070 C   0  0  0  0  0  2  0  0  0  0  0  0
  188.3670  176.3620  141.9580 C   0  0  1  0  0  3  0  0  0  0  0  0
  188.5950  177.8090  141.9290 N   0  0  0  0  0  2  0  0  0  0  0  0
  189.7370  178.0880  142.6070 O   0  0  0  0  0  1  0  0  0  0  0  0
  189.6420  174.5040  143.0490 C   0  0  0  0  0  3  0  0  0  0  0  0
  189.0840  175.7200  143.1120 C   0  0  0  0  0  3  0  0  0  0  0  0
  188.5800  172.7010  141.9370 O   0  0  0  0  0  1  0  0  0  0  0  0
  189.6040  173.6430  141.8240 C   0  0  0  0  0  2  0  0  0  0  0  0
  1  4  1  0  0  0  0
  2  4  2  0  0  0  0
  2  5  1  0  0  0  0
  3  7  1  0  0  0  0
  3  6  2  0  0  0  0
  4  8  1  0  0  0  0
  6  2  1  0  0  0  0
  7  1  2  0  0  0  0
  9 11  1  0  0  0  0
 10  9  2  0  0  0  0
 10 13  1  0  0  0  0
 11  8  1  0  0  0  0
 11 14  2  0  0  0  0
 12 14  1  0  0  0  0
 13 12  2  0  0  0  0
 16 17  1  6  0  0  0
 16 13  1  0  0  0  0
 16 15  2  0  0  0  0
 18  7  1  0  0  0  0
 19 18  1  1  0  0  0
 19 23  1  0  0  0  0
 20 19  1  0  0  0  0
 20 21  1  0  0  0  0
 22 23  2  0  0  0  0
 25 24  1  0  0  0  0
 25 22  1  0  0  0  0
M  END
>  <MODEL>
5

>  <REMARK>
 VINA RESULT:      -5.9      2.379      4.582
  Name = 
  8 active torsions:
  status: ('A' for Active; 'I' for Inactive)
    1  A    between atoms: S_2  and  C_20
    2  A    between atoms: N_5  and  C_12
    3  A    between atoms: C_10  and  C_24
    4  A    between atoms: C_12  and  C_23
    5  A    between atoms: C_12  and  C_25
    6  A    between atoms: C_13  and  C_24
    7  A    between atoms: C_15  and  C_19
    8  A    between atoms: C_22  and  C_25
                            x       y       z     vdW  Elec       q    Type
                         _______ _______ _______ _____ _____    ______ ____

>  <TORSDO>
F 8

$$$$
=
 OpenBabel11062420153D

 25 26  0  0  1  0  0  0  0  0999 V2000
  186.7530  176.4980  144.2120 N   0  0  0  0  0  0  0  0  0  0  0  0
  184.9450  177.7500  145.1270 C   0  0  0  0  0  0  0  0  0  0  0  0
  185.1960  177.5840  142.7770 C   0  0  0  0  0  3  0  0  0  0  0  0
  186.0860  176.9520  145.3060 C   0  0  0  0  0  0  0  0  0  0  0  0
  184.2190  178.2540  146.2450 N   0  0  0  0  0  1  0  0  0  0  0  0
  184.5280  178.0440  143.8670 N   0  0  0  0  0  0  0  0  0  0  0  0
  186.3360  176.7970  142.9530 C   0  0  0  0  0  0  0  0  0  0  0  0
  186.5950  176.6200  146.6710 C   0  0  0  0  0  2  0  0  0  0  0  0
  188.6330  175.2550  147.1770 C   0  0  0  0  0  3  0  0  0  0  0  0
  190.0200  175.0780  147.1740 C   0  0  0  0  0  3  0  0  0  0  0  0
  188.0730  176.4220  146.6460 C   0  0  0  0  0  0  0  0  0  0  0  0
  190.2910  177.2420  146.1180 C   0  0  0  0  0  3  0  0  0  0  0  0
  190.8510  176.0710  146.6430 C   0  0  0  0  0  0  0  0  0  0  0  0
  188.9050  177.4170  146.1210 C   0  0  0  0  0  3  0  0  0  0  0  0
  193.1180  176.8400  145.6200 O   0  0  0  0  0  0  0  0  0  0  0  0
  192.6100  175.8360  146.6460 S   0  0  2  0  0  0  0  0  0  0  0  0
  192.8530  174.2330  145.8650 C   0  0  0  0  0  1  0  0  0  0  0  0
  187.0770  176.2710  141.7720 C   0  0  0  0  0  2  0  0  0  0  0  0
  187.9220  175.0630  142.1590 C   0  0  1  0  0  3  0  0  0  0  0  0
  187.8930  174.0300  141.1210 N   0  0  0  0  0  2  0  0  0  0  0  0
  188.6190  174.4570  140.0560 O   0  0  0  0  0  1  0  0  0  0  0  0
  190.1530  174.7940  143.2640 C   0  0  0  0  0  3  0  0  0  0  0  0
  189.3290  175.4880  142.4670 C   0  0  0  0  0  3  0  0  0  0  0  0
  190.1910  172.4250  143.2010 O   0  0  0  0  0  1  0  0  0  0  0  0
  189.7570  173.5210  143.9480 C   0  0  0  0  0  2  0  0  0  0  0  0
  1  4  1  0  0  0  0
  2  4  2  0  0  0  0
  2  5  1  0  0  0  0
  3  7  1  0  0  0  0
  3  6  2  0  0  0  0
  4  8  1  0  0  0  0
  6  2  1  0  0  0  0
  7  1  2  0  0  0  0
 10  9  1  0  0  0  0
 11  8  1  0  0  0  0
 11  9  2  0  0  0  0
 12 14  2  0  0  0  0
 12 13  1  0  0  0  0
 13 16  1  0  0  0  0
 13 10  2  0  0  0  0
 14 11  1  0  0  0  0
 15 16  2  0  0  0  0
 16 17  1  6  0  0  0
 18  7  1  0  0  0  0
 19 18  1  6  0  0  0
 19 23  1  0  0  0  0
 20 19  1  0  0  0  0
 21 20  1  0  0  0  0
 22 25  1  0  0  0  0
 23 22  2  0  0  0  0
 24 25  1  0  0  0  0
M  END
>  <MODEL>
6

>  <REMARK>
 VINA RESULT:      -5.8      2.551      4.784
  Name = 
  8 active torsions:
  status: ('A' for Active; 'I' for Inactive)
    1  A    between atoms: S_2  and  C_20
    2  A    between atoms: N_5  and  C_12
    3  A    between atoms: C_10  and  C_24
    4  A    between atoms: C_12  and  C_23
    5  A    between atoms: C_12  and  C_25
    6  A    between atoms: C_13  and  C_24
    7  A    between atoms: C_15  and  C_19
    8  A    between atoms: C_22  and  C_25
                            x       y       z     vdW  Elec       q    Type
                         _______ _______ _______ _____ _____    ______ ____

>  <TORSDO>
F 8

$$$$
=
 OpenBabel11062420153D

 25 26  0  0  1  0  0  0  0  0999 V2000
  186.5440  178.2870  143.9670 N   0  0  0  0  0  0  0  0  0  0  0  0
  185.4690  178.2900  141.8410 C   0  0  0  0  0  0  0  0  0  0  0  0
  184.1710  178.3750  143.8210 C   0  0  0  0  0  3  0  0  0  0  0  0
  186.6420  178.2630  142.6110 C   0  0  0  0  0  0  0  0  0  0  0  0
  185.5250  178.2600  140.4180 N   0  0  0  0  0  1  0  0  0  0  0  0
  184.2630  178.3470  142.4660 N   0  0  0  0  0  0  0  0  0  0  0  0
  185.3360  178.3400  144.5890 C   0  0  0  0  0  0  0  0  0  0  0  0
  187.9900  178.1790  141.9710 C   0  0  0  0  0  2  0  0  0  0  0  0
  188.0870  175.7140  141.5380 C   0  0  0  0  0  3  0  0  0  0  0  0
  188.6400  174.4510  141.7690 C   0  0  0  0  0  3  0  0  0  0  0  0
  188.5970  176.8360  142.2000 C   0  0  0  0  0  0  0  0  0  0  0  0
  190.2110  175.4280  143.3340 C   0  0  0  0  0  3  0  0  0  0  0  0
  189.7040  174.3070  142.6660 C   0  0  0  0  0  0  0  0  0  0  0  0
  189.6570  176.6900  143.1020 C   0  0  0  0  0  3  0  0  0  0  0  0
  189.5560  171.7740  142.0820 O   0  0  0  0  0  0  0  0  0  0  0  0
  190.3970  172.6980  142.9520 S   0  0  2  0  0  0  0  0  0  0  0  0
  189.9150  172.2920  144.6380 C   0  0  0  0  0  1  0  0  0  0  0  0
  185.2590  178.3820  146.0760 C   0  0  0  0  0  2  0  0  0  0  0  0
  186.6220  178.0980  146.6970 C   0  0  1  0  0  3  0  0  0  0  0  0
  186.7870  178.7910  147.9760 N   0  0  0  0  0  2  0  0  0  0  0  0
  185.9410  179.8520  148.0120 O   0  0  0  0  0  1  0  0  0  0  0  0
  188.0360  176.0400  146.8830 C   0  0  0  0  0  3  0  0  0  0  0  0
  186.8280  176.6170  146.8470 C   0  0  0  0  0  3  0  0  0  0  0  0
  190.4040  175.9400  146.9040 O   0  0  0  0  0  1  0  0  0  0  0  0
  189.3180  176.8060  146.7640 C   0  0  0  0  0  2  0  0  0  0  0  0
  1  7  1  0  0  0  0
  2  6  2  0  0  0  0
  2  4  1  0  0  0  0
  3  7  2  0  0  0  0
  4  1  2  0  0  0  0
  5  2  1  0  0  0  0
  6  3  1  0  0  0  0
  7 18  1  0  0  0  0
  8 11  1  0  0  0  0
  8  4  1  0  0  0  0
  9 10  2  0  0  0  0
  9 11  1  0  0  0  0
 10 13  1  0  0  0  0
 11 14  2  0  0  0  0
 13 16  1  0  0  0  0
 13 12  2  0  0  0  0
 14 12  1  0  0  0  0
 15 16  2  0  0  0  0
 16 17  1  1  0  0  0
 19 18  1  1  0  0  0
 19 23  1  0  0  0  0
 19 20  1  0  0  0  0
 20 21  1  0  0  0  0
 23 22  2  0  0  0  0
 25 22  1  0  0  0  0
 25 24  1  0  0  0  0
M  END
>  <MODEL>
7

>  <REMARK>
 VINA RESULT:      -5.7      1.431      1.556
  Name = 
  8 active torsions:
  status: ('A' for Active; 'I' for Inactive)
    1  A    between atoms: S_2  and  C_20
    2  A    between atoms: N_5  and  C_12
    3  A    between atoms: C_10  and  C_24
    4  A    between atoms: C_12  and  C_23
    5  A    between atoms: C_12  and  C_25
    6  A    between atoms: C_13  and  C_24
    7  A    between atoms: C_15  and  C_19
    8  A    between atoms: C_22  and  C_25
                            x       y       z     vdW  Elec       q    Type
                         _______ _______ _______ _____ _____    ______ ____

>  <TORSDO>
F 8

$$$$
=
 OpenBabel11062420153D

 25 26  0  0  1  0  0  0  0  0999 V2000
  190.1070  175.5760  142.9700 N   0  0  0  0  0  0  0  0  0  0  0  0
  189.4930  173.4080  142.1950 C   0  0  0  0  0  0  0  0  0  0  0  0
  191.1140  173.6340  143.9070 C   0  0  0  0  0  3  0  0  0  0  0  0
  189.3550  174.8040  142.1410 C   0  0  0  0  0  0  0  0  0  0  0  0
  188.7310  172.5620  141.3390 N   0  0  0  0  0  1  0  0  0  0  0  0
  190.3680  172.8590  143.0780 N   0  0  0  0  0  0  0  0  0  0  0  0
  190.9840  175.0230  143.8500 C   0  0  0  0  0  0  0  0  0  0  0  0
  188.4220  175.4550  141.1720 C   0  0  0  0  0  2  0  0  0  0  0  0
  187.5230  177.7420  141.6540 C   0  0  0  0  0  3  0  0  0  0  0  0
  186.6520  178.5970  142.3360 C   0  0  0  0  0  3  0  0  0  0  0  0
  187.4760  176.3630  141.8820 C   0  0  0  0  0  0  0  0  0  0  0  0
  185.6890  176.6930  143.4850 C   0  0  0  0  0  3  0  0  0  0  0  0
  185.7330  178.0730  143.2520 C   0  0  0  0  0  0  0  0  0  0  0  0
  186.5610  175.8400  142.8020 C   0  0  0  0  0  3  0  0  0  0  0  0
  185.4230  180.4620  144.2370 O   0  0  0  0  0  0  0  0  0  0  0  0
  184.6330  179.1670  144.1130 S   0  0  2  0  0  0  0  0  0  0  0  0
  184.5690  178.5160  145.7900 C   0  0  0  0  0  1  0  0  0  0  0  0
  191.7830  175.8930  144.7590 C   0  0  0  0  0  2  0  0  0  0  0  0
  190.9780  176.2590  146.0010 C   0  0  1  0  0  3  0  0  0  0  0  0
  191.8480  176.5100  147.1530 N   0  0  0  0  0  2  0  0  0  0  0  0
  191.2090  176.1070  148.2810 O   0  0  0  0  0  1  0  0  0  0  0  0
  188.7550  177.3970  145.8120 C   0  0  0  0  0  3  0  0  0  0  0  0
  190.0910  177.4380  145.7190 C   0  0  0  0  0  3  0  0  0  0  0  0
  187.1180  176.4530  147.2420 O   0  0  0  0  0  1  0  0  0  0  0  0
  187.9950  176.1640  146.1950 C   0  0  0  0  0  2  0  0  0  0  0  0
  1  7  1  0  0  0  0
  2  6  2  0  0  0  0
  4  2  1  0  0  0  0
  4  1  2  0  0  0  0
  5  2  1  0  0  0  0
  6  3  1  0  0  0  0
  7  3  2  0  0  0  0
  7 18  1  0  0  0  0
  8 11  1  0  0  0  0
  8  4  1  0  0  0  0
  9 11  2  0  0  0  0
  9 10  1  0  0  0  0
 10 13  2  0  0  0  0
 11 14  1  0  0  0  0
 13 12  1  0  0  0  0
 13 16  1  0  0  0  0
 14 12  2  0  0  0  0
 16 15  2  0  0  0  0
 16 17  1  1  0  0  0
 19 18  1  6  0  0  0
 19 20  1  0  0  0  0
 20 21  1  0  0  0  0
 22 25  1  0  0  0  0
 23 22  2  0  0  0  0
 23 19  1  0  0  0  0
 25 24  1  0  0  0  0
M  END
>  <MODEL>
8

>  <REMARK>
 VINA RESULT:      -5.7      3.398      5.770
  Name = 
  8 active torsions:
  status: ('A' for Active; 'I' for Inactive)
    1  A    between atoms: S_2  and  C_20
    2  A    between atoms: N_5  and  C_12
    3  A    between atoms: C_10  and  C_24
    4  A    between atoms: C_12  and  C_23
    5  A    between atoms: C_12  and  C_25
    6  A    between atoms: C_13  and  C_24
    7  A    between atoms: C_15  and  C_19
    8  A    between atoms: C_22  and  C_25
                            x       y       z     vdW  Elec       q    Type
                         _______ _______ _______ _____ _____    ______ ____

>  <TORSDO>
F 8

$$$$
=
 OpenBabel11062420153D

 25 26  0  0  1  0  0  0  0  0999 V2000
  189.6860  173.7950  145.4850 N   0  0  0  0  0  0  0  0  0  0  0  0
  191.6240  175.0290  146.1140 C   0  0  0  0  0  0  0  0  0  0  0  0
  191.7930  173.3140  144.4890 C   0  0  0  0  0  3  0  0  0  0  0  0
  190.2480  174.7780  146.2370 C   0  0  0  0  0  0  0  0  0  0  0  0
  192.2560  176.0450  146.8880 N   0  0  0  0  0  1  0  0  0  0  0  0
  192.3600  174.2920  145.2420 N   0  0  0  0  0  0  0  0  0  0  0  0
  190.4260  173.0570  144.6160 C   0  0  0  0  0  0  0  0  0  0  0  0
  189.4000  175.5470  147.1980 C   0  0  0  0  0  2  0  0  0  0  0  0
  188.7700  177.1150  145.3500 C   0  0  0  0  0  3  0  0  0  0  0  0
  187.8280  177.9000  144.6790 C   0  0  0  0  0  3  0  0  0  0  0  0
  188.3900  176.3650  146.4680 C   0  0  0  0  0  0  0  0  0  0  0  0
  186.1230  177.1940  146.2480 C   0  0  0  0  0  3  0  0  0  0  0  0
  186.5030  177.9390  145.1260 C   0  0  0  0  0  0  0  0  0  0  0  0
  187.0660  176.4090  146.9190 C   0  0  0  0  0  3  0  0  0  0  0  0
  184.1040  178.9480  145.1870 O   0  0  0  0  0  0  0  0  0  0  0  0
  185.3170  178.9400  144.2660 S   0  0  2  0  0  0  0  0  0  0  0  0
  184.8080  177.9330  142.8630 C   0  0  0  0  0  1  0  0  0  0  0  0
  189.7800  171.9970  143.7910 C   0  0  0  0  0  2  0  0  0  0  0  0
  189.6610  172.4420  142.3380 C   0  0  1  0  0  3  0  0  0  0  0  0
  190.1990  171.4340  141.4200 N   0  0  0  0  0  2  0  0  0  0  0  0
  190.4750  170.3050  142.1210 O   0  0  0  0  0  1  0  0  0  0  0  0
  187.8170  174.0070  141.6900 C   0  0  0  0  0  3  0  0  0  0  0  0
  188.2340  172.7740  142.0090 C   0  0  0  0  0  3  0  0  0  0  0  0
  187.9740  176.3700  141.6060 O   0  0  0  0  0  1  0  0  0  0  0  0
  188.7270  175.1950  141.6380 C   0  0  0  0  0  2  0  0  0  0  0  0
  1  4  1  0  0  0  0
  2  4  2  0  0  0  0
  2  5  1  0  0  0  0
  3  7  1  0  0  0  0
  3  6  2  0  0  0  0
  4  8  1  0  0  0  0
  6  2  1  0  0  0  0
  7  1  2  0  0  0  0
  9 11  1  0  0  0  0
 10 13  1  0  0  0  0
 10  9  2  0  0  0  0
 11 14  2  0  0  0  0
 11  8  1  0  0  0  0
 12 14  1  0  0  0  0
 13 12  2  0  0  0  0
 16 17  1  6  0  0  0
 16 13  1  0  0  0  0
 16 15  2  0  0  0  0
 18  7  1  0  0  0  0
 19 23  1  6  0  0  0
 19 18  1  0  0  0  0
 20 21  1  0  0  0  0
 20 19  1  0  0  0  0
 22 23  2  0  0  0  0
 24 25  1  0  0  0  0
 25 22  1  0  0  0  0
M  END
>  <MODEL>
9

>  <REMARK>
 VINA RESULT:      -5.5      3.946      7.380
  Name = 
  8 active torsions:
  status: ('A' for Active; 'I' for Inactive)
    1  A    between atoms: S_2  and  C_20
    2  A    between atoms: N_5  and  C_12
    3  A    between atoms: C_10  and  C_24
    4  A    between atoms: C_12  and  C_23
    5  A    between atoms: C_12  and  C_25
    6  A    between atoms: C_13  and  C_24
    7  A    between atoms: C_15  and  C_19
    8  A    between atoms: C_22  and  C_25
                            x       y       z     vdW  Elec       q    Type
                         _______ _______ _______ _____ _____    ______ ____

>  <TORSDO>
F 8

$$$$
