=
 OpenBabel11062421403D

 41 46  0  0  1  0  0  0  0  0999 V2000
  188.6430  175.1080  143.3010 C   0  0  0  0  0  2  0  0  0  0  0  0
  189.7020  174.3930  144.1130 C   0  0  0  0  0  2  0  0  0  0  0  0
  191.0670  174.5310  143.4550 C   0  0  2  0  0  3  0  0  0  0  0  0
  189.8730  171.4070  140.1450 F   0  0  0  0  0  0  0  0  0  0  0  0
  190.7000  173.9550  140.7910 O   0  0  0  0  0  1  0  0  0  0  0  0
  191.6330  173.1950  142.9180 C   0  0  2  0  0  3  0  0  0  0  0  0
  192.6830  172.0280  144.7370 O   0  0  0  0  0  1  0  0  0  0  0  0
  190.6590  170.4820  142.0600 O   0  0  0  0  0  0  0  0  0  0  0  0
  190.1780  171.6830  141.4640 C   0  0  0  0  0  0  0  0  0  0  0  0
  191.6710  170.6580  143.0470 C   0  0  2  0  0  3  0  0  0  0  0  0
  190.4210  171.9450  144.6130 O   0  0  0  0  0  1  0  0  0  0  0  0
  191.1870  172.8450  141.4860 C   0  0  1  0  0  3  0  0  0  0  0  0
  191.5980  171.9680  143.8610 C   0  0  0  0  0  0  0  0  0  0  0  0
  189.0080  172.0620  142.0990 F   0  0  0  0  0  0  0  0  0  0  0  0
  193.0320  170.3390  142.4980 C   0  0  0  0  0  0  0  0  0  0  0  0
  193.9430  169.6470  143.2810 O   0  0  0  0  0  1  0  0  0  0  0  0
  193.3620  170.7100  141.3410 O   0  0  0  0  0  0  0  0  0  0  0  0
  192.0220  174.9730  146.1410 O   0  0  0  0  0  1  0  0  0  0  0  0
  191.9690  177.0910  144.3830 O   0  0  0  0  0  1  0  0  0  0  0  0
  192.2390  175.4270  144.5270 P   0  0  0  0  0  0  0  0  0  0  0  0
  193.6560  175.1200  144.1020 O   0  0  0  0  0  0  0  0  0  0  0  0
  187.9130  176.0980  144.1970 C   0  0  1  0  0  3  0  0  0  0  0  0
  188.4890  176.0770  145.6080 C   0  0  2  0  0  3  0  0  0  0  0  0
  184.6940  178.4130  147.4670 O   0  0  0  0  0  0  0  0  0  0  0  0
  188.2730  177.7850  147.7720 C   0  0  1  0  0  0  0  0  0  0  0  0
  185.9900  176.6940  146.4350 C   0  0  0  0  0  2  0  0  0  0  0  0
  189.3680  178.5990  148.0920 O   0  0  0  0  0  0  0  0  0  0  0  0
  185.8110  177.9680  147.2620 C   0  0  0  0  0  0  0  0  0  0  0  0
  187.0440  178.7230  147.7750 C   0  0  0  0  0  2  0  0  0  0  0  0
  189.5290  177.8100  146.9490 C   0  0  2  0  0  3  0  0  0  0  0  0
  187.4210  176.1640  146.6520 C   0  0  2  0  0  3  0  0  0  0  0  0
  188.2420  177.4160  146.2880 C   0  0  2  0  0  0  0  0  0  0  0  0
  187.8890  177.5230  143.6270 C   0  0  2  0  0  3  0  0  0  0  0  0
  184.6110  178.7990  142.5690 N   0  0  0  0  0  0  0  0  0  0  0  0
  184.7670  177.8000  141.7120 N   0  0  0  0  0  0  0  0  0  0  0  0
  185.7030  178.8380  143.3450 C   0  0  2  0  0  3  0  0  0  0  0  0
  185.9560  177.1950  141.9310 C   0  0  0  0  0  3  0  0  0  0  0  0
  186.5810  177.8540  142.9740 C   0  0  0  0  0  0  0  0  0  0  0  0
  185.8900  179.7690  144.4050 N   0  0  0  0  0  1  0  0  0  0  0  0
  189.0760  177.8780  142.7730 C   0  0  0  0  0  3  0  0  0  0  0  0
  188.9430  178.4680  141.7110 O   0  0  0  0  0  0  0  0  0  0  0  0
  1  2  1  0  0  0  0
  3  2  1  1  0  0  0
  3 20  1  0  0  0  0
  4  9  1  0  0  0  0
  6  3  1  1  0  0  0
  6 13  1  0  0  0  0
  8 10  1  0  0  0  0
  9 12  1  0  0  0  0
  9  8  1  0  0  0  0
  9 14  1  0  0  0  0
 10 15  1  6  0  0  0
 10 13  1  0  0  0  0
 12  5  1  1  0  0  0
 12  6  1  0  0  0  0
 13 11  1  0  0  0  0
 13  7  1  0  0  0  0
 15 16  1  0  0  0  0
 17 15  2  0  0  0  0
 19 20  1  0  0  0  0
 20 18  1  0  0  0  0
 21 20  2  0  0  0  0
 22  1  1  6  0  0  0
 23 22  1  6  0  0  0
 23 32  1  0  0  0  0
 23 31  1  0  0  0  0
 25 29  1  6  0  0  0
 25 27  1  0  0  0  0
 26 28  1  0  0  0  0
 28 24  2  0  0  0  0
 28 29  1  0  0  0  0
 30 25  1  0  0  0  0
 30 27  1  6  0  0  0
 31 26  1  6  0  0  0
 32 31  1  0  0  0  0
 32 30  1  0  0  0  0
 32 25  1  0  0  0  0
 33 22  1  0  0  0  0
 34 36  1  0  0  0  0
 35 37  1  0  0  0  0
 35 34  2  0  0  0  0
 36 39  1  0  0  0  0
 37 38  2  0  0  0  0
 38 36  1  0  0  0  0
 38 33  1  0  0  0  0
 40 33  1  0  0  0  0
 41 40  2  0  0  0  0
M  END
>  <MODEL>
1

>  <REMARK>
 VINA RESULT:      -6.9      0.000      0.000
  Name = 
  10 active torsions:
  status: ('A' for Active; 'I' for Inactive)
    1  A    between atoms: C_2  and  C_35
    2  A    between atoms: C_5  and  C_9
    3  A    between atoms: C_5  and  C_14
    4  A    between atoms: C_6  and  C_29
    5  A    between atoms: C_9  and  C_35
    6  A    between atoms: C_12  and  C_14
    7  A    between atoms: C_14  and  P_24
    8  A    between atoms: C_19  and  C_23
    9  A    between atoms: C_23  and  C_33
   10  A    between atoms: C_23  and  C_35
                            x       y       z     vdW  Elec       q    Type
                         _______ _______ _______ _____ _____    ______ ____

>  <TORSDO>
F 10

$$$$
=
 OpenBabel11062421403D

 41 46  0  0  1  0  0  0  0  0999 V2000
  191.0520  173.7790  144.9240 C   0  0  0  0  0  2  0  0  0  0  0  0
  190.4660  175.1530  144.6760 C   0  0  0  0  0  2  0  0  0  0  0  0
  188.9900  175.1810  145.0470 C   0  0  2  0  0  3  0  0  0  0  0  0
  188.3090  175.2730  140.3910 F   0  0  0  0  0  0  0  0  0  0  0  0
  188.0990  173.9090  142.7770 O   0  0  0  0  0  1  0  0  0  0  0  0
  188.1200  175.9910  144.0560 C   0  0  2  0  0  3  0  0  0  0  0  0
  187.8610  178.2200  144.9170 O   0  0  0  0  0  1  0  0  0  0  0  0
  188.3530  177.3180  141.3680 O   0  0  0  0  0  0  0  0  0  0  0  0
  188.6390  175.9360  141.5580 C   0  0  0  0  0  0  0  0  0  0  0  0
  187.8950  178.0080  142.5270 C   0  0  2  0  0  3  0  0  0  0  0  0
  189.8220  177.7170  143.8960 O   0  0  0  0  0  1  0  0  0  0  0  0
  187.8590  175.2840  142.7130 C   0  0  1  0  0  3  0  0  0  0  0  0
  188.4430  177.4940  143.8770 C   0  0  0  0  0  0  0  0  0  0  0  0
  189.9990  175.7830  141.7610 F   0  0  0  0  0  0  0  0  0  0  0  0
  186.4080  178.2080  142.4940 C   0  0  0  0  0  0  0  0  0  0  0  0
  185.8500  179.3160  143.1160 O   0  0  0  0  0  1  0  0  0  0  0  0
  185.6590  177.3730  141.9230 O   0  0  0  0  0  0  0  0  0  0  0  0
  187.1690  176.2370  147.0200 O   0  0  0  0  0  0  0  0  0  0  0  0
  189.8340  176.9100  147.1750 O   0  0  0  0  0  1  0  0  0  0  0  0
  188.7460  175.6750  146.7860 P   0  0  0  0  0  0  0  0  0  0  0  0
  189.0000  174.4910  147.6910 O   0  0  0  0  0  1  0  0  0  0  0  0
  192.4720  173.7390  144.3790 C   0  0  1  0  0  3  0  0  0  0  0  0
  193.4870  173.6830  145.5150 C   0  0  2  0  0  3  0  0  0  0  0  0
  196.4050  176.9020  143.4100 O   0  0  0  0  0  0  0  0  0  0  0  0
  196.2300  174.0140  145.6280 C   0  0  1  0  0  0  0  0  0  0  0  0
  194.4860  175.9740  144.4850 C   0  0  0  0  0  2  0  0  0  0  0  0
  197.0330  172.8780  145.7920 O   0  0  0  0  0  0  0  0  0  0  0  0
  195.9620  175.9860  144.0810 C   0  0  0  0  0  0  0  0  0  0  0  0
  196.8650  174.8070  144.4630 C   0  0  0  0  0  2  0  0  0  0  0  0
  195.6630  172.6240  145.6800 C   0  0  2  0  0  3  0  0  0  0  0  0
  194.2930  174.9390  145.6110 C   0  0  2  0  0  3  0  0  0  0  0  0
  194.8990  173.6870  144.9490 C   0  0  2  0  0  0  0  0  0  0  0  0
  192.7000  172.6030  143.3720 C   0  0  2  0  0  3  0  0  0  0  0  0
  192.1230  173.9190  139.9910 N   0  0  0  0  0  0  0  0  0  0  0  0
  191.0210  173.2020  140.1610 N   0  0  0  0  0  0  0  0  0  0  0  0
  192.8650  173.7850  141.1000 C   0  0  2  0  0  3  0  0  0  0  0  0
  191.0500  172.6050  141.3740 C   0  0  0  0  0  3  0  0  0  0  0  0
  192.2340  172.9600  141.9930 C   0  0  0  0  0  0  0  0  0  0  0  0
  194.1170  174.4320  141.3000 N   0  0  0  0  0  1  0  0  0  0  0  0
  192.2100  171.2540  143.8260 C   0  0  0  0  0  3  0  0  0  0  0  0
  192.9270  170.2670  143.7770 O   0  0  0  0  0  0  0  0  0  0  0  0
  2  1  1  0  0  0  0
  3  2  1  6  0  0  0
  3 20  1  0  0  0  0
  4  9  1  0  0  0  0
  6  3  1  6  0  0  0
  8  9  1  0  0  0  0
  8 10  1  0  0  0  0
  9 14  1  0  0  0  0
  9 12  1  0  0  0  0
 10 15  1  1  0  0  0
 10 13  1  0  0  0  0
 12  5  1  1  0  0  0
 12  6  1  0  0  0  0
 13 11  1  0  0  0  0
 13  6  1  0  0  0  0
 13  7  1  0  0  0  0
 15 16  1  0  0  0  0
 17 15  2  0  0  0  0
 20 18  2  0  0  0  0
 20 19  1  0  0  0  0
 20 21  1  0  0  0  0
 22  1  1  1  0  0  0
 23 22  1  6  0  0  0
 23 31  1  0  0  0  0
 24 28  2  0  0  0  0
 25 29  1  6  0  0  0
 25 30  1  0  0  0  0
 25 27  1  0  0  0  0
 28 29  1  0  0  0  0
 28 26  1  0  0  0  0
 30 27  1  6  0  0  0
 31 26  1  6  0  0  0
 32 23  1  0  0  0  0
 32 31  1  0  0  0  0
 32 25  1  0  0  0  0
 32 30  1  0  0  0  0
 33 40  1  0  0  0  0
 33 22  1  0  0  0  0
 34 35  2  0  0  0  0
 34 36  1  0  0  0  0
 35 37  1  0  0  0  0
 36 39  1  0  0  0  0
 36 38  1  0  0  0  0
 37 38  2  0  0  0  0
 38 33  1  0  0  0  0
 41 40  2  0  0  0  0
M  END
>  <MODEL>
2

>  <REMARK>
 VINA RESULT:      -6.8      3.754      7.578
  Name = 
  10 active torsions:
  status: ('A' for Active; 'I' for Inactive)
    1  A    between atoms: C_2  and  C_35
    2  A    between atoms: C_5  and  C_9
    3  A    between atoms: C_5  and  C_14
    4  A    between atoms: C_6  and  C_29
    5  A    between atoms: C_9  and  C_35
    6  A    between atoms: C_12  and  C_14
    7  A    between atoms: C_14  and  P_24
    8  A    between atoms: C_19  and  C_23
    9  A    between atoms: C_23  and  C_33
   10  A    between atoms: C_23  and  C_35
                            x       y       z     vdW  Elec       q    Type
                         _______ _______ _______ _____ _____    ______ ____

>  <TORSDO>
F 10

$$$$
=
 OpenBabel11062421403D

 41 46  0  0  1  0  0  0  0  0999 V2000
  189.1380  174.9690  143.4440 C   0  0  0  0  0  2  0  0  0  0  0  0
  190.6310  175.1610  143.6140 C   0  0  0  0  0  2  0  0  0  0  0  0
  191.2170  174.0620  144.4870 C   0  0  2  0  0  3  0  0  0  0  0  0
  193.7110  176.9770  147.2130 F   0  0  0  0  0  0  0  0  0  0  0  0
  191.8470  174.9570  147.0100 O   0  0  0  0  0  1  0  0  0  0  0  0
  192.7110  174.2750  144.8290 C   0  0  2  0  0  3  0  0  0  0  0  0
  194.0210  173.7210  142.8920 O   0  0  0  0  0  1  0  0  0  0  0  0
  194.6690  176.5260  145.2080 O   0  0  0  0  0  0  0  0  0  0  0  0
  193.4670  176.4310  145.9660 C   0  0  0  0  0  0  0  0  0  0  0  0
  194.9010  175.4500  144.3030 C   0  0  2  0  0  3  0  0  0  0  0  0
  192.9900  175.7410  142.9110 O   0  0  0  0  0  1  0  0  0  0  0  0
  192.9620  174.9920  146.1680 C   0  0  1  0  0  3  0  0  0  0  0  0
  193.6400  174.7910  143.7030 C   0  0  0  0  0  0  0  0  0  0  0  0
  192.4880  177.1940  145.3540 F   0  0  0  0  0  0  0  0  0  0  0  0
  195.9120  174.4830  144.8480 C   0  0  0  0  0  0  0  0  0  0  0  0
  196.7970  173.8550  143.9840 O   0  0  0  0  0  0  0  0  0  0  0  0
  195.9530  174.2220  146.0790 O   0  0  0  0  0  1  0  0  0  0  0  0
  190.8640  172.4550  142.1170 O   0  0  0  0  0  0  0  0  0  0  0  0
  189.3460  171.8930  144.3440 O   0  0  0  0  0  1  0  0  0  0  0  0
  190.8650  172.4070  143.8070 P   0  0  0  0  0  0  0  0  0  0  0  0
  191.9130  171.4260  144.2840 O   0  0  0  0  0  1  0  0  0  0  0  0
  188.4070  176.0720  144.1950 C   0  0  1  0  0  3  0  0  0  0  0  0
  188.8190  176.0940  145.6620 C   0  0  2  0  0  3  0  0  0  0  0  0
  184.7180  178.2330  147.0470 O   0  0  0  0  0  0  0  0  0  0  0  0
  188.2680  177.8050  147.7630 C   0  0  1  0  0  0  0  0  0  0  0  0
  186.2130  176.5800  146.1930 C   0  0  0  0  0  2  0  0  0  0  0  0
  189.2740  178.6800  148.1930 O   0  0  0  0  0  0  0  0  0  0  0  0
  185.8730  177.8490  146.9760 C   0  0  0  0  0  0  0  0  0  0  0  0
  186.9980  178.6740  147.6140 C   0  0  0  0  0  2  0  0  0  0  0  0
  189.6060  177.8930  147.0870 C   0  0  2  0  0  3  0  0  0  0  0  0
  187.6370  176.1310  146.5770 C   0  0  2  0  0  3  0  0  0  0  0  0
  188.4250  177.4230  146.2910 C   0  0  2  0  0  0  0  0  0  0  0  0
  188.5730  177.4540  143.5490 C   0  0  2  0  0  3  0  0  0  0  0  0
  185.7460  178.4030  141.4030 N   0  0  0  0  0  0  0  0  0  0  0  0
  186.4200  177.6140  140.5780 N   0  0  0  0  0  0  0  0  0  0  0  0
  186.4310  178.4600  142.5540 C   0  0  2  0  0  3  0  0  0  0  0  0
  187.5360  177.1620  141.1910 C   0  0  0  0  0  3  0  0  0  0  0  0
  187.5700  177.7030  142.4640 C   0  0  0  0  0  0  0  0  0  0  0  0
  186.0060  179.1960  143.6950 N   0  0  0  0  0  1  0  0  0  0  0  0
  189.9810  177.7880  143.1320 C   0  0  0  0  0  3  0  0  0  0  0  0
  190.6270  178.6520  143.7050 O   0  0  0  0  0  0  0  0  0  0  0  0
  1  2  1  0  0  0  0
  3  2  1  6  0  0  0
  6  3  1  6  0  0  0
  6 12  1  0  0  0  0
  7 13  1  0  0  0  0
  8  9  1  0  0  0  0
  9 12  1  0  0  0  0
  9  4  1  0  0  0  0
 10 15  1  1  0  0  0
 10  8  1  0  0  0  0
 11 13  1  0  0  0  0
 12  5  1  6  0  0  0
 13 10  1  0  0  0  0
 13  6  1  0  0  0  0
 14  9  1  0  0  0  0
 15 17  1  0  0  0  0
 16 15  2  0  0  0  0
 18 20  2  0  0  0  0
 20 21  1  0  0  0  0
 20 19  1  0  0  0  0
 20  3  1  0  0  0  0
 22  1  1  6  0  0  0
 23 22  1  6  0  0  0
 23 32  1  0  0  0  0
 23 31  1  0  0  0  0
 25 29  1  6  0  0  0
 25 27  1  0  0  0  0
 26 28  1  0  0  0  0
 28 24  2  0  0  0  0
 28 29  1  0  0  0  0
 30 25  1  0  0  0  0
 30 27  1  6  0  0  0
 31 26  1  6  0  0  0
 32 31  1  0  0  0  0
 32 30  1  0  0  0  0
 32 25  1  0  0  0  0
 33 22  1  0  0  0  0
 34 36  1  0  0  0  0
 35 37  1  0  0  0  0
 35 34  2  0  0  0  0
 36 39  1  0  0  0  0
 37 38  2  0  0  0  0
 38 36  1  0  0  0  0
 38 33  1  0  0  0  0
 40 33  1  0  0  0  0
 40 41  2  0  0  0  0
M  END
>  <MODEL>
3

>  <REMARK>
 VINA RESULT:      -6.7      2.568      3.912
  Name = 
  10 active torsions:
  status: ('A' for Active; 'I' for Inactive)
    1  A    between atoms: C_2  and  C_35
    2  A    between atoms: C_5  and  C_9
    3  A    between atoms: C_5  and  C_14
    4  A    between atoms: C_6  and  C_29
    5  A    between atoms: C_9  and  C_35
    6  A    between atoms: C_12  and  C_14
    7  A    between atoms: C_14  and  P_24
    8  A    between atoms: C_19  and  C_23
    9  A    between atoms: C_23  and  C_33
   10  A    between atoms: C_23  and  C_35
                            x       y       z     vdW  Elec       q    Type
                         _______ _______ _______ _____ _____    ______ ____

>  <TORSDO>
F 10

$$$$
=
 OpenBabel11062421403D

 41 46  0  0  1  0  0  0  0  0999 V2000
  189.7120  174.2640  145.8710 C   0  0  0  0  0  2  0  0  0  0  0  0
  189.5290  173.5640  144.5410 C   0  0  0  0  0  2  0  0  0  0  0  0
  190.7730  173.7170  143.6790 C   0  0  2  0  0  3  0  0  0  0  0  0
  187.8800  175.5220  140.4350 F   0  0  0  0  0  0  0  0  0  0  0  0
  189.9710  175.8880  142.1930 O   0  0  0  0  0  1  0  0  0  0  0  0
  190.5090  173.5050  142.1690 C   0  0  2  0  0  3  0  0  0  0  0  0
  190.9090  171.1940  141.6450 O   0  0  0  0  0  1  0  0  0  0  0  0
  188.1910  173.2830  140.2650 O   0  0  0  0  0  0  0  0  0  0  0  0
  188.3770  174.4190  141.1040 C   0  0  0  0  0  0  0  0  0  0  0  0
  189.2110  172.2910  140.3530 C   0  0  2  0  0  3  0  0  0  0  0  0
  188.9420  171.7100  142.6470 O   0  0  0  0  0  1  0  0  0  0  0  0
  189.8460  174.7030  141.4640 C   0  0  1  0  0  3  0  0  0  0  0  0
  189.8980  172.1520  141.7290 C   0  0  0  0  0  0  0  0  0  0  0  0
  187.6310  174.2520  142.2580 F   0  0  0  0  0  0  0  0  0  0  0  0
  190.1550  172.3720  139.1890 C   0  0  0  0  0  0  0  0  0  0  0  0
  190.4150  173.6000  138.5990 O   0  0  0  0  0  0  0  0  0  0  0  0
  190.7000  171.3330  138.7300 O   0  0  0  0  0  1  0  0  0  0  0  0
  192.8050  173.4190  145.7050 O   0  0  0  0  0  1  0  0  0  0  0  0
  193.3620  172.6100  143.1320 O   0  0  0  0  0  0  0  0  0  0  0  0
  192.1560  172.7110  144.3140 P   0  0  0  0  0  0  0  0  0  0  0  0
  191.6660  171.3180  144.6370 O   0  0  0  0  0  1  0  0  0  0  0  0
  189.3070  175.7240  145.7240 C   0  0  1  0  0  3  0  0  0  0  0  0
  187.9310  175.9690  146.3320 C   0  0  2  0  0  3  0  0  0  0  0  0
  186.5140  178.7510  142.6500 O   0  0  0  0  0  0  0  0  0  0  0  0
  186.1520  178.0820  146.2160 C   0  0  1  0  0  0  0  0  0  0  0  0
  187.2010  176.8190  143.8720 C   0  0  0  0  0  2  0  0  0  0  0  0
  186.0220  178.9080  147.3410 O   0  0  0  0  0  0  0  0  0  0  0  0
  186.6450  178.2390  143.7480 C   0  0  0  0  0  0  0  0  0  0  0  0
  186.3160  179.0400  145.0140 C   0  0  0  0  0  2  0  0  0  0  0  0
  186.9860  177.9010  147.4520 C   0  0  2  0  0  3  0  0  0  0  0  0
  186.9080  176.2980  145.2930 C   0  0  2  0  0  3  0  0  0  0  0  0
  187.5300  177.4240  146.1400 C   0  0  2  0  0  0  0  0  0  0  0  0
  190.3480  176.6990  146.2910 C   0  0  2  0  0  3  0  0  0  0  0  0
  192.6340  177.6860  143.5910 N   0  0  0  0  0  0  0  0  0  0  0  0
  193.3980  176.8270  144.2500 N   0  0  0  0  0  2  0  0  0  0  0  0
  191.4630  177.7630  144.2390 C   0  0  0  0  0  0  0  0  0  0  0  0
  192.7250  176.3490  145.3200 C   0  0  0  0  0  3  0  0  0  0  0  0
  191.4780  176.9460  145.3390 C   0  0  0  0  0  0  0  0  0  0  0  0
  190.3720  178.5720  143.8140 N   0  0  0  0  0  1  0  0  0  0  0  0
  190.8160  176.3770  147.6850 C   0  0  0  0  0  3  0  0  0  0  0  0
  191.2240  177.2490  148.4370 O   0  0  0  0  0  0  0  0  0  0  0  0
  2  1  1  0  0  0  0
  3 20  1  0  0  0  0
  3  2  1  1  0  0  0
  4  9  1  0  0  0  0
  6  3  1  1  0  0  0
  7 13  1  0  0  0  0
  8 10  1  0  0  0  0
  8  9  1  0  0  0  0
  9 12  1  0  0  0  0
  9 14  1  0  0  0  0
 10 15  1  6  0  0  0
 10 13  1  0  0  0  0
 12  6  1  0  0  0  0
 12  5  1  1  0  0  0
 13  6  1  0  0  0  0
 13 11  1  0  0  0  0
 16 15  2  0  0  0  0
 17 15  1  0  0  0  0
 19 20  2  0  0  0  0
 20 21  1  0  0  0  0
 20 18  1  0  0  0  0
 22  1  1  1  0  0  0
 22 33  1  0  0  0  0
 23 22  1  6  0  0  0
 24 28  2  0  0  0  0
 25 29  1  1  0  0  0
 25 27  1  0  0  0  0
 25 30  1  0  0  0  0
 28 26  1  0  0  0  0
 28 29  1  0  0  0  0
 30 27  1  6  0  0  0
 31 26  1  6  0  0  0
 31 32  1  0  0  0  0
 31 23  1  0  0  0  0
 32 25  1  0  0  0  0
 32 23  1  0  0  0  0
 32 30  1  0  0  0  0
 33 40  1  0  0  0  0
 34 36  2  0  0  0  0
 34 35  1  0  0  0  0
 35 37  1  0  0  0  0
 36 38  1  0  0  0  0
 37 38  2  0  0  0  0
 38 33  1  0  0  0  0
 39 36  1  0  0  0  0
 40 41  2  0  0  0  0
M  END
>  <MODEL>
4

>  <REMARK>
 VINA RESULT:      -6.6      2.667      4.253
  Name = 
  10 active torsions:
  status: ('A' for Active; 'I' for Inactive)
    1  A    between atoms: C_2  and  C_35
    2  A    between atoms: C_5  and  C_9
    3  A    between atoms: C_5  and  C_14
    4  A    between atoms: C_6  and  C_29
    5  A    between atoms: C_9  and  C_35
    6  A    between atoms: C_12  and  C_14
    7  A    between atoms: C_14  and  P_24
    8  A    between atoms: C_19  and  C_23
    9  A    between atoms: C_23  and  C_33
   10  A    between atoms: C_23  and  C_35
                            x       y       z     vdW  Elec       q    Type
                         _______ _______ _______ _____ _____    ______ ____

>  <TORSDO>
F 10

$$$$
=
 OpenBabel11062421403D

 41 46  0  0  1  0  0  0  0  0999 V2000
  192.0870  175.9960  143.0370 C   0  0  0  0  0  2  0  0  0  0  0  0
  190.8920  175.5920  143.8750 C   0  0  0  0  0  2  0  0  0  0  0  0
  189.7590  175.0950  142.9890 C   0  0  2  0  0  3  0  0  0  0  0  0
  187.0670  178.1830  140.6730 F   0  0  0  0  0  0  0  0  0  0  0  0
  188.1770  175.6640  140.8120 O   0  0  0  0  0  1  0  0  0  0  0  0
  188.4160  175.8210  143.2390 C   0  0  2  0  0  3  0  0  0  0  0  0
  188.1970  176.2250  145.5980 O   0  0  0  0  0  1  0  0  0  0  0  0
  187.1960  178.5500  142.9060 O   0  0  0  0  0  0  0  0  0  0  0  0
  187.7660  177.8360  141.8130 C   0  0  0  0  0  0  0  0  0  0  0  0
  187.1960  177.8550  144.1500 C   0  0  2  0  0  3  0  0  0  0  0  0
  189.5490  177.6140  144.4230 O   0  0  0  0  0  1  0  0  0  0  0  0
  187.7060  176.3060  141.9610 C   0  0  1  0  0  3  0  0  0  0  0  0
  188.3660  176.8730  144.3740 C   0  0  0  0  0  0  0  0  0  0  0  0
  189.0780  178.2430  141.6460 F   0  0  0  0  0  0  0  0  0  0  0  0
  185.8400  177.2910  144.4610 C   0  0  0  0  0  0  0  0  0  0  0  0
  185.5780  176.7910  145.7280 O   0  0  0  0  0  1  0  0  0  0  0  0
  184.9420  177.2490  143.5790 O   0  0  0  0  0  0  0  0  0  0  0  0
  188.1390  172.7870  142.3780 O   0  0  0  0  0  1  0  0  0  0  0  0
  189.6930  172.7580  144.6510 O   0  0  0  0  0  1  0  0  0  0  0  0
  189.6140  173.2780  143.0430 P   0  0  0  0  0  0  0  0  0  0  0  0
  190.7510  172.6530  142.2670 O   0  0  0  0  0  0  0  0  0  0  0  0
  193.3110  175.2300  143.5150 C   0  0  1  0  0  3  0  0  0  0  0  0
  192.9260  174.1890  144.5600 C   0  0  2  0  0  3  0  0  0  0  0  0
  197.4470  173.7910  146.2050 O   0  0  0  0  0  0  0  0  0  0  0  0
  194.2720  172.0670  145.7130 C   0  0  1  0  0  0  0  0  0  0  0  0
  195.3100  174.7340  145.7100 C   0  0  0  0  0  2  0  0  0  0  0  0
  193.9350  170.7670  145.3140 O   0  0  0  0  0  0  0  0  0  0  0  0
  196.2860  173.5710  145.9060 C   0  0  0  0  0  0  0  0  0  0  0  0
  195.8150  172.1330  145.6570 C   0  0  0  0  0  2  0  0  0  0  0  0
  193.2580  171.7880  144.6410 C   0  0  2  0  0  3  0  0  0  0  0  0
  193.8730  174.1770  145.7170 C   0  0  2  0  0  3  0  0  0  0  0  0
  193.9850  173.0990  144.6220 C   0  0  2  0  0  0  0  0  0  0  0  0
  194.1120  174.5970  142.3690 C   0  0  2  0  0  3  0  0  0  0  0  0
  197.7420  175.1560  142.2630 N   0  0  0  0  0  0  0  0  0  0  0  0
  197.3090  176.4060  142.3460 N   0  0  0  0  0  2  0  0  0  0  0  0
  196.6650  174.3570  142.2440 C   0  0  0  0  0  0  0  0  0  0  0  0
  195.9580  176.4170  142.3800 C   0  0  0  0  0  3  0  0  0  0  0  0
  195.5200  175.1080  142.3060 C   0  0  0  0  0  0  0  0  0  0  0  0
  196.7310  172.9370  142.1850 N   0  0  0  0  0  1  0  0  0  0  0  0
  193.4210  174.6200  141.0320 C   0  0  0  0  0  3  0  0  0  0  0  0
  193.3980  173.6340  140.3110 O   0  0  0  0  0  0  0  0  0  0  0  0
  1  2  1  0  0  0  0
  3 20  1  0  0  0  0
  3  2  1  1  0  0  0
  4  9  1  0  0  0  0
  6  3  1  6  0  0  0
  6 13  1  0  0  0  0
  8 10  1  0  0  0  0
  9 12  1  0  0  0  0
  9  8  1  0  0  0  0
 10 13  1  0  0  0  0
 10 15  1  6  0  0  0
 12  5  1  6  0  0  0
 12  6  1  0  0  0  0
 13 11  1  0  0  0  0
 13  7  1  0  0  0  0
 14  9  1  0  0  0  0
 15 16  1  0  0  0  0
 17 15  2  0  0  0  0
 18 20  1  0  0  0  0
 20 19  1  0  0  0  0
 21 20  2  0  0  0  0
 22  1  1  6  0  0  0
 23 22  1  6  0  0  0
 23 32  1  0  0  0  0
 23 31  1  0  0  0  0
 25 29  1  6  0  0  0
 26 28  1  0  0  0  0
 27 25  1  0  0  0  0
 28 24  2  0  0  0  0
 29 28  1  0  0  0  0
 30 27  1  6  0  0  0
 30 25  1  0  0  0  0
 31 26  1  6  0  0  0
 32 30  1  0  0  0  0
 32 25  1  0  0  0  0
 32 31  1  0  0  0  0
 33 22  1  0  0  0  0
 34 35  1  0  0  0  0
 35 37  1  0  0  0  0
 36 34  2  0  0  0  0
 36 38  1  0  0  0  0
 38 33  1  0  0  0  0
 38 37  2  0  0  0  0
 39 36  1  0  0  0  0
 40 33  1  0  0  0  0
 41 40  2  0  0  0  0
M  END
>  <MODEL>
5

>  <REMARK>
 VINA RESULT:      -6.5      4.699      8.233
  Name = 
  10 active torsions:
  status: ('A' for Active; 'I' for Inactive)
    1  A    between atoms: C_2  and  C_35
    2  A    between atoms: C_5  and  C_9
    3  A    between atoms: C_5  and  C_14
    4  A    between atoms: C_6  and  C_29
    5  A    between atoms: C_9  and  C_35
    6  A    between atoms: C_12  and  C_14
    7  A    between atoms: C_14  and  P_24
    8  A    between atoms: C_19  and  C_23
    9  A    between atoms: C_23  and  C_33
   10  A    between atoms: C_23  and  C_35
                            x       y       z     vdW  Elec       q    Type
                         _______ _______ _______ _____ _____    ______ ____

>  <TORSDO>
F 10

$$$$
=
 OpenBabel11062421403D

 41 46  0  0  1  0  0  0  0  0999 V2000
  190.0060  174.9040  142.8540 C   0  0  0  0  0  2  0  0  0  0  0  0
  191.4810  175.1960  142.6730 C   0  0  0  0  0  2  0  0  0  0  0  0
  192.3240  174.0340  143.1790 C   0  0  2  0  0  3  0  0  0  0  0  0
  194.5640  176.1720  146.7220 F   0  0  0  0  0  0  0  0  0  0  0  0
  193.0970  174.0210  145.8170 O   0  0  0  0  0  1  0  0  0  0  0  0
  193.7830  174.4270  143.5080 C   0  0  2  0  0  3  0  0  0  0  0  0
  194.9110  174.9550  141.4530 O   0  0  0  0  0  1  0  0  0  0  0  0
  195.3220  176.7390  144.6620 O   0  0  0  0  0  0  0  0  0  0  0  0
  194.2670  176.1000  145.3740 C   0  0  0  0  0  0  0  0  0  0  0  0
  195.6300  176.1680  143.3940 C   0  0  2  0  0  3  0  0  0  0  0  0
  193.5350  176.5340  142.3220 O   0  0  0  0  0  1  0  0  0  0  0  0
  194.0680  174.6180  145.0090 C   0  0  1  0  0  3  0  0  0  0  0  0
  194.4470  175.5240  142.6390 C   0  0  0  0  0  0  0  0  0  0  0  0
  193.0930  176.8000  145.1620 F   0  0  0  0  0  0  0  0  0  0  0  0
  196.8650  175.3170  143.4620 C   0  0  0  0  0  0  0  0  0  0  0  0
  197.1570  174.6220  144.6260 O   0  0  0  0  0  1  0  0  0  0  0  0
  197.6490  175.2410  142.4800 O   0  0  0  0  0  0  0  0  0  0  0  0
  191.9260  173.0870  140.4830 O   0  0  0  0  0  0  0  0  0  0  0  0
  190.9150  171.6090  142.5750 O   0  0  0  0  0  1  0  0  0  0  0  0
  192.2010  172.5880  142.0740 P   0  0  0  0  0  0  0  0  0  0  0  0
  193.4820  171.7880  142.1380 O   0  0  0  0  0  1  0  0  0  0  0  0
  189.2890  176.1910  143.2360 C   0  0  1  0  0  3  0  0  0  0  0  0
  187.7980  175.9420  143.4350 C   0  0  2  0  0  3  0  0  0  0  0  0
  186.6810  177.5370  139.0170 O   0  0  0  0  0  0  0  0  0  0  0  0
  185.5220  177.1660  142.4540 C   0  0  1  0  0  0  0  0  0  0  0  0
  187.5930  176.1700  140.7490 C   0  0  0  0  0  2  0  0  0  0  0  0
  184.7840  177.9900  143.3140 O   0  0  0  0  0  0  0  0  0  0  0  0
  186.6450  177.2370  140.1980 C   0  0  0  0  0  0  0  0  0  0  0  0
  185.6970  177.9770  141.1500 C   0  0  0  0  0  2  0  0  0  0  0  0
  185.9550  177.4580  143.8620 C   0  0  2  0  0  3  0  0  0  0  0  0
  187.0860  175.7310  142.1370 C   0  0  2  0  0  3  0  0  0  0  0  0
  186.9970  177.0940  142.8480 C   0  0  2  0  0  0  0  0  0  0  0  0
  189.9050  176.8850  144.4590 C   0  0  2  0  0  3  0  0  0  0  0  0
  188.1580  175.6360  147.4400 N   0  0  0  0  0  0  0  0  0  0  0  0
  187.7080  176.8830  147.4010 N   0  0  0  0  0  2  0  0  0  0  0  0
  189.0060  175.4830  146.4120 C   0  0  0  0  0  0  0  0  0  0  0  0
  188.2620  177.5340  146.3550 C   0  0  0  0  0  3  0  0  0  0  0  0
  189.1100  176.6540  145.7080 C   0  0  0  0  0  0  0  0  0  0  0  0
  189.6750  174.2640  146.1110 N   0  0  0  0  0  1  0  0  0  0  0  0
  190.2580  178.3330  144.2480 C   0  0  0  0  0  3  0  0  0  0  0  0
  191.2190  178.6610  143.5700 O   0  0  0  0  0  0  0  0  0  0  0  0
  2  1  1  0  0  0  0
  3  2  1  6  0  0  0
  6  3  1  1  0  0  0
  6 12  1  0  0  0  0
  7 13  1  0  0  0  0
  8  9  1  0  0  0  0
  9  4  1  0  0  0  0
 10 15  1  1  0  0  0
 10  8  1  0  0  0  0
 11 13  1  0  0  0  0
 12  9  1  0  0  0  0
 12  5  1  1  0  0  0
 13 10  1  0  0  0  0
 13  6  1  0  0  0  0
 14  9  1  0  0  0  0
 15 16  1  0  0  0  0
 17 15  2  0  0  0  0
 18 20  2  0  0  0  0
 20 21  1  0  0  0  0
 20 19  1  0  0  0  0
 20  3  1  0  0  0  0
 22  1  1  1  0  0  0
 22 33  1  0  0  0  0
 23 22  1  6  0  0  0
 24 28  2  0  0  0  0
 25 29  1  1  0  0  0
 25 32  1  0  0  0  0
 25 27  1  0  0  0  0
 25 30  1  0  0  0  0
 28 26  1  0  0  0  0
 28 29  1  0  0  0  0
 30 27  1  6  0  0  0
 31 26  1  6  0  0  0
 31 32  1  0  0  0  0
 31 23  1  0  0  0  0
 32 23  1  0  0  0  0
 32 30  1  0  0  0  0
 33 38  1  0  0  0  0
 35 34  1  0  0  0  0
 36 34  2  0  0  0  0
 37 35  1  0  0  0  0
 38 37  2  0  0  0  0
 38 36  1  0  0  0  0
 39 36  1  0  0  0  0
 40 33  1  0  0  0  0
 41 40  2  0  0  0  0
M  END
>  <MODEL>
6

>  <REMARK>
 VINA RESULT:      -6.4      3.348      5.524
  Name = 
  10 active torsions:
  status: ('A' for Active; 'I' for Inactive)
    1  A    between atoms: C_2  and  C_35
    2  A    between atoms: C_5  and  C_9
    3  A    between atoms: C_5  and  C_14
    4  A    between atoms: C_6  and  C_29
    5  A    between atoms: C_9  and  C_35
    6  A    between atoms: C_12  and  C_14
    7  A    between atoms: C_14  and  P_24
    8  A    between atoms: C_19  and  C_23
    9  A    between atoms: C_23  and  C_33
   10  A    between atoms: C_23  and  C_35
                            x       y       z     vdW  Elec       q    Type
                         _______ _______ _______ _____ _____    ______ ____

>  <TORSDO>
F 10

$$$$
=
 OpenBabel11062421403D

 41 46  0  0  1  0  0  0  0  0999 V2000
  189.1540  174.9210  144.1280 C   0  0  0  0  0  2  0  0  0  0  0  0
  189.9970  174.8140  142.8750 C   0  0  0  0  0  2  0  0  0  0  0  0
  190.1350  173.3610  142.4440 C   0  0  2  0  0  3  0  0  0  0  0  0
  193.6410  172.0200  145.2830 F   0  0  0  0  0  0  0  0  0  0  0  0
  191.1340  171.5370  144.2440 O   0  0  0  0  0  1  0  0  0  0  0  0
  191.6030  172.9040  142.2740 C   0  0  2  0  0  3  0  0  0  0  0  0
  192.5410  174.0460  140.3780 O   0  0  0  0  0  1  0  0  0  0  0  0
  194.2920  173.3320  143.5530 O   0  0  0  0  0  0  0  0  0  0  0  0
  193.1690  172.8570  144.2890 C   0  0  0  0  0  0  0  0  0  0  0  0
  194.0620  173.5330  142.1610 C   0  0  2  0  0  3  0  0  0  0  0  0
  192.3760  175.2080  142.3180 O   0  0  0  0  0  1  0  0  0  0  0  0
  192.1500  172.0700  143.4470 C   0  0  1  0  0  3  0  0  0  0  0  0
  192.6280  173.9480  141.7680 C   0  0  0  0  0  0  0  0  0  0  0  0
  192.5460  173.9310  144.9010 F   0  0  0  0  0  0  0  0  0  0  0  0
  194.6340  172.4110  141.3440 C   0  0  0  0  0  0  0  0  0  0  0  0
  194.6050  171.1160  141.8410 O   0  0  0  0  0  1  0  0  0  0  0  0
  195.1560  172.6340  140.2200 O   0  0  0  0  0  0  0  0  0  0  0  0
  187.5040  172.6870  141.4720 O   0  0  0  0  0  1  0  0  0  0  0  0
  189.7040  171.6250  140.2020 O   0  0  0  0  0  1  0  0  0  0  0  0
  189.0960  172.9920  140.9920 P   0  0  0  0  0  0  0  0  0  0  0  0
  189.1200  174.1630  140.0370 O   0  0  0  0  0  0  0  0  0  0  0  0
  188.5080  176.2980  144.1770 C   0  0  1  0  0  3  0  0  0  0  0  0
  186.9880  176.1840  144.1780 C   0  0  2  0  0  3  0  0  0  0  0  0
  186.5970  177.9080  139.6850 O   0  0  0  0  0  0  0  0  0  0  0  0
  184.9750  177.6170  142.9380 C   0  0  1  0  0  0  0  0  0  0  0  0
  187.1520  176.4500  141.4930 C   0  0  0  0  0  2  0  0  0  0  0  0
  184.2090  178.4980  143.7130 O   0  0  0  0  0  0  0  0  0  0  0  0
  186.3820  177.6030  140.8460 C   0  0  0  0  0  0  0  0  0  0  0  0
  185.3890  178.4190  141.6830 C   0  0  0  0  0  2  0  0  0  0  0  0
  185.2470  177.8580  144.3960 C   0  0  2  0  0  3  0  0  0  0  0  0
  186.4330  176.0490  142.7960 C   0  0  2  0  0  3  0  0  0  0  0  0
  186.3750  177.4090  143.5160 C   0  0  2  0  0  0  0  0  0  0  0  0
  189.0030  177.1560  145.3490 C   0  0  2  0  0  3  0  0  0  0  0  0
  192.6700  177.2310  145.1530 N   0  0  0  0  0  0  0  0  0  0  0  0
  192.5040  176.5420  146.2730 N   0  0  0  0  0  2  0  0  0  0  0  0
  191.4520  177.5500  144.6920 C   0  0  0  0  0  0  0  0  0  0  0  0
  191.1840  176.4150  146.5370 C   0  0  0  0  0  3  0  0  0  0  0  0
  190.4870  177.0660  145.5360 C   0  0  0  0  0  0  0  0  0  0  0  0
  191.2240  178.2740  143.4890 N   0  0  0  0  0  1  0  0  0  0  0  0
  188.2390  176.9670  146.6320 C   0  0  0  0  0  3  0  0  0  0  0  0
  187.7960  177.9190  147.2560 O   0  0  0  0  0  0  0  0  0  0  0  0
  2  1  1  0  0  0  0
  3  2  1  6  0  0  0
  6  3  1  1  0  0  0
  6 12  1  0  0  0  0
  7 13  1  0  0  0  0
  8  9  1  0  0  0  0
  9 14  1  0  0  0  0
  9  4  1  0  0  0  0
 10 15  1  6  0  0  0
 10  8  1  0  0  0  0
 12  5  1  1  0  0  0
 12  9  1  0  0  0  0
 13 10  1  0  0  0  0
 13  6  1  0  0  0  0
 13 11  1  0  0  0  0
 15 16  1  0  0  0  0
 17 15  2  0  0  0  0
 19 20  1  0  0  0  0
 20 18  1  0  0  0  0
 20  3  1  0  0  0  0
 21 20  2  0  0  0  0
 22  1  1  1  0  0  0
 22 33  1  0  0  0  0
 23 22  1  6  0  0  0
 24 28  2  0  0  0  0
 25 29  1  1  0  0  0
 25 32  1  0  0  0  0
 25 27  1  0  0  0  0
 25 30  1  0  0  0  0
 28 26  1  0  0  0  0
 28 29  1  0  0  0  0
 30 27  1  6  0  0  0
 31 26  1  6  0  0  0
 31 32  1  0  0  0  0
 31 23  1  0  0  0  0
 32 23  1  0  0  0  0
 32 30  1  0  0  0  0
 33 38  1  0  0  0  0
 33 40  1  0  0  0  0
 34 35  1  0  0  0  0
 35 37  1  0  0  0  0
 36 34  2  0  0  0  0
 36 38  1  0  0  0  0
 38 37  2  0  0  0  0
 39 36  1  0  0  0  0
 40 41  2  0  0  0  0
M  END
>  <MODEL>
7

>  <REMARK>
 VINA RESULT:      -6.4      2.954      5.057
  Name = 
  10 active torsions:
  status: ('A' for Active; 'I' for Inactive)
    1  A    between atoms: C_2  and  C_35
    2  A    between atoms: C_5  and  C_9
    3  A    between atoms: C_5  and  C_14
    4  A    between atoms: C_6  and  C_29
    5  A    between atoms: C_9  and  C_35
    6  A    between atoms: C_12  and  C_14
    7  A    between atoms: C_14  and  P_24
    8  A    between atoms: C_19  and  C_23
    9  A    between atoms: C_23  and  C_33
   10  A    between atoms: C_23  and  C_35
                            x       y       z     vdW  Elec       q    Type
                         _______ _______ _______ _____ _____    ______ ____

>  <TORSDO>
F 10

$$$$
=
 OpenBabel11062421403D

 41 46  0  0  1  0  0  0  0  0999 V2000
  190.2600  174.2990  143.5450 C   0  0  0  0  0  2  0  0  0  0  0  0
  189.7330  175.6740  143.8940 C   0  0  0  0  0  2  0  0  0  0  0  0
  188.4050  175.5690  144.6300 C   0  0  2  0  0  3  0  0  0  0  0  0
  186.6920  176.4220  140.3310 F   0  0  0  0  0  0  0  0  0  0  0  0
  187.1000  174.6410  142.3940 O   0  0  0  0  0  1  0  0  0  0  0  0
  187.2900  176.4530  144.0220 C   0  0  2  0  0  3  0  0  0  0  0  0
  187.1060  178.4570  145.3360 O   0  0  0  0  0  1  0  0  0  0  0  0
  186.8380  178.2550  141.6570 O   0  0  0  0  0  0  0  0  0  0  0  0
  187.2380  176.8960  141.5090 C   0  0  0  0  0  0  0  0  0  0  0  0
  186.6140  178.6780  142.9990 C   0  0  2  0  0  3  0  0  0  0  0  0
  188.8130  178.3390  143.8490 O   0  0  0  0  0  1  0  0  0  0  0  0
  186.7750  175.9750  142.6520 C   0  0  1  0  0  3  0  0  0  0  0  0
  187.4800  177.9890  144.0760 C   0  0  0  0  0  0  0  0  0  0  0  0
  188.6150  176.8430  141.3880 F   0  0  0  0  0  0  0  0  0  0  0  0
  185.1480  178.7350  143.3180 C   0  0  0  0  0  0  0  0  0  0  0  0
  184.6790  179.6730  144.2250 O   0  0  0  0  0  1  0  0  0  0  0  0
  184.3420  177.9280  142.7850 O   0  0  0  0  0  0  0  0  0  0  0  0
  189.6150  177.1400  146.7260 O   0  0  0  0  0  0  0  0  0  0  0  0
  189.3170  174.4280  147.0980 O   0  0  0  0  0  1  0  0  0  0  0  0
  188.6140  175.8110  146.4250 P   0  0  0  0  0  0  0  0  0  0  0  0
  187.2650  176.0400  147.0690 O   0  0  0  0  0  1  0  0  0  0  0  0
  191.7770  174.3600  143.4400 C   0  0  1  0  0  3  0  0  0  0  0  0
  192.4310  173.5510  144.5540 C   0  0  2  0  0  3  0  0  0  0  0  0
  194.5710  177.4350  146.4650 O   0  0  0  0  0  0  0  0  0  0  0  0
  194.7910  173.8290  145.9680 C   0  0  1  0  0  0  0  0  0  0  0  0
  192.8540  175.9260  145.7730 C   0  0  0  0  0  2  0  0  0  0  0  0
  195.8510  172.9620  145.6730 O   0  0  0  0  0  0  0  0  0  0  0  0
  194.2960  176.2960  146.1260 C   0  0  0  0  0  0  0  0  0  0  0  0
  195.4060  175.2470  145.9860 C   0  0  0  0  0  2  0  0  0  0  0  0
  194.7150  172.8020  144.8740 C   0  0  2  0  0  3  0  0  0  0  0  0
  192.7300  174.3910  145.7550 C   0  0  2  0  0  3  0  0  0  0  0  0
  193.8590  174.0290  144.7720 C   0  0  2  0  0  0  0  0  0  0  0  0
  192.3030  173.9350  142.0620 C   0  0  2  0  0  3  0  0  0  0  0  0
  195.4480  175.3520  140.7970 N   0  0  0  0  0  0  0  0  0  0  0  0
  194.8690  176.4430  141.2780 N   0  0  0  0  0  2  0  0  0  0  0  0
  194.6060  174.3280  140.9990 C   0  0  0  0  0  0  0  0  0  0  0  0
  193.6580  176.1270  141.7880 C   0  0  0  0  0  3  0  0  0  0  0  0
  193.4630  174.7700  141.6100 C   0  0  0  0  0  0  0  0  0  0  0  0
  194.8920  172.9820  140.6340 N   0  0  0  0  0  1  0  0  0  0  0  0
  191.2430  173.7840  141.0040 C   0  0  0  0  0  3  0  0  0  0  0  0
  191.0450  172.7130  140.4490 O   0  0  0  0  0  0  0  0  0  0  0  0
  1  2  1  0  0  0  0
  3  2  1  6  0  0  0
  3 20  1  0  0  0  0
  4  9  1  0  0  0  0
  6 13  1  0  0  0  0
  6  3  1  6  0  0  0
  8 10  1  0  0  0  0
  9  8  1  0  0  0  0
  9 12  1  0  0  0  0
 10 15  1  1  0  0  0
 10 13  1  0  0  0  0
 11 13  1  0  0  0  0
 12  5  1  6  0  0  0
 12  6  1  0  0  0  0
 13  7  1  0  0  0  0
 14  9  1  0  0  0  0
 15 16  1  0  0  0  0
 17 15  2  0  0  0  0
 20 18  2  0  0  0  0
 20 21  1  0  0  0  0
 20 19  1  0  0  0  0
 22  1  1  6  0  0  0
 23 22  1  6  0  0  0
 23 32  1  0  0  0  0
 23 31  1  0  0  0  0
 25 29  1  6  0  0  0
 26 28  1  0  0  0  0
 27 25  1  0  0  0  0
 28 24  2  0  0  0  0
 29 28  1  0  0  0  0
 30 27  1  6  0  0  0
 30 25  1  0  0  0  0
 31 26  1  6  0  0  0
 32 30  1  0  0  0  0
 32 31  1  0  0  0  0
 32 25  1  0  0  0  0
 33 22  1  0  0  0  0
 34 36  2  0  0  0  0
 34 35  1  0  0  0  0
 35 37  1  0  0  0  0
 36 38  1  0  0  0  0
 38 37  2  0  0  0  0
 38 33  1  0  0  0  0
 39 36  1  0  0  0  0
 40 33  1  0  0  0  0
 41 40  2  0  0  0  0
M  END
>  <MODEL>
8

>  <REMARK>
 VINA RESULT:      -6.3      4.102      7.656
  Name = 
  10 active torsions:
  status: ('A' for Active; 'I' for Inactive)
    1  A    between atoms: C_2  and  C_35
    2  A    between atoms: C_5  and  C_9
    3  A    between atoms: C_5  and  C_14
    4  A    between atoms: C_6  and  C_29
    5  A    between atoms: C_9  and  C_35
    6  A    between atoms: C_12  and  C_14
    7  A    between atoms: C_14  and  P_24
    8  A    between atoms: C_19  and  C_23
    9  A    between atoms: C_23  and  C_33
   10  A    between atoms: C_23  and  C_35
                            x       y       z     vdW  Elec       q    Type
                         _______ _______ _______ _____ _____    ______ ____

>  <TORSDO>
F 10

$$$$
=
 OpenBabel11062421403D

 41 46  0  0  1  0  0  0  0  0999 V2000
  191.9190  175.3360  142.0120 C   0  0  0  0  0  2  0  0  0  0  0  0
  193.2270  175.4070  142.7700 C   0  0  0  0  0  2  0  0  0  0  0  0
  194.2530  174.4620  142.1610 C   0  0  2  0  0  3  0  0  0  0  0  0
  193.0630  170.6440  144.6430 F   0  0  0  0  0  0  0  0  0  0  0  0
  193.5460  171.8040  142.1900 O   0  0  0  0  0  1  0  0  0  0  0  0
  194.9370  173.5410  143.1990 C   0  0  2  0  0  3  0  0  0  0  0  0
  196.4600  174.8650  144.5040 O   0  0  0  0  0  1  0  0  0  0  0  0
  194.3040  172.1540  145.7920 O   0  0  0  0  0  0  0  0  0  0  0  0
  193.5350  171.9430  144.6120 C   0  0  0  0  0  0  0  0  0  0  0  0
  195.4240  173.0220  145.6380 C   0  0  2  0  0  3  0  0  0  0  0  0
  194.2550  175.0020  145.0170 O   0  0  0  0  0  1  0  0  0  0  0  0
  194.3220  172.1330  143.3040 C   0  0  1  0  0  3  0  0  0  0  0  0
  195.2690  174.1420  144.5870 C   0  0  0  0  0  0  0  0  0  0  0  0
  192.4410  172.7900  144.6310 F   0  0  0  0  0  0  0  0  0  0  0  0
  196.7070  172.2480  145.5420 C   0  0  0  0  0  0  0  0  0  0  0  0
  197.7830  172.7870  144.8530 O   0  0  0  0  0  0  0  0  0  0  0  0
  196.8100  171.1070  146.0630 O   0  0  0  0  0  1  0  0  0  0  0  0
  195.8830  176.8170  141.8200 O   0  0  0  0  0  1  0  0  0  0  0  0
  194.7190  175.6720  139.6030 O   0  0  0  0  0  0  0  0  0  0  0  0
  195.4380  175.3530  141.1010 P   0  0  0  0  0  0  0  0  0  0  0  0
  196.6690  174.5020  140.8850 O   0  0  0  0  0  1  0  0  0  0  0  0
  190.7780  175.1680  143.0050 C   0  0  1  0  0  3  0  0  0  0  0  0
  190.3850  176.5090  143.6120 C   0  0  2  0  0  3  0  0  0  0  0  0
  188.9670  174.5040  147.7690 O   0  0  0  0  0  0  0  0  0  0  0  0
  188.4660  177.2730  145.4500 C   0  0  1  0  0  0  0  0  0  0  0  0
  190.3880  175.2220  145.9890 C   0  0  0  0  0  2  0  0  0  0  0  0
  187.3270  177.9440  144.9860 O   0  0  0  0  0  0  0  0  0  0  0  0
  189.0970  175.2460  146.8100 C   0  0  0  0  0  0  0  0  0  0  0  0
  187.9400  176.1580  146.3830 C   0  0  0  0  0  2  0  0  0  0  0  0
  188.2200  177.5340  143.9910 C   0  0  2  0  0  3  0  0  0  0  0  0
  190.4330  176.4850  145.1060 C   0  0  2  0  0  3  0  0  0  0  0  0
  189.0800  176.3690  144.3800 C   0  0  2  0  0  0  0  0  0  0  0  0
  189.5600  174.4490  142.4070 C   0  0  2  0  0  3  0  0  0  0  0  0
  190.1000  170.8180  142.5240 N   0  0  0  0  0  0  0  0  0  0  0  0
  190.4130  171.0670  141.2600 N   0  0  0  0  0  0  0  0  0  0  0  0
  189.7430  171.9810  143.0860 C   0  0  2  0  0  3  0  0  0  0  0  0
  190.2580  172.3850  141.0050 C   0  0  0  0  0  3  0  0  0  0  0  0
  189.8170  172.9930  142.1660 C   0  0  0  0  0  0  0  0  0  0  0  0
  189.3600  172.1180  144.4500 N   0  0  0  0  0  1  0  0  0  0  0  0
  188.9430  175.1400  141.2210 C   0  0  0  0  0  3  0  0  0  0  0  0
  187.7980  175.5640  141.2560 O   0  0  0  0  0  0  0  0  0  0  0  0
  1  2  1  0  0  0  0
  3  2  1  1  0  0  0
  6  3  1  1  0  0  0
  6 12  1  0  0  0  0
  6 13  1  0  0  0  0
  7 13  1  0  0  0  0
  9 14  1  0  0  0  0
  9  4  1  0  0  0  0
  9  8  1  0  0  0  0
 10 15  1  6  0  0  0
 10  8  1  0  0  0  0
 12  5  1  6  0  0  0
 12  9  1  0  0  0  0
 13 11  1  0  0  0  0
 13 10  1  0  0  0  0
 15 17  1  0  0  0  0
 16 15  2  0  0  0  0
 19 20  2  0  0  0  0
 20 18  1  0  0  0  0
 20  3  1  0  0  0  0
 21 20  1  0  0  0  0
 22  1  1  6  0  0  0
 23 22  1  6  0  0  0
 23 32  1  0  0  0  0
 23 31  1  0  0  0  0
 25 29  1  6  0  0  0
 26 28  1  0  0  0  0
 27 25  1  0  0  0  0
 28 24  2  0  0  0  0
 29 28  1  0  0  0  0
 30 32  1  0  0  0  0
 30 27  1  1  0  0  0
 30 25  1  0  0  0  0
 31 26  1  6  0  0  0
 32 31  1  0  0  0  0
 32 25  1  0  0  0  0
 33 22  1  0  0  0  0
 34 36  1  0  0  0  0
 35 34  2  0  0  0  0
 36 39  1  0  0  0  0
 37 35  1  0  0  0  0
 37 38  2  0  0  0  0
 38 33  1  0  0  0  0
 38 36  1  0  0  0  0
 40 41  2  0  0  0  0
 40 33  1  0  0  0  0
M  END
>  <MODEL>
9

>  <REMARK>
 VINA RESULT:      -6.3      3.695      5.026
  Name = 
  10 active torsions:
  status: ('A' for Active; 'I' for Inactive)
    1  A    between atoms: C_2  and  C_35
    2  A    between atoms: C_5  and  C_9
    3  A    between atoms: C_5  and  C_14
    4  A    between atoms: C_6  and  C_29
    5  A    between atoms: C_9  and  C_35
    6  A    between atoms: C_12  and  C_14
    7  A    between atoms: C_14  and  P_24
    8  A    between atoms: C_19  and  C_23
    9  A    between atoms: C_23  and  C_33
   10  A    between atoms: C_23  and  C_35
                            x       y       z     vdW  Elec       q    Type
                         _______ _______ _______ _____ _____    ______ ____

>  <TORSDO>
F 10

$$$$
