=
 OpenBabel11062423093D

 28 32  0  0  1  0  0  0  0  0999 V2000
  185.7470  177.4030  145.4760 C   0  0  0  0  0  0  0  0  0  0  0  0
  184.4400  177.8750  142.5890 C   0  0  0  0  0  2  0  0  0  0  0  0
  184.5490  178.2180  145.1540 C   0  0  0  0  0  0  0  0  0  0  0  0
  187.1400  174.9950  141.5100 O   0  0  0  0  0  0  0  0  0  0  0  0
  187.3370  175.5160  142.5970 C   0  0  0  0  0  0  0  0  0  0  0  0
  186.5010  176.6980  144.6410 C   0  0  0  0  0  0  0  0  0  0  0  0
  187.5290  176.4470  146.6570 C   0  0  0  0  0  3  0  0  0  0  0  0
  189.6340  174.6600  145.4870 C   0  0  0  0  0  0  0  0  0  0  0  0
  184.2100  178.6210  143.8180 N   0  0  0  0  0  2  0  0  0  0  0  0
  187.6010  176.1320  145.3740 C   0  0  0  0  0  0  0  0  0  0  0  0
  189.7940  173.4210  145.3190 O   0  0  0  0  0  0  0  0  0  0  0  0
  183.9170  178.7800  146.1300 N   0  0  0  0  0  2  0  0  0  0  0  0
  185.9060  177.5590  142.3920 C   0  0  0  0  0  2  0  0  0  0  0  0
  188.6220  175.3480  144.7380 N   0  0  0  0  0  0  0  0  0  0  0  0
  186.2260  176.3330  143.2190 C   0  0  1  0  0  3  0  0  0  0  0  0
  186.3220  177.3120  146.8610 C   0  0  0  0  0  2  0  0  0  0  0  0
  188.6840  175.3000  143.2720 C   0  0  2  0  0  3  0  0  0  0  0  0
  191.4230  175.4070  142.6370 S   0  0  0  0  0  0  0  0  0  0  0  0
  192.2870  176.9900  142.8540 C   0  0  0  0  0  2  0  0  0  0  0  0
  191.7000  179.1350  143.8940 C   0  0  0  0  0  2  0  0  0  0  0  0
  189.7890  176.2220  142.7400 C   0  0  2  0  0  3  0  0  0  0  0  0
  191.3140  177.9460  143.4420 C   0  0  0  0  0  0  0  0  0  0  0  0
  189.9040  177.5010  143.5500 C   0  0  0  0  0  2  0  0  0  0  0  0
  190.2430  175.6240  147.6260 N   0  0  0  0  0  0  0  0  0  0  0  0
  192.3940  176.4700  147.1550 N   0  0  0  0  0  0  0  0  0  0  0  0
  191.8040  175.8580  146.0420 N   0  0  0  0  0  2  0  0  0  0  0  0
  190.5280  175.3900  146.4000 C   0  0  0  0  0  0  0  0  0  0  0  0
  191.3770  176.3290  148.2090 C   0  0  0  0  0  3  0  0  0  0  0  0
  1 16  1  0  0  0  0
  2  9  1  0  0  0  0
  3  1  1  0  0  0  0
  3 12  2  0  0  0  0
  4  5  2  0  0  0  0
  5 15  1  0  0  0  0
  6 10  1  0  0  0  0
  6  1  2  0  0  0  0
  7 16  1  0  0  0  0
  8 27  1  0  0  0  0
  9  3  1  0  0  0  0
 10  7  2  0  0  0  0
 11  8  2  0  0  0  0
 13  2  1  0  0  0  0
 14 10  1  0  0  0  0
 14  8  1  0  0  0  0
 15 13  1  6  0  0  0
 15  6  1  0  0  0  0
 17  5  1  6  0  0  0
 17 14  1  0  0  0  0
 18 21  1  0  0  0  0
 18 19  1  0  0  0  0
 19 22  1  0  0  0  0
 21 17  1  0  0  0  0
 21 23  1  1  0  0  0
 22 23  1  0  0  0  0
 22 20  2  0  0  0  0
 24 28  1  0  0  0  0
 25 28  2  0  0  0  0
 26 27  1  0  0  0  0
 26 25  1  0  0  0  0
 27 24  2  0  0  0  0
M  END
>  <MODEL>
1

>  <REMARK>
 VINA RESULT:      -7.9      0.000      0.000
  Name = 
  2 active torsions:
  status: ('A' for Active; 'I' for Inactive)
    1  A    between atoms: C_11  and  C_28
    2  A    between atoms: C_15  and  C_20
                            x       y       z     vdW  Elec       q    Type
                         _______ _______ _______ _____ _____    ______ ____

>  <TORSDO>
F 2

$$$$
=
 OpenBabel11062423093D

 28 32  0  0  1  0  0  0  0  0999 V2000
  193.7910  175.3470  144.1750 C   0  0  0  0  0  0  0  0  0  0  0  0
  194.1180  177.1700  146.7900 C   0  0  0  0  0  2  0  0  0  0  0  0
  194.9130  176.2640  144.4970 C   0  0  0  0  0  0  0  0  0  0  0  0
  190.8510  175.0300  148.0120 O   0  0  0  0  0  0  0  0  0  0  0  0
  191.0970  174.9720  146.8170 C   0  0  0  0  0  0  0  0  0  0  0  0
  192.7150  175.0870  144.9080 C   0  0  1  0  0  3  0  0  0  0  0  0
  192.3890  173.8790  143.0060 C   0  0  0  0  0  3  0  0  0  0  0  0
  189.7940  172.7710  144.0220 C   0  0  0  0  0  0  0  0  0  0  0  0
  194.8410  177.2600  145.5280 N   0  0  0  0  0  2  0  0  0  0  0  0
  191.8540  174.2010  144.1720 C   0  0  0  0  0  0  0  0  0  0  0  0
  189.4220  171.7510  144.6610 O   0  0  0  0  0  0  0  0  0  0  0  0
  195.9030  176.3260  143.6690 N   0  0  0  0  0  2  0  0  0  0  0  0
  192.6420  176.9260  146.5720 C   0  0  0  0  0  2  0  0  0  0  0  0
  190.5840  173.7680  144.6840 N   0  0  0  0  0  0  0  0  0  0  0  0
  192.4510  175.4440  146.3350 C   0  0  1  0  0  3  0  0  0  0  0  0
  193.7000  174.5940  142.8780 C   0  0  0  0  0  3  0  0  0  0  0  0
  190.0340  174.4120  145.8840 C   0  0  2  0  0  3  0  0  0  0  0  0
  189.5940  176.8540  144.5570 S   0  0  0  0  0  0  0  0  0  0  0  0
  188.2760  177.9370  145.1810 C   0  0  0  0  0  2  0  0  0  0  0  0
  186.8700  177.9430  147.1930 C   0  0  0  0  0  2  0  0  0  0  0  0
  188.9500  175.4320  145.5090 C   0  0  2  0  0  3  0  0  0  0  0  0
  187.7200  177.2980  146.4010 C   0  0  0  0  0  0  0  0  0  0  0  0
  188.1910  175.9300  146.7260 C   0  0  0  0  0  2  0  0  0  0  0  0
  189.5300  172.0660  141.7170 N   0  0  0  0  0  0  0  0  0  0  0  0
  188.3790  173.9100  140.8000 N   0  0  0  0  0  0  0  0  0  0  0  0
  188.6710  174.0830  142.1590 N   0  0  0  0  0  2  0  0  0  0  0  0
  189.3610  172.9510  142.6270 C   0  0  0  0  0  0  0  0  0  0  0  0
  188.9420  172.5860  140.4890 C   0  0  0  0  0  3  0  0  0  0  0  0
  1  3  1  0  0  0  0
  1  6  1  0  0  0  0
  3  9  1  0  0  0  0
  5  4  2  0  0  0  0
  6 10  1  1  0  0  0
  6 15  1  0  0  0  0
  7 10  2  0  0  0  0
  8 11  2  0  0  0  0
  8 14  1  0  0  0  0
  9  2  1  0  0  0  0
 10 14  1  0  0  0  0
 12  3  2  0  0  0  0
 13  2  1  0  0  0  0
 14 17  1  0  0  0  0
 15 13  1  6  0  0  0
 15  5  1  0  0  0  0
 16  7  1  0  0  0  0
 16  1  2  0  0  0  0
 17  5  1  6  0  0  0
 18 19  1  0  0  0  0
 18 21  1  0  0  0  0
 19 22  1  0  0  0  0
 21 17  1  0  0  0  0
 21 23  1  1  0  0  0
 22 23  1  0  0  0  0
 22 20  2  0  0  0  0
 24 27  2  0  0  0  0
 25 26  1  0  0  0  0
 26 27  1  0  0  0  0
 27  8  1  0  0  0  0
 28 25  2  0  0  0  0
 28 24  1  0  0  0  0
M  END
>  <MODEL>
2

>  <REMARK>
 VINA RESULT:      -7.4      3.343      6.900
  Name = 
  2 active torsions:
  status: ('A' for Active; 'I' for Inactive)
    1  A    between atoms: C_11  and  C_28
    2  A    between atoms: C_15  and  C_20
                            x       y       z     vdW  Elec       q    Type
                         _______ _______ _______ _____ _____    ______ ____

>  <TORSDO>
F 2

$$$$
=
 OpenBabel11062423093D

 28 32  0  0  1  0  0  0  0  0999 V2000
  189.0800  177.5920  144.2000 C   0  0  0  0  0  0  0  0  0  0  0  0
  187.4320  176.8290  146.8400 C   0  0  0  0  0  2  0  0  0  0  0  0
  187.6230  177.7580  144.4300 C   0  0  0  0  0  0  0  0  0  0  0  0
  191.1910  176.2200  148.3380 O   0  0  0  0  0  0  0  0  0  0  0  0
  191.1190  176.2940  147.1220 C   0  0  0  0  0  0  0  0  0  0  0  0
  189.9890  177.1150  145.0430 C   0  0  1  0  0  3  0  0  0  0  0  0
  191.1670  177.5260  143.1380 C   0  0  0  0  0  3  0  0  0  0  0  0
  193.7340  176.6280  144.4000 C   0  0  0  0  0  0  0  0  0  0  0  0
  186.9210  177.1210  145.5080 N   0  0  0  0  0  2  0  0  0  0  0  0
  191.2600  177.0600  144.3730 C   0  0  0  0  0  0  0  0  0  0  0  0
  194.6830  177.1670  145.0310 O   0  0  0  0  0  0  0  0  0  0  0  0
  186.9200  178.3060  143.4950 N   0  0  0  0  0  2  0  0  0  0  0  0
  188.6620  175.9510  146.7870 C   0  0  0  0  0  2  0  0  0  0  0  0
  192.4390  176.5450  145.0100 N   0  0  0  0  0  0  0  0  0  0  0  0
  189.8510  176.8430  146.5050 C   0  0  1  0  0  3  0  0  0  0  0  0
  189.7410  177.9140  142.8900 C   0  0  0  0  0  3  0  0  0  0  0  0
  192.3150  175.8450  146.2950 C   0  0  2  0  0  3  0  0  0  0  0  0
  194.0790  173.7180  145.7630 S   0  0  0  0  0  0  0  0  0  0  0  0
  193.4420  172.2960  144.8290 C   0  0  0  0  0  2  0  0  0  0  0  0
  191.3720  171.8470  143.5880 C   0  0  0  0  0  2  0  0  0  0  0  0
  192.3870  174.3240  146.0990 C   0  0  2  0  0  3  0  0  0  0  0  0
  192.0430  172.6130  144.4430 C   0  0  0  0  0  0  0  0  0  0  0  0
  191.4440  173.8440  145.0110 C   0  0  0  0  0  2  0  0  0  0  0  0
  193.2290  175.1540  142.5430 N   0  0  0  0  0  0  0  0  0  0  0  0
  194.9720  175.6860  141.0450 N   0  0  0  0  0  0  0  0  0  0  0  0
  195.0500  176.4160  142.2380 N   0  0  0  0  0  2  0  0  0  0  0  0
  193.9870  176.0370  143.0760 C   0  0  0  0  0  0  0  0  0  0  0  0
  193.7790  174.8450  141.2290 C   0  0  0  0  0  3  0  0  0  0  0  0
  1  3  1  0  0  0  0
  3  9  1  0  0  0  0
  5  4  2  0  0  0  0
  6  1  1  1  0  0  0
  6 15  1  0  0  0  0
  7 10  2  0  0  0  0
  8 14  1  0  0  0  0
  8 11  2  0  0  0  0
  9  2  1  0  0  0  0
 10 14  1  0  0  0  0
 10  6  1  0  0  0  0
 12  3  2  0  0  0  0
 13  2  1  0  0  0  0
 14 17  1  0  0  0  0
 15 13  1  6  0  0  0
 15  5  1  0  0  0  0
 16  7  1  0  0  0  0
 16  1  2  0  0  0  0
 17  5  1  6  0  0  0
 18 21  1  0  0  0  0
 19 18  1  0  0  0  0
 20 22  2  0  0  0  0
 21 23  1  6  0  0  0
 21 17  1  0  0  0  0
 22 19  1  0  0  0  0
 22 23  1  0  0  0  0
 24 27  2  0  0  0  0
 25 28  2  0  0  0  0
 25 26  1  0  0  0  0
 26 27  1  0  0  0  0
 27  8  1  0  0  0  0
 28 24  1  0  0  0  0
M  END
>  <MODEL>
3

>  <REMARK>
 VINA RESULT:      -7.2      3.037      5.241
  Name = 
  2 active torsions:
  status: ('A' for Active; 'I' for Inactive)
    1  A    between atoms: C_11  and  C_28
    2  A    between atoms: C_15  and  C_20
                            x       y       z     vdW  Elec       q    Type
                         _______ _______ _______ _____ _____    ______ ____

>  <TORSDO>
F 2

$$$$
=
 OpenBabel11062423093D

 28 32  0  0  1  0  0  0  0  0999 V2000
  190.6350  176.7150  146.4430 C   0  0  0  0  0  0  0  0  0  0  0  0
  192.9430  174.5340  146.0150 C   0  0  0  0  0  2  0  0  0  0  0  0
  191.5250  176.1340  147.4780 C   0  0  0  0  0  0  0  0  0  0  0  0
  192.1170  175.2500  142.0710 O   0  0  0  0  0  0  0  0  0  0  0  0
  191.2770  175.6490  142.8620 C   0  0  0  0  0  0  0  0  0  0  0  0
  190.6290  176.4650  145.1390 C   0  0  0  0  0  0  0  0  0  0  0  0
  188.8980  177.9160  145.4290 C   0  0  0  0  0  3  0  0  0  0  0  0
  188.2710  177.9260  142.4970 C   0  0  0  0  0  0  0  0  0  0  0  0
  192.3170  174.9560  147.2600 N   0  0  0  0  0  2  0  0  0  0  0  0
  189.5460  177.1910  144.5320 C   0  0  0  0  0  0  0  0  0  0  0  0
  188.5990  178.6130  141.4920 O   0  0  0  0  0  0  0  0  0  0  0  0
  191.4080  176.5630  148.6910 N   0  0  0  0  0  2  0  0  0  0  0  0
  191.9270  174.3630  144.9080 C   0  0  0  0  0  2  0  0  0  0  0  0
  189.2500  177.0920  143.1310 N   0  0  0  0  0  0  0  0  0  0  0  0
  191.6450  175.7310  144.3270 C   0  0  1  0  0  3  0  0  0  0  0  0
  189.5290  177.6800  146.7680 C   0  0  0  0  0  2  0  0  0  0  0  0
  189.9130  176.0580  142.3260 C   0  0  2  0  0  3  0  0  0  0  0  0
  189.4450  173.3680  143.0070 S   0  0  0  0  0  0  0  0  0  0  0  0
  188.6890  172.2910  141.7550 C   0  0  0  0  0  2  0  0  0  0  0  0
  188.1910  172.5290  139.3630 C   0  0  0  0  0  2  0  0  0  0  0  0
  188.9720  174.8700  142.0790 C   0  0  2  0  0  3  0  0  0  0  0  0
  188.5400  173.0940  140.5150 C   0  0  0  0  0  0  0  0  0  0  0  0
  188.8430  174.5420  140.6030 C   0  0  0  0  0  2  0  0  0  0  0  0
  186.1770  179.0150  143.0530 N   0  0  0  0  0  0  0  0  0  0  0  0
  184.8460  177.1660  143.6670 N   0  0  0  0  0  0  0  0  0  0  0  0
  186.1460  176.7930  143.3050 N   0  0  0  0  0  2  0  0  0  0  0  0
  186.8750  177.9450  142.9630 C   0  0  0  0  0  0  0  0  0  0  0  0
  184.8480  178.6290  143.5110 C   0  0  0  0  0  3  0  0  0  0  0  0
  1 16  1  0  0  0  0
  1  3  1  0  0  0  0
  2  9  1  0  0  0  0
  3 12  2  0  0  0  0
  4  5  2  0  0  0  0
  5 15  1  0  0  0  0
  6  1  2  0  0  0  0
  7 16  1  0  0  0  0
  8 27  1  0  0  0  0
  8 14  1  0  0  0  0
  9  3  1  0  0  0  0
 10  6  1  0  0  0  0
 10  7  2  0  0  0  0
 11  8  2  0  0  0  0
 13  2  1  0  0  0  0
 14 10  1  0  0  0  0
 15 13  1  1  0  0  0
 15  6  1  0  0  0  0
 17  5  1  1  0  0  0
 17 14  1  0  0  0  0
 19 18  1  0  0  0  0
 20 22  2  0  0  0  0
 21 23  1  6  0  0  0
 21 17  1  0  0  0  0
 21 18  1  0  0  0  0
 22 23  1  0  0  0  0
 22 19  1  0  0  0  0
 24 28  1  0  0  0  0
 26 25  1  0  0  0  0
 27 24  2  0  0  0  0
 27 26  1  0  0  0  0
 28 25  2  0  0  0  0
M  END
>  <MODEL>
4

>  <REMARK>
 VINA RESULT:      -7.0      2.415      6.028
  Name = 
  2 active torsions:
  status: ('A' for Active; 'I' for Inactive)
    1  A    between atoms: C_11  and  C_28
    2  A    between atoms: C_15  and  C_20
                            x       y       z     vdW  Elec       q    Type
                         _______ _______ _______ _____ _____    ______ ____

>  <TORSDO>
F 2

$$$$
=
 OpenBabel11062423093D

 28 32  0  0  1  0  0  0  0  0999 V2000
  187.1380  177.4890  143.9510 C   0  0  0  0  0  0  0  0  0  0  0  0
  186.0930  177.4760  140.9220 C   0  0  0  0  0  2  0  0  0  0  0  0
  186.2740  178.5010  143.2940 C   0  0  0  0  0  0  0  0  0  0  0  0
  187.7260  173.7230  140.9620 O   0  0  0  0  0  0  0  0  0  0  0  0
  188.0670  174.4510  141.8800 C   0  0  0  0  0  0  0  0  0  0  0  0
  187.6330  176.3750  143.4250 C   0  0  0  0  0  0  0  0  0  0  0  0
  188.4970  176.4200  145.5310 C   0  0  0  0  0  3  0  0  0  0  0  0
  189.9230  173.8140  145.1220 C   0  0  0  0  0  0  0  0  0  0  0  0
  186.1020  178.5800  141.8710 N   0  0  0  0  0  2  0  0  0  0  0  0
  188.4800  175.7390  144.3970 C   0  0  0  0  0  0  0  0  0  0  0  0
  189.6740  172.5940  145.3160 O   0  0  0  0  0  0  0  0  0  0  0  0
  185.8450  179.4890  144.0070 N   0  0  0  0  0  2  0  0  0  0  0  0
  187.3790  176.6820  140.9760 C   0  0  0  0  0  2  0  0  0  0  0  0
  189.1990  174.5290  144.1110 N   0  0  0  0  0  0  0  0  0  0  0  0
  187.2730  175.7140  142.1340 C   0  0  1  0  0  3  0  0  0  0  0  0
  187.6340  177.6340  145.3620 C   0  0  0  0  0  2  0  0  0  0  0  0
  189.2610  174.0390  142.7280 C   0  0  2  0  0  3  0  0  0  0  0  0
  191.8590  173.0560  142.2810 S   0  0  0  0  0  0  0  0  0  0  0  0
  193.2230  174.2540  142.2060 C   0  0  0  0  0  2  0  0  0  0  0  0
  193.4310  176.6490  142.7070 C   0  0  0  0  0  2  0  0  0  0  0  0
  190.6130  174.3800  142.0870 C   0  0  2  0  0  3  0  0  0  0  0  0
  192.6500  175.5930  142.5000 C   0  0  0  0  0  0  0  0  0  0  0  0
  191.1740  175.6920  142.6030 C   0  0  0  0  0  2  0  0  0  0  0  0
  192.2280  174.4260  145.5560 N   0  0  0  0  0  0  0  0  0  0  0  0
  191.9970  175.7460  147.4980 N   0  0  0  0  0  0  0  0  0  0  0  0
  190.7700  175.2470  147.0410 N   0  0  0  0  0  2  0  0  0  0  0  0
  190.9930  174.4680  145.8930 C   0  0  0  0  0  0  0  0  0  0  0  0
  192.9710  175.2120  146.5330 C   0  0  0  0  0  3  0  0  0  0  0  0
  1 16  1  0  0  0  0
  2 13  1  0  0  0  0
  2  9  1  0  0  0  0
  3  1  1  0  0  0  0
  3 12  2  0  0  0  0
  4  5  2  0  0  0  0
  5 15  1  0  0  0  0
  6  1  2  0  0  0  0
  6 10  1  0  0  0  0
  8 11  2  0  0  0  0
  8 27  1  0  0  0  0
  9  3  1  0  0  0  0
 10  7  2  0  0  0  0
 14 10  1  0  0  0  0
 14  8  1  0  0  0  0
 15 13  1  6  0  0  0
 15  6  1  0  0  0  0
 16  7  1  0  0  0  0
 17  5  1  6  0  0  0
 17 14  1  0  0  0  0
 19 18  1  0  0  0  0
 19 22  1  0  0  0  0
 21 18  1  0  0  0  0
 21 23  1  1  0  0  0
 21 17  1  0  0  0  0
 22 23  1  0  0  0  0
 22 20  2  0  0  0  0
 24 27  2  0  0  0  0
 24 28  1  0  0  0  0
 26 25  1  0  0  0  0
 27 26  1  0  0  0  0
 28 25  2  0  0  0  0
M  END
>  <MODEL>
5

>  <REMARK>
 VINA RESULT:      -6.9      1.788      2.116
  Name = 
  2 active torsions:
  status: ('A' for Active; 'I' for Inactive)
    1  A    between atoms: C_11  and  C_28
    2  A    between atoms: C_15  and  C_20
                            x       y       z     vdW  Elec       q    Type
                         _______ _______ _______ _____ _____    ______ ____

>  <TORSDO>
F 2

$$$$
=
 OpenBabel11062423093D

 28 32  0  0  1  0  0  0  0  0999 V2000
  192.6830  174.8350  142.7360 C   0  0  0  0  0  0  0  0  0  0  0  0
  192.6590  176.7970  145.2690 C   0  0  0  0  0  2  0  0  0  0  0  0
  193.8470  175.5160  143.3560 C   0  0  0  0  0  0  0  0  0  0  0  0
  188.7700  175.5430  145.5020 O   0  0  0  0  0  0  0  0  0  0  0  0
  189.3310  175.3140  144.4420 C   0  0  0  0  0  0  0  0  0  0  0  0
  191.4110  174.8870  143.1140 C   0  0  1  0  0  3  0  0  0  0  0  0
  191.3760  173.5930  141.2410 C   0  0  0  0  0  3  0  0  0  0  0  0
  188.4140  173.1760  141.4510 C   0  0  0  0  0  0  0  0  0  0  0  0
  193.7160  176.6020  144.2860 N   0  0  0  0  0  2  0  0  0  0  0  0
  190.6170  174.1380  142.1780 C   0  0  0  0  0  0  0  0  0  0  0  0
  187.6430  172.3290  141.9770 O   0  0  0  0  0  0  0  0  0  0  0  0
  195.0190  175.2810  142.8680 N   0  0  0  0  0  2  0  0  0  0  0  0
  191.2950  176.8550  144.6200 C   0  0  0  0  0  2  0  0  0  0  0  0
  189.1890  174.0410  142.2920 N   0  0  0  0  0  0  0  0  0  0  0  0
  190.8380  175.4330  144.3810 C   0  0  1  0  0  3  0  0  0  0  0  0
  192.7970  173.9930  141.4970 C   0  0  0  0  0  3  0  0  0  0  0  0
  188.4830  174.9050  143.2470 C   0  0  2  0  0  3  0  0  0  0  0  0
  188.6220  177.6940  142.9030 S   0  0  0  0  0  0  0  0  0  0  0  0
  187.0720  178.5950  142.6070 C   0  0  0  0  0  2  0  0  0  0  0  0
  184.6940  177.9970  142.7150 C   0  0  0  0  0  2  0  0  0  0  0  0
  187.8250  176.0920  142.5290 C   0  0  2  0  0  3  0  0  0  0  0  0
  185.9650  177.6090  142.6970 C   0  0  0  0  0  0  0  0  0  0  0  0
  186.3380  176.1790  142.8170 C   0  0  0  0  0  2  0  0  0  0  0  0
  188.3020  174.4180  139.3720 N   0  0  0  0  0  0  0  0  0  0  0  0
  188.7290  172.7160  137.7950 N   0  0  0  0  0  0  0  0  0  0  0  0
  188.7260  172.2380  139.1110 N   0  0  0  0  0  2  0  0  0  0  0  0
  188.4570  173.3050  139.9860 C   0  0  0  0  0  0  0  0  0  0  0  0
  188.4470  174.1520  137.9460 C   0  0  0  0  0  3  0  0  0  0  0  0
  1  6  1  0  0  0  0
  1  3  1  0  0  0  0
  3  9  1  0  0  0  0
  5  4  2  0  0  0  0
  6 10  1  1  0  0  0
  6 15  1  0  0  0  0
  7 16  1  0  0  0  0
  7 10  2  0  0  0  0
  8 11  2  0  0  0  0
  8 14  1  0  0  0  0
  9  2  1  0  0  0  0
 10 14  1  0  0  0  0
 12  3  2  0  0  0  0
 13  2  1  0  0  0  0
 14 17  1  0  0  0  0
 15  5  1  0  0  0  0
 15 13  1  6  0  0  0
 16  1  2  0  0  0  0
 17  5  1  1  0  0  0
 19 22  1  0  0  0  0
 19 18  1  0  0  0  0
 21 23  1  1  0  0  0
 21 18  1  0  0  0  0
 21 17  1  0  0  0  0
 22 20  2  0  0  0  0
 22 23  1  0  0  0  0
 24 27  2  0  0  0  0
 25 28  2  0  0  0  0
 25 26  1  0  0  0  0
 26 27  1  0  0  0  0
 27  8  1  0  0  0  0
 28 24  1  0  0  0  0
M  END
>  <MODEL>
6

>  <REMARK>
 VINA RESULT:      -6.9      3.238      6.977
  Name = 
  2 active torsions:
  status: ('A' for Active; 'I' for Inactive)
    1  A    between atoms: C_11  and  C_28
    2  A    between atoms: C_15  and  C_20
                            x       y       z     vdW  Elec       q    Type
                         _______ _______ _______ _____ _____    ______ ____

>  <TORSDO>
F 2

$$$$
=
 OpenBabel11062423093D

 28 32  0  0  1  0  0  0  0  0999 V2000
  193.4230  174.1250  144.8670 C   0  0  0  0  0  0  0  0  0  0  0  0
  192.8220  176.4160  147.0240 C   0  0  0  0  0  2  0  0  0  0  0  0
  194.3990  174.7980  145.7580 C   0  0  0  0  0  0  0  0  0  0  0  0
  188.9430  175.4980  146.0960 O   0  0  0  0  0  0  0  0  0  0  0  0
  189.7810  175.0830  145.3110 C   0  0  0  0  0  0  0  0  0  0  0  0
  192.1120  174.3230  144.7970 C   0  0  1  0  0  3  0  0  0  0  0  0
  192.5240  172.7870  143.1670 C   0  0  0  0  0  3  0  0  0  0  0  0
  189.6210  172.6230  142.4320 C   0  0  0  0  0  0  0  0  0  0  0  0
  194.1060  176.0090  146.4710 N   0  0  0  0  0  2  0  0  0  0  0  0
  191.5750  173.5110  143.7370 C   0  0  0  0  0  0  0  0  0  0  0  0
  188.6310  171.9170  142.7630 O   0  0  0  0  0  0  0  0  0  0  0  0
  195.6310  174.4110  145.7120 N   0  0  0  0  0  2  0  0  0  0  0  0
  191.7510  176.4840  145.9590 C   0  0  0  0  0  2  0  0  0  0  0  0
  190.1840  173.5370  143.3830 N   0  0  0  0  0  0  0  0  0  0  0  0
  191.2330  175.0810  145.7370 C   0  0  1  0  0  3  0  0  0  0  0  0
  193.8270  173.1120  143.8320 C   0  0  0  0  0  3  0  0  0  0  0  0
  189.3160  174.5750  143.9540 C   0  0  2  0  0  3  0  0  0  0  0  0
  190.3140  177.0260  142.9980 S   0  0  0  0  0  0  0  0  0  0  0  0
  189.1210  178.2510  142.3850 C   0  0  0  0  0  2  0  0  0  0  0  0
  186.6740  178.4390  142.4390 C   0  0  0  0  0  2  0  0  0  0  0  0
  189.0610  175.6960  142.9360 C   0  0  2  0  0  3  0  0  0  0  0  0
  187.7630  177.6950  142.6090 C   0  0  0  0  0  0  0  0  0  0  0  0
  187.6730  176.2920  143.0790 C   0  0  0  0  0  2  0  0  0  0  0  0
  190.4260  171.4390  140.4760 N   0  0  0  0  0  0  0  0  0  0  0  0
  190.8020  173.2230  138.9790 N   0  0  0  0  0  0  0  0  0  0  0  0
  190.3330  173.6590  140.2250 N   0  0  0  0  0  2  0  0  0  0  0  0
  190.1430  172.5430  141.0580 C   0  0  0  0  0  0  0  0  0  0  0  0
  190.8740  171.7610  139.1270 C   0  0  0  0  0  3  0  0  0  0  0  0
  1  3  1  0  0  0  0
  3  9  1  0  0  0  0
  5 15  1  0  0  0  0
  5  4  2  0  0  0  0
  6 10  1  1  0  0  0
  6  1  1  0  0  0  0
  6 15  1  0  0  0  0
  7 10  2  0  0  0  0
  7 16  1  0  0  0  0
  8 11  2  0  0  0  0
  8 14  1  0  0  0  0
  9  2  1  0  0  0  0
 12  3  2  0  0  0  0
 13  2  1  0  0  0  0
 14 10  1  0  0  0  0
 14 17  1  0  0  0  0
 15 13  1  6  0  0  0
 16  1  2  0  0  0  0
 17  5  1  1  0  0  0
 19 22  1  0  0  0  0
 19 18  1  0  0  0  0
 20 22  2  0  0  0  0
 21 18  1  0  0  0  0
 21 23  1  1  0  0  0
 21 17  1  0  0  0  0
 22 23  1  0  0  0  0
 24 27  2  0  0  0  0
 25 28  2  0  0  0  0
 25 26  1  0  0  0  0
 26 27  1  0  0  0  0
 27  8  1  0  0  0  0
 28 24  1  0  0  0  0
M  END
>  <MODEL>
7

>  <REMARK>
 VINA RESULT:      -6.6      3.308      6.766
  Name = 
  2 active torsions:
  status: ('A' for Active; 'I' for Inactive)
    1  A    between atoms: C_11  and  C_28
    2  A    between atoms: C_15  and  C_20
                            x       y       z     vdW  Elec       q    Type
                         _______ _______ _______ _____ _____    ______ ____

>  <TORSDO>
F 2

$$$$
=
 OpenBabel11062423093D

 28 32  0  0  1  0  0  0  0  0999 V2000
  192.3190  175.9190  146.8490 C   0  0  0  0  0  0  0  0  0  0  0  0
  189.3130  174.8090  146.8890 C   0  0  0  0  0  2  0  0  0  0  0  0
  191.1950  176.3980  147.6910 C   0  0  0  0  0  0  0  0  0  0  0  0
  190.9390  171.9230  144.4840 O   0  0  0  0  0  0  0  0  0  0  0  0
  191.6160  172.9290  144.6260 C   0  0  0  0  0  0  0  0  0  0  0  0
  192.3090  174.9310  145.9620 C   0  0  0  0  0  0  0  0  0  0  0  0
  194.4170  175.7800  145.8160 C   0  0  0  0  0  3  0  0  0  0  0  0
  195.2070  173.7620  143.7440 C   0  0  0  0  0  0  0  0  0  0  0  0
  189.8240  176.0570  147.4370 N   0  0  0  0  0  2  0  0  0  0  0  0
  193.5950  174.8680  145.3220 C   0  0  0  0  0  0  0  0  0  0  0  0
  195.7330  172.6160  143.7350 O   0  0  0  0  0  0  0  0  0  0  0  0
  191.4320  177.3400  148.5430 N   0  0  0  0  0  2  0  0  0  0  0  0
  189.9020  174.5140  145.5270 C   0  0  0  0  0  2  0  0  0  0  0  0
  193.8860  173.9260  144.2780 N   0  0  0  0  0  0  0  0  0  0  0  0
  191.2630  173.8880  145.7410 C   0  0  1  0  0  3  0  0  0  0  0  0
  193.6750  176.5660  146.8550 C   0  0  0  0  0  2  0  0  0  0  0  0
  192.7900  173.1520  143.6830 C   0  0  2  0  0  3  0  0  0  0  0  0
  190.5760  173.9880  142.1600 S   0  0  0  0  0  0  0  0  0  0  0  0
  190.6600  173.7930  140.3560 C   0  0  0  0  0  2  0  0  0  0  0  0
  192.2020  172.6520  138.8240 C   0  0  0  0  0  2  0  0  0  0  0  0
  192.3800  173.7390  142.3250 C   0  0  2  0  0  3  0  0  0  0  0  0
  191.9400  173.1070  140.0450 C   0  0  0  0  0  0  0  0  0  0  0  0
  192.8910  172.9050  141.1650 C   0  0  0  0  0  2  0  0  0  0  0  0
  195.4350  175.6490  142.2410 N   0  0  0  0  0  0  0  0  0  0  0  0
  197.5840  176.4370  142.8130 N   0  0  0  0  0  0  0  0  0  0  0  0
  197.2130  175.3080  143.5550 N   0  0  0  0  0  2  0  0  0  0  0  0
  195.9310  174.8970  143.1510 C   0  0  0  0  0  0  0  0  0  0  0  0
  196.4260  176.6750  141.9380 C   0  0  0  0  0  3  0  0  0  0  0  0
  1 16  1  0  0  0  0
  1  3  1  0  0  0  0
  2  9  1  0  0  0  0
  3 12  2  0  0  0  0
  4  5  2  0  0  0  0
  5 15  1  0  0  0  0
  6  1  2  0  0  0  0
  7 16  1  0  0  0  0
  8 14  1  0  0  0  0
  9  3  1  0  0  0  0
 10  7  2  0  0  0  0
 10  6  1  0  0  0  0
 11  8  2  0  0  0  0
 13  2  1  0  0  0  0
 14 10  1  0  0  0  0
 15 13  1  6  0  0  0
 15  6  1  0  0  0  0
 17 14  1  0  0  0  0
 17  5  1  1  0  0  0
 18 21  1  0  0  0  0
 19 18  1  0  0  0  0
 20 22  2  0  0  0  0
 21 23  1  6  0  0  0
 21 17  1  0  0  0  0
 22 19  1  0  0  0  0
 22 23  1  0  0  0  0
 24 27  2  0  0  0  0
 25 26  1  0  0  0  0
 27 26  1  0  0  0  0
 27  8  1  0  0  0  0
 28 24  1  0  0  0  0
 28 25  2  0  0  0  0
M  END
>  <MODEL>
8

>  <REMARK>
 VINA RESULT:      -6.6      4.055      6.336
  Name = 
  2 active torsions:
  status: ('A' for Active; 'I' for Inactive)
    1  A    between atoms: C_11  and  C_28
    2  A    between atoms: C_15  and  C_20
                            x       y       z     vdW  Elec       q    Type
                         _______ _______ _______ _____ _____    ______ ____

>  <TORSDO>
F 2

$$$$
=
 OpenBabel11062423093D

 28 32  0  0  1  0  0  0  0  0999 V2000
  190.8900  176.6510  144.5110 C   0  0  0  0  0  0  0  0  0  0  0  0
  191.0090  176.0840  147.6620 C   0  0  0  0  0  2  0  0  0  0  0  0
  189.7830  176.7830  145.4900 C   0  0  0  0  0  0  0  0  0  0  0  0
  195.0160  175.7680  146.8900 O   0  0  0  0  0  0  0  0  0  0  0  0
  194.2890  175.7210  145.9100 C   0  0  0  0  0  0  0  0  0  0  0  0
  192.1470  176.2930  144.7450 C   0  0  1  0  0  3  0  0  0  0  0  0
  192.0630  176.5620  142.4850 C   0  0  0  0  0  3  0  0  0  0  0  0
  194.9700  175.8890  142.1860 C   0  0  0  0  0  0  0  0  0  0  0  0
  189.8350  176.2270  146.8130 N   0  0  0  0  0  2  0  0  0  0  0  0
  192.8510  176.2220  143.4930 C   0  0  0  0  0  0  0  0  0  0  0  0
  196.0590  176.5240  142.1600 O   0  0  0  0  0  0  0  0  0  0  0  0
  188.6410  177.2100  145.0630 N   0  0  0  0  0  2  0  0  0  0  0  0
  192.0840  175.2540  146.9970 C   0  0  0  0  0  2  0  0  0  0  0  0
  194.2250  175.8170  143.4100 N   0  0  0  0  0  0  0  0  0  0  0  0
  192.8480  176.1590  146.0570 C   0  0  1  0  0  3  0  0  0  0  0  0
  190.7040  176.8700  143.0360 C   0  0  0  0  0  3  0  0  0  0  0  0
  194.8780  175.2400  144.5920 C   0  0  2  0  0  3  0  0  0  0  0  0
  193.4370  172.8630  145.0280 S   0  0  0  0  0  0  0  0  0  0  0  0
  194.3690  171.3750  145.4940 C   0  0  0  0  0  2  0  0  0  0  0  0
  196.6930  170.9440  146.1580 C   0  0  0  0  0  2  0  0  0  0  0  0
  194.9610  173.7110  144.4800 C   0  0  2  0  0  3  0  0  0  0  0  0
  195.7920  171.7730  145.6380 C   0  0  0  0  0  0  0  0  0  0  0  0
  196.1580  173.1490  145.2260 C   0  0  0  0  0  2  0  0  0  0  0  0
  194.6110  175.6720  139.7980 N   0  0  0  0  0  0  0  0  0  0  0  0
  193.6830  173.5070  139.6670 N   0  0  0  0  0  0  0  0  0  0  0  0
  193.9750  173.8850  140.9840 N   0  0  0  0  0  2  0  0  0  0  0  0
  194.5130  175.1830  140.9780 C   0  0  0  0  0  0  0  0  0  0  0  0
  194.0920  174.6740  138.8710 C   0  0  0  0  0  3  0  0  0  0  0  0
  1  6  1  0  0  0  0
  1  3  1  0  0  0  0
  3  9  1  0  0  0  0
  5 15  1  0  0  0  0
  5  4  2  0  0  0  0
  6 10  1  6  0  0  0
  6 15  1  0  0  0  0
  7 16  1  0  0  0  0
  7 10  2  0  0  0  0
  8 14  1  0  0  0  0
  9  2  1  0  0  0  0
 11  8  2  0  0  0  0
 12  3  2  0  0  0  0
 13  2  1  0  0  0  0
 14 10  1  0  0  0  0
 14 17  1  0  0  0  0
 15 13  1  1  0  0  0
 16  1  2  0  0  0  0
 17  5  1  1  0  0  0
 18 19  1  0  0  0  0
 19 22  1  0  0  0  0
 21 17  1  0  0  0  0
 21 18  1  0  0  0  0
 21 23  1  1  0  0  0
 22 20  2  0  0  0  0
 23 22  1  0  0  0  0
 24 27  2  0  0  0  0
 25 26  1  0  0  0  0
 27 26  1  0  0  0  0
 27  8  1  0  0  0  0
 28 25  2  0  0  0  0
 28 24  1  0  0  0  0
M  END
>  <MODEL>
9

>  <REMARK>
 VINA RESULT:      -6.5      4.391      7.116
  Name = 
  2 active torsions:
  status: ('A' for Active; 'I' for Inactive)
    1  A    between atoms: C_11  and  C_28
    2  A    between atoms: C_15  and  C_20
                            x       y       z     vdW  Elec       q    Type
                         _______ _______ _______ _____ _____    ______ ____

>  <TORSDO>
F 2

$$$$
