=
 OpenBabel11062422143D

 44 48  0  0  1  0  0  0  0  0999 V2000
  192.1550  174.6710  144.7130 C   0  0  2  0  0  3  0  0  0  0  0  0
  191.7090  172.2570  142.5290 C   0  0  0  0  0  2  0  0  0  0  0  0
  189.5830  173.4720  143.0670 C   0  0  0  0  0  2  0  0  0  0  0  0
  189.9040  173.4050  144.5580 C   0  0  0  0  0  2  0  0  0  0  0  0
  191.4170  173.3220  144.8120 C   0  0  1  0  0  3  0  0  0  0  0  0
  192.0760  172.1950  144.0100 C   0  0  0  0  0  2  0  0  0  0  0  0
  190.1890  172.2760  142.3410 C   0  0  1  0  0  3  0  0  0  0  0  0
  190.5600  171.3590  140.0700 C   0  0  0  0  0  0  0  0  0  0  0  0
  191.2530  172.0660  139.0910 N   0  0  0  0  0  0  0  0  0  0  0  0
  189.7840  172.3050  140.8620 C   0  0  2  0  0  3  0  0  0  0  0  0
  190.0780  173.6160  140.2520 N   0  0  0  0  0  0  0  0  0  0  0  0
  190.5960  170.1080  140.2160 O   0  0  0  0  0  0  0  0  0  0  0  0
  192.1650  171.4870  138.1210 C   0  0  0  0  0  1  0  0  0  0  0  0
  190.9980  173.4390  139.1780 N   0  0  0  0  0  0  0  0  0  0  0  0
  193.1320  174.8410  145.8950 C   0  0  1  0  0  3  0  0  0  0  0  0
  195.2910  174.5910  144.4550 C   0  0  2  0  0  3  0  0  0  0  0  0
  194.4950  175.3920  145.4560 C   0  0  2  0  0  0  0  0  0  0  0  0
  195.8520  173.4660  145.0870 O   0  0  0  0  0  0  0  0  0  0  0  0
  195.7190  174.6200  145.8820 C   0  0  1  0  0  3  0  0  0  0  0  0
  194.6910  176.8300  145.3780 N   0  0  0  0  0  1  0  0  0  0  0  0
  192.5610  175.6940  146.9860 C   0  0  0  0  0  0  0  0  0  0  0  0
  191.5300  175.2010  147.7740 O   0  0  0  0  0  1  0  0  0  0  0  0
  193.0160  176.8490  147.2020 O   0  0  0  0  0  0  0  0  0  0  0  0
  191.2300  175.7310  144.6660 O   0  0  0  0  0  0  0  0  0  0  0  0
  191.7210  176.6600  143.7360 C   0  0  1  0  0  3  0  0  0  0  0  0
  192.1220  175.9640  142.4470 C   0  0  0  0  0  1  0  0  0  0  0  0
  190.6240  177.6580  143.4080 C   0  0  0  0  0  2  0  0  0  0  0  0
  189.4590  176.9770  142.7120 C   0  0  0  0  0  2  0  0  0  0  0  0
  188.1280  177.3560  143.3670 C   0  0  2  0  0  3  0  0  0  0  0  0
  187.8230  176.4980  144.5960 C   0  0  0  0  0  2  0  0  0  0  0  0
  187.8010  177.2920  145.8940 C   0  0  2  0  0  3  0  0  0  0  0  0
  189.1080  177.5180  146.3270 O   0  0  0  0  0  1  0  0  0  0  0  0
  187.0430  176.5030  146.9470 C   0  0  0  0  0  2  0  0  0  0  0  0
  186.5630  178.6460  148.0000 N   0  0  0  0  0  1  0  0  0  0  0  0
  185.9880  177.3690  147.6150 C   0  0  0  0  0  2  0  0  0  0  0  0
  186.9500  177.4290  142.3850 C   0  0  1  0  0  3  0  0  0  0  0  0
  186.6750  177.4150  140.1860 C   0  0  0  0  0  1  0  0  0  0  0  0
  187.2430  176.6900  141.2340 O   0  0  0  0  0  0  0  0  0  0  0  0
  185.7230  176.9290  142.9960 N   0  0  0  0  0  2  0  0  0  0  0  0
  184.7930  178.0410  143.1250 C   0  0  1  0  0  3  0  0  0  0  0  0
  184.7970  179.3360  145.0060 N   0  0  0  0  0  0  0  0  0  0  0  0
  184.3660  178.1440  144.4750 O   0  0  0  0  0  0  0  0  0  0  0  0
  185.4410  179.9860  144.1310 N   0  0  0  0  0  0  0  0  0  0  0  0
  185.4850  179.2710  142.9590 O   0  0  0  0  0  0  0  0  0  0  0  0
  1 24  1  1  0  0  0
  1 15  1  0  0  0  0
  2  6  1  0  0  0  0
  3  4  1  0  0  0  0
  4  5  1  0  0  0  0
  5  1  1  6  0  0  0
  6  5  1  0  0  0  0
  7  2  1  6  0  0  0
  7  3  1  0  0  0  0
  8 12  2  0  0  0  0
  9 14  1  0  0  0  0
  9  8  1  0  0  0  0
 10  8  1  6  0  0  0
 10  7  1  0  0  0  0
 11 10  1  0  0  0  0
 13  9  1  0  0  0  0
 14 11  2  0  0  0  0
 15 21  1  1  0  0  0
 16 18  1  1  0  0  0
 16 17  1  0  0  0  0
 16 19  1  0  0  0  0
 17 20  1  6  0  0  0
 17 19  1  0  0  0  0
 17 15  1  0  0  0  0
 19 18  1  1  0  0  0
 21 23  2  0  0  0  0
 21 22  1  0  0  0  0
 25 26  1  6  0  0  0
 25 24  1  0  0  0  0
 27 25  1  0  0  0  0
 28 27  1  0  0  0  0
 29 28  1  6  0  0  0
 29 30  1  0  0  0  0
 30 31  1  0  0  0  0
 31 32  1  1  0  0  0
 31 33  1  0  0  0  0
 33 35  1  0  0  0  0
 35 34  1  0  0  0  0
 36 38  1  6  0  0  0
 36 39  1  0  0  0  0
 36 29  1  0  0  0  0
 37 38  1  0  0  0  0
 40 39  1  1  0  0  0
 40 42  1  0  0  0  0
 42 41  1  0  0  0  0
 43 41  2  0  0  0  0
 44 40  1  0  0  0  0
 44 43  1  0  0  0  0
M  END
>  <MODEL>
1

>  <REMARK>
 VINA RESULT:      -6.5      0.000      0.000
  Name = 
  18 active torsions:
  status: ('A' for Active; 'I' for Inactive)
    1  A    between atoms: C_2  and  C_27
    2  A    between atoms: C_3  and  N_16
    3  A    between atoms: C_4  and  O_7
    4  A    between atoms: C_4  and  C_27
    5  A    between atoms: C_4  and  C_28
    6  A    between atoms: C_5  and  C_26
    7  A    between atoms: C_5  and  C_35
    8  A    between atoms: O_7  and  C_25
    9  A    between atoms: C_12  and  C_42
   10  A    between atoms: C_14  and  C_25
   11  A    between atoms: C_14  and  C_38
   12  A    between atoms: N_16  and  C_19
   13  A    between atoms: C_19  and  C_32
   14  A    between atoms: C_19  and  O_44
   15  A    between atoms: C_21  and  C_27
   16  A    between atoms: C_23  and  C_26
   17  A    between atoms: C_32  and  C_35
   18  A    between atoms: C_32  and  C_38
                            x       y       z     vdW  Elec       q    Type
                         _______ _______ _______ _____ _____    ______ ____

>  <TORSDO>
F 18

$$$$
=
 OpenBabel11062422143D

 44 48  0  0  1  0  0  0  0  0999 V2000
  192.2170  174.9800  144.7580 C   0  0  2  0  0  3  0  0  0  0  0  0
  191.0650  172.7420  142.6460 C   0  0  0  0  0  2  0  0  0  0  0  0
  189.2520  173.7780  144.0340 C   0  0  0  0  0  2  0  0  0  0  0  0
  190.0950  173.6020  145.2940 C   0  0  0  0  0  2  0  0  0  0  0  0
  191.5980  173.5860  144.9770 C   0  0  1  0  0  3  0  0  0  0  0  0
  191.9470  172.5740  143.8820 C   0  0  0  0  0  2  0  0  0  0  0  0
  189.5800  172.6880  143.0200 C   0  0  1  0  0  3  0  0  0  0  0  0
  189.3740  172.5330  140.5570 C   0  0  0  0  0  0  0  0  0  0  0  0
  189.3230  173.6650  139.7460 N   0  0  0  0  0  0  0  0  0  0  0  0
  188.6650  172.8200  141.7970 C   0  0  2  0  0  3  0  0  0  0  0  0
  188.1910  174.2090  141.6310 N   0  0  0  0  0  0  0  0  0  0  0  0
  189.9280  171.4460  140.2420 O   0  0  0  0  0  0  0  0  0  0  0  0
  189.9430  173.7930  138.4400 C   0  0  0  0  0  1  0  0  0  0  0  0
  188.6270  174.7060  140.3690 N   0  0  0  0  0  0  0  0  0  0  0  0
  193.5300  175.1210  145.5580 C   0  0  1  0  0  3  0  0  0  0  0  0
  195.3220  174.1020  143.9630 C   0  0  2  0  0  3  0  0  0  0  0  0
  194.7520  175.3170  144.6520 C   0  0  2  0  0  0  0  0  0  0  0  0
  196.0290  173.3170  144.8920 O   0  0  0  0  0  0  0  0  0  0  0  0
  196.0530  174.7080  145.1110 C   0  0  1  0  0  3  0  0  0  0  0  0
  194.9010  176.5600  143.9140 N   0  0  0  0  0  1  0  0  0  0  0  0
  193.4600  176.2210  146.5720 C   0  0  0  0  0  0  0  0  0  0  0  0
  194.4510  177.1930  146.5990 O   0  0  0  0  0  0  0  0  0  0  0  0
  192.5050  176.2800  147.3910 O   0  0  0  0  0  1  0  0  0  0  0  0
  191.2980  175.9840  145.1140 O   0  0  0  0  0  0  0  0  0  0  0  0
  191.3900  176.9870  144.1370 C   0  0  1  0  0  3  0  0  0  0  0  0
  191.3520  176.3820  142.7450 C   0  0  0  0  0  1  0  0  0  0  0  0
  190.2010  177.9230  144.2740 C   0  0  0  0  0  2  0  0  0  0  0  0
  188.9870  177.3670  143.5510 C   0  0  0  0  0  2  0  0  0  0  0  0
  187.6890  177.8120  144.2330 C   0  0  2  0  0  3  0  0  0  0  0  0
  187.0930  176.7140  145.1140 C   0  0  0  0  0  2  0  0  0  0  0  0
  187.4870  176.8360  146.5780 C   0  0  2  0  0  3  0  0  0  0  0  0
  188.1460  175.6750  146.9840 O   0  0  0  0  0  1  0  0  0  0  0  0
  186.2370  177.0350  147.4160 C   0  0  0  0  0  2  0  0  0  0  0  0
  184.1620  178.1700  146.8340 N   0  0  0  0  0  1  0  0  0  0  0  0
  184.9920  177.0130  146.5450 C   0  0  0  0  0  2  0  0  0  0  0  0
  186.6630  178.4280  143.2710 C   0  0  1  0  0  3  0  0  0  0  0  0
  185.3300  179.9640  144.1530 C   0  0  0  0  0  1  0  0  0  0  0  0
  186.5560  179.8030  143.5050 O   0  0  0  0  0  0  0  0  0  0  0  0
  187.0340  178.1890  141.8810 N   0  0  0  0  0  2  0  0  0  0  0  0
  185.9600  177.4390  141.2450 C   0  0  1  0  0  3  0  0  0  0  0  0
  183.7840  178.0600  141.5490 N   0  0  0  0  0  0  0  0  0  0  0  0
  184.8400  177.3900  142.1170 O   0  0  0  0  0  0  0  0  0  0  0  0
  184.1240  178.5160  140.4180 N   0  0  0  0  0  0  0  0  0  0  0  0
  185.4310  178.1830  140.1560 O   0  0  0  0  0  0  0  0  0  0  0  0
  1 24  1  1  0  0  0
  1 15  1  0  0  0  0
  2  6  1  0  0  0  0
  3  4  1  0  0  0  0
  5  1  1  6  0  0  0
  5  4  1  0  0  0  0
  6  5  1  0  0  0  0
  7  2  1  6  0  0  0
  7  3  1  0  0  0  0
  9 14  1  0  0  0  0
  9  8  1  0  0  0  0
 10  8  1  6  0  0  0
 10  7  1  0  0  0  0
 11 10  1  0  0  0  0
 12  8  2  0  0  0  0
 13  9  1  0  0  0  0
 14 11  2  0  0  0  0
 15 21  1  1  0  0  0
 16 17  1  0  0  0  0
 16 18  1  1  0  0  0
 16 19  1  0  0  0  0
 17 20  1  6  0  0  0
 17 19  1  0  0  0  0
 17 15  1  0  0  0  0
 19 18  1  1  0  0  0
 21 22  2  0  0  0  0
 21 23  1  0  0  0  0
 25 26  1  6  0  0  0
 25 27  1  0  0  0  0
 25 24  1  0  0  0  0
 28 27  1  0  0  0  0
 29 28  1  6  0  0  0
 29 30  1  0  0  0  0
 30 31  1  0  0  0  0
 31 32  1  1  0  0  0
 31 33  1  0  0  0  0
 35 34  1  0  0  0  0
 35 33  1  0  0  0  0
 36 39  1  6  0  0  0
 36 38  1  0  0  0  0
 36 29  1  0  0  0  0
 38 37  1  0  0  0  0
 40 39  1  1  0  0  0
 40 42  1  0  0  0  0
 41 42  1  0  0  0  0
 43 41  2  0  0  0  0
 44 43  1  0  0  0  0
 44 40  1  0  0  0  0
M  END
>  <MODEL>
2

>  <REMARK>
 VINA RESULT:      -6.4      1.506      2.045
  Name = 
  18 active torsions:
  status: ('A' for Active; 'I' for Inactive)
    1  A    between atoms: C_2  and  C_27
    2  A    between atoms: C_3  and  N_16
    3  A    between atoms: C_4  and  O_7
    4  A    between atoms: C_4  and  C_27
    5  A    between atoms: C_4  and  C_28
    6  A    between atoms: C_5  and  C_26
    7  A    between atoms: C_5  and  C_35
    8  A    between atoms: O_7  and  C_25
    9  A    between atoms: C_12  and  C_42
   10  A    between atoms: C_14  and  C_25
   11  A    between atoms: C_14  and  C_38
   12  A    between atoms: N_16  and  C_19
   13  A    between atoms: C_19  and  C_32
   14  A    between atoms: C_19  and  O_44
   15  A    between atoms: C_21  and  C_27
   16  A    between atoms: C_23  and  C_26
   17  A    between atoms: C_32  and  C_35
   18  A    between atoms: C_32  and  C_38
                            x       y       z     vdW  Elec       q    Type
                         _______ _______ _______ _____ _____    ______ ____

>  <TORSDO>
F 18

$$$$
=
 OpenBabel11062422143D

 44 48  0  0  1  0  0  0  0  0999 V2000
  192.6750  174.8210  144.6220 C   0  0  2  0  0  3  0  0  0  0  0  0
  192.3340  171.8860  143.1860 C   0  0  0  0  0  2  0  0  0  0  0  0
  190.1540  173.1040  143.4160 C   0  0  0  0  0  2  0  0  0  0  0  0
  190.4880  173.4610  144.8620 C   0  0  0  0  0  2  0  0  0  0  0  0
  192.0050  173.5180  145.0990 C   0  0  1  0  0  3  0  0  0  0  0  0
  192.7130  172.2470  144.6210 C   0  0  0  0  0  2  0  0  0  0  0  0
  190.8130  171.7840  143.0300 C   0  0  1  0  0  3  0  0  0  0  0  0
  190.9080  170.0770  141.2380 C   0  0  0  0  0  0  0  0  0  0  0  0
  191.7300  170.2190  140.1240 N   0  0  0  0  0  0  0  0  0  0  0  0
  190.3970  171.3910  141.6080 C   0  0  2  0  0  3  0  0  0  0  0  0
  190.9840  172.3030  140.6060 N   0  0  0  0  0  0  0  0  0  0  0  0
  190.6470  168.9820  141.8050 O   0  0  0  0  0  0  0  0  0  0  0  0
  192.4580  169.1460  139.4720 C   0  0  0  0  0  1  0  0  0  0  0  0
  191.8130  171.5560  139.7190 N   0  0  0  0  0  0  0  0  0  0  0  0
  193.9510  175.1050  145.4430 C   0  0  1  0  0  3  0  0  0  0  0  0
  195.7310  173.9700  143.9140 C   0  0  2  0  0  3  0  0  0  0  0  0
  195.2010  175.2250  144.5620 C   0  0  2  0  0  0  0  0  0  0  0  0
  196.3800  173.1750  144.8770 O   0  0  0  0  0  0  0  0  0  0  0  0
  196.4630  174.5680  145.0650 C   0  0  1  0  0  3  0  0  0  0  0  0
  195.4240  176.4420  143.8010 N   0  0  0  0  0  1  0  0  0  0  0  0
  193.8120  176.3220  146.3060 C   0  0  0  0  0  0  0  0  0  0  0  0
  192.8490  176.3490  147.3050 O   0  0  0  0  0  1  0  0  0  0  0  0
  194.5700  177.3150  146.1400 O   0  0  0  0  0  0  0  0  0  0  0  0
  191.7700  175.8950  144.7080 O   0  0  0  0  0  0  0  0  0  0  0  0
  191.8630  176.6050  143.5010 C   0  0  1  0  0  3  0  0  0  0  0  0
  192.1530  175.6620  142.3480 C   0  0  0  0  0  1  0  0  0  0  0  0
  190.5360  177.2900  143.2260 C   0  0  0  0  0  2  0  0  0  0  0  0
  189.8930  177.7680  144.5170 C   0  0  0  0  0  2  0  0  0  0  0  0
  188.4830  177.1930  144.6760 C   0  0  2  0  0  3  0  0  0  0  0  0
  187.4230  178.0660  144.0020 C   0  0  0  0  0  2  0  0  0  0  0  0
  186.6070  177.3210  142.9570 C   0  0  2  0  0  3  0  0  0  0  0  0
  185.3450  177.0230  143.4730 O   0  0  0  0  0  1  0  0  0  0  0  0
  187.3250  176.0350  142.5860 C   0  0  0  0  0  2  0  0  0  0  0  0
  188.4930  174.8500  140.8080 N   0  0  0  0  0  1  0  0  0  0  0  0
  187.7140  176.0370  141.1180 C   0  0  0  0  0  2  0  0  0  0  0  0
  188.1210  176.8270  146.1220 C   0  0  1  0  0  3  0  0  0  0  0  0
  188.7890  175.0200  147.2180 C   0  0  0  0  0  1  0  0  0  0  0  0
  189.2290  176.2640  146.7630 O   0  0  0  0  0  0  0  0  0  0  0  0
  187.6620  177.9980  146.8630 N   0  0  0  0  0  2  0  0  0  0  0  0
  186.4420  177.6400  147.5700 C   0  0  1  0  0  3  0  0  0  0  0  0
  184.4330  178.5060  146.9170 N   0  0  0  0  0  0  0  0  0  0  0  0
  185.5810  178.7670  147.6250 O   0  0  0  0  0  0  0  0  0  0  0  0
  184.4850  177.3380  146.4320 N   0  0  0  0  0  0  0  0  0  0  0  0
  185.6730  176.7420  146.7820 O   0  0  0  0  0  0  0  0  0  0  0  0
  1 24  1  1  0  0  0
  1 15  1  0  0  0  0
  2  6  1  0  0  0  0
  3  4  1  0  0  0  0
  4  5  1  0  0  0  0
  5  1  1  6  0  0  0
  6  5  1  0  0  0  0
  7  2  1  6  0  0  0
  7  3  1  0  0  0  0
  8 10  1  0  0  0  0
  8 12  2  0  0  0  0
  9  8  1  0  0  0  0
 10 11  1  6  0  0  0
 10  7  1  0  0  0  0
 13  9  1  0  0  0  0
 14  9  1  0  0  0  0
 14 11  2  0  0  0  0
 15 21  1  6  0  0  0
 16 17  1  0  0  0  0
 16 18  1  1  0  0  0
 16 19  1  0  0  0  0
 17 20  1  6  0  0  0
 17 19  1  0  0  0  0
 17 15  1  0  0  0  0
 19 18  1  1  0  0  0
 21 22  1  0  0  0  0
 23 21  2  0  0  0  0
 25 26  1  6  0  0  0
 25 24  1  0  0  0  0
 27 25  1  0  0  0  0
 27 28  1  0  0  0  0
 28 29  1  0  0  0  0
 29 30  1  1  0  0  0
 29 36  1  0  0  0  0
 31 32  1  1  0  0  0
 31 30  1  0  0  0  0
 33 31  1  0  0  0  0
 34 35  1  0  0  0  0
 35 33  1  0  0  0  0
 36 38  1  1  0  0  0
 36 39  1  0  0  0  0
 38 37  1  0  0  0  0
 40 39  1  6  0  0  0
 40 42  1  0  0  0  0
 41 42  1  0  0  0  0
 43 44  1  0  0  0  0
 43 41  2  0  0  0  0
 44 40  1  0  0  0  0
M  END
>  <MODEL>
3

>  <REMARK>
 VINA RESULT:      -6.1      1.550      3.131
  Name = 
  18 active torsions:
  status: ('A' for Active; 'I' for Inactive)
    1  A    between atoms: C_2  and  C_27
    2  A    between atoms: C_3  and  N_16
    3  A    between atoms: C_4  and  O_7
    4  A    between atoms: C_4  and  C_27
    5  A    between atoms: C_4  and  C_28
    6  A    between atoms: C_5  and  C_26
    7  A    between atoms: C_5  and  C_35
    8  A    between atoms: O_7  and  C_25
    9  A    between atoms: C_12  and  C_42
   10  A    between atoms: C_14  and  C_25
   11  A    between atoms: C_14  and  C_38
   12  A    between atoms: N_16  and  C_19
   13  A    between atoms: C_19  and  C_32
   14  A    between atoms: C_19  and  O_44
   15  A    between atoms: C_21  and  C_27
   16  A    between atoms: C_23  and  C_26
   17  A    between atoms: C_32  and  C_35
   18  A    between atoms: C_32  and  C_38
                            x       y       z     vdW  Elec       q    Type
                         _______ _______ _______ _____ _____    ______ ____

>  <TORSDO>
F 18

$$$$
=
 OpenBabel11062422143D

 44 48  0  0  1  0  0  0  0  0999 V2000
  193.2640  175.1280  142.9800 C   0  0  2  0  0  3  0  0  0  0  0  0
  191.7560  173.4380  140.6010 C   0  0  0  0  0  2  0  0  0  0  0  0
  190.7860  172.9820  142.8680 C   0  0  0  0  0  2  0  0  0  0  0  0
  192.1870  172.8250  143.4520 C   0  0  0  0  0  2  0  0  0  0  0  0
  193.2300  173.6230  142.6550 C   0  0  1  0  0  3  0  0  0  0  0  0
  193.1730  173.3130  141.1560 C   0  0  0  0  0  2  0  0  0  0  0  0
  190.7750  172.5730  141.3990 C   0  0  1  0  0  3  0  0  0  0  0  0
  189.3050  172.3920  139.4130 C   0  0  0  0  0  0  0  0  0  0  0  0
  188.7790  173.5140  138.7780 N   0  0  0  0  0  0  0  0  0  0  0  0
  189.3470  172.6490  140.8470 C   0  0  2  0  0  3  0  0  0  0  0  0
  188.7890  174.0080  140.9890 N   0  0  0  0  0  0  0  0  0  0  0  0
  189.6620  171.3340  138.8290 O   0  0  0  0  0  0  0  0  0  0  0  0
  188.6080  173.6670  137.3450 C   0  0  0  0  0  1  0  0  0  0  0  0
  188.4670  174.5210  139.6990 N   0  0  0  0  0  0  0  0  0  0  0  0
  194.7100  175.5860  143.2730 C   0  0  1  0  0  3  0  0  0  0  0  0
  195.2470  173.8550  145.1460 C   0  0  2  0  0  3  0  0  0  0  0  0
  195.5900  174.4460  143.8010 C   0  0  2  0  0  0  0  0  0  0  0  0
  195.6330  174.7430  146.1670 O   0  0  0  0  0  0  0  0  0  0  0  0
  196.4400  174.7380  145.0130 C   0  0  1  0  0  3  0  0  0  0  0  0
  196.1890  173.5120  142.8620 N   0  0  0  0  0  1  0  0  0  0  0  0
  195.3560  176.2230  142.0800 C   0  0  0  0  0  0  0  0  0  0  0  0
  194.6820  176.2480  140.8670 O   0  0  0  0  0  0  0  0  0  0  0  0
  196.4980  176.7460  142.1730 O   0  0  0  0  0  1  0  0  0  0  0  0
  192.4150  175.4130  144.0650 O   0  0  0  0  0  0  0  0  0  0  0  0
  192.2650  176.8080  144.1110 C   0  0  1  0  0  3  0  0  0  0  0  0
  191.5920  177.3150  142.8480 C   0  0  0  0  0  1  0  0  0  0  0  0
  191.3820  177.1720  145.2920 C   0  0  0  0  0  2  0  0  0  0  0  0
  189.9810  177.5350  144.8310 C   0  0  0  0  0  2  0  0  0  0  0  0
  189.0250  176.3500  144.9890 C   0  0  2  0  0  3  0  0  0  0  0  0
  188.1430  176.1500  143.7560 C   0  0  0  0  0  2  0  0  0  0  0  0
  186.9470  177.0890  143.7130 C   0  0  2  0  0  3  0  0  0  0  0  0
  185.8070  176.3790  143.3360 O   0  0  0  0  0  1  0  0  0  0  0  0
  187.2170  178.1940  142.7070 C   0  0  0  0  0  2  0  0  0  0  0  0
  186.9450  177.6040  140.3600 N   0  0  0  0  0  1  0  0  0  0  0  0
  187.8900  177.6410  141.4630 C   0  0  0  0  0  2  0  0  0  0  0  0
  188.2220  176.3700  146.2980 C   0  0  1  0  0  3  0  0  0  0  0  0
  189.0470  174.4910  147.1370 C   0  0  0  0  0  1  0  0  0  0  0  0
  189.0050  175.8710  147.3450 O   0  0  0  0  0  0  0  0  0  0  0  0
  187.7700  177.7200  146.6180 N   0  0  0  0  0  2  0  0  0  0  0  0
  186.5710  177.6160  147.4360 C   0  0  1  0  0  3  0  0  0  0  0  0
  184.6250  178.6030  146.7630 N   0  0  0  0  0  0  0  0  0  0  0  0
  185.8410  178.8320  147.3600 O   0  0  0  0  0  0  0  0  0  0  0  0
  184.5180  177.3770  146.4650 N   0  0  0  0  0  0  0  0  0  0  0  0
  185.6560  176.7060  146.8410 O   0  0  0  0  0  0  0  0  0  0  0  0
  1 15  1  0  0  0  0
  1 24  1  1  0  0  0
  2  6  1  0  0  0  0
  3  4  1  0  0  0  0
  5  1  1  6  0  0  0
  5  4  1  0  0  0  0
  6  5  1  0  0  0  0
  7  2  1  6  0  0  0
  7  3  1  0  0  0  0
  9  8  1  0  0  0  0
  9 14  1  0  0  0  0
 10  8  1  6  0  0  0
 10 11  1  0  0  0  0
 10  7  1  0  0  0  0
 12  8  2  0  0  0  0
 13  9  1  0  0  0  0
 14 11  2  0  0  0  0
 15 21  1  6  0  0  0
 15 17  1  0  0  0  0
 16 18  1  1  0  0  0
 17 20  1  6  0  0  0
 17 19  1  0  0  0  0
 17 16  1  0  0  0  0
 19 16  1  0  0  0  0
 19 18  1  1  0  0  0
 21 23  1  0  0  0  0
 22 21  2  0  0  0  0
 24 25  1  0  0  0  0
 25 26  1  6  0  0  0
 25 27  1  0  0  0  0
 28 29  1  0  0  0  0
 28 27  1  0  0  0  0
 29 30  1  6  0  0  0
 29 36  1  0  0  0  0
 31 32  1  6  0  0  0
 31 30  1  0  0  0  0
 33 31  1  0  0  0  0
 34 35  1  0  0  0  0
 35 33  1  0  0  0  0
 36 39  1  1  0  0  0
 36 38  1  0  0  0  0
 37 38  1  0  0  0  0
 40 39  1  6  0  0  0
 41 42  1  0  0  0  0
 42 40  1  0  0  0  0
 43 41  2  0  0  0  0
 43 44  1  0  0  0  0
 44 40  1  0  0  0  0
M  END
>  <MODEL>
4

>  <REMARK>
 VINA RESULT:      -5.9      2.203      3.781
  Name = 
  18 active torsions:
  status: ('A' for Active; 'I' for Inactive)
    1  A    between atoms: C_2  and  C_27
    2  A    between atoms: C_3  and  N_16
    3  A    between atoms: C_4  and  O_7
    4  A    between atoms: C_4  and  C_27
    5  A    between atoms: C_4  and  C_28
    6  A    between atoms: C_5  and  C_26
    7  A    between atoms: C_5  and  C_35
    8  A    between atoms: O_7  and  C_25
    9  A    between atoms: C_12  and  C_42
   10  A    between atoms: C_14  and  C_25
   11  A    between atoms: C_14  and  C_38
   12  A    between atoms: N_16  and  C_19
   13  A    between atoms: C_19  and  C_32
   14  A    between atoms: C_19  and  O_44
   15  A    between atoms: C_21  and  C_27
   16  A    between atoms: C_23  and  C_26
   17  A    between atoms: C_32  and  C_35
   18  A    between atoms: C_32  and  C_38
                            x       y       z     vdW  Elec       q    Type
                         _______ _______ _______ _____ _____    ______ ____

>  <TORSDO>
F 18

$$$$
=
 OpenBabel11062422143D

 44 48  0  0  1  0  0  0  0  0999 V2000
  193.6850  174.3700  143.0880 C   0  0  2  0  0  3  0  0  0  0  0  0
  191.7270  173.5060  140.5940 C   0  0  0  0  0  2  0  0  0  0  0  0
  191.0910  172.3910  142.7480 C   0  0  0  0  0  2  0  0  0  0  0  0
  192.5520  172.0450  143.0190 C   0  0  0  0  0  2  0  0  0  0  0  0
  193.5080  173.0360  142.3370 C   0  0  1  0  0  3  0  0  0  0  0  0
  193.2020  173.2000  140.8450 C   0  0  0  0  0  2  0  0  0  0  0  0
  190.8290  172.4500  141.2470 C   0  0  1  0  0  3  0  0  0  0  0  0
  189.0230  172.6580  139.5650 C   0  0  0  0  0  0  0  0  0  0  0  0
  188.5060  173.8940  139.1840 N   0  0  0  0  0  0  0  0  0  0  0  0
  189.3410  172.7070  140.9870 C   0  0  2  0  0  3  0  0  0  0  0  0
  188.9540  174.0720  141.3980 N   0  0  0  0  0  0  0  0  0  0  0  0
  189.1650  171.6690  138.7980 O   0  0  0  0  0  0  0  0  0  0  0  0
  188.1010  174.2580  137.8390 C   0  0  0  0  0  1  0  0  0  0  0  0
  188.4610  174.7820  140.2650 N   0  0  0  0  0  0  0  0  0  0  0  0
  195.0250  174.3870  143.8530 C   0  0  1  0  0  3  0  0  0  0  0  0
  196.3410  175.9590  142.2430 C   0  0  2  0  0  3  0  0  0  0  0  0
  195.8120  175.6840  143.6290 C   0  0  2  0  0  0  0  0  0  0  0  0
  197.4550  175.1370  141.9880 O   0  0  0  0  0  0  0  0  0  0  0  0
  197.2840  175.5520  143.3220 C   0  0  1  0  0  3  0  0  0  0  0  0
  195.4650  176.8710  144.3920 N   0  0  0  0  0  1  0  0  0  0  0  0
  194.8450  174.1420  145.3200 C   0  0  0  0  0  0  0  0  0  0  0  0
  194.8810  175.2130  146.2030 O   0  0  0  0  0  1  0  0  0  0  0  0
  194.6470  172.9770  145.7560 O   0  0  0  0  0  0  0  0  0  0  0  0
  192.6020  174.5850  143.9610 O   0  0  0  0  0  0  0  0  0  0  0  0
  192.1540  175.8970  143.7390 C   0  0  1  0  0  3  0  0  0  0  0  0
  192.6280  176.4020  142.3880 C   0  0  0  0  0  1  0  0  0  0  0  0
  190.6350  175.9070  143.7380 C   0  0  0  0  0  2  0  0  0  0  0  0
  190.1020  177.3280  143.7990 C   0  0  0  0  0  2  0  0  0  0  0  0
  188.7380  177.3750  144.4930 C   0  0  2  0  0  3  0  0  0  0  0  0
  188.3720  176.0380  145.1400 C   0  0  0  0  0  2  0  0  0  0  0  0
  188.3560  176.0900  146.6600 C   0  0  2  0  0  3  0  0  0  0  0  0
  188.8810  177.3080  147.0930 O   0  0  0  0  0  1  0  0  0  0  0  0
  189.1960  174.9480  147.2060 C   0  0  0  0  0  2  0  0  0  0  0  0
  191.2470  175.2930  148.4730 N   0  0  0  0  0  1  0  0  0  0  0  0
  190.6760  175.2840  147.1370 C   0  0  0  0  0  2  0  0  0  0  0  0
  187.6130  177.9390  143.6130 C   0  0  1  0  0  3  0  0  0  0  0  0
  186.6860  178.0320  141.6020 C   0  0  0  0  0  1  0  0  0  0  0  0
  187.7070  177.4110  142.3220 O   0  0  0  0  0  0  0  0  0  0  0  0
  186.3010  177.6360  144.1780 N   0  0  0  0  0  2  0  0  0  0  0  0
  185.8180  178.8230  144.8680 C   0  0  1  0  0  3  0  0  0  0  0  0
  183.8220  178.7800  145.9750 N   0  0  0  0  0  0  0  0  0  0  0  0
  184.4060  178.9010  144.7380 O   0  0  0  0  0  0  0  0  0  0  0  0
  184.7160  178.6400  146.8600 N   0  0  0  0  0  0  0  0  0  0  0  0
  185.9580  178.6550  146.2720 O   0  0  0  0  0  0  0  0  0  0  0  0
  1 15  1  0  0  0  0
  1 24  1  1  0  0  0
  2  6  1  0  0  0  0
  3  4  1  0  0  0  0
  5  4  1  0  0  0  0
  5  1  1  1  0  0  0
  6  5  1  0  0  0  0
  7  2  1  1  0  0  0
  7  3  1  0  0  0  0
  9  8  1  0  0  0  0
  9 14  1  0  0  0  0
 10  8  1  6  0  0  0
 10  7  1  0  0  0  0
 10 11  1  0  0  0  0
 12  8  2  0  0  0  0
 13  9  1  0  0  0  0
 14 11  2  0  0  0  0
 15 21  1  1  0  0  0
 16 18  1  6  0  0  0
 16 19  1  0  0  0  0
 16 17  1  0  0  0  0
 17 15  1  0  0  0  0
 17 20  1  1  0  0  0
 19 18  1  6  0  0  0
 19 17  1  0  0  0  0
 21 23  2  0  0  0  0
 21 22  1  0  0  0  0
 25 26  1  6  0  0  0
 25 24  1  0  0  0  0
 27 25  1  0  0  0  0
 27 28  1  0  0  0  0
 29 28  1  6  0  0  0
 29 30  1  0  0  0  0
 30 31  1  0  0  0  0
 31 32  1  6  0  0  0
 31 33  1  0  0  0  0
 35 33  1  0  0  0  0
 35 34  1  0  0  0  0
 36 38  1  6  0  0  0
 36 39  1  0  0  0  0
 36 29  1  0  0  0  0
 37 38  1  0  0  0  0
 40 39  1  6  0  0  0
 40 44  1  0  0  0  0
 41 43  2  0  0  0  0
 42 40  1  0  0  0  0
 42 41  1  0  0  0  0
 44 43  1  0  0  0  0
M  END
>  <MODEL>
5

>  <REMARK>
 VINA RESULT:      -5.7      1.965      2.695
  Name = 
  18 active torsions:
  status: ('A' for Active; 'I' for Inactive)
    1  A    between atoms: C_2  and  C_27
    2  A    between atoms: C_3  and  N_16
    3  A    between atoms: C_4  and  O_7
    4  A    between atoms: C_4  and  C_27
    5  A    between atoms: C_4  and  C_28
    6  A    between atoms: C_5  and  C_26
    7  A    between atoms: C_5  and  C_35
    8  A    between atoms: O_7  and  C_25
    9  A    between atoms: C_12  and  C_42
   10  A    between atoms: C_14  and  C_25
   11  A    between atoms: C_14  and  C_38
   12  A    between atoms: N_16  and  C_19
   13  A    between atoms: C_19  and  C_32
   14  A    between atoms: C_19  and  O_44
   15  A    between atoms: C_21  and  C_27
   16  A    between atoms: C_23  and  C_26
   17  A    between atoms: C_32  and  C_35
   18  A    between atoms: C_32  and  C_38
                            x       y       z     vdW  Elec       q    Type
                         _______ _______ _______ _____ _____    ______ ____

>  <TORSDO>
F 18

$$$$
=
 OpenBabel11062422143D

 44 48  0  0  1  0  0  0  0  0999 V2000
  193.0660  174.7810  144.6420 C   0  0  2  0  0  3  0  0  0  0  0  0
  192.3400  171.8690  143.3040 C   0  0  0  0  0  2  0  0  0  0  0  0
  190.3100  173.2970  143.6600 C   0  0  0  0  0  2  0  0  0  0  0  0
  190.7820  173.6440  145.0700 C   0  0  0  0  0  2  0  0  0  0  0  0
  192.3110  173.5580  145.1960 C   0  0  1  0  0  3  0  0  0  0  0  0
  192.8570  172.2150  144.6990 C   0  0  0  0  0  2  0  0  0  0  0  0
  190.8090  171.9130  143.2600 C   0  0  1  0  0  3  0  0  0  0  0  0
  191.0150  172.1590  140.8040 C   0  0  0  0  0  0  0  0  0  0  0  0
  190.1570  172.9720  140.0670 N   0  0  0  0  0  0  0  0  0  0  0  0
  190.2540  171.5380  141.8810 C   0  0  2  0  0  3  0  0  0  0  0  0
  188.8820  172.0510  141.6980 N   0  0  0  0  0  0  0  0  0  0  0  0
  192.2380  171.9880  140.5520 O   0  0  0  0  0  0  0  0  0  0  0  0
  190.5400  173.7900  138.9310 C   0  0  0  0  0  1  0  0  0  0  0  0
  188.8580  172.9430  140.5870 N   0  0  0  0  0  0  0  0  0  0  0  0
  194.3340  175.0570  145.4770 C   0  0  1  0  0  3  0  0  0  0  0  0
  196.1330  173.6020  144.2770 C   0  0  2  0  0  3  0  0  0  0  0  0
  195.6180  174.9720  144.6410 C   0  0  2  0  0  0  0  0  0  0  0  0
  196.7230  173.0010  145.4040 O   0  0  0  0  0  0  0  0  0  0  0  0
  196.8410  174.4010  145.3150 C   0  0  1  0  0  3  0  0  0  0  0  0
  195.9030  176.0080  143.6630 N   0  0  0  0  0  1  0  0  0  0  0  0
  194.2700  176.3760  146.1860 C   0  0  0  0  0  0  0  0  0  0  0  0
  194.9260  177.4760  145.6500 O   0  0  0  0  0  0  0  0  0  0  0  0
  193.6170  176.4980  147.2560 O   0  0  0  0  0  1  0  0  0  0  0  0
  192.2210  175.9060  144.6180 O   0  0  0  0  0  0  0  0  0  0  0  0
  192.4680  176.5760  143.4100 C   0  0  1  0  0  3  0  0  0  0  0  0
  192.5500  175.5900  142.2590 C   0  0  0  0  0  1  0  0  0  0  0  0
  191.3200  177.5300  143.1300 C   0  0  0  0  0  2  0  0  0  0  0  0
  190.0590  176.7690  142.7600 C   0  0  0  0  0  2  0  0  0  0  0  0
  188.8350  177.3520  143.4710 C   0  0  2  0  0  3  0  0  0  0  0  0
  188.1560  176.3310  144.3850 C   0  0  0  0  0  2  0  0  0  0  0  0
  188.1020  176.7690  145.8410 C   0  0  2  0  0  3  0  0  0  0  0  0
  188.6560  175.7760  146.6490 O   0  0  0  0  0  1  0  0  0  0  0  0
  186.6540  177.0020  146.2370 C   0  0  0  0  0  2  0  0  0  0  0  0
  185.1830  178.3140  147.6680 N   0  0  0  0  0  1  0  0  0  0  0  0
  186.5650  177.9300  147.4370 C   0  0  0  0  0  2  0  0  0  0  0  0
  187.8480  178.0590  142.5310 C   0  0  1  0  0  3  0  0  0  0  0  0
  187.2320  176.7870  140.8240 C   0  0  0  0  0  1  0  0  0  0  0  0
  188.1590  177.7590  141.2010 O   0  0  0  0  0  0  0  0  0  0  0  0
  186.4730  177.6660  142.8190 N   0  0  0  0  0  2  0  0  0  0  0  0
  185.6400  178.8590  142.7790 C   0  0  1  0  0  3  0  0  0  0  0  0
  183.6420  178.9090  143.8830 N   0  0  0  0  0  0  0  0  0  0  0  0
  184.2730  178.4780  142.7410 O   0  0  0  0  0  0  0  0  0  0  0  0
  184.4680  179.5200  144.6240 N   0  0  0  0  0  0  0  0  0  0  0  0
  185.7050  179.5350  144.0270 O   0  0  0  0  0  0  0  0  0  0  0  0
  1 24  1  1  0  0  0
  1 15  1  0  0  0  0
  2  6  1  0  0  0  0
  3  4  1  0  0  0  0
  4  5  1  0  0  0  0
  5  1  1  6  0  0  0
  6  5  1  0  0  0  0
  7  2  1  6  0  0  0
  7  3  1  0  0  0  0
  9 14  1  0  0  0  0
  9  8  1  0  0  0  0
 10  8  1  6  0  0  0
 10  7  1  0  0  0  0
 11 10  1  0  0  0  0
 12  8  2  0  0  0  0
 13  9  1  0  0  0  0
 14 11  2  0  0  0  0
 15 21  1  6  0  0  0
 16 17  1  0  0  0  0
 16 19  1  0  0  0  0
 16 18  1  1  0  0  0
 17 20  1  6  0  0  0
 17 19  1  0  0  0  0
 17 15  1  0  0  0  0
 19 18  1  1  0  0  0
 21 23  1  0  0  0  0
 22 21  2  0  0  0  0
 25 26  1  6  0  0  0
 25 24  1  0  0  0  0
 27 25  1  0  0  0  0
 28 27  1  0  0  0  0
 29 28  1  6  0  0  0
 29 30  1  0  0  0  0
 30 31  1  0  0  0  0
 31 33  1  0  0  0  0
 31 32  1  1  0  0  0
 33 35  1  0  0  0  0
 35 34  1  0  0  0  0
 36 38  1  6  0  0  0
 36 39  1  0  0  0  0
 36 29  1  0  0  0  0
 37 38  1  0  0  0  0
 40 39  1  1  0  0  0
 40 44  1  0  0  0  0
 41 43  2  0  0  0  0
 42 40  1  0  0  0  0
 42 41  1  0  0  0  0
 44 43  1  0  0  0  0
M  END
>  <MODEL>
6

>  <REMARK>
 VINA RESULT:      -5.6      1.294      1.560
  Name = 
  18 active torsions:
  status: ('A' for Active; 'I' for Inactive)
    1  A    between atoms: C_2  and  C_27
    2  A    between atoms: C_3  and  N_16
    3  A    between atoms: C_4  and  O_7
    4  A    between atoms: C_4  and  C_27
    5  A    between atoms: C_4  and  C_28
    6  A    between atoms: C_5  and  C_26
    7  A    between atoms: C_5  and  C_35
    8  A    between atoms: O_7  and  C_25
    9  A    between atoms: C_12  and  C_42
   10  A    between atoms: C_14  and  C_25
   11  A    between atoms: C_14  and  C_38
   12  A    between atoms: N_16  and  C_19
   13  A    between atoms: C_19  and  C_32
   14  A    between atoms: C_19  and  O_44
   15  A    between atoms: C_21  and  C_27
   16  A    between atoms: C_23  and  C_26
   17  A    between atoms: C_32  and  C_35
   18  A    between atoms: C_32  and  C_38
                            x       y       z     vdW  Elec       q    Type
                         _______ _______ _______ _____ _____    ______ ____

>  <TORSDO>
F 18

$$$$
=
 OpenBabel11062422143D

 44 48  0  0  1  0  0  0  0  0999 V2000
  188.6980  177.0050  144.3760 C   0  0  2  0  0  3  0  0  0  0  0  0
  191.7060  177.5410  143.1650 C   0  0  0  0  0  2  0  0  0  0  0  0
  191.7260  176.0090  145.1510 C   0  0  0  0  0  2  0  0  0  0  0  0
  190.7850  176.9470  145.9030 C   0  0  0  0  0  2  0  0  0  0  0  0
  189.9110  177.7680  144.9430 C   0  0  1  0  0  3  0  0  0  0  0  0
  190.7430  178.4890  143.8780 C   0  0  0  0  0  2  0  0  0  0  0  0
  192.5900  176.7980  144.1720 C   0  0  1  0  0  3  0  0  0  0  0  0
  194.9370  176.0180  144.0300 C   0  0  0  0  0  0  0  0  0  0  0  0
  195.7850  176.4110  142.9980 N   0  0  0  0  0  0  0  0  0  0  0  0
  193.5930  175.8610  143.4890 C   0  0  2  0  0  3  0  0  0  0  0  0
  193.7380  176.1840  142.0560 N   0  0  0  0  0  0  0  0  0  0  0  0
  195.2950  175.8190  145.2210 O   0  0  0  0  0  0  0  0  0  0  0  0
  197.2000  176.7050  143.1380 C   0  0  0  0  0  1  0  0  0  0  0  0
  195.0930  176.5360  141.7890 N   0  0  0  0  0  0  0  0  0  0  0  0
  187.3880  177.5390  144.9930 C   0  0  1  0  0  3  0  0  0  0  0  0
  186.2970  178.7650  142.9680 C   0  0  2  0  0  3  0  0  0  0  0  0
  186.2520  177.6350  143.9660 C   0  0  2  0  0  0  0  0  0  0  0  0
  185.9430  179.9710  143.6010 O   0  0  0  0  0  0  0  0  0  0  0  0
  185.3130  178.8100  144.0860 C   0  0  1  0  0  3  0  0  0  0  0  0
  185.6270  176.4170  143.4770 N   0  0  0  0  0  1  0  0  0  0  0  0
  186.9460  176.7290  146.1730 C   0  0  0  0  0  0  0  0  0  0  0  0
  187.8610  175.9200  146.8320 O   0  0  0  0  0  1  0  0  0  0  0  0
  185.7550  176.7850  146.5790 O   0  0  0  0  0  0  0  0  0  0  0  0
  188.8400  175.6240  144.6050 O   0  0  0  0  0  0  0  0  0  0  0  0
  188.6610  174.9850  143.3690 C   0  0  1  0  0  3  0  0  0  0  0  0
  188.8880  175.9590  142.2260 C   0  0  0  0  0  1  0  0  0  0  0  0
  189.6790  173.8650  143.2400 C   0  0  0  0  0  2  0  0  0  0  0  0
  190.5760  174.0820  142.0330 C   0  0  0  0  0  2  0  0  0  0  0  0
  191.2260  172.7700  141.5860 C   0  0  2  0  0  3  0  0  0  0  0  0
  192.7530  172.8280  141.6530 C   0  0  0  0  0  2  0  0  0  0  0  0
  193.3620  171.7080  142.4810 C   0  0  2  0  0  3  0  0  0  0  0  0
  192.3560  171.0470  143.1870 O   0  0  0  0  0  1  0  0  0  0  0  0
  194.3670  172.2980  143.4560 C   0  0  0  0  0  2  0  0  0  0  0  0
  194.5790  171.5540  145.7650 N   0  0  0  0  0  1  0  0  0  0  0  0
  193.7850  172.3650  144.8580 C   0  0  0  0  0  2  0  0  0  0  0  0
  190.7080  172.2480  140.2380 C   0  0  1  0  0  3  0  0  0  0  0  0
  190.9770  170.0570  140.0370 C   0  0  0  0  0  1  0  0  0  0  0  0
  190.0500  171.0270  140.4200 O   0  0  0  0  0  0  0  0  0  0  0  0
  189.8050  173.2090  139.6130 N   0  0  0  0  0  2  0  0  0  0  0  0
  190.4090  173.6570  138.3670 C   0  0  1  0  0  3  0  0  0  0  0  0
  190.1600  172.4280  136.4590 N   0  0  0  0  0  0  0  0  0  0  0  0
  190.8650  172.5300  137.6330 O   0  0  0  0  0  0  0  0  0  0  0  0
  189.3190  173.3710  136.3810 N   0  0  0  0  0  0  0  0  0  0  0  0
  189.4040  174.1640  137.4990 O   0  0  0  0  0  0  0  0  0  0  0  0
  1 24  1  1  0  0  0
  1 15  1  0  0  0  0
  2  6  1  0  0  0  0
  3  4  1  0  0  0  0
  5  1  1  6  0  0  0
  5  4  1  0  0  0  0
  6  5  1  0  0  0  0
  7  2  1  6  0  0  0
  7  3  1  0  0  0  0
  8 12  2  0  0  0  0
  9 13  1  0  0  0  0
  9  8  1  0  0  0  0
 10 11  1  6  0  0  0
 10  8  1  0  0  0  0
 10  7  1  0  0  0  0
 14 11  2  0  0  0  0
 14  9  1  0  0  0  0
 15 21  1  1  0  0  0
 16 18  1  1  0  0  0
 16 17  1  0  0  0  0
 16 19  1  0  0  0  0
 17 20  1  6  0  0  0
 17 19  1  0  0  0  0
 17 15  1  0  0  0  0
 19 18  1  1  0  0  0
 21 23  2  0  0  0  0
 21 22  1  0  0  0  0
 25 26  1  6  0  0  0
 25 24  1  0  0  0  0
 27 25  1  0  0  0  0
 28 27  1  0  0  0  0
 29 30  1  6  0  0  0
 29 28  1  0  0  0  0
 30 31  1  0  0  0  0
 31 32  1  1  0  0  0
 31 33  1  0  0  0  0
 33 35  1  0  0  0  0
 35 34  1  0  0  0  0
 36 39  1  1  0  0  0
 36 38  1  0  0  0  0
 36 29  1  0  0  0  0
 37 38  1  0  0  0  0
 40 39  1  1  0  0  0
 41 42  1  0  0  0  0
 42 40  1  0  0  0  0
 43 41  2  0  0  0  0
 43 44  1  0  0  0  0
 44 40  1  0  0  0  0
M  END
>  <MODEL>
7

>  <REMARK>
 VINA RESULT:      -5.5      2.289      7.546
  Name = 
  18 active torsions:
  status: ('A' for Active; 'I' for Inactive)
    1  A    between atoms: C_2  and  C_27
    2  A    between atoms: C_3  and  N_16
    3  A    between atoms: C_4  and  O_7
    4  A    between atoms: C_4  and  C_27
    5  A    between atoms: C_4  and  C_28
    6  A    between atoms: C_5  and  C_26
    7  A    between atoms: C_5  and  C_35
    8  A    between atoms: O_7  and  C_25
    9  A    between atoms: C_12  and  C_42
   10  A    between atoms: C_14  and  C_25
   11  A    between atoms: C_14  and  C_38
   12  A    between atoms: N_16  and  C_19
   13  A    between atoms: C_19  and  C_32
   14  A    between atoms: C_19  and  O_44
   15  A    between atoms: C_21  and  C_27
   16  A    between atoms: C_23  and  C_26
   17  A    between atoms: C_32  and  C_35
   18  A    between atoms: C_32  and  C_38
                            x       y       z     vdW  Elec       q    Type
                         _______ _______ _______ _____ _____    ______ ____

>  <TORSDO>
F 18

$$$$
=
 OpenBabel11062422143D

 44 48  0  0  1  0  0  0  0  0999 V2000
  191.5970  172.5960  141.7450 C   0  0  2  0  0  3  0  0  0  0  0  0
  194.8470  172.7830  142.1880 C   0  0  0  0  0  2  0  0  0  0  0  0
  193.7590  175.0400  142.0850 C   0  0  0  0  0  2  0  0  0  0  0  0
  192.9540  174.6130  140.8610 C   0  0  0  0  0  2  0  0  0  0  0  0
  192.7300  173.0930  140.8270 C   0  0  1  0  0  3  0  0  0  0  0  0
  194.0390  172.3130  140.9800 C   0  0  0  0  0  2  0  0  0  0  0  0
  195.0890  174.2940  142.1310 C   0  0  1  0  0  3  0  0  0  0  0  0
  195.0980  175.1040  144.4720 C   0  0  0  0  0  0  0  0  0  0  0  0
  195.2620  176.4500  144.7890 N   0  0  0  0  0  0  0  0  0  0  0  0
  195.9270  174.7960  143.3130 C   0  0  2  0  0  3  0  0  0  0  0  0
  196.5920  176.0750  142.9940 N   0  0  0  0  0  0  0  0  0  0  0  0
  194.3660  174.2980  145.1070 O   0  0  0  0  0  0  0  0  0  0  0  0
  194.5790  177.1510  145.8600 C   0  0  0  0  0  1  0  0  0  0  0  0
  196.1500  177.0760  143.9070 N   0  0  0  0  0  0  0  0  0  0  0  0
  190.6180  171.6990  140.9570 C   0  0  1  0  0  3  0  0  0  0  0  0
  189.7360  173.5490  139.3470 C   0  0  2  0  0  3  0  0  0  0  0  0
  190.3850  172.1990  139.5260 C   0  0  2  0  0  0  0  0  0  0  0  0
  188.3600  173.4550  139.6300 O   0  0  0  0  0  0  0  0  0  0  0  0
  188.9540  172.3130  139.0610 C   0  0  1  0  0  3  0  0  0  0  0  0
  191.3260  171.8350  138.4810 N   0  0  0  0  0  1  0  0  0  0  0  0
  191.0540  170.2660  140.9360 C   0  0  0  0  0  0  0  0  0  0  0  0
  190.5030  169.3950  140.0070 O   0  0  0  0  0  0  0  0  0  0  0  0
  191.9260  169.8490  141.7440 O   0  0  0  0  0  1  0  0  0  0  0  0
  190.9260  173.6880  142.3260 O   0  0  0  0  0  0  0  0  0  0  0  0
  189.8940  173.1590  143.1160 C   0  0  1  0  0  3  0  0  0  0  0  0
  190.3860  172.8870  144.5260 C   0  0  0  0  0  1  0  0  0  0  0  0
  188.7650  174.1720  143.2000 C   0  0  0  0  0  2  0  0  0  0  0  0
  189.1300  175.4530  142.4700 C   0  0  0  0  0  2  0  0  0  0  0  0
  188.3940  176.6560  143.0660 C   0  0  2  0  0  3  0  0  0  0  0  0
  188.1180  176.4820  144.5600 C   0  0  0  0  0  2  0  0  0  0  0  0
  188.7570  177.5630  145.4190 C   0  0  2  0  0  3  0  0  0  0  0  0
  190.0220  177.8720  144.9190 O   0  0  0  0  0  1  0  0  0  0  0  0
  188.8800  177.0580  146.8460 C   0  0  0  0  0  2  0  0  0  0  0  0
  190.0000  175.0390  147.6220 N   0  0  0  0  0  1  0  0  0  0  0  0
  188.8510  175.5390  146.8860 C   0  0  0  0  0  2  0  0  0  0  0  0
  187.1470  177.0750  142.2750 C   0  0  1  0  0  3  0  0  0  0  0  0
  186.9440  177.5060  140.1100 C   0  0  0  0  0  1  0  0  0  0  0  0
  187.1530  176.4650  141.0160 O   0  0  0  0  0  0  0  0  0  0  0  0
  185.9250  176.7220  142.9910 N   0  0  0  0  0  2  0  0  0  0  0  0
  185.0660  177.8950  143.0310 C   0  0  1  0  0  3  0  0  0  0  0  0
  184.8360  179.0910  144.9630 N   0  0  0  0  0  0  0  0  0  0  0  0
  184.4210  177.9650  144.2950 O   0  0  0  0  0  0  0  0  0  0  0  0
  185.6630  179.7320  144.2500 N   0  0  0  0  0  0  0  0  0  0  0  0
  185.8590  179.0740  143.0600 O   0  0  0  0  0  0  0  0  0  0  0  0
  1 24  1  6  0  0  0
  4  3  1  0  0  0  0
  5  4  1  0  0  0  0
  5  6  1  0  0  0  0
  5  1  1  1  0  0  0
  6  2  1  0  0  0  0
  7  3  1  1  0  0  0
  7  2  1  0  0  0  0
  7 10  1  0  0  0  0
  8  9  1  0  0  0  0
  8 12  2  0  0  0  0
  9 13  1  0  0  0  0
 10 11  1  6  0  0  0
 10  8  1  0  0  0  0
 11 14  2  0  0  0  0
 14  9  1  0  0  0  0
 15 21  1  6  0  0  0
 15  1  1  0  0  0  0
 16 17  1  0  0  0  0
 16 18  1  1  0  0  0
 17 20  1  6  0  0  0
 17 15  1  0  0  0  0
 19 16  1  0  0  0  0
 19 17  1  0  0  0  0
 19 18  1  1  0  0  0
 21 23  1  0  0  0  0
 22 21  2  0  0  0  0
 24 25  1  0  0  0  0
 25 27  1  0  0  0  0
 25 26  1  1  0  0  0
 28 27  1  0  0  0  0
 29 28  1  6  0  0  0
 29 30  1  0  0  0  0
 30 31  1  0  0  0  0
 31 32  1  6  0  0  0
 31 33  1  0  0  0  0
 33 35  1  0  0  0  0
 35 34  1  0  0  0  0
 36 38  1  6  0  0  0
 36 39  1  0  0  0  0
 36 29  1  0  0  0  0
 37 38  1  0  0  0  0
 40 39  1  1  0  0  0
 40 44  1  0  0  0  0
 40 42  1  0  0  0  0
 42 41  1  0  0  0  0
 43 41  2  0  0  0  0
 44 43  1  0  0  0  0
M  END
>  <MODEL>
8

>  <REMARK>
 VINA RESULT:      -5.5      1.796      5.539
  Name = 
  18 active torsions:
  status: ('A' for Active; 'I' for Inactive)
    1  A    between atoms: C_2  and  C_27
    2  A    between atoms: C_3  and  N_16
    3  A    between atoms: C_4  and  O_7
    4  A    between atoms: C_4  and  C_27
    5  A    between atoms: C_4  and  C_28
    6  A    between atoms: C_5  and  C_26
    7  A    between atoms: C_5  and  C_35
    8  A    between atoms: O_7  and  C_25
    9  A    between atoms: C_12  and  C_42
   10  A    between atoms: C_14  and  C_25
   11  A    between atoms: C_14  and  C_38
   12  A    between atoms: N_16  and  C_19
   13  A    between atoms: C_19  and  C_32
   14  A    between atoms: C_19  and  O_44
   15  A    between atoms: C_21  and  C_27
   16  A    between atoms: C_23  and  C_26
   17  A    between atoms: C_32  and  C_35
   18  A    between atoms: C_32  and  C_38
                            x       y       z     vdW  Elec       q    Type
                         _______ _______ _______ _____ _____    ______ ____

>  <TORSDO>
F 18

$$$$
=
 OpenBabel11062422143D

 44 48  0  0  1  0  0  0  0  0999 V2000
  193.1900  174.8530  144.3870 C   0  0  2  0  0  3  0  0  0  0  0  0
  192.4270  171.8000  143.4450 C   0  0  0  0  0  2  0  0  0  0  0  0
  190.3980  173.2070  143.8810 C   0  0  0  0  0  2  0  0  0  0  0  0
  191.0100  173.7120  145.1850 C   0  0  0  0  0  2  0  0  0  0  0  0
  192.5460  173.6770  145.1450 C   0  0  1  0  0  3  0  0  0  0  0  0
  193.0810  172.3040  144.7290 C   0  0  0  0  0  2  0  0  0  0  0  0
  190.9000  171.8010  143.5700 C   0  0  1  0  0  3  0  0  0  0  0  0
  190.9900  170.2180  141.6670 C   0  0  0  0  0  0  0  0  0  0  0  0
  191.3120  170.6310  140.3760 N   0  0  0  0  0  0  0  0  0  0  0  0
  190.2100  171.2690  142.3080 C   0  0  2  0  0  3  0  0  0  0  0  0
  190.0990  172.3190  141.2760 N   0  0  0  0  0  0  0  0  0  0  0  0
  191.3130  169.1090  142.1700 O   0  0  0  0  0  0  0  0  0  0  0  0
  192.1120  169.8780  139.4270 C   0  0  0  0  0  1  0  0  0  0  0  0
  190.8010  171.9050  140.1070 N   0  0  0  0  0  0  0  0  0  0  0  0
  194.5940  175.1570  144.9540 C   0  0  1  0  0  3  0  0  0  0  0  0
  196.1390  173.8380  143.3210 C   0  0  2  0  0  3  0  0  0  0  0  0
  195.6760  175.1660  143.8670 C   0  0  2  0  0  0  0  0  0  0  0  0
  196.9680  173.2010  144.2630 O   0  0  0  0  0  0  0  0  0  0  0  0
  197.0280  174.6070  144.2370 C   0  0  1  0  0  3  0  0  0  0  0  0
  195.7230  176.2630  142.9150 N   0  0  0  0  0  1  0  0  0  0  0  0
  194.6290  176.4420  145.7230 C   0  0  0  0  0  0  0  0  0  0  0  0
  195.1680  177.5790  145.1370 O   0  0  0  0  0  0  0  0  0  0  0  0
  194.1610  176.5030  146.8910 O   0  0  0  0  0  1  0  0  0  0  0  0
  192.3620  175.9890  144.4530 O   0  0  0  0  0  0  0  0  0  0  0  0
  192.3320  176.5470  143.1660 C   0  0  1  0  0  3  0  0  0  0  0  0
  192.3280  175.4570  142.1100 C   0  0  0  0  0  1  0  0  0  0  0  0
  191.0580  177.3590  143.0080 C   0  0  0  0  0  2  0  0  0  0  0  0
  189.8310  176.4910  143.2250 C   0  0  0  0  0  2  0  0  0  0  0  0
  188.5700  177.3470  143.3770 C   0  0  2  0  0  3  0  0  0  0  0  0
  188.2160  177.6000  144.8430 C   0  0  0  0  0  2  0  0  0  0  0  0
  188.8290  176.5830  145.7940 C   0  0  2  0  0  3  0  0  0  0  0  0
  187.8200  175.8040  146.3610 O   0  0  0  0  0  1  0  0  0  0  0  0
  189.5840  177.3170  146.8890 C   0  0  0  0  0  2  0  0  0  0  0  0
  191.3510  177.1370  148.5560 N   0  0  0  0  0  1  0  0  0  0  0  0
  190.6010  176.4030  147.5510 C   0  0  0  0  0  2  0  0  0  0  0  0
  187.3760  176.8450  142.5530 C   0  0  1  0  0  3  0  0  0  0  0  0
  188.1440  175.1490  141.3510 C   0  0  0  0  0  1  0  0  0  0  0  0
  187.3940  175.4480  142.4890 O   0  0  0  0  0  0  0  0  0  0  0  0
  186.1130  177.2980  143.1270 N   0  0  0  0  0  2  0  0  0  0  0  0
  185.6000  178.3800  142.3000 C   0  0  1  0  0  3  0  0  0  0  0  0
  184.2560  177.9260  140.5110 N   0  0  0  0  0  0  0  0  0  0  0  0
  185.5590  177.9590  140.9440 O   0  0  0  0  0  0  0  0  0  0  0  0
  183.4830  178.2860  141.4470 N   0  0  0  0  0  0  0  0  0  0  0  0
  184.2190  178.5810  142.5690 O   0  0  0  0  0  0  0  0  0  0  0  0
  1 24  1  1  0  0  0
  1 15  1  0  0  0  0
  2  6  1  0  0  0  0
  3  4  1  0  0  0  0
  5  1  1  6  0  0  0
  5  4  1  0  0  0  0
  6  5  1  0  0  0  0
  7  2  1  6  0  0  0
  7  3  1  0  0  0  0
  8 12  2  0  0  0  0
  8 10  1  0  0  0  0
  9  8  1  0  0  0  0
 10 11  1  6  0  0  0
 10  7  1  0  0  0  0
 13  9  1  0  0  0  0
 14  9  1  0  0  0  0
 14 11  2  0  0  0  0
 15 21  1  6  0  0  0
 16 17  1  0  0  0  0
 16 19  1  0  0  0  0
 16 18  1  1  0  0  0
 17 20  1  6  0  0  0
 17 19  1  0  0  0  0
 17 15  1  0  0  0  0
 19 18  1  1  0  0  0
 21 23  1  0  0  0  0
 22 21  2  0  0  0  0
 25 26  1  6  0  0  0
 25 24  1  0  0  0  0
 27 25  1  0  0  0  0
 27 28  1  0  0  0  0
 29 28  1  1  0  0  0
 29 30  1  0  0  0  0
 30 31  1  0  0  0  0
 31 32  1  1  0  0  0
 31 33  1  0  0  0  0
 33 35  1  0  0  0  0
 35 34  1  0  0  0  0
 36 38  1  1  0  0  0
 36 39  1  0  0  0  0
 36 29  1  0  0  0  0
 37 38  1  0  0  0  0
 40 44  1  0  0  0  0
 40 39  1  1  0  0  0
 41 42  1  0  0  0  0
 41 43  2  0  0  0  0
 42 40  1  0  0  0  0
 43 44  1  0  0  0  0
M  END
>  <MODEL>
9

>  <REMARK>
 VINA RESULT:      -5.4      1.855      2.277
  Name = 
  18 active torsions:
  status: ('A' for Active; 'I' for Inactive)
    1  A    between atoms: C_2  and  C_27
    2  A    between atoms: C_3  and  N_16
    3  A    between atoms: C_4  and  O_7
    4  A    between atoms: C_4  and  C_27
    5  A    between atoms: C_4  and  C_28
    6  A    between atoms: C_5  and  C_26
    7  A    between atoms: C_5  and  C_35
    8  A    between atoms: O_7  and  C_25
    9  A    between atoms: C_12  and  C_42
   10  A    between atoms: C_14  and  C_25
   11  A    between atoms: C_14  and  C_38
   12  A    between atoms: N_16  and  C_19
   13  A    between atoms: C_19  and  C_32
   14  A    between atoms: C_19  and  O_44
   15  A    between atoms: C_21  and  C_27
   16  A    between atoms: C_23  and  C_26
   17  A    between atoms: C_32  and  C_35
   18  A    between atoms: C_32  and  C_38
                            x       y       z     vdW  Elec       q    Type
                         _______ _______ _______ _____ _____    ______ ____

>  <TORSDO>
F 18

$$$$
