=
 OpenBabel11062419403D

 42 46  0  0  1  0  0  0  0  0999 V2000
  194.1380  175.5640  146.5030 O   0  0  0  0  0  0  0  0  0  0  0  0
  193.2820  174.4990  146.1540 C   0  0  0  0  0  2  0  0  0  0  0  0
  191.8220  176.4760  145.5280 C   0  0  1  0  0  3  0  0  0  0  0  0
  191.8370  174.9850  145.9280 C   0  0  1  0  0  3  0  0  0  0  0  0
  193.0190  176.8080  144.6500 C   0  0  0  0  0  2  0  0  0  0  0  0
  194.3190  176.4180  145.3800 C   0  0  2  0  0  3  0  0  0  0  0  0
  196.3010  175.1000  145.0970 F   0  0  0  0  0  0  0  0  0  0  0  0
  195.4120  175.9240  144.4290 C   0  0  0  0  0  0  0  0  0  0  0  0
  194.8360  175.2190  143.3890 F   0  0  0  0  0  0  0  0  0  0  0  0
  196.0970  177.0060  143.9090 F   0  0  0  0  0  0  0  0  0  0  0  0
  191.0880  174.0640  144.9520 C   0  0  2  0  0  3  0  0  0  0  0  0
  189.8850  173.6470  145.5240 O   0  0  0  0  0  1  0  0  0  0  0  0
  191.9210  172.8540  144.5420 C   0  0  0  0  0  2  0  0  0  0  0  0
  191.5180  172.3820  143.2290 N   0  0  0  0  0  2  0  0  0  0  0  0
  192.5170  172.8350  142.2690 C   0  0  0  0  0  2  0  0  0  0  0  0
  190.8920  173.4140  140.4580 C   0  0  2  0  0  3  0  0  0  0  0  0
  191.9660  173.9530  141.3920 C   0  0  2  0  0  3  0  0  0  0  0  0
  193.0440  174.4290  140.4710 C   0  0  0  0  0  2  0  0  0  0  0  0
  193.1570  174.6030  138.0100 C   0  0  0  0  0  1  0  0  0  0  0  0
  191.3190  173.5600  139.1230 O   0  0  0  0  0  0  0  0  0  0  0  0
  192.7080  173.7440  139.1740 C   0  0  2  0  0  3  0  0  0  0  0  0
  189.5780  174.1670  140.6710 C   0  0  2  0  0  3  0  0  0  0  0  0
  189.6300  174.9090  141.8530 O   0  0  0  0  0  1  0  0  0  0  0  0
  188.4180  173.2260  140.7190 C   0  0  0  0  0  0  0  0  0  0  0  0
  187.8280  172.9890  141.8080 O   0  0  0  0  0  1  0  0  0  0  0  0
  188.0090  172.5830  139.5580 O   0  0  0  0  0  0  0  0  0  0  0  0
  190.5200  176.9570  144.9030 C   0  0  0  0  0  2  0  0  0  0  0  0
  188.2520  177.2300  146.0090 C   0  0  0  0  0  0  0  0  0  0  0  0
  187.5590  177.8450  146.8640 O   0  0  0  0  0  0  0  0  0  0  0  0
  189.6530  177.5070  145.9330 N   0  0  0  0  0  2  0  0  0  0  0  0
  185.7450  179.7660  144.0610 S   0  0  0  0  0  0  0  0  0  0  0  0
  185.7550  178.5600  141.2710 O   0  0  0  0  0  1  0  0  0  0  0  0
  187.5750  176.3200  145.0130 C   0  0  2  0  0  3  0  0  0  0  0  0
  184.4960  178.1460  145.8740 O   0  0  0  0  0  1  0  0  0  0  0  0
  184.7360  178.3280  143.4830 C   0  0  1  0  0  0  0  0  0  0  0  0
  187.2850  176.9240  143.6160 C   0  0  2  0  0  0  0  0  0  0  0  0
  183.2480  178.6510  143.4670 C   0  0  0  0  0  1  0  0  0  0  0  0
  185.3070  177.6220  142.2010 C   0  0  2  0  0  3  0  0  0  0  0  0
  187.9060  178.1660  143.4470 O   0  0  0  0  0  1  0  0  0  0  0  0
  186.1930  176.7980  144.6990 C   0  0  2  0  0  3  0  0  0  0  0  0
  186.3970  176.5350  142.4430 C   0  0  0  0  0  2  0  0  0  0  0  0
  185.3960  178.1040  144.8080 C   0  0  1  0  0  0  0  0  0  0  0  0
  2  1  1  0  0  0  0
  3 27  1  6  0  0  0
  3  4  1  0  0  0  0
  4 11  1  6  0  0  0
  4  2  1  0  0  0  0
  5  6  1  0  0  0  0
  5  3  1  0  0  0  0
  6  8  1  6  0  0  0
  6  1  1  0  0  0  0
  8  7  1  0  0  0  0
  9  8  1  0  0  0  0
 10  8  1  0  0  0  0
 11 12  1  1  0  0  0
 13 11  1  0  0  0  0
 14 13  1  0  0  0  0
 15 14  1  0  0  0  0
 16 22  1  6  0  0  0
 16 17  1  0  0  0  0
 17 15  1  1  0  0  0
 18 17  1  0  0  0  0
 20 21  1  0  0  0  0
 20 16  1  0  0  0  0
 21 19  1  6  0  0  0
 21 18  1  0  0  0  0
 22 24  1  0  0  0  0
 22 23  1  1  0  0  0
 24 25  1  0  0  0  0
 26 24  2  0  0  0  0
 27 30  1  0  0  0  0
 28 29  2  0  0  0  0
 30 28  1  0  0  0  0
 31 42  1  0  0  0  0
 33 28  1  1  0  0  0
 35 37  1  1  0  0  0
 35 31  1  0  0  0  0
 35 42  1  0  0  0  0
 36 39  1  6  0  0  0
 36 40  1  0  0  0  0
 36 33  1  0  0  0  0
 38 32  1  6  0  0  0
 38 41  1  0  0  0  0
 38 35  1  0  0  0  0
 40 42  1  0  0  0  0
 40 33  1  0  0  0  0
 41 36  1  0  0  0  0
 42 34  1  0  0  0  0
M  END
>  <MODEL>
1

>  <REMARK>
 VINA RESULT:      -7.3      0.000      0.000
  Name = 
  11 active torsions:
  status: ('A' for Active; 'I' for Inactive)
    1  A    between atoms: C_1  and  C_14
    2  A    between atoms: C_5  and  C_10
    3  A    between atoms: C_9  and  C_20
    4  A    between atoms: C_9  and  N_33
    5  A    between atoms: C_10  and  C_16
    6  A    between atoms: C_11  and  C_12
    7  A    between atoms: C_12  and  N_31
    8  A    between atoms: C_13  and  C_22
    9  A    between atoms: C_17  and  C_42
   10  A    between atoms: C_22  and  C_23
   11  A    between atoms: C_23  and  N_33
                            x       y       z     vdW  Elec       q    Type
                         _______ _______ _______ _____ _____    ______ ____

>  <TORSDO>
F 11

$$$$
=
 OpenBabel11062419403D

 42 46  0  0  1  0  0  0  0  0999 V2000
  193.8650  175.5260  146.5300 O   0  0  0  0  0  0  0  0  0  0  0  0
  192.9480  174.5340  146.1270 C   0  0  0  0  0  2  0  0  0  0  0  0
  191.6160  176.6260  145.5930 C   0  0  1  0  0  3  0  0  0  0  0  0
  191.5370  175.1190  145.9200 C   0  0  1  0  0  3  0  0  0  0  0  0
  192.8370  176.9260  144.7370 C   0  0  0  0  0  2  0  0  0  0  0  0
  194.1060  176.4210  145.4520 C   0  0  2  0  0  3  0  0  0  0  0  0
  195.8670  176.9660  143.9210 F   0  0  0  0  0  0  0  0  0  0  0  0
  195.1720  175.9080  144.4810 C   0  0  0  0  0  0  0  0  0  0  0  0
  196.0600  175.0920  145.1570 F   0  0  0  0  0  0  0  0  0  0  0  0
  194.5700  175.1760  143.4760 F   0  0  0  0  0  0  0  0  0  0  0  0
  190.7390  174.2950  144.8970 C   0  0  2  0  0  3  0  0  0  0  0  0
  189.8630  173.4360  145.5620 O   0  0  0  0  0  1  0  0  0  0  0  0
  191.6440  173.5000  143.9610 C   0  0  0  0  0  2  0  0  0  0  0  0
  191.7130  174.1400  142.6580 N   0  0  0  0  0  2  0  0  0  0  0  0
  190.3560  174.5030  142.2710 C   0  0  0  0  0  2  0  0  0  0  0  0
  190.6300  172.5980  140.6740 C   0  0  2  0  0  3  0  0  0  0  0  0
  189.6550  173.3420  141.5760 C   0  0  2  0  0  3  0  0  0  0  0  0
  188.6280  173.8830  140.6330 C   0  0  0  0  0  2  0  0  0  0  0  0
  188.2840  173.5710  138.2070 C   0  0  0  0  0  1  0  0  0  0  0  0
  190.2050  172.7100  139.3350 O   0  0  0  0  0  0  0  0  0  0  0  0
  189.3130  173.7910  139.2960 C   0  0  2  0  0  3  0  0  0  0  0  0
  190.7060  171.1250  141.0770 C   0  0  2  0  0  3  0  0  0  0  0  0
  190.1040  170.9300  142.3220 O   0  0  0  0  0  1  0  0  0  0  0  0
  192.1210  170.6490  141.1220 C   0  0  0  0  0  0  0  0  0  0  0  0
  192.4380  169.6390  141.8090 O   0  0  0  0  0  1  0  0  0  0  0  0
  193.1010  171.3460  140.4270 O   0  0  0  0  0  0  0  0  0  0  0  0
  190.3510  177.2160  144.9880 C   0  0  0  0  0  2  0  0  0  0  0  0
  188.0970  177.3240  146.1530 C   0  0  0  0  0  0  0  0  0  0  0  0
  187.3880  177.8810  147.0330 O   0  0  0  0  0  0  0  0  0  0  0  0
  189.4750  177.6940  146.0470 N   0  0  0  0  0  2  0  0  0  0  0  0
  185.6530  179.7960  144.0490 S   0  0  0  0  0  0  0  0  0  0  0  0
  185.7620  178.5120  141.2960 O   0  0  0  0  0  1  0  0  0  0  0  0
  187.4580  176.3850  145.1600 C   0  0  2  0  0  3  0  0  0  0  0  0
  184.3470  178.2230  145.8630 O   0  0  0  0  0  1  0  0  0  0  0  0
  184.6680  178.3390  143.4780 C   0  0  1  0  0  0  0  0  0  0  0  0
  187.2140  176.9470  143.7380 C   0  0  2  0  0  0  0  0  0  0  0  0
  183.1810  178.6560  143.4020 C   0  0  0  0  0  1  0  0  0  0  0  0
  185.2840  177.5990  142.2370 C   0  0  2  0  0  3  0  0  0  0  0  0
  187.8370  178.1860  143.5550 O   0  0  0  0  0  1  0  0  0  0  0  0
  186.0860  176.8490  144.7850 C   0  0  2  0  0  3  0  0  0  0  0  0
  186.3680  176.5230  142.5470 C   0  0  0  0  0  2  0  0  0  0  0  0
  185.2820  178.1550  144.8300 C   0  0  1  0  0  0  0  0  0  0  0  0
  2  1  1  0  0  0  0
  3 27  1  6  0  0  0
  3  4  1  0  0  0  0
  4 11  1  6  0  0  0
  4  2  1  0  0  0  0
  5  6  1  0  0  0  0
  5  3  1  0  0  0  0
  6  8  1  6  0  0  0
  6  1  1  0  0  0  0
  7  8  1  0  0  0  0
  8  9  1  0  0  0  0
 10  8  1  0  0  0  0
 11 12  1  1  0  0  0
 13 11  1  0  0  0  0
 14 13  1  0  0  0  0
 15 14  1  0  0  0  0
 16 22  1  1  0  0  0
 16 17  1  0  0  0  0
 17 15  1  6  0  0  0
 18 17  1  0  0  0  0
 20 16  1  0  0  0  0
 21 19  1  6  0  0  0
 21 20  1  0  0  0  0
 21 18  1  0  0  0  0
 22 24  1  0  0  0  0
 22 23  1  1  0  0  0
 24 25  1  0  0  0  0
 26 24  2  0  0  0  0
 27 30  1  0  0  0  0
 28 29  2  0  0  0  0
 30 28  1  0  0  0  0
 31 42  1  0  0  0  0
 33 28  1  1  0  0  0
 35 37  1  6  0  0  0
 35 31  1  0  0  0  0
 35 42  1  0  0  0  0
 36 39  1  6  0  0  0
 36 40  1  0  0  0  0
 36 33  1  0  0  0  0
 38 32  1  6  0  0  0
 38 41  1  0  0  0  0
 38 35  1  0  0  0  0
 40 42  1  0  0  0  0
 40 33  1  0  0  0  0
 41 36  1  0  0  0  0
 42 34  1  0  0  0  0
M  END
>  <MODEL>
2

>  <REMARK>
 VINA RESULT:      -7.0      1.363      2.190
  Name = 
  11 active torsions:
  status: ('A' for Active; 'I' for Inactive)
    1  A    between atoms: C_1  and  C_14
    2  A    between atoms: C_5  and  C_10
    3  A    between atoms: C_9  and  C_20
    4  A    between atoms: C_9  and  N_33
    5  A    between atoms: C_10  and  C_16
    6  A    between atoms: C_11  and  C_12
    7  A    between atoms: C_12  and  N_31
    8  A    between atoms: C_13  and  C_22
    9  A    between atoms: C_17  and  C_42
   10  A    between atoms: C_22  and  C_23
   11  A    between atoms: C_23  and  N_33
                            x       y       z     vdW  Elec       q    Type
                         _______ _______ _______ _____ _____    ______ ____

>  <TORSDO>
F 11

$$$$
=
 OpenBabel11062419403D

 42 46  0  0  1  0  0  0  0  0999 V2000
  189.9840  173.4390  144.4830 O   0  0  0  0  0  0  0  0  0  0  0  0
  189.5240  174.4520  145.3500 C   0  0  0  0  0  2  0  0  0  0  0  0
  191.8240  175.3560  144.7820 C   0  0  1  0  0  3  0  0  0  0  0  0
  190.6740  175.3680  145.8100 C   0  0  1  0  0  3  0  0  0  0  0  0
  191.2780  175.2590  143.3660 C   0  0  0  0  0  2  0  0  0  0  0  0
  190.3770  174.0130  143.2430 C   0  0  2  0  0  3  0  0  0  0  0  0
  189.3030  175.4460  141.6500 F   0  0  0  0  0  0  0  0  0  0  0  0
  189.2010  174.2210  142.2860 C   0  0  0  0  0  0  0  0  0  0  0  0
  189.1950  173.2180  141.3350 F   0  0  0  0  0  0  0  0  0  0  0  0
  188.0140  174.1720  142.9920 F   0  0  0  0  0  0  0  0  0  0  0  0
  190.1580  176.7740  146.1580 C   0  0  2  0  0  3  0  0  0  0  0  0
  190.3230  177.0140  147.5230 O   0  0  0  0  0  1  0  0  0  0  0  0
  188.6970  176.9680  145.7650 C   0  0  0  0  0  2  0  0  0  0  0  0
  188.5880  177.9230  144.6750 N   0  0  0  0  0  2  0  0  0  0  0  0
  187.6410  177.3830  143.7070 C   0  0  0  0  0  2  0  0  0  0  0  0
  185.1590  177.6770  143.8030 C   0  0  2  0  0  3  0  0  0  0  0  0
  186.4860  178.3490  143.4740 C   0  0  2  0  0  3  0  0  0  0  0  0
  186.3880  178.6510  142.0130 C   0  0  0  0  0  2  0  0  0  0  0  0
  184.5350  178.4160  140.3960 C   0  0  0  0  0  1  0  0  0  0  0  0
  184.3760  177.5960  142.6330 O   0  0  0  0  0  0  0  0  0  0  0  0
  185.2590  177.7670  141.5570 C   0  0  2  0  0  3  0  0  0  0  0  0
  184.4150  178.4720  144.8750 C   0  0  2  0  0  3  0  0  0  0  0  0
  184.5450  179.8430  144.6420 O   0  0  0  0  0  1  0  0  0  0  0  0
  184.9230  178.1440  146.2420 C   0  0  0  0  0  0  0  0  0  0  0  0
  185.2660  179.0610  147.0370 O   0  0  0  0  0  1  0  0  0  0  0  0
  185.0490  176.8150  146.6240 O   0  0  0  0  0  0  0  0  0  0  0  0
  192.8190  176.4990  144.9200 C   0  0  0  0  0  2  0  0  0  0  0  0
  195.1200  175.8880  144.0370 C   0  0  0  0  0  0  0  0  0  0  0  0
  195.9450  175.9730  143.0890 O   0  0  0  0  0  0  0  0  0  0  0  0
  193.8060  176.4250  143.8540 N   0  0  0  0  0  2  0  0  0  0  0  0
  195.5190  171.9180  143.2750 S   0  0  0  0  0  0  0  0  0  0  0  0
  197.8370  171.2060  145.1100 O   0  0  0  0  0  1  0  0  0  0  0  0
  195.5660  175.3420  145.3720 C   0  0  2  0  0  3  0  0  0  0  0  0
  193.2610  172.5570  144.6770 O   0  0  0  0  0  1  0  0  0  0  0  0
  195.4150  171.5570  145.0860 C   0  0  1  0  0  0  0  0  0  0  0  0
  196.6120  174.2010  145.3330 C   0  0  2  0  0  0  0  0  0  0  0  0
  194.6460  170.2730  145.3650 C   0  0  0  0  0  1  0  0  0  0  0  0
  196.7770  171.7300  145.8510 C   0  0  2  0  0  3  0  0  0  0  0  0
  197.1330  174.0160  144.0480 O   0  0  0  0  0  1  0  0  0  0  0  0
  195.1100  173.9290  145.5560 C   0  0  2  0  0  3  0  0  0  0  0  0
  197.1140  173.1720  146.3350 C   0  0  0  0  0  2  0  0  0  0  0  0
  194.6400  172.7680  144.6700 C   0  0  1  0  0  0  0  0  0  0  0  0
  1  2  1  0  0  0  0
  2  4  1  0  0  0  0
  3 27  1  6  0  0  0
  3  4  1  0  0  0  0
  4 11  1  6  0  0  0
  5  3  1  0  0  0  0
  6  8  1  1  0  0  0
  6  5  1  0  0  0  0
  6  1  1  0  0  0  0
  7  8  1  0  0  0  0
  8 10  1  0  0  0  0
  9  8  1  0  0  0  0
 11 12  1  1  0  0  0
 13 11  1  0  0  0  0
 14 13  1  0  0  0  0
 15 14  1  0  0  0  0
 16 22  1  1  0  0  0
 17 15  1  6  0  0  0
 17 16  1  0  0  0  0
 18 17  1  0  0  0  0
 20 16  1  0  0  0  0
 21 19  1  6  0  0  0
 21 18  1  0  0  0  0
 21 20  1  0  0  0  0
 22 23  1  6  0  0  0
 22 24  1  0  0  0  0
 24 26  2  0  0  0  0
 24 25  1  0  0  0  0
 29 28  2  0  0  0  0
 30 28  1  0  0  0  0
 30 27  1  0  0  0  0
 31 42  1  0  0  0  0
 31 35  1  0  0  0  0
 33 28  1  6  0  0  0
 33 40  1  0  0  0  0
 35 37  1  1  0  0  0
 35 38  1  0  0  0  0
 36 39  1  6  0  0  0
 36 33  1  0  0  0  0
 36 40  1  0  0  0  0
 36 41  1  0  0  0  0
 38 32  1  6  0  0  0
 38 41  1  0  0  0  0
 42 34  1  0  0  0  0
 42 35  1  0  0  0  0
 42 40  1  0  0  0  0
M  END
>  <MODEL>
3

>  <REMARK>
 VINA RESULT:      -7.0      3.718      8.466
  Name = 
  11 active torsions:
  status: ('A' for Active; 'I' for Inactive)
    1  A    between atoms: C_1  and  C_14
    2  A    between atoms: C_5  and  C_10
    3  A    between atoms: C_9  and  C_20
    4  A    between atoms: C_9  and  N_33
    5  A    between atoms: C_10  and  C_16
    6  A    between atoms: C_11  and  C_12
    7  A    between atoms: C_12  and  N_31
    8  A    between atoms: C_13  and  C_22
    9  A    between atoms: C_17  and  C_42
   10  A    between atoms: C_22  and  C_23
   11  A    between atoms: C_23  and  N_33
                            x       y       z     vdW  Elec       q    Type
                         _______ _______ _______ _____ _____    ______ ____

>  <TORSDO>
F 11

$$$$
=
 OpenBabel11062419403D

 42 46  0  0  1  0  0  0  0  0999 V2000
  189.5210  177.4840  146.5540 O   0  0  0  0  0  0  0  0  0  0  0  0
  189.1580  177.6170  145.1980 C   0  0  0  0  0  2  0  0  0  0  0  0
  191.6070  177.0050  144.9510 C   0  0  1  0  0  3  0  0  0  0  0  0
  190.3970  177.6940  144.2850 C   0  0  1  0  0  3  0  0  0  0  0  0
  191.1610  175.7850  145.7430 C   0  0  0  0  0  2  0  0  0  0  0  0
  190.0910  176.2000  146.7730 C   0  0  2  0  0  3  0  0  0  0  0  0
  189.3400  174.3800  148.1400 F   0  0  0  0  0  0  0  0  0  0  0  0
  189.0370  175.1150  147.0060 C   0  0  0  0  0  0  0  0  0  0  0  0
  187.7960  175.7020  147.1670 F   0  0  0  0  0  0  0  0  0  0  0  0
  188.9920  174.2700  145.9150 F   0  0  0  0  0  0  0  0  0  0  0  0
  190.0790  177.1780  142.8730 C   0  0  2  0  0  3  0  0  0  0  0  0
  189.5400  178.2090  142.1020 O   0  0  0  0  0  1  0  0  0  0  0  0
  189.1280  175.9860  142.8920 C   0  0  0  0  0  2  0  0  0  0  0  0
  187.9690  176.2470  142.0550 N   0  0  0  0  0  2  0  0  0  0  0  0
  186.7990  176.2930  142.9220 C   0  0  0  0  0  2  0  0  0  0  0  0
  184.8430  177.6660  143.6620 C   0  0  2  0  0  3  0  0  0  0  0  0
  186.1760  177.6840  142.9270 C   0  0  2  0  0  3  0  0  0  0  0  0
  185.8130  178.0630  141.5260 C   0  0  0  0  0  2  0  0  0  0  0  0
  183.6750  178.7560  140.5020 C   0  0  0  0  0  1  0  0  0  0  0  0
  183.8100  177.9960  142.7620 O   0  0  0  0  0  0  0  0  0  0  0  0
  184.3330  177.8010  141.4760 C   0  0  2  0  0  3  0  0  0  0  0  0
  184.8630  178.6620  144.8220 C   0  0  2  0  0  3  0  0  0  0  0  0
  185.9500  179.5300  144.6970 O   0  0  0  0  0  1  0  0  0  0  0  0
  184.9310  177.9570  146.1380 C   0  0  0  0  0  0  0  0  0  0  0  0
  184.9870  176.6990  146.1910 O   0  0  0  0  0  0  0  0  0  0  0  0
  184.8980  178.6970  147.3130 O   0  0  0  0  0  1  0  0  0  0  0  0
  192.7520  176.6700  144.0070 C   0  0  0  0  0  2  0  0  0  0  0  0
  194.7550  175.2830  144.7210 C   0  0  0  0  0  0  0  0  0  0  0  0
  195.7360  175.1670  145.5030 O   0  0  0  0  0  0  0  0  0  0  0  0
  193.9780  176.4840  144.7670 N   0  0  0  0  0  2  0  0  0  0  0  0
  197.2490  175.6500  141.5360 S   0  0  0  0  0  0  0  0  0  0  0  0
  197.6750  172.7320  140.7950 O   0  0  0  0  0  1  0  0  0  0  0  0
  194.3490  174.1170  143.8520 C   0  0  2  0  0  3  0  0  0  0  0  0
  194.6890  176.4700  141.0410 O   0  0  0  0  0  1  0  0  0  0  0  0
  196.1140  174.5970  140.5230 C   0  0  1  0  0  0  0  0  0  0  0  0
  195.4900  173.3900  143.0990 C   0  0  2  0  0  0  0  0  0  0  0  0
  196.0360  175.0750  139.0790 C   0  0  0  0  0  1  0  0  0  0  0  0
  196.3190  173.0540  140.7320 C   0  0  2  0  0  3  0  0  0  0  0  0
  196.7510  173.8140  143.5320 O   0  0  0  0  0  1  0  0  0  0  0  0
  194.5760  174.4200  142.4050 C   0  0  2  0  0  3  0  0  0  0  0  0
  195.5550  172.4170  141.9320 C   0  0  0  0  0  2  0  0  0  0  0  0
  195.4110  175.4010  141.5720 C   0  0  1  0  0  0  0  0  0  0  0  0
  1  6  1  0  0  0  0
  2  1  1  0  0  0  0
  3 27  1  6  0  0  0
  3  5  1  0  0  0  0
  4 11  1  6  0  0  0
  4  3  1  0  0  0  0
  4  2  1  0  0  0  0
  5  6  1  0  0  0  0
  6  8  1  6  0  0  0
  8  9  1  0  0  0  0
  8  7  1  0  0  0  0
 10  8  1  0  0  0  0
 11 12  1  6  0  0  0
 11 13  1  0  0  0  0
 14 13  1  0  0  0  0
 14 15  1  0  0  0  0
 16 22  1  1  0  0  0
 17 15  1  6  0  0  0
 17 16  1  0  0  0  0
 18 17  1  0  0  0  0
 20 16  1  0  0  0  0
 21 19  1  6  0  0  0
 21 18  1  0  0  0  0
 21 20  1  0  0  0  0
 22 23  1  6  0  0  0
 22 24  1  0  0  0  0
 24 25  2  0  0  0  0
 24 26  1  0  0  0  0
 27 30  1  0  0  0  0
 28 30  1  0  0  0  0
 28 29  2  0  0  0  0
 31 42  1  0  0  0  0
 33 28  1  1  0  0  0
 34 42  1  0  0  0  0
 35 37  1  6  0  0  0
 35 38  1  0  0  0  0
 35 31  1  0  0  0  0
 35 42  1  0  0  0  0
 36 39  1  1  0  0  0
 36 33  1  0  0  0  0
 38 32  1  1  0  0  0
 38 41  1  0  0  0  0
 40 36  1  0  0  0  0
 40 33  1  0  0  0  0
 41 36  1  0  0  0  0
 42 40  1  0  0  0  0
M  END
>  <MODEL>
4

>  <REMARK>
 VINA RESULT:      -7.0      3.843      8.296
  Name = 
  11 active torsions:
  status: ('A' for Active; 'I' for Inactive)
    1  A    between atoms: C_1  and  C_14
    2  A    between atoms: C_5  and  C_10
    3  A    between atoms: C_9  and  C_20
    4  A    between atoms: C_9  and  N_33
    5  A    between atoms: C_10  and  C_16
    6  A    between atoms: C_11  and  C_12
    7  A    between atoms: C_12  and  N_31
    8  A    between atoms: C_13  and  C_22
    9  A    between atoms: C_17  and  C_42
   10  A    between atoms: C_22  and  C_23
   11  A    between atoms: C_23  and  N_33
                            x       y       z     vdW  Elec       q    Type
                         _______ _______ _______ _____ _____    ______ ____

>  <TORSDO>
F 11

$$$$
=
 OpenBabel11062419403D

 42 46  0  0  1  0  0  0  0  0999 V2000
  189.9330  177.0960  146.5000 O   0  0  0  0  0  0  0  0  0  0  0  0
  189.3660  177.4380  145.2540 C   0  0  0  0  0  2  0  0  0  0  0  0
  191.6290  176.5750  144.5000 C   0  0  1  0  0  3  0  0  0  0  0  0
  190.4310  177.4800  144.1410 C   0  0  1  0  0  3  0  0  0  0  0  0
  191.1600  175.3280  145.2330 C   0  0  0  0  0  2  0  0  0  0  0  0
  190.3480  175.7360  146.4790 C   0  0  2  0  0  3  0  0  0  0  0  0
  189.2450  174.3870  148.1240 F   0  0  0  0  0  0  0  0  0  0  0  0
  189.2090  174.7630  146.7920 C   0  0  0  0  0  0  0  0  0  0  0  0
  187.9960  175.3690  146.5270 F   0  0  0  0  0  0  0  0  0  0  0  0
  189.3280  173.6380  145.9990 F   0  0  0  0  0  0  0  0  0  0  0  0
  189.8100  177.1850  142.7670 C   0  0  2  0  0  3  0  0  0  0  0  0
  189.5180  178.3820  142.1120 O   0  0  0  0  0  1  0  0  0  0  0  0
  188.5540  176.3240  142.8720 C   0  0  0  0  0  2  0  0  0  0  0  0
  187.5150  176.8340  141.9940 N   0  0  0  0  0  2  0  0  0  0  0  0
  186.2590  176.8070  142.7340 C   0  0  0  0  0  2  0  0  0  0  0  0
  184.3860  178.1990  143.6330 C   0  0  2  0  0  3  0  0  0  0  0  0
  185.5420  178.1490  142.6440 C   0  0  2  0  0  3  0  0  0  0  0  0
  184.8830  178.2640  141.3070 C   0  0  0  0  0  2  0  0  0  0  0  0
  182.5370  178.6740  140.6500 C   0  0  0  0  0  1  0  0  0  0  0  0
  183.1730  178.3230  142.9250 O   0  0  0  0  0  0  0  0  0  0  0  0
  183.4460  177.9310  141.6070 C   0  0  2  0  0  3  0  0  0  0  0  0
  184.5560  179.3810  144.5880 C   0  0  2  0  0  3  0  0  0  0  0  0
  185.6080  180.1970  144.1680 O   0  0  0  0  0  1  0  0  0  0  0  0
  184.8090  178.9140  145.9850 C   0  0  0  0  0  0  0  0  0  0  0  0
  185.7320  179.4260  146.6760 O   0  0  0  0  0  1  0  0  0  0  0  0
  184.0400  177.8840  146.5130 O   0  0  0  0  0  0  0  0  0  0  0  0
  192.5400  176.2270  143.3320 C   0  0  0  0  0  2  0  0  0  0  0  0
  193.1920  173.9170  142.5060 C   0  0  0  0  0  0  0  0  0  0  0  0
  193.6020  172.7630  142.8060 O   0  0  0  0  0  0  0  0  0  0  0  0
  193.1190  174.9080  143.5350 N   0  0  0  0  0  2  0  0  0  0  0  0
  190.5480  170.8850  141.9380 S   0  0  0  0  0  0  0  0  0  0  0  0
  188.4640  172.2530  140.1970 O   0  0  0  0  0  1  0  0  0  0  0  0
  192.6760  174.1890  141.1140 C   0  0  2  0  0  3  0  0  0  0  0  0
  192.9210  170.5480  140.6250 O   0  0  0  0  0  1  0  0  0  0  0  0
  190.6430  171.1420  140.1090 C   0  0  1  0  0  0  0  0  0  0  0  0
  191.1740  173.9030  140.8680 C   0  0  2  0  0  0  0  0  0  0  0  0
  190.5850  169.8240  139.3490 C   0  0  0  0  0  1  0  0  0  0  0  0
  189.7140  172.2910  139.5770 C   0  0  2  0  0  3  0  0  0  0  0  0
  190.4940  173.6400  142.0620 O   0  0  0  0  0  1  0  0  0  0  0  0
  192.2790  172.9200  140.4290 C   0  0  2  0  0  3  0  0  0  0  0  0
  190.3030  173.7320  139.6330 C   0  0  0  0  0  2  0  0  0  0  0  0
  191.9080  171.4860  140.8300 C   0  0  1  0  0  0  0  0  0  0  0  0
  2  1  1  0  0  0  0
  3 27  1  6  0  0  0
  3  5  1  0  0  0  0
  4 11  1  6  0  0  0
  4  3  1  0  0  0  0
  4  2  1  0  0  0  0
  5  6  1  0  0  0  0
  6  1  1  0  0  0  0
  6  8  1  6  0  0  0
  8  7  1  0  0  0  0
  9  8  1  0  0  0  0
 10  8  1  0  0  0  0
 11 12  1  1  0  0  0
 11 13  1  0  0  0  0
 14 15  1  0  0  0  0
 14 13  1  0  0  0  0
 16 22  1  1  0  0  0
 17 15  1  6  0  0  0
 17 16  1  0  0  0  0
 18 21  1  0  0  0  0
 18 17  1  0  0  0  0
 20 16  1  0  0  0  0
 21 19  1  6  0  0  0
 21 20  1  0  0  0  0
 22 23  1  6  0  0  0
 22 24  1  0  0  0  0
 24 26  2  0  0  0  0
 24 25  1  0  0  0  0
 27 30  1  0  0  0  0
 28 29  2  0  0  0  0
 28 30  1  0  0  0  0
 33 28  1  1  0  0  0
 34 42  1  0  0  0  0
 35 37  1  6  0  0  0
 35 42  1  0  0  0  0
 35 31  1  0  0  0  0
 36 33  1  0  0  0  0
 36 39  1  1  0  0  0
 38 41  1  0  0  0  0
 38 35  1  0  0  0  0
 38 32  1  1  0  0  0
 40 42  1  0  0  0  0
 40 36  1  0  0  0  0
 40 33  1  0  0  0  0
 41 36  1  0  0  0  0
 42 31  1  0  0  0  0
M  END
>  <MODEL>
5

>  <REMARK>
 VINA RESULT:      -7.0      3.214      7.672
  Name = 
  11 active torsions:
  status: ('A' for Active; 'I' for Inactive)
    1  A    between atoms: C_1  and  C_14
    2  A    between atoms: C_5  and  C_10
    3  A    between atoms: C_9  and  C_20
    4  A    between atoms: C_9  and  N_33
    5  A    between atoms: C_10  and  C_16
    6  A    between atoms: C_11  and  C_12
    7  A    between atoms: C_12  and  N_31
    8  A    between atoms: C_13  and  C_22
    9  A    between atoms: C_17  and  C_42
   10  A    between atoms: C_22  and  C_23
   11  A    between atoms: C_23  and  N_33
                            x       y       z     vdW  Elec       q    Type
                         _______ _______ _______ _____ _____    ______ ____

>  <TORSDO>
F 11

$$$$
=
 OpenBabel11062419403D

 42 46  0  0  1  0  0  0  0  0999 V2000
  191.5120  175.3350  146.5880 O   0  0  0  0  0  0  0  0  0  0  0  0
  191.5430  176.3530  145.6120 C   0  0  0  0  0  2  0  0  0  0  0  0
  191.2680  174.3140  144.1290 C   0  0  1  0  0  3  0  0  0  0  0  0
  191.7570  175.7760  144.2000 C   0  0  1  0  0  3  0  0  0  0  0  0
  190.0280  174.1210  144.9890 C   0  0  0  0  0  2  0  0  0  0  0  0
  190.3280  174.5620  146.4350 C   0  0  2  0  0  3  0  0  0  0  0  0
  188.1580  175.5510  146.2000 F   0  0  0  0  0  0  0  0  0  0  0  0
  189.1170  175.1880  147.1300 C   0  0  0  0  0  0  0  0  0  0  0  0
  188.5670  174.2770  148.0130 F   0  0  0  0  0  0  0  0  0  0  0  0
  189.5140  176.3080  147.8350 F   0  0  0  0  0  0  0  0  0  0  0  0
  191.1500  176.6950  143.1280 C   0  0  2  0  0  3  0  0  0  0  0  0
  192.1670  177.3760  142.4570 O   0  0  0  0  0  1  0  0  0  0  0  0
  190.1510  177.6870  143.7130 C   0  0  0  0  0  2  0  0  0  0  0  0
  188.9100  177.6650  142.9570 N   0  0  0  0  0  2  0  0  0  0  0  0
  187.8240  177.4150  143.8960 C   0  0  0  0  0  2  0  0  0  0  0  0
  185.3330  177.6450  143.9350 C   0  0  2  0  0  3  0  0  0  0  0  0
  186.6490  178.3500  143.6340 C   0  0  2  0  0  3  0  0  0  0  0  0
  186.5760  178.6460  142.1700 C   0  0  0  0  0  2  0  0  0  0  0  0
  184.7660  178.3590  140.5130 C   0  0  0  0  0  1  0  0  0  0  0  0
  184.5790  177.5400  142.7490 O   0  0  0  0  0  0  0  0  0  0  0  0
  185.4810  177.7320  141.6920 C   0  0  2  0  0  3  0  0  0  0  0  0
  184.5450  178.4230  144.9880 C   0  0  2  0  0  3  0  0  0  0  0  0
  184.6510  179.7970  144.7590 O   0  0  0  0  0  1  0  0  0  0  0  0
  185.0250  178.1050  146.3670 C   0  0  0  0  0  0  0  0  0  0  0  0
  185.1890  179.0220  147.2170 O   0  0  0  0  0  1  0  0  0  0  0  0
  185.3260  176.7910  146.7020 O   0  0  0  0  0  0  0  0  0  0  0  0
  191.0610  173.7760  142.7210 C   0  0  0  0  0  2  0  0  0  0  0  0
  188.8910  173.2080  141.5300 C   0  0  0  0  0  0  0  0  0  0  0  0
  187.7570  172.6650  141.6020 O   0  0  0  0  0  0  0  0  0  0  0  0
  189.7840  173.0830  142.6410 N   0  0  0  0  0  2  0  0  0  0  0  0
  190.2470  170.4970  138.8270 S   0  0  0  0  0  0  0  0  0  0  0  0
  189.3170  171.7590  136.2230 O   0  0  0  0  0  1  0  0  0  0  0  0
  189.2320  174.0740  140.3420 C   0  0  2  0  0  3  0  0  0  0  0  0
  192.2250  171.9540  140.0240 O   0  0  0  0  0  1  0  0  0  0  0  0
  191.1010  171.8480  137.8960 C   0  0  1  0  0  0  0  0  0  0  0  0
  188.9270  173.4770  138.9460 C   0  0  2  0  0  0  0  0  0  0  0  0
  192.4390  171.3900  137.3330 C   0  0  0  0  0  1  0  0  0  0  0  0
  190.1640  172.6310  136.9070 C   0  0  2  0  0  3  0  0  0  0  0  0
  188.1740  172.3020  139.0360 O   0  0  0  0  0  1  0  0  0  0  0  0
  190.3480  173.4780  139.5440 C   0  0  2  0  0  3  0  0  0  0  0  0
  189.3490  173.8080  137.5220 C   0  0  0  0  0  2  0  0  0  0  0  0
  191.0030  172.1020  139.3670 C   0  0  1  0  0  0  0  0  0  0  0  0
  2  1  1  0  0  0  0
  3 27  1  6  0  0  0
  3  4  1  0  0  0  0
  3  5  1  0  0  0  0
  4 11  1  6  0  0  0
  4  2  1  0  0  0  0
  5  6  1  0  0  0  0
  6  1  1  0  0  0  0
  6  8  1  6  0  0  0
  7  8  1  0  0  0  0
  8 10  1  0  0  0  0
  8  9  1  0  0  0  0
 11 12  1  1  0  0  0
 11 13  1  0  0  0  0
 14 13  1  0  0  0  0
 14 15  1  0  0  0  0
 16 22  1  1  0  0  0
 17 15  1  6  0  0  0
 17 16  1  0  0  0  0
 18 17  1  0  0  0  0
 20 16  1  0  0  0  0
 21 19  1  6  0  0  0
 21 18  1  0  0  0  0
 21 20  1  0  0  0  0
 22 23  1  6  0  0  0
 22 24  1  0  0  0  0
 24 26  2  0  0  0  0
 24 25  1  0  0  0  0
 28 29  2  0  0  0  0
 28 30  1  0  0  0  0
 30 27  1  0  0  0  0
 31 42  1  0  0  0  0
 33 28  1  1  0  0  0
 35 37  1  6  0  0  0
 35 31  1  0  0  0  0
 35 42  1  0  0  0  0
 36 39  1  1  0  0  0
 36 40  1  0  0  0  0
 36 33  1  0  0  0  0
 38 32  1  1  0  0  0
 38 41  1  0  0  0  0
 38 35  1  0  0  0  0
 40 33  1  0  0  0  0
 41 36  1  0  0  0  0
 42 40  1  0  0  0  0
 42 34  1  0  0  0  0
M  END
>  <MODEL>
6

>  <REMARK>
 VINA RESULT:      -6.9      3.289      7.494
  Name = 
  11 active torsions:
  status: ('A' for Active; 'I' for Inactive)
    1  A    between atoms: C_1  and  C_14
    2  A    between atoms: C_5  and  C_10
    3  A    between atoms: C_9  and  C_20
    4  A    between atoms: C_9  and  N_33
    5  A    between atoms: C_10  and  C_16
    6  A    between atoms: C_11  and  C_12
    7  A    between atoms: C_12  and  N_31
    8  A    between atoms: C_13  and  C_22
    9  A    between atoms: C_17  and  C_42
   10  A    between atoms: C_22  and  C_23
   11  A    between atoms: C_23  and  N_33
                            x       y       z     vdW  Elec       q    Type
                         _______ _______ _______ _____ _____    ______ ____

>  <TORSDO>
F 11

$$$$
=
 OpenBabel11062419403D

 42 46  0  0  1  0  0  0  0  0999 V2000
  185.4090  179.7890  144.5040 O   0  0  0  0  0  0  0  0  0  0  0  0
  185.2680  178.9470  143.3810 C   0  0  0  0  0  2  0  0  0  0  0  0
  187.5830  178.2700  144.1670 C   0  0  1  0  0  3  0  0  0  0  0  0
  186.6180  178.3310  142.9640 C   0  0  1  0  0  3  0  0  0  0  0  0
  186.8240  177.9630  145.4490 C   0  0  0  0  0  2  0  0  0  0  0  0
  185.7090  179.0070  145.6530 C   0  0  2  0  0  3  0  0  0  0  0  0
  183.3160  178.9830  145.7750 F   0  0  0  0  0  0  0  0  0  0  0  0
  184.4600  178.4230  146.3170 C   0  0  0  0  0  0  0  0  0  0  0  0
  184.4290  177.0550  146.1220 F   0  0  0  0  0  0  0  0  0  0  0  0
  184.4930  178.6800  147.6740 F   0  0  0  0  0  0  0  0  0  0  0  0
  186.4170  176.9850  142.2510 C   0  0  2  0  0  3  0  0  0  0  0  0
  185.9410  176.0350  143.1570 O   0  0  0  0  0  1  0  0  0  0  0  0
  187.6960  176.4830  141.5890 C   0  0  0  0  0  2  0  0  0  0  0  0
  187.8130  175.0420  141.7380 N   0  0  0  0  0  2  0  0  0  0  0  0
  188.6170  174.5470  140.6280 C   0  0  0  0  0  2  0  0  0  0  0  0
  189.9680  172.4640  140.9320 C   0  0  2  0  0  3  0  0  0  0  0  0
  188.5970  173.0230  140.5760 C   0  0  2  0  0  3  0  0  0  0  0  0
  188.3820  172.5850  139.1620 C   0  0  0  0  0  2  0  0  0  0  0  0
  189.6910  171.1150  137.6690 C   0  0  0  0  0  1  0  0  0  0  0  0
  190.4930  171.7740  139.8200 O   0  0  0  0  0  0  0  0  0  0  0  0
  189.7680  172.2170  138.7050 C   0  0  2  0  0  3  0  0  0  0  0  0
  189.8590  171.5190  142.1290 C   0  0  2  0  0  3  0  0  0  0  0  0
  188.8540  171.9490  142.9970 O   0  0  0  0  0  1  0  0  0  0  0  0
  191.1560  171.4310  142.8670 C   0  0  0  0  0  0  0  0  0  0  0  0
  192.2190  171.1250  142.2620 O   0  0  0  0  0  0  0  0  0  0  0  0
  191.1810  171.6560  144.2370 O   0  0  0  0  0  1  0  0  0  0  0  0
  188.7740  177.3400  143.9850 C   0  0  0  0  0  2  0  0  0  0  0  0
  190.7670  177.0410  145.5290 C   0  0  0  0  0  0  0  0  0  0  0  0
  191.1860  176.6440  146.6490 O   0  0  0  0  0  0  0  0  0  0  0  0
  189.3580  177.0300  145.2810 N   0  0  0  0  0  2  0  0  0  0  0  0
  193.4120  173.9630  145.6960 S   0  0  0  0  0  0  0  0  0  0  0  0
  194.2060  173.7210  142.7720 O   0  0  0  0  0  1  0  0  0  0  0  0
  191.7530  177.3980  144.4440 C   0  0  2  0  0  3  0  0  0  0  0  0
  194.3310  176.2780  146.8210 O   0  0  0  0  0  1  0  0  0  0  0  0
  194.6690  174.9910  144.8120 C   0  0  1  0  0  0  0  0  0  0  0  0
  192.3160  176.2200  143.6110 C   0  0  2  0  0  0  0  0  0  0  0  0
  196.0760  174.7410  145.3370 C   0  0  0  0  0  1  0  0  0  0  0  0
  194.5020  174.9980  143.2490 C   0  0  2  0  0  3  0  0  0  0  0  0
  191.6360  175.0260  143.8740 O   0  0  0  0  0  1  0  0  0  0  0  0
  193.1160  176.8690  144.7600 C   0  0  2  0  0  3  0  0  0  0  0  0
  193.4980  176.0400  142.6710 C   0  0  0  0  0  2  0  0  0  0  0  0
  193.7290  175.7890  145.6610 C   0  0  1  0  0  0  0  0  0  0  0  0
  1  6  1  0  0  0  0
  2  1  1  0  0  0  0
  3 27  1  6  0  0  0
  3  5  1  0  0  0  0
  4 11  1  1  0  0  0
  4  2  1  0  0  0  0
  4  3  1  0  0  0  0
  5  6  1  0  0  0  0
  6  8  1  6  0  0  0
  7  8  1  0  0  0  0
  8 10  1  0  0  0  0
  9  8  1  0  0  0  0
 11 12  1  1  0  0  0
 13 14  1  0  0  0  0
 13 11  1  0  0  0  0
 15 14  1  0  0  0  0
 16 22  1  1  0  0  0
 17 15  1  6  0  0  0
 17 16  1  0  0  0  0
 18 17  1  0  0  0  0
 20 16  1  0  0  0  0
 21 19  1  6  0  0  0
 21 18  1  0  0  0  0
 21 20  1  0  0  0  0
 22 24  1  0  0  0  0
 22 23  1  1  0  0  0
 24 26  1  0  0  0  0
 25 24  2  0  0  0  0
 27 30  1  0  0  0  0
 28 29  2  0  0  0  0
 30 28  1  0  0  0  0
 33 40  1  0  0  0  0
 33 28  1  1  0  0  0
 35 37  1  1  0  0  0
 35 42  1  0  0  0  0
 35 31  1  0  0  0  0
 36 39  1  1  0  0  0
 36 33  1  0  0  0  0
 36 40  1  0  0  0  0
 38 32  1  1  0  0  0
 38 35  1  0  0  0  0
 40 42  1  0  0  0  0
 41 38  1  0  0  0  0
 41 36  1  0  0  0  0
 42 31  1  0  0  0  0
 42 34  1  0  0  0  0
M  END
>  <MODEL>
7

>  <REMARK>
 VINA RESULT:      -6.9      4.045      7.297
  Name = 
  11 active torsions:
  status: ('A' for Active; 'I' for Inactive)
    1  A    between atoms: C_1  and  C_14
    2  A    between atoms: C_5  and  C_10
    3  A    between atoms: C_9  and  C_20
    4  A    between atoms: C_9  and  N_33
    5  A    between atoms: C_10  and  C_16
    6  A    between atoms: C_11  and  C_12
    7  A    between atoms: C_12  and  N_31
    8  A    between atoms: C_13  and  C_22
    9  A    between atoms: C_17  and  C_42
   10  A    between atoms: C_22  and  C_23
   11  A    between atoms: C_23  and  N_33
                            x       y       z     vdW  Elec       q    Type
                         _______ _______ _______ _____ _____    ______ ____

>  <TORSDO>
F 11

$$$$
=
 OpenBabel11062419403D

 42 46  0  0  1  0  0  0  0  0999 V2000
  195.7910  174.5250  145.8260 O   0  0  0  0  0  0  0  0  0  0  0  0
  195.2700  173.3500  145.2450 C   0  0  0  0  0  2  0  0  0  0  0  0
  193.1220  174.6150  145.7110 C   0  0  1  0  0  3  0  0  0  0  0  0
  193.7530  173.2250  145.4870 C   0  0  1  0  0  3  0  0  0  0  0  0
  193.7990  175.6590  144.8370 C   0  0  0  0  0  2  0  0  0  0  0  0
  195.3150  175.6610  145.1140 C   0  0  2  0  0  3  0  0  0  0  0  0
  195.4770  175.5760  142.7240 F   0  0  0  0  0  0  0  0  0  0  0  0
  196.1480  175.9720  143.8680 C   0  0  0  0  0  0  0  0  0  0  0  0
  196.3900  177.3320  143.8010 F   0  0  0  0  0  0  0  0  0  0  0  0
  197.3570  175.3080  143.9400 F   0  0  0  0  0  0  0  0  0  0  0  0
  193.0810  172.4000  144.3780 C   0  0  2  0  0  3  0  0  0  0  0  0
  192.9780  171.0660  144.7750 O   0  0  0  0  0  1  0  0  0  0  0  0
  193.8280  172.4960  143.0510 C   0  0  0  0  0  2  0  0  0  0  0  0
  193.0100  171.9750  141.9700 N   0  0  0  0  0  2  0  0  0  0  0  0
  192.8760  173.0260  140.9690 C   0  0  0  0  0  2  0  0  0  0  0  0
  190.5030  172.3210  141.3240 C   0  0  2  0  0  3  0  0  0  0  0  0
  191.4140  173.4050  140.7650 C   0  0  2  0  0  3  0  0  0  0  0  0
  191.1110  173.4150  139.3000 C   0  0  0  0  0  2  0  0  0  0  0  0
  189.4220  172.2170  137.9530 C   0  0  0  0  0  1  0  0  0  0  0  0
  189.7520  171.7570  140.2730 O   0  0  0  0  0  0  0  0  0  0  0  0
  190.4180  172.0960  139.0880 C   0  0  2  0  0  3  0  0  0  0  0  0
  189.5650  172.9090  142.3780 C   0  0  2  0  0  3  0  0  0  0  0  0
  189.3500  171.9880  143.4050 O   0  0  0  0  0  1  0  0  0  0  0  0
  188.2560  173.3060  141.7760 C   0  0  0  0  0  0  0  0  0  0  0  0
  187.2120  172.6400  142.0120 O   0  0  0  0  0  1  0  0  0  0  0  0
  188.1990  174.4000  140.9230 O   0  0  0  0  0  0  0  0  0  0  0  0
  191.6080  174.6610  145.5650 C   0  0  0  0  0  2  0  0  0  0  0  0
  190.4950  176.2550  143.9330 C   0  0  0  0  0  0  0  0  0  0  0  0
  190.1370  176.4730  142.7450 O   0  0  0  0  0  0  0  0  0  0  0  0
  191.2550  175.0770  144.2170 N   0  0  0  0  0  2  0  0  0  0  0  0
  186.4880  176.3970  143.2750 S   0  0  0  0  0  0  0  0  0  0  0  0
  185.4420  176.6480  146.1190 O   0  0  0  0  0  1  0  0  0  0  0  0
  190.0140  177.1650  145.0380 C   0  0  2  0  0  3  0  0  0  0  0  0
  187.8250  178.6420  142.4730 O   0  0  0  0  0  1  0  0  0  0  0  0
  186.3770  177.9520  144.2710 C   0  0  1  0  0  0  0  0  0  0  0  0
  188.6530  176.8050  145.6830 C   0  0  2  0  0  0  0  0  0  0  0  0
  185.3650  178.9270  143.6870 C   0  0  0  0  0  1  0  0  0  0  0  0
  186.2950  177.7120  145.8220 C   0  0  2  0  0  3  0  0  0  0  0  0
  188.1970  175.5490  145.2670 O   0  0  0  0  0  1  0  0  0  0  0  0
  188.7890  177.9160  144.6220 C   0  0  2  0  0  3  0  0  0  0  0  0
  187.6540  177.5410  146.5630 C   0  0  0  0  0  2  0  0  0  0  0  0
  187.6860  177.7840  143.5640 C   0  0  1  0  0  0  0  0  0  0  0  0
  2  4  1  0  0  0  0
  2  1  1  0  0  0  0
  3 27  1  6  0  0  0
  4 11  1  6  0  0  0
  4  3  1  0  0  0  0
  5  6  1  0  0  0  0
  5  3  1  0  0  0  0
  6  8  1  6  0  0  0
  6  1  1  0  0  0  0
  7  8  1  0  0  0  0
  8 10  1  0  0  0  0
  9  8  1  0  0  0  0
 11 12  1  1  0  0  0
 13 11  1  0  0  0  0
 14 13  1  0  0  0  0
 15 14  1  0  0  0  0
 16 22  1  1  0  0  0
 17 15  1  6  0  0  0
 17 16  1  0  0  0  0
 18 17  1  0  0  0  0
 20 16  1  0  0  0  0
 21 19  1  6  0  0  0
 21 18  1  0  0  0  0
 21 20  1  0  0  0  0
 22 23  1  1  0  0  0
 24 25  1  0  0  0  0
 24 22  1  0  0  0  0
 26 24  2  0  0  0  0
 28 30  1  0  0  0  0
 29 28  2  0  0  0  0
 30 27  1  0  0  0  0
 31 42  1  0  0  0  0
 31 35  1  0  0  0  0
 33 28  1  6  0  0  0
 33 36  1  0  0  0  0
 34 42  1  0  0  0  0
 35 37  1  6  0  0  0
 35 38  1  0  0  0  0
 36 39  1  6  0  0  0
 36 41  1  0  0  0  0
 38 32  1  6  0  0  0
 38 41  1  0  0  0  0
 40 33  1  0  0  0  0
 40 36  1  0  0  0  0
 42 35  1  0  0  0  0
 42 40  1  0  0  0  0
M  END
>  <MODEL>
8

>  <REMARK>
 VINA RESULT:      -6.8      1.747      2.859
  Name = 
  11 active torsions:
  status: ('A' for Active; 'I' for Inactive)
    1  A    between atoms: C_1  and  C_14
    2  A    between atoms: C_5  and  C_10
    3  A    between atoms: C_9  and  C_20
    4  A    between atoms: C_9  and  N_33
    5  A    between atoms: C_10  and  C_16
    6  A    between atoms: C_11  and  C_12
    7  A    between atoms: C_12  and  N_31
    8  A    between atoms: C_13  and  C_22
    9  A    between atoms: C_17  and  C_42
   10  A    between atoms: C_22  and  C_23
   11  A    between atoms: C_23  and  N_33
                            x       y       z     vdW  Elec       q    Type
                         _______ _______ _______ _____ _____    ______ ____

>  <TORSDO>
F 11

$$$$
=
 OpenBabel11062419403D

 42 46  0  0  1  0  0  0  0  0999 V2000
  191.6040  175.9010  146.7050 O   0  0  0  0  0  0  0  0  0  0  0  0
  191.5120  176.6890  145.5390 C   0  0  0  0  0  2  0  0  0  0  0  0
  192.1650  174.4570  144.5250 C   0  0  1  0  0  3  0  0  0  0  0  0
  192.1620  175.9880  144.3300 C   0  0  1  0  0  3  0  0  0  0  0  0
  190.9010  174.0050  145.2400 C   0  0  0  0  0  2  0  0  0  0  0  0
  190.7650  174.7600  146.5780 C   0  0  2  0  0  3  0  0  0  0  0  0
  189.1810  176.3370  147.4410 F   0  0  0  0  0  0  0  0  0  0  0  0
  189.3100  175.0480  146.9540 C   0  0  0  0  0  0  0  0  0  0  0  0
  188.5060  174.9040  145.8390 F   0  0  0  0  0  0  0  0  0  0  0  0
  188.8950  174.1530  147.9210 F   0  0  0  0  0  0  0  0  0  0  0  0
  191.5250  176.4520  143.0110 C   0  0  2  0  0  3  0  0  0  0  0  0
  191.9520  177.7460  142.7070 O   0  0  0  0  0  1  0  0  0  0  0  0
  190.0010  176.4000  143.0540 C   0  0  0  0  0  2  0  0  0  0  0  0
  189.4430  177.7340  142.9170 N   0  0  0  0  0  2  0  0  0  0  0  0
  188.7890  178.0720  144.1750 C   0  0  0  0  0  2  0  0  0  0  0  0
  186.4500  178.1820  143.2970 C   0  0  2  0  0  3  0  0  0  0  0  0
  187.3950  177.4610  144.2490 C   0  0  2  0  0  3  0  0  0  0  0  0
  186.8170  177.7230  145.6030 C   0  0  0  0  0  2  0  0  0  0  0  0
  184.7280  178.8280  146.3230 C   0  0  0  0  0  1  0  0  0  0  0  0
  185.4270  178.8060  144.0400 O   0  0  0  0  0  0  0  0  0  0  0  0
  185.8950  178.8870  145.3590 C   0  0  2  0  0  3  0  0  0  0  0  0
  185.8420  177.1920  142.3030 C   0  0  2  0  0  3  0  0  0  0  0  0
  186.4310  175.9340  142.4490 O   0  0  0  0  0  1  0  0  0  0  0  0
  186.0120  177.6660  140.8960 C   0  0  0  0  0  0  0  0  0  0  0  0
  187.1390  177.6140  140.3330 O   0  0  0  0  0  1  0  0  0  0  0  0
  184.9240  178.1980  140.2170 O   0  0  0  0  0  0  0  0  0  0  0  0
  192.4090  173.6510  143.2580 C   0  0  0  0  0  2  0  0  0  0  0  0
  191.2540  171.8050  141.9530 C   0  0  0  0  0  0  0  0  0  0  0  0
  190.2470  171.0550  141.8480 O   0  0  0  0  0  0  0  0  0  0  0  0
  191.3610  172.6550  143.0990 N   0  0  0  0  0  2  0  0  0  0  0  0
  188.8790  172.5050  138.7320 S   0  0  0  0  0  0  0  0  0  0  0  0
  190.7030  174.2470  137.0350 O   0  0  0  0  0  1  0  0  0  0  0  0
  192.2510  171.8820  140.8220 C   0  0  2  0  0  3  0  0  0  0  0  0
  189.7860  169.9330  138.9040 O   0  0  0  0  0  1  0  0  0  0  0  0
  190.2250  171.9170  137.6090 C   0  0  1  0  0  0  0  0  0  0  0  0
  191.9600  172.9290  139.7180 C   0  0  2  0  0  0  0  0  0  0  0  0
  189.6730  171.1350  136.4240 C   0  0  0  0  0  1  0  0  0  0  0  0
  191.3030  173.0110  137.2760 C   0  0  2  0  0  3  0  0  0  0  0  0
  190.9170  173.7870  140.0780 O   0  0  0  0  0  1  0  0  0  0  0  0
  191.6390  171.4310  139.5330 C   0  0  2  0  0  3  0  0  0  0  0  0
  192.4650  173.1630  138.3030 C   0  0  0  0  0  2  0  0  0  0  0  0
  190.2310  171.2540  138.9510 C   0  0  1  0  0  0  0  0  0  0  0  0
  2  1  1  0  0  0  0
  3 27  1  6  0  0  0
  3  5  1  0  0  0  0
  4 11  1  6  0  0  0
  4  3  1  0  0  0  0
  4  2  1  0  0  0  0
  5  6  1  0  0  0  0
  6  1  1  0  0  0  0
  6  8  1  6  0  0  0
  8  7  1  0  0  0  0
  8 10  1  0  0  0  0
  9  8  1  0  0  0  0
 11 12  1  1  0  0  0
 11 13  1  0  0  0  0
 14 13  1  0  0  0  0
 14 15  1  0  0  0  0
 16 22  1  6  0  0  0
 16 20  1  0  0  0  0
 16 17  1  0  0  0  0
 17 15  1  1  0  0  0
 17 18  1  0  0  0  0
 20 21  1  0  0  0  0
 21 18  1  0  0  0  0
 21 19  1  1  0  0  0
 22 23  1  6  0  0  0
 24 22  1  0  0  0  0
 25 24  1  0  0  0  0
 26 24  2  0  0  0  0
 28 30  1  0  0  0  0
 29 28  2  0  0  0  0
 30 27  1  0  0  0  0
 31 42  1  0  0  0  0
 33 28  1  1  0  0  0
 34 42  1  0  0  0  0
 35 37  1  6  0  0  0
 35 31  1  0  0  0  0
 35 42  1  0  0  0  0
 36 39  1  1  0  0  0
 36 33  1  0  0  0  0
 38 32  1  1  0  0  0
 38 35  1  0  0  0  0
 38 41  1  0  0  0  0
 40 36  1  0  0  0  0
 40 33  1  0  0  0  0
 41 36  1  0  0  0  0
 42 40  1  0  0  0  0
M  END
>  <MODEL>
9

>  <REMARK>
 VINA RESULT:      -6.7      3.158      7.379
  Name = 
  11 active torsions:
  status: ('A' for Active; 'I' for Inactive)
    1  A    between atoms: C_1  and  C_14
    2  A    between atoms: C_5  and  C_10
    3  A    between atoms: C_9  and  C_20
    4  A    between atoms: C_9  and  N_33
    5  A    between atoms: C_10  and  C_16
    6  A    between atoms: C_11  and  C_12
    7  A    between atoms: C_12  and  N_31
    8  A    between atoms: C_13  and  C_22
    9  A    between atoms: C_17  and  C_42
   10  A    between atoms: C_22  and  C_23
   11  A    between atoms: C_23  and  N_33
                            x       y       z     vdW  Elec       q    Type
                         _______ _______ _______ _____ _____    ______ ____

>  <TORSDO>
F 11

$$$$
