=
 OpenBabel11072409043D

 47 52  0  0  1  0  0  0  0  0999 V2000
  191.9780  174.6480  143.4950 C   0  0  2  0  0  3  0  0  0  0  0  0
  191.1830  171.9000  143.7720 C   0  0  2  0  0  3  0  0  0  0  0  0
  194.1110  174.4010  144.5080 C   0  0  0  0  0  2  0  0  0  0  0  0
  189.1440  175.7040  141.6060 C   0  0  0  0  0  3  0  0  0  0  0  0
  193.0500  173.6310  143.7630 C   0  0  1  0  0  3  0  0  0  0  0  0
  192.4660  172.4140  144.4740 C   0  0  0  0  0  2  0  0  0  0  0  0
  194.0500  175.8120  143.9070 C   0  0  2  0  0  0  0  0  0  0  0  0
  190.9970  174.0940  142.5040 C   0  0  0  0  0  0  0  0  0  0  0  0
  190.9170  172.5750  142.3930 C   0  0  2  0  0  3  0  0  0  0  0  0
  189.9990  172.0660  144.7140 C   0  0  0  0  0  1  0  0  0  0  0  0
  190.0560  174.8820  142.0490 C   0  0  0  0  0  0  0  0  0  0  0  0
  192.7670  175.8560  143.0570 C   0  0  0  0  0  2  0  0  0  0  0  0
  196.1290  176.9810  143.6350 F   0  0  0  0  0  0  0  0  0  0  0  0
  194.9090  176.5640  141.7890 F   0  0  0  0  0  0  0  0  0  0  0  0
  195.9860  174.8840  142.8250 F   0  0  0  0  0  0  0  0  0  0  0  0
  195.2880  176.0660  143.0250 C   0  0  0  0  0  0  0  0  0  0  0  0
  188.5300  172.3650  142.3230 O   0  0  0  0  0  1  0  0  0  0  0  0
  189.6970  172.0200  141.6370 C   0  0  1  0  0  3  0  0  0  0  0  0
  188.3280  172.6780  139.7150 O   0  0  0  0  0  0  0  0  0  0  0  0
  189.8260  172.2430  137.8920 C   0  0  0  0  0  2  0  0  0  0  0  0
  189.6410  172.5560  140.2010 C   0  0  2  0  0  3  0  0  0  0  0  0
  190.3680  170.3040  139.2890 C   0  0  0  0  0  1  0  0  0  0  0  0
  188.4530  172.7520  138.3130 C   0  0  2  0  0  3  0  0  0  0  0  0
  190.4820  171.8170  139.1740 C   0  0  1  0  0  3  0  0  0  0  0  0
  188.7130  174.5510  136.7140 N   0  0  0  0  0  2  0  0  0  0  0  0
  188.2390  174.1590  137.8390 C   0  0  0  0  0  3  0  0  0  0  0  0
  188.7360  176.8820  142.4240 C   0  0  0  0  0  2  0  0  0  0  0  0
  187.6030  176.5640  143.1820 O   0  0  0  0  0  0  0  0  0  0  0  0
  186.0170  177.2230  141.8320 O   0  0  0  0  0  1  0  0  0  0  0  0
  186.7200  177.5690  142.9390 N   0  0  0  0  0  0  0  0  0  0  0  0
  185.1260  178.3040  146.8070 C   0  0  0  0  0  0  0  0  0  0  0  0
  185.3040  179.3310  145.8760 O   0  0  0  0  0  0  0  0  0  0  0  0
  185.6890  180.0240  143.7230 O   0  0  0  0  0  0  0  0  0  0  0  0
  185.7720  177.6500  144.0570 C   0  0  2  0  0  3  0  0  0  0  0  0
  185.6120  179.0680  144.5370 C   0  0  0  0  0  0  0  0  0  0  0  0
  185.1910  176.8680  146.3820 C   0  0  0  0  0  2  0  0  0  0  0  0
  186.1610  176.7200  145.2190 C   0  0  0  0  0  2  0  0  0  0  0  0
  184.8570  178.5860  148.0040 O   0  0  0  0  0  0  0  0  0  0  0  0
  193.9820  176.8110  145.0730 C   0  0  0  0  0  2  0  0  0  0  0  0
  193.4200  176.2030  146.3540 C   0  0  0  0  0  2  0  0  0  0  0  0
  191.3160  177.2860  145.5180 F   0  0  0  0  0  0  0  0  0  0  0  0
  190.2870  177.3860  147.9530 O   0  0  0  0  0  1  0  0  0  0  0  0
  191.1210  175.2870  148.4180 O   0  0  0  0  0  0  0  0  0  0  0  0
  189.6900  175.2560  146.4750 C   0  0  0  0  0  1  0  0  0  0  0  0
  191.9270  176.4550  146.4480 C   0  0  1  0  0  0  0  0  0  0  0  0
  191.1170  175.3090  147.0110 C   0  0  2  0  0  0  0  0  0  0  0  0
  191.4040  176.5480  147.8600 C   0  0  2  0  0  0  0  0  0  0  0  0
  1 12  1  6  0  0  0
  1  5  1  0  0  0  0
  2  6  1  0  0  0  0
  2 10  1  1  0  0  0
  4 11  2  0  0  0  0
  4 27  1  0  0  0  0
  5  6  1  1  0  0  0
  5  3  1  0  0  0  0
  7  3  1  0  0  0  0
  7 39  1  1  0  0  0
  8  1  1  0  0  0  0
  9 18  1  1  0  0  0
  9  8  1  0  0  0  0
  9  2  1  0  0  0  0
 11  8  2  0  0  0  0
 12  7  1  0  0  0  0
 14 16  1  0  0  0  0
 15 16  1  0  0  0  0
 16 13  1  0  0  0  0
 16  7  1  0  0  0  0
 18 17  1  1  0  0  0
 19 21  1  0  0  0  0
 20 23  1  0  0  0  0
 20 24  1  0  0  0  0
 21 18  1  1  0  0  0
 23 26  1  1  0  0  0
 23 19  1  0  0  0  0
 24 22  1  1  0  0  0
 24 21  1  0  0  0  0
 25 26  2  0  0  0  0
 27 28  1  0  0  0  0
 29 30  1  0  0  0  0
 30 28  1  0  0  0  0
 31 38  2  0  0  0  0
 32 31  1  0  0  0  0
 33 35  2  0  0  0  0
 34 30  1  6  0  0  0
 34 35  1  0  0  0  0
 34 37  1  0  0  0  0
 35 32  1  0  0  0  0
 36 31  1  0  0  0  0
 37 36  1  0  0  0  0
 39 40  1  0  0  0  0
 40 45  1  0  0  0  0
 45 41  1  6  0  0  0
 45 46  1  0  0  0  0
 45 47  1  0  0  0  0
 46 44  1  6  0  0  0
 46 47  1  0  0  0  0
 46 43  1  0  0  0  0
 47 42  1  1  0  0  0
 47 43  1  0  0  0  0
M  END
>  <MODEL>
1

>  <REMARK>
 VINA RESULT:      -8.3      0.000      0.000
  Name = 
  11 active torsions:
  status: ('A' for Active; 'I' for Inactive)
    1  A    between atoms: C_11  and  C_23
    2  A    between atoms: C_11  and  C_34
    3  A    between atoms: C_14  and  C_21
    4  A    between atoms: C_21  and  O_41
    5  A    between atoms: C_22  and  C_30
    6  A    between atoms: C_22  and  C_47
    7  A    between atoms: C_27  and  C_36
    8  A    between atoms: C_27  and  C_47
    9  A    between atoms: N_28  and  C_31
   10  A    between atoms: N_28  and  O_41
   11  A    between atoms: C_32  and  C_33
                            x       y       z     vdW  Elec       q    Type
                         _______ _______ _______ _____ _____    ______ ____

>  <TORSDO>
F 11

$$$$
=
 OpenBabel11072409043D

 47 52  0  0  1  0  0  0  0  0999 V2000
  191.8880  175.5650  144.1000 C   0  0  2  0  0  3  0  0  0  0  0  0
  189.8820  177.6220  144.0800 C   0  0  2  0  0  3  0  0  0  0  0  0
  193.7520  177.0230  143.9220 C   0  0  0  0  0  2  0  0  0  0  0  0
  189.6710  172.8380  144.7060 C   0  0  0  0  0  3  0  0  0  0  0  0
  192.3220  176.9710  144.3970 C   0  0  1  0  0  3  0  0  0  0  0  0
  191.3580  177.9720  143.7660 C   0  0  0  0  0  2  0  0  0  0  0  0
  194.2970  175.6150  144.2000 C   0  0  2  0  0  0  0  0  0  0  0  0
  190.5850  175.2850  144.7890 C   0  0  0  0  0  0  0  0  0  0  0  0
  189.7230  176.4930  145.1420 C   0  0  2  0  0  3  0  0  0  0  0  0
  189.1660  177.2740  142.7830 C   0  0  0  0  0  1  0  0  0  0  0  0
  190.1060  174.0680  144.7520 C   0  0  0  0  0  0  0  0  0  0  0  0
  193.0740  174.7480  144.5490 C   0  0  0  0  0  2  0  0  0  0  0  0
  195.3530  176.9340  145.9060 F   0  0  0  0  0  0  0  0  0  0  0  0
  196.5510  175.2720  144.9700 F   0  0  0  0  0  0  0  0  0  0  0  0
  194.8700  174.7860  146.3820 F   0  0  0  0  0  0  0  0  0  0  0  0
  195.2840  175.6530  145.3830 C   0  0  0  0  0  0  0  0  0  0  0  0
  188.2520  175.3410  146.6450 O   0  0  0  0  0  1  0  0  0  0  0  0
  188.2660  176.1880  145.5340 C   0  0  1  0  0  3  0  0  0  0  0  0
  186.7830  177.4070  147.0560 O   0  0  0  0  0  0  0  0  0  0  0  0
  185.6470  178.8760  145.5370 C   0  0  0  0  0  2  0  0  0  0  0  0
  187.4920  177.4750  145.8440 C   0  0  2  0  0  3  0  0  0  0  0  0
  185.7240  176.8740  144.1280 C   0  0  0  0  0  1  0  0  0  0  0  0
  185.8220  178.4350  146.9850 C   0  0  2  0  0  3  0  0  0  0  0  0
  186.5620  177.9800  144.7540 C   0  0  1  0  0  3  0  0  0  0  0  0
  187.1120  179.4520  148.7640 N   0  0  0  0  0  2  0  0  0  0  0  0
  186.2240  179.5930  147.8490 C   0  0  0  0  0  3  0  0  0  0  0  0
  190.0940  171.9340  143.5990 C   0  0  0  0  0  2  0  0  0  0  0  0
  190.5000  172.6930  142.4950 O   0  0  0  0  0  0  0  0  0  0  0  0
  190.2320  170.5950  141.9500 O   0  0  0  0  0  1  0  0  0  0  0  0
  190.6520  171.7980  141.4840 N   0  0  0  0  0  0  0  0  0  0  0  0
  189.1890  173.7130  137.9850 C   0  0  0  0  0  0  0  0  0  0  0  0
  190.0860  172.6430  137.9210 O   0  0  0  0  0  0  0  0  0  0  0  0
  191.1500  170.8700  138.9150 O   0  0  0  0  0  0  0  0  0  0  0  0
  189.7660  172.1760  140.3770 C   0  0  2  0  0  3  0  0  0  0  0  0
  190.3940  171.8680  139.0430 C   0  0  0  0  0  0  0  0  0  0  0  0
  188.4660  174.0260  139.2610 C   0  0  0  0  0  2  0  0  0  0  0  0
  189.3380  173.6510  140.4510 C   0  0  0  0  0  2  0  0  0  0  0  0
  188.9470  174.3890  136.9520 O   0  0  0  0  0  0  0  0  0  0  0  0
  194.9840  175.1220  142.9160 C   0  0  0  0  0  2  0  0  0  0  0  0
  194.5080  175.8470  141.6620 C   0  0  0  0  0  2  0  0  0  0  0  0
  192.4040  174.6640  140.9800 F   0  0  0  0  0  0  0  0  0  0  0  0
  193.7560  172.5800  140.0700 O   0  0  0  0  0  1  0  0  0  0  0  0
  195.3570  173.9780  139.1770 O   0  0  0  0  0  0  0  0  0  0  0  0
  193.1600  174.4920  138.3200 C   0  0  0  0  0  1  0  0  0  0  0  0
  193.7540  174.8940  140.7540 C   0  0  1  0  0  0  0  0  0  0  0  0
  194.2520  174.8360  139.3280 C   0  0  2  0  0  0  0  0  0  0  0  0
  194.5600  173.7000  140.3040 C   0  0  2  0  0  0  0  0  0  0  0  0
  1  5  1  0  0  0  0
  1 12  1  1  0  0  0
  1  8  1  0  0  0  0
  2 10  1  6  0  0  0
  2  9  1  0  0  0  0
  3  7  1  0  0  0  0
  3  5  1  0  0  0  0
  4 11  2  0  0  0  0
  5  6  1  6  0  0  0
  6  2  1  0  0  0  0
  7 39  1  6  0  0  0
  7 12  1  0  0  0  0
  7 16  1  0  0  0  0
  8  9  1  0  0  0  0
  9 18  1  6  0  0  0
 11  8  2  0  0  0  0
 14 16  1  0  0  0  0
 16 13  1  0  0  0  0
 16 15  1  0  0  0  0
 18 17  1  1  0  0  0
 20 23  1  0  0  0  0
 21 18  1  6  0  0  0
 21 19  1  0  0  0  0
 23 19  1  0  0  0  0
 23 26  1  1  0  0  0
 24 22  1  1  0  0  0
 24 20  1  0  0  0  0
 24 21  1  0  0  0  0
 26 25  2  0  0  0  0
 27  4  1  0  0  0  0
 28 27  1  0  0  0  0
 30 29  1  0  0  0  0
 30 28  1  0  0  0  0
 31 36  1  0  0  0  0
 32 31  1  0  0  0  0
 32 35  1  0  0  0  0
 33 35  2  0  0  0  0
 34 37  1  0  0  0  0
 34 30  1  1  0  0  0
 35 34  1  0  0  0  0
 36 37  1  0  0  0  0
 38 31  2  0  0  0  0
 40 39  1  0  0  0  0
 43 46  1  0  0  0  0
 43 47  1  0  0  0  0
 45 41  1  1  0  0  0
 45 40  1  0  0  0  0
 46 44  1  6  0  0  0
 46 47  1  0  0  0  0
 46 45  1  0  0  0  0
 47 42  1  6  0  0  0
 47 45  1  0  0  0  0
M  END
>  <MODEL>
2

>  <REMARK>
 VINA RESULT:      -8.0      2.739      7.492
  Name = 
  11 active torsions:
  status: ('A' for Active; 'I' for Inactive)
    1  A    between atoms: C_11  and  C_23
    2  A    between atoms: C_11  and  C_34
    3  A    between atoms: C_14  and  C_21
    4  A    between atoms: C_21  and  O_41
    5  A    between atoms: C_22  and  C_30
    6  A    between atoms: C_22  and  C_47
    7  A    between atoms: C_27  and  C_36
    8  A    between atoms: C_27  and  C_47
    9  A    between atoms: N_28  and  C_31
   10  A    between atoms: N_28  and  O_41
   11  A    between atoms: C_32  and  C_33
                            x       y       z     vdW  Elec       q    Type
                         _______ _______ _______ _____ _____    ______ ____

>  <TORSDO>
F 11

$$$$
=
 OpenBabel11072409043D

 47 52  0  0  1  0  0  0  0  0999 V2000
  192.3180  174.4580  142.6370 C   0  0  2  0  0  3  0  0  0  0  0  0
  189.5100  174.5490  143.2400 C   0  0  2  0  0  3  0  0  0  0  0  0
  192.1090  173.2020  140.6340 C   0  0  0  0  0  2  0  0  0  0  0  0
  193.3750  176.5930  145.2910 C   0  0  0  0  0  3  0  0  0  0  0  0
  191.3520  174.1500  141.5300 C   0  0  1  0  0  3  0  0  0  0  0  0
  190.0310  173.6400  142.0990 C   0  0  0  0  0  2  0  0  0  0  0  0
  193.5680  173.6700  140.7310 C   0  0  2  0  0  0  0  0  0  0  0  0
  191.8070  175.6170  143.4420 C   0  0  0  0  0  0  0  0  0  0  0  0
  190.3060  175.8810  143.3870 C   0  0  2  0  0  3  0  0  0  0  0  0
  189.4980  173.7590  144.5410 C   0  0  0  0  0  1  0  0  0  0  0  0
  192.5740  176.1150  144.3780 C   0  0  0  0  0  0  0  0  0  0  0  0
  193.6150  174.6730  141.8990 C   0  0  0  0  0  2  0  0  0  0  0  0
  194.9000  173.5580  138.7370 F   0  0  0  0  0  0  0  0  0  0  0  0
  194.5850  175.5790  139.6780 F   0  0  0  0  0  0  0  0  0  0  0  0
  192.8890  174.5650  138.6060 F   0  0  0  0  0  0  0  0  0  0  0  0
  193.9940  174.3540  139.4170 C   0  0  0  0  0  0  0  0  0  0  0  0
  190.1780  178.1400  144.1790 O   0  0  0  0  0  1  0  0  0  0  0  0
  189.7530  176.8390  144.4570 C   0  0  1  0  0  3  0  0  0  0  0  0
  187.6160  177.9080  143.9170 O   0  0  0  0  0  0  0  0  0  0  0  0
  186.2050  177.0580  145.6620 C   0  0  0  0  0  2  0  0  0  0  0  0
  188.2210  176.7870  144.5120 C   0  0  2  0  0  3  0  0  0  0  0  0
  188.2470  177.4050  146.9710 C   0  0  0  0  0  1  0  0  0  0  0  0
  186.2970  177.9280  144.4150 C   0  0  2  0  0  3  0  0  0  0  0  0
  187.6040  176.5590  145.8810 C   0  0  1  0  0  3  0  0  0  0  0  0
  184.3110  178.1700  143.0510 N   0  0  0  0  0  2  0  0  0  0  0  0
  185.3310  177.4600  143.3680 C   0  0  0  0  0  3  0  0  0  0  0  0
  194.4320  175.7270  145.8890 C   0  0  0  0  0  2  0  0  0  0  0  0
  195.0930  175.0190  144.8790 O   0  0  0  0  0  0  0  0  0  0  0  0
  196.6250  173.9740  146.0330 O   0  0  0  0  0  1  0  0  0  0  0  0
  196.4060  175.0430  145.2290 N   0  0  0  0  0  0  0  0  0  0  0  0
  197.4960  174.5550  141.1520 C   0  0  0  0  0  0  0  0  0  0  0  0
  197.1810  175.8070  141.6860 O   0  0  0  0  0  0  0  0  0  0  0  0
  196.8330  177.1710  143.4980 O   0  0  0  0  0  0  0  0  0  0  0  0
  197.2230  174.8630  144.0230 C   0  0  2  0  0  3  0  0  0  0  0  0
  197.0430  176.0090  143.0630 C   0  0  0  0  0  0  0  0  0  0  0  0
  197.7690  173.3870  142.0520 C   0  0  0  0  0  2  0  0  0  0  0  0
  196.9470  173.5200  143.3270 C   0  0  0  0  0  2  0  0  0  0  0  0
  197.6030  174.4160  139.9050 O   0  0  0  0  0  0  0  0  0  0  0  0
  194.4330  172.4330  141.0220 C   0  0  0  0  0  2  0  0  0  0  0  0
  193.6170  171.2070  141.4190 C   0  0  0  0  0  2  0  0  0  0  0  0
  195.1900  170.3060  143.1530 F   0  0  0  0  0  0  0  0  0  0  0  0
  193.2030  169.2520  144.5450 O   0  0  0  0  0  1  0  0  0  0  0  0
  191.9040  171.1140  144.1460 O   0  0  0  0  0  0  0  0  0  0  0  0
  193.9840  171.7040  145.2190 C   0  0  0  0  0  1  0  0  0  0  0  0
  193.9310  170.8030  142.8470 C   0  0  1  0  0  0  0  0  0  0  0  0
  193.2050  171.5940  143.9110 C   0  0  2  0  0  0  0  0  0  0  0  0
  192.7740  170.1660  143.5770 C   0  0  2  0  0  0  0  0  0  0  0  0
  1 12  1  6  0  0  0
  1  8  1  0  0  0  0
  2  9  1  0  0  0  0
  2 10  1  1  0  0  0
  3  7  1  0  0  0  0
  4 27  1  0  0  0  0
  5  3  1  6  0  0  0
  5  6  1  0  0  0  0
  5  1  1  0  0  0  0
  6  2  1  0  0  0  0
  7 39  1  1  0  0  0
  7 12  1  0  0  0  0
  8 11  2  0  0  0  0
  9  8  1  0  0  0  0
  9 18  1  1  0  0  0
 11  4  2  0  0  0  0
 13 16  1  0  0  0  0
 15 16  1  0  0  0  0
 16 14  1  0  0  0  0
 16  7  1  0  0  0  0
 18 17  1  6  0  0  0
 19 23  1  0  0  0  0
 19 21  1  0  0  0  0
 20 24  1  0  0  0  0
 21 18  1  1  0  0  0
 21 24  1  0  0  0  0
 23 26  1  6  0  0  0
 23 20  1  0  0  0  0
 24 22  1  1  0  0  0
 25 26  2  0  0  0  0
 28 30  1  0  0  0  0
 28 27  1  0  0  0  0
 30 29  1  0  0  0  0
 31 32  1  0  0  0  0
 31 36  1  0  0  0  0
 32 35  1  0  0  0  0
 34 30  1  1  0  0  0
 35 33  2  0  0  0  0
 35 34  1  0  0  0  0
 36 37  1  0  0  0  0
 37 34  1  0  0  0  0
 38 31  2  0  0  0  0
 39 40  1  0  0  0  0
 40 45  1  0  0  0  0
 45 41  1  1  0  0  0
 45 47  1  0  0  0  0
 45 46  1  0  0  0  0
 46 43  1  0  0  0  0
 46 44  1  1  0  0  0
 47 46  1  0  0  0  0
 47 43  1  0  0  0  0
 47 42  1  1  0  0  0
M  END
>  <MODEL>
3

>  <REMARK>
 VINA RESULT:      -8.0      3.838      7.996
  Name = 
  11 active torsions:
  status: ('A' for Active; 'I' for Inactive)
    1  A    between atoms: C_11  and  C_23
    2  A    between atoms: C_11  and  C_34
    3  A    between atoms: C_14  and  C_21
    4  A    between atoms: C_21  and  O_41
    5  A    between atoms: C_22  and  C_30
    6  A    between atoms: C_22  and  C_47
    7  A    between atoms: C_27  and  C_36
    8  A    between atoms: C_27  and  C_47
    9  A    between atoms: N_28  and  C_31
   10  A    between atoms: N_28  and  O_41
   11  A    between atoms: C_32  and  C_33
                            x       y       z     vdW  Elec       q    Type
                         _______ _______ _______ _____ _____    ______ ____

>  <TORSDO>
F 11

$$$$
=
 OpenBabel11072409043D

 47 52  0  0  1  0  0  0  0  0999 V2000
  191.9430  175.4450  144.1450 C   0  0  2  0  0  3  0  0  0  0  0  0
  189.9450  177.5060  144.0130 C   0  0  2  0  0  3  0  0  0  0  0  0
  193.8150  176.8880  143.9260 C   0  0  0  0  0  2  0  0  0  0  0  0
  189.7080  172.7540  144.8400 C   0  0  0  0  0  3  0  0  0  0  0  0
  192.3790  176.8610  144.3860 C   0  0  1  0  0  3  0  0  0  0  0  0
  191.4260  177.8370  143.7020 C   0  0  0  0  0  2  0  0  0  0  0  0
  194.3510  175.4910  144.2700 C   0  0  2  0  0  0  0  0  0  0  0  0
  190.6310  175.2000  144.8300 C   0  0  0  0  0  0  0  0  0  0  0  0
  189.7700  176.4240  145.1210 C   0  0  2  0  0  3  0  0  0  0  0  0
  189.2430  177.1050  142.7240 C   0  0  0  0  0  1  0  0  0  0  0  0
  190.1470  173.9830  144.8390 C   0  0  0  0  0  0  0  0  0  0  0  0
  193.1200  174.6430  144.6410 C   0  0  0  0  0  2  0  0  0  0  0  0
  195.0260  174.5960  146.3930 F   0  0  0  0  0  0  0  0  0  0  0  0
  195.2330  176.8160  146.0750 F   0  0  0  0  0  0  0  0  0  0  0  0
  196.6300  175.3970  145.0300 F   0  0  0  0  0  0  0  0  0  0  0  0
  195.3250  175.5760  145.4620 C   0  0  0  0  0  0  0  0  0  0  0  0
  188.2770  175.3190  146.6370 O   0  0  0  0  0  1  0  0  0  0  0  0
  188.3080  176.1410  145.5080 C   0  0  1  0  0  3  0  0  0  0  0  0
  186.8320  177.4100  146.9960 O   0  0  0  0  0  0  0  0  0  0  0  0
  185.7090  178.8490  145.4390 C   0  0  0  0  0  2  0  0  0  0  0  0
  187.5430  177.4410  145.7840 C   0  0  2  0  0  3  0  0  0  0  0  0
  185.7720  176.8100  144.0820 C   0  0  0  0  0  1  0  0  0  0  0  0
  185.8790  178.4440  146.8980 C   0  0  2  0  0  3  0  0  0  0  0  0
  186.6170  177.9260  144.6800 C   0  0  1  0  0  3  0  0  0  0  0  0
  186.9970  179.4600  148.7900 N   0  0  0  0  0  2  0  0  0  0  0  0
  186.2900  179.6200  147.7320 C   0  0  0  0  0  3  0  0  0  0  0  0
  190.1400  171.8020  143.7770 C   0  0  0  0  0  2  0  0  0  0  0  0
  190.7880  172.4990  142.7500 O   0  0  0  0  0  0  0  0  0  0  0  0
  190.2380  170.4990  142.0680 O   0  0  0  0  0  1  0  0  0  0  0  0
  190.6390  171.7230  141.6450 N   0  0  0  0  0  0  0  0  0  0  0  0
  188.6280  173.8860  138.5900 C   0  0  0  0  0  0  0  0  0  0  0  0
  189.2240  172.6460  138.3460 O   0  0  0  0  0  0  0  0  0  0  0  0
  190.1460  170.6910  139.1150 O   0  0  0  0  0  0  0  0  0  0  0  0
  189.5610  172.2780  140.8170 C   0  0  2  0  0  3  0  0  0  0  0  0
  189.6860  171.8310  139.3840 C   0  0  0  0  0  0  0  0  0  0  0  0
  188.3980  174.3590  139.9940 C   0  0  0  0  0  2  0  0  0  0  0  0
  189.4880  173.8120  140.9050 C   0  0  0  0  0  2  0  0  0  0  0  0
  188.2340  174.5920  137.6250 O   0  0  0  0  0  0  0  0  0  0  0  0
  195.0510  174.9410  143.0170 C   0  0  0  0  0  2  0  0  0  0  0  0
  194.8330  173.4460  142.8130 C   0  0  0  0  0  2  0  0  0  0  0  0
  197.2950  173.1280  143.1800 F   0  0  0  0  0  0  0  0  0  0  0  0
  197.0500  170.4940  143.1920 O   0  0  0  0  0  1  0  0  0  0  0  0
  195.0960  170.6570  144.4060 O   0  0  0  0  0  0  0  0  0  0  0  0
  196.9340  171.7290  145.5450 C   0  0  0  0  0  1  0  0  0  0  0  0
  196.0020  172.6590  143.3750 C   0  0  1  0  0  0  0  0  0  0  0  0
  195.7110  171.8990  144.6480 C   0  0  2  0  0  0  0  0  0  0  0  0
  195.8260  171.1620  143.3140 C   0  0  2  0  0  0  0  0  0  0  0  0
  1  5  1  0  0  0  0
  1 12  1  1  0  0  0
  1  8  1  0  0  0  0
  2 10  1  6  0  0  0
  2  9  1  0  0  0  0
  3  7  1  0  0  0  0
  3  5  1  0  0  0  0
  5  6  1  6  0  0  0
  6  2  1  0  0  0  0
  7 39  1  6  0  0  0
  7 12  1  0  0  0  0
  7 16  1  0  0  0  0
  8 11  2  0  0  0  0
  8  9  1  0  0  0  0
  9 18  1  6  0  0  0
 11  4  2  0  0  0  0
 15 16  1  0  0  0  0
 16 14  1  0  0  0  0
 16 13  1  0  0  0  0
 18 17  1  1  0  0  0
 20 23  1  0  0  0  0
 21 18  1  6  0  0  0
 21 19  1  0  0  0  0
 23 19  1  0  0  0  0
 23 26  1  1  0  0  0
 24 22  1  1  0  0  0
 24 20  1  0  0  0  0
 24 21  1  0  0  0  0
 26 25  2  0  0  0  0
 27  4  1  0  0  0  0
 28 27  1  0  0  0  0
 30 29  1  0  0  0  0
 30 28  1  0  0  0  0
 31 36  1  0  0  0  0
 32 31  1  0  0  0  0
 32 35  1  0  0  0  0
 33 35  2  0  0  0  0
 34 37  1  0  0  0  0
 34 30  1  1  0  0  0
 35 34  1  0  0  0  0
 36 37  1  0  0  0  0
 38 31  2  0  0  0  0
 40 39  1  0  0  0  0
 40 45  1  0  0  0  0
 43 46  1  0  0  0  0
 45 41  1  6  0  0  0
 45 46  1  0  0  0  0
 46 44  1  1  0  0  0
 47 42  1  6  0  0  0
 47 45  1  0  0  0  0
 47 43  1  0  0  0  0
 47 46  1  0  0  0  0
M  END
>  <MODEL>
4

>  <REMARK>
 VINA RESULT:      -7.9      2.864      7.279
  Name = 
  11 active torsions:
  status: ('A' for Active; 'I' for Inactive)
    1  A    between atoms: C_11  and  C_23
    2  A    between atoms: C_11  and  C_34
    3  A    between atoms: C_14  and  C_21
    4  A    between atoms: C_21  and  O_41
    5  A    between atoms: C_22  and  C_30
    6  A    between atoms: C_22  and  C_47
    7  A    between atoms: C_27  and  C_36
    8  A    between atoms: C_27  and  C_47
    9  A    between atoms: N_28  and  C_31
   10  A    between atoms: N_28  and  O_41
   11  A    between atoms: C_32  and  C_33
                            x       y       z     vdW  Elec       q    Type
                         _______ _______ _______ _____ _____    ______ ____

>  <TORSDO>
F 11

$$$$
=
 OpenBabel11072409043D

 47 52  0  0  1  0  0  0  0  0999 V2000
  190.2840  175.6870  144.0920 C   0  0  2  0  0  3  0  0  0  0  0  0
  192.4740  176.3610  145.8260 C   0  0  2  0  0  3  0  0  0  0  0  0
  189.0650  177.6960  144.4260 C   0  0  0  0  0  2  0  0  0  0  0  0
  191.6640  172.6380  142.8580 C   0  0  0  0  0  3  0  0  0  0  0  0
  190.4620  177.1280  144.4690 C   0  0  1  0  0  3  0  0  0  0  0  0
  191.2020  177.2460  145.7990 C   0  0  0  0  0  2  0  0  0  0  0  0
  188.3770  176.9260  143.2890 C   0  0  2  0  0  0  0  0  0  0  0  0
  191.6240  175.0730  143.8070 C   0  0  0  0  0  0  0  0  0  0  0  0
  192.8360  175.7500  144.4380 C   0  0  2  0  0  3  0  0  0  0  0  0
  192.3080  175.2820  146.8860 C   0  0  0  0  0  1  0  0  0  0  0  0
  191.6660  173.8520  143.3390 C   0  0  0  0  0  0  0  0  0  0  0  0
  189.3190  175.7600  142.9350 C   0  0  0  0  0  2  0  0  0  0  0  0
  189.3130  178.6160  141.8640 F   0  0  0  0  0  0  0  0  0  0  0  0
  187.0990  178.6910  142.2690 F   0  0  0  0  0  0  0  0  0  0  0  0
  187.9410  177.0930  140.9300 F   0  0  0  0  0  0  0  0  0  0  0  0
  188.1800  177.8470  142.0690 C   0  0  0  0  0  0  0  0  0  0  0  0
  193.9050  173.6640  144.9430 O   0  0  0  0  0  1  0  0  0  0  0  0
  194.1430  174.9380  144.4220 C   0  0  1  0  0  3  0  0  0  0  0  0
  195.4970  173.6770  142.8160 O   0  0  0  0  0  0  0  0  0  0  0  0
  196.2740  175.4270  141.3710 C   0  0  0  0  0  2  0  0  0  0  0  0
  194.7110  174.8270  143.0010 C   0  0  2  0  0  3  0  0  0  0  0  0
  196.4410  176.6100  143.5090 C   0  0  0  0  0  1  0  0  0  0  0  0
  196.2680  173.9320  141.6640 C   0  0  2  0  0  3  0  0  0  0  0  0
  195.4730  176.0360  142.4850 C   0  0  1  0  0  3  0  0  0  0  0  0
  194.9930  172.1300  140.6670 N   0  0  0  0  0  2  0  0  0  0  0  0
  195.7340  173.1630  140.4920 C   0  0  0  0  0  3  0  0  0  0  0  0
  190.5110  171.7300  143.1190 C   0  0  0  0  0  2  0  0  0  0  0  0
  189.6670  171.7000  142.0020 O   0  0  0  0  0  0  0  0  0  0  0  0
  190.4970  169.9550  140.9840 O   0  0  0  0  0  1  0  0  0  0  0  0
  190.4600  171.3100  140.9690 N   0  0  0  0  0  0  0  0  0  0  0  0
  189.2940  173.6950  137.6520 C   0  0  0  0  0  0  0  0  0  0  0  0
  190.5560  173.0970  137.7240 O   0  0  0  0  0  0  0  0  0  0  0  0
  191.9890  171.5740  138.6670 O   0  0  0  0  0  0  0  0  0  0  0  0
  189.8320  171.7200  139.7070 C   0  0  2  0  0  3  0  0  0  0  0  0
  190.8630  172.1370  138.6930 C   0  0  0  0  0  0  0  0  0  0  0  0
  188.1950  173.2710  138.5790 C   0  0  0  0  0  2  0  0  0  0  0  0
  188.7870  172.8310  139.9100 C   0  0  0  0  0  2  0  0  0  0  0  0
  189.0630  174.5620  136.7690 O   0  0  0  0  0  0  0  0  0  0  0  0
  187.0310  176.4130  143.8240 C   0  0  0  0  0  2  0  0  0  0  0  0
  186.9560  176.3950  145.3470 C   0  0  0  0  0  2  0  0  0  0  0  0
  184.7090  176.4180  146.4620 F   0  0  0  0  0  0  0  0  0  0  0  0
  183.8790  178.4350  144.9660 O   0  0  0  0  0  1  0  0  0  0  0  0
  185.9430  179.4470  145.1450 O   0  0  0  0  0  0  0  0  0  0  0  0
  184.9690  179.0410  147.3160 C   0  0  0  0  0  1  0  0  0  0  0  0
  185.7160  177.1280  145.8250 C   0  0  1  0  0  0  0  0  0  0  0  0
  185.9410  178.5640  146.2400 C   0  0  2  0  0  0  0  0  0  0  0  0
  185.2640  178.2380  144.9080 C   0  0  2  0  0  0  0  0  0  0  0  0
  1 12  1  6  0  0  0
  1  5  1  0  0  0  0
  2 10  1  1  0  0  0
  4 27  1  0  0  0  0
  4 11  2  0  0  0  0
  5  3  1  1  0  0  0
  5  6  1  0  0  0  0
  6  2  1  0  0  0  0
  7 39  1  1  0  0  0
  7  3  1  0  0  0  0
  8  1  1  0  0  0  0
  8  9  1  0  0  0  0
  9 18  1  1  0  0  0
  9  2  1  0  0  0  0
 11  8  2  0  0  0  0
 12  7  1  0  0  0  0
 13 16  1  0  0  0  0
 15 16  1  0  0  0  0
 16 14  1  0  0  0  0
 16  7  1  0  0  0  0
 18 17  1  6  0  0  0
 19 21  1  0  0  0  0
 20 23  1  0  0  0  0
 20 24  1  0  0  0  0
 21 18  1  1  0  0  0
 23 26  1  6  0  0  0
 23 19  1  0  0  0  0
 24 21  1  0  0  0  0
 24 22  1  1  0  0  0
 26 25  2  0  0  0  0
 28 27  1  0  0  0  0
 30 29  1  0  0  0  0
 30 28  1  0  0  0  0
 31 32  1  0  0  0  0
 31 36  1  0  0  0  0
 32 35  1  0  0  0  0
 33 35  2  0  0  0  0
 34 37  1  0  0  0  0
 34 30  1  1  0  0  0
 35 34  1  0  0  0  0
 36 37  1  0  0  0  0
 38 31  2  0  0  0  0
 39 40  1  0  0  0  0
 40 45  1  0  0  0  0
 43 46  1  0  0  0  0
 45 46  1  0  0  0  0
 45 41  1  1  0  0  0
 46 44  1  1  0  0  0
 47 42  1  1  0  0  0
 47 43  1  0  0  0  0
 47 45  1  0  0  0  0
 47 46  1  0  0  0  0
M  END
>  <MODEL>
5

>  <REMARK>
 VINA RESULT:      -7.8      2.982      7.318
  Name = 
  11 active torsions:
  status: ('A' for Active; 'I' for Inactive)
    1  A    between atoms: C_11  and  C_23
    2  A    between atoms: C_11  and  C_34
    3  A    between atoms: C_14  and  C_21
    4  A    between atoms: C_21  and  O_41
    5  A    between atoms: C_22  and  C_30
    6  A    between atoms: C_22  and  C_47
    7  A    between atoms: C_27  and  C_36
    8  A    between atoms: C_27  and  C_47
    9  A    between atoms: N_28  and  C_31
   10  A    between atoms: N_28  and  O_41
   11  A    between atoms: C_32  and  C_33
                            x       y       z     vdW  Elec       q    Type
                         _______ _______ _______ _____ _____    ______ ____

>  <TORSDO>
F 11

$$$$
=
 OpenBabel11072409043D

 47 52  0  0  1  0  0  0  0  0999 V2000
  190.7140  175.2510  142.7830 C   0  0  2  0  0  3  0  0  0  0  0  0
  189.2780  177.6230  143.5400 C   0  0  2  0  0  3  0  0  0  0  0  0
  192.5550  175.5890  144.2440 C   0  0  0  0  0  2  0  0  0  0  0  0
  188.2000  173.9210  140.6310 C   0  0  0  0  0  3  0  0  0  0  0  0
  191.0930  175.9190  144.0730 C   0  0  1  0  0  3  0  0  0  0  0  0
  190.7300  177.4010  144.0340 C   0  0  0  0  0  2  0  0  0  0  0  0
  192.7010  174.1850  143.6400 C   0  0  2  0  0  0  0  0  0  0  0  0
  189.2210  175.2470  142.6400 C   0  0  0  0  0  0  0  0  0  0  0  0
  188.4530  176.3050  143.4250 C   0  0  2  0  0  3  0  0  0  0  0  0
  189.3110  178.3790  142.2200 C   0  0  0  0  0  1  0  0  0  0  0  0
  188.6910  174.5960  141.6360 C   0  0  0  0  0  0  0  0  0  0  0  0
  191.3820  173.9040  142.8960 C   0  0  0  0  0  2  0  0  0  0  0  0
  192.9330  173.7740  145.9930 F   0  0  0  0  0  0  0  0  0  0  0  0
  194.1240  172.4870  144.5800 F   0  0  0  0  0  0  0  0  0  0  0  0
  191.8990  172.2080  144.7480 F   0  0  0  0  0  0  0  0  0  0  0  0
  192.9190  173.1480  144.7590 C   0  0  0  0  0  0  0  0  0  0  0  0
  186.2760  175.3220  143.2250 O   0  0  0  0  0  1  0  0  0  0  0  0
  186.9830  176.5080  143.0190 C   0  0  1  0  0  3  0  0  0  0  0  0
  185.5070  177.1910  144.8510 O   0  0  0  0  0  0  0  0  0  0  0  0
  184.7120  179.3110  144.0580 C   0  0  0  0  0  2  0  0  0  0  0  0
  186.3380  177.6500  143.8150 C   0  0  2  0  0  3  0  0  0  0  0  0
  184.6960  178.0900  141.9340 C   0  0  0  0  0  1  0  0  0  0  0  0
  184.6860  178.2870  145.1860 C   0  0  2  0  0  3  0  0  0  0  0  0
  185.5890  178.6960  143.0070 C   0  0  1  0  0  3  0  0  0  0  0  0
  185.7500  178.2090  147.3590 N   0  0  0  0  0  2  0  0  0  0  0  0
  185.1320  178.9050  146.4760 C   0  0  0  0  0  3  0  0  0  0  0  0
  189.0290  173.6790  139.4160 C   0  0  0  0  0  2  0  0  0  0  0  0
  190.2490  173.0970  139.7810 O   0  0  0  0  0  0  0  0  0  0  0  0
  189.8300  171.5440  138.3040 O   0  0  0  0  0  1  0  0  0  0  0  0
  190.0670  171.7600  139.6210 N   0  0  0  0  0  0  0  0  0  0  0  0
  193.8100  170.8870  141.4320 C   0  0  0  0  0  0  0  0  0  0  0  0
  192.6000  170.6670  142.0960 O   0  0  0  0  0  0  0  0  0  0  0  0
  190.3150  170.4560  142.0600 O   0  0  0  0  0  0  0  0  0  0  0  0
  191.3140  171.0660  139.9650 C   0  0  2  0  0  3  0  0  0  0  0  0
  191.3700  170.7370  141.4330 C   0  0  0  0  0  0  0  0  0  0  0  0
  193.8350  171.1400  139.9550 C   0  0  0  0  0  2  0  0  0  0  0  0
  192.5600  171.8590  139.5360 C   0  0  0  0  0  2  0  0  0  0  0  0
  194.8930  170.8220  142.0690 O   0  0  0  0  0  0  0  0  0  0  0  0
  193.8930  174.2190  142.6710 C   0  0  0  0  0  2  0  0  0  0  0  0
  194.4600  175.6190  142.4620 C   0  0  0  0  0  2  0  0  0  0  0  0
  195.6420  176.5820  144.4540 F   0  0  0  0  0  0  0  0  0  0  0  0
  197.9330  176.7380  143.1390 O   0  0  0  0  0  1  0  0  0  0  0  0
  197.5310  174.6940  142.1500 O   0  0  0  0  0  0  0  0  0  0  0  0
  197.5000  174.5290  144.5570 C   0  0  0  0  0  1  0  0  0  0  0  0
  195.7100  175.8140  143.2990 C   0  0  1  0  0  0  0  0  0  0  0  0
  196.6860  174.6600  143.2740 C   0  0  2  0  0  0  0  0  0  0  0  0
  196.9790  175.9420  142.4940 C   0  0  2  0  0  0  0  0  0  0  0  0
  1 12  1  1  0  0  0
  1  5  1  0  0  0  0
  2 10  1  6  0  0  0
  2  6  1  0  0  0  0
  4 11  2  0  0  0  0
  5  6  1  6  0  0  0
  5  3  1  0  0  0  0
  7 39  1  6  0  0  0
  7  3  1  0  0  0  0
  7 16  1  0  0  0  0
  8  1  1  0  0  0  0
  8  9  1  0  0  0  0
  9 18  1  6  0  0  0
  9  2  1  0  0  0  0
 11  8  2  0  0  0  0
 12  7  1  0  0  0  0
 14 16  1  0  0  0  0
 15 16  1  0  0  0  0
 16 13  1  0  0  0  0
 18 17  1  1  0  0  0
 19 23  1  0  0  0  0
 20 23  1  0  0  0  0
 21 18  1  6  0  0  0
 21 19  1  0  0  0  0
 23 26  1  1  0  0  0
 24 22  1  6  0  0  0
 24 21  1  0  0  0  0
 24 20  1  0  0  0  0
 26 25  2  0  0  0  0
 27 28  1  0  0  0  0
 27  4  1  0  0  0  0
 29 30  1  0  0  0  0
 30 28  1  0  0  0  0
 31 38  2  0  0  0  0
 31 32  1  0  0  0  0
 34 30  1  1  0  0  0
 34 35  1  0  0  0  0
 35 33  2  0  0  0  0
 35 32  1  0  0  0  0
 36 31  1  0  0  0  0
 37 36  1  0  0  0  0
 37 34  1  0  0  0  0
 40 39  1  0  0  0  0
 40 45  1  0  0  0  0
 43 47  1  0  0  0  0
 43 46  1  0  0  0  0
 45 41  1  1  0  0  0
 46 45  1  0  0  0  0
 46 44  1  1  0  0  0
 47 42  1  1  0  0  0
 47 46  1  0  0  0  0
 47 45  1  0  0  0  0
M  END
>  <MODEL>
6

>  <REMARK>
 VINA RESULT:      -7.6      3.057      7.556
  Name = 
  11 active torsions:
  status: ('A' for Active; 'I' for Inactive)
    1  A    between atoms: C_11  and  C_23
    2  A    between atoms: C_11  and  C_34
    3  A    between atoms: C_14  and  C_21
    4  A    between atoms: C_21  and  O_41
    5  A    between atoms: C_22  and  C_30
    6  A    between atoms: C_22  and  C_47
    7  A    between atoms: C_27  and  C_36
    8  A    between atoms: C_27  and  C_47
    9  A    between atoms: N_28  and  C_31
   10  A    between atoms: N_28  and  O_41
   11  A    between atoms: C_32  and  C_33
                            x       y       z     vdW  Elec       q    Type
                         _______ _______ _______ _____ _____    ______ ____

>  <TORSDO>
F 11

$$$$
=
 OpenBabel11072409043D

 47 52  0  0  1  0  0  0  0  0999 V2000
  190.3940  174.7140  141.9970 C   0  0  2  0  0  3  0  0  0  0  0  0
  189.4740  172.7230  140.1390 C   0  0  2  0  0  3  0  0  0  0  0  0
  188.2590  175.2280  142.8970 C   0  0  0  0  0  2  0  0  0  0  0  0
  193.8790  174.2560  141.3940 C   0  0  0  0  0  3  0  0  0  0  0  0
  189.0300  174.1260  142.2160 C   0  0  1  0  0  3  0  0  0  0  0  0
  188.4540  173.6060  140.9010 C   0  0  0  0  0  2  0  0  0  0  0  0
  189.3060  175.9480  143.7600 C   0  0  2  0  0  0  0  0  0  0  0  0
  191.3490  173.6290  141.5950 C   0  0  0  0  0  0  0  0  0  0  0  0
  190.7420  172.3750  140.9760 C   0  0  2  0  0  3  0  0  0  0  0  0
  189.8390  173.4030  138.8270 C   0  0  0  0  0  1  0  0  0  0  0  0
  192.6190  173.9250  141.4810 C   0  0  0  0  0  0  0  0  0  0  0  0
  190.6740  175.4060  143.3070 C   0  0  0  0  0  2  0  0  0  0  0  0
  189.7120  176.5700  146.0430 F   0  0  0  0  0  0  0  0  0  0  0  0
  189.5580  174.3750  145.5640 F   0  0  0  0  0  0  0  0  0  0  0  0
  187.7140  175.6610  145.5380 F   0  0  0  0  0  0  0  0  0  0  0  0
  189.0700  175.6330  145.2510 C   0  0  0  0  0  0  0  0  0  0  0  0
  191.3290  170.1050  140.4720 O   0  0  0  0  0  1  0  0  0  0  0  0
  191.7300  171.4280  140.2710 C   0  0  1  0  0  3  0  0  0  0  0  0
  191.4700  170.6250  137.9710 O   0  0  0  0  0  0  0  0  0  0  0  0
  193.0490  172.0030  136.8040 C   0  0  0  0  0  2  0  0  0  0  0  0
  191.8140  171.7290  138.7690 C   0  0  2  0  0  3  0  0  0  0  0  0
  194.3460  171.5980  138.8420 C   0  0  0  0  0  1  0  0  0  0  0  0
  191.9960  170.9070  136.6940 C   0  0  2  0  0  3  0  0  0  0  0  0
  193.1270  172.3100  138.2710 C   0  0  1  0  0  3  0  0  0  0  0  0
  189.6740  171.0760  136.0320 N   0  0  0  0  0  2  0  0  0  0  0  0
  190.9030  171.3110  135.7510 C   0  0  0  0  0  3  0  0  0  0  0  0
  194.2650  175.6720  141.1310 C   0  0  0  0  0  2  0  0  0  0  0  0
  194.2110  176.4080  142.3210 O   0  0  0  0  0  0  0  0  0  0  0  0
  196.2480  176.7820  143.0130 O   0  0  0  0  0  1  0  0  0  0  0  0
  195.2130  175.9100  143.0920 N   0  0  0  0  0  0  0  0  0  0  0  0
  192.8160  175.2100  146.5290 C   0  0  0  0  0  0  0  0  0  0  0  0
  193.5830  174.1970  145.9460 O   0  0  0  0  0  0  0  0  0  0  0  0
  195.2560  173.5320  144.5230 O   0  0  0  0  0  0  0  0  0  0  0  0
  194.7670  175.8800  144.4900 C   0  0  2  0  0  3  0  0  0  0  0  0
  194.5390  174.4690  144.9620 C   0  0  0  0  0  0  0  0  0  0  0  0
  193.0450  176.6460  146.1660 C   0  0  0  0  0  2  0  0  0  0  0  0
  193.5130  176.7410  144.7210 C   0  0  0  0  0  2  0  0  0  0  0  0
  191.9600  174.9200  147.4050 O   0  0  0  0  0  0  0  0  0  0  0  0
  189.1810  177.4540  143.4810 C   0  0  0  0  0  2  0  0  0  0  0  0
  187.8750  177.8330  142.7930 C   0  0  0  0  0  2  0  0  0  0  0  0
  187.2550  178.5370  145.1200 F   0  0  0  0  0  0  0  0  0  0  0  0
  184.8160  177.5410  144.8750 O   0  0  0  0  0  1  0  0  0  0  0  0
  184.6900  178.3200  142.7080 O   0  0  0  0  0  0  0  0  0  0  0  0
  185.1400  180.1100  144.2630 C   0  0  0  0  0  1  0  0  0  0  0  0
  186.8510  178.2890  143.8150 C   0  0  1  0  0  0  0  0  0  0  0  0
  185.7130  179.1140  143.2580 C   0  0  2  0  0  0  0  0  0  0  0  0
  185.4920  177.6540  143.6540 C   0  0  2  0  0  0  0  0  0  0  0  0
  1  5  1  0  0  0  0
  1 12  1  1  0  0  0
  2 10  1  6  0  0  0
  2  6  1  0  0  0  0
  2  9  1  0  0  0  0
  3  7  1  0  0  0  0
  4 11  2  0  0  0  0
  5  6  1  6  0  0  0
  5  3  1  0  0  0  0
  7 39  1  6  0  0  0
  7 16  1  0  0  0  0
  8  1  1  0  0  0  0
  9 18  1  6  0  0  0
  9  8  1  0  0  0  0
 11  8  2  0  0  0  0
 12  7  1  0  0  0  0
 16 15  1  0  0  0  0
 16 14  1  0  0  0  0
 16 13  1  0  0  0  0
 18 17  1  6  0  0  0
 19 21  1  0  0  0  0
 20 24  1  0  0  0  0
 21 18  1  1  0  0  0
 23 26  1  6  0  0  0
 23 20  1  0  0  0  0
 23 19  1  0  0  0  0
 24 21  1  0  0  0  0
 24 22  1  1  0  0  0
 26 25  2  0  0  0  0
 27  4  1  0  0  0  0
 27 28  1  0  0  0  0
 28 30  1  0  0  0  0
 29 30  1  0  0  0  0
 31 38  2  0  0  0  0
 32 31  1  0  0  0  0
 33 35  2  0  0  0  0
 34 30  1  6  0  0  0
 34 37  1  0  0  0  0
 34 35  1  0  0  0  0
 35 32  1  0  0  0  0
 36 31  1  0  0  0  0
 37 36  1  0  0  0  0
 40 39  1  0  0  0  0
 40 45  1  0  0  0  0
 43 46  1  0  0  0  0
 43 47  1  0  0  0  0
 45 41  1  1  0  0  0
 46 47  1  0  0  0  0
 46 45  1  0  0  0  0
 46 44  1  1  0  0  0
 47 45  1  0  0  0  0
 47 42  1  1  0  0  0
M  END
>  <MODEL>
7

>  <REMARK>
 VINA RESULT:      -7.6      3.032      6.344
  Name = 
  11 active torsions:
  status: ('A' for Active; 'I' for Inactive)
    1  A    between atoms: C_11  and  C_23
    2  A    between atoms: C_11  and  C_34
    3  A    between atoms: C_14  and  C_21
    4  A    between atoms: C_21  and  O_41
    5  A    between atoms: C_22  and  C_30
    6  A    between atoms: C_22  and  C_47
    7  A    between atoms: C_27  and  C_36
    8  A    between atoms: C_27  and  C_47
    9  A    between atoms: N_28  and  C_31
   10  A    between atoms: N_28  and  O_41
   11  A    between atoms: C_32  and  C_33
                            x       y       z     vdW  Elec       q    Type
                         _______ _______ _______ _____ _____    ______ ____

>  <TORSDO>
F 11

$$$$
=
 OpenBabel11072409043D

 47 52  0  0  1  0  0  0  0  0999 V2000
  192.6930  175.0790  143.5680 C   0  0  2  0  0  3  0  0  0  0  0  0
  194.6220  174.1000  145.4610 C   0  0  2  0  0  3  0  0  0  0  0  0
  191.2880  176.1400  145.1600 C   0  0  0  0  0  2  0  0  0  0  0  0
  194.4390  174.0450  140.6360 C   0  0  0  0  0  3  0  0  0  0  0  0
  192.7130  175.6990  144.9350 C   0  0  1  0  0  3  0  0  0  0  0  0
  193.2930  174.7250  145.9560 C   0  0  0  0  0  2  0  0  0  0  0  0
  190.7910  176.5480  143.7660 C   0  0  2  0  0  0  0  0  0  0  0  0
  194.1010  174.8650  143.0940 C   0  0  0  0  0  0  0  0  0  0  0  0
  195.1790  174.7690  144.1680 C   0  0  2  0  0  3  0  0  0  0  0  0
  194.4290  172.6020  145.2770 C   0  0  0  0  0  1  0  0  0  0  0  0
  194.2910  174.4460  141.8690 C   0  0  0  0  0  0  0  0  0  0  0  0
  191.8570  176.0490  142.7730 C   0  0  0  0  0  2  0  0  0  0  0  0
  190.3900  178.6060  144.9350 F   0  0  0  0  0  0  0  0  0  0  0  0
  189.6200  178.4290  142.8260 F   0  0  0  0  0  0  0  0  0  0  0  0
  191.8270  178.6430  143.2000 F   0  0  0  0  0  0  0  0  0  0  0  0
  190.6530  178.0810  143.6810 C   0  0  0  0  0  0  0  0  0  0  0  0
  197.5640  174.8790  144.3950 O   0  0  0  0  0  1  0  0  0  0  0  0
  196.5410  174.2220  143.7060 C   0  0  1  0  0  3  0  0  0  0  0  0
  197.6770  172.3570  144.8160 O   0  0  0  0  0  0  0  0  0  0  0  0
  197.3100  170.5760  143.2510 C   0  0  0  0  0  2  0  0  0  0  0  0
  196.6410  172.7090  143.9340 C   0  0  2  0  0  3  0  0  0  0  0  0
  197.7130  172.3940  141.6580 C   0  0  0  0  0  1  0  0  0  0  0  0
  197.9120  170.9860  144.5890 C   0  0  2  0  0  3  0  0  0  0  0  0
  196.7370  171.8450  142.6880 C   0  0  1  0  0  3  0  0  0  0  0  0
  196.3180  169.4130  145.5090 N   0  0  0  0  0  2  0  0  0  0  0  0
  197.3420  170.1610  145.7040 C   0  0  0  0  0  3  0  0  0  0  0  0
  193.3420  173.3040  139.9520 C   0  0  0  0  0  2  0  0  0  0  0  0
  192.1190  173.5860  140.5720 O   0  0  0  0  0  0  0  0  0  0  0  0
  192.0560  171.6480  139.5680 O   0  0  0  0  0  1  0  0  0  0  0  0
  191.2980  172.5620  140.2210 N   0  0  0  0  0  0  0  0  0  0  0  0
  189.8180  172.0490  144.1710 C   0  0  0  0  0  0  0  0  0  0  0  0
  188.9940  172.4710  143.1230 O   0  0  0  0  0  0  0  0  0  0  0  0
  188.6070  172.7460  140.8780 O   0  0  0  0  0  0  0  0  0  0  0  0
  190.7890  171.9220  141.4410 C   0  0  2  0  0  3  0  0  0  0  0  0
  189.4130  172.4250  141.7900 C   0  0  0  0  0  0  0  0  0  0  0  0
  191.1680  171.4610  143.8910 C   0  0  0  0  0  2  0  0  0  0  0  0
  191.7490  172.0870  142.6310 C   0  0  0  0  0  2  0  0  0  0  0  0
  189.4030  172.1150  145.3570 O   0  0  0  0  0  0  0  0  0  0  0  0
  189.4400  175.8530  143.5320 C   0  0  0  0  0  2  0  0  0  0  0  0
  188.6600  175.6070  144.8190 C   0  0  0  0  0  2  0  0  0  0  0  0
  186.4910  176.2570  143.7380 F   0  0  0  0  0  0  0  0  0  0  0  0
  186.5660  178.6710  144.8180 O   0  0  0  0  0  1  0  0  0  0  0  0
  187.3500  177.7870  146.7980 O   0  0  0  0  0  0  0  0  0  0  0  0
  185.2480  176.7880  146.1570 C   0  0  0  0  0  1  0  0  0  0  0  0
  187.3630  176.3940  144.8100 C   0  0  1  0  0  0  0  0  0  0  0  0
  186.7700  176.6680  146.1730 C   0  0  2  0  0  0  0  0  0  0  0  0
  187.4760  177.7790  145.3960 C   0  0  2  0  0  0  0  0  0  0  0  0
  1 12  1  6  0  0  0
  1  5  1  0  0  0  0
  2 10  1  6  0  0  0
  2  6  1  0  0  0  0
  4 11  2  0  0  0  0
  5  3  1  1  0  0  0
  5  6  1  0  0  0  0
  7 39  1  6  0  0  0
  7  3  1  0  0  0  0
  8  1  1  0  0  0  0
  8  9  1  0  0  0  0
  9 18  1  6  0  0  0
  9  2  1  0  0  0  0
 11  8  2  0  0  0  0
 12  7  1  0  0  0  0
 14 16  1  0  0  0  0
 15 16  1  0  0  0  0
 16  7  1  0  0  0  0
 16 13  1  0  0  0  0
 18 17  1  1  0  0  0
 20 23  1  0  0  0  0
 21 18  1  6  0  0  0
 21 19  1  0  0  0  0
 23 19  1  0  0  0  0
 23 26  1  1  0  0  0
 24 22  1  6  0  0  0
 24 20  1  0  0  0  0
 24 21  1  0  0  0  0
 25 26  2  0  0  0  0
 27 28  1  0  0  0  0
 27  4  1  0  0  0  0
 29 30  1  0  0  0  0
 30 28  1  0  0  0  0
 31 38  2  0  0  0  0
 32 31  1  0  0  0  0
 33 35  2  0  0  0  0
 34 30  1  6  0  0  0
 34 35  1  0  0  0  0
 34 37  1  0  0  0  0
 35 32  1  0  0  0  0
 36 31  1  0  0  0  0
 37 36  1  0  0  0  0
 39 40  1  0  0  0  0
 45 41  1  6  0  0  0
 45 40  1  0  0  0  0
 45 47  1  0  0  0  0
 45 46  1  0  0  0  0
 46 44  1  6  0  0  0
 46 43  1  0  0  0  0
 47 42  1  6  0  0  0
 47 46  1  0  0  0  0
 47 43  1  0  0  0  0
M  END
>  <MODEL>
8

>  <REMARK>
 VINA RESULT:      -7.6      3.621      6.886
  Name = 
  11 active torsions:
  status: ('A' for Active; 'I' for Inactive)
    1  A    between atoms: C_11  and  C_23
    2  A    between atoms: C_11  and  C_34
    3  A    between atoms: C_14  and  C_21
    4  A    between atoms: C_21  and  O_41
    5  A    between atoms: C_22  and  C_30
    6  A    between atoms: C_22  and  C_47
    7  A    between atoms: C_27  and  C_36
    8  A    between atoms: C_27  and  C_47
    9  A    between atoms: N_28  and  C_31
   10  A    between atoms: N_28  and  O_41
   11  A    between atoms: C_32  and  C_33
                            x       y       z     vdW  Elec       q    Type
                         _______ _______ _______ _____ _____    ______ ____

>  <TORSDO>
F 11

$$$$
=
 OpenBabel11072409043D

 47 52  0  0  1  0  0  0  0  0999 V2000
  191.0640  173.4560  141.8240 C   0  0  2  0  0  3  0  0  0  0  0  0
  189.3160  173.8040  144.0790 C   0  0  2  0  0  3  0  0  0  0  0  0
  189.9600  171.5520  140.9360 C   0  0  0  0  0  2  0  0  0  0  0  0
  192.9970  176.4070  142.3490 C   0  0  0  0  0  3  0  0  0  0  0  0
  189.7270  172.7750  141.7880 C   0  0  1  0  0  3  0  0  0  0  0  0
  189.2120  172.5300  143.2030 C   0  0  0  0  0  2  0  0  0  0  0  0
  191.0030  172.0010  139.9020 C   0  0  2  0  0  0  0  0  0  0  0  0
  190.9070  174.8380  142.3890 C   0  0  0  0  0  0  0  0  0  0  0  0
  189.6880  175.0840  143.2720 C   0  0  2  0  0  3  0  0  0  0  0  0
  190.3000  173.5510  145.2120 C   0  0  0  0  0  1  0  0  0  0  0  0
  191.9440  175.6360  142.3860 C   0  0  0  0  0  0  0  0  0  0  0  0
  191.5260  173.3650  140.3920 C   0  0  0  0  0  2  0  0  0  0  0  0
  189.4200  171.1330  138.3190 F   0  0  0  0  0  0  0  0  0  0  0  0
  191.3010  172.0750  137.5150 F   0  0  0  0  0  0  0  0  0  0  0  0
  189.6960  173.3660  138.4160 F   0  0  0  0  0  0  0  0  0  0  0  0
  190.3450  172.1450  138.5150 C   0  0  0  0  0  0  0  0  0  0  0  0
  189.8760  177.4740  143.2550 O   0  0  0  0  0  1  0  0  0  0  0  0
  189.7120  176.3780  144.1050 C   0  0  1  0  0  3  0  0  0  0  0  0
  187.6990  177.6890  144.5840 O   0  0  0  0  0  0  0  0  0  0  0  0
  187.3120  177.1430  146.8880 C   0  0  0  0  0  2  0  0  0  0  0  0
  188.4250  176.5360  144.9250 C   0  0  2  0  0  3  0  0  0  0  0  0
  189.7570  177.2900  146.9470 C   0  0  0  0  0  1  0  0  0  0  0  0
  186.8270  177.9170  145.6680 C   0  0  2  0  0  3  0  0  0  0  0  0
  188.5780  176.4750  146.4350 C   0  0  1  0  0  3  0  0  0  0  0  0
  184.8940  177.9140  144.2100 N   0  0  0  0  0  2  0  0  0  0  0  0
  185.4270  177.5210  145.3090 C   0  0  0  0  0  3  0  0  0  0  0  0
  194.3630  175.8090  142.3090 C   0  0  0  0  0  2  0  0  0  0  0  0
  194.9920  175.9770  143.5480 O   0  0  0  0  0  0  0  0  0  0  0  0
  196.8200  177.1660  143.6660 O   0  0  0  0  0  1  0  0  0  0  0  0
  196.3230  175.9670  143.2750 N   0  0  0  0  0  0  0  0  0  0  0  0
  197.0340  172.2770  145.2570 C   0  0  0  0  0  0  0  0  0  0  0  0
  197.2790  172.4390  143.8900 O   0  0  0  0  0  0  0  0  0  0  0  0
  197.5650  173.7990  142.0640 O   0  0  0  0  0  0  0  0  0  0  0  0
  196.9680  174.9330  144.0930 C   0  0  2  0  0  3  0  0  0  0  0  0
  197.2640  173.6990  143.2820 C   0  0  0  0  0  0  0  0  0  0  0  0
  196.8130  173.4680  146.1390 C   0  0  0  0  0  2  0  0  0  0  0  0
  196.1450  174.5800  145.3430 C   0  0  0  0  0  2  0  0  0  0  0  0
  197.0500  171.1240  145.7620 O   0  0  0  0  0  0  0  0  0  0  0  0
  192.1210  170.9480  139.8820 C   0  0  0  0  0  2  0  0  0  0  0  0
  192.1360  170.0620  141.1230 C   0  0  0  0  0  2  0  0  0  0  0  0
  194.1870  171.3980  141.6730 F   0  0  0  0  0  0  0  0  0  0  0  0
  194.8920  169.7080  143.5820 O   0  0  0  0  0  1  0  0  0  0  0  0
  192.6940  169.5050  144.2480 O   0  0  0  0  0  0  0  0  0  0  0  0
  193.4240  171.8050  144.3060 C   0  0  0  0  0  1  0  0  0  0  0  0
  193.1770  170.5530  142.1120 C   0  0  1  0  0  0  0  0  0  0  0  0
  192.6860  170.7160  143.5320 C   0  0  2  0  0  0  0  0  0  0  0  0
  193.5740  169.5320  143.1490 C   0  0  2  0  0  0  0  0  0  0  0  0
  1 12  1  6  0  0  0
  1  8  1  0  0  0  0
  2 10  1  1  0  0  0
  4 11  2  0  0  0  0
  5  3  1  1  0  0  0
  5  1  1  0  0  0  0
  5  6  1  0  0  0  0
  6  2  1  0  0  0  0
  7 39  1  6  0  0  0
  7 12  1  0  0  0  0
  7  3  1  0  0  0  0
  8  9  1  0  0  0  0
  9  2  1  0  0  0  0
  9 18  1  1  0  0  0
 11  8  2  0  0  0  0
 13 16  1  0  0  0  0
 14 16  1  0  0  0  0
 15 16  1  0  0  0  0
 16  7  1  0  0  0  0
 18 17  1  6  0  0  0
 19 21  1  0  0  0  0
 19 23  1  0  0  0  0
 21 18  1  6  0  0  0
 21 24  1  0  0  0  0
 23 26  1  6  0  0  0
 23 20  1  0  0  0  0
 24 20  1  0  0  0  0
 24 22  1  6  0  0  0
 25 26  2  0  0  0  0
 27  4  1  0  0  0  0
 27 28  1  0  0  0  0
 30 28  1  0  0  0  0
 30 29  1  0  0  0  0
 31 38  2  0  0  0  0
 31 36  1  0  0  0  0
 32 31  1  0  0  0  0
 33 35  2  0  0  0  0
 34 30  1  6  0  0  0
 34 37  1  0  0  0  0
 35 32  1  0  0  0  0
 35 34  1  0  0  0  0
 37 36  1  0  0  0  0
 39 40  1  0  0  0  0
 40 45  1  0  0  0  0
 45 41  1  6  0  0  0
 45 47  1  0  0  0  0
 45 46  1  0  0  0  0
 46 43  1  0  0  0  0
 46 44  1  1  0  0  0
 47 46  1  0  0  0  0
 47 42  1  1  0  0  0
 47 43  1  0  0  0  0
M  END
>  <MODEL>
9

>  <REMARK>
 VINA RESULT:      -7.6      4.151      8.360
  Name = 
  11 active torsions:
  status: ('A' for Active; 'I' for Inactive)
    1  A    between atoms: C_11  and  C_23
    2  A    between atoms: C_11  and  C_34
    3  A    between atoms: C_14  and  C_21
    4  A    between atoms: C_21  and  O_41
    5  A    between atoms: C_22  and  C_30
    6  A    between atoms: C_22  and  C_47
    7  A    between atoms: C_27  and  C_36
    8  A    between atoms: C_27  and  C_47
    9  A    between atoms: N_28  and  C_31
   10  A    between atoms: N_28  and  O_41
   11  A    between atoms: C_32  and  C_33
                            x       y       z     vdW  Elec       q    Type
                         _______ _______ _______ _____ _____    ______ ____

>  <TORSDO>
F 11

$$$$
