=
 OpenBabel11062419423D

 30 31  0  0  1  0  0  0  0  0999 V2000
  188.0650  176.2620  143.8890 C   0  0  2  0  0  3  0  0  0  0  0  0
  191.6410  176.7790  145.1830 C   0  0  0  0  0  2  0  0  0  0  0  0
  191.6770  176.4230  146.6630 C   0  0  1  0  0  3  0  0  0  0  0  0
  190.2440  177.1800  144.7190 C   0  0  0  0  0  2  0  0  0  0  0  0
  191.1630  174.9980  146.8350 C   0  0  0  0  0  2  0  0  0  0  0  0
  188.8010  175.9140  146.3080 C   0  0  0  0  0  2  0  0  0  0  0  0
  189.2410  176.0360  144.8500 C   0  0  1  0  0  3  0  0  0  0  0  0
  189.6580  174.9330  147.1120 C   0  0  0  0  0  2  0  0  0  0  0  0
  193.1180  176.5170  147.1500 C   0  0  0  0  0  2  0  0  0  0  0  0
  194.8410  177.7560  146.0190 O   0  0  0  0  0  1  0  0  0  0  0  0
  195.0050  175.4770  146.0760 O   0  0  0  0  0  1  0  0  0  0  0  0
  194.1250  176.5580  146.0030 C   0  0  0  0  0  3  0  0  0  0  0  0
  186.9080  174.7490  142.4630 O   0  0  0  0  0  0  0  0  0  0  0  0
  187.9660  175.2960  142.7370 C   0  0  0  0  0  0  0  0  0  0  0  0
  189.4180  174.9520  141.7470 S   0  0  0  0  0  0  0  0  0  0  0  0
  189.5380  172.2790  141.9860 N   0  0  0  0  0  1  0  0  0  0  0  0
  188.8150  173.3090  141.2570 C   0  0  2  0  0  3  0  0  0  0  0  0
  188.0070  172.7610  139.0860 O   0  0  0  0  0  0  0  0  0  0  0  0
  188.9900  173.1150  139.7900 C   0  0  0  0  0  0  0  0  0  0  0  0
  190.2490  173.3650  139.1700 N   0  0  0  0  0  1  0  0  0  0  0  0
  187.8520  177.7260  143.5030 C   0  0  0  0  0  2  0  0  0  0  0  0
  186.5380  177.9630  142.2630 S   0  0  0  0  0  0  0  0  0  0  0  0
  183.9570  178.3750  143.0660 C   0  0  0  0  0  2  0  0  0  0  0  0
  184.7720  178.8980  144.2240 C   0  0  2  0  0  0  0  0  0  0  0  0
  185.4550  180.2410  144.0050 C   0  0  0  0  0  1  0  0  0  0  0  0
  185.2300  177.6460  143.4900 C   0  0  2  0  0  3  0  0  0  0  0  0
  184.9540  178.4560  146.7180 C   0  0  0  0  0  0  0  0  0  0  0  0
  186.3760  178.5170  146.6790 N   0  0  0  0  0  1  0  0  0  0  0  0
  184.1800  178.6370  145.5300 N   0  0  0  0  0  2  0  0  0  0  0  0
  184.3700  178.2430  147.8120 O   0  0  0  0  0  0  0  0  0  0  0  0
  1 21  1  6  0  0  0
  2  3  1  0  0  0  0
  3  5  1  0  0  0  0
  3  9  1  6  0  0  0
  4  7  1  0  0  0  0
  4  2  1  0  0  0  0
  5  8  1  0  0  0  0
  6  8  1  0  0  0  0
  7  1  1  6  0  0  0
  7  6  1  0  0  0  0
 12 10  1  0  0  0  0
 12 11  1  0  0  0  0
 12  9  1  0  0  0  0
 13 14  2  0  0  0  0
 14  1  1  0  0  0  0
 15 14  1  0  0  0  0
 17 15  1  0  0  0  0
 17 16  1  1  0  0  0
 18 19  2  0  0  0  0
 19 17  1  0  0  0  0
 20 19  1  0  0  0  0
 22 21  1  0  0  0  0
 23 26  1  0  0  0  0
 23 24  1  0  0  0  0
 24 25  1  6  0  0  0
 24 29  1  0  0  0  0
 26 22  1  6  0  0  0
 26 24  1  0  0  0  0
 27 30  2  0  0  0  0
 28 27  1  0  0  0  0
 29 27  1  0  0  0  0
M  END
>  <MODEL>
1

>  <REMARK>
 VINA RESULT:      -6.1      0.000      0.000
  Name = 
  11 active torsions:
  status: ('A' for Active; 'I' for Inactive)
    1  A    between atoms: C_4  and  S_6
    2  A    between atoms: C_4  and  C_29
    3  A    between atoms: S_6  and  C_27
    4  A    between atoms: C_8  and  N_24
    5  A    between atoms: C_9  and  C_19
    6  A    between atoms: C_11  and  C_23
    7  A    between atoms: S_12  and  C_23
    8  A    between atoms: S_12  and  C_25
    9  A    between atoms: C_19  and  C_30
   10  A    between atoms: C_22  and  C_29
   11  A    between atoms: C_25  and  C_29
                            x       y       z     vdW  Elec       q    Type
                         _______ _______ _______ _____ _____    ______ ____

>  <TORSDO>
F 11

$$$$
=
 OpenBabel11062419423D

 30 31  0  0  1  0  0  0  0  0999 V2000
  189.4050  175.6140  142.9820 C   0  0  2  0  0  3  0  0  0  0  0  0
  186.7180  176.9600  145.3680 C   0  0  0  0  0  2  0  0  0  0  0  0
  187.1690  176.7030  146.8000 C   0  0  1  0  0  3  0  0  0  0  0  0
  187.3600  175.9920  144.3780 C   0  0  0  0  0  2  0  0  0  0  0  0
  188.5410  177.3370  147.0010 C   0  0  0  0  0  2  0  0  0  0  0  0
  189.5020  175.4400  145.5260 C   0  0  0  0  0  2  0  0  0  0  0  0
  188.8780  176.1440  144.3220 C   0  0  1  0  0  3  0  0  0  0  0  0
  189.6950  176.3680  146.7280 C   0  0  0  0  0  2  0  0  0  0  0  0
  186.1600  177.3390  147.7480 C   0  0  0  0  0  2  0  0  0  0  0  0
  184.1540  178.5650  147.2380 O   0  0  0  0  0  1  0  0  0  0  0  0
  186.0080  179.7380  147.8810 O   0  0  0  0  0  1  0  0  0  0  0  0
  185.5480  178.6190  147.1840 C   0  0  0  0  0  3  0  0  0  0  0  0
  188.2900  175.2100  140.9190 O   0  0  0  0  0  0  0  0  0  0  0  0
  188.6270  176.0290  141.7610 C   0  0  0  0  0  0  0  0  0  0  0  0
  188.1790  177.7500  141.5440 S   0  0  0  0  0  0  0  0  0  0  0  0
  186.2620  177.5930  139.6680 N   0  0  0  0  0  1  0  0  0  0  0  0
  186.4660  177.3490  141.0860 C   0  0  2  0  0  3  0  0  0  0  0  0
  184.2790  177.9510  141.8060 O   0  0  0  0  0  0  0  0  0  0  0  0
  185.5160  178.1700  141.8890 C   0  0  0  0  0  0  0  0  0  0  0  0
  185.9970  179.1740  142.7790 N   0  0  0  0  0  1  0  0  0  0  0  0
  189.7910  174.1340  143.0080 C   0  0  0  0  0  2  0  0  0  0  0  0
  191.3950  173.7920  142.2140 S   0  0  0  0  0  0  0  0  0  0  0  0
  193.6950  175.0160  143.0440 C   0  0  0  0  0  2  0  0  0  0  0  0
  192.9060  174.8510  144.3200 C   0  0  2  0  0  0  0  0  0  0  0  0
  192.8490  173.4400  144.8900 C   0  0  0  0  0  1  0  0  0  0  0  0
  192.1820  175.2160  143.0330 C   0  0  2  0  0  3  0  0  0  0  0  0
  194.2040  176.1410  146.0820 C   0  0  0  0  0  0  0  0  0  0  0  0
  195.2870  175.2170  146.0360 N   0  0  0  0  0  1  0  0  0  0  0  0
  193.0520  175.9590  145.2540 N   0  0  0  0  0  2  0  0  0  0  0  0
  194.2610  177.1290  146.8580 O   0  0  0  0  0  0  0  0  0  0  0  0
  1 21  1  1  0  0  0
  2  3  1  0  0  0  0
  3  5  1  0  0  0  0
  3  9  1  1  0  0  0
  4  2  1  0  0  0  0
  6  8  1  0  0  0  0
  7  1  1  6  0  0  0
  7  4  1  0  0  0  0
  7  6  1  0  0  0  0
  8  5  1  0  0  0  0
 12 10  1  0  0  0  0
 12  9  1  0  0  0  0
 12 11  1  0  0  0  0
 13 14  2  0  0  0  0
 14  1  1  0  0  0  0
 15 14  1  0  0  0  0
 17 16  1  6  0  0  0
 17 15  1  0  0  0  0
 17 19  1  0  0  0  0
 18 19  2  0  0  0  0
 19 20  1  0  0  0  0
 22 21  1  0  0  0  0
 23 24  1  0  0  0  0
 24 25  1  1  0  0  0
 24 29  1  0  0  0  0
 26 22  1  6  0  0  0
 26 23  1  0  0  0  0
 26 24  1  0  0  0  0
 27 30  2  0  0  0  0
 28 27  1  0  0  0  0
 29 27  1  0  0  0  0
M  END
>  <MODEL>
2

>  <REMARK>
 VINA RESULT:      -6.1      2.880      6.902
  Name = 
  11 active torsions:
  status: ('A' for Active; 'I' for Inactive)
    1  A    between atoms: C_4  and  S_6
    2  A    between atoms: C_4  and  C_29
    3  A    between atoms: S_6  and  C_27
    4  A    between atoms: C_8  and  N_24
    5  A    between atoms: C_9  and  C_19
    6  A    between atoms: C_11  and  C_23
    7  A    between atoms: S_12  and  C_23
    8  A    between atoms: S_12  and  C_25
    9  A    between atoms: C_19  and  C_30
   10  A    between atoms: C_22  and  C_29
   11  A    between atoms: C_25  and  C_29
                            x       y       z     vdW  Elec       q    Type
                         _______ _______ _______ _____ _____    ______ ____

>  <TORSDO>
F 11

$$$$
=
 OpenBabel11062419423D

 30 31  0  0  1  0  0  0  0  0999 V2000
  189.0380  175.5890  142.4840 C   0  0  2  0  0  3  0  0  0  0  0  0
  186.8710  177.3730  145.1010 C   0  0  0  0  0  2  0  0  0  0  0  0
  186.3910  178.6940  144.5130 C   0  0  1  0  0  3  0  0  0  0  0  0
  188.1550  176.8810  144.4410 C   0  0  0  0  0  2  0  0  0  0  0  0
  185.6620  178.4090  143.2040 C   0  0  0  0  0  2  0  0  0  0  0  0
  187.9760  177.8880  142.1690 C   0  0  0  0  0  2  0  0  0  0  0  0
  187.9640  176.5790  142.9570 C   0  0  1  0  0  3  0  0  0  0  0  0
  186.5790  178.4850  141.9800 C   0  0  0  0  0  2  0  0  0  0  0  0
  185.4380  179.3480  145.5060 C   0  0  0  0  0  2  0  0  0  0  0  0
  186.0740  179.7180  147.7960 O   0  0  0  0  0  1  0  0  0  0  0  0
  184.3250  178.3100  147.3710 O   0  0  0  0  0  1  0  0  0  0  0  0
  185.5620  178.7660  146.9130 C   0  0  0  0  0  3  0  0  0  0  0  0
  188.4630  174.9200  140.2740 O   0  0  0  0  0  0  0  0  0  0  0  0
  188.5980  174.5920  141.4440 C   0  0  0  0  0  0  0  0  0  0  0  0
  188.2770  172.8970  141.9260 S   0  0  0  0  0  0  0  0  0  0  0  0
  189.5910  171.7740  139.8690 N   0  0  0  0  0  1  0  0  0  0  0  0
  189.8330  172.2940  141.2040 C   0  0  2  0  0  3  0  0  0  0  0  0
  190.6140  171.4590  143.2920 O   0  0  0  0  0  0  0  0  0  0  0  0
  190.4220  171.2320  142.0690 C   0  0  0  0  0  0  0  0  0  0  0  0
  190.7320  169.9490  141.5320 N   0  0  0  0  0  1  0  0  0  0  0  0
  189.8700  174.9880  143.6180 C   0  0  0  0  0  2  0  0  0  0  0  0
  191.6550  174.9350  143.2550 S   0  0  0  0  0  0  0  0  0  0  0  0
  193.5230  176.4390  144.5680 C   0  0  0  0  0  2  0  0  0  0  0  0
  192.7950  175.7300  145.6850 C   0  0  2  0  0  0  0  0  0  0  0  0
  193.1190  174.2530  145.8600 C   0  0  0  0  0  1  0  0  0  0  0  0
  192.0120  176.2330  144.4810 C   0  0  2  0  0  3  0  0  0  0  0  0
  191.4610  176.4690  147.7160 C   0  0  0  0  0  0  0  0  0  0  0  0
  190.3880  175.5880  147.3970 N   0  0  0  0  0  1  0  0  0  0  0  0
  192.6220  176.5390  146.8850 N   0  0  0  0  0  2  0  0  0  0  0  0
  191.3870  177.1920  148.7420 O   0  0  0  0  0  0  0  0  0  0  0  0
  1 21  1  1  0  0  0
  3  2  1  0  0  0  0
  3  9  1  1  0  0  0
  4  2  1  0  0  0  0
  5  3  1  0  0  0  0
  6  7  1  0  0  0  0
  7  1  1  6  0  0  0
  7  4  1  0  0  0  0
  8  6  1  0  0  0  0
  8  5  1  0  0  0  0
  9 12  1  0  0  0  0
 12 11  1  0  0  0  0
 12 10  1  0  0  0  0
 13 14  2  0  0  0  0
 14 15  1  0  0  0  0
 14  1  1  0  0  0  0
 17 16  1  6  0  0  0
 17 15  1  0  0  0  0
 17 19  1  0  0  0  0
 19 18  2  0  0  0  0
 20 19  1  0  0  0  0
 22 21  1  0  0  0  0
 23 24  1  0  0  0  0
 24 25  1  1  0  0  0
 24 29  1  0  0  0  0
 26 22  1  6  0  0  0
 26 23  1  0  0  0  0
 26 24  1  0  0  0  0
 27 30  2  0  0  0  0
 28 27  1  0  0  0  0
 29 27  1  0  0  0  0
M  END
>  <MODEL>
3

>  <REMARK>
 VINA RESULT:      -6.1      2.715      6.331
  Name = 
  11 active torsions:
  status: ('A' for Active; 'I' for Inactive)
    1  A    between atoms: C_4  and  S_6
    2  A    between atoms: C_4  and  C_29
    3  A    between atoms: S_6  and  C_27
    4  A    between atoms: C_8  and  N_24
    5  A    between atoms: C_9  and  C_19
    6  A    between atoms: C_11  and  C_23
    7  A    between atoms: S_12  and  C_23
    8  A    between atoms: S_12  and  C_25
    9  A    between atoms: C_19  and  C_30
   10  A    between atoms: C_22  and  C_29
   11  A    between atoms: C_25  and  C_29
                            x       y       z     vdW  Elec       q    Type
                         _______ _______ _______ _____ _____    ______ ____

>  <TORSDO>
F 11

$$$$
=
 OpenBabel11062419423D

 30 31  0  0  1  0  0  0  0  0999 V2000
  190.1750  175.3690  143.1320 C   0  0  2  0  0  3  0  0  0  0  0  0
  187.6060  177.8550  144.5280 C   0  0  0  0  0  2  0  0  0  0  0  0
  187.2230  177.4160  145.9350 C   0  0  1  0  0  3  0  0  0  0  0  0
  188.1210  176.6950  143.6820 C   0  0  0  0  0  2  0  0  0  0  0  0
  188.4910  177.3090  146.7750 C   0  0  0  0  0  2  0  0  0  0  0  0
  189.0630  175.1790  145.4210 C   0  0  0  0  0  2  0  0  0  0  0  0
  189.4060  176.0930  144.2460 C   0  0  1  0  0  3  0  0  0  0  0  0
  189.0940  175.9010  146.7700 C   0  0  0  0  0  2  0  0  0  0  0  0
  186.2920  178.4650  146.5330 C   0  0  0  0  0  2  0  0  0  0  0  0
  183.9680  178.6520  145.9420 O   0  0  0  0  0  1  0  0  0  0  0  0
  184.7960  176.5810  146.4420 O   0  0  0  0  0  1  0  0  0  0  0  0
  184.8710  177.9430  146.7360 C   0  0  0  0  0  3  0  0  0  0  0  0
  190.8680  173.1560  143.6630 O   0  0  0  0  0  0  0  0  0  0  0  0
  190.0420  173.8690  143.1120 C   0  0  0  0  0  0  0  0  0  0  0  0
  188.6480  173.1180  142.2750 S   0  0  0  0  0  0  0  0  0  0  0  0
  188.1980  174.8920  140.3090 N   0  0  0  0  0  1  0  0  0  0  0  0
  189.1120  173.8190  140.6630 C   0  0  2  0  0  3  0  0  0  0  0  0
  188.0340  172.5630  138.9530 O   0  0  0  0  0  0  0  0  0  0  0  0
  189.0860  172.7580  139.6160 C   0  0  0  0  0  0  0  0  0  0  0  0
  190.2530  171.9900  139.3330 N   0  0  0  0  0  1  0  0  0  0  0  0
  191.6040  175.8770  142.9330 C   0  0  0  0  0  2  0  0  0  0  0  0
  192.2400  176.8200  144.3570 S   0  0  0  0  0  0  0  0  0  0  0  0
  192.9250  175.1920  146.4440 C   0  0  0  0  0  2  0  0  0  0  0  0
  194.2480  175.7650  145.9980 C   0  0  2  0  0  0  0  0  0  0  0  0
  194.5090  177.2160  146.3800 C   0  0  0  0  0  1  0  0  0  0  0  0
  193.2030  175.3950  144.9570 C   0  0  2  0  0  3  0  0  0  0  0  0
  196.4080  174.7620  145.1140 C   0  0  0  0  0  0  0  0  0  0  0  0
  196.4130  175.6330  143.9880 N   0  0  0  0  0  1  0  0  0  0  0  0
  195.3580  174.8260  146.0830 N   0  0  0  0  0  2  0  0  0  0  0  0
  197.3390  173.9300  145.2610 O   0  0  0  0  0  0  0  0  0  0  0  0
  1 21  1  1  0  0  0
  2  3  1  0  0  0  0
  3  9  1  1  0  0  0
  3  5  1  0  0  0  0
  4  7  1  0  0  0  0
  4  2  1  0  0  0  0
  6  8  1  0  0  0  0
  7  1  1  6  0  0  0
  7  6  1  0  0  0  0
  8  5  1  0  0  0  0
  9 12  1  0  0  0  0
 10 12  1  0  0  0  0
 11 12  1  0  0  0  0
 14  1  1  0  0  0  0
 14 13  2  0  0  0  0
 15 14  1  0  0  0  0
 17 16  1  6  0  0  0
 17 15  1  0  0  0  0
 18 19  2  0  0  0  0
 19 17  1  0  0  0  0
 20 19  1  0  0  0  0
 21 22  1  0  0  0  0
 24 29  1  0  0  0  0
 24 25  1  1  0  0  0
 24 23  1  0  0  0  0
 26 22  1  1  0  0  0
 26 24  1  0  0  0  0
 26 23  1  0  0  0  0
 27 30  2  0  0  0  0
 27 29  1  0  0  0  0
 28 27  1  0  0  0  0
M  END
>  <MODEL>
4

>  <REMARK>
 VINA RESULT:      -6.1      3.002      7.070
  Name = 
  11 active torsions:
  status: ('A' for Active; 'I' for Inactive)
    1  A    between atoms: C_4  and  S_6
    2  A    between atoms: C_4  and  C_29
    3  A    between atoms: S_6  and  C_27
    4  A    between atoms: C_8  and  N_24
    5  A    between atoms: C_9  and  C_19
    6  A    between atoms: C_11  and  C_23
    7  A    between atoms: S_12  and  C_23
    8  A    between atoms: S_12  and  C_25
    9  A    between atoms: C_19  and  C_30
   10  A    between atoms: C_22  and  C_29
   11  A    between atoms: C_25  and  C_29
                            x       y       z     vdW  Elec       q    Type
                         _______ _______ _______ _____ _____    ______ ____

>  <TORSDO>
F 11

$$$$
=
 OpenBabel11062419423D

 30 31  0  0  1  0  0  0  0  0999 V2000
  189.8930  175.7760  142.7710 C   0  0  2  0  0  3  0  0  0  0  0  0
  187.5380  177.8180  145.0090 C   0  0  0  0  0  2  0  0  0  0  0  0
  186.4270  178.3960  144.1420 C   0  0  1  0  0  3  0  0  0  0  0  0
  188.7980  177.5150  144.2050 C   0  0  0  0  0  2  0  0  0  0  0  0
  185.7360  177.2520  143.4080 C   0  0  0  0  0  2  0  0  0  0  0  0
  187.8590  177.0730  141.9390 C   0  0  0  0  0  2  0  0  0  0  0  0
  188.5620  176.4450  143.1410 C   0  0  1  0  0  3  0  0  0  0  0  0
  186.3340  176.9820  142.0240 C   0  0  0  0  0  2  0  0  0  0  0  0
  185.4290  179.1100  145.0460 C   0  0  0  0  0  2  0  0  0  0  0  0
  185.6380  179.4660  147.4160 O   0  0  0  0  0  1  0  0  0  0  0  0
  184.1080  177.9360  146.6810 O   0  0  0  0  0  1  0  0  0  0  0  0
  185.3620  178.5020  146.4460 C   0  0  0  0  0  3  0  0  0  0  0  0
  189.9850  174.1220  144.4790 O   0  0  0  0  0  0  0  0  0  0  0  0
  190.0880  174.3740  143.2880 C   0  0  0  0  0  0  0  0  0  0  0  0
  190.4690  173.0550  142.1380 S   0  0  0  0  0  0  0  0  0  0  0  0
  187.7940  172.9190  141.9290 N   0  0  0  0  0  1  0  0  0  0  0  0
  188.9580  173.3360  141.1650 C   0  0  2  0  0  3  0  0  0  0  0  0
  188.0370  172.5800  139.1050 O   0  0  0  0  0  0  0  0  0  0  0  0
  189.0270  172.5790  139.8830 C   0  0  0  0  0  0  0  0  0  0  0  0
  190.2160  171.8880  139.5110 N   0  0  0  0  0  1  0  0  0  0  0  0
  191.1120  176.6840  142.9400 C   0  0  0  0  0  2  0  0  0  0  0  0
  192.6470  175.7730  143.3090 S   0  0  0  0  0  0  0  0  0  0  0  0
  194.3760  176.4950  145.3000 C   0  0  0  0  0  2  0  0  0  0  0  0
  193.1930  175.9350  146.0510 C   0  0  2  0  0  0  0  0  0  0  0  0
  193.0480  174.4190  146.0300 C   0  0  0  0  0  1  0  0  0  0  0  0
  192.9600  176.7700  144.8010 C   0  0  2  0  0  3  0  0  0  0  0  0
  191.5760  176.7540  147.8300 C   0  0  0  0  0  0  0  0  0  0  0  0
  190.4590  176.1890  147.1500 N   0  0  0  0  0  1  0  0  0  0  0  0
  192.8960  176.6330  147.2950 N   0  0  0  0  0  2  0  0  0  0  0  0
  191.4000  177.3650  148.9150 O   0  0  0  0  0  0  0  0  0  0  0  0
  1 21  1  1  0  0  0
  1 14  1  0  0  0  0
  3  2  1  0  0  0  0
  3  9  1  1  0  0  0
  4  2  1  0  0  0  0
  5  3  1  0  0  0  0
  6  8  1  0  0  0  0
  6  7  1  0  0  0  0
  7  1  1  6  0  0  0
  7  4  1  0  0  0  0
  8  5  1  0  0  0  0
  9 12  1  0  0  0  0
 12 11  1  0  0  0  0
 12 10  1  0  0  0  0
 14 13  2  0  0  0  0
 15 14  1  0  0  0  0
 17 16  1  1  0  0  0
 17 15  1  0  0  0  0
 18 19  2  0  0  0  0
 19 17  1  0  0  0  0
 20 19  1  0  0  0  0
 21 22  1  0  0  0  0
 23 24  1  0  0  0  0
 24 25  1  6  0  0  0
 24 29  1  0  0  0  0
 26 22  1  6  0  0  0
 26 23  1  0  0  0  0
 26 24  1  0  0  0  0
 27 30  2  0  0  0  0
 28 27  1  0  0  0  0
 29 27  1  0  0  0  0
M  END
>  <MODEL>
5

>  <REMARK>
 VINA RESULT:      -6.0      2.729      6.297
  Name = 
  11 active torsions:
  status: ('A' for Active; 'I' for Inactive)
    1  A    between atoms: C_4  and  S_6
    2  A    between atoms: C_4  and  C_29
    3  A    between atoms: S_6  and  C_27
    4  A    between atoms: C_8  and  N_24
    5  A    between atoms: C_9  and  C_19
    6  A    between atoms: C_11  and  C_23
    7  A    between atoms: S_12  and  C_23
    8  A    between atoms: S_12  and  C_25
    9  A    between atoms: C_19  and  C_30
   10  A    between atoms: C_22  and  C_29
   11  A    between atoms: C_25  and  C_29
                            x       y       z     vdW  Elec       q    Type
                         _______ _______ _______ _____ _____    ______ ____

>  <TORSDO>
F 11

$$$$
=
 OpenBabel11062419423D

 30 31  0  0  1  0  0  0  0  0999 V2000
  189.8700  174.8960  145.0290 C   0  0  2  0  0  3  0  0  0  0  0  0
  186.3760  176.4810  145.1020 C   0  0  0  0  0  2  0  0  0  0  0  0
  186.2370  177.4040  143.8990 C   0  0  1  0  0  3  0  0  0  0  0  0
  187.8320  176.2740  145.5060 C   0  0  0  0  0  2  0  0  0  0  0  0
  186.5200  176.6020  142.6330 C   0  0  0  0  0  2  0  0  0  0  0  0
  189.0110  176.6020  143.3350 C   0  0  0  0  0  2  0  0  0  0  0  0
  188.6430  175.5830  144.4120 C   0  0  1  0  0  3  0  0  0  0  0  0
  187.9870  176.6670  142.1990 C   0  0  0  0  0  2  0  0  0  0  0  0
  184.8120  177.9440  143.8630 C   0  0  0  0  0  2  0  0  0  0  0  0
  183.9040  179.0390  145.8030 O   0  0  0  0  0  1  0  0  0  0  0  0
  185.9030  179.7780  144.9770 O   0  0  0  0  0  1  0  0  0  0  0  0
  184.6560  179.2460  144.6450 C   0  0  0  0  0  3  0  0  0  0  0  0
  189.6900  172.5320  145.2280 O   0  0  0  0  0  0  0  0  0  0  0  0
  190.1200  173.4790  144.5850 C   0  0  0  0  0  0  0  0  0  0  0  0
  191.0540  173.1760  143.0870 S   0  0  0  0  0  0  0  0  0  0  0  0
  190.3250  171.1540  141.4750 N   0  0  0  0  0  1  0  0  0  0  0  0
  189.7420  172.1470  142.3610 C   0  0  2  0  0  3  0  0  0  0  0  0
  187.5870  173.0950  142.0060 O   0  0  0  0  0  0  0  0  0  0  0  0
  188.7790  173.0010  141.6090 C   0  0  0  0  0  0  0  0  0  0  0  0
  189.2040  173.7430  140.4690 N   0  0  0  0  0  1  0  0  0  0  0  0
  190.0130  175.1190  146.5350 C   0  0  0  0  0  2  0  0  0  0  0  0
  191.2040  176.4300  146.9620 S   0  0  0  0  0  0  0  0  0  0  0  0
  193.8960  176.2410  146.5190 C   0  0  0  0  0  2  0  0  0  0  0  0
  193.2960  175.9000  145.1770 C   0  0  2  0  0  0  0  0  0  0  0  0
  192.7320  177.0710  144.3820 C   0  0  0  0  0  1  0  0  0  0  0  0
  192.6200  175.4060  146.4470 C   0  0  2  0  0  3  0  0  0  0  0  0
  195.2860  175.0890  143.8240 C   0  0  0  0  0  0  0  0  0  0  0  0
  195.9110  176.3680  143.8780 N   0  0  0  0  0  1  0  0  0  0  0  0
  194.0200  174.8670  144.4500 N   0  0  0  0  0  2  0  0  0  0  0  0
  195.8560  174.1440  143.2210 O   0  0  0  0  0  0  0  0  0  0  0  0
  1 21  1  1  0  0  0
  2  4  1  0  0  0  0
  3  9  1  6  0  0  0
  3  2  1  0  0  0  0
  5  3  1  0  0  0  0
  6  7  1  0  0  0  0
  7  1  1  1  0  0  0
  7  4  1  0  0  0  0
  8  5  1  0  0  0  0
  8  6  1  0  0  0  0
  9 12  1  0  0  0  0
 12 11  1  0  0  0  0
 12 10  1  0  0  0  0
 14  1  1  0  0  0  0
 14 13  2  0  0  0  0
 15 14  1  0  0  0  0
 17 16  1  6  0  0  0
 17 15  1  0  0  0  0
 19 18  2  0  0  0  0
 19 17  1  0  0  0  0
 20 19  1  0  0  0  0
 21 22  1  0  0  0  0
 24 25  1  6  0  0  0
 24 26  1  0  0  0  0
 24 23  1  0  0  0  0
 26 23  1  0  0  0  0
 26 22  1  1  0  0  0
 27 28  1  0  0  0  0
 27 29  1  0  0  0  0
 29 24  1  0  0  0  0
 30 27  2  0  0  0  0
M  END
>  <MODEL>
6

>  <REMARK>
 VINA RESULT:      -5.9      3.070      7.151
  Name = 
  11 active torsions:
  status: ('A' for Active; 'I' for Inactive)
    1  A    between atoms: C_4  and  S_6
    2  A    between atoms: C_4  and  C_29
    3  A    between atoms: S_6  and  C_27
    4  A    between atoms: C_8  and  N_24
    5  A    between atoms: C_9  and  C_19
    6  A    between atoms: C_11  and  C_23
    7  A    between atoms: S_12  and  C_23
    8  A    between atoms: S_12  and  C_25
    9  A    between atoms: C_19  and  C_30
   10  A    between atoms: C_22  and  C_29
   11  A    between atoms: C_25  and  C_29
                            x       y       z     vdW  Elec       q    Type
                         _______ _______ _______ _____ _____    ______ ____

>  <TORSDO>
F 11

$$$$
=
 OpenBabel11062419423D

 30 31  0  0  1  0  0  0  0  0999 V2000
  189.9360  174.8750  143.9230 C   0  0  2  0  0  3  0  0  0  0  0  0
  186.8750  176.8840  145.0720 C   0  0  0  0  0  2  0  0  0  0  0  0
  186.9550  178.2780  144.4660 C   0  0  1  0  0  3  0  0  0  0  0  0
  188.2460  176.2250  145.1880 C   0  0  0  0  0  2  0  0  0  0  0  0
  187.0680  178.1460  142.9510 C   0  0  0  0  0  2  0  0  0  0  0  0
  189.4900  177.3160  143.3250 C   0  0  0  0  0  2  0  0  0  0  0  0
  188.8960  176.0000  143.8250 C   0  0  1  0  0  3  0  0  0  0  0  0
  188.5180  178.1210  142.4590 C   0  0  0  0  0  2  0  0  0  0  0  0
  185.6840  179.0380  144.8270 C   0  0  0  0  0  2  0  0  0  0  0  0
  185.6020  179.4070  147.2020 O   0  0  0  0  0  1  0  0  0  0  0  0
  183.7090  178.6710  146.1540 O   0  0  0  0  0  1  0  0  0  0  0  0
  185.1030  178.6080  146.1720 C   0  0  0  0  0  3  0  0  0  0  0  0
  190.9280  173.3010  142.4410 O   0  0  0  0  0  0  0  0  0  0  0  0
  189.9060  173.8560  142.8150 C   0  0  0  0  0  0  0  0  0  0  0  0
  188.3450  173.4420  142.0400 S   0  0  0  0  0  0  0  0  0  0  0  0
  187.8210  175.4900  140.3810 N   0  0  0  0  0  1  0  0  0  0  0  0
  188.7380  174.3710  140.5270 C   0  0  2  0  0  3  0  0  0  0  0  0
  188.1440  173.9100  138.2690 O   0  0  0  0  0  0  0  0  0  0  0  0
  188.6480  173.4770  139.3380 C   0  0  0  0  0  0  0  0  0  0  0  0
  189.1620  172.1480  139.3900 N   0  0  0  0  0  1  0  0  0  0  0  0
  190.0730  174.2780  145.3240 C   0  0  0  0  0  2  0  0  0  0  0  0
  191.4180  175.0260  146.3010 S   0  0  0  0  0  0  0  0  0  0  0  0
  193.7380  174.3080  145.0440 C   0  0  0  0  0  2  0  0  0  0  0  0
  193.8390  175.8110  145.1350 C   0  0  2  0  0  0  0  0  0  0  0  0
  194.1610  176.3760  146.5120 C   0  0  0  0  0  1  0  0  0  0  0  0
  192.4930  175.1670  144.8370 C   0  0  2  0  0  3  0  0  0  0  0  0
  195.8190  176.1770  143.5870 C   0  0  0  0  0  0  0  0  0  0  0  0
  196.6370  175.2850  144.3370 N   0  0  0  0  0  1  0  0  0  0  0  0
  194.4680  176.4330  143.9770 N   0  0  0  0  0  2  0  0  0  0  0  0
  196.2900  176.7460  142.5690 O   0  0  0  0  0  0  0  0  0  0  0  0
  1 21  1  1  0  0  0
  2  4  1  0  0  0  0
  3  9  1  6  0  0  0
  3  2  1  0  0  0  0
  5  3  1  0  0  0  0
  6  7  1  0  0  0  0
  7  1  1  1  0  0  0
  7  4  1  0  0  0  0
  8  5  1  0  0  0  0
  8  6  1  0  0  0  0
  9 12  1  0  0  0  0
 11 12  1  0  0  0  0
 12 10  1  0  0  0  0
 13 14  2  0  0  0  0
 14  1  1  0  0  0  0
 15 14  1  0  0  0  0
 17 16  1  6  0  0  0
 17 15  1  0  0  0  0
 18 19  2  0  0  0  0
 19 20  1  0  0  0  0
 19 17  1  0  0  0  0
 21 22  1  0  0  0  0
 23 24  1  0  0  0  0
 24 25  1  1  0  0  0
 26 23  1  0  0  0  0
 26 24  1  0  0  0  0
 26 22  1  1  0  0  0
 27 29  1  0  0  0  0
 27 28  1  0  0  0  0
 29 24  1  0  0  0  0
 30 27  2  0  0  0  0
M  END
>  <MODEL>
7

>  <REMARK>
 VINA RESULT:      -5.9      2.840      7.202
  Name = 
  11 active torsions:
  status: ('A' for Active; 'I' for Inactive)
    1  A    between atoms: C_4  and  S_6
    2  A    between atoms: C_4  and  C_29
    3  A    between atoms: S_6  and  C_27
    4  A    between atoms: C_8  and  N_24
    5  A    between atoms: C_9  and  C_19
    6  A    between atoms: C_11  and  C_23
    7  A    between atoms: S_12  and  C_23
    8  A    between atoms: S_12  and  C_25
    9  A    between atoms: C_19  and  C_30
   10  A    between atoms: C_22  and  C_29
   11  A    between atoms: C_25  and  C_29
                            x       y       z     vdW  Elec       q    Type
                         _______ _______ _______ _____ _____    ______ ____

>  <TORSDO>
F 11

$$$$
=
 OpenBabel11062419423D

 30 31  0  0  1  0  0  0  0  0999 V2000
  191.7120  175.0900  145.7790 C   0  0  2  0  0  3  0  0  0  0  0  0
  188.1920  175.6440  147.2050 C   0  0  0  0  0  2  0  0  0  0  0  0
  187.6640  176.9760  146.6870 C   0  0  1  0  0  3  0  0  0  0  0  0
  189.7160  175.5910  147.2100 C   0  0  0  0  0  2  0  0  0  0  0  0
  187.7130  176.9610  145.1640 C   0  0  0  0  0  2  0  0  0  0  0  0
  190.2850  177.1660  145.3640 C   0  0  0  0  0  2  0  0  0  0  0  0
  190.3040  175.7030  145.8050 C   0  0  1  0  0  3  0  0  0  0  0  0
  189.0130  177.5430  144.6010 C   0  0  0  0  0  2  0  0  0  0  0  0
  186.2240  177.1420  147.1580 C   0  0  0  0  0  2  0  0  0  0  0  0
  187.0440  179.0410  148.3880 O   0  0  0  0  0  1  0  0  0  0  0  0
  185.5990  179.4120  146.6560 O   0  0  0  0  0  1  0  0  0  0  0  0
  185.9390  178.5440  147.6940 C   0  0  0  0  0  3  0  0  0  0  0  0
  193.2730  176.7370  146.4960 O   0  0  0  0  0  0  0  0  0  0  0  0
  192.8450  176.0600  145.5720 C   0  0  0  0  0  0  0  0  0  0  0  0
  193.5850  176.2180  143.9480 S   0  0  0  0  0  0  0  0  0  0  0  0
  196.2050  176.7150  143.6230 N   0  0  0  0  0  1  0  0  0  0  0  0
  195.2780  176.1840  144.6090 C   0  0  2  0  0  3  0  0  0  0  0  0
  196.0640  174.5350  146.1350 O   0  0  0  0  0  0  0  0  0  0  0  0
  195.6590  174.7890  144.9700 C   0  0  0  0  0  0  0  0  0  0  0  0
  195.5330  173.7330  144.0200 N   0  0  0  0  0  1  0  0  0  0  0  0
  191.8170  173.8120  144.9460 C   0  0  0  0  0  2  0  0  0  0  0  0
  190.2140  173.2390  144.2970 S   0  0  0  0  0  0  0  0  0  0  0  0
  189.7740  174.9110  142.1790 C   0  0  0  0  0  2  0  0  0  0  0  0
  189.5130  173.5410  141.6030 C   0  0  2  0  0  0  0  0  0  0  0  0
  188.2020  172.8840  142.0120 C   0  0  0  0  0  1  0  0  0  0  0  0
  190.6480  173.7320  142.5980 C   0  0  2  0  0  3  0  0  0  0  0  0
  190.4740  172.1610  139.6990 C   0  0  0  0  0  0  0  0  0  0  0  0
  190.5930  171.0070  140.5260 N   0  0  0  0  0  1  0  0  0  0  0  0
  189.9550  173.3850  140.2230 N   0  0  0  0  0  2  0  0  0  0  0  0
  190.8270  172.1010  138.4940 O   0  0  0  0  0  0  0  0  0  0  0  0
  1 21  1  6  0  0  0
  2  4  1  0  0  0  0
  3  9  1  6  0  0  0
  3  2  1  0  0  0  0
  5  3  1  0  0  0  0
  6  7  1  0  0  0  0
  7  1  1  1  0  0  0
  7  4  1  0  0  0  0
  8  5  1  0  0  0  0
  8  6  1  0  0  0  0
  9 12  1  0  0  0  0
 11 12  1  0  0  0  0
 12 10  1  0  0  0  0
 14  1  1  0  0  0  0
 14 13  2  0  0  0  0
 15 17  1  0  0  0  0
 15 14  1  0  0  0  0
 17 16  1  6  0  0  0
 17 19  1  0  0  0  0
 19 18  2  0  0  0  0
 20 19  1  0  0  0  0
 22 21  1  0  0  0  0
 23 26  1  0  0  0  0
 24 25  1  1  0  0  0
 24 23  1  0  0  0  0
 24 26  1  0  0  0  0
 26 22  1  1  0  0  0
 27 29  1  0  0  0  0
 27 28  1  0  0  0  0
 29 24  1  0  0  0  0
 30 27  2  0  0  0  0
M  END
>  <MODEL>
8

>  <REMARK>
 VINA RESULT:      -5.9      3.520      7.434
  Name = 
  11 active torsions:
  status: ('A' for Active; 'I' for Inactive)
    1  A    between atoms: C_4  and  S_6
    2  A    between atoms: C_4  and  C_29
    3  A    between atoms: S_6  and  C_27
    4  A    between atoms: C_8  and  N_24
    5  A    between atoms: C_9  and  C_19
    6  A    between atoms: C_11  and  C_23
    7  A    between atoms: S_12  and  C_23
    8  A    between atoms: S_12  and  C_25
    9  A    between atoms: C_19  and  C_30
   10  A    between atoms: C_22  and  C_29
   11  A    between atoms: C_25  and  C_29
                            x       y       z     vdW  Elec       q    Type
                         _______ _______ _______ _____ _____    ______ ____

>  <TORSDO>
F 11

$$$$
=
 OpenBabel11062419423D

 30 31  0  0  1  0  0  0  0  0999 V2000
  190.8000  174.6370  143.5370 C   0  0  2  0  0  3  0  0  0  0  0  0
  188.0580  177.2920  143.9350 C   0  0  0  0  0  2  0  0  0  0  0  0
  187.4500  177.1560  145.3240 C   0  0  1  0  0  3  0  0  0  0  0  0
  188.6940  175.9920  143.4530 C   0  0  0  0  0  2  0  0  0  0  0  0
  188.5650  177.2670  146.3580 C   0  0  0  0  0  2  0  0  0  0  0  0
  189.3320  174.9130  145.6070 C   0  0  0  0  0  2  0  0  0  0  0  0
  189.8670  175.5620  144.3320 C   0  0  1  0  0  3  0  0  0  0  0  0
  189.1510  175.9090  146.7550 C   0  0  0  0  0  2  0  0  0  0  0  0
  186.4420  178.2820  145.5250 C   0  0  0  0  0  2  0  0  0  0  0  0
  184.6470  178.0650  143.9390 O   0  0  0  0  0  1  0  0  0  0  0  0
  185.5680  180.1320  144.2570 O   0  0  0  0  0  1  0  0  0  0  0  0
  185.8260  178.7620  144.2130 C   0  0  0  0  0  3  0  0  0  0  0  0
  191.6230  172.6870  144.6240 O   0  0  0  0  0  0  0  0  0  0  0  0
  190.7570  173.1800  143.9160 C   0  0  0  0  0  0  0  0  0  0  0  0
  189.4100  172.1560  143.3290 S   0  0  0  0  0  0  0  0  0  0  0  0
  188.2150  173.0620  141.1000 N   0  0  0  0  0  1  0  0  0  0  0  0
  189.5410  172.7880  141.6290 C   0  0  2  0  0  3  0  0  0  0  0  0
  190.3820  172.0290  139.5360 O   0  0  0  0  0  0  0  0  0  0  0  0
  190.2420  171.7960  140.7660 C   0  0  0  0  0  0  0  0  0  0  0  0
  190.7880  170.6050  141.3260 N   0  0  0  0  0  1  0  0  0  0  0  0
  192.2100  175.1960  143.3450 C   0  0  0  0  0  2  0  0  0  0  0  0
  192.5320  176.7000  144.3230 S   0  0  0  0  0  0  0  0  0  0  0  0
  194.1970  176.7290  146.4920 C   0  0  0  0  0  2  0  0  0  0  0  0
  194.9350  175.8690  145.4950 C   0  0  2  0  0  0  0  0  0  0  0  0
  195.5950  176.6060  144.3380 C   0  0  0  0  0  1  0  0  0  0  0  0
  193.4210  175.7590  145.6040 C   0  0  2  0  0  3  0  0  0  0  0  0
  195.7940  173.4790  145.4620 C   0  0  0  0  0  0  0  0  0  0  0  0
  195.2140  173.2320  144.1850 N   0  0  0  0  0  1  0  0  0  0  0  0
  195.6550  174.7530  146.0950 N   0  0  0  0  0  2  0  0  0  0  0  0
  196.4390  172.5660  146.0390 O   0  0  0  0  0  0  0  0  0  0  0  0
  1 21  1  1  0  0  0
  1 14  1  0  0  0  0
  2  3  1  0  0  0  0
  3  9  1  1  0  0  0
  3  5  1  0  0  0  0
  4  2  1  0  0  0  0
  4  7  1  0  0  0  0
  5  8  1  0  0  0  0
  6  8  1  0  0  0  0
  7  1  1  6  0  0  0
  7  6  1  0  0  0  0
 10 12  1  0  0  0  0
 12 11  1  0  0  0  0
 12  9  1  0  0  0  0
 14 13  2  0  0  0  0
 15 14  1  0  0  0  0
 17 16  1  6  0  0  0
 17 15  1  0  0  0  0
 18 19  2  0  0  0  0
 19 20  1  0  0  0  0
 19 17  1  0  0  0  0
 21 22  1  0  0  0  0
 24 25  1  6  0  0  0
 24 26  1  0  0  0  0
 24 29  1  0  0  0  0
 24 23  1  0  0  0  0
 26 22  1  6  0  0  0
 26 23  1  0  0  0  0
 27 30  2  0  0  0  0
 27 29  1  0  0  0  0
 28 27  1  0  0  0  0
M  END
>  <MODEL>
9

>  <REMARK>
 VINA RESULT:      -5.8      3.251      7.245
  Name = 
  11 active torsions:
  status: ('A' for Active; 'I' for Inactive)
    1  A    between atoms: C_4  and  S_6
    2  A    between atoms: C_4  and  C_29
    3  A    between atoms: S_6  and  C_27
    4  A    between atoms: C_8  and  N_24
    5  A    between atoms: C_9  and  C_19
    6  A    between atoms: C_11  and  C_23
    7  A    between atoms: S_12  and  C_23
    8  A    between atoms: S_12  and  C_25
    9  A    between atoms: C_19  and  C_30
   10  A    between atoms: C_22  and  C_29
   11  A    between atoms: C_25  and  C_29
                            x       y       z     vdW  Elec       q    Type
                         _______ _______ _______ _____ _____    ______ ____

>  <TORSDO>
F 11

$$$$
