=
 OpenBabel11072408413D

 65 70  0  0  1  0  0  0  0  0999 V2000
  188.3750  171.9440  142.2140 O   0  0  0  0  0  0  0  0  0  0  0  0
  194.7980  170.1770  142.5920 C   0  0  1  0  0  3  0  0  0  0  0  0
  189.7910  173.6910  142.7700 O   0  0  0  0  0  0  0  0  0  0  0  0
  189.6290  173.9780  137.7880 N   0  0  0  0  0  0  0  0  0  0  0  0
  190.6260  172.4690  144.6430 C   0  0  0  0  0  3  0  0  0  0  0  0
  194.7990  168.1660  143.8990 O   0  0  0  0  0  0  0  0  0  0  0  0
  197.8300  174.5000  135.4200 C   0  0  0  0  0  3  0  0  0  0  0  0
  195.4590  171.9760  138.8790 N   0  0  0  0  0  2  0  0  0  0  0  0
  195.9750  170.7760  141.7960 C   0  0  2  0  0  3  0  0  0  0  0  0
  190.7140  173.8480  138.5070 C   0  0  0  0  0  0  0  0  0  0  0  0
  197.1350  169.3380  143.4570 P   0  0  2  0  0  0  0  0  0  0  0  0
  190.5840  173.5280  139.9540 C   0  0  0  0  0  3  0  0  0  0  0  0
  191.5450  169.5350  141.0420 C   0  0  0  0  0  2  0  0  0  0  0  0
  197.9410  175.7020  134.5870 C   0  0  0  0  0  3  0  0  0  0  0  0
  197.1930  170.7640  142.5230 O   0  0  0  0  0  0  0  0  0  0  0  0
  188.2900  173.7640  138.3560 C   0  0  0  0  0  2  0  0  0  0  0  0
  189.7880  173.4020  144.1530 C   0  0  0  0  0  0  0  0  0  0  0  0
  193.7850  169.6910  141.7230 O   0  0  0  0  0  0  0  0  0  0  0  0
  191.9730  174.1760  137.9420 N   0  0  0  0  0  2  0  0  0  0  0  0
  194.6770  172.1730  140.1030 C   0  0  0  0  0  2  0  0  0  0  0  0
  191.9480  170.9160  142.9360 C   0  0  0  0  0  0  0  0  0  0  0  0
  195.8140  175.4840  136.4580 C   0  0  1  0  0  3  0  0  0  0  0  0
  195.6650  176.3320  135.1800 C   0  0  0  0  0  2  0  0  0  0  0  0
  193.0250  173.1730  137.8310 C   0  0  2  0  0  3  0  0  0  0  0  0
  188.3370  172.6820  139.4430 C   0  0  0  0  0  2  0  0  0  0  0  0
  192.4330  170.0250  141.9000 C   0  0  0  0  0  0  0  0  0  0  0  0
  194.4660  174.9060  136.8030 C   0  0  0  0  0  3  0  0  0  0  0  0
  196.7340  173.1210  137.1160 C   0  0  0  0  0  2  0  0  0  0  0  0
  189.2070  172.8230  141.8440 C   0  0  0  0  0  0  0  0  0  0  0  0
  196.9630  176.5500  134.5140 N   0  0  0  0  0  0  0  0  0  0  0  0
  197.9080  168.1980  142.8080 O   0  0  0  0  0  0  0  0  0  0  0  0
  196.8150  174.3730  136.2780 C   0  0  0  0  0  0  0  0  0  0  0  0
  195.6480  173.2530  138.2040 C   0  0  1  0  0  3  0  0  0  0  0  0
  195.4110  169.0790  143.3500 C   0  0  0  0  0  0  0  0  0  0  0  0
  195.5770  172.1900  141.3490 C   0  0  2  0  0  3  0  0  0  0  0  0
  189.4250  173.0270  140.4130 C   0  0  0  0  0  0  0  0  0  0  0  0
  197.6690  169.5890  145.0590 O   0  0  0  0  0  1  0  0  0  0  0  0
  191.4230  171.6380  143.7500 C   0  0  0  0  0  0  0  0  0  0  0  0
  194.3690  173.8330  137.6170 C   0  0  0  0  0  0  0  0  0  0  0  0
  188.5930  175.4470  144.9990 C   0  0  0  0  0  0  0  0  0  0  0  0
  190.0950  178.1200  145.4570 C   0  0  0  0  0  2  0  0  0  0  0  0
  188.7900  174.1260  144.9830 C   0  0  0  0  0  3  0  0  0  0  0  0
  189.3030  176.2610  144.1120 O   0  0  0  0  0  0  0  0  0  0  0  0
  188.5100  176.8490  147.1260 C   0  0  2  0  0  3  0  0  0  0  0  0
  189.9640  177.1840  146.6940 C   0  0  2  0  0  3  0  0  0  0  0  0
  189.2510  177.6760  144.2620 C   0  0  2  0  0  3  0  0  0  0  0  0
  187.7200  176.0740  146.0670 C   0  0  0  0  0  2  0  0  0  0  0  0
  191.5250  176.6250  148.1980 C   0  0  0  0  0  1  0  0  0  0  0  0
  190.7480  177.6900  147.7400 O   0  0  0  0  0  0  0  0  0  0  0  0
  186.4540  177.6740  147.3680 C   0  0  0  0  0  1  0  0  0  0  0  0
  187.8080  177.9920  147.5120 O   0  0  0  0  0  0  0  0  0  0  0  0
  189.6850  178.3360  143.0360 N   0  0  0  0  0  2  0  0  0  0  0  0
  188.7920  177.9490  141.9510 C   0  0  0  0  0  2  0  0  0  0  0  0
  187.3380  178.2740  142.2870 C   0  0  0  0  0  2  0  0  0  0  0  0
  186.4070  177.3240  141.6880 N   0  0  0  0  0  2  0  0  0  0  0  0
  185.8950  177.8740  140.4320 C   0  0  0  0  0  1  0  0  0  0  0  0
  192.7380  172.3030  136.6760 C   0  0  0  0  0  0  0  0  0  0  0  0
  192.4730  171.5940  135.7370 C   0  0  0  0  0  3  0  0  0  0  0  0
  196.7490  173.1630  141.2270 C   0  0  0  0  0  2  0  0  0  0  0  0
  196.3590  174.4230  141.6950 O   0  0  0  0  0  0  0  0  0  0  0  0
  195.8390  174.1710  142.9810 C   0  0  0  0  0  2  0  0  0  0  0  0
  194.3730  176.0020  142.3580 O   0  0  0  0  0  1  0  0  0  0  0  0
  194.4850  174.8610  143.1670 C   0  0  2  0  0  3  0  0  0  0  0  0
  194.3160  175.2350  144.5450 N   0  0  0  0  0  0  0  0  0  0  0  0
  193.3050  174.8020  145.2090 C   0  0  0  0  0  2  0  0  0  0  0  0
  2 18  1  6  0  0  0
  2 34  1  0  0  0  0
  3 17  1  0  0  0  0
  4 16  1  0  0  0  0
  4 10  2  0  0  0  0
  7 32  2  0  0  0  0
  8 20  1  0  0  0  0
  9 15  1  1  0  0  0
  9  2  1  0  0  0  0
 10 12  1  0  0  0  0
 11 31  2  6  0  0  0
 11 37  1  0  0  0  0
 12 36  2  0  0  0  0
 13 26  2  0  0  0  0
 14  7  1  0  0  0  0
 15 11  1  0  0  0  0
 16 25  1  0  0  0  0
 17  5  2  0  0  0  0
 17 42  1  0  0  0  0
 18 26  1  0  0  0  0
 19 10  1  0  0  0  0
 20 35  1  0  0  0  0
 21 38  3  0  0  0  0
 22 23  1  6  0  0  0
 22 27  1  0  0  0  0
 24 57  1  6  0  0  0
 24 19  1  0  0  0  0
 25 36  1  0  0  0  0
 26 21  1  0  0  0  0
 27 39  2  0  0  0  0
 29  1  2  0  0  0  0
 29  3  1  0  0  0  0
 30 14  2  0  0  0  0
 30 23  1  0  0  0  0
 32 22  1  0  0  0  0
 32 28  1  0  0  0  0
 33 28  1  6  0  0  0
 33  8  1  0  0  0  0
 34 11  1  0  0  0  0
 34  6  2  0  0  0  0
 35 59  1  6  0  0  0
 35  9  1  0  0  0  0
 36 29  1  0  0  0  0
 38  5  1  0  0  0  0
 39 24  1  0  0  0  0
 39 33  1  0  0  0  0
 40 47  1  0  0  0  0
 41 45  1  0  0  0  0
 42 40  2  0  0  0  0
 43 46  1  0  0  0  0
 43 40  1  0  0  0  0
 44 51  1  6  0  0  0
 45 44  1  0  0  0  0
 45 49  1  1  0  0  0
 46 52  1  6  0  0  0
 46 41  1  0  0  0  0
 47 44  1  0  0  0  0
 49 48  1  0  0  0  0
 50 51  1  0  0  0  0
 53 54  1  0  0  0  0
 53 52  1  0  0  0  0
 55 54  1  0  0  0  0
 56 55  1  0  0  0  0
 58 57  3  0  0  0  0
 59 60  1  0  0  0  0
 60 61  1  0  0  0  0
 61 63  1  0  0  0  0
 63 62  1  6  0  0  0
 63 64  1  0  0  0  0
 64 65  2  0  0  0  0
M  END
>  <MODEL>
1

>  <REMARK>
 VINA RESULT:      -6.1      0.000      0.000
  Name = 
  13 active torsions:
  status: ('A' for Active; 'I' for Inactive)
    1  A    between atoms: N_1  and  C_52
    2  A    between atoms: N_1  and  C_61
    3  A    between atoms: N_3  and  C_44
    4  A    between atoms: O_4  and  C_13
    5  A    between atoms: O_4  and  C_49
    6  A    between atoms: N_10  and  C_47
    7  A    between atoms: C_12  and  C_40
    8  A    between atoms: C_13  and  C_47
    9  A    between atoms: C_19  and  C_29
   10  A    between atoms: O_39  and  C_46
   11  A    between atoms: C_44  and  C_61
   12  A    between atoms: C_49  and  C_58
   13  A    between atoms: C_50  and  O_62
                            x       y       z     vdW  Elec       q    Type
                         _______ _______ _______ _____ _____    ______ ____

>  <TORSDO>
F 13

$$$$
