=
 OpenBabel11072408433D

 36 38  0  0  1  0  0  0  0  0999 V2000
  188.7340  175.5620  145.3240 C   0  0  0  0  0  2  0  0  0  0  0  0
  187.5610  176.0790  145.8790 O   0  0  0  0  0  0  0  0  0  0  0  0
  186.1330  178.6730  143.1490 C   0  0  2  0  0  3  0  0  0  0  0  0
  188.1550  178.0690  141.6310 C   0  0  0  0  0  2  0  0  0  0  0  0
  185.8430  178.9650  144.5050 O   0  0  0  0  0  0  0  0  0  0  0  0
  184.0430  178.5630  140.4430 O   0  0  0  0  0  0  0  0  0  0  0  0
  188.0850  177.4160  143.9900 C   0  0  0  0  0  3  0  0  0  0  0  0
  185.0570  178.0560  140.9940 C   0  0  0  0  0  0  0  0  0  0  0  0
  183.8100  178.0850  143.0090 F   0  0  0  0  0  0  0  0  0  0  0  0
  187.4210  177.1300  140.6840 C   0  0  0  0  0  2  0  0  0  0  0  0
  186.1940  177.7380  140.1840 N   0  0  0  0  0  2  0  0  0  0  0  0
  187.4500  177.3720  145.3570 C   0  0  1  0  0  3  0  0  0  0  0  0
  185.9670  177.7870  145.2740 C   0  0  1  0  0  3  0  0  0  0  0  0
  185.0570  177.8110  142.4750 C   0  0  2  0  0  3  0  0  0  0  0  0
  187.5060  178.0680  142.9750 C   0  0  0  0  0  0  0  0  0  0  0  0
  183.9470  178.5390  146.5770 C   0  0  0  0  0  1  0  0  0  0  0  0
  186.1710  178.9820  147.4080 N   0  0  0  0  0  1  0  0  0  0  0  0
  185.3720  178.0180  146.6690 C   0  0  2  0  0  3  0  0  0  0  0  0
  189.6530  175.0110  146.4230 C   0  0  0  0  0  2  0  0  0  0  0  0
  191.3000  175.3820  148.1160 C   0  0  0  0  0  1  0  0  0  0  0  0
  190.4420  176.0330  147.1260 N   0  0  0  0  0  0  0  0  0  0  0  0
  191.2590  176.7820  146.1700 C   0  0  0  0  0  2  0  0  0  0  0  0
  192.6740  176.2410  146.1230 C   0  0  0  0  0  2  0  0  0  0  0  0
  193.0720  176.0090  144.6750 C   0  0  0  0  0  2  0  0  0  0  0  0
  192.0030  174.5780  142.9060 C   0  0  0  0  0  0  0  0  0  0  0  0
  192.3100  175.4190  142.0160 O   0  0  0  0  0  0  0  0  0  0  0  0
  191.7090  171.6030  144.1180 C   0  0  0  0  0  2  0  0  0  0  0  0
  192.7670  173.6090  145.1720 C   0  0  0  0  0  2  0  0  0  0  0  0
  192.6140  174.7040  144.2130 N   0  0  0  0  0  0  0  0  0  0  0  0
  193.0310  172.2930  144.4540 C   0  0  0  0  0  2  0  0  0  0  0  0
  190.6160  172.5930  143.7160 C   0  0  0  0  0  2  0  0  0  0  0  0
  191.0040  173.4920  142.5340 C   0  0  2  0  0  0  0  0  0  0  0  0
  191.5480  172.7130  141.5070 O   0  0  0  0  0  1  0  0  0  0  0  0
  189.7360  174.1880  142.0240 C   0  0  0  0  0  2  0  0  0  0  0  0
  188.2250  173.2390  140.4230 O   0  0  0  0  0  1  0  0  0  0  0  0
  189.4350  173.9180  140.5530 C   0  0  0  0  0  2  0  0  0  0  0  0
  1  2  1  0  0  0  0
  1 19  1  0  0  0  0
  3 15  1  1  0  0  0
  3  5  1  0  0  0  0
  4 15  1  0  0  0  0
  5 13  1  0  0  0  0
  6  8  2  0  0  0  0
  7 12  1  0  0  0  0
  8 14  1  0  0  0  0
 10  4  1  0  0  0  0
 11 10  1  0  0  0  0
 11  8  1  0  0  0  0
 12  2  1  6  0  0  0
 13 12  1  0  0  0  0
 13 18  1  1  0  0  0
 14  9  1  1  0  0  0
 14  3  1  0  0  0  0
 15  7  2  0  0  0  0
 18 16  1  6  0  0  0
 18 17  1  0  0  0  0
 19 21  1  0  0  0  0
 21 20  1  0  0  0  0
 22 21  1  0  0  0  0
 23 22  1  0  0  0  0
 24 23  1  0  0  0  0
 25 29  1  0  0  0  0
 26 25  2  0  0  0  0
 27 30  1  0  0  0  0
 29 24  1  0  0  0  0
 29 28  1  0  0  0  0
 30 28  1  0  0  0  0
 31 27  1  0  0  0  0
 32 33  1  6  0  0  0
 32 25  1  0  0  0  0
 32 31  1  0  0  0  0
 34 32  1  0  0  0  0
 35 36  1  0  0  0  0
 36 34  1  0  0  0  0
M  END
>  <MODEL>
1

>  <REMARK>
 VINA RESULT:      -6.9      0.000      0.000
  Name = 
  11 active torsions:
  status: ('A' for Active; 'I' for Inactive)
    1  A    between atoms: N_10  and  C_22
    2  A    between atoms: C_14  and  O_18
    3  A    between atoms: C_14  and  C_19
    4  A    between atoms: C_17  and  C_32
    5  A    between atoms: O_18  and  C_30
    6  A    between atoms: C_19  and  N_26
    7  A    between atoms: C_22  and  C_31
    8  A    between atoms: C_25  and  C_32
    9  A    between atoms: N_26  and  C_29
   10  A    between atoms: C_27  and  C_34
   11  A    between atoms: C_29  and  C_31
                            x       y       z     vdW  Elec       q    Type
                         _______ _______ _______ _____ _____    ______ ____

>  <TORSDO>
F 11

$$$$
=
 OpenBabel11072408433D

 36 38  0  0  1  0  0  0  0  0999 V2000
  188.1550  175.5210  141.6150 C   0  0  0  0  0  2  0  0  0  0  0  0
  188.3440  175.2000  142.9610 O   0  0  0  0  0  0  0  0  0  0  0  0
  187.0600  178.0300  145.5230 C   0  0  2  0  0  3  0  0  0  0  0  0
  185.6860  179.0630  143.5730 C   0  0  0  0  0  2  0  0  0  0  0  0
  188.3450  177.4880  145.7770 O   0  0  0  0  0  0  0  0  0  0  0  0
  184.4150  178.4720  147.6460 O   0  0  0  0  0  0  0  0  0  0  0  0
  187.4110  177.3710  143.1690 C   0  0  0  0  0  3  0  0  0  0  0  0
  184.7670  178.1890  146.4700 C   0  0  0  0  0  0  0  0  0  0  0  0
  186.3850  176.7550  147.4420 F   0  0  0  0  0  0  0  0  0  0  0  0
  184.3260  178.5080  143.9710 C   0  0  0  0  0  2  0  0  0  0  0  0
  184.0430  178.7660  145.3780 N   0  0  0  0  0  2  0  0  0  0  0  0
  188.5020  176.4290  143.6100 C   0  0  1  0  0  3  0  0  0  0  0  0
  188.4580  176.2340  145.1390 C   0  0  1  0  0  3  0  0  0  0  0  0
  185.9340  177.2740  146.2400 C   0  0  2  0  0  3  0  0  0  0  0  0
  186.7770  178.1600  144.0450 C   0  0  0  0  0  0  0  0  0  0  0  0
  189.3430  174.3760  146.5910 C   0  0  0  0  0  1  0  0  0  0  0  0
  190.5830  176.4350  146.3510 N   0  0  0  0  0  1  0  0  0  0  0  0
  189.7110  175.5090  145.6470 C   0  0  2  0  0  3  0  0  0  0  0  0
  188.5970  174.3570  140.7160 C   0  0  0  0  0  2  0  0  0  0  0  0
  189.4520  172.2130  141.3420 C   0  0  0  0  0  1  0  0  0  0  0  0
  189.7820  173.6310  141.2000 N   0  0  0  0  0  0  0  0  0  0  0  0
  190.8910  173.7970  140.2590 C   0  0  0  0  0  2  0  0  0  0  0  0
  192.1730  174.1480  140.9870 C   0  0  0  0  0  2  0  0  0  0  0  0
  191.8490  175.0590  142.1590 C   0  0  0  0  0  2  0  0  0  0  0  0
  193.3390  175.7320  144.0680 C   0  0  0  0  0  0  0  0  0  0  0  0
  192.8870  176.9100  144.0270 O   0  0  0  0  0  0  0  0  0  0  0  0
  194.2840  173.0300  145.5550 C   0  0  0  0  0  2  0  0  0  0  0  0
  192.7050  173.2690  143.6300 C   0  0  0  0  0  2  0  0  0  0  0  0
  192.6400  174.7010  143.3300 N   0  0  0  0  0  0  0  0  0  0  0  0
  192.8150  173.0350  145.1300 C   0  0  0  0  0  2  0  0  0  0  0  0
  195.1210  174.0500  144.7840 C   0  0  0  0  0  2  0  0  0  0  0  0
  194.5940  175.4870  144.8930 C   0  0  2  0  0  0  0  0  0  0  0  0
  194.3190  175.7890  146.2310 O   0  0  0  0  0  1  0  0  0  0  0  0
  195.6800  176.4380  144.3720 C   0  0  0  0  0  2  0  0  0  0  0  0
  197.2640  176.6520  142.5860 O   0  0  0  0  0  1  0  0  0  0  0  0
  196.7340  175.7520  143.5090 C   0  0  0  0  0  2  0  0  0  0  0  0
  1  2  1  0  0  0  0
  3 15  1  6  0  0  0
  3  5  1  0  0  0  0
  3 14  1  0  0  0  0
  4 10  1  0  0  0  0
  4 15  1  0  0  0  0
  7 12  1  0  0  0  0
  7 15  2  0  0  0  0
  8  6  2  0  0  0  0
 10 11  1  0  0  0  0
 11  8  1  0  0  0  0
 12  2  1  6  0  0  0
 12 13  1  0  0  0  0
 13 18  1  1  0  0  0
 13  5  1  0  0  0  0
 14  8  1  0  0  0  0
 14  9  1  1  0  0  0
 18 17  1  0  0  0  0
 18 16  1  1  0  0  0
 19 21  1  0  0  0  0
 19  1  1  0  0  0  0
 21 20  1  0  0  0  0
 22 23  1  0  0  0  0
 22 21  1  0  0  0  0
 23 24  1  0  0  0  0
 24 29  1  0  0  0  0
 25 32  1  0  0  0  0
 26 25  2  0  0  0  0
 28 30  1  0  0  0  0
 29 28  1  0  0  0  0
 29 25  1  0  0  0  0
 30 27  1  0  0  0  0
 31 32  1  0  0  0  0
 31 27  1  0  0  0  0
 32 33  1  1  0  0  0
 34 32  1  0  0  0  0
 35 36  1  0  0  0  0
 36 34  1  0  0  0  0
M  END
>  <MODEL>
2

>  <REMARK>
 VINA RESULT:      -6.7      2.435      4.966
  Name = 
  11 active torsions:
  status: ('A' for Active; 'I' for Inactive)
    1  A    between atoms: N_10  and  C_22
    2  A    between atoms: C_14  and  O_18
    3  A    between atoms: C_14  and  C_19
    4  A    between atoms: C_17  and  C_32
    5  A    between atoms: O_18  and  C_30
    6  A    between atoms: C_19  and  N_26
    7  A    between atoms: C_22  and  C_31
    8  A    between atoms: C_25  and  C_32
    9  A    between atoms: N_26  and  C_29
   10  A    between atoms: C_27  and  C_34
   11  A    between atoms: C_29  and  C_31
                            x       y       z     vdW  Elec       q    Type
                         _______ _______ _______ _____ _____    ______ ____

>  <TORSDO>
F 11

$$$$
=
 OpenBabel11072408433D

 36 38  0  0  1  0  0  0  0  0999 V2000
  188.5860  176.2190  146.9320 C   0  0  0  0  0  2  0  0  0  0  0  0
  187.5280  176.1500  146.0220 O   0  0  0  0  0  0  0  0  0  0  0  0
  186.1730  178.6940  143.2080 C   0  0  2  0  0  3  0  0  0  0  0  0
  188.2070  178.0250  141.7340 C   0  0  0  0  0  2  0  0  0  0  0  0
  185.8690  179.0240  144.5530 O   0  0  0  0  0  0  0  0  0  0  0  0
  184.1200  178.5440  140.4770 O   0  0  0  0  0  0  0  0  0  0  0  0
  188.0960  177.4320  144.1080 C   0  0  0  0  0  3  0  0  0  0  0  0
  185.1180  178.0380  141.0550 C   0  0  0  0  0  0  0  0  0  0  0  0
  183.8440  178.1340  143.0500 F   0  0  0  0  0  0  0  0  0  0  0  0
  187.4740  177.0720  140.8010 C   0  0  0  0  0  2  0  0  0  0  0  0
  186.2620  177.6850  140.2690 N   0  0  0  0  0  2  0  0  0  0  0  0
  187.4410  177.4310  145.4660 C   0  0  1  0  0  3  0  0  0  0  0  0
  185.9660  177.8630  145.3520 C   0  0  1  0  0  3  0  0  0  0  0  0
  185.0950  177.8300  142.5400 C   0  0  2  0  0  3  0  0  0  0  0  0
  187.5410  178.0660  143.0690 C   0  0  0  0  0  0  0  0  0  0  0  0
  183.8600  178.3880  146.6290 C   0  0  0  0  0  1  0  0  0  0  0  0
  185.9800  179.3000  147.3420 N   0  0  0  0  0  1  0  0  0  0  0  0
  185.3550  178.1370  146.7330 C   0  0  2  0  0  3  0  0  0  0  0  0
  189.3770  174.9030  146.9390 C   0  0  0  0  0  2  0  0  0  0  0  0
  190.3760  174.4860  144.8070 C   0  0  0  0  0  1  0  0  0  0  0  0
  190.6320  174.9440  146.1720 N   0  0  0  0  0  0  0  0  0  0  0  0
  191.1630  176.3080  146.1530 C   0  0  0  0  0  2  0  0  0  0  0  0
  191.7160  176.6560  144.7850 C   0  0  0  0  0  2  0  0  0  0  0  0
  193.2070  176.9220  144.9030 C   0  0  0  0  0  2  0  0  0  0  0  0
  193.9770  174.9160  143.5990 C   0  0  0  0  0  0  0  0  0  0  0  0
  193.7840  175.5270  142.5120 O   0  0  0  0  0  0  0  0  0  0  0  0
  195.6420  173.0320  145.6200 C   0  0  0  0  0  2  0  0  0  0  0  0
  194.6220  175.2700  146.0720 C   0  0  0  0  0  2  0  0  0  0  0  0
  193.9650  175.6790  144.8290 N   0  0  0  0  0  0  0  0  0  0  0  0
  195.9180  174.5270  145.7800 C   0  0  0  0  0  2  0  0  0  0  0  0
  194.3160  172.7520  144.9120 C   0  0  0  0  0  2  0  0  0  0  0  0
  194.2050  173.4130  143.5310 C   0  0  2  0  0  0  0  0  0  0  0  0
  195.3690  173.1670  142.7950 O   0  0  0  0  0  1  0  0  0  0  0  0
  193.0040  172.7980  142.8000 C   0  0  0  0  0  2  0  0  0  0  0  0
  192.6450  170.6050  141.8990 O   0  0  0  0  0  1  0  0  0  0  0  0
  193.3900  171.7730  141.7390 C   0  0  0  0  0  2  0  0  0  0  0  0
  1 19  1  0  0  0  0
  2  1  1  0  0  0  0
  3 15  1  1  0  0  0
  3  5  1  0  0  0  0
  4 15  1  0  0  0  0
  5 13  1  0  0  0  0
  6  8  2  0  0  0  0
  7 12  1  0  0  0  0
  8 14  1  0  0  0  0
 10  4  1  0  0  0  0
 11 10  1  0  0  0  0
 11  8  1  0  0  0  0
 12  2  1  6  0  0  0
 13 12  1  0  0  0  0
 13 18  1  1  0  0  0
 14  9  1  1  0  0  0
 14  3  1  0  0  0  0
 15  7  2  0  0  0  0
 18 16  1  6  0  0  0
 18 17  1  0  0  0  0
 20 21  1  0  0  0  0
 21 19  1  0  0  0  0
 22 21  1  0  0  0  0
 23 24  1  0  0  0  0
 23 22  1  0  0  0  0
 25 29  1  0  0  0  0
 26 25  2  0  0  0  0
 27 30  1  0  0  0  0
 29 24  1  0  0  0  0
 29 28  1  0  0  0  0
 30 28  1  0  0  0  0
 31 27  1  0  0  0  0
 32 33  1  6  0  0  0
 32 25  1  0  0  0  0
 32 31  1  0  0  0  0
 34 32  1  0  0  0  0
 36 35  1  0  0  0  0
 36 34  1  0  0  0  0
M  END
>  <MODEL>
3

>  <REMARK>
 VINA RESULT:      -6.6      1.665      2.241
  Name = 
  11 active torsions:
  status: ('A' for Active; 'I' for Inactive)
    1  A    between atoms: N_10  and  C_22
    2  A    between atoms: C_14  and  O_18
    3  A    between atoms: C_14  and  C_19
    4  A    between atoms: C_17  and  C_32
    5  A    between atoms: O_18  and  C_30
    6  A    between atoms: C_19  and  N_26
    7  A    between atoms: C_22  and  C_31
    8  A    between atoms: C_25  and  C_32
    9  A    between atoms: N_26  and  C_29
   10  A    between atoms: C_27  and  C_34
   11  A    between atoms: C_29  and  C_31
                            x       y       z     vdW  Elec       q    Type
                         _______ _______ _______ _____ _____    ______ ____

>  <TORSDO>
F 11

$$$$
=
 OpenBabel11072408433D

 36 38  0  0  1  0  0  0  0  0999 V2000
  189.1020  175.0700  141.9960 C   0  0  0  0  0  2  0  0  0  0  0  0
  189.2220  174.9310  143.3820 O   0  0  0  0  0  0  0  0  0  0  0  0
  187.1340  177.9260  145.0830 C   0  0  2  0  0  3  0  0  0  0  0  0
  186.3580  178.6330  142.7050 C   0  0  0  0  0  2  0  0  0  0  0  0
  188.3060  177.5110  145.7640 O   0  0  0  0  0  0  0  0  0  0  0  0
  183.9660  178.4050  146.2790 O   0  0  0  0  0  0  0  0  0  0  0  0
  188.1880  177.0380  143.0330 C   0  0  0  0  0  3  0  0  0  0  0  0
  184.6590  178.0200  145.3010 C   0  0  0  0  0  0  0  0  0  0  0  0
  185.9710  176.8250  146.8710 F   0  0  0  0  0  0  0  0  0  0  0  0
  184.9630  178.0280  142.7600 C   0  0  0  0  0  2  0  0  0  0  0  0
  184.2680  178.4170  143.9810 N   0  0  0  0  0  2  0  0  0  0  0  0
  189.1350  176.2330  143.8870 C   0  0  1  0  0  3  0  0  0  0  0  0
  188.6490  176.2050  145.3500 C   0  0  1  0  0  3  0  0  0  0  0  0
  185.8750  177.1720  145.5340 C   0  0  2  0  0  3  0  0  0  0  0  0
  187.2950  177.8700  143.5820 C   0  0  0  0  0  0  0  0  0  0  0  0
  189.1180  174.6590  147.2820 C   0  0  0  0  0  1  0  0  0  0  0  0
  190.3760  176.7050  147.0200 N   0  0  0  0  0  1  0  0  0  0  0  0
  189.7240  175.6340  146.2850 C   0  0  2  0  0  3  0  0  0  0  0  0
  190.0250  174.0780  141.2740 C   0  0  0  0  0  2  0  0  0  0  0  0
  190.5360  171.8940  142.1020 C   0  0  0  0  0  1  0  0  0  0  0  0
  190.9060  173.3080  142.1650 N   0  0  0  0  0  0  0  0  0  0  0  0
  192.3030  173.4790  141.7600 C   0  0  0  0  0  2  0  0  0  0  0  0
  192.6110  174.9360  141.4770 C   0  0  0  0  0  2  0  0  0  0  0  0
  194.0580  175.2200  141.8450 C   0  0  0  0  0  2  0  0  0  0  0  0
  195.0890  174.3470  143.9640 C   0  0  0  0  0  0  0  0  0  0  0  0
  196.0390  173.8330  143.3110 O   0  0  0  0  0  0  0  0  0  0  0  0
  193.8110  176.0100  146.4160 C   0  0  0  0  0  2  0  0  0  0  0  0
  193.4200  176.3150  143.9650 C   0  0  0  0  0  2  0  0  0  0  0  0
  194.2230  175.2920  143.2910 N   0  0  0  0  0  0  0  0  0  0  0  0
  194.1470  176.8560  145.1870 C   0  0  0  0  0  2  0  0  0  0  0  0
  193.6800  174.5230  146.0860 C   0  0  0  0  0  2  0  0  0  0  0  0
  194.9270  173.9280  145.4180 C   0  0  2  0  0  0  0  0  0  0  0  0
  196.0700  174.3110  146.1270 O   0  0  0  0  0  1  0  0  0  0  0  0
  194.8020  172.3990  145.4450 C   0  0  0  0  0  2  0  0  0  0  0  0
  193.6800  170.9380  143.9110 O   0  0  0  0  0  1  0  0  0  0  0  0
  193.4690  171.8820  144.9150 C   0  0  0  0  0  2  0  0  0  0  0  0
  1  2  1  0  0  0  0
  3 15  1  6  0  0  0
  3 14  1  0  0  0  0
  3  5  1  0  0  0  0
  4 10  1  0  0  0  0
  4 15  1  0  0  0  0
  7 15  2  0  0  0  0
  7 12  1  0  0  0  0
  8 14  1  0  0  0  0
  8  6  2  0  0  0  0
 10 11  1  0  0  0  0
 11  8  1  0  0  0  0
 12  2  1  6  0  0  0
 12 13  1  0  0  0  0
 13  5  1  0  0  0  0
 13 18  1  1  0  0  0
 14  9  1  1  0  0  0
 18 17  1  0  0  0  0
 18 16  1  1  0  0  0
 19  1  1  0  0  0  0
 19 21  1  0  0  0  0
 20 21  1  0  0  0  0
 22 21  1  0  0  0  0
 23 22  1  0  0  0  0
 23 24  1  0  0  0  0
 24 29  1  0  0  0  0
 25 32  1  0  0  0  0
 26 25  2  0  0  0  0
 28 30  1  0  0  0  0
 29 25  1  0  0  0  0
 29 28  1  0  0  0  0
 30 27  1  0  0  0  0
 31 27  1  0  0  0  0
 32 34  1  0  0  0  0
 32 31  1  0  0  0  0
 32 33  1  1  0  0  0
 35 36  1  0  0  0  0
 36 34  1  0  0  0  0
M  END
>  <MODEL>
4

>  <REMARK>
 VINA RESULT:      -6.5      2.296      4.546
  Name = 
  11 active torsions:
  status: ('A' for Active; 'I' for Inactive)
    1  A    between atoms: N_10  and  C_22
    2  A    between atoms: C_14  and  O_18
    3  A    between atoms: C_14  and  C_19
    4  A    between atoms: C_17  and  C_32
    5  A    between atoms: O_18  and  C_30
    6  A    between atoms: C_19  and  N_26
    7  A    between atoms: C_22  and  C_31
    8  A    between atoms: C_25  and  C_32
    9  A    between atoms: N_26  and  C_29
   10  A    between atoms: C_27  and  C_34
   11  A    between atoms: C_29  and  C_31
                            x       y       z     vdW  Elec       q    Type
                         _______ _______ _______ _____ _____    ______ ____

>  <TORSDO>
F 11

$$$$
=
 OpenBabel11072408433D

 36 38  0  0  1  0  0  0  0  0999 V2000
  188.5820  175.2630  141.7160 C   0  0  0  0  0  2  0  0  0  0  0  0
  188.6160  174.9570  143.0790 O   0  0  0  0  0  0  0  0  0  0  0  0
  187.0170  177.8650  145.3620 C   0  0  2  0  0  3  0  0  0  0  0  0
  186.0020  178.8960  143.2030 C   0  0  0  0  0  2  0  0  0  0  0  0
  188.2290  177.2950  145.8270 O   0  0  0  0  0  0  0  0  0  0  0  0
  184.0800  178.4110  147.0270 O   0  0  0  0  0  0  0  0  0  0  0  0
  187.7220  177.1550  143.1040 C   0  0  0  0  0  3  0  0  0  0  0  0
  184.6080  178.0980  145.9270 C   0  0  0  0  0  0  0  0  0  0  0  0
  186.0080  176.6420  147.1650 F   0  0  0  0  0  0  0  0  0  0  0  0
  184.5810  178.3830  143.3850 C   0  0  0  0  0  2  0  0  0  0  0  0
  184.0830  178.6720  144.7240 N   0  0  0  0  0  2  0  0  0  0  0  0
  188.7020  176.1930  143.7280 C   0  0  1  0  0  3  0  0  0  0  0  0
  188.4080  176.0270  145.2320 C   0  0  1  0  0  3  0  0  0  0  0  0
  185.7700  177.1490  145.8990 C   0  0  2  0  0  3  0  0  0  0  0  0
  186.9780  177.9750  143.8560 C   0  0  0  0  0  0  0  0  0  0  0  0
  189.0620  174.6690  147.2500 C   0  0  0  0  0  1  0  0  0  0  0  0
  190.6440  176.1860  146.2330 N   0  0  0  0  0  1  0  0  0  0  0  0
  189.5440  175.2800  145.9440 C   0  0  2  0  0  3  0  0  0  0  0  0
  189.0580  174.0640  140.8830 C   0  0  0  0  0  2  0  0  0  0  0  0
  190.0960  172.0670  141.6920 C   0  0  0  0  0  1  0  0  0  0  0  0
  190.3230  173.4690  141.3400 N   0  0  0  0  0  0  0  0  0  0  0  0
  191.3320  173.5640  140.2840 C   0  0  0  0  0  2  0  0  0  0  0  0
  192.7230  173.6940  140.8730 C   0  0  0  0  0  2  0  0  0  0  0  0
  192.6840  174.6740  142.0340 C   0  0  0  0  0  2  0  0  0  0  0  0
  194.6590  174.5030  143.5800 C   0  0  0  0  0  0  0  0  0  0  0  0
  194.2950  173.3510  143.9460 O   0  0  0  0  0  0  0  0  0  0  0  0
  196.8170  176.7070  142.6360 C   0  0  0  0  0  2  0  0  0  0  0  0
  194.6240  176.1340  141.5800 C   0  0  0  0  0  2  0  0  0  0  0  0
  194.0300  175.0850  142.4130 N   0  0  0  0  0  0  0  0  0  0  0  0
  196.1340  175.9630  141.4890 C   0  0  0  0  0  2  0  0  0  0  0  0
  196.0240  176.6300  143.9410 C   0  0  0  0  0  2  0  0  0  0  0  0
  195.7360  175.1950  144.4020 C   0  0  2  0  0  0  0  0  0  0  0  0
  196.9090  174.4350  144.3390 O   0  0  0  0  0  1  0  0  0  0  0  0
  195.2440  175.2480  145.8540 C   0  0  0  0  0  2  0  0  0  0  0  0
  194.3420  177.2000  146.9140 O   0  0  0  0  0  1  0  0  0  0  0  0
  194.0270  176.1450  146.0590 C   0  0  0  0  0  2  0  0  0  0  0  0
  1  2  1  0  0  0  0
  3 15  1  6  0  0  0
  3  5  1  0  0  0  0
  3 14  1  0  0  0  0
  4 10  1  0  0  0  0
  4 15  1  0  0  0  0
  7 12  1  0  0  0  0
  7 15  2  0  0  0  0
  8  6  2  0  0  0  0
 10 11  1  0  0  0  0
 11  8  1  0  0  0  0
 12  2  1  6  0  0  0
 12 13  1  0  0  0  0
 13  5  1  0  0  0  0
 13 18  1  1  0  0  0
 14  8  1  0  0  0  0
 14  9  1  1  0  0  0
 18 17  1  0  0  0  0
 18 16  1  1  0  0  0
 19 21  1  0  0  0  0
 19  1  1  0  0  0  0
 21 20  1  0  0  0  0
 22 23  1  0  0  0  0
 22 21  1  0  0  0  0
 23 24  1  0  0  0  0
 24 29  1  0  0  0  0
 25 26  2  0  0  0  0
 25 32  1  0  0  0  0
 27 31  1  0  0  0  0
 28 29  1  0  0  0  0
 29 25  1  0  0  0  0
 30 28  1  0  0  0  0
 30 27  1  0  0  0  0
 31 32  1  0  0  0  0
 32 33  1  6  0  0  0
 32 34  1  0  0  0  0
 34 36  1  0  0  0  0
 36 35  1  0  0  0  0
M  END
>  <MODEL>
5

>  <REMARK>
 VINA RESULT:      -6.5      2.674      5.184
  Name = 
  11 active torsions:
  status: ('A' for Active; 'I' for Inactive)
    1  A    between atoms: N_10  and  C_22
    2  A    between atoms: C_14  and  O_18
    3  A    between atoms: C_14  and  C_19
    4  A    between atoms: C_17  and  C_32
    5  A    between atoms: O_18  and  C_30
    6  A    between atoms: C_19  and  N_26
    7  A    between atoms: C_22  and  C_31
    8  A    between atoms: C_25  and  C_32
    9  A    between atoms: N_26  and  C_29
   10  A    between atoms: C_27  and  C_34
   11  A    between atoms: C_29  and  C_31
                            x       y       z     vdW  Elec       q    Type
                         _______ _______ _______ _____ _____    ______ ____

>  <TORSDO>
F 11

$$$$
=
 OpenBabel11072408433D

 36 38  0  0  1  0  0  0  0  0999 V2000
  188.9970  175.5310  144.8520 C   0  0  0  0  0  2  0  0  0  0  0  0
  188.0430  176.0190  145.7490 O   0  0  0  0  0  0  0  0  0  0  0  0
  186.1750  178.6390  143.3260 C   0  0  2  0  0  3  0  0  0  0  0  0
  188.0990  178.3060  141.6100 C   0  0  0  0  0  2  0  0  0  0  0  0
  185.9810  178.8220  144.7180 O   0  0  0  0  0  0  0  0  0  0  0  0
  183.8740  178.5110  140.7980 O   0  0  0  0  0  0  0  0  0  0  0  0
  188.2890  177.5080  143.9180 C   0  0  0  0  0  3  0  0  0  0  0  0
  184.9690  178.0620  141.2290 C   0  0  0  0  0  0  0  0  0  0  0  0
  183.9040  177.8590  143.3360 F   0  0  0  0  0  0  0  0  0  0  0  0
  187.3660  177.3660  140.6650 C   0  0  0  0  0  2  0  0  0  0  0  0
  186.0540  177.8940  140.3090 N   0  0  0  0  0  2  0  0  0  0  0  0
  187.7810  177.3260  145.3260 C   0  0  1  0  0  3  0  0  0  0  0  0
  186.2670  177.6140  145.3920 C   0  0  1  0  0  3  0  0  0  0  0  0
  185.1190  177.7280  142.6850 C   0  0  2  0  0  3  0  0  0  0  0  0
  187.5730  178.1680  143.0000 C   0  0  0  0  0  0  0  0  0  0  0  0
  184.3920  178.3240  146.9160 C   0  0  0  0  0  1  0  0  0  0  0  0
  186.6900  178.5200  147.6340 N   0  0  0  0  0  1  0  0  0  0  0  0
  185.7790  177.7070  146.8440 C   0  0  2  0  0  3  0  0  0  0  0  0
  189.4880  174.1440  145.2900 C   0  0  0  0  0  2  0  0  0  0  0  0
  190.2130  173.9440  143.0200 C   0  0  0  0  0  1  0  0  0  0  0  0
  189.7230  173.2040  144.1830 N   0  0  0  0  0  0  0  0  0  0  0  0
  190.7030  172.1930  144.5840 C   0  0  0  0  0  2  0  0  0  0  0  0
  192.0110  172.3800  143.8420 C   0  0  0  0  0  2  0  0  0  0  0  0
  193.1660  172.1900  144.8110 C   0  0  0  0  0  2  0  0  0  0  0  0
  193.5990  174.5930  145.4080 C   0  0  0  0  0  0  0  0  0  0  0  0
  192.7370  174.5380  146.3280 O   0  0  0  0  0  0  0  0  0  0  0  0
  196.4550  175.4020  144.1450 C   0  0  0  0  0  2  0  0  0  0  0  0
  195.3230  173.1730  144.1160 C   0  0  0  0  0  2  0  0  0  0  0  0
  194.0450  173.3530  144.8070 N   0  0  0  0  0  0  0  0  0  0  0  0
  196.4150  174.0070  144.7700 C   0  0  0  0  0  2  0  0  0  0  0  0
  195.0630  175.9320  143.8000 C   0  0  0  0  0  2  0  0  0  0  0  0
  194.1050  175.9690  144.9990 C   0  0  2  0  0  0  0  0  0  0  0  0
  194.7430  176.5580  146.0950 O   0  0  0  0  0  1  0  0  0  0  0  0
  192.8830  176.8110  144.6100 C   0  0  0  0  0  2  0  0  0  0  0  0
  191.4400  177.5580  142.8480 O   0  0  0  0  0  1  0  0  0  0  0  0
  192.5610  176.7750  143.1200 C   0  0  0  0  0  2  0  0  0  0  0  0
  1 19  1  0  0  0  0
  1  2  1  0  0  0  0
  3 15  1  1  0  0  0
  3  5  1  0  0  0  0
  4 15  1  0  0  0  0
  5 13  1  0  0  0  0
  6  8  2  0  0  0  0
  7 12  1  0  0  0  0
  8 14  1  0  0  0  0
 10  4  1  0  0  0  0
 11 10  1  0  0  0  0
 11  8  1  0  0  0  0
 12 13  1  0  0  0  0
 12  2  1  6  0  0  0
 13 18  1  1  0  0  0
 14  3  1  0  0  0  0
 14  9  1  1  0  0  0
 15  7  2  0  0  0  0
 18 16  1  6  0  0  0
 18 17  1  0  0  0  0
 20 21  1  0  0  0  0
 21 22  1  0  0  0  0
 21 19  1  0  0  0  0
 23 22  1  0  0  0  0
 23 24  1  0  0  0  0
 25 26  2  0  0  0  0
 27 30  1  0  0  0  0
 28 30  1  0  0  0  0
 28 29  1  0  0  0  0
 29 24  1  0  0  0  0
 29 25  1  0  0  0  0
 31 27  1  0  0  0  0
 31 32  1  0  0  0  0
 32 25  1  0  0  0  0
 32 33  1  1  0  0  0
 34 32  1  0  0  0  0
 35 36  1  0  0  0  0
 36 34  1  0  0  0  0
M  END
>  <MODEL>
6

>  <REMARK>
 VINA RESULT:      -6.5      1.899      3.265
  Name = 
  11 active torsions:
  status: ('A' for Active; 'I' for Inactive)
    1  A    between atoms: N_10  and  C_22
    2  A    between atoms: C_14  and  O_18
    3  A    between atoms: C_14  and  C_19
    4  A    between atoms: C_17  and  C_32
    5  A    between atoms: O_18  and  C_30
    6  A    between atoms: C_19  and  N_26
    7  A    between atoms: C_22  and  C_31
    8  A    between atoms: C_25  and  C_32
    9  A    between atoms: N_26  and  C_29
   10  A    between atoms: C_27  and  C_34
   11  A    between atoms: C_29  and  C_31
                            x       y       z     vdW  Elec       q    Type
                         _______ _______ _______ _____ _____    ______ ____

>  <TORSDO>
F 11

$$$$
=
 OpenBabel11072408433D

 36 38  0  0  1  0  0  0  0  0999 V2000
  188.3260  176.2040  146.9230 C   0  0  0  0  0  2  0  0  0  0  0  0
  187.5740  176.0830  145.7520 O   0  0  0  0  0  0  0  0  0  0  0  0
  186.0470  178.7390  143.1360 C   0  0  2  0  0  3  0  0  0  0  0  0
  188.0340  178.2010  141.5490 C   0  0  0  0  0  2  0  0  0  0  0  0
  185.7910  178.9880  144.5080 O   0  0  0  0  0  0  0  0  0  0  0  0
  183.8880  178.6830  140.4840 O   0  0  0  0  0  0  0  0  0  0  0  0
  188.0340  177.4790  143.8900 C   0  0  0  0  0  3  0  0  0  0  0  0
  184.9210  178.1730  140.9930 C   0  0  0  0  0  0  0  0  0  0  0  0
  183.7270  178.1290  143.0400 F   0  0  0  0  0  0  0  0  0  0  0  0
  187.2860  177.2820  140.5950 C   0  0  0  0  0  2  0  0  0  0  0  0
  186.0400  177.8900  140.1450 N   0  0  0  0  0  2  0  0  0  0  0  0
  187.4350  177.3890  145.2710 C   0  0  1  0  0  3  0  0  0  0  0  0
  185.9460  177.7900  145.2380 C   0  0  1  0  0  3  0  0  0  0  0  0
  184.9630  177.8840  142.4650 C   0  0  2  0  0  3  0  0  0  0  0  0
  187.4220  178.1540  142.9090 C   0  0  0  0  0  0  0  0  0  0  0  0
  183.9140  178.3490  146.6160 C   0  0  0  0  0  1  0  0  0  0  0  0
  186.1140  179.0190  147.3560 N   0  0  0  0  0  1  0  0  0  0  0  0
  185.3860  177.9740  146.6550 C   0  0  2  0  0  3  0  0  0  0  0  0
  189.3830  175.0940  147.0010 C   0  0  0  0  0  2  0  0  0  0  0  0
  191.6440  175.2850  147.7580 C   0  0  0  0  0  1  0  0  0  0  0  0
  190.7410  175.5210  146.6310 N   0  0  0  0  0  0  0  0  0  0  0  0
  191.1990  174.7750  145.4580 C   0  0  0  0  0  2  0  0  0  0  0  0
  191.4330  175.7010  144.2810 C   0  0  0  0  0  2  0  0  0  0  0  0
  191.9840  174.8980  143.1150 C   0  0  0  0  0  2  0  0  0  0  0  0
  194.4140  174.3810  143.4920 C   0  0  0  0  0  0  0  0  0  0  0  0
  194.1350  173.1810  143.7630 O   0  0  0  0  0  0  0  0  0  0  0  0
  196.1300  176.7200  142.0810 C   0  0  0  0  0  2  0  0  0  0  0  0
  193.6490  176.4070  142.0890 C   0  0  0  0  0  2  0  0  0  0  0  0
  193.3900  175.2080  142.8890 N   0  0  0  0  0  0  0  0  0  0  0  0
  194.9230  176.2480  141.2710 C   0  0  0  0  0  2  0  0  0  0  0  0
  196.0150  176.3700  143.5640 C   0  0  0  0  0  2  0  0  0  0  0  0
  195.8160  174.8710  143.8280 C   0  0  2  0  0  0  0  0  0  0  0  0
  196.7410  174.1330  143.0820 O   0  0  0  0  0  1  0  0  0  0  0  0
  196.0480  174.6120  145.3220 C   0  0  0  0  0  2  0  0  0  0  0  0
  196.8150  172.6770  146.5120 O   0  0  0  0  0  1  0  0  0  0  0  0
  197.2080  173.6630  145.6090 C   0  0  0  0  0  2  0  0  0  0  0  0
  1 19  1  0  0  0  0
  2  1  1  0  0  0  0
  3 15  1  1  0  0  0
  3  5  1  0  0  0  0
  4 15  1  0  0  0  0
  5 13  1  0  0  0  0
  6  8  2  0  0  0  0
  7 12  1  0  0  0  0
  8 14  1  0  0  0  0
 10  4  1  0  0  0  0
 11 10  1  0  0  0  0
 11  8  1  0  0  0  0
 12  2  1  6  0  0  0
 13 12  1  0  0  0  0
 13 18  1  1  0  0  0
 14  9  1  1  0  0  0
 14  3  1  0  0  0  0
 15  7  2  0  0  0  0
 18 16  1  6  0  0  0
 18 17  1  0  0  0  0
 21 19  1  0  0  0  0
 21 20  1  0  0  0  0
 22 21  1  0  0  0  0
 23 22  1  0  0  0  0
 24 23  1  0  0  0  0
 25 26  2  0  0  0  0
 25 32  1  0  0  0  0
 27 31  1  0  0  0  0
 28 29  1  0  0  0  0
 29 24  1  0  0  0  0
 29 25  1  0  0  0  0
 30 27  1  0  0  0  0
 30 28  1  0  0  0  0
 31 32  1  0  0  0  0
 32 33  1  6  0  0  0
 32 34  1  0  0  0  0
 34 36  1  0  0  0  0
 36 35  1  0  0  0  0
M  END
>  <MODEL>
7

>  <REMARK>
 VINA RESULT:      -6.5      2.294      3.677
  Name = 
  11 active torsions:
  status: ('A' for Active; 'I' for Inactive)
    1  A    between atoms: N_10  and  C_22
    2  A    between atoms: C_14  and  O_18
    3  A    between atoms: C_14  and  C_19
    4  A    between atoms: C_17  and  C_32
    5  A    between atoms: O_18  and  C_30
    6  A    between atoms: C_19  and  N_26
    7  A    between atoms: C_22  and  C_31
    8  A    between atoms: C_25  and  C_32
    9  A    between atoms: N_26  and  C_29
   10  A    between atoms: C_27  and  C_34
   11  A    between atoms: C_29  and  C_31
                            x       y       z     vdW  Elec       q    Type
                         _______ _______ _______ _____ _____    ______ ____

>  <TORSDO>
F 11

$$$$
=
 OpenBabel11072408433D

 36 38  0  0  1  0  0  0  0  0999 V2000
  189.1480  176.1380  146.3440 C   0  0  0  0  0  2  0  0  0  0  0  0
  187.8280  176.1450  145.8860 O   0  0  0  0  0  0  0  0  0  0  0  0
  186.1590  178.6570  143.2170 C   0  0  2  0  0  3  0  0  0  0  0  0
  188.1490  178.1610  141.6210 C   0  0  0  0  0  2  0  0  0  0  0  0
  185.9070  178.9340  144.5840 O   0  0  0  0  0  0  0  0  0  0  0  0
  183.9750  178.4350  140.5940 O   0  0  0  0  0  0  0  0  0  0  0  0
  188.2060  177.5070  143.9810 C   0  0  0  0  0  3  0  0  0  0  0  0
  185.0340  177.9840  141.1050 C   0  0  0  0  0  0  0  0  0  0  0  0
  183.8660  177.9460  143.1670 F   0  0  0  0  0  0  0  0  0  0  0  0
  187.4310  177.1840  140.7020 C   0  0  0  0  0  2  0  0  0  0  0  0
  186.1550  177.7260  140.2510 N   0  0  0  0  0  2  0  0  0  0  0  0
  187.6270  177.4290  145.3710 C   0  0  1  0  0  3  0  0  0  0  0  0
  186.1220  177.7650  145.3460 C   0  0  1  0  0  3  0  0  0  0  0  0
  185.1050  177.7390  142.5840 C   0  0  2  0  0  3  0  0  0  0  0  0
  187.5550  178.1260  142.9900 C   0  0  0  0  0  0  0  0  0  0  0  0
  184.0980  178.3400  146.7290 C   0  0  0  0  0  1  0  0  0  0  0  0
  186.3020  179.0170  147.4490 N   0  0  0  0  0  1  0  0  0  0  0  0
  185.5710  177.9640  146.7640 C   0  0  2  0  0  3  0  0  0  0  0  0
  189.8420  174.8230  145.9640 C   0  0  0  0  0  2  0  0  0  0  0  0
  191.2230  174.7550  144.0120 C   0  0  0  0  0  1  0  0  0  0  0  0
  191.2140  174.9830  145.4570 N   0  0  0  0  0  0  0  0  0  0  0  0
  191.7040  176.3300  145.7550 C   0  0  0  0  0  2  0  0  0  0  0  0
  192.8100  176.7300  144.7980 C   0  0  0  0  0  2  0  0  0  0  0  0
  194.1270  176.7840  145.5540 C   0  0  0  0  0  2  0  0  0  0  0  0
  195.6380  175.6710  143.8820 C   0  0  0  0  0  0  0  0  0  0  0  0
  195.8690  176.7800  143.3260 O   0  0  0  0  0  0  0  0  0  0  0  0
  196.4640  172.7960  145.0900 C   0  0  0  0  0  2  0  0  0  0  0  0
  195.0770  174.5840  146.1540 C   0  0  0  0  0  2  0  0  0  0  0  0
  194.9890  175.6710  145.1760 N   0  0  0  0  0  0  0  0  0  0  0  0
  196.4510  173.9300  146.1150 C   0  0  0  0  0  2  0  0  0  0  0  0
  195.6320  173.1170  143.8480 C   0  0  0  0  0  2  0  0  0  0  0  0
  196.0600  174.4110  143.1400 C   0  0  2  0  0  0  0  0  0  0  0  0
  197.4490  174.4250  142.9820 O   0  0  0  0  0  1  0  0  0  0  0  0
  195.3920  174.4450  141.7590 C   0  0  0  0  0  2  0  0  0  0  0  0
  196.2480  175.7720  139.9560 O   0  0  0  0  0  1  0  0  0  0  0  0
  196.3800  174.5430  140.6010 C   0  0  0  0  0  2  0  0  0  0  0  0
  2  1  1  0  0  0  0
  3 15  1  1  0  0  0
  3  5  1  0  0  0  0
  4 15  1  0  0  0  0
  5 13  1  0  0  0  0
  6  8  2  0  0  0  0
  7 12  1  0  0  0  0
  8 14  1  0  0  0  0
 10  4  1  0  0  0  0
 11 10  1  0  0  0  0
 11  8  1  0  0  0  0
 12  2  1  6  0  0  0
 13 12  1  0  0  0  0
 13 18  1  1  0  0  0
 14  9  1  1  0  0  0
 14  3  1  0  0  0  0
 15  7  2  0  0  0  0
 18 16  1  6  0  0  0
 18 17  1  0  0  0  0
 19  1  1  0  0  0  0
 20 21  1  0  0  0  0
 21 22  1  0  0  0  0
 21 19  1  0  0  0  0
 23 24  1  0  0  0  0
 23 22  1  0  0  0  0
 25 29  1  0  0  0  0
 26 25  2  0  0  0  0
 27 30  1  0  0  0  0
 29 24  1  0  0  0  0
 29 28  1  0  0  0  0
 30 28  1  0  0  0  0
 31 27  1  0  0  0  0
 32 33  1  6  0  0  0
 32 31  1  0  0  0  0
 32 25  1  0  0  0  0
 34 32  1  0  0  0  0
 35 36  1  0  0  0  0
 36 34  1  0  0  0  0
M  END
>  <MODEL>
8

>  <REMARK>
 VINA RESULT:      -6.4      2.260      3.169
  Name = 
  11 active torsions:
  status: ('A' for Active; 'I' for Inactive)
    1  A    between atoms: N_10  and  C_22
    2  A    between atoms: C_14  and  O_18
    3  A    between atoms: C_14  and  C_19
    4  A    between atoms: C_17  and  C_32
    5  A    between atoms: O_18  and  C_30
    6  A    between atoms: C_19  and  N_26
    7  A    between atoms: C_22  and  C_31
    8  A    between atoms: C_25  and  C_32
    9  A    between atoms: N_26  and  C_29
   10  A    between atoms: C_27  and  C_34
   11  A    between atoms: C_29  and  C_31
                            x       y       z     vdW  Elec       q    Type
                         _______ _______ _______ _____ _____    ______ ____

>  <TORSDO>
F 11

$$$$
=
 OpenBabel11072408433D

 36 38  0  0  1  0  0  0  0  0999 V2000
  188.8030  176.0770  145.6660 C   0  0  0  0  0  2  0  0  0  0  0  0
  187.4300  176.3300  145.7150 O   0  0  0  0  0  0  0  0  0  0  0  0
  185.8760  178.7910  142.9300 C   0  0  2  0  0  3  0  0  0  0  0  0
  187.8800  178.1870  141.3890 C   0  0  0  0  0  2  0  0  0  0  0  0
  185.6070  179.1220  144.2820 O   0  0  0  0  0  0  0  0  0  0  0  0
  183.7330  178.5340  140.2770 O   0  0  0  0  0  0  0  0  0  0  0  0
  187.8780  177.6140  143.7700 C   0  0  0  0  0  3  0  0  0  0  0  0
  184.7710  178.0730  140.8220 C   0  0  0  0  0  0  0  0  0  0  0  0
  183.5660  178.1380  142.8620 F   0  0  0  0  0  0  0  0  0  0  0  0
  187.1520  177.1970  140.4910 C   0  0  0  0  0  2  0  0  0  0  0  0
  185.8990  177.7560  139.9980 N   0  0  0  0  0  2  0  0  0  0  0  0
  187.2730  177.6010  145.1520 C   0  0  1  0  0  3  0  0  0  0  0  0
  185.7780  177.9740  145.0870 C   0  0  1  0  0  3  0  0  0  0  0  0
  184.8090  177.8780  142.3100 C   0  0  2  0  0  3  0  0  0  0  0  0
  187.2610  178.2160  142.7470 C   0  0  0  0  0  0  0  0  0  0  0  0
  183.7500  178.6640  146.4110 C   0  0  0  0  0  1  0  0  0  0  0  0
  185.9640  179.2850  147.1540 N   0  0  0  0  0  1  0  0  0  0  0  0
  185.2070  178.2380  146.4870 C   0  0  2  0  0  3  0  0  0  0  0  0
  189.3910  176.0210  147.0820 C   0  0  0  0  0  2  0  0  0  0  0  0
  191.4360  175.3360  148.1160 C   0  0  0  0  0  1  0  0  0  0  0  0
  190.8410  176.2590  147.1490 N   0  0  0  0  0  0  0  0  0  0  0  0
  191.4440  176.0600  145.8300 C   0  0  0  0  0  2  0  0  0  0  0  0
  192.1260  174.7100  145.7420 C   0  0  0  0  0  2  0  0  0  0  0  0
  192.7040  174.5320  144.3480 C   0  0  0  0  0  2  0  0  0  0  0  0
  191.2960  172.7170  143.3290 C   0  0  0  0  0  0  0  0  0  0  0  0
  191.4610  171.9920  144.3490 O   0  0  0  0  0  0  0  0  0  0  0  0
  189.5600  174.0540  140.9620 C   0  0  0  0  0  2  0  0  0  0  0  0
  191.1330  175.1720  142.5520 C   0  0  0  0  0  2  0  0  0  0  0  0
  191.6730  174.1130  143.4070 N   0  0  0  0  0  0  0  0  0  0  0  0
  189.6700  174.9100  142.2240 C   0  0  0  0  0  2  0  0  0  0  0  0
  190.6600  172.9970  140.8720 C   0  0  0  0  0  2  0  0  0  0  0  0
  190.7130  172.0600  142.0860 C   0  0  2  0  0  0  0  0  0  0  0  0
  189.4270  171.5970  142.3830 O   0  0  0  0  0  1  0  0  0  0  0  0
  191.6110  170.8670  141.7320 C   0  0  0  0  0  2  0  0  0  0  0  0
  190.7580  169.0850  140.3730 O   0  0  0  0  0  1  0  0  0  0  0  0
  190.8720  169.5330  141.6890 C   0  0  0  0  0  2  0  0  0  0  0  0
  1  2  1  0  0  0  0
  1 19  1  0  0  0  0
  3 15  1  1  0  0  0
  3  5  1  0  0  0  0
  4 15  1  0  0  0  0
  5 13  1  0  0  0  0
  6  8  2  0  0  0  0
  7 12  1  0  0  0  0
  8 14  1  0  0  0  0
 10  4  1  0  0  0  0
 11 10  1  0  0  0  0
 11  8  1  0  0  0  0
 12  2  1  6  0  0  0
 13 12  1  0  0  0  0
 13 18  1  1  0  0  0
 14  9  1  1  0  0  0
 14  3  1  0  0  0  0
 15  7  2  0  0  0  0
 18 16  1  6  0  0  0
 18 17  1  0  0  0  0
 19 21  1  0  0  0  0
 21 20  1  0  0  0  0
 22 21  1  0  0  0  0
 23 22  1  0  0  0  0
 24 23  1  0  0  0  0
 25 29  1  0  0  0  0
 25 26  2  0  0  0  0
 27 30  1  0  0  0  0
 28 29  1  0  0  0  0
 29 24  1  0  0  0  0
 30 28  1  0  0  0  0
 31 27  1  0  0  0  0
 31 32  1  0  0  0  0
 32 33  1  1  0  0  0
 32 25  1  0  0  0  0
 34 32  1  0  0  0  0
 35 36  1  0  0  0  0
 36 34  1  0  0  0  0
M  END
>  <MODEL>
9

>  <REMARK>
 VINA RESULT:      -6.3      1.343      2.158
  Name = 
  11 active torsions:
  status: ('A' for Active; 'I' for Inactive)
    1  A    between atoms: N_10  and  C_22
    2  A    between atoms: C_14  and  O_18
    3  A    between atoms: C_14  and  C_19
    4  A    between atoms: C_17  and  C_32
    5  A    between atoms: O_18  and  C_30
    6  A    between atoms: C_19  and  N_26
    7  A    between atoms: C_22  and  C_31
    8  A    between atoms: C_25  and  C_32
    9  A    between atoms: N_26  and  C_29
   10  A    between atoms: C_27  and  C_34
   11  A    between atoms: C_29  and  C_31
                            x       y       z     vdW  Elec       q    Type
                         _______ _______ _______ _____ _____    ______ ____

>  <TORSDO>
F 11

$$$$
