=
 OpenBabel11062419413D

 42 47  0  0  1  0  0  0  0  0999 V2000
  191.0420  176.5140  145.7200 C   0  0  0  0  0  0  0  0  0  0  0  0
  193.8370  175.6830  143.6690 C   0  0  0  0  0  2  0  0  0  0  0  0
  191.7690  176.7910  146.7650 N   0  0  0  0  0  0  0  0  0  0  0  0
  193.5190  175.1380  146.1580 C   0  0  0  0  0  2  0  0  0  0  0  0
  192.9210  175.2010  144.7670 C   0  0  1  0  0  0  0  0  0  0  0  0
  191.5690  175.7220  144.6600 N   0  0  0  0  0  2  0  0  0  0  0  0
  193.1920  176.4500  146.8780 C   0  0  0  0  0  2  0  0  0  0  0  0
  193.4010  174.2190  143.7100 C   0  0  1  0  0  3  0  0  0  0  0  0
  187.5900  177.5050  146.8540 C   0  0  0  0  0  3  0  0  0  0  0  0
  185.0770  178.5960  144.1960 C   0  0  1  0  0  0  0  0  0  0  0  0
  185.5780  179.8670  143.9010 O   0  0  0  0  0  1  0  0  0  0  0  0
  189.6250  176.8870  145.6910 C   0  0  0  0  0  0  0  0  0  0  0  0
  184.6880  177.1660  146.1020 O   0  0  0  0  0  1  0  0  0  0  0  0
  188.9270  177.0890  146.8880 C   0  0  0  0  0  3  0  0  0  0  0  0
  188.9740  177.0630  144.4640 C   0  0  0  0  0  3  0  0  0  0  0  0
  187.6160  177.4300  144.4180 C   0  0  0  0  0  0  0  0  0  0  0  0
  185.5150  178.1740  145.6100 C   0  0  1  0  0  3  0  0  0  0  0  0
  186.9150  177.6640  143.0970 C   0  0  1  0  0  3  0  0  0  0  0  0
  187.3060  176.6150  142.0720 C   0  0  0  0  0  1  0  0  0  0  0  0
  183.6930  178.6660  144.1650 F   0  0  0  0  0  0  0  0  0  0  0  0
  185.5030  177.6480  143.2300 O   0  0  0  0  0  0  0  0  0  0  0  0
  186.9420  177.7030  145.6260 C   0  0  0  0  0  0  0  0  0  0  0  0
  189.0010  173.5520  143.2630 C   0  0  0  0  0  2  0  0  0  0  0  0
  191.3440  172.9150  143.1400 C   0  0  0  0  0  2  0  0  0  0  0  0
  192.9160  173.5280  141.3120 C   0  0  0  0  0  0  0  0  0  0  0  0
  189.7420  172.8380  141.0440 C   0  0  0  0  0  2  0  0  0  0  0  0
  192.0100  173.5120  140.1220 C   0  0  0  0  0  2  0  0  0  0  0  0
  189.9990  173.1050  142.5060 C   0  0  0  0  0  0  0  0  0  0  0  0
  190.9770  172.3930  140.2620 C   0  0  2  0  0  3  0  0  0  0  0  0
  194.0520  172.8260  141.2390 C   0  0  0  0  0  2  0  0  0  0  0  0
  192.3360  173.9510  142.6420 C   0  0  2  0  0  3  0  0  0  0  0  0
  189.9670  172.9670  137.7260 S   0  0  0  0  0  0  0  0  0  0  0  0
  192.0040  172.2000  136.2220 C   0  0  0  0  0  0  0  0  0  0  0  0
  191.9180  171.0050  136.9370 O   0  0  0  0  0  0  0  0  0  0  0  0
  192.6360  172.2250  135.1400 O   0  0  0  0  0  0  0  0  0  0  0  0
  188.9410  172.3070  136.8550 O   0  0  0  0  0  0  0  0  0  0  0  0
  190.5930  171.7730  138.9130 C   0  0  1  0  0  3  0  0  0  0  0  0
  191.3560  173.4490  136.7340 C   0  0  0  0  0  2  0  0  0  0  0  0
  189.3570  174.1660  138.3940 O   0  0  0  0  0  0  0  0  0  0  0  0
  191.8020  170.9800  138.3650 C   0  0  1  0  0  3  0  0  0  0  0  0
  190.4420  169.1090  138.9860 O   0  0  0  0  0  1  0  0  0  0  0  0
  191.7680  169.5440  138.8810 C   0  0  0  0  0  2  0  0  0  0  0  0
  1  3  2  0  0  0  0
  3  7  1  0  0  0  0
  4  7  1  0  0  0  0
  5  2  1  6  0  0  0
  5  4  1  0  0  0  0
  6  5  1  0  0  0  0
  6  1  1  0  0  0  0
  8  2  1  6  0  0  0
  8  5  1  0  0  0  0
  9 14  1  0  0  0  0
 10 11  1  6  0  0  0
 10 17  1  0  0  0  0
 12  1  1  0  0  0  0
 12 14  2  0  0  0  0
 15 12  1  0  0  0  0
 16 15  2  0  0  0  0
 16 22  1  0  0  0  0
 17 22  1  0  0  0  0
 17 13  1  6  0  0  0
 18 19  1  6  0  0  0
 18 21  1  0  0  0  0
 18 16  1  0  0  0  0
 20 10  1  0  0  0  0
 21 10  1  0  0  0  0
 22  9  2  0  0  0  0
 25 31  1  0  0  0  0
 26 28  1  0  0  0  0
 27 25  1  0  0  0  0
 28 24  1  0  0  0  0
 28 23  2  0  0  0  0
 29 27  1  6  0  0  0
 29 26  1  0  0  0  0
 30 25  2  0  0  0  0
 31 24  1  1  0  0  0
 31  8  1  0  0  0  0
 32 39  2  0  0  0  0
 33 38  1  0  0  0  0
 33 34  1  0  0  0  0
 34 40  1  0  0  0  0
 35 33  2  0  0  0  0
 36 32  2  0  0  0  0
 37 32  1  6  0  0  0
 37 29  1  0  0  0  0
 38 32  1  0  0  0  0
 40 42  1  6  0  0  0
 40 37  1  0  0  0  0
 42 41  1  0  0  0  0
M  END
>  <MODEL>
1

>  <REMARK>
 VINA RESULT:      -8.5      0.000      0.000
  Name = 
  4 active torsions:
  status: ('A' for Active; 'I' for Inactive)
    1  A    between atoms: C_1  and  C_15
    2  A    between atoms: C_22  and  C_32
    3  A    between atoms: C_31  and  C_36
    4  A    between atoms: C_33  and  C_42
                            x       y       z     vdW  Elec       q    Type
                         _______ _______ _______ _____ _____    ______ ____

>  <TORSDO>
F 4

$$$$
=
 OpenBabel11062419413D

 42 47  0  0  1  0  0  0  0  0999 V2000
  191.5520  176.6210  145.7320 C   0  0  0  0  0  0  0  0  0  0  0  0
  194.3960  176.0630  143.6550 C   0  0  0  0  0  2  0  0  0  0  0  0
  192.2600  176.9130  146.7860 N   0  0  0  0  0  0  0  0  0  0  0  0
  194.1230  175.4120  146.1230 C   0  0  0  0  0  2  0  0  0  0  0  0
  193.5190  175.4790  144.7360 C   0  0  1  0  0  0  0  0  0  0  0  0
  192.1330  175.9060  144.6450 N   0  0  0  0  0  2  0  0  0  0  0  0
  193.7040  176.6710  146.8880 C   0  0  0  0  0  2  0  0  0  0  0  0
  194.0670  174.5700  143.6460 C   0  0  1  0  0  3  0  0  0  0  0  0
  188.0400  177.3160  146.8970 C   0  0  0  0  0  3  0  0  0  0  0  0
  185.4520  178.3270  144.2800 C   0  0  1  0  0  0  0  0  0  0  0  0
  185.8600  179.6420  144.0360 O   0  0  0  0  0  1  0  0  0  0  0  0
  190.1130  176.8920  145.7150 C   0  0  0  0  0  0  0  0  0  0  0  0
  185.1690  176.7990  146.1270 O   0  0  0  0  0  1  0  0  0  0  0  0
  189.4030  176.9960  146.9170 C   0  0  0  0  0  3  0  0  0  0  0  0
  189.4490  177.0690  144.4940 C   0  0  0  0  0  3  0  0  0  0  0  0
  188.0690  177.3390  144.4610 C   0  0  0  0  0  0  0  0  0  0  0  0
  185.9210  177.8830  145.6770 C   0  0  1  0  0  3  0  0  0  0  0  0
  187.3510  177.5740  143.1490 C   0  0  1  0  0  3  0  0  0  0  0  0
  187.8150  176.5960  142.0830 C   0  0  0  0  0  1  0  0  0  0  0  0
  184.0670  178.2990  144.2490 F   0  0  0  0  0  0  0  0  0  0  0  0
  185.9440  177.4510  143.2780 O   0  0  0  0  0  0  0  0  0  0  0  0
  187.3780  177.5150  145.6770 C   0  0  0  0  0  0  0  0  0  0  0  0
  189.7480  173.5020  143.1800 C   0  0  0  0  0  2  0  0  0  0  0  0
  192.1400  173.1070  143.0070 C   0  0  0  0  0  2  0  0  0  0  0  0
  193.6250  173.9810  141.2130 C   0  0  0  0  0  0  0  0  0  0  0  0
  190.5320  172.9990  140.9190 C   0  0  0  0  0  2  0  0  0  0  0  0
  192.7120  173.9460  140.0280 C   0  0  0  0  0  2  0  0  0  0  0  0
  190.7770  173.2010  142.3930 C   0  0  0  0  0  0  0  0  0  0  0  0
  191.7960  172.7250  140.1050 C   0  0  2  0  0  3  0  0  0  0  0  0
  194.8230  173.3990  141.0920 C   0  0  0  0  0  2  0  0  0  0  0  0
  193.0210  174.2640  142.5690 C   0  0  2  0  0  3  0  0  0  0  0  0
  192.6440  170.9300  138.1450 S   0  0  0  0  0  0  0  0  0  0  0  0
  190.5730  169.2840  138.0860 C   0  0  0  0  0  0  0  0  0  0  0  0
  189.8160  170.4450  137.9260 O   0  0  0  0  0  0  0  0  0  0  0  0
  190.0650  168.1740  137.8010 O   0  0  0  0  0  0  0  0  0  0  0  0
  192.7520  171.0140  136.6530 O   0  0  0  0  0  0  0  0  0  0  0  0
  191.4600  172.1520  138.7230 C   0  0  1  0  0  3  0  0  0  0  0  0
  191.9790  169.3490  138.5990 C   0  0  0  0  0  2  0  0  0  0  0  0
  194.0020  171.1220  138.7560 O   0  0  0  0  0  0  0  0  0  0  0  0
  190.0150  171.6010  138.7480 C   0  0  1  0  0  3  0  0  0  0  0  0
  189.6010  173.5630  137.4370 O   0  0  0  0  0  1  0  0  0  0  0  0
  189.0260  172.7050  138.3810 C   0  0  0  0  0  2  0  0  0  0  0  0
  1  3  2  0  0  0  0
  3  7  1  0  0  0  0
  4  7  1  0  0  0  0
  5  2  1  6  0  0  0
  5  4  1  0  0  0  0
  6  5  1  0  0  0  0
  6  1  1  0  0  0  0
  8  2  1  6  0  0  0
  8  5  1  0  0  0  0
  9 14  1  0  0  0  0
 10 11  1  6  0  0  0
 10 17  1  0  0  0  0
 12  1  1  0  0  0  0
 12 14  2  0  0  0  0
 15 12  1  0  0  0  0
 16 15  2  0  0  0  0
 16 22  1  0  0  0  0
 17 22  1  0  0  0  0
 17 13  1  6  0  0  0
 18 19  1  6  0  0  0
 18 21  1  0  0  0  0
 18 16  1  0  0  0  0
 20 10  1  0  0  0  0
 21 10  1  0  0  0  0
 22  9  2  0  0  0  0
 25 31  1  0  0  0  0
 26 28  1  0  0  0  0
 27 25  1  0  0  0  0
 28 24  1  0  0  0  0
 28 23  2  0  0  0  0
 29 27  1  6  0  0  0
 29 26  1  0  0  0  0
 30 25  2  0  0  0  0
 31 24  1  1  0  0  0
 31  8  1  0  0  0  0
 32 38  1  0  0  0  0
 32 39  2  0  0  0  0
 33 38  1  0  0  0  0
 34 33  1  0  0  0  0
 34 40  1  0  0  0  0
 35 33  2  0  0  0  0
 36 32  2  0  0  0  0
 37 32  1  1  0  0  0
 37 40  1  0  0  0  0
 37 29  1  0  0  0  0
 40 42  1  6  0  0  0
 41 42  1  0  0  0  0
M  END
>  <MODEL>
2

>  <REMARK>
 VINA RESULT:      -8.3      1.083      2.112
  Name = 
  4 active torsions:
  status: ('A' for Active; 'I' for Inactive)
    1  A    between atoms: C_1  and  C_15
    2  A    between atoms: C_22  and  C_32
    3  A    between atoms: C_31  and  C_36
    4  A    between atoms: C_33  and  C_42
                            x       y       z     vdW  Elec       q    Type
                         _______ _______ _______ _____ _____    ______ ____

>  <TORSDO>
F 4

$$$$
=
 OpenBabel11062419413D

 42 47  0  0  1  0  0  0  0  0999 V2000
  191.0340  176.7640  145.7680 C   0  0  0  0  0  0  0  0  0  0  0  0
  194.1240  175.9800  144.1740 C   0  0  0  0  0  2  0  0  0  0  0  0
  191.5710  176.9290  146.9440 N   0  0  0  0  0  0  0  0  0  0  0  0
  193.3570  175.2580  146.5160 C   0  0  0  0  0  2  0  0  0  0  0  0
  193.0170  175.4520  145.0520 C   0  0  1  0  0  0  0  0  0  0  0  0
  191.7190  176.0350  144.7540 N   0  0  0  0  0  2  0  0  0  0  0  0
  192.9420  176.5230  147.2740 C   0  0  0  0  0  2  0  0  0  0  0  0
  193.6500  174.5350  144.0180 C   0  0  1  0  0  3  0  0  0  0  0  0
  187.8240  177.6130  143.9920 C   0  0  0  0  0  3  0  0  0  0  0  0
  184.7290  178.3030  146.1170 C   0  0  1  0  0  0  0  0  0  0  0  0
  184.4150  176.9990  146.5130 O   0  0  0  0  0  1  0  0  0  0  0  0
  189.6550  177.1950  145.5240 C   0  0  0  0  0  0  0  0  0  0  0  0
  185.4800  179.5050  144.1620 O   0  0  0  0  0  1  0  0  0  0  0  0
  189.1600  177.2590  144.2160 C   0  0  0  0  0  3  0  0  0  0  0  0
  188.8240  177.5230  146.6020 C   0  0  0  0  0  3  0  0  0  0  0  0
  187.4950  177.9310  146.3850 C   0  0  0  0  0  0  0  0  0  0  0  0
  185.5450  178.2740  144.8130 C   0  0  1  0  0  3  0  0  0  0  0  0
  186.5760  178.2460  147.5460 C   0  0  1  0  0  3  0  0  0  0  0  0
  187.2970  179.0400  148.6210 C   0  0  0  0  0  1  0  0  0  0  0  0
  183.5400  178.9730  145.8790 F   0  0  0  0  0  0  0  0  0  0  0  0
  185.4360  178.9860  147.1410 O   0  0  0  0  0  0  0  0  0  0  0  0
  186.9830  177.9210  145.0710 C   0  0  0  0  0  0  0  0  0  0  0  0
  189.3960  173.9530  142.7610 C   0  0  0  0  0  2  0  0  0  0  0  0
  191.7340  173.3160  142.9680 C   0  0  0  0  0  2  0  0  0  0  0  0
  193.5850  174.1160  141.5110 C   0  0  0  0  0  0  0  0  0  0  0  0
  190.5110  173.4820  140.6360 C   0  0  0  0  0  2  0  0  0  0  0  0
  192.8930  174.2360  140.1900 C   0  0  0  0  0  2  0  0  0  0  0  0
  190.5130  173.5840  142.1400 C   0  0  0  0  0  0  0  0  0  0  0  0
  191.8660  173.1170  140.0300 C   0  0  2  0  0  3  0  0  0  0  0  0
  194.7250  173.4180  141.5550 C   0  0  0  0  0  2  0  0  0  0  0  0
  192.7840  174.3940  142.7620 C   0  0  2  0  0  3  0  0  0  0  0  0
  192.6960  171.1910  138.1900 S   0  0  0  0  0  0  0  0  0  0  0  0
  190.3720  170.0760  137.5930 C   0  0  0  0  0  0  0  0  0  0  0  0
  189.9530  171.3840  137.3460 O   0  0  0  0  0  0  0  0  0  0  0  0
  189.7020  169.1190  137.1390 O   0  0  0  0  0  0  0  0  0  0  0  0
  193.1470  171.2610  136.7630 O   0  0  0  0  0  0  0  0  0  0  0  0
  191.7220  172.6500  138.5760 C   0  0  1  0  0  3  0  0  0  0  0  0
  191.6070  169.8050  138.3950 C   0  0  0  0  0  2  0  0  0  0  0  0
  193.8940  171.0540  139.0860 O   0  0  0  0  0  0  0  0  0  0  0  0
  190.2220  172.4540  138.2600 C   0  0  1  0  0  3  0  0  0  0  0  0
  188.2200  173.7140  137.8790 O   0  0  0  0  0  1  0  0  0  0  0  0
  189.6140  173.7620  137.7580 C   0  0  0  0  0  2  0  0  0  0  0  0
  1  3  2  0  0  0  0
  3  7  1  0  0  0  0
  4  7  1  0  0  0  0
  5  2  1  6  0  0  0
  5  4  1  0  0  0  0
  6  5  1  0  0  0  0
  6  1  1  0  0  0  0
  8  2  1  6  0  0  0
  8  5  1  0  0  0  0
  9 14  2  0  0  0  0
  9 22  1  0  0  0  0
 10 20  1  6  0  0  0
 10 11  1  0  0  0  0
 10 21  1  0  0  0  0
 12  1  1  0  0  0  0
 12 15  2  0  0  0  0
 14 12  1  0  0  0  0
 16 15  1  0  0  0  0
 16 18  1  0  0  0  0
 17 13  1  1  0  0  0
 17 22  1  0  0  0  0
 17 10  1  0  0  0  0
 18 19  1  1  0  0  0
 21 18  1  0  0  0  0
 22 16  2  0  0  0  0
 25 30  2  0  0  0  0
 25 31  1  0  0  0  0
 26 28  1  0  0  0  0
 27 25  1  0  0  0  0
 28 23  2  0  0  0  0
 28 24  1  0  0  0  0
 29 27  1  6  0  0  0
 29 26  1  0  0  0  0
 31 24  1  1  0  0  0
 31  8  1  0  0  0  0
 32 38  1  0  0  0  0
 32 39  2  0  0  0  0
 33 38  1  0  0  0  0
 34 33  1  0  0  0  0
 34 40  1  0  0  0  0
 35 33  2  0  0  0  0
 36 32  2  0  0  0  0
 37 32  1  1  0  0  0
 37 29  1  0  0  0  0
 40 42  1  6  0  0  0
 40 37  1  0  0  0  0
 42 41  1  0  0  0  0
M  END
>  <MODEL>
3

>  <REMARK>
 VINA RESULT:      -8.2      1.263      2.776
  Name = 
  4 active torsions:
  status: ('A' for Active; 'I' for Inactive)
    1  A    between atoms: C_1  and  C_15
    2  A    between atoms: C_22  and  C_32
    3  A    between atoms: C_31  and  C_36
    4  A    between atoms: C_33  and  C_42
                            x       y       z     vdW  Elec       q    Type
                         _______ _______ _______ _____ _____    ______ ____

>  <TORSDO>
F 4

$$$$
=
 OpenBabel11062419413D

 42 47  0  0  1  0  0  0  0  0999 V2000
  194.6730  174.6490  143.1540 C   0  0  0  0  0  0  0  0  0  0  0  0
  193.0550  174.1020  146.2830 C   0  0  0  0  0  2  0  0  0  0  0  0
  195.8680  174.4280  143.6230 N   0  0  0  0  0  0  0  0  0  0  0  0
  195.2920  175.2940  145.8780 C   0  0  0  0  0  2  0  0  0  0  0  0
  193.8530  175.0810  145.4570 C   0  0  1  0  0  0  0  0  0  0  0  0
  193.5980  174.9730  144.0310 N   0  0  0  0  0  2  0  0  0  0  0  0
  196.1750  174.3490  145.0560 C   0  0  0  0  0  2  0  0  0  0  0  0
  192.7370  175.5950  146.3520 C   0  0  1  0  0  3  0  0  0  0  0  0
  195.1790  175.4120  139.5010 C   0  0  0  0  0  3  0  0  0  0  0  0
  192.8330  173.7570  136.9850 C   0  0  1  0  0  0  0  0  0  0  0  0
  193.3430  172.4550  137.0030 O   0  0  0  0  0  1  0  0  0  0  0  0
  194.4530  174.7170  141.7060 C   0  0  0  0  0  0  0  0  0  0  0  0
  193.6150  176.0410  136.9990 O   0  0  0  0  0  1  0  0  0  0  0  0
  195.3600  175.4020  140.8890 C   0  0  0  0  0  3  0  0  0  0  0  0
  193.3460  174.0760  141.1370 C   0  0  0  0  0  3  0  0  0  0  0  0
  193.1250  174.1230  139.7480 C   0  0  0  0  0  0  0  0  0  0  0  0
  193.9190  174.7520  137.4320 C   0  0  1  0  0  3  0  0  0  0  0  0
  191.9550  173.3980  139.1190 C   0  0  1  0  0  3  0  0  0  0  0  0
  190.6950  173.5590  139.9500 C   0  0  0  0  0  1  0  0  0  0  0  0
  192.4730  174.0530  135.6800 F   0  0  0  0  0  0  0  0  0  0  0  0
  191.6810  173.8610  137.8060 O   0  0  0  0  0  0  0  0  0  0  0  0
  194.0830  174.7520  138.9260 C   0  0  0  0  0  0  0  0  0  0  0  0
  191.1840  178.2910  143.1380 C   0  0  0  0  0  2  0  0  0  0  0  0
  191.2940  177.4040  145.3990 C   0  0  0  0  0  2  0  0  0  0  0  0
  190.2170  175.3030  146.1830 C   0  0  0  0  0  0  0  0  0  0  0  0
  189.0640  177.4200  143.9900 C   0  0  0  0  0  2  0  0  0  0  0  0
  188.9610  175.2920  145.3700 C   0  0  0  0  0  2  0  0  0  0  0  0
  190.5310  177.7300  144.1510 C   0  0  0  0  0  0  0  0  0  0  0  0
  188.4360  176.7160  145.1930 C   0  0  2  0  0  3  0  0  0  0  0  0
  190.1030  175.1470  147.5060 C   0  0  0  0  0  2  0  0  0  0  0  0
  191.4590  175.9030  145.5650 C   0  0  2  0  0  3  0  0  0  0  0  0
  186.1820  177.7710  146.4540 S   0  0  0  0  0  0  0  0  0  0  0  0
  185.1820  179.2320  144.4870 C   0  0  0  0  0  0  0  0  0  0  0  0
  185.2840  178.0610  143.7360 O   0  0  0  0  0  0  0  0  0  0  0  0
  184.4490  180.1630  144.0790 O   0  0  0  0  0  0  0  0  0  0  0  0
  184.8540  177.1920  146.8380 O   0  0  0  0  0  0  0  0  0  0  0  0
  186.9040  176.7780  145.1420 C   0  0  1  0  0  3  0  0  0  0  0  0
  185.9410  179.3900  145.7690 C   0  0  0  0  0  2  0  0  0  0  0  0
  187.0660  177.8400  147.6660 O   0  0  0  0  0  0  0  0  0  0  0  0
  186.4690  177.2570  143.7380 C   0  0  1  0  0  3  0  0  0  0  0  0
  186.7350  176.4160  141.5100 O   0  0  0  0  0  1  0  0  0  0  0  0
  186.3160  176.0630  142.7990 C   0  0  0  0  0  2  0  0  0  0  0  0
  1  3  2  0  0  0  0
  1  6  1  0  0  0  0
  3  7  1  0  0  0  0
  5  4  1  1  0  0  0
  5  2  1  0  0  0  0
  5  8  1  0  0  0  0
  6  5  1  0  0  0  0
  7  4  1  0  0  0  0
  8  2  1  1  0  0  0
  9 14  1  0  0  0  0
 10 20  1  6  0  0  0
 10 11  1  0  0  0  0
 10 17  1  0  0  0  0
 10 21  1  0  0  0  0
 12  1  1  0  0  0  0
 14 12  2  0  0  0  0
 15 12  1  0  0  0  0
 16 15  2  0  0  0  0
 17 13  1  1  0  0  0
 17 22  1  0  0  0  0
 18 16  1  0  0  0  0
 18 19  1  1  0  0  0
 21 18  1  0  0  0  0
 22  9  2  0  0  0  0
 22 16  1  0  0  0  0
 23 28  2  0  0  0  0
 25 30  2  0  0  0  0
 26 28  1  0  0  0  0
 27 25  1  0  0  0  0
 28 24  1  0  0  0  0
 29 26  1  6  0  0  0
 29 27  1  0  0  0  0
 31 24  1  1  0  0  0
 31 25  1  0  0  0  0
 31  8  1  0  0  0  0
 32 36  2  0  0  0  0
 32 39  2  0  0  0  0
 33 38  1  0  0  0  0
 34 40  1  0  0  0  0
 34 33  1  0  0  0  0
 35 33  2  0  0  0  0
 37 29  1  6  0  0  0
 37 32  1  0  0  0  0
 38 32  1  0  0  0  0
 40 42  1  6  0  0  0
 40 37  1  0  0  0  0
 41 42  1  0  0  0  0
M  END
>  <MODEL>
4

>  <REMARK>
 VINA RESULT:      -8.2      3.275      8.667
  Name = 
  4 active torsions:
  status: ('A' for Active; 'I' for Inactive)
    1  A    between atoms: C_1  and  C_15
    2  A    between atoms: C_22  and  C_32
    3  A    between atoms: C_31  and  C_36
    4  A    between atoms: C_33  and  C_42
                            x       y       z     vdW  Elec       q    Type
                         _______ _______ _______ _____ _____    ______ ____

>  <TORSDO>
F 4

$$$$
=
 OpenBabel11062419413D

 42 47  0  0  1  0  0  0  0  0999 V2000
  191.5380  170.5660  140.8620 C   0  0  0  0  0  0  0  0  0  0  0  0
  190.3090  173.4150  139.1080 C   0  0  0  0  0  2  0  0  0  0  0  0
  191.4360  169.7700  139.8350 N   0  0  0  0  0  0  0  0  0  0  0  0
  189.4850  170.9920  138.9060 C   0  0  0  0  0  2  0  0  0  0  0  0
  189.9280  172.1300  139.8010 C   0  0  1  0  0  0  0  0  0  0  0  0
  190.8100  171.7890  140.9050 N   0  0  0  0  0  2  0  0  0  0  0  0
  190.7060  170.1150  138.6100 C   0  0  0  0  0  2  0  0  0  0  0  0
  189.0320  173.3500  139.9450 C   0  0  1  0  0  3  0  0  0  0  0  0
  193.1600  168.3770  143.4610 C   0  0  0  0  0  3  0  0  0  0  0  0
  195.4730  170.0330  146.0070 C   0  0  1  0  0  0  0  0  0  0  0  0
  196.5900  170.2670  145.1980 O   0  0  0  0  0  1  0  0  0  0  0  0
  192.2840  170.1410  142.0490 C   0  0  0  0  0  0  0  0  0  0  0  0
  193.8140  168.3250  146.4060 O   0  0  0  0  0  1  0  0  0  0  0  0
  192.3950  168.7800  142.3600 C   0  0  0  0  0  3  0  0  0  0  0  0
  192.9050  171.0970  142.8630 C   0  0  0  0  0  3  0  0  0  0  0  0
  193.6330  170.7050  144.0020 C   0  0  0  0  0  0  0  0  0  0  0  0
  194.6390  168.8760  145.4270 C   0  0  1  0  0  3  0  0  0  0  0  0
  194.3430  171.7280  144.8630 C   0  0  1  0  0  3  0  0  0  0  0  0
  193.4860  172.9640  145.0730 C   0  0  0  0  0  1  0  0  0  0  0  0
  195.9270  169.6640  147.2620 F   0  0  0  0  0  0  0  0  0  0  0  0
  194.6880  171.2080  146.1370 O   0  0  0  0  0  0  0  0  0  0  0  0
  193.8020  169.3310  144.2650 C   0  0  0  0  0  0  0  0  0  0  0  0
  189.8700  172.5070  144.2570 C   0  0  0  0  0  2  0  0  0  0  0  0
  188.5290  173.3110  142.3960 C   0  0  0  0  0  2  0  0  0  0  0  0
  188.7970  175.5110  141.2640 C   0  0  0  0  0  0  0  0  0  0  0  0
  189.1980  174.8520  144.4300 C   0  0  0  0  0  2  0  0  0  0  0  0
  189.2010  176.3870  142.4080 C   0  0  0  0  0  2  0  0  0  0  0  0
  189.2090  173.5250  143.7140 C   0  0  0  0  0  0  0  0  0  0  0  0
  188.4660  175.9640  143.6800 C   0  0  2  0  0  3  0  0  0  0  0  0
  187.7790  175.9170  140.4990 C   0  0  0  0  0  2  0  0  0  0  0  0
  189.2380  174.0660  141.2840 C   0  0  2  0  0  3  0  0  0  0  0  0
  186.4200  177.6290  144.5870 S   0  0  0  0  0  0  0  0  0  0  0  0
  186.4830  177.0870  147.1750 C   0  0  0  0  0  0  0  0  0  0  0  0
  187.8460  177.3690  147.0720 O   0  0  0  0  0  0  0  0  0  0  0  0
  185.9410  177.0790  148.3050 O   0  0  0  0  0  0  0  0  0  0  0  0
  186.3160  179.1100  144.7940 O   0  0  0  0  0  0  0  0  0  0  0  0
  188.1510  177.1490  144.6010 C   0  0  1  0  0  3  0  0  0  0  0  0
  185.6660  176.7900  145.9560 C   0  0  0  0  0  2  0  0  0  0  0  0
  185.7370  177.2560  143.3020 O   0  0  0  0  0  0  0  0  0  0  0  0
  188.6570  176.8240  146.0250 C   0  0  1  0  0  3  0  0  0  0  0  0
  190.5590  176.9730  147.4740 O   0  0  0  0  0  1  0  0  0  0  0  0
  190.1110  177.2640  146.1800 C   0  0  0  0  0  2  0  0  0  0  0  0
  1  6  1  0  0  0  0
  1 12  1  0  0  0  0
  2  5  1  0  0  0  0
  3  1  2  0  0  0  0
  5  4  1  6  0  0  0
  5  8  1  0  0  0  0
  5  6  1  0  0  0  0
  7  4  1  0  0  0  0
  7  3  1  0  0  0  0
  8  2  1  6  0  0  0
  8 31  1  0  0  0  0
  9 22  1  0  0  0  0
 10 11  1  6  0  0  0
 10 21  1  0  0  0  0
 10 20  1  0  0  0  0
 12 14  1  0  0  0  0
 12 15  2  0  0  0  0
 14  9  2  0  0  0  0
 15 16  1  0  0  0  0
 16 22  2  0  0  0  0
 16 18  1  0  0  0  0
 17 10  1  0  0  0  0
 17 13  1  1  0  0  0
 18 19  1  1  0  0  0
 18 21  1  0  0  0  0
 22 17  1  0  0  0  0
 24 28  1  0  0  0  0
 25 31  1  0  0  0  0
 25 27  1  0  0  0  0
 28 23  2  0  0  0  0
 28 26  1  0  0  0  0
 29 27  1  6  0  0  0
 29 26  1  0  0  0  0
 30 25  2  0  0  0  0
 31 24  1  1  0  0  0
 32 37  1  0  0  0  0
 32 36  2  0  0  0  0
 32 38  1  0  0  0  0
 33 35  2  0  0  0  0
 34 33  1  0  0  0  0
 37 29  1  6  0  0  0
 37 40  1  0  0  0  0
 38 33  1  0  0  0  0
 39 32  2  0  0  0  0
 40 42  1  6  0  0  0
 40 34  1  0  0  0  0
 42 41  1  0  0  0  0
M  END
>  <MODEL>
5

>  <REMARK>
 VINA RESULT:      -8.0      4.734      9.564
  Name = 
  4 active torsions:
  status: ('A' for Active; 'I' for Inactive)
    1  A    between atoms: C_1  and  C_15
    2  A    between atoms: C_22  and  C_32
    3  A    between atoms: C_31  and  C_36
    4  A    between atoms: C_33  and  C_42
                            x       y       z     vdW  Elec       q    Type
                         _______ _______ _______ _____ _____    ______ ____

>  <TORSDO>
F 4

$$$$
=
 OpenBabel11062419413D

 42 47  0  0  1  0  0  0  0  0999 V2000
  195.2930  174.3560  143.3340 C   0  0  0  0  0  0  0  0  0  0  0  0
  193.3370  173.6400  146.2280 C   0  0  0  0  0  2  0  0  0  0  0  0
  196.4310  174.1480  143.9340 N   0  0  0  0  0  0  0  0  0  0  0  0
  195.5690  174.9070  146.1350 C   0  0  0  0  0  2  0  0  0  0  0  0
  194.1960  174.6730  145.5390 C   0  0  1  0  0  0  0  0  0  0  0  0
  194.1130  174.6160  144.0900 N   0  0  0  0  0  2  0  0  0  0  0  0
  196.5700  174.0190  145.3890 C   0  0  0  0  0  2  0  0  0  0  0  0
  192.9670  175.1210  146.3150 C   0  0  1  0  0  3  0  0  0  0  0  0
  194.1520  175.2910  139.8690 C   0  0  0  0  0  3  0  0  0  0  0  0
  196.5390  174.6400  136.9620 C   0  0  1  0  0  0  0  0  0  0  0  0
  197.4570  175.6730  137.1710 O   0  0  0  0  0  1  0  0  0  0  0  0
  195.2430  174.4760  141.8750 C   0  0  0  0  0  0  0  0  0  0  0  0
  194.1580  174.2480  137.0390 O   0  0  0  0  0  1  0  0  0  0  0  0
  194.1650  175.1250  141.2600 C   0  0  0  0  0  3  0  0  0  0  0  0
  196.2840  173.9590  141.0950 C   0  0  0  0  0  3  0  0  0  0  0  0
  196.2560  174.0730  139.6930 C   0  0  0  0  0  0  0  0  0  0  0  0
  195.1860  175.0030  137.6000 C   0  0  1  0  0  3  0  0  0  0  0  0
  197.3970  173.5560  138.8440 C   0  0  1  0  0  3  0  0  0  0  0  0
  197.8900  172.2090  139.3440 C   0  0  0  0  0  1  0  0  0  0  0  0
  196.3590  174.4990  135.5960 F   0  0  0  0  0  0  0  0  0  0  0  0
  197.0310  173.4140  137.4820 O   0  0  0  0  0  0  0  0  0  0  0  0
  195.2050  174.7930  139.0880 C   0  0  0  0  0  0  0  0  0  0  0  0
  191.8580  177.6050  142.7630 C   0  0  0  0  0  2  0  0  0  0  0  0
  191.7230  176.9140  145.0900 C   0  0  0  0  0  2  0  0  0  0  0  0
  190.4580  174.9500  145.9450 C   0  0  0  0  0  0  0  0  0  0  0  0
  189.6240  176.9260  143.4920 C   0  0  0  0  0  2  0  0  0  0  0  0
  189.2760  174.9340  145.0270 C   0  0  0  0  0  2  0  0  0  0  0  0
  191.0880  177.1700  143.7570 C   0  0  0  0  0  0  0  0  0  0  0  0
  188.8560  176.3640  144.6870 C   0  0  2  0  0  3  0  0  0  0  0  0
  190.2230  174.9160  147.2610 C   0  0  0  0  0  2  0  0  0  0  0  0
  191.7810  175.4260  145.3940 C   0  0  2  0  0  3  0  0  0  0  0  0
  186.4800  177.0830  145.9610 S   0  0  0  0  0  0  0  0  0  0  0  0
  185.7240  179.1100  144.4380 C   0  0  0  0  0  0  0  0  0  0  0  0
  185.9010  178.2170  143.3810 O   0  0  0  0  0  0  0  0  0  0  0  0
  185.0490  180.1500  144.2580 O   0  0  0  0  0  0  0  0  0  0  0  0
  185.1130  176.4720  146.0070 O   0  0  0  0  0  0  0  0  0  0  0  0
  187.3400  176.5030  144.4950 C   0  0  1  0  0  3  0  0  0  0  0  0
  186.3320  178.8420  145.7800 C   0  0  0  0  0  2  0  0  0  0  0  0
  187.2200  176.7460  147.2240 O   0  0  0  0  0  0  0  0  0  0  0  0
  187.0720  177.4000  143.2650 C   0  0  1  0  0  3  0  0  0  0  0  0
  186.8230  177.3780  140.8820 O   0  0  0  0  0  1  0  0  0  0  0  0
  187.0190  176.5530  141.9960 C   0  0  0  0  0  2  0  0  0  0  0  0
  1  3  2  0  0  0  0
  1  6  1  0  0  0  0
  3  7  1  0  0  0  0
  5  4  1  1  0  0  0
  5  2  1  0  0  0  0
  5  8  1  0  0  0  0
  6  5  1  0  0  0  0
  7  4  1  0  0  0  0
  8  2  1  1  0  0  0
  9 14  1  0  0  0  0
 10 20  1  6  0  0  0
 10 11  1  0  0  0  0
 10 21  1  0  0  0  0
 10 17  1  0  0  0  0
 12  1  1  0  0  0  0
 14 12  2  0  0  0  0
 15 12  1  0  0  0  0
 16 15  2  0  0  0  0
 17 13  1  6  0  0  0
 17 22  1  0  0  0  0
 18 19  1  1  0  0  0
 18 16  1  0  0  0  0
 21 18  1  0  0  0  0
 22 16  1  0  0  0  0
 22  9  2  0  0  0  0
 23 28  2  0  0  0  0
 25 30  2  0  0  0  0
 26 28  1  0  0  0  0
 27 25  1  0  0  0  0
 28 24  1  0  0  0  0
 29 26  1  6  0  0  0
 29 27  1  0  0  0  0
 31 24  1  1  0  0  0
 31 25  1  0  0  0  0
 31  8  1  0  0  0  0
 32 36  2  0  0  0  0
 32 39  2  0  0  0  0
 33 38  1  0  0  0  0
 34 33  1  0  0  0  0
 35 33  2  0  0  0  0
 37 29  1  1  0  0  0
 37 32  1  0  0  0  0
 38 32  1  0  0  0  0
 40 42  1  6  0  0  0
 40 34  1  0  0  0  0
 40 37  1  0  0  0  0
 41 42  1  0  0  0  0
M  END
>  <MODEL>
6

>  <REMARK>
 VINA RESULT:      -7.9      4.218      9.260
  Name = 
  4 active torsions:
  status: ('A' for Active; 'I' for Inactive)
    1  A    between atoms: C_1  and  C_15
    2  A    between atoms: C_22  and  C_32
    3  A    between atoms: C_31  and  C_36
    4  A    between atoms: C_33  and  C_42
                            x       y       z     vdW  Elec       q    Type
                         _______ _______ _______ _____ _____    ______ ____

>  <TORSDO>
F 4

$$$$
=
 OpenBabel11062419413D

 42 47  0  0  1  0  0  0  0  0999 V2000
  191.0500  176.6770  145.5880 C   0  0  0  0  0  0  0  0  0  0  0  0
  194.1460  175.9460  143.9790 C   0  0  0  0  0  2  0  0  0  0  0  0
  191.5790  176.7720  146.7750 N   0  0  0  0  0  0  0  0  0  0  0  0
  193.3500  175.1070  146.2720 C   0  0  0  0  0  2  0  0  0  0  0  0
  193.0240  175.3840  144.8180 C   0  0  1  0  0  0  0  0  0  0  0  0
  191.7360  175.9960  144.5420 N   0  0  0  0  0  2  0  0  0  0  0  0
  192.9420  176.3330  147.0940 C   0  0  0  0  0  2  0  0  0  0  0  0
  193.6570  174.5170  143.7410 C   0  0  1  0  0  3  0  0  0  0  0  0
  187.8400  177.5890  143.8420 C   0  0  0  0  0  3  0  0  0  0  0  0
  184.7830  178.3490  145.9960 C   0  0  1  0  0  0  0  0  0  0  0  0
  184.4460  177.0530  146.3990 O   0  0  0  0  0  1  0  0  0  0  0  0
  189.6780  177.1360  145.3570 C   0  0  0  0  0  0  0  0  0  0  0  0
  185.5380  179.5290  144.0300 O   0  0  0  0  0  1  0  0  0  0  0  0
  189.1710  177.2070  144.0530 C   0  0  0  0  0  3  0  0  0  0  0  0
  188.8650  177.4850  146.4420 C   0  0  0  0  0  3  0  0  0  0  0  0
  187.5420  177.9200  146.2370 C   0  0  0  0  0  0  0  0  0  0  0  0
  185.5850  178.2990  144.6830 C   0  0  1  0  0  3  0  0  0  0  0  0
  186.6420  178.2570  147.4070 C   0  0  1  0  0  3  0  0  0  0  0  0
  187.3910  179.0390  148.4720 C   0  0  0  0  0  1  0  0  0  0  0  0
  183.6050  179.0430  145.7680 F   0  0  0  0  0  0  0  0  0  0  0  0
  185.5130  179.0200  147.0110 O   0  0  0  0  0  0  0  0  0  0  0  0
  187.0170  177.9170  144.9290 C   0  0  0  0  0  0  0  0  0  0  0  0
  189.3990  174.1410  142.4220 C   0  0  0  0  0  2  0  0  0  0  0  0
  191.7090  173.4100  142.6270 C   0  0  0  0  0  2  0  0  0  0  0  0
  193.6050  174.1920  141.2200 C   0  0  0  0  0  0  0  0  0  0  0  0
  190.5190  173.7060  140.2910 C   0  0  0  0  0  2  0  0  0  0  0  0
  192.9330  174.3860  139.8970 C   0  0  0  0  0  2  0  0  0  0  0  0
  190.5080  173.7530  141.7980 C   0  0  0  0  0  0  0  0  0  0  0  0
  191.8660  173.3120  139.6860 C   0  0  2  0  0  3  0  0  0  0  0  0
  194.7170  173.4510  141.2490 C   0  0  0  0  0  2  0  0  0  0  0  0
  192.8010  174.4540  142.4720 C   0  0  2  0  0  3  0  0  0  0  0  0
  190.2180  171.9850  137.8680 S   0  0  0  0  0  0  0  0  0  0  0  0
  189.6600  173.9660  136.2050 C   0  0  0  0  0  0  0  0  0  0  0  0
  191.0430  174.1400  136.1500 O   0  0  0  0  0  0  0  0  0  0  0  0
  188.9400  174.4790  135.3170 O   0  0  0  0  0  0  0  0  0  0  0  0
  190.4830  171.0000  136.7700 O   0  0  0  0  0  0  0  0  0  0  0  0
  191.7220  172.9050  138.2140 C   0  0  1  0  0  3  0  0  0  0  0  0
  189.0290  173.1790  137.3120 C   0  0  0  0  0  2  0  0  0  0  0  0
  189.7050  171.2580  139.0780 O   0  0  0  0  0  0  0  0  0  0  0  0
  191.8530  174.1670  137.3310 C   0  0  1  0  0  3  0  0  0  0  0  0
  193.9570  173.1920  136.7280 O   0  0  0  0  0  1  0  0  0  0  0  0
  193.3190  174.4130  136.9790 C   0  0  0  0  0  2  0  0  0  0  0  0
  1  3  2  0  0  0  0
  3  7  1  0  0  0  0
  4  7  1  0  0  0  0
  5  2  1  6  0  0  0
  5  4  1  0  0  0  0
  6  5  1  0  0  0  0
  6  1  1  0  0  0  0
  8  2  1  6  0  0  0
  8  5  1  0  0  0  0
  9 14  2  0  0  0  0
  9 22  1  0  0  0  0
 10 20  1  6  0  0  0
 10 11  1  0  0  0  0
 10 21  1  0  0  0  0
 12  1  1  0  0  0  0
 12 15  2  0  0  0  0
 14 12  1  0  0  0  0
 16 15  1  0  0  0  0
 16 18  1  0  0  0  0
 17 13  1  1  0  0  0
 17 22  1  0  0  0  0
 17 10  1  0  0  0  0
 18 19  1  1  0  0  0
 21 18  1  0  0  0  0
 22 16  2  0  0  0  0
 25 30  2  0  0  0  0
 25 31  1  0  0  0  0
 26 28  1  0  0  0  0
 27 25  1  0  0  0  0
 28 23  2  0  0  0  0
 28 24  1  0  0  0  0
 29 27  1  6  0  0  0
 29 26  1  0  0  0  0
 31 24  1  1  0  0  0
 31  8  1  0  0  0  0
 32 39  2  0  0  0  0
 33 38  1  0  0  0  0
 34 33  1  0  0  0  0
 34 40  1  0  0  0  0
 35 33  2  0  0  0  0
 36 32  2  0  0  0  0
 37 32  1  1  0  0  0
 37 29  1  0  0  0  0
 38 32  1  0  0  0  0
 40 42  1  6  0  0  0
 40 37  1  0  0  0  0
 41 42  1  0  0  0  0
M  END
>  <MODEL>
7

>  <REMARK>
 VINA RESULT:      -7.8      1.349      2.624
  Name = 
  4 active torsions:
  status: ('A' for Active; 'I' for Inactive)
    1  A    between atoms: C_1  and  C_15
    2  A    between atoms: C_22  and  C_32
    3  A    between atoms: C_31  and  C_36
    4  A    between atoms: C_33  and  C_42
                            x       y       z     vdW  Elec       q    Type
                         _______ _______ _______ _____ _____    ______ ____

>  <TORSDO>
F 4

$$$$
=
 OpenBabel11062419413D

 42 47  0  0  1  0  0  0  0  0999 V2000
  192.5720  176.7830  144.7920 C   0  0  0  0  0  0  0  0  0  0  0  0
  196.0140  176.6150  143.8750 C   0  0  0  0  0  2  0  0  0  0  0  0
  192.8160  176.8450  146.0700 N   0  0  0  0  0  0  0  0  0  0  0  0
  194.8830  175.4810  145.8820 C   0  0  0  0  0  2  0  0  0  0  0  0
  194.8370  175.8370  144.4110 C   0  0  1  0  0  0  0  0  0  0  0  0
  193.5600  176.2940  143.8880 N   0  0  0  0  0  2  0  0  0  0  0  0
  194.1310  176.5660  146.6600 C   0  0  0  0  0  2  0  0  0  0  0  0
  195.8060  175.1610  143.4550 C   0  0  1  0  0  3  0  0  0  0  0  0
  189.7780  177.9160  142.5360 C   0  0  0  0  0  3  0  0  0  0  0  0
  186.2020  177.0210  143.5270 C   0  0  1  0  0  0  0  0  0  0  0  0
  186.1980  175.6610  143.2040 O   0  0  0  0  0  1  0  0  0  0  0  0
  191.2280  177.0730  144.2850 C   0  0  0  0  0  0  0  0  0  0  0  0
  187.0140  179.1190  142.6510 O   0  0  0  0  0  1  0  0  0  0  0  0
  191.0650  177.6970  143.0420 C   0  0  0  0  0  3  0  0  0  0  0  0
  190.1050  176.7080  145.0370 C   0  0  0  0  0  3  0  0  0  0  0  0
  188.8070  176.9720  144.5610 C   0  0  0  0  0  0  0  0  0  0  0  0
  187.2790  177.7520  142.7050 C   0  0  1  0  0  3  0  0  0  0  0  0
  187.5860  176.5420  145.3460 C   0  0  1  0  0  3  0  0  0  0  0  0
  187.7640  176.8040  146.8310 C   0  0  0  0  0  1  0  0  0  0  0  0
  184.9620  177.5410  143.1920 F   0  0  0  0  0  0  0  0  0  0  0  0
  186.4110  177.2110  144.9180 O   0  0  0  0  0  0  0  0  0  0  0  0
  188.6510  177.5310  143.2770 C   0  0  0  0  0  0  0  0  0  0  0  0
  191.9930  174.5170  141.2070 C   0  0  0  0  0  2  0  0  0  0  0  0
  194.2550  173.9610  141.9000 C   0  0  0  0  0  2  0  0  0  0  0  0
  196.3380  174.9600  140.9770 C   0  0  0  0  0  0  0  0  0  0  0  0
  193.5870  174.2790  139.3680 C   0  0  0  0  0  2  0  0  0  0  0  0
  195.9590  175.1660  139.5440 C   0  0  0  0  0  2  0  0  0  0  0  0
  193.2410  174.2500  140.8350 C   0  0  0  0  0  0  0  0  0  0  0  0
  195.0640  174.0240  139.0670 C   0  0  2  0  0  3  0  0  0  0  0  0
  197.4780  174.3080  141.2310 C   0  0  0  0  0  2  0  0  0  0  0  0
  195.2590  175.0940  142.0250 C   0  0  2  0  0  3  0  0  0  0  0  0
  194.6030  174.9030  136.4590 S   0  0  0  0  0  0  0  0  0  0  0  0
  197.0930  175.1640  135.6040 C   0  0  0  0  0  0  0  0  0  0  0  0
  197.2530  173.8550  136.0590 O   0  0  0  0  0  0  0  0  0  0  0  0
  197.9310  175.6440  134.8040 O   0  0  0  0  0  0  0  0  0  0  0  0
  194.1370  174.2170  135.2110 O   0  0  0  0  0  0  0  0  0  0  0  0
  195.2830  173.6810  137.5880 C   0  0  1  0  0  3  0  0  0  0  0  0
  195.9390  176.0010  136.0620 C   0  0  0  0  0  2  0  0  0  0  0  0
  193.4610  175.6640  137.0670 O   0  0  0  0  0  0  0  0  0  0  0  0
  196.7910  173.4380  137.3490 C   0  0  1  0  0  3  0  0  0  0  0  0
  196.2960  171.4520  138.5940 O   0  0  0  0  0  1  0  0  0  0  0  0
  197.1340  171.9710  137.6000 C   0  0  0  0  0  2  0  0  0  0  0  0
  1  3  2  0  0  0  0
  3  7  1  0  0  0  0
  4  7  1  0  0  0  0
  5  2  1  1  0  0  0
  5  4  1  0  0  0  0
  6  5  1  0  0  0  0
  6  1  1  0  0  0  0
  8  2  1  6  0  0  0
  8  5  1  0  0  0  0
  9 14  2  0  0  0  0
  9 22  1  0  0  0  0
 10 20  1  6  0  0  0
 10 21  1  0  0  0  0
 11 10  1  0  0  0  0
 12  1  1  0  0  0  0
 12 15  2  0  0  0  0
 14 12  1  0  0  0  0
 16 15  1  0  0  0  0
 16 18  1  0  0  0  0
 17 13  1  1  0  0  0
 17 22  1  0  0  0  0
 17 10  1  0  0  0  0
 18 19  1  1  0  0  0
 21 18  1  0  0  0  0
 22 16  2  0  0  0  0
 25 30  2  0  0  0  0
 25 31  1  0  0  0  0
 26 28  1  0  0  0  0
 27 25  1  0  0  0  0
 28 23  2  0  0  0  0
 28 24  1  0  0  0  0
 29 26  1  6  0  0  0
 29 27  1  0  0  0  0
 31 24  1  1  0  0  0
 31  8  1  0  0  0  0
 32 39  2  0  0  0  0
 33 34  1  0  0  0  0
 33 38  1  0  0  0  0
 34 40  1  0  0  0  0
 35 33  2  0  0  0  0
 36 32  2  0  0  0  0
 37 32  1  6  0  0  0
 37 29  1  0  0  0  0
 38 32  1  0  0  0  0
 40 37  1  0  0  0  0
 40 42  1  6  0  0  0
 42 41  1  0  0  0  0
M  END
>  <MODEL>
8

>  <REMARK>
 VINA RESULT:      -7.4      2.995      4.012
  Name = 
  4 active torsions:
  status: ('A' for Active; 'I' for Inactive)
    1  A    between atoms: C_1  and  C_15
    2  A    between atoms: C_22  and  C_32
    3  A    between atoms: C_31  and  C_36
    4  A    between atoms: C_33  and  C_42
                            x       y       z     vdW  Elec       q    Type
                         _______ _______ _______ _____ _____    ______ ____

>  <TORSDO>
F 4

$$$$
=
 OpenBabel11062419413D

 42 47  0  0  1  0  0  0  0  0999 V2000
  196.5280  173.9150  143.1690 C   0  0  0  0  0  0  0  0  0  0  0  0
  194.3550  172.7930  145.7630 C   0  0  0  0  0  2  0  0  0  0  0  0
  197.5980  173.8640  143.9110 N   0  0  0  0  0  0  0  0  0  0  0  0
  196.3490  174.3940  145.9910 C   0  0  0  0  0  2  0  0  0  0  0  0
  195.1190  173.9720  145.2130 C   0  0  1  0  0  0  0  0  0  0  0  0
  195.2350  173.9580  143.7650 N   0  0  0  0  0  2  0  0  0  0  0  0
  197.5670  173.7030  145.3700 C   0  0  0  0  0  2  0  0  0  0  0  0
  193.7450  174.1930  145.8250 C   0  0  1  0  0  3  0  0  0  0  0  0
  197.7650  175.0530  139.7990 C   0  0  0  0  0  3  0  0  0  0  0  0
  196.3390  173.3450  136.6980 C   0  0  1  0  0  0  0  0  0  0  0  0
  197.0100  172.1200  136.7700 O   0  0  0  0  0  1  0  0  0  0  0  0
  196.6480  174.0810  141.7180 C   0  0  0  0  0  0  0  0  0  0  0  0
  196.7600  175.6980  137.0290 O   0  0  0  0  0  1  0  0  0  0  0  0
  197.6140  174.9440  141.1870 C   0  0  0  0  0  3  0  0  0  0  0  0
  195.8090  173.3590  140.8610 C   0  0  0  0  0  3  0  0  0  0  0  0
  195.9170  173.5010  139.4650 C   0  0  0  0  0  0  0  0  0  0  0  0
  197.1350  174.4250  137.4520 C   0  0  1  0  0  3  0  0  0  0  0  0
  195.0440  172.6920  138.5290 C   0  0  1  0  0  3  0  0  0  0  0  0
  193.6130  172.6200  139.0330 C   0  0  0  0  0  1  0  0  0  0  0  0
  196.2570  173.7070  135.3630 F   0  0  0  0  0  0  0  0  0  0  0  0
  195.0230  173.2310  137.2170 O   0  0  0  0  0  0  0  0  0  0  0  0
  196.9410  174.3140  138.9380 C   0  0  0  0  0  0  0  0  0  0  0  0
  193.1330  175.6630  141.6450 C   0  0  0  0  0  2  0  0  0  0  0  0
  192.7950  175.6810  144.0520 C   0  0  0  0  0  2  0  0  0  0  0  0
  191.2560  174.1840  145.3090 C   0  0  0  0  0  0  0  0  0  0  0  0
  190.7980  175.4540  142.3430 C   0  0  0  0  0  2  0  0  0  0  0  0
  190.1300  174.0300  144.3350 C   0  0  0  0  0  2  0  0  0  0  0  0
  192.2660  175.6110  142.6520 C   0  0  0  0  0  0  0  0  0  0  0  0
  189.9060  175.3380  143.5780 C   0  0  2  0  0  3  0  0  0  0  0  0
  190.9520  174.5500  146.5580 C   0  0  0  0  0  2  0  0  0  0  0  0
  192.6550  174.3440  144.7600 C   0  0  2  0  0  3  0  0  0  0  0  0
  187.8730  177.2480  143.5570 S   0  0  0  0  0  0  0  0  0  0  0  0
  187.3330  177.3340  140.9690 C   0  0  0  0  0  0  0  0  0  0  0  0
  187.2160  175.9470  141.0770 O   0  0  0  0  0  0  0  0  0  0  0  0
  186.8470  177.9160  139.9710 O   0  0  0  0  0  0  0  0  0  0  0  0
  186.4310  177.2180  143.9630 O   0  0  0  0  0  0  0  0  0  0  0  0
  188.4310  175.5730  143.2290 C   0  0  1  0  0  3  0  0  0  0  0  0
  188.0340  178.1290  142.0260 C   0  0  0  0  0  2  0  0  0  0  0  0
  188.6800  177.9150  144.6340 O   0  0  0  0  0  0  0  0  0  0  0  0
  188.1930  175.1530  141.7600 C   0  0  1  0  0  3  0  0  0  0  0  0
  188.2860  173.1320  140.4780 O   0  0  0  0  0  1  0  0  0  0  0  0
  187.8340  173.6710  141.6880 C   0  0  0  0  0  2  0  0  0  0  0  0
  1  6  1  0  0  0  0
  1  3  2  0  0  0  0
  3  7  1  0  0  0  0
  5  2  1  1  0  0  0
  5  8  1  0  0  0  0
  5  4  1  0  0  0  0
  6  5  1  0  0  0  0
  7  4  1  0  0  0  0
  8  2  1  1  0  0  0
  9 14  1  0  0  0  0
 10 20  1  6  0  0  0
 10 11  1  0  0  0  0
 10 21  1  0  0  0  0
 10 17  1  0  0  0  0
 12  1  1  0  0  0  0
 14 12  2  0  0  0  0
 15 12  1  0  0  0  0
 16 15  2  0  0  0  0
 17 13  1  6  0  0  0
 17 22  1  0  0  0  0
 18 19  1  1  0  0  0
 18 16  1  0  0  0  0
 21 18  1  0  0  0  0
 22 16  1  0  0  0  0
 22  9  2  0  0  0  0
 23 28  2  0  0  0  0
 25 30  2  0  0  0  0
 26 28  1  0  0  0  0
 27 25  1  0  0  0  0
 28 24  1  0  0  0  0
 29 26  1  6  0  0  0
 29 27  1  0  0  0  0
 31 24  1  1  0  0  0
 31 25  1  0  0  0  0
 31  8  1  0  0  0  0
 32 36  2  0  0  0  0
 32 39  2  0  0  0  0
 33 34  1  0  0  0  0
 33 38  1  0  0  0  0
 34 40  1  0  0  0  0
 35 33  2  0  0  0  0
 37 32  1  6  0  0  0
 37 29  1  0  0  0  0
 38 32  1  0  0  0  0
 40 42  1  1  0  0  0
 40 37  1  0  0  0  0
 41 42  1  0  0  0  0
M  END
>  <MODEL>
9

>  <REMARK>
 VINA RESULT:      -7.3      4.110      8.618
  Name = 
  4 active torsions:
  status: ('A' for Active; 'I' for Inactive)
    1  A    between atoms: C_1  and  C_15
    2  A    between atoms: C_22  and  C_32
    3  A    between atoms: C_31  and  C_36
    4  A    between atoms: C_33  and  C_42
                            x       y       z     vdW  Elec       q    Type
                         _______ _______ _______ _____ _____    ______ ____

>  <TORSDO>
F 4

$$$$
