=
 OpenBabel11062419043D

 32 35  0  0  1  0  0  0  0  0999 V2000
  189.3180  175.7640  143.9900 O   0  0  0  0  0  0  0  0  0  0  0  0
  187.0980  177.0760  143.5240 C   0  0  2  0  0  3  0  0  0  0  0  0
  188.1830  177.9450  141.4050 C   0  0  0  0  0  1  0  0  0  0  0  0
  187.9940  177.7470  144.5620 C   0  0  0  0  0  2  0  0  0  0  0  0
  189.2040  176.0290  142.6000 C   0  0  2  0  0  3  0  0  0  0  0  0
  189.3080  176.9720  144.7440 C   0  0  2  0  0  0  0  0  0  0  0  0
  190.4790  177.8830  144.3700 C   0  0  0  0  0  1  0  0  0  0  0  0
  187.8710  176.7190  142.2490 C   0  0  1  0  0  3  0  0  0  0  0  0
  189.4150  176.6250  146.2270 C   0  0  0  0  0  2  0  0  0  0  0  0
  189.1020  175.1620  146.5080 C   0  0  0  0  0  1  0  0  0  0  0  0
  188.2230  173.8090  142.0420 C   0  0  0  0  0  1  0  0  0  0  0  0
  189.4160  174.7270  141.8110 C   0  0  2  0  0  3  0  0  0  0  0  0
  191.9010  174.7120  141.6330 C   0  0  1  0  0  3  0  0  0  0  0  0
  192.1090  173.5770  140.7520 N   0  0  0  0  0  2  0  0  0  0  0  0
  190.7110  174.0010  142.2050 C   0  0  2  0  0  3  0  0  0  0  0  0
  190.9880  172.9080  141.2820 N   0  0  0  0  0  2  0  0  0  0  0  0
  193.0200  174.7750  142.6600 C   0  0  0  0  0  2  0  0  0  0  0  0
  192.4530  174.6120  144.0610 C   0  0  0  0  0  2  0  0  0  0  0  0
  194.2090  176.1000  144.5470 C   0  0  0  0  0  2  0  0  0  0  0  0
  193.4710  174.9420  145.0470 N   0  0  0  0  0  0  0  0  0  0  0  0
  194.9460  178.0230  145.7320 O   0  0  0  0  0  0  0  0  0  0  0  0
  192.7970  175.3230  146.2340 N   0  0  0  0  0  2  0  0  0  0  0  0
  194.2900  176.9960  145.6950 C   0  0  0  0  0  0  0  0  0  0  0  0
  193.4820  176.4840  146.7950 C   0  0  0  0  0  2  0  0  0  0  0  0
  185.7410  177.7540  143.3070 C   0  0  0  0  0  2  0  0  0  0  0  0
  185.5900  179.3730  144.1320 S   0  0  0  0  0  0  0  0  0  0  0  0
  184.1430  178.8390  145.0930 C   0  0  0  0  0  2  0  0  0  0  0  0
  185.6970  179.2610  146.8680 O   0  0  0  0  0  0  0  0  0  0  0  0
  186.3390  178.4850  147.8450 C   0  0  0  0  0  2  0  0  0  0  0  0
  186.0550  177.0290  147.5620 C   0  0  0  0  0  2  0  0  0  0  0  0
  184.8680  177.0610  146.6480 C   0  0  0  0  0  2  0  0  0  0  0  0
  184.5490  178.5310  146.5200 C   0  0  2  0  0  3  0  0  0  0  0  0
  1  6  1  0  0  0  0
  2 25  1  6  0  0  0
  2  4  1  0  0  0  0
  4  6  1  0  0  0  0
  5 12  1  6  0  0  0
  5  1  1  0  0  0  0
  6  7  1  6  0  0  0
  6  9  1  0  0  0  0
  8  3  1  1  0  0  0
  8  5  1  0  0  0  0
  8  2  1  0  0  0  0
  9 10  1  0  0  0  0
 12 11  1  1  0  0  0
 13 15  1  0  0  0  0
 13 17  1  1  0  0  0
 14 16  1  0  0  0  0
 14 13  1  0  0  0  0
 15 12  1  6  0  0  0
 16 15  1  0  0  0  0
 17 18  1  0  0  0  0
 18 20  1  0  0  0  0
 19 20  1  0  0  0  0
 19 23  1  0  0  0  0
 20 22  1  0  0  0  0
 22 24  1  0  0  0  0
 23 21  2  0  0  0  0
 23 24  1  0  0  0  0
 25 26  1  0  0  0  0
 26 27  1  0  0  0  0
 28 29  1  0  0  0  0
 30 29  1  0  0  0  0
 31 30  1  0  0  0  0
 32 27  1  6  0  0  0
 32 31  1  0  0  0  0
 32 28  1  0  0  0  0
M  END
>  <MODEL>
1

>  <REMARK>
 VINA RESULT:      -6.9      0.000      0.000
  Name = 
  10 active torsions:
  status: ('A' for Active; 'I' for Inactive)
    1  A    between atoms: C_1  and  C_24
    2  A    between atoms: S_2  and  C_7
    3  A    between atoms: S_2  and  C_11
    4  A    between atoms: C_3  and  C_12
    5  A    between atoms: C_7  and  C_14
    6  A    between atoms: C_10  and  C_12
    7  A    between atoms: C_10  and  N_27
    8  A    between atoms: C_11  and  C_22
    9  A    between atoms: C_18  and  C_19
   10  A    between atoms: C_19  and  C_20
                            x       y       z     vdW  Elec       q    Type
                         _______ _______ _______ _____ _____    ______ ____

>  <TORSDO>
F 10

$$$$
=
 OpenBabel11062419043D

 32 35  0  0  1  0  0  0  0  0999 V2000
  189.1800  175.7910  144.3140 O   0  0  0  0  0  0  0  0  0  0  0  0
  186.9930  177.0860  143.6710 C   0  0  2  0  0  3  0  0  0  0  0  0
  188.0380  177.5040  141.4000 C   0  0  0  0  0  1  0  0  0  0  0  0
  187.9460  177.8990  144.5430 C   0  0  0  0  0  2  0  0  0  0  0  0
  189.0290  175.8010  142.9020 C   0  0  2  0  0  3  0  0  0  0  0  0
  189.2370  177.1170  144.8310 C   0  0  2  0  0  0  0  0  0  0  0  0
  190.4270  177.8940  144.2650 C   0  0  0  0  0  1  0  0  0  0  0  0
  187.7100  176.4680  142.4650 C   0  0  1  0  0  3  0  0  0  0  0  0
  189.3810  177.0450  146.3490 C   0  0  0  0  0  2  0  0  0  0  0  0
  189.3240  175.6170  146.8730 C   0  0  0  0  0  1  0  0  0  0  0  0
  187.8010  173.8770  141.9040 C   0  0  0  0  0  1  0  0  0  0  0  0
  189.1680  174.3680  142.3630 C   0  0  2  0  0  3  0  0  0  0  0  0
  191.2400  173.3910  143.3430 C   0  0  1  0  0  3  0  0  0  0  0  0
  191.1770  172.0350  142.8300 N   0  0  0  0  0  2  0  0  0  0  0  0
  189.7420  173.3970  143.4050 C   0  0  2  0  0  3  0  0  0  0  0  0
  189.7680  172.0370  142.8820 N   0  0  0  0  0  2  0  0  0  0  0  0
  191.8250  173.3820  144.7460 C   0  0  0  0  0  2  0  0  0  0  0  0
  193.3430  173.3240  144.6780 C   0  0  0  0  0  2  0  0  0  0  0  0
  194.6230  175.2670  145.0240 C   0  0  0  0  0  2  0  0  0  0  0  0
  193.9160  174.1830  145.7030 N   0  0  0  0  0  0  0  0  0  0  0  0
  194.6620  177.5830  145.5530 O   0  0  0  0  0  0  0  0  0  0  0  0
  192.8370  174.7440  146.4320 N   0  0  0  0  0  2  0  0  0  0  0  0
  194.1950  176.4700  145.7290 C   0  0  0  0  0  0  0  0  0  0  0  0
  193.1370  176.1520  146.6790 C   0  0  0  0  0  2  0  0  0  0  0  0
  185.6550  177.7670  143.3680 C   0  0  0  0  0  2  0  0  0  0  0  0
  185.4670  179.4000  144.1580 S   0  0  0  0  0  0  0  0  0  0  0  0
  184.0430  178.8490  145.1430 C   0  0  0  0  0  2  0  0  0  0  0  0
  185.6200  179.2990  146.8900 O   0  0  0  0  0  0  0  0  0  0  0  0
  186.2840  178.5380  147.8630 C   0  0  0  0  0  2  0  0  0  0  0  0
  186.0090  177.0760  147.5980 C   0  0  0  0  0  2  0  0  0  0  0  0
  184.8070  177.0900  146.7030 C   0  0  0  0  0  2  0  0  0  0  0  0
  184.4740  178.5560  146.5670 C   0  0  2  0  0  3  0  0  0  0  0  0
  1  6  1  0  0  0  0
  2 25  1  6  0  0  0
  2  4  1  0  0  0  0
  4  6  1  0  0  0  0
  5 12  1  1  0  0  0
  5  1  1  0  0  0  0
  6  7  1  6  0  0  0
  6  9  1  0  0  0  0
  8  3  1  6  0  0  0
  8  5  1  0  0  0  0
  8  2  1  0  0  0  0
  9 10  1  0  0  0  0
 12 11  1  1  0  0  0
 13 15  1  0  0  0  0
 13 17  1  1  0  0  0
 14 16  1  0  0  0  0
 14 13  1  0  0  0  0
 15 12  1  6  0  0  0
 16 15  1  0  0  0  0
 18 17  1  0  0  0  0
 18 20  1  0  0  0  0
 19 20  1  0  0  0  0
 19 23  1  0  0  0  0
 20 22  1  0  0  0  0
 21 23  2  0  0  0  0
 22 24  1  0  0  0  0
 23 24  1  0  0  0  0
 25 26  1  0  0  0  0
 26 27  1  0  0  0  0
 28 29  1  0  0  0  0
 30 29  1  0  0  0  0
 31 30  1  0  0  0  0
 32 27  1  6  0  0  0
 32 31  1  0  0  0  0
 32 28  1  0  0  0  0
M  END
>  <MODEL>
2

>  <REMARK>
 VINA RESULT:      -6.8      0.990      1.066
  Name = 
  10 active torsions:
  status: ('A' for Active; 'I' for Inactive)
    1  A    between atoms: C_1  and  C_24
    2  A    between atoms: S_2  and  C_7
    3  A    between atoms: S_2  and  C_11
    4  A    between atoms: C_3  and  C_12
    5  A    between atoms: C_7  and  C_14
    6  A    between atoms: C_10  and  C_12
    7  A    between atoms: C_10  and  N_27
    8  A    between atoms: C_11  and  C_22
    9  A    between atoms: C_18  and  C_19
   10  A    between atoms: C_19  and  C_20
                            x       y       z     vdW  Elec       q    Type
                         _______ _______ _______ _____ _____    ______ ____

>  <TORSDO>
F 10

$$$$
=
 OpenBabel11062419043D

 32 35  0  0  1  0  0  0  0  0999 V2000
  189.1890  174.8300  144.8200 O   0  0  0  0  0  0  0  0  0  0  0  0
  191.5420  175.9380  144.4870 C   0  0  2  0  0  3  0  0  0  0  0  0
  190.3290  178.1030  143.9730 C   0  0  0  0  0  1  0  0  0  0  0  0
  191.0890  175.1020  143.2920 C   0  0  0  0  0  2  0  0  0  0  0  0
  189.0890  176.2310  145.0220 C   0  0  2  0  0  3  0  0  0  0  0  0
  189.6780  174.5350  143.5150 C   0  0  2  0  0  0  0  0  0  0  0  0
  188.7470  175.0740  142.4270 C   0  0  0  0  0  1  0  0  0  0  0  0
  190.4600  176.9290  144.9320 C   0  0  1  0  0  3  0  0  0  0  0  0
  189.7820  173.0200  143.3610 C   0  0  0  0  0  2  0  0  0  0  0  0
  189.8070  172.2980  144.7010 C   0  0  0  0  0  1  0  0  0  0  0  0
  188.5110  175.2790  147.2500 C   0  0  0  0  0  1  0  0  0  0  0  0
  188.3790  176.5060  146.3580 C   0  0  2  0  0  3  0  0  0  0  0  0
  186.6980  178.3410  146.2380 C   0  0  1  0  0  3  0  0  0  0  0  0
  185.9980  178.1590  147.4970 N   0  0  0  0  0  2  0  0  0  0  0  0
  186.8940  176.8560  146.1760 C   0  0  2  0  0  3  0  0  0  0  0  0
  186.1850  176.7630  147.4460 N   0  0  0  0  0  2  0  0  0  0  0  0
  185.7160  178.7880  145.1670 C   0  0  0  0  0  2  0  0  0  0  0  0
  185.7820  177.8480  143.9740 C   0  0  0  0  0  2  0  0  0  0  0  0
  186.7110  178.0800  141.8260 C   0  0  0  0  0  2  0  0  0  0  0  0
  185.7010  178.6120  142.7380 N   0  0  0  0  0  0  0  0  0  0  0  0
  186.5330  177.6380  139.4980 O   0  0  0  0  0  0  0  0  0  0  0  0
  184.4220  178.3680  142.1770 N   0  0  0  0  0  2  0  0  0  0  0  0
  186.0060  177.9320  140.5580 C   0  0  0  0  0  0  0  0  0  0  0  0
  184.5820  178.1930  140.7360 C   0  0  0  0  0  2  0  0  0  0  0  0
  192.9590  176.5080  144.3760 C   0  0  0  0  0  2  0  0  0  0  0  0
  193.9620  176.2800  145.8810 S   0  0  0  0  0  0  0  0  0  0  0  0
  193.6380  174.4920  145.9240 C   0  0  0  0  0  2  0  0  0  0  0  0
  194.7760  172.3920  145.7340 O   0  0  0  0  0  0  0  0  0  0  0  0
  196.1150  171.9750  145.7110 C   0  0  0  0  0  2  0  0  0  0  0  0
  196.9920  173.1620  146.0360 C   0  0  0  0  0  2  0  0  0  0  0  0
  196.1020  174.3450  145.8020 C   0  0  0  0  0  2  0  0  0  0  0  0
  194.8060  173.7350  145.3250 C   0  0  2  0  0  3  0  0  0  0  0  0
  1  5  1  0  0  0  0
  2 25  1  6  0  0  0
  2  8  1  0  0  0  0
  4  6  1  0  0  0  0
  4  2  1  0  0  0  0
  5 12  1  1  0  0  0
  6  7  1  6  0  0  0
  6  1  1  0  0  0  0
  8  3  1  6  0  0  0
  8  5  1  0  0  0  0
  9  6  1  0  0  0  0
  9 10  1  0  0  0  0
 12 11  1  1  0  0  0
 13 17  1  6  0  0  0
 13 14  1  0  0  0  0
 15 13  1  0  0  0  0
 15 12  1  1  0  0  0
 15 16  1  0  0  0  0
 16 14  1  0  0  0  0
 18 17  1  0  0  0  0
 19 20  1  0  0  0  0
 20 18  1  0  0  0  0
 21 23  2  0  0  0  0
 22 20  1  0  0  0  0
 23 24  1  0  0  0  0
 23 19  1  0  0  0  0
 24 22  1  0  0  0  0
 25 26  1  0  0  0  0
 26 27  1  0  0  0  0
 29 28  1  0  0  0  0
 29 30  1  0  0  0  0
 31 30  1  0  0  0  0
 32 28  1  0  0  0  0
 32 31  1  0  0  0  0
 32 27  1  1  0  0  0
M  END
>  <MODEL>
3

>  <REMARK>
 VINA RESULT:      -6.6      3.952      8.066
  Name = 
  10 active torsions:
  status: ('A' for Active; 'I' for Inactive)
    1  A    between atoms: C_1  and  C_24
    2  A    between atoms: S_2  and  C_7
    3  A    between atoms: S_2  and  C_11
    4  A    between atoms: C_3  and  C_12
    5  A    between atoms: C_7  and  C_14
    6  A    between atoms: C_10  and  C_12
    7  A    between atoms: C_10  and  N_27
    8  A    between atoms: C_11  and  C_22
    9  A    between atoms: C_18  and  C_19
   10  A    between atoms: C_19  and  C_20
                            x       y       z     vdW  Elec       q    Type
                         _______ _______ _______ _____ _____    ______ ____

>  <TORSDO>
F 10

$$$$
=
 OpenBabel11062419043D

 32 35  0  0  1  0  0  0  0  0999 V2000
  189.2590  176.8820  143.4550 O   0  0  0  0  0  0  0  0  0  0  0  0
  187.5050  176.7210  145.3970 C   0  0  2  0  0  3  0  0  0  0  0  0
  189.0870  175.1100  146.5470 C   0  0  0  0  0  1  0  0  0  0  0  0
  187.1350  175.8860  144.1730 C   0  0  0  0  0  2  0  0  0  0  0  0
  189.9080  176.4790  144.6520 C   0  0  2  0  0  3  0  0  0  0  0  0
  188.2300  175.9640  143.0980 C   0  0  2  0  0  0  0  0  0  0  0  0
  188.7850  174.5610  142.8490 C   0  0  0  0  0  1  0  0  0  0  0  0
  188.9440  176.4570  145.8540 C   0  0  1  0  0  3  0  0  0  0  0  0
  187.5570  176.4560  141.8180 C   0  0  0  0  0  2  0  0  0  0  0  0
  188.0750  177.8170  141.3730 C   0  0  0  0  0  1  0  0  0  0  0  0
  191.1840  178.4490  143.8170 C   0  0  0  0  0  1  0  0  0  0  0  0
  191.1310  177.3780  144.8980 C   0  0  2  0  0  3  0  0  0  0  0  0
  192.2020  175.1520  144.5650 C   0  0  1  0  0  3  0  0  0  0  0  0
  192.5470  174.8040  145.9310 N   0  0  0  0  0  2  0  0  0  0  0  0
  192.4500  176.5910  144.9100 C   0  0  2  0  0  3  0  0  0  0  0  0
  192.7760  176.1540  146.2610 N   0  0  0  0  0  2  0  0  0  0  0  0
  193.2770  174.6440  143.6190 C   0  0  0  0  0  2  0  0  0  0  0  0
  193.9790  175.8140  142.9490 C   0  0  0  0  0  2  0  0  0  0  0  0
  195.9640  175.6370  144.1970 C   0  0  0  0  0  2  0  0  0  0  0  0
  195.4050  175.5450  142.8500 N   0  0  0  0  0  0  0  0  0  0  0  0
  197.5600  174.2250  145.2490 O   0  0  0  0  0  0  0  0  0  0  0  0
  195.5500  174.2090  142.3990 N   0  0  0  0  0  2  0  0  0  0  0  0
  196.8080  174.4530  144.3160 C   0  0  0  0  0  0  0  0  0  0  0  0
  196.6300  173.5850  143.1590 C   0  0  0  0  0  2  0  0  0  0  0  0
  186.4500  176.7420  146.5070 C   0  0  0  0  0  2  0  0  0  0  0  0
  186.0600  178.4150  147.1180 S   0  0  0  0  0  0  0  0  0  0  0  0
  184.3560  178.3330  146.4940 C   0  0  0  0  0  2  0  0  0  0  0  0
  184.2030  177.9940  144.1270 O   0  0  0  0  0  0  0  0  0  0  0  0
  184.7650  178.5920  142.9890 C   0  0  0  0  0  2  0  0  0  0  0  0
  185.8190  179.5770  143.4370 C   0  0  0  0  0  2  0  0  0  0  0  0
  185.5010  179.8160  144.8820 C   0  0  0  0  0  2  0  0  0  0  0  0
  184.2690  178.9790  145.1250 C   0  0  2  0  0  3  0  0  0  0  0  0
  1  5  1  0  0  0  0
  2  8  1  0  0  0  0
  2 25  1  1  0  0  0
  4  2  1  0  0  0  0
  5 12  1  1  0  0  0
  5  8  1  0  0  0  0
  6  7  1  6  0  0  0
  6  1  1  0  0  0  0
  6  4  1  0  0  0  0
  8  3  1  6  0  0  0
  9  6  1  0  0  0  0
 10  9  1  0  0  0  0
 12 11  1  6  0  0  0
 13 17  1  6  0  0  0
 13 15  1  0  0  0  0
 13 14  1  0  0  0  0
 14 16  1  0  0  0  0
 15 12  1  1  0  0  0
 15 16  1  0  0  0  0
 18 17  1  0  0  0  0
 19 23  1  0  0  0  0
 20 18  1  0  0  0  0
 20 19  1  0  0  0  0
 22 20  1  0  0  0  0
 22 24  1  0  0  0  0
 23 21  2  0  0  0  0
 24 23  1  0  0  0  0
 25 26  1  0  0  0  0
 27 26  1  0  0  0  0
 28 32  1  0  0  0  0
 29 30  1  0  0  0  0
 29 28  1  0  0  0  0
 30 31  1  0  0  0  0
 31 32  1  0  0  0  0
 32 27  1  1  0  0  0
M  END
>  <MODEL>
4

>  <REMARK>
 VINA RESULT:      -6.5      2.008      3.939
  Name = 
  10 active torsions:
  status: ('A' for Active; 'I' for Inactive)
    1  A    between atoms: C_1  and  C_24
    2  A    between atoms: S_2  and  C_7
    3  A    between atoms: S_2  and  C_11
    4  A    between atoms: C_3  and  C_12
    5  A    between atoms: C_7  and  C_14
    6  A    between atoms: C_10  and  C_12
    7  A    between atoms: C_10  and  N_27
    8  A    between atoms: C_11  and  C_22
    9  A    between atoms: C_18  and  C_19
   10  A    between atoms: C_19  and  C_20
                            x       y       z     vdW  Elec       q    Type
                         _______ _______ _______ _____ _____    ______ ____

>  <TORSDO>
F 10

$$$$
=
 OpenBabel11062419043D

 32 35  0  0  1  0  0  0  0  0999 V2000
  191.0180  176.1200  144.8950 O   0  0  0  0  0  0  0  0  0  0  0  0
  192.6350  174.4130  143.7360 C   0  0  2  0  0  3  0  0  0  0  0  0
  190.6870  173.7320  142.2650 C   0  0  0  0  0  1  0  0  0  0  0  0
  192.1130  173.9340  145.0880 C   0  0  0  0  0  2  0  0  0  0  0  0
  190.5400  175.8200  143.5930 C   0  0  2  0  0  3  0  0  0  0  0  0
  191.1190  174.9410  145.6870 C   0  0  2  0  0  0  0  0  0  0  0  0
  189.7610  174.2580  145.8610 C   0  0  0  0  0  1  0  0  0  0  0  0
  191.5000  174.8910  142.8230 C   0  0  1  0  0  3  0  0  0  0  0  0
  191.6530  175.3210  147.0660 C   0  0  0  0  0  2  0  0  0  0  0  0
  192.7890  176.3320  146.9930 C   0  0  0  0  0  1  0  0  0  0  0  0
  191.0270  178.2610  143.5030 C   0  0  0  0  0  1  0  0  0  0  0  0
  190.2580  177.1280  142.8360 C   0  0  2  0  0  3  0  0  0  0  0  0
  187.9940  176.3770  142.1180 C   0  0  1  0  0  3  0  0  0  0  0  0
  187.7380  177.2840  141.0130 N   0  0  0  0  0  2  0  0  0  0  0  0
  188.7630  177.4750  142.7900 C   0  0  2  0  0  3  0  0  0  0  0  0
  188.4650  178.3160  141.6390 N   0  0  0  0  0  2  0  0  0  0  0  0
  186.6990  176.1050  142.8660 C   0  0  0  0  0  2  0  0  0  0  0  0
  186.7760  176.6850  144.2700 C   0  0  0  0  0  2  0  0  0  0  0  0
  185.5110  177.0740  146.2140 C   0  0  0  0  0  2  0  0  0  0  0  0
  185.4360  176.9750  144.7580 N   0  0  0  0  0  0  0  0  0  0  0  0
  184.4730  178.6520  147.6560 O   0  0  0  0  0  0  0  0  0  0  0  0
  185.0680  178.2440  144.2440 N   0  0  0  0  0  2  0  0  0  0  0  0
  184.7610  178.2840  146.5290 C   0  0  0  0  0  0  0  0  0  0  0  0
  184.3970  178.9890  145.3060 C   0  0  0  0  0  2  0  0  0  0  0  0
  193.6700  173.4940  143.0810 C   0  0  0  0  0  2  0  0  0  0  0  0
  195.0470  174.3870  142.2870 S   0  0  0  0  0  0  0  0  0  0  0  0
  195.1110  175.6300  143.6110 C   0  0  0  0  0  2  0  0  0  0  0  0
  197.1990  174.4940  143.9150 O   0  0  0  0  0  0  0  0  0  0  0  0
  197.8180  173.7950  144.9620 C   0  0  0  0  0  2  0  0  0  0  0  0
  196.8180  173.6280  146.0830 C   0  0  0  0  0  2  0  0  0  0  0  0
  195.7640  174.6510  145.7840 C   0  0  0  0  0  2  0  0  0  0  0  0
  196.2720  175.3420  144.5420 C   0  0  2  0  0  3  0  0  0  0  0  0
  1  6  1  0  0  0  0
  2 25  1  6  0  0  0
  2  4  1  0  0  0  0
  4  6  1  0  0  0  0
  5 12  1  6  0  0  0
  5  1  1  0  0  0  0
  6  7  1  1  0  0  0
  6  9  1  0  0  0  0
  8  3  1  1  0  0  0
  8  5  1  0  0  0  0
  8  2  1  0  0  0  0
 10  9  1  0  0  0  0
 12 11  1  1  0  0  0
 13 15  1  0  0  0  0
 13 17  1  1  0  0  0
 14 16  1  0  0  0  0
 14 13  1  0  0  0  0
 15 12  1  6  0  0  0
 16 15  1  0  0  0  0
 17 18  1  0  0  0  0
 18 20  1  0  0  0  0
 19 23  1  0  0  0  0
 20 19  1  0  0  0  0
 22 20  1  0  0  0  0
 22 24  1  0  0  0  0
 23 21  2  0  0  0  0
 24 23  1  0  0  0  0
 26 25  1  0  0  0  0
 26 27  1  0  0  0  0
 28 32  1  0  0  0  0
 28 29  1  0  0  0  0
 29 30  1  0  0  0  0
 31 30  1  0  0  0  0
 32 27  1  6  0  0  0
 32 31  1  0  0  0  0
M  END
>  <MODEL>
5

>  <REMARK>
 VINA RESULT:      -6.4      3.609      7.837
  Name = 
  10 active torsions:
  status: ('A' for Active; 'I' for Inactive)
    1  A    between atoms: C_1  and  C_24
    2  A    between atoms: S_2  and  C_7
    3  A    between atoms: S_2  and  C_11
    4  A    between atoms: C_3  and  C_12
    5  A    between atoms: C_7  and  C_14
    6  A    between atoms: C_10  and  C_12
    7  A    between atoms: C_10  and  N_27
    8  A    between atoms: C_11  and  C_22
    9  A    between atoms: C_18  and  C_19
   10  A    between atoms: C_19  and  C_20
                            x       y       z     vdW  Elec       q    Type
                         _______ _______ _______ _____ _____    ______ ____

>  <TORSDO>
F 10

$$$$
=
 OpenBabel11062419043D

 32 35  0  0  1  0  0  0  0  0999 V2000
  190.9180  176.2900  145.2900 O   0  0  0  0  0  0  0  0  0  0  0  0
  193.0270  174.9600  144.4810 C   0  0  2  0  0  3  0  0  0  0  0  0
  191.6480  174.1890  142.5010 C   0  0  0  0  0  1  0  0  0  0  0  0
  192.2660  174.2660  145.6080 C   0  0  0  0  0  2  0  0  0  0  0  0
  190.8380  176.0750  143.8890 C   0  0  2  0  0  3  0  0  0  0  0  0
  191.0050  175.0540  145.9930 C   0  0  2  0  0  0  0  0  0  0  0  0
  189.7760  174.1770  145.7500 C   0  0  0  0  0  1  0  0  0  0  0  0
  192.0970  175.3780  143.3370 C   0  0  1  0  0  3  0  0  0  0  0  0
  191.1070  175.3480  147.4880 C   0  0  0  0  0  2  0  0  0  0  0  0
  191.5460  176.7770  147.7730 C   0  0  0  0  0  1  0  0  0  0  0  0
  191.3120  178.5200  143.8900 C   0  0  0  0  0  1  0  0  0  0  0  0
  190.5490  177.4090  143.1820 C   0  0  2  0  0  3  0  0  0  0  0  0
  188.2460  176.5270  142.8230 C   0  0  1  0  0  3  0  0  0  0  0  0
  187.9120  177.1340  141.5480 N   0  0  0  0  0  2  0  0  0  0  0  0
  189.0510  177.7490  143.1500 C   0  0  2  0  0  3  0  0  0  0  0  0
  188.6720  178.2820  141.8480 N   0  0  0  0  0  2  0  0  0  0  0  0
  187.0060  176.4630  143.7000 C   0  0  0  0  0  2  0  0  0  0  0  0
  185.7690  176.7860  142.8790 C   0  0  0  0  0  2  0  0  0  0  0  0
  185.2300  177.6710  144.9900 C   0  0  0  0  0  2  0  0  0  0  0  0
  184.9760  177.8010  143.5570 N   0  0  0  0  0  0  0  0  0  0  0  0
  185.5770  179.3800  146.6040 O   0  0  0  0  0  0  0  0  0  0  0  0
  185.4590  179.0640  143.1330 N   0  0  0  0  0  2  0  0  0  0  0  0
  185.4590  179.0390  145.4390 C   0  0  0  0  0  0  0  0  0  0  0  0
  185.5200  179.9430  144.2970 C   0  0  0  0  0  2  0  0  0  0  0  0
  194.3280  174.2700  144.0590 C   0  0  0  0  0  2  0  0  0  0  0  0
  195.8030  174.8810  144.9400 S   0  0  0  0  0  0  0  0  0  0  0  0
  195.6220  176.5530  144.2500 C   0  0  0  0  0  2  0  0  0  0  0  0
  195.8340  176.4890  141.8640 O   0  0  0  0  0  0  0  0  0  0  0  0
  196.8010  176.0360  140.9540 C   0  0  0  0  0  2  0  0  0  0  0  0
  197.8670  175.2890  141.7200 C   0  0  0  0  0  2  0  0  0  0  0  0
  197.6720  175.7330  143.1390 C   0  0  0  0  0  2  0  0  0  0  0  0
  196.5390  176.7260  143.0550 C   0  0  2  0  0  3  0  0  0  0  0  0
  1  6  1  0  0  0  0
  2 25  1  6  0  0  0
  2  4  1  0  0  0  0
  4  6  1  0  0  0  0
  5 12  1  6  0  0  0
  5  1  1  0  0  0  0
  6  7  1  6  0  0  0
  6  9  1  0  0  0  0
  8  3  1  1  0  0  0
  8  5  1  0  0  0  0
  8  2  1  0  0  0  0
  9 10  1  0  0  0  0
 12 11  1  1  0  0  0
 13 15  1  0  0  0  0
 13 17  1  1  0  0  0
 14 16  1  0  0  0  0
 14 13  1  0  0  0  0
 15 12  1  6  0  0  0
 16 15  1  0  0  0  0
 18 20  1  0  0  0  0
 18 17  1  0  0  0  0
 19 23  1  0  0  0  0
 20 19  1  0  0  0  0
 22 20  1  0  0  0  0
 22 24  1  0  0  0  0
 23 21  2  0  0  0  0
 24 23  1  0  0  0  0
 25 26  1  0  0  0  0
 27 26  1  0  0  0  0
 28 32  1  0  0  0  0
 29 30  1  0  0  0  0
 29 28  1  0  0  0  0
 30 31  1  0  0  0  0
 32 31  1  0  0  0  0
 32 27  1  1  0  0  0
M  END
>  <MODEL>
6

>  <REMARK>
 VINA RESULT:      -6.3      3.779      8.035
  Name = 
  10 active torsions:
  status: ('A' for Active; 'I' for Inactive)
    1  A    between atoms: C_1  and  C_24
    2  A    between atoms: S_2  and  C_7
    3  A    between atoms: S_2  and  C_11
    4  A    between atoms: C_3  and  C_12
    5  A    between atoms: C_7  and  C_14
    6  A    between atoms: C_10  and  C_12
    7  A    between atoms: C_10  and  N_27
    8  A    between atoms: C_11  and  C_22
    9  A    between atoms: C_18  and  C_19
   10  A    between atoms: C_19  and  C_20
                            x       y       z     vdW  Elec       q    Type
                         _______ _______ _______ _____ _____    ______ ____

>  <TORSDO>
F 10

$$$$
=
 OpenBabel11062419043D

 32 35  0  0  1  0  0  0  0  0999 V2000
  190.8610  175.9550  144.6790 O   0  0  0  0  0  0  0  0  0  0  0  0
  188.7610  176.7200  146.0480 C   0  0  2  0  0  3  0  0  0  0  0  0
  188.9530  174.5520  147.3460 C   0  0  0  0  0  1  0  0  0  0  0  0
  188.4170  176.1620  144.6690 C   0  0  0  0  0  2  0  0  0  0  0  0
  190.8500  175.3010  145.9380 C   0  0  2  0  0  3  0  0  0  0  0  0
  189.6770  175.6680  143.9420 C   0  0  2  0  0  0  0  0  0  0  0  0
  189.5350  174.1710  143.6610 C   0  0  0  0  0  1  0  0  0  0  0  0
  189.6870  175.7800  146.8290 C   0  0  1  0  0  3  0  0  0  0  0  0
  189.7370  176.4100  142.6090 C   0  0  0  0  0  2  0  0  0  0  0  0
  189.9570  177.9060  142.7840 C   0  0  0  0  0  1  0  0  0  0  0  0
  192.2140  176.7690  147.4170 C   0  0  0  0  0  1  0  0  0  0  0  0
  192.2180  175.4730  146.6180 C   0  0  2  0  0  3  0  0  0  0  0  0
  194.2000  174.2410  145.7440 C   0  0  1  0  0  3  0  0  0  0  0  0
  195.2840  175.0530  146.2670 N   0  0  0  0  0  2  0  0  0  0  0  0
  193.3790  175.4890  145.6130 C   0  0  2  0  0  3  0  0  0  0  0  0
  194.5140  176.2280  146.1500 N   0  0  0  0  0  2  0  0  0  0  0  0
  194.5750  173.7100  144.3710 C   0  0  0  0  0  2  0  0  0  0  0  0
  196.0850  173.5800  144.2550 C   0  0  0  0  0  2  0  0  0  0  0  0
  195.3700  174.7260  142.3290 C   0  0  0  0  0  2  0  0  0  0  0  0
  196.5490  174.2680  143.0600 N   0  0  0  0  0  0  0  0  0  0  0  0
  195.0010  176.8100  141.2480 O   0  0  0  0  0  0  0  0  0  0  0  0
  197.2770  175.4070  143.4870 N   0  0  0  0  0  2  0  0  0  0  0  0
  195.6790  176.1080  141.9810 C   0  0  0  0  0  0  0  0  0  0  0  0
  196.9160  176.5290  142.6260 C   0  0  0  0  0  2  0  0  0  0  0  0
  187.5710  177.2810  146.8330 C   0  0  0  0  0  2  0  0  0  0  0  0
  185.9840  177.1640  145.9420 S   0  0  0  0  0  0  0  0  0  0  0  0
  185.9310  178.9550  145.6380 C   0  0  0  0  0  2  0  0  0  0  0  0
  184.1580  178.4860  144.0960 O   0  0  0  0  0  0  0  0  0  0  0  0
  184.0580  178.2910  142.7110 C   0  0  0  0  0  2  0  0  0  0  0  0
  185.4530  178.2280  142.1340 C   0  0  0  0  0  2  0  0  0  0  0  0
  186.3130  178.8380  143.1990 C   0  0  0  0  0  2  0  0  0  0  0  0
  185.3310  179.2350  144.2750 C   0  0  2  0  0  3  0  0  0  0  0  0
  1  5  1  0  0  0  0
  2  8  1  0  0  0  0
  2 25  1  1  0  0  0
  4  2  1  0  0  0  0
  5 12  1  1  0  0  0
  5  8  1  0  0  0  0
  6  7  1  6  0  0  0
  6  4  1  0  0  0  0
  6  1  1  0  0  0  0
  8  3  1  6  0  0  0
  9 10  1  0  0  0  0
  9  6  1  0  0  0  0
 12 11  1  6  0  0  0
 13 17  1  6  0  0  0
 13 14  1  0  0  0  0
 15 13  1  0  0  0  0
 15 16  1  0  0  0  0
 15 12  1  1  0  0  0
 16 14  1  0  0  0  0
 18 17  1  0  0  0  0
 19 20  1  0  0  0  0
 20 22  1  0  0  0  0
 20 18  1  0  0  0  0
 21 23  2  0  0  0  0
 23 19  1  0  0  0  0
 23 24  1  0  0  0  0
 24 22  1  0  0  0  0
 26 25  1  0  0  0  0
 27 26  1  0  0  0  0
 28 32  1  0  0  0  0
 29 28  1  0  0  0  0
 30 29  1  0  0  0  0
 30 31  1  0  0  0  0
 31 32  1  0  0  0  0
 32 27  1  1  0  0  0
M  END
>  <MODEL>
7

>  <REMARK>
 VINA RESULT:      -6.3      2.438      4.456
  Name = 
  10 active torsions:
  status: ('A' for Active; 'I' for Inactive)
    1  A    between atoms: C_1  and  C_24
    2  A    between atoms: S_2  and  C_7
    3  A    between atoms: S_2  and  C_11
    4  A    between atoms: C_3  and  C_12
    5  A    between atoms: C_7  and  C_14
    6  A    between atoms: C_10  and  C_12
    7  A    between atoms: C_10  and  N_27
    8  A    between atoms: C_11  and  C_22
    9  A    between atoms: C_18  and  C_19
   10  A    between atoms: C_19  and  C_20
                            x       y       z     vdW  Elec       q    Type
                         _______ _______ _______ _____ _____    ______ ____

>  <TORSDO>
F 10

$$$$
=
 OpenBabel11062419043D

 32 35  0  0  1  0  0  0  0  0999 V2000
  191.3530  176.5120  145.6710 O   0  0  0  0  0  0  0  0  0  0  0  0
  192.0960  174.3010  144.4760 C   0  0  2  0  0  3  0  0  0  0  0  0
  189.9500  173.2500  145.3210 C   0  0  0  0  0  1  0  0  0  0  0  0
  192.8050  174.5390  145.8070 C   0  0  0  0  0  2  0  0  0  0  0  0
  190.2130  175.7140  145.3940 C   0  0  2  0  0  3  0  0  0  0  0  0
  192.2810  175.8110  146.4930 C   0  0  2  0  0  0  0  0  0  0  0  0
  191.6680  175.4320  147.8430 C   0  0  0  0  0  1  0  0  0  0  0  0
  190.5750  174.4390  144.6060 C   0  0  1  0  0  3  0  0  0  0  0  0
  193.4910  176.7080  146.7430 C   0  0  0  0  0  2  0  0  0  0  0  0
  194.4420  176.7480  145.5550 C   0  0  0  0  0  1  0  0  0  0  0  0
  189.5890  178.0250  144.7040 C   0  0  0  0  0  1  0  0  0  0  0  0
  189.1540  176.5650  144.6760 C   0  0  2  0  0  3  0  0  0  0  0  0
  187.2930  177.7560  145.8280 C   0  0  1  0  0  3  0  0  0  0  0  0
  187.4160  177.2260  147.1740 N   0  0  0  0  0  2  0  0  0  0  0  0
  187.7590  176.4300  145.3050 C   0  0  2  0  0  3  0  0  0  0  0  0
  187.8610  175.9810  146.6880 N   0  0  0  0  0  2  0  0  0  0  0  0
  185.8250  177.9670  145.4940 C   0  0  0  0  0  2  0  0  0  0  0  0
  185.5500  179.4430  145.2590 C   0  0  0  0  0  2  0  0  0  0  0  0
  186.0100  179.0000  142.9950 C   0  0  0  0  0  2  0  0  0  0  0  0
  185.0640  179.6450  143.9020 N   0  0  0  0  0  0  0  0  0  0  0  0
  185.5670  177.6740  141.0730 O   0  0  0  0  0  0  0  0  0  0  0  0
  183.8200  178.9730  143.7980 N   0  0  0  0  0  2  0  0  0  0  0  0
  185.1670  178.2500  142.0720 C   0  0  0  0  0  0  0  0  0  0  0  0
  183.7760  178.2920  142.5080 C   0  0  0  0  0  2  0  0  0  0  0  0
  192.5860  173.0780  143.6940 C   0  0  0  0  0  2  0  0  0  0  0  0
  192.4450  173.2580  141.8850 S   0  0  0  0  0  0  0  0  0  0  0  0
  190.9680  172.2010  141.8140 C   0  0  0  0  0  2  0  0  0  0  0  0
  190.0500  174.3440  141.2580 O   0  0  0  0  0  0  0  0  0  0  0  0
  188.7770  174.9320  141.3000 C   0  0  0  0  0  2  0  0  0  0  0  0
  187.8370  173.9880  142.0110 C   0  0  0  0  0  2  0  0  0  0  0  0
  188.5450  172.6680  141.9660 C   0  0  0  0  0  2  0  0  0  0  0  0
  189.8110  172.9620  141.1970 C   0  0  2  0  0  3  0  0  0  0  0  0
  1  6  1  0  0  0  0
  2 25  1  1  0  0  0
  2  8  1  0  0  0  0
  2  4  1  0  0  0  0
  4  6  1  0  0  0  0
  5 12  1  6  0  0  0
  5  1  1  0  0  0  0
  6  9  1  0  0  0  0
  6  7  1  1  0  0  0
  8  3  1  1  0  0  0
  8  5  1  0  0  0  0
 10  9  1  0  0  0  0
 12 11  1  1  0  0  0
 13 17  1  6  0  0  0
 13 14  1  0  0  0  0
 15 12  1  1  0  0  0
 15 13  1  0  0  0  0
 15 16  1  0  0  0  0
 16 14  1  0  0  0  0
 18 17  1  0  0  0  0
 19 20  1  0  0  0  0
 20 18  1  0  0  0  0
 21 23  2  0  0  0  0
 22 20  1  0  0  0  0
 23 24  1  0  0  0  0
 23 19  1  0  0  0  0
 24 22  1  0  0  0  0
 26 25  1  0  0  0  0
 27 26  1  0  0  0  0
 28 29  1  0  0  0  0
 29 30  1  0  0  0  0
 31 30  1  0  0  0  0
 32 28  1  0  0  0  0
 32 27  1  1  0  0  0
 32 31  1  0  0  0  0
M  END
>  <MODEL>
8

>  <REMARK>
 VINA RESULT:      -6.3      3.639      7.457
  Name = 
  10 active torsions:
  status: ('A' for Active; 'I' for Inactive)
    1  A    between atoms: C_1  and  C_24
    2  A    between atoms: S_2  and  C_7
    3  A    between atoms: S_2  and  C_11
    4  A    between atoms: C_3  and  C_12
    5  A    between atoms: C_7  and  C_14
    6  A    between atoms: C_10  and  C_12
    7  A    between atoms: C_10  and  N_27
    8  A    between atoms: C_11  and  C_22
    9  A    between atoms: C_18  and  C_19
   10  A    between atoms: C_19  and  C_20
                            x       y       z     vdW  Elec       q    Type
                         _______ _______ _______ _____ _____    ______ ____

>  <TORSDO>
F 10

$$$$
=
 OpenBabel11062419043D

 32 35  0  0  1  0  0  0  0  0999 V2000
  190.5190  175.9900  145.9130 O   0  0  0  0  0  0  0  0  0  0  0  0
  189.5220  177.0040  143.7110 C   0  0  2  0  0  3  0  0  0  0  0  0
  191.2640  178.8360  143.8950 C   0  0  0  0  0  1  0  0  0  0  0  0
  188.6920  177.3170  144.9540 C   0  0  0  0  0  2  0  0  0  0  0  0
  191.5010  176.7870  145.2690 C   0  0  2  0  0  3  0  0  0  0  0  0
  189.3590  176.7570  146.2210 C   0  0  2  0  0  0  0  0  0  0  0  0
  189.6800  177.9150  147.1680 C   0  0  0  0  0  1  0  0  0  0  0  0
  191.0050  177.3370  143.9170 C   0  0  1  0  0  3  0  0  0  0  0  0
  188.3340  175.8470  146.8940 C   0  0  0  0  0  2  0  0  0  0  0  0
  188.9450  174.5400  147.3800 C   0  0  0  0  0  1  0  0  0  0  0  0
  193.9000  176.6750  145.9300 C   0  0  0  0  0  1  0  0  0  0  0  0
  192.8040  175.9830  145.1310 C   0  0  2  0  0  3  0  0  0  0  0  0
  193.6330  174.4030  143.3920 C   0  0  1  0  0  3  0  0  0  0  0  0
  195.0110  174.8400  143.2550 N   0  0  0  0  0  2  0  0  0  0  0  0
  193.2500  175.8260  143.6700 C   0  0  2  0  0  3  0  0  0  0  0  0
  194.6560  176.1770  143.5210 N   0  0  0  0  0  2  0  0  0  0  0  0
  193.0970  173.9680  142.0380 C   0  0  0  0  0  2  0  0  0  0  0  0
  191.6430  174.3860  141.8930 C   0  0  0  0  0  2  0  0  0  0  0  0
  189.6300  173.3460  142.5230 C   0  0  0  0  0  2  0  0  0  0  0  0
  190.8110  173.2130  141.6720 N   0  0  0  0  0  0  0  0  0  0  0  0
  187.3590  172.8780  142.0060 O   0  0  0  0  0  0  0  0  0  0  0  0
  190.3890  173.2460  140.3190 N   0  0  0  0  0  2  0  0  0  0  0  0
  188.5150  173.0140  141.6430 C   0  0  0  0  0  0  0  0  0  0  0  0
  188.9810  172.8610  140.2700 C   0  0  0  0  0  2  0  0  0  0  0  0
  188.9120  177.4840  142.3910 C   0  0  0  0  0  2  0  0  0  0  0  0
  187.3190  176.6940  141.9880 S   0  0  0  0  0  0  0  0  0  0  0  0
  186.5230  178.2910  141.6410 C   0  0  0  0  0  2  0  0  0  0  0  0
  185.9200  179.6450  143.5240 O   0  0  0  0  0  0  0  0  0  0  0  0
  185.2900  179.4250  144.7570 C   0  0  0  0  0  2  0  0  0  0  0  0
  185.1080  177.9370  144.9430 C   0  0  0  0  0  2  0  0  0  0  0  0
  185.2640  177.3770  143.5620 C   0  0  0  0  0  2  0  0  0  0  0  0
  185.4820  178.5960  142.6990 C   0  0  2  0  0  3  0  0  0  0  0  0
  1  6  1  0  0  0  0
  2 25  1  6  0  0  0
  2  8  1  0  0  0  0
  2  4  1  0  0  0  0
  4  6  1  0  0  0  0
  5 12  1  6  0  0  0
  5  1  1  0  0  0  0
  6  9  1  0  0  0  0
  6  7  1  1  0  0  0
  8  3  1  1  0  0  0
  8  5  1  0  0  0  0
  9 10  1  0  0  0  0
 12 11  1  1  0  0  0
 13 17  1  6  0  0  0
 13 15  1  0  0  0  0
 14 13  1  0  0  0  0
 14 16  1  0  0  0  0
 15 12  1  1  0  0  0
 16 15  1  0  0  0  0
 18 17  1  0  0  0  0
 20 18  1  0  0  0  0
 20 19  1  0  0  0  0
 22 20  1  0  0  0  0
 23 21  2  0  0  0  0
 23 19  1  0  0  0  0
 24 22  1  0  0  0  0
 24 23  1  0  0  0  0
 26 25  1  0  0  0  0
 27 26  1  0  0  0  0
 28 29  1  0  0  0  0
 29 30  1  0  0  0  0
 31 30  1  0  0  0  0
 32 27  1  6  0  0  0
 32 28  1  0  0  0  0
 32 31  1  0  0  0  0
M  END
>  <MODEL>
9

>  <REMARK>
 VINA RESULT:      -6.2      1.971      4.532
  Name = 
  10 active torsions:
  status: ('A' for Active; 'I' for Inactive)
    1  A    between atoms: C_1  and  C_24
    2  A    between atoms: S_2  and  C_7
    3  A    between atoms: S_2  and  C_11
    4  A    between atoms: C_3  and  C_12
    5  A    between atoms: C_7  and  C_14
    6  A    between atoms: C_10  and  C_12
    7  A    between atoms: C_10  and  N_27
    8  A    between atoms: C_11  and  C_22
    9  A    between atoms: C_18  and  C_19
   10  A    between atoms: C_19  and  C_20
                            x       y       z     vdW  Elec       q    Type
                         _______ _______ _______ _____ _____    ______ ____

>  <TORSDO>
F 10

$$$$
