=
 OpenBabel11072408543D

 60 66  0  0  1  0  0  0  0  0999 V2000
  188.6160  173.5220  142.4640 C   0  0  1  0  0  3  0  0  0  0  0  0
  191.4220  176.1350  143.2390 C   0  0  2  0  0  3  0  0  0  0  0  0
  189.4010  176.4170  144.6080 C   0  0  2  0  0  0  0  0  0  0  0  0
  188.5460  177.6710  144.5080 C   0  0  2  0  0  3  0  0  0  0  0  0
  188.7860  177.0020  145.8550 C   0  0  0  0  0  2  0  0  0  0  0  0
  189.4160  174.6700  143.0900 C   0  0  2  0  0  0  0  0  0  0  0  0
  190.9200  176.5690  144.6010 C   0  0  0  0  0  2  0  0  0  0  0  0
  188.6210  174.9120  141.8230 C   0  0  0  0  0  2  0  0  0  0  0  0
  190.9430  174.7240  142.9380 C   0  0  0  0  0  2  0  0  0  0  0  0
  188.8240  175.1680  144.2750 O   0  0  0  0  0  0  0  0  0  0  0  0
  191.0840  173.4380  137.9560 C   0  0  0  0  0  2  0  0  0  0  0  0
  189.8620  173.6350  137.0660 C   0  0  0  0  0  2  0  0  0  0  0  0
  191.2060  169.6190  137.5840 C   0  0  1  0  0  3  0  0  0  0  0  0
  191.2110  171.9600  138.3950 C   0  0  2  0  0  3  0  0  0  0  0  0
  191.1420  170.5700  140.5430 C   0  0  0  0  0  0  0  0  0  0  0  0
  193.4400  169.0620  140.9490 S   0  0  0  0  0  0  0  0  0  0  0  0
  194.1710  168.1660  139.5370 C   0  0  1  0  0  3  0  0  0  0  0  0
  189.4590  172.4940  141.7460 C   0  0  0  0  0  0  0  0  0  0  0  0
  190.8030  171.4980  136.0650 C   0  0  0  0  0  2  0  0  0  0  0  0
  189.8720  171.3730  142.4630 C   0  0  0  0  0  3  0  0  0  0  0  0
  190.6310  170.9900  137.4350 N   0  0  1  0  0  0  0  0  0  0  0  0
  193.3040  168.3450  138.2950 C   0  0  0  0  0  2  0  0  0  0  0  0
  189.8690  172.6360  140.4110 C   0  0  0  0  0  3  0  0  0  0  0  0
  189.9130  172.7220  135.8350 C   0  0  0  0  0  2  0  0  0  0  0  0
  191.9560  169.4290  139.9690 C   0  0  2  0  0  3  0  0  0  0  0  0
  191.4730  169.0020  136.3470 O   0  0  0  0  0  1  0  0  0  0  0  0
  190.7240  171.7080  139.8040 C   0  0  0  0  0  0  0  0  0  0  0  0
  192.4160  169.5480  138.5290 C   0  0  2  0  0  3  0  0  0  0  0  0
  190.6880  170.4150  141.8610 C   0  0  0  0  0  3  0  0  0  0  0  0
  195.5370  168.6050  139.2970 N   0  0  0  0  0  0  0  0  0  0  0  0
  196.3960  168.9840  140.4080 C   0  0  0  0  0  1  0  0  0  0  0  0
  196.0570  168.6050  137.9710 C   0  0  0  0  0  0  0  0  0  0  0  0
  197.3710  169.1050  137.7190 N   0  0  0  0  0  2  0  0  0  0  0  0
  195.3510  168.1660  137.0200 O   0  0  0  0  0  0  0  0  0  0  0  0
  197.9410  169.1670  136.3870 C   0  0  0  0  0  2  0  0  0  0  0  0
  197.7310  170.4200  135.8380 O   0  0  0  0  0  0  0  0  0  0  0  0
  197.0410  170.1700  134.6510 C   0  0  0  0  0  2  0  0  0  0  0  0
  195.8960  171.1560  134.5230 C   0  0  0  0  0  1  0  0  0  0  0  0
  192.8760  176.2720  143.1200 N   0  0  0  0  0  0  0  0  0  0  0  0
  193.0270  175.1550  141.0670 O   0  0  0  0  0  0  0  0  0  0  0  0
  193.5890  175.8640  141.9420 C   0  0  0  0  0  0  0  0  0  0  0  0
  195.2640  176.4120  141.6700 S   0  0  0  0  0  0  0  0  0  0  0  0
  195.4140  175.4460  140.1370 C   0  0  0  0  0  2  0  0  0  0  0  0
  196.6890  174.1420  141.6460 F   0  0  0  0  0  0  0  0  0  0  0  0
  195.4680  173.0850  140.0760 F   0  0  0  0  0  0  0  0  0  0  0  0
  197.3370  174.1920  139.4860 F   0  0  0  0  0  0  0  0  0  0  0  0
  196.2510  174.1980  140.3400 C   0  0  0  0  0  0  0  0  0  0  0  0
  193.6380  176.6210  144.3210 C   0  0  0  0  0  2  0  0  0  0  0  0
  194.2540  175.4840  144.8750 O   0  0  0  0  0  0  0  0  0  0  0  0
  194.2980  175.6490  146.2710 C   0  0  0  0  0  0  0  0  0  0  0  0
  195.4750  175.1000  146.7280 F   0  0  0  0  0  0  0  0  0  0  0  0
  194.2680  176.9920  146.6260 F   0  0  0  0  0  0  0  0  0  0  0  0
  193.2510  174.9860  146.8690 F   0  0  0  0  0  0  0  0  0  0  0  0
  186.9930  177.5990  142.6880 O   0  0  0  0  0  1  0  0  0  0  0  0
  187.1150  177.3900  144.0670 C   0  0  2  0  0  3  0  0  0  0  0  0
  186.1250  178.2740  144.8440 C   0  0  0  0  0  3  0  0  0  0  0  0
  185.2800  177.4420  145.8020 C   0  0  0  0  0  2  0  0  0  0  0  0
  184.1570  178.1560  146.2270 O   0  0  0  0  0  1  0  0  0  0  0  0
  185.5170  180.5070  144.1830 O   0  0  0  0  0  1  0  0  0  0  0  0
  185.2450  179.1480  143.9570 C   0  0  0  0  0  2  0  0  0  0  0  0
  1 18  1  6  0  0  0
  1  6  1  0  0  0  0
  2 39  1  1  0  0  0
  2  7  1  0  0  0  0
  3  7  1  6  0  0  0
  3  5  1  0  0  0  0
  4 55  1  6  0  0  0
  4  3  1  0  0  0  0
  4  5  1  0  0  0  0
  6  8  1  6  0  0  0
  6 10  1  0  0  0  0
  8  1  1  0  0  0  0
  9  6  1  0  0  0  0
  9  2  1  0  0  0  0
 10  3  1  0  0  0  0
 12 11  1  0  0  0  0
 13 26  1  6  0  0  0
 13 28  1  0  0  0  0
 14 11  1  6  0  0  0
 14 27  1  0  0  0  0
 15 29  1  0  0  0  0
 17 30  1  6  0  0  0
 17 16  1  0  0  0  0
 18 20  1  0  0  0  0
 21 19  1  6  0  0  0
 21 13  1  0  0  0  0
 21 14  1  0  0  0  0
 22 17  1  0  0  0  0
 23 18  2  0  0  0  0
 24 19  1  0  0  0  0
 24 12  1  0  0  0  0
 25 15  1  1  0  0  0
 25 16  1  0  0  0  0
 27 23  1  0  0  0  0
 27 15  2  0  0  0  0
 28 22  1  6  0  0  0
 28 25  1  0  0  0  0
 29 20  2  0  0  0  0
 30 31  1  0  0  0  0
 32 30  1  0  0  0  0
 33 32  1  0  0  0  0
 34 32  2  0  0  0  0
 35 33  1  0  0  0  0
 36 35  1  0  0  0  0
 37 36  1  0  0  0  0
 38 37  1  0  0  0  0
 39 48  1  0  0  0  0
 40 41  2  0  0  0  0
 41 39  1  0  0  0  0
 42 41  1  0  0  0  0
 43 47  1  0  0  0  0
 43 42  1  0  0  0  0
 45 47  1  0  0  0  0
 46 47  1  0  0  0  0
 47 44  1  0  0  0  0
 48 49  1  0  0  0  0
 49 50  1  0  0  0  0
 50 52  1  0  0  0  0
 50 51  1  0  0  0  0
 50 53  1  0  0  0  0
 55 54  1  6  0  0  0
 55 56  1  0  0  0  0
 56 57  1  0  0  0  0
 57 58  1  0  0  0  0
 60 59  1  0  0  0  0
 60 56  1  0  0  0  0
M  END
>  <MODEL>
1

>  <REMARK>
 VINA RESULT:      -6.6      0.000      0.000
  Name = 
  16 active torsions:
  status: ('A' for Active; 'I' for Inactive)
    1  A    between atoms: C_4  and  N_14
    2  A    between atoms: C_4  and  O_16
    3  A    between atoms: O_8  and  C_12
    4  A    between atoms: O_8  and  C_52
    5  A    between atoms: C_9  and  C_21
    6  A    between atoms: C_10  and  C_15
    7  A    between atoms: C_13  and  N_23
    8  A    between atoms: N_14  and  C_20
    9  A    between atoms: O_16  and  C_18
   10  A    between atoms: C_21  and  C_33
   11  A    between atoms: C_21  and  C_47
   12  A    between atoms: C_25  and  C_33
   13  A    between atoms: C_39  and  S_45
   14  A    between atoms: C_39  and  C_53
   15  A    between atoms: S_45  and  C_58
   16  A    between atoms: C_52  and  N_55
                            x       y       z     vdW  Elec       q    Type
                         _______ _______ _______ _____ _____    ______ ____

>  <TORSDO>
F 16

$$$$
=
 OpenBabel11072408543D

 60 66  0  0  1  0  0  0  0  0999 V2000
  189.0120  173.5690  142.0900 C   0  0  1  0  0  3  0  0  0  0  0  0
  192.0010  175.5600  143.6410 C   0  0  2  0  0  3  0  0  0  0  0  0
  189.9040  175.7780  144.9040 C   0  0  2  0  0  0  0  0  0  0  0  0
  189.2030  177.1210  145.0480 C   0  0  2  0  0  3  0  0  0  0  0  0
  189.2430  176.1390  146.2110 C   0  0  0  0  0  2  0  0  0  0  0  0
  189.8700  174.4340  143.0200 C   0  0  2  0  0  0  0  0  0  0  0  0
  191.4240  175.7340  145.0320 C   0  0  0  0  0  2  0  0  0  0  0  0
  189.2280  175.0560  141.7970 C   0  0  0  0  0  2  0  0  0  0  0  0
  191.4010  174.3270  142.9850 C   0  0  0  0  0  2  0  0  0  0  0  0
  189.2290  174.7210  144.2480 O   0  0  0  0  0  0  0  0  0  0  0  0
  190.9800  173.9290  137.3550 C   0  0  0  0  0  2  0  0  0  0  0  0
  189.6640  174.1480  136.6180 C   0  0  0  0  0  2  0  0  0  0  0  0
  191.1710  170.1570  136.6630 C   0  0  1  0  0  3  0  0  0  0  0  0
  191.1970  172.4260  137.6560 C   0  0  2  0  0  3  0  0  0  0  0  0
  191.4000  170.8720  139.6790 C   0  0  0  0  0  0  0  0  0  0  0  0
  193.7710  169.4240  139.7170 S   0  0  0  0  0  0  0  0  0  0  0  0
  194.3700  168.6690  138.1680 C   0  0  1  0  0  3  0  0  0  0  0  0
  189.8020  172.6320  141.2060 C   0  0  0  0  0  0  0  0  0  0  0  0
  190.5520  172.1320  135.3530 C   0  0  0  0  0  2  0  0  0  0  0  0
  190.3220  171.4750  141.7810 C   0  0  0  0  0  3  0  0  0  0  0  0
  190.5440  171.5130  136.6870 N   0  0  1  0  0  0  0  0  0  0  0  0
  193.3690  168.9110  137.0430 C   0  0  0  0  0  2  0  0  0  0  0  0
  190.0610  172.8930  139.8510 C   0  0  0  0  0  3  0  0  0  0  0  0
  189.6080  173.3370  135.3190 C   0  0  0  0  0  2  0  0  0  0  0  0
  192.1800  169.8100  138.9320 C   0  0  2  0  0  3  0  0  0  0  0  0
  191.3200  169.6480  135.3590 O   0  0  0  0  0  1  0  0  0  0  0  0
  190.8720  172.0480  139.0840 C   0  0  0  0  0  0  0  0  0  0  0  0
  192.4780  170.0580  137.4660 C   0  0  2  0  0  3  0  0  0  0  0  0
  191.0960  170.5980  141.0210 C   0  0  0  0  0  3  0  0  0  0  0  0
  195.6890  169.1750  137.8210 N   0  0  0  0  0  0  0  0  0  0  0  0
  196.7520  168.2600  137.4350 C   0  0  0  0  0  1  0  0  0  0  0  0
  195.9250  170.5800  137.8000 C   0  0  0  0  0  0  0  0  0  0  0  0
  197.2370  171.0800  137.5350 N   0  0  0  0  0  2  0  0  0  0  0  0
  194.9740  171.3790  138.0220 O   0  0  0  0  0  0  0  0  0  0  0  0
  197.5470  172.4960  137.5370 C   0  0  0  0  0  2  0  0  0  0  0  0
  197.5690  172.9800  136.2410 O   0  0  0  0  0  0  0  0  0  0  0  0
  197.7380  174.3580  136.3850 C   0  0  0  0  0  2  0  0  0  0  0  0
  196.4090  174.9880  136.7540 C   0  0  0  0  0  1  0  0  0  0  0  0
  193.4660  175.5340  143.6530 N   0  0  0  0  0  0  0  0  0  0  0  0
  193.7070  176.1860  141.4170 O   0  0  0  0  0  0  0  0  0  0  0  0
  194.2480  175.9820  142.5350 C   0  0  0  0  0  0  0  0  0  0  0  0
  195.9880  176.3180  142.7320 S   0  0  0  0  0  0  0  0  0  0  0  0
  196.4580  174.7170  142.0100 C   0  0  0  0  0  2  0  0  0  0  0  0
  195.7170  174.1260  139.8410 F   0  0  0  0  0  0  0  0  0  0  0  0
  196.6400  176.1580  140.1470 F   0  0  0  0  0  0  0  0  0  0  0  0
  197.9390  174.3190  140.1810 F   0  0  0  0  0  0  0  0  0  0  0  0
  196.6970  174.8240  140.5160 C   0  0  0  0  0  0  0  0  0  0  0  0
  194.1360  174.8220  144.7440 C   0  0  0  0  0  2  0  0  0  0  0  0
  194.3550  173.4740  144.4050 O   0  0  0  0  0  0  0  0  0  0  0  0
  193.7140  172.6730  145.3660 C   0  0  0  0  0  0  0  0  0  0  0  0
  193.2400  173.4990  146.3610 F   0  0  0  0  0  0  0  0  0  0  0  0
  192.6430  171.9780  144.8180 F   0  0  0  0  0  0  0  0  0  0  0  0
  194.6050  171.7880  145.9290 F   0  0  0  0  0  0  0  0  0  0  0  0
  187.8100  177.7550  143.2070 O   0  0  0  0  0  1  0  0  0  0  0  0
  187.7970  177.1310  144.4600 C   0  0  2  0  0  3  0  0  0  0  0  0
  186.8170  177.8370  145.4130 C   0  0  0  0  0  3  0  0  0  0  0  0
  185.8810  176.8350  146.0790 C   0  0  0  0  0  2  0  0  0  0  0  0
  185.9620  176.9240  147.4710 O   0  0  0  0  0  1  0  0  0  0  0  0
  184.6850  178.6090  144.6080 O   0  0  0  0  0  1  0  0  0  0  0  0
  186.0320  178.9730  144.7660 C   0  0  0  0  0  2  0  0  0  0  0  0
  1 18  1  6  0  0  0
  1  6  1  0  0  0  0
  2 39  1  1  0  0  0
  2  7  1  0  0  0  0
  3  7  1  6  0  0  0
  3  4  1  0  0  0  0
  3  5  1  0  0  0  0
  4 55  1  6  0  0  0
  4  5  1  0  0  0  0
  6  8  1  6  0  0  0
  6 10  1  0  0  0  0
  8  1  1  0  0  0  0
  9  6  1  0  0  0  0
  9  2  1  0  0  0  0
 10  3  1  0  0  0  0
 12 11  1  0  0  0  0
 13 26  1  6  0  0  0
 13 21  1  0  0  0  0
 13 28  1  0  0  0  0
 14 11  1  6  0  0  0
 14 27  1  0  0  0  0
 15 29  1  0  0  0  0
 17 30  1  6  0  0  0
 17 16  1  0  0  0  0
 18 20  1  0  0  0  0
 21 19  1  6  0  0  0
 21 14  1  0  0  0  0
 22 17  1  0  0  0  0
 23 18  2  0  0  0  0
 24 19  1  0  0  0  0
 24 12  1  0  0  0  0
 25 15  1  1  0  0  0
 25 16  1  0  0  0  0
 27 15  2  0  0  0  0
 27 23  1  0  0  0  0
 28 22  1  6  0  0  0
 28 25  1  0  0  0  0
 29 20  2  0  0  0  0
 31 30  1  0  0  0  0
 32 30  1  0  0  0  0
 32 34  2  0  0  0  0
 33 35  1  0  0  0  0
 33 32  1  0  0  0  0
 36 37  1  0  0  0  0
 36 35  1  0  0  0  0
 37 38  1  0  0  0  0
 39 48  1  0  0  0  0
 40 41  2  0  0  0  0
 41 42  1  0  0  0  0
 41 39  1  0  0  0  0
 43 42  1  0  0  0  0
 44 47  1  0  0  0  0
 45 47  1  0  0  0  0
 46 47  1  0  0  0  0
 47 43  1  0  0  0  0
 49 48  1  0  0  0  0
 49 50  1  0  0  0  0
 50 53  1  0  0  0  0
 50 51  1  0  0  0  0
 52 50  1  0  0  0  0
 55 54  1  6  0  0  0
 55 56  1  0  0  0  0
 56 57  1  0  0  0  0
 57 58  1  0  0  0  0
 59 60  1  0  0  0  0
 60 56  1  0  0  0  0
M  END
>  <MODEL>
2

>  <REMARK>
 VINA RESULT:      -6.6      1.682      1.957
  Name = 
  16 active torsions:
  status: ('A' for Active; 'I' for Inactive)
    1  A    between atoms: C_4  and  N_14
    2  A    between atoms: C_4  and  O_16
    3  A    between atoms: O_8  and  C_12
    4  A    between atoms: O_8  and  C_52
    5  A    between atoms: C_9  and  C_21
    6  A    between atoms: C_10  and  C_15
    7  A    between atoms: C_13  and  N_23
    8  A    between atoms: N_14  and  C_20
    9  A    between atoms: O_16  and  C_18
   10  A    between atoms: C_21  and  C_33
   11  A    between atoms: C_21  and  C_47
   12  A    between atoms: C_25  and  C_33
   13  A    between atoms: C_39  and  S_45
   14  A    between atoms: C_39  and  C_53
   15  A    between atoms: S_45  and  C_58
   16  A    between atoms: C_52  and  N_55
                            x       y       z     vdW  Elec       q    Type
                         _______ _______ _______ _____ _____    ______ ____

>  <TORSDO>
F 16

$$$$
=
 OpenBabel11072408543D

 60 66  0  0  1  0  0  0  0  0999 V2000
  188.7420  173.5450  141.8870 C   0  0  1  0  0  3  0  0  0  0  0  0
  191.7350  175.5300  143.4370 C   0  0  2  0  0  3  0  0  0  0  0  0
  189.6510  175.7120  144.7270 C   0  0  2  0  0  0  0  0  0  0  0  0
  188.9430  177.0470  144.9020 C   0  0  2  0  0  3  0  0  0  0  0  0
  189.0030  176.0450  146.0480 C   0  0  0  0  0  2  0  0  0  0  0  0
  189.6040  174.4000  142.8210 C   0  0  2  0  0  0  0  0  0  0  0  0
  191.1730  175.6760  144.8370 C   0  0  0  0  0  2  0  0  0  0  0  0
  188.9440  175.0380  141.6160 C   0  0  0  0  0  2  0  0  0  0  0  0
  191.1360  174.3030  142.7660 C   0  0  0  0  0  2  0  0  0  0  0  0
  188.9750  174.6620  144.0610 O   0  0  0  0  0  0  0  0  0  0  0  0
  190.7950  174.0550  137.2020 C   0  0  0  0  0  2  0  0  0  0  0  0
  189.4950  174.3310  136.4540 C   0  0  0  0  0  2  0  0  0  0  0  0
  190.9230  170.3110  136.3590 C   0  0  1  0  0  3  0  0  0  0  0  0
  190.9770  172.5380  137.4450 C   0  0  2  0  0  3  0  0  0  0  0  0
  191.1150  170.8990  139.4060 C   0  0  0  0  0  0  0  0  0  0  0  0
  193.4570  169.4020  139.4220 S   0  0  0  0  0  0  0  0  0  0  0  0
  194.0660  168.6990  137.8530 C   0  0  1  0  0  3  0  0  0  0  0  0
  189.5270  172.6290  140.9770 C   0  0  0  0  0  0  0  0  0  0  0  0
  190.3650  172.3500  135.1210 C   0  0  0  0  0  2  0  0  0  0  0  0
  190.0150  171.4380  141.5130 C   0  0  0  0  0  3  0  0  0  0  0  0
  190.3230  171.6780  136.4290 N   0  0  1  0  0  0  0  0  0  0  0  0
  193.0890  169.0070  136.7240 C   0  0  0  0  0  2  0  0  0  0  0  0
  189.8140  172.9390  139.6390 C   0  0  0  0  0  3  0  0  0  0  0  0
  189.4450  173.5740  135.1220 C   0  0  0  0  0  2  0  0  0  0  0  0
  191.8870  169.8530  138.6290 C   0  0  2  0  0  3  0  0  0  0  0  0
  191.0840  169.8530  135.0380 O   0  0  0  0  0  1  0  0  0  0  0  0
  190.6210  172.1080  138.8500 C   0  0  0  0  0  0  0  0  0  0  0  0
  192.2140  170.1530  137.1790 C   0  0  2  0  0  3  0  0  0  0  0  0
  190.7840  170.5780  140.7310 C   0  0  0  0  0  3  0  0  0  0  0  0
  195.4010  169.1920  137.5480 N   0  0  0  0  0  0  0  0  0  0  0  0
  196.3450  168.3610  136.8160 C   0  0  0  0  0  1  0  0  0  0  0  0
  195.7660  170.5190  137.9140 C   0  0  0  0  0  0  0  0  0  0  0  0
  197.0980  170.9830  137.6850 N   0  0  0  0  0  2  0  0  0  0  0  0
  194.9110  171.2810  138.4450 O   0  0  0  0  0  0  0  0  0  0  0  0
  197.5400  172.3090  138.0710 C   0  0  0  0  0  2  0  0  0  0  0  0
  197.5510  173.1450  136.9670 O   0  0  0  0  0  0  0  0  0  0  0  0
  197.9410  174.3850  137.4740 C   0  0  0  0  0  2  0  0  0  0  0  0
  196.9230  174.8490  138.4970 C   0  0  0  0  0  1  0  0  0  0  0  0
  193.1990  175.5140  143.4310 N   0  0  0  0  0  0  0  0  0  0  0  0
  193.4380  177.3570  144.8550 O   0  0  0  0  0  0  0  0  0  0  0  0
  193.9780  176.3850  144.2660 C   0  0  0  0  0  0  0  0  0  0  0  0
  195.7110  176.0610  144.5350 S   0  0  0  0  0  0  0  0  0  0  0  0
  195.3640  174.8950  145.8850 C   0  0  0  0  0  2  0  0  0  0  0  0
  197.1420  173.6280  146.8010 F   0  0  0  0  0  0  0  0  0  0  0  0
  195.3960  172.5320  145.8930 F   0  0  0  0  0  0  0  0  0  0  0  0
  196.8670  173.5960  144.5620 F   0  0  0  0  0  0  0  0  0  0  0  0
  196.2150  173.6440  145.7800 C   0  0  0  0  0  0  0  0  0  0  0  0
  193.8780  174.7490  142.3810 C   0  0  0  0  0  2  0  0  0  0  0  0
  194.2200  173.4630  142.8370 O   0  0  0  0  0  0  0  0  0  0  0  0
  194.4140  172.6400  141.7130 C   0  0  0  0  0  0  0  0  0  0  0  0
  195.5700  173.0440  141.0830 F   0  0  0  0  0  0  0  0  0  0  0  0
  194.5490  171.3060  142.0750 F   0  0  0  0  0  0  0  0  0  0  0  0
  193.3700  172.7790  140.8260 F   0  0  0  0  0  0  0  0  0  0  0  0
  187.5510  177.5490  143.0200 O   0  0  0  0  0  1  0  0  0  0  0  0
  187.5300  177.0580  144.3310 C   0  0  2  0  0  3  0  0  0  0  0  0
  186.5950  177.8990  145.2160 C   0  0  0  0  0  3  0  0  0  0  0  0
  185.5060  177.0350  145.8410 C   0  0  0  0  0  2  0  0  0  0  0  0
  185.7540  176.8220  147.1990 O   0  0  0  0  0  1  0  0  0  0  0  0
  184.6640  179.3050  144.9150 O   0  0  0  0  0  1  0  0  0  0  0  0
  185.9940  179.1090  144.5090 C   0  0  0  0  0  2  0  0  0  0  0  0
  1 18  1  6  0  0  0
  1  6  1  0  0  0  0
  2 39  1  1  0  0  0
  2  7  1  0  0  0  0
  3  7  1  6  0  0  0
  3  4  1  0  0  0  0
  3  5  1  0  0  0  0
  4 55  1  6  0  0  0
  4  5  1  0  0  0  0
  6  8  1  6  0  0  0
  6 10  1  0  0  0  0
  8  1  1  0  0  0  0
  9  6  1  0  0  0  0
  9  2  1  0  0  0  0
 10  3  1  0  0  0  0
 12 11  1  0  0  0  0
 13 26  1  6  0  0  0
 13 21  1  0  0  0  0
 13 28  1  0  0  0  0
 14 11  1  6  0  0  0
 14 27  1  0  0  0  0
 15 29  1  0  0  0  0
 17 30  1  6  0  0  0
 17 16  1  0  0  0  0
 18 20  1  0  0  0  0
 19 24  1  0  0  0  0
 21 19  1  6  0  0  0
 21 14  1  0  0  0  0
 22 17  1  0  0  0  0
 23 18  2  0  0  0  0
 24 12  1  0  0  0  0
 25 15  1  1  0  0  0
 25 16  1  0  0  0  0
 27 15  2  0  0  0  0
 27 23  1  0  0  0  0
 28 22  1  6  0  0  0
 28 25  1  0  0  0  0
 29 20  2  0  0  0  0
 30 32  1  0  0  0  0
 31 30  1  0  0  0  0
 32 34  2  0  0  0  0
 33 32  1  0  0  0  0
 33 35  1  0  0  0  0
 36 37  1  0  0  0  0
 36 35  1  0  0  0  0
 37 38  1  0  0  0  0
 39 41  1  0  0  0  0
 41 42  1  0  0  0  0
 41 40  2  0  0  0  0
 42 43  1  0  0  0  0
 46 47  1  0  0  0  0
 47 43  1  0  0  0  0
 47 45  1  0  0  0  0
 47 44  1  0  0  0  0
 48 49  1  0  0  0  0
 48 39  1  0  0  0  0
 50 52  1  0  0  0  0
 50 49  1  0  0  0  0
 51 50  1  0  0  0  0
 53 50  1  0  0  0  0
 55 54  1  6  0  0  0
 55 56  1  0  0  0  0
 56 57  1  0  0  0  0
 57 58  1  0  0  0  0
 60 59  1  0  0  0  0
 60 56  1  0  0  0  0
M  END
>  <MODEL>
3

>  <REMARK>
 VINA RESULT:      -6.5      1.732      2.952
  Name = 
  16 active torsions:
  status: ('A' for Active; 'I' for Inactive)
    1  A    between atoms: C_4  and  N_14
    2  A    between atoms: C_4  and  O_16
    3  A    between atoms: O_8  and  C_12
    4  A    between atoms: O_8  and  C_52
    5  A    between atoms: C_9  and  C_21
    6  A    between atoms: C_10  and  C_15
    7  A    between atoms: C_13  and  N_23
    8  A    between atoms: N_14  and  C_20
    9  A    between atoms: O_16  and  C_18
   10  A    between atoms: C_21  and  C_33
   11  A    between atoms: C_21  and  C_47
   12  A    between atoms: C_25  and  C_33
   13  A    between atoms: C_39  and  S_45
   14  A    between atoms: C_39  and  C_53
   15  A    between atoms: S_45  and  C_58
   16  A    between atoms: C_52  and  N_55
                            x       y       z     vdW  Elec       q    Type
                         _______ _______ _______ _____ _____    ______ ____

>  <TORSDO>
F 16

$$$$
=
 OpenBabel11072408543D

 60 66  0  0  1  0  0  0  0  0999 V2000
  191.1940  177.0560  144.0540 C   0  0  1  0  0  3  0  0  0  0  0  0
  188.4110  175.0990  142.1250 C   0  0  2  0  0  3  0  0  0  0  0  0
  187.5940  177.1170  143.2640 C   0  0  2  0  0  0  0  0  0  0  0  0
  186.5810  177.0310  144.3960 C   0  0  2  0  0  3  0  0  0  0  0  0
  186.5080  178.1580  143.3750 C   0  0  0  0  0  2  0  0  0  0  0  0
  189.8540  176.6450  143.4370 C   0  0  2  0  0  0  0  0  0  0  0  0
  187.3970  176.2220  142.0440 C   0  0  0  0  0  2  0  0  0  0  0  0
  190.2860  176.0440  144.7580 C   0  0  0  0  0  2  0  0  0  0  0  0
  189.8120  175.6760  142.2470 C   0  0  0  0  0  2  0  0  0  0  0  0
  188.8730  177.6610  143.5310 O   0  0  0  0  0  0  0  0  0  0  0  0
  193.2880  172.3610  143.9920 C   0  0  0  0  0  2  0  0  0  0  0  0
  193.5850  172.2650  145.4850 C   0  0  0  0  0  2  0  0  0  0  0  0
  196.8230  173.4610  142.9780 C   0  0  1  0  0  3  0  0  0  0  0  0
  194.3790  173.1850  143.2670 C   0  0  2  0  0  3  0  0  0  0  0  0
  194.5940  175.3730  141.9570 C   0  0  0  0  0  0  0  0  0  0  0  0
  195.6360  175.0260  139.4040 S   0  0  0  0  0  0  0  0  0  0  0  0
  197.0580  173.9080  139.1750 C   0  0  1  0  0  3  0  0  0  0  0  0
  192.4030  176.4520  143.3780 C   0  0  0  0  0  0  0  0  0  0  0  0
  195.9000  171.8160  144.5390 C   0  0  0  0  0  2  0  0  0  0  0  0
  193.0360  177.1980  142.3850 C   0  0  0  0  0  3  0  0  0  0  0  0
  195.7100  173.1360  143.9180 N   0  0  1  0  0  0  0  0  0  0  0  0
  197.5220  173.3630  140.5220 C   0  0  0  0  0  2  0  0  0  0  0  0
  192.8890  175.1700  143.6780 C   0  0  0  0  0  3  0  0  0  0  0  0
  194.9660  171.6530  145.7420 C   0  0  0  0  0  2  0  0  0  0  0  0
  195.8350  174.9370  141.2070 C   0  0  2  0  0  3  0  0  0  0  0  0
  197.9380  172.6170  143.1390 O   0  0  0  0  0  1  0  0  0  0  0  0
  193.9570  174.6060  142.9680 C   0  0  0  0  0  0  0  0  0  0  0  0
  196.3900  173.5580  141.5060 C   0  0  2  0  0  3  0  0  0  0  0  0
  194.1290  176.6710  141.6980 C   0  0  0  0  0  3  0  0  0  0  0  0
  196.7280  172.8310  138.2540 N   0  0  0  0  0  0  0  0  0  0  0  0
  197.7310  172.3110  137.3360 C   0  0  0  0  0  1  0  0  0  0  0  0
  195.4330  172.2390  138.2920 C   0  0  0  0  0  0  0  0  0  0  0  0
  195.0780  171.2340  137.3400 N   0  0  0  0  0  2  0  0  0  0  0  0
  194.6000  172.6090  139.1650 O   0  0  0  0  0  0  0  0  0  0  0  0
  193.7640  170.6230  137.3040 C   0  0  0  0  0  2  0  0  0  0  0  0
  193.8640  169.2670  137.5640 O   0  0  0  0  0  0  0  0  0  0  0  0
  192.6290  168.9260  138.1170 C   0  0  0  0  0  2  0  0  0  0  0  0
  191.5980  168.8260  137.0100 C   0  0  0  0  0  1  0  0  0  0  0  0
  188.2850  174.1620  141.0050 N   0  0  0  0  0  0  0  0  0  0  0  0
  187.6320  175.7820  139.4450 O   0  0  0  0  0  0  0  0  0  0  0  0
  188.0110  174.6020  139.6660 C   0  0  0  0  0  0  0  0  0  0  0  0
  188.2690  173.5010  138.2870 S   0  0  0  0  0  0  0  0  0  0  0  0
  189.9200  174.1830  137.9510 C   0  0  0  0  0  2  0  0  0  0  0  0
  190.6140  171.9790  138.4660 F   0  0  0  0  0  0  0  0  0  0  0  0
  192.1550  173.4480  137.7300 F   0  0  0  0  0  0  0  0  0  0  0  0
  191.3180  173.6490  139.8100 F   0  0  0  0  0  0  0  0  0  0  0  0
  191.0180  173.2970  138.5080 C   0  0  0  0  0  0  0  0  0  0  0  0
  188.2110  172.7300  141.3070 C   0  0  0  0  0  2  0  0  0  0  0  0
  188.3970  172.4950  142.6820 O   0  0  0  0  0  0  0  0  0  0  0  0
  189.7000  172.0010  142.8660 C   0  0  0  0  0  0  0  0  0  0  0  0
  190.2500  171.7730  141.6250 F   0  0  0  0  0  0  0  0  0  0  0  0
  190.5000  172.9130  143.5450 F   0  0  0  0  0  0  0  0  0  0  0  0
  189.6720  170.8070  143.5510 F   0  0  0  0  0  0  0  0  0  0  0  0
  187.6610  176.5640  146.4820 O   0  0  0  0  0  1  0  0  0  0  0  0
  187.1030  177.5930  145.7130 C   0  0  2  0  0  3  0  0  0  0  0  0
  185.9760  178.3020  146.4830 C   0  0  0  0  0  3  0  0  0  0  0  0
  186.2180  178.2450  147.9870 C   0  0  0  0  0  2  0  0  0  0  0  0
  186.9470  179.3560  148.4190 O   0  0  0  0  0  1  0  0  0  0  0  0
  183.8040  178.8450  145.5990 O   0  0  0  0  0  1  0  0  0  0  0  0
  184.5770  177.8030  146.1350 C   0  0  0  0  0  2  0  0  0  0  0  0
  1 18  1  6  0  0  0
  1  8  1  0  0  0  0
  2 39  1  6  0  0  0
  2  9  1  0  0  0  0
  3  7  1  6  0  0  0
  3  5  1  0  0  0  0
  3 10  1  0  0  0  0
  3  4  1  0  0  0  0
  4 55  1  1  0  0  0
  5  4  1  0  0  0  0
  6  9  1  6  0  0  0
  6 10  1  0  0  0  0
  6  1  1  0  0  0  0
  6  8  1  0  0  0  0
  7  2  1  0  0  0  0
 11 12  1  0  0  0  0
 12 24  1  0  0  0  0
 13 26  1  6  0  0  0
 13 21  1  0  0  0  0
 14 21  1  0  0  0  0
 14 11  1  1  0  0  0
 15 27  1  0  0  0  0
 17 30  1  6  0  0  0
 17 16  1  0  0  0  0
 17 22  1  0  0  0  0
 18 23  1  0  0  0  0
 19 24  1  0  0  0  0
 20 18  2  0  0  0  0
 21 19  1  6  0  0  0
 25 16  1  6  0  0  0
 25 28  1  0  0  0  0
 25 15  1  0  0  0  0
 27 14  1  0  0  0  0
 27 23  2  0  0  0  0
 28 22  1  6  0  0  0
 28 13  1  0  0  0  0
 29 15  2  0  0  0  0
 29 20  1  0  0  0  0
 30 32  1  0  0  0  0
 31 30  1  0  0  0  0
 32 34  2  0  0  0  0
 33 32  1  0  0  0  0
 35 33  1  0  0  0  0
 35 36  1  0  0  0  0
 36 37  1  0  0  0  0
 38 37  1  0  0  0  0
 39 48  1  0  0  0  0
 40 41  2  0  0  0  0
 41 39  1  0  0  0  0
 42 41  1  0  0  0  0
 43 42  1  0  0  0  0
 43 47  1  0  0  0  0
 44 47  1  0  0  0  0
 45 47  1  0  0  0  0
 47 46  1  0  0  0  0
 48 49  1  0  0  0  0
 49 50  1  0  0  0  0
 50 52  1  0  0  0  0
 50 53  1  0  0  0  0
 51 50  1  0  0  0  0
 55 54  1  1  0  0  0
 55 56  1  0  0  0  0
 56 57  1  0  0  0  0
 57 58  1  0  0  0  0
 59 60  1  0  0  0  0
 60 56  1  0  0  0  0
M  END
>  <MODEL>
4

>  <REMARK>
 VINA RESULT:      -6.1      2.991      5.855
  Name = 
  16 active torsions:
  status: ('A' for Active; 'I' for Inactive)
    1  A    between atoms: C_4  and  N_14
    2  A    between atoms: C_4  and  O_16
    3  A    between atoms: O_8  and  C_12
    4  A    between atoms: O_8  and  C_52
    5  A    between atoms: C_9  and  C_21
    6  A    between atoms: C_10  and  C_15
    7  A    between atoms: C_13  and  N_23
    8  A    between atoms: N_14  and  C_20
    9  A    between atoms: O_16  and  C_18
   10  A    between atoms: C_21  and  C_33
   11  A    between atoms: C_21  and  C_47
   12  A    between atoms: C_25  and  C_33
   13  A    between atoms: C_39  and  S_45
   14  A    between atoms: C_39  and  C_53
   15  A    between atoms: S_45  and  C_58
   16  A    between atoms: C_52  and  N_55
                            x       y       z     vdW  Elec       q    Type
                         _______ _______ _______ _____ _____    ______ ____

>  <TORSDO>
F 16

$$$$
=
 OpenBabel11072408543D

 60 66  0  0  1  0  0  0  0  0999 V2000
  188.4970  173.8320  141.0790 C   0  0  1  0  0  3  0  0  0  0  0  0
  190.9350  175.4950  143.6460 C   0  0  2  0  0  3  0  0  0  0  0  0
  188.5600  175.8450  144.1670 C   0  0  2  0  0  0  0  0  0  0  0  0
  187.9450  177.2370  144.1610 C   0  0  2  0  0  3  0  0  0  0  0  0
  187.5310  176.2100  145.2070 C   0  0  0  0  0  2  0  0  0  0  0  0
  189.0570  174.5820  142.2910 C   0  0  2  0  0  0  0  0  0  0  0  0
  189.9450  175.6650  144.7800 C   0  0  0  0  0  2  0  0  0  0  0  0
  188.8990  175.3050  140.9690 C   0  0  0  0  0  2  0  0  0  0  0  0
  190.5030  174.3440  142.7510 C   0  0  0  0  0  2  0  0  0  0  0  0
  188.0670  174.8770  143.2590 O   0  0  0  0  0  0  0  0  0  0  0  0
  191.6570  174.0830  137.0320 C   0  0  0  0  0  2  0  0  0  0  0  0
  190.5890  174.3240  135.9710 C   0  0  0  0  0  2  0  0  0  0  0  0
  191.9260  170.2990  136.4390 C   0  0  1  0  0  3  0  0  0  0  0  0
  191.7470  172.5800  137.3890 C   0  0  2  0  0  3  0  0  0  0  0  0
  191.3660  171.0480  139.4040 C   0  0  0  0  0  0  0  0  0  0  0  0
  193.6040  169.5450  140.0780 S   0  0  0  0  0  0  0  0  0  0  0  0
  194.5720  168.7560  138.7480 C   0  0  1  0  0  3  0  0  0  0  0  0
  189.4670  172.8650  140.4410 C   0  0  0  0  0  0  0  0  0  0  0  0
  191.7280  172.2710  135.0000 C   0  0  0  0  0  2  0  0  0  0  0  0
  189.7870  171.7030  141.1410 C   0  0  0  0  0  3  0  0  0  0  0  0
  191.3510  171.6690  136.2880 N   0  0  1  0  0  0  0  0  0  0  0  0
  193.9110  169.0070  137.3970 C   0  0  0  0  0  2  0  0  0  0  0  0
  190.0830  173.1020  139.2020 C   0  0  0  0  0  3  0  0  0  0  0  0
  190.8580  173.4970  134.7090 C   0  0  0  0  0  2  0  0  0  0  0  0
  192.2880  169.9590  138.8970 C   0  0  2  0  0  3  0  0  0  0  0  0
  192.4020  169.7700  135.2250 O   0  0  0  0  0  1  0  0  0  0  0  0
  191.0460  172.2280  138.6820 C   0  0  0  0  0  0  0  0  0  0  0  0
  192.9700  170.1790  137.5610 C   0  0  2  0  0  3  0  0  0  0  0  0
  190.7110  170.7990  140.6190 C   0  0  0  0  0  3  0  0  0  0  0  0
  195.9490  169.2270  138.7600 N   0  0  0  0  0  0  0  0  0  0  0  0
  197.0450  168.3070  138.4950 C   0  0  0  0  0  1  0  0  0  0  0  0
  196.2220  170.6080  138.9720 C   0  0  0  0  0  0  0  0  0  0  0  0
  197.5740  171.0630  139.0600 N   0  0  0  0  0  2  0  0  0  0  0  0
  195.2680  171.4260  139.0870 O   0  0  0  0  0  0  0  0  0  0  0  0
  197.9160  172.4490  139.3130 C   0  0  0  0  0  2  0  0  0  0  0  0
  197.6990  172.7570  140.6450 O   0  0  0  0  0  0  0  0  0  0  0  0
  197.0340  173.9840  140.6160 C   0  0  0  0  0  2  0  0  0  0  0  0
  197.9140  175.0110  139.9310 C   0  0  0  0  0  1  0  0  0  0  0  0
  192.3090  175.3420  144.1320 N   0  0  0  0  0  0  0  0  0  0  0  0
  192.6230  177.6140  144.6010 O   0  0  0  0  0  0  0  0  0  0  0  0
  193.0420  176.4330  144.7100 C   0  0  0  0  0  0  0  0  0  0  0  0
  194.5260  176.1220  145.6490 S   0  0  0  0  0  0  0  0  0  0  0  0
  195.5060  177.2600  144.6250 C   0  0  0  0  0  2  0  0  0  0  0  0
  196.5680  175.2950  143.8400 F   0  0  0  0  0  0  0  0  0  0  0  0
  195.2040  176.4140  142.4400 F   0  0  0  0  0  0  0  0  0  0  0  0
  197.2190  177.2690  142.9640 F   0  0  0  0  0  0  0  0  0  0  0  0
  196.1450  176.5480  143.4480 C   0  0  0  0  0  0  0  0  0  0  0  0
  193.0220  174.1030  143.8110 C   0  0  0  0  0  2  0  0  0  0  0  0
  192.8720  173.1550  144.8390 O   0  0  0  0  0  0  0  0  0  0  0  0
  192.6150  171.9060  144.2460 C   0  0  0  0  0  0  0  0  0  0  0  0
  191.2650  171.6550  144.3500 F   0  0  0  0  0  0  0  0  0  0  0  0
  192.9650  171.8990  142.9010 F   0  0  0  0  0  0  0  0  0  0  0  0
  193.2920  170.9080  144.9090 F   0  0  0  0  0  0  0  0  0  0  0  0
  187.2470  178.1760  142.0720 O   0  0  0  0  0  1  0  0  0  0  0  0
  186.8160  177.3910  143.1490 C   0  0  2  0  0  3  0  0  0  0  0  0
  185.5740  178.0090  143.8140 C   0  0  0  0  0  3  0  0  0  0  0  0
  184.3630  177.9340  142.8920 C   0  0  0  0  0  2  0  0  0  0  0  0
  184.5190  178.7790  141.7910 O   0  0  0  0  0  1  0  0  0  0  0  0
  185.7640  179.4560  145.7280 O   0  0  0  0  0  1  0  0  0  0  0  0
  185.7860  179.4310  144.3240 C   0  0  0  0  0  2  0  0  0  0  0  0
  1 18  1  6  0  0  0
  1  6  1  0  0  0  0
  2 39  1  1  0  0  0
  2  7  1  0  0  0  0
  3  7  1  1  0  0  0
  3  5  1  0  0  0  0
  4 55  1  6  0  0  0
  4  3  1  0  0  0  0
  4  5  1  0  0  0  0
  6  8  1  6  0  0  0
  6  9  1  0  0  0  0
  6 10  1  0  0  0  0
  8  1  1  0  0  0  0
  9  2  1  0  0  0  0
 10  3  1  0  0  0  0
 12 11  1  0  0  0  0
 13 26  1  6  0  0  0
 13 28  1  0  0  0  0
 14 11  1  6  0  0  0
 14 27  1  0  0  0  0
 15 29  1  0  0  0  0
 17 30  1  6  0  0  0
 17 16  1  0  0  0  0
 18 20  1  0  0  0  0
 21 19  1  6  0  0  0
 21 13  1  0  0  0  0
 21 14  1  0  0  0  0
 22 17  1  0  0  0  0
 23 18  2  0  0  0  0
 24 19  1  0  0  0  0
 24 12  1  0  0  0  0
 25 15  1  1  0  0  0
 25 16  1  0  0  0  0
 27 23  1  0  0  0  0
 27 15  2  0  0  0  0
 28 22  1  6  0  0  0
 28 25  1  0  0  0  0
 29 20  2  0  0  0  0
 30 32  1  0  0  0  0
 31 30  1  0  0  0  0
 32 33  1  0  0  0  0
 32 34  2  0  0  0  0
 33 35  1  0  0  0  0
 35 36  1  0  0  0  0
 37 36  1  0  0  0  0
 38 37  1  0  0  0  0
 39 41  1  0  0  0  0
 40 41  2  0  0  0  0
 41 42  1  0  0  0  0
 43 42  1  0  0  0  0
 45 47  1  0  0  0  0
 46 47  1  0  0  0  0
 47 44  1  0  0  0  0
 47 43  1  0  0  0  0
 48 39  1  0  0  0  0
 48 49  1  0  0  0  0
 50 51  1  0  0  0  0
 50 49  1  0  0  0  0
 50 53  1  0  0  0  0
 52 50  1  0  0  0  0
 55 54  1  6  0  0  0
 55 56  1  0  0  0  0
 56 60  1  0  0  0  0
 57 56  1  0  0  0  0
 58 57  1  0  0  0  0
 60 59  1  0  0  0  0
M  END
>  <MODEL>
5

>  <REMARK>
 VINA RESULT:      -6.0      2.185      2.955
  Name = 
  16 active torsions:
  status: ('A' for Active; 'I' for Inactive)
    1  A    between atoms: C_4  and  N_14
    2  A    between atoms: C_4  and  O_16
    3  A    between atoms: O_8  and  C_12
    4  A    between atoms: O_8  and  C_52
    5  A    between atoms: C_9  and  C_21
    6  A    between atoms: C_10  and  C_15
    7  A    between atoms: C_13  and  N_23
    8  A    between atoms: N_14  and  C_20
    9  A    between atoms: O_16  and  C_18
   10  A    between atoms: C_21  and  C_33
   11  A    between atoms: C_21  and  C_47
   12  A    between atoms: C_25  and  C_33
   13  A    between atoms: C_39  and  S_45
   14  A    between atoms: C_39  and  C_53
   15  A    between atoms: S_45  and  C_58
   16  A    between atoms: C_52  and  N_55
                            x       y       z     vdW  Elec       q    Type
                         _______ _______ _______ _____ _____    ______ ____

>  <TORSDO>
F 16

$$$$
=
 OpenBabel11072408543D

 60 66  0  0  1  0  0  0  0  0999 V2000
  191.1110  176.6050  145.0980 C   0  0  1  0  0  3  0  0  0  0  0  0
  188.5350  175.4830  142.3780 C   0  0  2  0  0  3  0  0  0  0  0  0
  187.7340  177.3170  143.8030 C   0  0  2  0  0  0  0  0  0  0  0  0
  186.5320  177.1410  144.7190 C   0  0  2  0  0  3  0  0  0  0  0  0
  186.7570  178.4530  143.9780 C   0  0  0  0  0  2  0  0  0  0  0  0
  189.8680  176.5160  144.2080 C   0  0  2  0  0  0  0  0  0  0  0  0
  187.6700  176.7270  142.3970 C   0  0  0  0  0  2  0  0  0  0  0  0
  189.9950  175.6040  145.4110 C   0  0  0  0  0  2  0  0  0  0  0  0
  189.9430  175.8260  142.8380 C   0  0  0  0  0  2  0  0  0  0  0  0
  188.9930  177.6160  144.3760 O   0  0  0  0  0  0  0  0  0  0  0  0
  192.1930  172.0420  142.9920 C   0  0  0  0  0  2  0  0  0  0  0  0
  191.8910  171.1900  144.2190 C   0  0  0  0  0  2  0  0  0  0  0  0
  195.9890  172.1780  143.5560 C   0  0  1  0  0  3  0  0  0  0  0  0
  193.6050  172.6680  143.0920 C   0  0  2  0  0  3  0  0  0  0  0  0
  194.6830  174.9830  143.2550 C   0  0  0  0  0  0  0  0  0  0  0  0
  196.5190  175.4840  141.2290 S   0  0  0  0  0  0  0  0  0  0  0  0
  197.6980  174.1740  140.7610 C   0  0  1  0  0  3  0  0  0  0  0  0
  192.3550  175.9930  144.4960 C   0  0  0  0  0  0  0  0  0  0  0  0
  194.2700  170.4410  143.7310 C   0  0  0  0  0  2  0  0  0  0  0  0
  193.4350  176.8340  144.2350 C   0  0  0  0  0  3  0  0  0  0  0  0
  194.5660  171.8730  143.8950 N   0  0  1  0  0  0  0  0  0  0  0  0
  197.5210  172.9590  141.6670 C   0  0  0  0  0  2  0  0  0  0  0  0
  192.4540  174.6340  144.1590 C   0  0  0  0  0  3  0  0  0  0  0  0
  192.9430  170.0910  144.4100 C   0  0  0  0  0  2  0  0  0  0  0  0
  196.0140  174.5320  142.6900 C   0  0  2  0  0  3  0  0  0  0  0  0
  196.7920  171.0240  143.4840 O   0  0  0  0  0  1  0  0  0  0  0  0
  193.5890  174.1190  143.5190 C   0  0  0  0  0  0  0  0  0  0  0  0
  196.1590  173.0700  142.3150 C   0  0  2  0  0  3  0  0  0  0  0  0
  194.5900  176.3300  143.6380 C   0  0  0  0  0  3  0  0  0  0  0  0
  197.5450  173.8160  139.3590 N   0  0  0  0  0  0  0  0  0  0  0  0
  197.1580  172.4650  138.9810 C   0  0  0  0  0  1  0  0  0  0  0  0
  197.7170  174.8090  138.3530 C   0  0  0  0  0  0  0  0  0  0  0  0
  197.6430  174.4470  136.9720 N   0  0  0  0  0  2  0  0  0  0  0  0
  197.9380  176.0060  138.6840 O   0  0  0  0  0  0  0  0  0  0  0  0
  197.8460  175.4040  135.9030 C   0  0  0  0  0  2  0  0  0  0  0  0
  196.9040  176.4150  135.9840 O   0  0  0  0  0  0  0  0  0  0  0  0
  196.1630  176.2960  134.8070 C   0  0  0  0  0  2  0  0  0  0  0  0
  195.4620  177.6110  134.5250 C   0  0  0  0  0  1  0  0  0  0  0  0
  188.5170  174.8210  141.0710 N   0  0  0  0  0  0  0  0  0  0  0  0
  189.5400  172.8510  141.8160 O   0  0  0  0  0  0  0  0  0  0  0  0
  188.9260  173.4550  140.8980 C   0  0  0  0  0  0  0  0  0  0  0  0
  188.5100  172.5740  139.4050 S   0  0  0  0  0  0  0  0  0  0  0  0
  189.8390  171.3590  139.6600 C   0  0  0  0  0  2  0  0  0  0  0  0
  192.2020  171.4430  139.5510 F   0  0  0  0  0  0  0  0  0  0  0  0
  191.0590  170.8530  137.7020 F   0  0  0  0  0  0  0  0  0  0  0  0
  191.0370  172.9930  138.3990 F   0  0  0  0  0  0  0  0  0  0  0  0
  191.0590  171.6760  138.8160 C   0  0  0  0  0  0  0  0  0  0  0  0
  188.2930  175.6470  139.8810 C   0  0  0  0  0  2  0  0  0  0  0  0
  186.9390  175.6250  139.5010 O   0  0  0  0  0  0  0  0  0  0  0  0
  186.6360  176.8590  138.8980 C   0  0  0  0  0  0  0  0  0  0  0  0
  186.9610  176.7710  137.5630 F   0  0  0  0  0  0  0  0  0  0  0  0
  185.2850  177.1610  139.0070 F   0  0  0  0  0  0  0  0  0  0  0  0
  187.3860  177.8680  139.4580 F   0  0  0  0  0  0  0  0  0  0  0  0
  186.9010  176.1090  146.8470 O   0  0  0  0  0  1  0  0  0  0  0  0
  186.8640  177.3450  146.1920 C   0  0  2  0  0  3  0  0  0  0  0  0
  185.8410  178.2850  146.8520 C   0  0  0  0  0  3  0  0  0  0  0  0
  186.1280  178.4510  148.3400 C   0  0  0  0  0  2  0  0  0  0  0  0
  187.3880  179.0170  148.5460 O   0  0  0  0  0  1  0  0  0  0  0  0
  183.6870  178.9240  145.9880 O   0  0  0  0  0  1  0  0  0  0  0  0
  184.3880  177.8830  146.6170 C   0  0  0  0  0  2  0  0  0  0  0  0
  1 18  1  6  0  0  0
  1  8  1  0  0  0  0
  2 39  1  6  0  0  0
  2  7  1  0  0  0  0
  2  9  1  0  0  0  0
  3  7  1  6  0  0  0
  3  5  1  0  0  0  0
  3 10  1  0  0  0  0
  3  4  1  0  0  0  0
  4 55  1  1  0  0  0
  5  4  1  0  0  0  0
  6  9  1  6  0  0  0
  6 10  1  0  0  0  0
  6  1  1  0  0  0  0
  6  8  1  0  0  0  0
 11 12  1  0  0  0  0
 12 24  1  0  0  0  0
 13 26  1  6  0  0  0
 13 21  1  0  0  0  0
 14 11  1  1  0  0  0
 14 27  1  0  0  0  0
 14 21  1  0  0  0  0
 15 27  2  0  0  0  0
 15 29  1  0  0  0  0
 17 30  1  6  0  0  0
 17 16  1  0  0  0  0
 17 22  1  0  0  0  0
 19 24  1  0  0  0  0
 20 18  1  0  0  0  0
 21 19  1  6  0  0  0
 23 18  2  0  0  0  0
 25 16  1  6  0  0  0
 25 15  1  0  0  0  0
 27 23  1  0  0  0  0
 28 22  1  1  0  0  0
 28 25  1  0  0  0  0
 28 13  1  0  0  0  0
 29 20  2  0  0  0  0
 31 30  1  0  0  0  0
 32 34  2  0  0  0  0
 32 30  1  0  0  0  0
 33 32  1  0  0  0  0
 35 36  1  0  0  0  0
 35 33  1  0  0  0  0
 37 36  1  0  0  0  0
 38 37  1  0  0  0  0
 41 39  1  0  0  0  0
 41 40  2  0  0  0  0
 42 43  1  0  0  0  0
 42 41  1  0  0  0  0
 45 47  1  0  0  0  0
 46 47  1  0  0  0  0
 47 44  1  0  0  0  0
 47 43  1  0  0  0  0
 48 39  1  0  0  0  0
 49 48  1  0  0  0  0
 50 52  1  0  0  0  0
 50 53  1  0  0  0  0
 50 49  1  0  0  0  0
 51 50  1  0  0  0  0
 55 54  1  1  0  0  0
 55 56  1  0  0  0  0
 56 57  1  0  0  0  0
 57 58  1  0  0  0  0
 59 60  1  0  0  0  0
 60 56  1  0  0  0  0
M  END
>  <MODEL>
6

>  <REMARK>
 VINA RESULT:      -5.9      3.911      6.355
  Name = 
  16 active torsions:
  status: ('A' for Active; 'I' for Inactive)
    1  A    between atoms: C_4  and  N_14
    2  A    between atoms: C_4  and  O_16
    3  A    between atoms: O_8  and  C_12
    4  A    between atoms: O_8  and  C_52
    5  A    between atoms: C_9  and  C_21
    6  A    between atoms: C_10  and  C_15
    7  A    between atoms: C_13  and  N_23
    8  A    between atoms: N_14  and  C_20
    9  A    between atoms: O_16  and  C_18
   10  A    between atoms: C_21  and  C_33
   11  A    between atoms: C_21  and  C_47
   12  A    between atoms: C_25  and  C_33
   13  A    between atoms: C_39  and  S_45
   14  A    between atoms: C_39  and  C_53
   15  A    between atoms: S_45  and  C_58
   16  A    between atoms: C_52  and  N_55
                            x       y       z     vdW  Elec       q    Type
                         _______ _______ _______ _____ _____    ______ ____

>  <TORSDO>
F 16

$$$$
=
 OpenBabel11072408543D

 60 66  0  0  1  0  0  0  0  0999 V2000
  191.3730  176.4490  144.5330 C   0  0  1  0  0  3  0  0  0  0  0  0
  188.4540  175.3280  142.1830 C   0  0  2  0  0  3  0  0  0  0  0  0
  187.8240  177.0930  143.7710 C   0  0  2  0  0  0  0  0  0  0  0  0
  186.7760  176.8520  144.8470 C   0  0  2  0  0  3  0  0  0  0  0  0
  186.8530  178.1920  144.1270 C   0  0  0  0  0  2  0  0  0  0  0  0
  190.0150  176.3480  143.8310 C   0  0  2  0  0  0  0  0  0  0  0  0
  187.5690  176.5430  142.3710 C   0  0  0  0  0  2  0  0  0  0  0  0
  190.3420  175.4050  144.9710 C   0  0  0  0  0  2  0  0  0  0  0  0
  189.9050  175.7010  142.4430 C   0  0  0  0  0  2  0  0  0  0  0  0
  189.1460  177.4140  144.1640 O   0  0  0  0  0  0  0  0  0  0  0  0
  192.8730  171.7090  143.2250 C   0  0  0  0  0  2  0  0  0  0  0  0
  193.0820  171.1790  144.6390 C   0  0  0  0  0  2  0  0  0  0  0  0
  196.5630  172.5650  142.5960 C   0  0  1  0  0  3  0  0  0  0  0  0
  194.0910  172.5460  142.7660 C   0  0  2  0  0  3  0  0  0  0  0  0
  194.6380  174.9570  142.1040 C   0  0  0  0  0  0  0  0  0  0  0  0
  195.7530  175.1720  139.5670 S   0  0  0  0  0  0  0  0  0  0  0  0
  197.0360  173.9790  139.0620 C   0  0  1  0  0  3  0  0  0  0  0  0
  192.5300  175.8950  143.7340 C   0  0  0  0  0  0  0  0  0  0  0  0
  195.3680  170.6980  143.6390 C   0  0  0  0  0  2  0  0  0  0  0  0
  193.2980  176.7890  142.9910 C   0  0  0  0  0  3  0  0  0  0  0  0
  195.3720  172.1490  143.3980 N   0  0  1  0  0  0  0  0  0  0  0  0
  197.3630  173.0370  140.2160 C   0  0  0  0  0  2  0  0  0  0  0  0
  192.8390  174.5270  143.6810 C   0  0  0  0  0  3  0  0  0  0  0  0
  194.3640  170.3430  144.7390 C   0  0  0  0  0  2  0  0  0  0  0  0
  195.8520  174.5780  141.2800 C   0  0  2  0  0  3  0  0  0  0  0  0
  197.5560  171.5690  142.5370 O   0  0  0  0  0  1  0  0  0  0  0  0
  193.8630  174.0380  142.8590 C   0  0  0  0  0  0  0  0  0  0  0  0
  196.2170  173.1090  141.2000 C   0  0  2  0  0  3  0  0  0  0  0  0
  194.3500  176.3260  142.2010 C   0  0  0  0  0  3  0  0  0  0  0  0
  196.6210  173.2410  137.8780 N   0  0  0  0  0  0  0  0  0  0  0  0
  197.6090  172.5880  137.0320 C   0  0  0  0  0  1  0  0  0  0  0  0
  195.2350  173.1050  137.5790 C   0  0  0  0  0  0  0  0  0  0  0  0
  194.8250  172.4480  136.3790 N   0  0  0  0  0  2  0  0  0  0  0  0
  194.3730  173.5710  138.3740 O   0  0  0  0  0  0  0  0  0  0  0  0
  193.4320  172.3120  136.0010 C   0  0  0  0  0  2  0  0  0  0  0  0
  192.6420  172.1970  137.1320 O   0  0  0  0  0  0  0  0  0  0  0  0
  191.8200  171.1000  136.8730 C   0  0  0  0  0  2  0  0  0  0  0  0
  192.3660  169.8860  137.5990 C   0  0  0  0  0  1  0  0  0  0  0  0
  188.2620  174.7060  140.8710 N   0  0  0  0  0  0  0  0  0  0  0  0
  187.1460  176.5360  139.9280 O   0  0  0  0  0  0  0  0  0  0  0  0
  187.7080  175.4230  139.7570 C   0  0  0  0  0  0  0  0  0  0  0  0
  187.8680  174.7770  138.1020 S   0  0  0  0  0  0  0  0  0  0  0  0
  186.7420  176.0320  137.4210 C   0  0  0  0  0  2  0  0  0  0  0  0
  187.4710  177.5990  135.8030 F   0  0  0  0  0  0  0  0  0  0  0  0
  188.0090  175.4300  135.5190 F   0  0  0  0  0  0  0  0  0  0  0  0
  185.8890  176.1120  135.1940 F   0  0  0  0  0  0  0  0  0  0  0  0
  187.0250  176.3030  135.9550 C   0  0  0  0  0  0  0  0  0  0  0  0
  188.4290  173.2540  140.7630 C   0  0  0  0  0  2  0  0  0  0  0  0
  189.6470  172.8440  141.3360 O   0  0  0  0  0  0  0  0  0  0  0  0
  190.3140  172.0290  140.4030 C   0  0  0  0  0  0  0  0  0  0  0  0
  190.4020  170.7610  140.9310 F   0  0  0  0  0  0  0  0  0  0  0  0
  189.6230  171.9620  139.2000 F   0  0  0  0  0  0  0  0  0  0  0  0
  191.5900  172.4940  140.1820 F   0  0  0  0  0  0  0  0  0  0  0  0
  187.9060  175.8280  146.6930 O   0  0  0  0  0  1  0  0  0  0  0  0
  187.3160  177.0220  146.2620 C   0  0  2  0  0  3  0  0  0  0  0  0
  186.1940  177.4560  147.2210 C   0  0  0  0  0  3  0  0  0  0  0  0
  184.8200  177.1670  146.6270 C   0  0  0  0  0  2  0  0  0  0  0  0
  184.0690  178.3390  146.5110 O   0  0  0  0  0  1  0  0  0  0  0  0
  187.3090  179.0470  148.6430 O   0  0  0  0  0  1  0  0  0  0  0  0
  186.2970  178.9070  147.6800 C   0  0  0  0  0  2  0  0  0  0  0  0
  1 18  1  6  0  0  0
  1  8  1  0  0  0  0
  2 39  1  6  0  0  0
  2  7  1  0  0  0  0
  2  9  1  0  0  0  0
  3  7  1  6  0  0  0
  3  5  1  0  0  0  0
  3 10  1  0  0  0  0
  3  4  1  0  0  0  0
  4 55  1  1  0  0  0
  5  4  1  0  0  0  0
  6  9  1  6  0  0  0
  6 10  1  0  0  0  0
  6  1  1  0  0  0  0
  6  8  1  0  0  0  0
 11 12  1  0  0  0  0
 12 24  1  0  0  0  0
 13 26  1  6  0  0  0
 13 21  1  0  0  0  0
 14 27  1  0  0  0  0
 14 11  1  1  0  0  0
 14 21  1  0  0  0  0
 15 29  2  0  0  0  0
 15 27  1  0  0  0  0
 17 30  1  6  0  0  0
 17 16  1  0  0  0  0
 17 22  1  0  0  0  0
 19 24  1  0  0  0  0
 20 18  2  0  0  0  0
 21 19  1  6  0  0  0
 23 18  1  0  0  0  0
 25 16  1  6  0  0  0
 25 15  1  0  0  0  0
 27 23  2  0  0  0  0
 28 22  1  6  0  0  0
 28 25  1  0  0  0  0
 28 13  1  0  0  0  0
 29 20  1  0  0  0  0
 31 30  1  0  0  0  0
 32 30  1  0  0  0  0
 32 34  2  0  0  0  0
 33 32  1  0  0  0  0
 35 33  1  0  0  0  0
 35 36  1  0  0  0  0
 37 36  1  0  0  0  0
 37 38  1  0  0  0  0
 41 40  2  0  0  0  0
 41 39  1  0  0  0  0
 42 41  1  0  0  0  0
 43 42  1  0  0  0  0
 44 47  1  0  0  0  0
 45 47  1  0  0  0  0
 46 47  1  0  0  0  0
 47 43  1  0  0  0  0
 48 39  1  0  0  0  0
 48 49  1  0  0  0  0
 50 51  1  0  0  0  0
 50 49  1  0  0  0  0
 52 50  1  0  0  0  0
 53 50  1  0  0  0  0
 55 54  1  1  0  0  0
 55 56  1  0  0  0  0
 56 60  1  0  0  0  0
 57 56  1  0  0  0  0
 58 57  1  0  0  0  0
 60 59  1  0  0  0  0
M  END
>  <MODEL>
7

>  <REMARK>
 VINA RESULT:      -5.8      3.793      6.390
  Name = 
  16 active torsions:
  status: ('A' for Active; 'I' for Inactive)
    1  A    between atoms: C_4  and  N_14
    2  A    between atoms: C_4  and  O_16
    3  A    between atoms: O_8  and  C_12
    4  A    between atoms: O_8  and  C_52
    5  A    between atoms: C_9  and  C_21
    6  A    between atoms: C_10  and  C_15
    7  A    between atoms: C_13  and  N_23
    8  A    between atoms: N_14  and  C_20
    9  A    between atoms: O_16  and  C_18
   10  A    between atoms: C_21  and  C_33
   11  A    between atoms: C_21  and  C_47
   12  A    between atoms: C_25  and  C_33
   13  A    between atoms: C_39  and  S_45
   14  A    between atoms: C_39  and  C_53
   15  A    between atoms: S_45  and  C_58
   16  A    between atoms: C_52  and  N_55
                            x       y       z     vdW  Elec       q    Type
                         _______ _______ _______ _____ _____    ______ ____

>  <TORSDO>
F 16

$$$$
=
 OpenBabel11072408543D

 60 66  0  0  1  0  0  0  0  0999 V2000
  191.9000  172.8520  144.6080 C   0  0  1  0  0  3  0  0  0  0  0  0
  194.8330  173.2770  142.0560 C   0  0  2  0  0  3  0  0  0  0  0  0
  194.8850  171.1460  143.2780 C   0  0  2  0  0  0  0  0  0  0  0  0
  196.0290  170.8030  144.2210 C   0  0  2  0  0  3  0  0  0  0  0  0
  195.4040  169.7310  143.3380 C   0  0  0  0  0  2  0  0  0  0  0  0
  193.1390  172.5930  143.7460 C   0  0  2  0  0  0  0  0  0  0  0  0
  195.2160  171.8150  141.9470 C   0  0  0  0  0  2  0  0  0  0  0  0
  193.2750  173.3670  145.0410 C   0  0  0  0  0  2  0  0  0  0  0  0
  193.3730  173.3990  142.4610 C   0  0  0  0  0  2  0  0  0  0  0  0
  193.5740  171.2470  143.8020 O   0  0  0  0  0  0  0  0  0  0  0  0
  187.9400  172.8070  141.3310 C   0  0  0  0  0  2  0  0  0  0  0  0
  188.7040  172.2940  140.1160 C   0  0  0  0  0  2  0  0  0  0  0  0
  188.1290  176.5150  140.3510 C   0  0  1  0  0  3  0  0  0  0  0  0
  188.1590  174.3280  141.5140 C   0  0  2  0  0  3  0  0  0  0  0  0
  189.1950  175.9380  143.2140 C   0  0  0  0  0  0  0  0  0  0  0  0
  187.4100  177.8610  144.1320 S   0  0  0  0  0  0  0  0  0  0  0  0
  186.3100  178.6880  142.9360 C   0  0  1  0  0  3  0  0  0  0  0  0
  190.9730  173.9140  144.0640 C   0  0  0  0  0  0  0  0  0  0  0  0
  187.7090  174.4220  139.1490 C   0  0  0  0  0  2  0  0  0  0  0  0
  190.9930  175.1700  144.6690 C   0  0  0  0  0  3  0  0  0  0  0  0
  188.4420  175.0580  140.2550 N   0  0  1  0  0  0  0  0  0  0  0  0
  186.6170  178.2110  141.5210 C   0  0  0  0  0  2  0  0  0  0  0  0
  190.0760  173.6820  143.0090 C   0  0  0  0  0  3  0  0  0  0  0  0
  188.2980  173.0430  138.8410 C   0  0  0  0  0  2  0  0  0  0  0  0
  188.3610  177.1240  142.7720 C   0  0  2  0  0  3  0  0  0  0  0  0
  187.4880  177.0120  139.2000 O   0  0  0  0  0  1  0  0  0  0  0  0
  189.1680  174.6630  142.5900 C   0  0  0  0  0  0  0  0  0  0  0  0
  187.3820  176.9110  141.6350 C   0  0  2  0  0  3  0  0  0  0  0  0
  190.1270  176.1730  144.2350 C   0  0  0  0  0  3  0  0  0  0  0  0
  184.9130  178.4670  143.2780 N   0  0  0  0  0  0  0  0  0  0  0  0
  184.5210  178.2230  144.6580 C   0  0  0  0  0  1  0  0  0  0  0  0
  183.9150  178.5510  142.2650 C   0  0  0  0  0  0  0  0  0  0  0  0
  182.5520  178.2600  142.5800 N   0  0  0  0  0  2  0  0  0  0  0  0
  184.2400  178.8780  141.0900 O   0  0  0  0  0  0  0  0  0  0  0  0
  181.4980  178.2910  141.5850 C   0  0  0  0  0  2  0  0  0  0  0  0
  180.6450  179.3540  141.8290 O   0  0  0  0  0  0  0  0  0  0  0  0
  179.5110  178.7700  142.3940 C   0  0  0  0  0  2  0  0  0  0  0  0
  178.2720  179.4360  141.8280 C   0  0  0  0  0  1  0  0  0  0  0  0
  195.1400  174.0190  140.8300 N   0  0  0  0  0  0  0  0  0  0  0  0
  193.8020  172.6930  139.4390 O   0  0  0  0  0  0  0  0  0  0  0  0
  194.4850  173.7400  139.5830 C   0  0  0  0  0  0  0  0  0  0  0  0
  194.5780  174.9070  138.2380 S   0  0  0  0  0  0  0  0  0  0  0  0
  193.5780  173.8500  137.1490 C   0  0  0  0  0  2  0  0  0  0  0  0
  191.8400  174.0380  135.5520 F   0  0  0  0  0  0  0  0  0  0  0  0
  191.3160  174.1990  137.7370 F   0  0  0  0  0  0  0  0  0  0  0  0
  192.4070  175.8840  136.7170 F   0  0  0  0  0  0  0  0  0  0  0  0
  192.2650  174.5110  136.7760 C   0  0  0  0  0  0  0  0  0  0  0  0
  196.3040  174.9080  140.8340 C   0  0  0  0  0  2  0  0  0  0  0  0
  196.7330  175.1700  142.1470 O   0  0  0  0  0  0  0  0  0  0  0  0
  196.2670  176.4460  142.5110 C   0  0  0  0  0  0  0  0  0  0  0  0
  195.9350  177.1230  141.3600 F   0  0  0  0  0  0  0  0  0  0  0  0
  195.1390  176.3640  143.3190 F   0  0  0  0  0  0  0  0  0  0  0  0
  197.2530  177.1540  143.1600 F   0  0  0  0  0  0  0  0  0  0  0  0
  196.1910  171.5140  146.5020 O   0  0  0  0  0  1  0  0  0  0  0  0
  195.5760  170.5810  145.6590 C   0  0  2  0  0  3  0  0  0  0  0  0
  195.8920  169.1440  146.1110 C   0  0  0  0  0  3  0  0  0  0  0  0
  194.7560  168.5680  146.9470 C   0  0  0  0  0  2  0  0  0  0  0  0
  193.6910  168.1690  146.1360 O   0  0  0  0  0  1  0  0  0  0  0  0
  197.0500  168.3790  148.0780 O   0  0  0  0  0  1  0  0  0  0  0  0
  197.2290  169.0010  146.8310 C   0  0  0  0  0  2  0  0  0  0  0  0
  1 18  1  6  0  0  0
  1  8  1  0  0  0  0
  2 39  1  6  0  0  0
  2  9  1  0  0  0  0
  3  7  1  6  0  0  0
  3  5  1  0  0  0  0
  3 10  1  0  0  0  0
  3  4  1  0  0  0  0
  4 55  1  1  0  0  0
  5  4  1  0  0  0  0
  6  9  1  6  0  0  0
  6 10  1  0  0  0  0
  6  1  1  0  0  0  0
  6  8  1  0  0  0  0
  7  2  1  0  0  0  0
 12 11  1  0  0  0  0
 13 26  1  6  0  0  0
 13 28  1  0  0  0  0
 14 11  1  6  0  0  0
 14 27  1  0  0  0  0
 15 29  1  0  0  0  0
 17 30  1  1  0  0  0
 17 16  1  0  0  0  0
 18 20  1  0  0  0  0
 21 19  1  6  0  0  0
 21 13  1  0  0  0  0
 21 14  1  0  0  0  0
 22 17  1  0  0  0  0
 23 18  2  0  0  0  0
 24 19  1  0  0  0  0
 24 12  1  0  0  0  0
 25 15  1  1  0  0  0
 25 16  1  0  0  0  0
 27 23  1  0  0  0  0
 27 15  2  0  0  0  0
 28 22  1  6  0  0  0
 28 25  1  0  0  0  0
 29 20  2  0  0  0  0
 30 31  1  0  0  0  0
 32 33  1  0  0  0  0
 32 30  1  0  0  0  0
 34 32  2  0  0  0  0
 35 36  1  0  0  0  0
 35 33  1  0  0  0  0
 36 37  1  0  0  0  0
 38 37  1  0  0  0  0
 39 48  1  0  0  0  0
 40 41  2  0  0  0  0
 41 39  1  0  0  0  0
 42 41  1  0  0  0  0
 43 42  1  0  0  0  0
 44 47  1  0  0  0  0
 46 47  1  0  0  0  0
 47 43  1  0  0  0  0
 47 45  1  0  0  0  0
 48 49  1  0  0  0  0
 49 50  1  0  0  0  0
 50 53  1  0  0  0  0
 50 52  1  0  0  0  0
 51 50  1  0  0  0  0
 55 56  1  0  0  0  0
 55 54  1  1  0  0  0
 56 60  1  0  0  0  0
 56 57  1  0  0  0  0
 58 57  1  0  0  0  0
 60 59  1  0  0  0  0
M  END
>  <MODEL>
8

>  <REMARK>
 VINA RESULT:      -5.7      4.275     10.141
  Name = 
  16 active torsions:
  status: ('A' for Active; 'I' for Inactive)
    1  A    between atoms: C_4  and  N_14
    2  A    between atoms: C_4  and  O_16
    3  A    between atoms: O_8  and  C_12
    4  A    between atoms: O_8  and  C_52
    5  A    between atoms: C_9  and  C_21
    6  A    between atoms: C_10  and  C_15
    7  A    between atoms: C_13  and  N_23
    8  A    between atoms: N_14  and  C_20
    9  A    between atoms: O_16  and  C_18
   10  A    between atoms: C_21  and  C_33
   11  A    between atoms: C_21  and  C_47
   12  A    between atoms: C_25  and  C_33
   13  A    between atoms: C_39  and  S_45
   14  A    between atoms: C_39  and  C_53
   15  A    between atoms: S_45  and  C_58
   16  A    between atoms: C_52  and  N_55
                            x       y       z     vdW  Elec       q    Type
                         _______ _______ _______ _____ _____    ______ ____

>  <TORSDO>
F 16

$$$$
=
 OpenBabel11072408543D

 60 66  0  0  1  0  0  0  0  0999 V2000
  187.9890  173.5370  141.3110 C   0  0  1  0  0  3  0  0  0  0  0  0
  190.0180  175.8810  143.6950 C   0  0  2  0  0  3  0  0  0  0  0  0
  187.5820  176.1320  143.8980 C   0  0  2  0  0  0  0  0  0  0  0  0
  186.8880  177.4370  143.5410 C   0  0  2  0  0  3  0  0  0  0  0  0
  186.4220  176.6130  144.7340 C   0  0  0  0  0  2  0  0  0  0  0  0
  188.3630  174.5610  142.3870 C   0  0  2  0  0  0  0  0  0  0  0  0
  188.8990  176.1940  144.6670 C   0  0  0  0  0  2  0  0  0  0  0  0
  188.3100  174.9860  140.9340 C   0  0  0  0  0  2  0  0  0  0  0  0
  189.7600  174.5420  143.0240 C   0  0  0  0  0  2  0  0  0  0  0  0
  187.2550  174.9620  143.1710 O   0  0  0  0  0  0  0  0  0  0  0  0
  190.9540  172.6960  137.1970 C   0  0  0  0  0  2  0  0  0  0  0  0
  189.8320  172.3760  136.2150 C   0  0  0  0  0  2  0  0  0  0  0  0
  191.8020  169.0380  137.9970 C   0  0  1  0  0  3  0  0  0  0  0  0
  191.2910  171.4610  138.0660 C   0  0  2  0  0  3  0  0  0  0  0  0
  191.2150  170.7510  140.5240 C   0  0  0  0  0  0  0  0  0  0  0  0
  193.6810  169.9270  141.5050 S   0  0  0  0  0  0  0  0  0  0  0  0
  194.7240  168.8410  140.4760 C   0  0  1  0  0  3  0  0  0  0  0  0
  189.0820  172.5450  140.9870 C   0  0  0  0  0  0  0  0  0  0  0  0
  191.2540  170.2860  135.9620 C   0  0  0  0  0  2  0  0  0  0  0  0
  189.6010  171.7820  142.0320 C   0  0  0  0  0  3  0  0  0  0  0  0
  191.0130  170.1610  137.4080 N   0  0  1  0  0  0  0  0  0  0  0  0
  193.9940  168.4790  139.1860 C   0  0  0  0  0  2  0  0  0  0  0  0
  189.6170  172.3860  139.6990 C   0  0  0  0  0  3  0  0  0  0  0  0
  190.1930  171.1850  135.3210 C   0  0  0  0  0  2  0  0  0  0  0  0
  192.2830  169.6890  140.3710 C   0  0  2  0  0  3  0  0  0  0  0  0
  192.3220  168.1660  137.0220 O   0  0  0  0  0  1  0  0  0  0  0  0
  190.6910  171.5220  139.4530 C   0  0  0  0  0  0  0  0  0  0  0  0
  192.8830  169.4880  138.9930 C   0  0  2  0  0  3  0  0  0  0  0  0
  190.6420  170.8840  141.7970 C   0  0  0  0  0  3  0  0  0  0  0  0
  196.0080  169.4660  140.1990 N   0  0  0  0  0  0  0  0  0  0  0  0
  197.2120  168.6570  140.0850 C   0  0  0  0  0  1  0  0  0  0  0  0
  196.0780  170.8710  139.9770 C   0  0  0  0  0  0  0  0  0  0  0  0
  197.3460  171.5010  139.7800 N   0  0  0  0  0  2  0  0  0  0  0  0
  195.0190  171.5570  139.9600 O   0  0  0  0  0  0  0  0  0  0  0  0
  197.4850  172.9320  139.5880 C   0  0  0  0  0  2  0  0  0  0  0  0
  197.0730  173.6060  140.7250 O   0  0  0  0  0  0  0  0  0  0  0  0
  197.3100  174.9510  140.4380 C   0  0  0  0  0  2  0  0  0  0  0  0
  196.1000  175.7680  140.8460 C   0  0  0  0  0  1  0  0  0  0  0  0
  191.3350  175.9440  144.3340 N   0  0  0  0  0  0  0  0  0  0  0  0
  192.5450  175.9130  142.3300 O   0  0  0  0  0  0  0  0  0  0  0  0
  192.5470  176.0820  143.5770 C   0  0  0  0  0  0  0  0  0  0  0  0
  194.0630  176.5620  144.3860 S   0  0  0  0  0  0  0  0  0  0  0  0
  194.7390  174.8770  144.2870 C   0  0  0  0  0  2  0  0  0  0  0  0
  196.2450  173.8340  145.7880 F   0  0  0  0  0  0  0  0  0  0  0  0
  194.6980  175.2440  146.6210 F   0  0  0  0  0  0  0  0  0  0  0  0
  194.0770  173.2160  145.8670 F   0  0  0  0  0  0  0  0  0  0  0  0
  194.9430  174.2730  145.6640 C   0  0  0  0  0  0  0  0  0  0  0  0
  191.4260  175.6300  145.7620 C   0  0  0  0  0  2  0  0  0  0  0  0
  191.3040  176.7940  146.5430 O   0  0  0  0  0  0  0  0  0  0  0  0
  192.0690  176.6180  147.7090 C   0  0  0  0  0  0  0  0  0  0  0  0
  192.1010  175.2720  148.0000 F   0  0  0  0  0  0  0  0  0  0  0  0
  193.3730  177.0650  147.5360 F   0  0  0  0  0  0  0  0  0  0  0  0
  191.4890  177.2750  148.7710 F   0  0  0  0  0  0  0  0  0  0  0  0
  186.3640  177.8910  141.2490 O   0  0  0  0  0  1  0  0  0  0  0  0
  185.8730  177.2900  142.4140 C   0  0  2  0  0  3  0  0  0  0  0  0
  184.5220  177.9040  142.8190 C   0  0  0  0  0  3  0  0  0  0  0  0
  183.5680  177.9650  141.6320 C   0  0  0  0  0  2  0  0  0  0  0  0
  183.9790  178.9290  140.7090 O   0  0  0  0  0  1  0  0  0  0  0  0
  184.0390  179.2320  144.7680 O   0  0  0  0  0  1  0  0  0  0  0  0
  184.6380  179.2650  143.4980 C   0  0  0  0  0  2  0  0  0  0  0  0
  1 18  1  6  0  0  0
  1  6  1  0  0  0  0
  2 39  1  1  0  0  0
  2  7  1  0  0  0  0
  3  7  1  1  0  0  0
  3  5  1  0  0  0  0
  4 55  1  6  0  0  0
  4  3  1  0  0  0  0
  4  5  1  0  0  0  0
  6  8  1  6  0  0  0
  6  9  1  0  0  0  0
  6 10  1  0  0  0  0
  8  1  1  0  0  0  0
  9  2  1  0  0  0  0
 10  3  1  0  0  0  0
 12 11  1  0  0  0  0
 13 26  1  6  0  0  0
 13 28  1  0  0  0  0
 14 11  1  6  0  0  0
 14 27  1  0  0  0  0
 15 29  1  0  0  0  0
 17 30  1  6  0  0  0
 17 16  1  0  0  0  0
 18 20  1  0  0  0  0
 21 19  1  6  0  0  0
 21 13  1  0  0  0  0
 21 14  1  0  0  0  0
 22 17  1  0  0  0  0
 23 18  2  0  0  0  0
 24 19  1  0  0  0  0
 24 12  1  0  0  0  0
 25 15  1  6  0  0  0
 25 16  1  0  0  0  0
 27 23  1  0  0  0  0
 27 15  2  0  0  0  0
 28 22  1  1  0  0  0
 28 25  1  0  0  0  0
 29 20  2  0  0  0  0
 31 30  1  0  0  0  0
 32 30  1  0  0  0  0
 33 32  1  0  0  0  0
 34 32  2  0  0  0  0
 35 33  1  0  0  0  0
 35 36  1  0  0  0  0
 37 36  1  0  0  0  0
 37 38  1  0  0  0  0
 39 48  1  0  0  0  0
 40 41  2  0  0  0  0
 41 39  1  0  0  0  0
 41 42  1  0  0  0  0
 43 42  1  0  0  0  0
 43 47  1  0  0  0  0
 47 44  1  0  0  0  0
 47 46  1  0  0  0  0
 47 45  1  0  0  0  0
 48 49  1  0  0  0  0
 49 50  1  0  0  0  0
 50 51  1  0  0  0  0
 50 53  1  0  0  0  0
 52 50  1  0  0  0  0
 55 54  1  6  0  0  0
 55 56  1  0  0  0  0
 56 60  1  0  0  0  0
 57 56  1  0  0  0  0
 58 57  1  0  0  0  0
 60 59  1  0  0  0  0
M  END
>  <MODEL>
9

>  <REMARK>
 VINA RESULT:      -5.6      2.232      3.106
  Name = 
  16 active torsions:
  status: ('A' for Active; 'I' for Inactive)
    1  A    between atoms: C_4  and  N_14
    2  A    between atoms: C_4  and  O_16
    3  A    between atoms: O_8  and  C_12
    4  A    between atoms: O_8  and  C_52
    5  A    between atoms: C_9  and  C_21
    6  A    between atoms: C_10  and  C_15
    7  A    between atoms: C_13  and  N_23
    8  A    between atoms: N_14  and  C_20
    9  A    between atoms: O_16  and  C_18
   10  A    between atoms: C_21  and  C_33
   11  A    between atoms: C_21  and  C_47
   12  A    between atoms: C_25  and  C_33
   13  A    between atoms: C_39  and  S_45
   14  A    between atoms: C_39  and  C_53
   15  A    between atoms: S_45  and  C_58
   16  A    between atoms: C_52  and  N_55
                            x       y       z     vdW  Elec       q    Type
                         _______ _______ _______ _____ _____    ______ ____

>  <TORSDO>
F 16

$$$$
