=
 OpenBabel11062418283D

 48 50  0  0  1  0  0  0  0  0999 V2000
  186.8070  177.7520  142.0480 C   0  0  1  0  0  3  0  0  0  0  0  0
  187.7700  178.7240  141.7340 O   0  0  0  0  0  1  0  0  0  0  0  0
  184.9930  178.5470  140.7360 O   0  0  0  0  0  0  0  0  0  0  0  0
  185.4300  178.3170  141.8570 C   0  0  0  0  0  0  0  0  0  0  0  0
  184.5660  178.5800  143.0500 C   0  0  0  0  0  2  0  0  0  0  0  0
  185.4170  178.9650  144.2510 C   0  0  0  0  0  2  0  0  0  0  0  0
  183.7730  178.8320  145.9320 O   0  0  0  0  0  0  0  0  0  0  0  0
  184.8460  178.4130  145.5270 C   0  0  0  0  0  0  0  0  0  0  0  0
  185.4700  177.2570  146.2530 C   0  0  0  0  0  2  0  0  0  0  0  0
  186.4980  176.4440  145.4550 C   0  0  0  0  0  2  0  0  0  0  0  0
  187.9730  176.5590  145.9140 C   0  0  2  0  0  0  0  0  0  0  0  0
  188.0330  177.7170  146.6960 O   0  0  0  0  0  1  0  0  0  0  0  0
  188.9560  176.7290  144.7220 C   0  0  0  0  0  2  0  0  0  0  0  0
  189.6780  178.0810  144.6940 C   0  0  0  0  0  2  0  0  0  0  0  0
  191.5620  177.1260  143.2890 C   0  0  1  0  0  3  0  0  0  0  0  0
  190.7230  178.1150  143.6280 C   0  0  2  0  0  3  0  0  0  0  0  0
  192.0810  177.8410  143.9330 O   0  0  0  0  0  0  0  0  0  0  0  0
  193.6180  176.4390  142.8740 F   0  0  0  0  0  0  0  0  0  0  0  0
  192.6270  176.4660  143.8400 C   0  0  0  0  0  0  0  0  0  0  0  0
  193.1760  176.0970  145.0500 F   0  0  0  0  0  0  0  0  0  0  0  0
  191.6410  175.5560  143.4850 F   0  0  0  0  0  0  0  0  0  0  0  0
  188.3270  175.4690  146.7620 O   0  0  0  0  0  0  0  0  0  0  0  0
  189.6440  174.9330  146.5940 C   0  0  0  0  0  3  0  0  0  0  0  0
  190.6600  175.2090  147.6980 C   0  0  0  0  0  1  0  0  0  0  0  0
  189.6660  173.4900  146.1220 C   0  0  0  0  0  1  0  0  0  0  0  0
  186.9840  176.4620  141.2420 C   0  0  0  0  0  2  0  0  0  0  0  0
  188.1460  175.6990  141.6800 N   0  0  0  0  0  2  0  0  0  0  0  0
  187.6870  174.5450  142.2330 O   0  0  0  0  0  0  0  0  0  0  0  0
  188.8280  173.7530  142.3730 C   0  0  0  0  0  2  0  0  0  0  0  0
  188.7190  172.5540  141.5550 N   0  0  0  0  0  2  0  0  0  0  0  0
  190.7180  172.6490  137.4900 C   0  0  0  0  0  3  0  0  0  0  0  0
  188.4720  173.4830  137.9710 C   0  0  0  0  0  3  0  0  0  0  0  0
  189.8090  174.6230  135.9650 Cl  0  0  0  0  0  0  0  0  0  0  0  0
  190.9380  171.8380  138.5210 C   0  0  0  0  0  3  0  0  0  0  0  0
  188.1870  172.9140  139.1420 C   0  0  0  0  0  3  0  0  0  0  0  0
  190.3650  171.9350  139.8910 C   0  0  0  0  0  0  0  0  0  0  0  0
  189.1570  172.4930  140.1830 C   0  0  0  0  0  0  0  0  0  0  0  0
  189.8490  173.8590  137.5670 C   0  0  2  0  0  3  0  0  0  0  0  0
  191.0580  169.9420  140.9960 O   0  0  0  0  0  0  0  0  0  0  0  0
  191.1370  171.1970  140.9310 C   0  0  0  0  0  0  0  0  0  0  0  0
  193.0650  172.7900  144.8260 C   0  0  0  0  0  1  0  0  0  0  0  0
  192.1340  171.8980  141.7690 C   0  0  0  0  0  0  0  0  0  0  0  0
  195.8690  172.4520  142.9110 O   0  0  0  0  0  1  0  0  0  0  0  0
  192.8630  173.0690  141.2250 C   0  0  0  0  0  3  0  0  0  0  0  0
  193.6490  171.9320  143.7310 C   0  0  1  0  0  3  0  0  0  0  0  0
  192.5370  171.3320  142.9130 C   0  0  0  0  0  3  0  0  0  0  0  0
  194.5460  172.7350  142.8950 N   0  0  0  0  0  0  0  0  0  0  0  0
  194.0160  173.4560  141.7750 C   0  0  0  0  0  3  0  0  0  0  0  0
  1  2  1  6  0  0  0
  3  4  2  0  0  0  0
  4  1  1  0  0  0  0
  4  5  1  0  0  0  0
  5  6  1  0  0  0  0
  6  8  1  0  0  0  0
  8  7  2  0  0  0  0
  8  9  1  0  0  0  0
 10 11  1  0  0  0  0
 10  9  1  0  0  0  0
 11 12  1  1  0  0  0
 11 22  1  0  0  0  0
 13 11  1  0  0  0  0
 14 13  1  0  0  0  0
 15 16  1  0  0  0  0
 15 19  1  1  0  0  0
 15 17  1  0  0  0  0
 16 17  1  0  0  0  0
 16 14  1  1  0  0  0
 18 19  1  0  0  0  0
 19 20  1  0  0  0  0
 21 19  1  0  0  0  0
 23 22  1  0  0  0  0
 23 24  1  0  0  0  0
 25 23  1  0  0  0  0
 26 27  1  0  0  0  0
 26  1  1  0  0  0  0
 27 28  1  0  0  0  0
 28 29  1  0  0  0  0
 30 29  1  0  0  0  0
 31 38  1  0  0  0  0
 31 34  2  0  0  0  0
 32 35  2  0  0  0  0
 34 36  1  0  0  0  0
 35 37  1  0  0  0  0
 36 37  2  0  0  0  0
 36 40  1  0  0  0  0
 37 30  1  0  0  0  0
 38 33  1  6  0  0  0
 38 32  1  0  0  0  0
 40 39  2  0  0  0  0
 40 42  1  0  0  0  0
 42 46  2  0  0  0  0
 44 42  1  0  0  0  0
 44 48  2  0  0  0  0
 45 41  1  1  0  0  0
 46 45  1  0  0  0  0
 47 43  1  0  0  0  0
 47 45  1  0  0  0  0
 48 47  1  0  0  0  0
M  END
>  <MODEL>
1

>  <REMARK>
 VINA RESULT:      -6.0      0.000      0.000
  Name = 
  22 active torsions:
  status: ('A' for Active; 'I' for Inactive)
    1  A    between atoms: O_3  and  C_12
    2  A    between atoms: O_3  and  C_14
    3  A    between atoms: C_4  and  C_33
    4  A    between atoms: C_4  and  C_37
    5  A    between atoms: C_5  and  C_25
    6  A    between atoms: O_7  and  C_9
    7  A    between atoms: O_7  and  N_32
    8  A    between atoms: C_8  and  C_22
    9  A    between atoms: C_8  and  C_42
   10  A    between atoms: C_9  and  N_48
   11  A    between atoms: C_12  and  C_24
   12  A    between atoms: C_12  and  C_42
   13  A    between atoms: C_13  and  C_34
   14  A    between atoms: C_13  and  C_37
   15  A    between atoms: C_15  and  O_45
   16  A    between atoms: C_19  and  C_33
   17  A    between atoms: C_19  and  C_36
   18  A    between atoms: C_22  and  O_45
   19  A    between atoms: C_24  and  C_36
   20  A    between atoms: C_25  and  C_31
   21  A    between atoms: N_32  and  C_34
   22  A    between atoms: C_35  and  N_48
                            x       y       z     vdW  Elec       q    Type
                         _______ _______ _______ _____ _____    ______ ____

>  <TORSDO>
F 22

$$$$
=
 OpenBabel11062418283D

 48 50  0  0  1  0  0  0  0  0999 V2000
  195.4000  170.5750  143.6350 C   0  0  1  0  0  3  0  0  0  0  0  0
  195.7230  169.9360  142.4270 O   0  0  0  0  0  1  0  0  0  0  0  0
  193.5500  169.6180  144.7780 O   0  0  0  0  0  0  0  0  0  0  0  0
  193.9370  170.4070  143.9250 C   0  0  0  0  0  0  0  0  0  0  0  0
  192.9370  171.2350  143.1830 C   0  0  0  0  0  2  0  0  0  0  0  0
  191.9300  171.8470  144.1450 C   0  0  0  0  0  2  0  0  0  0  0  0
  190.5030  171.9770  142.2760 O   0  0  0  0  0  0  0  0  0  0  0  0
  190.7130  172.3500  143.4200 C   0  0  0  0  0  0  0  0  0  0  0  0
  189.6610  173.1810  144.0940 C   0  0  0  0  0  2  0  0  0  0  0  0
  190.0620  174.6250  144.4240 C   0  0  0  0  0  2  0  0  0  0  0  0
  189.3540  175.7390  143.6120 C   0  0  2  0  0  0  0  0  0  0  0  0
  190.3290  176.2530  142.7510 O   0  0  0  0  0  1  0  0  0  0  0  0
  188.8430  176.8990  144.5120 C   0  0  0  0  0  2  0  0  0  0  0  0
  187.9470  176.4440  145.6690 C   0  0  0  0  0  2  0  0  0  0  0  0
  185.9040  177.9420  145.8070 C   0  0  2  0  0  3  0  0  0  0  0  0
  186.5200  176.8140  145.4270 C   0  0  2  0  0  3  0  0  0  0  0  0
  185.6610  177.1380  146.5070 O   0  0  0  0  0  0  0  0  0  0  0  0
  184.2980  178.5510  147.7710 F   0  0  0  0  0  0  0  0  0  0  0  0
  184.9150  178.4190  146.5390 C   0  0  0  0  0  0  0  0  0  0  0  0
  185.7880  179.4720  146.3640 F   0  0  0  0  0  0  0  0  0  0  0  0
  183.9410  178.4590  145.5510 F   0  0  0  0  0  0  0  0  0  0  0  0
  188.3260  175.1910  142.7890 O   0  0  0  0  0  0  0  0  0  0  0  0
  188.3750  175.5300  141.3980 C   0  0  0  0  0  3  0  0  0  0  0  0
  188.4790  174.3810  140.4000 C   0  0  0  0  0  1  0  0  0  0  0  0
  187.3600  176.5790  140.9840 C   0  0  0  0  0  1  0  0  0  0  0  0
  196.2490  170.0810  144.8090 C   0  0  0  0  0  2  0  0  0  0  0  0
  196.3790  171.0910  145.8530 N   0  0  0  0  0  2  0  0  0  0  0  0
  197.3340  171.9700  145.4490 O   0  0  0  0  0  0  0  0  0  0  0  0
  196.9750  173.1730  146.0590 C   0  0  0  0  0  2  0  0  0  0  0  0
  196.5810  174.1540  145.0590 N   0  0  0  0  0  2  0  0  0  0  0  0
  192.8520  176.7270  145.0590 C   0  0  0  0  0  3  0  0  0  0  0  0
  193.1640  174.7060  146.3950 C   0  0  0  0  0  3  0  0  0  0  0  0
  191.5240  176.5780  147.3520 Cl  0  0  0  0  0  0  0  0  0  0  0  0
  193.7760  176.5780  144.1140 C   0  0  0  0  0  3  0  0  0  0  0  0
  194.1970  174.1110  145.8000 C   0  0  0  0  0  3  0  0  0  0  0  0
  195.0630  175.8390  144.2100 C   0  0  0  0  0  0  0  0  0  0  0  0
  195.2800  174.7730  145.0310 C   0  0  0  0  0  0  0  0  0  0  0  0
  192.9930  176.1790  146.4390 C   0  0  2  0  0  3  0  0  0  0  0  0
  196.9230  177.1240  143.4620 O   0  0  0  0  0  0  0  0  0  0  0  0
  196.0760  176.2340  143.1900 C   0  0  0  0  0  0  0  0  0  0  0  0
  195.3720  172.7590  140.2140 C   0  0  0  0  0  1  0  0  0  0  0  0
  196.2160  175.4700  141.9310 C   0  0  0  0  0  0  0  0  0  0  0  0
  196.0030  175.2740  137.9970 O   0  0  0  0  0  1  0  0  0  0  0  0
  197.4810  175.5420  141.1610 C   0  0  0  0  0  3  0  0  0  0  0  0
  195.1910  174.2450  140.0350 C   0  0  1  0  0  3  0  0  0  0  0  0
  195.1290  174.9120  141.3820 C   0  0  0  0  0  3  0  0  0  0  0  0
  196.2870  174.7870  139.2260 N   0  0  0  0  0  0  0  0  0  0  0  0
  197.4980  175.2120  139.8670 C   0  0  0  0  0  3  0  0  0  0  0  0
  1  2  1  6  0  0  0
  1  4  1  0  0  0  0
  1 26  1  0  0  0  0
  4  3  2  0  0  0  0
  5  4  1  0  0  0  0
  5  6  1  0  0  0  0
  7  8  2  0  0  0  0
  8  9  1  0  0  0  0
  8  6  1  0  0  0  0
  9 10  1  0  0  0  0
 11 12  1  6  0  0  0
 11 10  1  0  0  0  0
 11 13  1  0  0  0  0
 13 14  1  0  0  0  0
 15 17  1  0  0  0  0
 15 19  1  6  0  0  0
 16 14  1  1  0  0  0
 16 15  1  0  0  0  0
 16 17  1  0  0  0  0
 19 18  1  0  0  0  0
 20 19  1  0  0  0  0
 21 19  1  0  0  0  0
 22 11  1  0  0  0  0
 23 22  1  0  0  0  0
 24 23  1  0  0  0  0
 25 23  1  0  0  0  0
 26 27  1  0  0  0  0
 28 27  1  0  0  0  0
 28 29  1  0  0  0  0
 30 29  1  0  0  0  0
 31 38  1  0  0  0  0
 32 38  1  0  0  0  0
 34 36  1  0  0  0  0
 34 31  2  0  0  0  0
 35 32  2  0  0  0  0
 36 37  2  0  0  0  0
 37 30  1  0  0  0  0
 37 35  1  0  0  0  0
 38 33  1  1  0  0  0
 40 39  2  0  0  0  0
 40 36  1  0  0  0  0
 42 40  1  0  0  0  0
 43 47  1  0  0  0  0
 44 42  1  0  0  0  0
 45 41  1  1  0  0  0
 45 46  1  0  0  0  0
 46 42  2  0  0  0  0
 47 48  1  0  0  0  0
 47 45  1  0  0  0  0
 48 44  2  0  0  0  0
M  END
>  <MODEL>
2

>  <REMARK>
 VINA RESULT:      -6.0      3.912      8.135
  Name = 
  22 active torsions:
  status: ('A' for Active; 'I' for Inactive)
    1  A    between atoms: O_3  and  C_12
    2  A    between atoms: O_3  and  C_14
    3  A    between atoms: C_4  and  C_33
    4  A    between atoms: C_4  and  C_37
    5  A    between atoms: C_5  and  C_25
    6  A    between atoms: O_7  and  C_9
    7  A    between atoms: O_7  and  N_32
    8  A    between atoms: C_8  and  C_22
    9  A    between atoms: C_8  and  C_42
   10  A    between atoms: C_9  and  N_48
   11  A    between atoms: C_12  and  C_24
   12  A    between atoms: C_12  and  C_42
   13  A    between atoms: C_13  and  C_34
   14  A    between atoms: C_13  and  C_37
   15  A    between atoms: C_15  and  O_45
   16  A    between atoms: C_19  and  C_33
   17  A    between atoms: C_19  and  C_36
   18  A    between atoms: C_22  and  O_45
   19  A    between atoms: C_24  and  C_36
   20  A    between atoms: C_25  and  C_31
   21  A    between atoms: N_32  and  C_34
   22  A    between atoms: C_35  and  N_48
                            x       y       z     vdW  Elec       q    Type
                         _______ _______ _______ _____ _____    ______ ____

>  <TORSDO>
F 22

$$$$
=
 OpenBabel11062418283D

 48 50  0  0  1  0  0  0  0  0999 V2000
  194.9560  176.0690  145.7080 C   0  0  1  0  0  3  0  0  0  0  0  0
  194.7030  177.3640  146.1880 O   0  0  0  0  0  1  0  0  0  0  0  0
  193.6590  174.0800  145.6340 O   0  0  0  0  0  0  0  0  0  0  0  0
  193.6690  175.3040  145.6030 C   0  0  0  0  0  0  0  0  0  0  0  0
  192.3760  176.0460  145.4860 C   0  0  0  0  0  2  0  0  0  0  0  0
  192.3970  176.9700  144.2780 C   0  0  0  0  0  2  0  0  0  0  0  0
  192.4160  175.5850  142.3740 O   0  0  0  0  0  0  0  0  0  0  0  0
  191.7520  176.3250  143.0830 C   0  0  0  0  0  0  0  0  0  0  0  0
  190.2820  176.4370  142.8040 C   0  0  0  0  0  2  0  0  0  0  0  0
  189.5400  177.5420  143.5670 C   0  0  0  0  0  2  0  0  0  0  0  0
  188.0800  177.2300  143.9820 C   0  0  2  0  0  0  0  0  0  0  0  0
  187.8690  175.8920  143.6340 O   0  0  0  0  0  1  0  0  0  0  0  0
  187.0440  178.0980  143.2140 C   0  0  0  0  0  2  0  0  0  0  0  0
  185.5920  177.6410  143.3910 C   0  0  0  0  0  2  0  0  0  0  0  0
  184.9330  179.1000  145.3600 C   0  0  1  0  0  3  0  0  0  0  0  0
  184.7810  178.6790  144.0970 C   0  0  2  0  0  3  0  0  0  0  0  0
  184.1150  178.3760  145.3120 O   0  0  0  0  0  0  0  0  0  0  0  0
  183.9910  178.5170  147.6390 F   0  0  0  0  0  0  0  0  0  0  0  0
  184.8590  178.2690  146.5900 C   0  0  0  0  0  0  0  0  0  0  0  0
  185.3710  176.9960  146.7280 F   0  0  0  0  0  0  0  0  0  0  0  0
  185.8950  179.1910  146.6480 F   0  0  0  0  0  0  0  0  0  0  0  0
  187.9250  177.3180  145.3970 O   0  0  0  0  0  0  0  0  0  0  0  0
  188.9850  176.7700  146.1890 C   0  0  0  0  0  3  0  0  0  0  0  0
  189.6420  177.6890  147.2140 C   0  0  0  0  0  1  0  0  0  0  0  0
  188.6880  175.3880  146.7430 C   0  0  0  0  0  1  0  0  0  0  0  0
  195.7010  176.0690  144.3710 C   0  0  0  0  0  2  0  0  0  0  0  0
  196.7480  175.0560  144.3280 N   0  0  0  0  0  2  0  0  0  0  0  0
  196.6290  174.3990  143.1440 O   0  0  0  0  0  0  0  0  0  0  0  0
  196.8080  173.0550  143.4760 C   0  0  0  0  0  2  0  0  0  0  0  0
  195.5270  172.3640  143.5110 N   0  0  0  0  0  2  0  0  0  0  0  0
  194.2480  168.5480  145.5900 C   0  0  0  0  0  3  0  0  0  0  0  0
  196.2340  169.8550  146.1520 C   0  0  0  0  0  3  0  0  0  0  0  0
  195.1000  168.4320  148.1010 Cl  0  0  0  0  0  0  0  0  0  0  0  0
  193.9790  168.9690  144.3570 C   0  0  0  0  0  3  0  0  0  0  0  0
  196.3980  170.6250  145.0760 C   0  0  0  0  0  3  0  0  0  0  0  0
  194.2930  170.2960  143.7630 C   0  0  0  0  0  0  0  0  0  0  0  0
  195.3390  171.0820  144.1430 C   0  0  0  0  0  0  0  0  0  0  0  0
  194.9030  169.3980  146.6250 C   0  0  2  0  0  3  0  0  0  0  0  0
  193.9090  170.3780  141.4140 O   0  0  0  0  0  0  0  0  0  0  0  0
  193.4740  170.6410  142.5660 C   0  0  0  0  0  0  0  0  0  0  0  0
  189.7560  172.3110  144.7590 C   0  0  0  0  0  1  0  0  0  0  0  0
  192.0830  171.1180  142.7160 C   0  0  0  0  0  0  0  0  0  0  0  0
  189.1420  173.5100  141.6250 O   0  0  0  0  0  1  0  0  0  0  0  0
  191.0130  170.5600  141.8540 C   0  0  0  0  0  3  0  0  0  0  0  0
  190.4690  172.8150  143.5290 C   0  0  1  0  0  3  0  0  0  0  0  0
  191.8430  172.2070  143.4570 C   0  0  0  0  0  3  0  0  0  0  0  0
  189.6850  172.4940  142.3330 N   0  0  0  0  0  0  0  0  0  0  0  0
  189.8720  171.2310  141.6800 C   0  0  0  0  0  3  0  0  0  0  0  0
  1  2  1  6  0  0  0
  4  3  2  0  0  0  0
  4  1  1  0  0  0  0
  5  4  1  0  0  0  0
  6  5  1  0  0  0  0
  7  8  2  0  0  0  0
  8  6  1  0  0  0  0
  9  8  1  0  0  0  0
  9 10  1  0  0  0  0
 10 11  1  0  0  0  0
 11 12  1  6  0  0  0
 11 22  1  0  0  0  0
 13 14  1  0  0  0  0
 13 11  1  0  0  0  0
 15 19  1  1  0  0  0
 16 14  1  1  0  0  0
 16 17  1  0  0  0  0
 16 15  1  0  0  0  0
 17 15  1  0  0  0  0
 19 21  1  0  0  0  0
 19 20  1  0  0  0  0
 19 18  1  0  0  0  0
 22 23  1  0  0  0  0
 23 25  1  0  0  0  0
 23 24  1  0  0  0  0
 26  1  1  0  0  0  0
 27 26  1  0  0  0  0
 28 29  1  0  0  0  0
 28 27  1  0  0  0  0
 29 30  1  0  0  0  0
 30 37  1  0  0  0  0
 31 38  1  0  0  0  0
 32 38  1  0  0  0  0
 34 31  2  0  0  0  0
 35 32  2  0  0  0  0
 36 37  2  0  0  0  0
 36 34  1  0  0  0  0
 37 35  1  0  0  0  0
 38 33  1  1  0  0  0
 39 40  2  0  0  0  0
 40 42  1  0  0  0  0
 40 36  1  0  0  0  0
 42 46  2  0  0  0  0
 43 47  1  0  0  0  0
 44 42  1  0  0  0  0
 45 41  1  1  0  0  0
 46 45  1  0  0  0  0
 47 45  1  0  0  0  0
 48 44  2  0  0  0  0
 48 47  1  0  0  0  0
M  END
>  <MODEL>
3

>  <REMARK>
 VINA RESULT:      -5.8      3.698      7.302
  Name = 
  22 active torsions:
  status: ('A' for Active; 'I' for Inactive)
    1  A    between atoms: O_3  and  C_12
    2  A    between atoms: O_3  and  C_14
    3  A    between atoms: C_4  and  C_33
    4  A    between atoms: C_4  and  C_37
    5  A    between atoms: C_5  and  C_25
    6  A    between atoms: O_7  and  C_9
    7  A    between atoms: O_7  and  N_32
    8  A    between atoms: C_8  and  C_22
    9  A    between atoms: C_8  and  C_42
   10  A    between atoms: C_9  and  N_48
   11  A    between atoms: C_12  and  C_24
   12  A    between atoms: C_12  and  C_42
   13  A    between atoms: C_13  and  C_34
   14  A    between atoms: C_13  and  C_37
   15  A    between atoms: C_15  and  O_45
   16  A    between atoms: C_19  and  C_33
   17  A    between atoms: C_19  and  C_36
   18  A    between atoms: C_22  and  O_45
   19  A    between atoms: C_24  and  C_36
   20  A    between atoms: C_25  and  C_31
   21  A    between atoms: N_32  and  C_34
   22  A    between atoms: C_35  and  N_48
                            x       y       z     vdW  Elec       q    Type
                         _______ _______ _______ _____ _____    ______ ____

>  <TORSDO>
F 22

$$$$
=
 OpenBabel11062418283D

 48 50  0  0  1  0  0  0  0  0999 V2000
  189.2230  175.1560  146.5240 C   0  0  1  0  0  3  0  0  0  0  0  0
  188.9990  174.3640  147.6610 O   0  0  0  0  0  1  0  0  0  0  0  0
  190.1960  177.0510  147.5770 O   0  0  0  0  0  0  0  0  0  0  0  0
  189.2670  176.6050  146.9140 C   0  0  0  0  0  0  0  0  0  0  0  0
  188.1770  177.5250  146.4640 C   0  0  0  0  0  2  0  0  0  0  0  0
  186.8770  176.7600  146.2700 C   0  0  0  0  0  2  0  0  0  0  0  0
  185.8320  178.0940  147.9050 O   0  0  0  0  0  0  0  0  0  0  0  0
  185.7070  177.5130  146.8380 C   0  0  0  0  0  0  0  0  0  0  0  0
  184.4270  177.7040  146.0780 C   0  0  0  0  0  2  0  0  0  0  0  0
  184.3950  178.8980  145.1150 C   0  0  0  0  0  2  0  0  0  0  0  0
  184.8670  178.6260  143.6650 C   0  0  2  0  0  0  0  0  0  0  0  0
  184.8440  177.2360  143.5170 O   0  0  0  0  0  1  0  0  0  0  0  0
  186.3210  179.1150  143.4100 C   0  0  0  0  0  2  0  0  0  0  0  0
  187.0520  178.3520  142.3000 C   0  0  0  0  0  2  0  0  0  0  0  0
  188.9620  176.6820  142.2870 C   0  0  1  0  0  3  0  0  0  0  0  0
  188.3120  177.7310  142.8100 C   0  0  2  0  0  3  0  0  0  0  0  0
  188.3600  176.3520  143.1380 O   0  0  0  0  0  0  0  0  0  0  0  0
  190.1810  175.3540  142.0710 F   0  0  0  0  0  0  0  0  0  0  0  0
  188.7990  175.3410  142.1460 C   0  0  0  0  0  0  0  0  0  0  0  0
  188.3870  174.0860  142.5440 F   0  0  0  0  0  0  0  0  0  0  0  0
  188.2870  175.6170  140.8860 F   0  0  0  0  0  0  0  0  0  0  0  0
  183.9400  179.1570  142.7210 O   0  0  0  0  0  0  0  0  0  0  0  0
  183.4300  178.2410  141.7450 C   0  0  0  0  0  3  0  0  0  0  0  0
  181.9150  178.1530  141.5900 C   0  0  0  0  0  1  0  0  0  0  0  0
  184.1560  178.2930  140.4130 C   0  0  0  0  0  1  0  0  0  0  0  0
  190.4900  174.7570  145.7650 C   0  0  0  0  0  2  0  0  0  0  0  0
  191.1080  175.8950  145.0960 N   0  0  0  0  0  2  0  0  0  0  0  0
  192.2240  175.4390  144.4680 O   0  0  0  0  0  0  0  0  0  0  0  0
  193.2650  176.1750  145.0370 C   0  0  0  0  0  2  0  0  0  0  0  0
  194.4620  176.0840  144.2150 N   0  0  0  0  0  2  0  0  0  0  0  0
  196.6010  172.1060  143.8520 C   0  0  0  0  0  3  0  0  0  0  0  0
  196.5010  173.4680  145.8780 C   0  0  0  0  0  3  0  0  0  0  0  0
  196.7590  170.8300  146.1750 Cl  0  0  0  0  0  0  0  0  0  0  0  0
  196.3020  172.9940  142.9080 C   0  0  0  0  0  3  0  0  0  0  0  0
  196.1230  174.6600  145.4180 C   0  0  0  0  0  3  0  0  0  0  0  0
  195.4680  174.2180  143.0440 C   0  0  0  0  0  0  0  0  0  0  0  0
  195.3220  174.9260  144.1980 C   0  0  0  0  0  0  0  0  0  0  0  0
  196.0870  172.1890  145.2500 C   0  0  2  0  0  3  0  0  0  0  0  0
  195.4540  175.7550  141.2240 O   0  0  0  0  0  0  0  0  0  0  0  0
  194.9300  174.7400  141.7550 C   0  0  0  0  0  0  0  0  0  0  0  0
  192.1370  171.1850  140.7610 C   0  0  0  0  0  1  0  0  0  0  0  0
  193.9140  173.9780  140.9980 C   0  0  0  0  0  0  0  0  0  0  0  0
  190.3310  173.7230  139.3680 O   0  0  0  0  0  1  0  0  0  0  0  0
  193.8020  174.1520  139.5290 C   0  0  0  0  0  3  0  0  0  0  0  0
  191.8220  172.6490  140.9470 C   0  0  1  0  0  3  0  0  0  0  0  0
  192.9580  173.3220  141.6680 C   0  0  0  0  0  3  0  0  0  0  0  0
  191.5760  173.2750  139.6450 N   0  0  0  0  0  0  0  0  0  0  0  0
  192.6760  173.8110  138.8970 C   0  0  0  0  0  3  0  0  0  0  0  0
  1  4  1  0  0  0  0
  1  2  1  1  0  0  0
  4  3  2  0  0  0  0
  5  4  1  0  0  0  0
  6  5  1  0  0  0  0
  6  8  1  0  0  0  0
  8  7  2  0  0  0  0
  9  8  1  0  0  0  0
 10  9  1  0  0  0  0
 11 12  1  6  0  0  0
 11 10  1  0  0  0  0
 13 11  1  0  0  0  0
 14 13  1  0  0  0  0
 15 19  1  6  0  0  0
 15 16  1  0  0  0  0
 15 17  1  0  0  0  0
 16 14  1  6  0  0  0
 16 17  1  0  0  0  0
 18 19  1  0  0  0  0
 19 20  1  0  0  0  0
 21 19  1  0  0  0  0
 22 11  1  0  0  0  0
 23 22  1  0  0  0  0
 24 23  1  0  0  0  0
 25 23  1  0  0  0  0
 26  1  1  0  0  0  0
 27 26  1  0  0  0  0
 28 29  1  0  0  0  0
 28 27  1  0  0  0  0
 30 29  1  0  0  0  0
 31 38  1  0  0  0  0
 34 36  1  0  0  0  0
 34 31  2  0  0  0  0
 35 32  2  0  0  0  0
 36 37  2  0  0  0  0
 37 30  1  0  0  0  0
 37 35  1  0  0  0  0
 38 32  1  0  0  0  0
 38 33  1  1  0  0  0
 39 40  2  0  0  0  0
 40 36  1  0  0  0  0
 42 46  2  0  0  0  0
 42 40  1  0  0  0  0
 43 47  1  0  0  0  0
 44 42  1  0  0  0  0
 45 41  1  6  0  0  0
 45 46  1  0  0  0  0
 47 45  1  0  0  0  0
 48 44  2  0  0  0  0
 48 47  1  0  0  0  0
M  END
>  <MODEL>
4

>  <REMARK>
 VINA RESULT:      -5.8      3.101      6.258
  Name = 
  22 active torsions:
  status: ('A' for Active; 'I' for Inactive)
    1  A    between atoms: O_3  and  C_12
    2  A    between atoms: O_3  and  C_14
    3  A    between atoms: C_4  and  C_33
    4  A    between atoms: C_4  and  C_37
    5  A    between atoms: C_5  and  C_25
    6  A    between atoms: O_7  and  C_9
    7  A    between atoms: O_7  and  N_32
    8  A    between atoms: C_8  and  C_22
    9  A    between atoms: C_8  and  C_42
   10  A    between atoms: C_9  and  N_48
   11  A    between atoms: C_12  and  C_24
   12  A    between atoms: C_12  and  C_42
   13  A    between atoms: C_13  and  C_34
   14  A    between atoms: C_13  and  C_37
   15  A    between atoms: C_15  and  O_45
   16  A    between atoms: C_19  and  C_33
   17  A    between atoms: C_19  and  C_36
   18  A    between atoms: C_22  and  O_45
   19  A    between atoms: C_24  and  C_36
   20  A    between atoms: C_25  and  C_31
   21  A    between atoms: N_32  and  C_34
   22  A    between atoms: C_35  and  N_48
                            x       y       z     vdW  Elec       q    Type
                         _______ _______ _______ _____ _____    ______ ____

>  <TORSDO>
F 22

$$$$
=
 OpenBabel11062418283D

 48 50  0  0  1  0  0  0  0  0999 V2000
  189.3600  175.3010  146.5190 C   0  0  1  0  0  3  0  0  0  0  0  0
  188.9950  174.4400  147.5660 O   0  0  0  0  0  1  0  0  0  0  0  0
  190.4320  177.1520  147.5530 O   0  0  0  0  0  0  0  0  0  0  0  0
  189.4200  176.7150  147.0190 C   0  0  0  0  0  0  0  0  0  0  0  0
  188.2380  177.6140  146.8390 C   0  0  0  0  0  2  0  0  0  0  0  0
  186.9810  176.7980  146.5740 C   0  0  0  0  0  2  0  0  0  0  0  0
  185.3280  178.1720  147.5350 O   0  0  0  0  0  0  0  0  0  0  0  0
  185.7620  177.6740  146.5080 C   0  0  0  0  0  0  0  0  0  0  0  0
  185.1370  178.0850  145.2070 C   0  0  0  0  0  2  0  0  0  0  0  0
  186.0910  178.6920  144.1700 C   0  0  0  0  0  2  0  0  0  0  0  0
  186.5090  177.7700  142.9980 C   0  0  2  0  0  0  0  0  0  0  0  0
  185.5810  176.7230  142.9940 O   0  0  0  0  0  1  0  0  0  0  0  0
  187.9250  177.1590  143.1960 C   0  0  0  0  0  2  0  0  0  0  0  0
  188.5660  176.6340  141.9060 C   0  0  0  0  0  2  0  0  0  0  0  0
  189.1630  174.2810  141.1680 C   0  0  2  0  0  3  0  0  0  0  0  0
  188.3410  175.1650  141.7490 C   0  0  2  0  0  3  0  0  0  0  0  0
  188.3720  174.5590  140.4670 O   0  0  0  0  0  0  0  0  0  0  0  0
  187.6610  172.5650  139.4830 F   0  0  0  0  0  0  0  0  0  0  0  0
  188.6300  173.1080  140.3090 C   0  0  0  0  0  0  0  0  0  0  0  0
  189.8670  172.9130  139.7320 F   0  0  0  0  0  0  0  0  0  0  0  0
  188.5830  172.4530  141.5320 F   0  0  0  0  0  0  0  0  0  0  0  0
  186.3760  178.4440  141.7480 O   0  0  0  0  0  0  0  0  0  0  0  0
  185.5230  177.8240  140.7780 C   0  0  0  0  0  3  0  0  0  0  0  0
  184.1650  178.4710  140.5240 C   0  0  0  0  0  1  0  0  0  0  0  0
  186.2350  177.4270  139.4980 C   0  0  0  0  0  1  0  0  0  0  0  0
  190.6810  174.9000  145.8570 C   0  0  0  0  0  2  0  0  0  0  0  0
  190.7490  175.3320  144.4670 N   0  0  0  0  0  2  0  0  0  0  0  0
  192.0320  175.1650  144.0530 O   0  0  0  0  0  0  0  0  0  0  0  0
  192.7630  176.0740  144.8200 C   0  0  0  0  0  2  0  0  0  0  0  0
  194.0390  176.3680  144.1840 N   0  0  0  0  0  2  0  0  0  0  0  0
  197.2480  173.2010  143.7480 C   0  0  0  0  0  3  0  0  0  0  0  0
  196.1960  173.8530  145.8540 C   0  0  0  0  0  3  0  0  0  0  0  0
  197.1110  171.3570  145.6530 Cl  0  0  0  0  0  0  0  0  0  0  0  0
  196.9820  174.2470  142.9710 C   0  0  0  0  0  3  0  0  0  0  0  0
  195.6330  175.0250  145.5560 C   0  0  0  0  0  3  0  0  0  0  0  0
  195.8260  175.1780  143.0650 C   0  0  0  0  0  0  0  0  0  0  0  0
  195.1650  175.4690  144.2200 C   0  0  0  0  0  0  0  0  0  0  0  0
  196.3630  172.7600  144.8640 C   0  0  2  0  0  3  0  0  0  0  0  0
  196.1010  177.0480  141.6150 O   0  0  0  0  0  0  0  0  0  0  0  0
  195.5450  175.9350  141.8120 C   0  0  0  0  0  0  0  0  0  0  0  0
  194.2120  175.1510  137.4490 C   0  0  0  0  0  1  0  0  0  0  0  0
  194.7670  175.3180  140.7170 C   0  0  0  0  0  0  0  0  0  0  0  0
  193.4730  172.1130  138.8150 O   0  0  0  0  0  1  0  0  0  0  0  0
  193.3710  174.8810  140.9580 C   0  0  0  0  0  3  0  0  0  0  0  0
  194.6850  174.1900  138.5110 C   0  0  1  0  0  3  0  0  0  0  0  0
  195.4000  174.9470  139.5960 C   0  0  0  0  0  3  0  0  0  0  0  0
  193.5440  173.4430  139.0500 N   0  0  0  0  0  0  0  0  0  0  0  0
  192.8000  173.9820  140.1510 C   0  0  0  0  0  3  0  0  0  0  0  0
  1  4  1  0  0  0  0
  1  2  1  1  0  0  0
  4  3  2  0  0  0  0
  5  4  1  0  0  0  0
  6  5  1  0  0  0  0
  8  6  1  0  0  0  0
  8  7  2  0  0  0  0
  9  8  1  0  0  0  0
 10  9  1  0  0  0  0
 11 12  1  6  0  0  0
 11 13  1  0  0  0  0
 11 10  1  0  0  0  0
 14 13  1  0  0  0  0
 15 19  1  1  0  0  0
 15 16  1  0  0  0  0
 16 14  1  6  0  0  0
 17 15  1  0  0  0  0
 17 16  1  0  0  0  0
 18 19  1  0  0  0  0
 19 21  1  0  0  0  0
 20 19  1  0  0  0  0
 22 11  1  0  0  0  0
 23 22  1  0  0  0  0
 24 23  1  0  0  0  0
 25 23  1  0  0  0  0
 26  1  1  0  0  0  0
 27 26  1  0  0  0  0
 28 27  1  0  0  0  0
 28 29  1  0  0  0  0
 30 37  1  0  0  0  0
 30 29  1  0  0  0  0
 31 38  1  0  0  0  0
 34 36  1  0  0  0  0
 34 31  2  0  0  0  0
 35 32  2  0  0  0  0
 36 37  2  0  0  0  0
 37 35  1  0  0  0  0
 38 33  1  1  0  0  0
 38 32  1  0  0  0  0
 39 40  2  0  0  0  0
 40 36  1  0  0  0  0
 42 44  1  0  0  0  0
 42 40  1  0  0  0  0
 43 47  1  0  0  0  0
 45 41  1  6  0  0  0
 45 47  1  0  0  0  0
 45 46  1  0  0  0  0
 46 42  2  0  0  0  0
 47 48  1  0  0  0  0
 48 44  2  0  0  0  0
M  END
>  <MODEL>
5

>  <REMARK>
 VINA RESULT:      -5.7      3.325      6.505
  Name = 
  22 active torsions:
  status: ('A' for Active; 'I' for Inactive)
    1  A    between atoms: O_3  and  C_12
    2  A    between atoms: O_3  and  C_14
    3  A    between atoms: C_4  and  C_33
    4  A    between atoms: C_4  and  C_37
    5  A    between atoms: C_5  and  C_25
    6  A    between atoms: O_7  and  C_9
    7  A    between atoms: O_7  and  N_32
    8  A    between atoms: C_8  and  C_22
    9  A    between atoms: C_8  and  C_42
   10  A    between atoms: C_9  and  N_48
   11  A    between atoms: C_12  and  C_24
   12  A    between atoms: C_12  and  C_42
   13  A    between atoms: C_13  and  C_34
   14  A    between atoms: C_13  and  C_37
   15  A    between atoms: C_15  and  O_45
   16  A    between atoms: C_19  and  C_33
   17  A    between atoms: C_19  and  C_36
   18  A    between atoms: C_22  and  O_45
   19  A    between atoms: C_24  and  C_36
   20  A    between atoms: C_25  and  C_31
   21  A    between atoms: N_32  and  C_34
   22  A    between atoms: C_35  and  N_48
                            x       y       z     vdW  Elec       q    Type
                         _______ _______ _______ _____ _____    ______ ____

>  <TORSDO>
F 22

$$$$
=
 OpenBabel11062418283D

 48 50  0  0  1  0  0  0  0  0999 V2000
  194.8840  176.4550  145.5360 C   0  0  1  0  0  3  0  0  0  0  0  0
  194.5580  177.7930  145.8060 O   0  0  0  0  0  1  0  0  0  0  0  0
  193.7420  174.4510  146.1090 O   0  0  0  0  0  0  0  0  0  0  0  0
  193.6620  175.5950  145.6770 C   0  0  0  0  0  0  0  0  0  0  0  0
  192.3220  176.1490  145.3120 C   0  0  0  0  0  2  0  0  0  0  0  0
  191.2570  175.6570  146.2820 C   0  0  0  0  0  2  0  0  0  0  0  0
  191.6260  177.1510  148.0650 O   0  0  0  0  0  0  0  0  0  0  0  0
  190.8330  176.7440  147.2290 C   0  0  0  0  0  0  0  0  0  0  0  0
  189.5200  177.4580  147.0990 C   0  0  0  0  0  2  0  0  0  0  0  0
  188.3640  176.6280  146.5230 C   0  0  0  0  0  2  0  0  0  0  0  0
  187.7220  177.1570  145.2160 C   0  0  2  0  0  0  0  0  0  0  0  0
  186.7720  176.1980  144.8510 O   0  0  0  0  0  1  0  0  0  0  0  0
  188.7500  177.2850  144.0570 C   0  0  0  0  0  2  0  0  0  0  0  0
  188.5770  176.2390  142.9500 C   0  0  0  0  0  2  0  0  0  0  0  0
  187.4340  177.8860  141.3940 C   0  0  1  0  0  3  0  0  0  0  0  0
  188.2950  176.8870  141.6330 C   0  0  2  0  0  3  0  0  0  0  0  0
  186.9750  176.9330  141.1150 O   0  0  0  0  0  0  0  0  0  0  0  0
  185.2330  178.3960  140.5900 F   0  0  0  0  0  0  0  0  0  0  0  0
  185.9760  177.8920  141.6430 C   0  0  0  0  0  0  0  0  0  0  0  0
  185.1260  177.2470  142.5170 F   0  0  0  0  0  0  0  0  0  0  0  0
  186.5900  178.9520  142.2960 F   0  0  0  0  0  0  0  0  0  0  0  0
  187.0130  178.3710  145.4530 O   0  0  0  0  0  0  0  0  0  0  0  0
  185.8650  178.2810  146.3060 C   0  0  0  0  0  3  0  0  0  0  0  0
  185.9590  178.9400  147.6790 C   0  0  0  0  0  1  0  0  0  0  0  0
  184.5520  178.5710  145.6030 C   0  0  0  0  0  1  0  0  0  0  0  0
  195.5250  176.2680  144.1590 C   0  0  0  0  0  2  0  0  0  0  0  0
  196.6860  175.3870  144.2120 N   0  0  0  0  0  2  0  0  0  0  0  0
  196.6500  174.6040  143.1020 O   0  0  0  0  0  0  0  0  0  0  0  0
  196.8430  173.3090  143.5880 C   0  0  0  0  0  2  0  0  0  0  0  0
  195.5780  172.7360  144.0260 N   0  0  0  0  0  2  0  0  0  0  0  0
  194.4210  168.5640  145.3590 C   0  0  0  0  0  3  0  0  0  0  0  0
  196.1400  169.9470  146.4080 C   0  0  0  0  0  3  0  0  0  0  0  0
  194.8820  168.1660  147.9430 Cl  0  0  0  0  0  0  0  0  0  0  0  0
  194.3010  169.1330  144.1630 C   0  0  0  0  0  3  0  0  0  0  0  0
  196.3830  170.8750  145.4820 C   0  0  0  0  0  3  0  0  0  0  0  0
  194.5550  170.5530  143.8030 C   0  0  0  0  0  0  0  0  0  0  0  0
  195.4370  171.3660  144.4490 C   0  0  0  0  0  0  0  0  0  0  0  0
  194.8110  169.3120  146.5890 C   0  0  2  0  0  3  0  0  0  0  0  0
  194.3660  170.6220  141.4290 O   0  0  0  0  0  0  0  0  0  0  0  0
  193.8990  170.9920  142.5380 C   0  0  0  0  0  0  0  0  0  0  0  0
  190.3180  173.4000  140.8630 C   0  0  0  0  0  1  0  0  0  0  0  0
  192.6020  171.7030  142.5690 C   0  0  0  0  0  0  0  0  0  0  0  0
  188.7510  171.7730  143.4190 O   0  0  0  0  0  1  0  0  0  0  0  0
  192.1740  172.4030  143.8040 C   0  0  0  0  0  3  0  0  0  0  0  0
  190.3450  172.0990  141.6240 C   0  0  1  0  0  3  0  0  0  0  0  0
  191.7300  171.5120  141.5720 C   0  0  0  0  0  3  0  0  0  0  0  0
  189.9160  172.3220  143.0080 N   0  0  0  0  0  0  0  0  0  0  0  0
  190.8840  172.6920  143.9990 C   0  0  0  0  0  3  0  0  0  0  0  0
  1  4  1  0  0  0  0
  1  2  1  6  0  0  0
  4  3  2  0  0  0  0
  5  4  1  0  0  0  0
  5  6  1  0  0  0  0
  6  8  1  0  0  0  0
  8  7  2  0  0  0  0
  9  8  1  0  0  0  0
 10  9  1  0  0  0  0
 11 12  1  6  0  0  0
 11 22  1  0  0  0  0
 11 10  1  0  0  0  0
 13 11  1  0  0  0  0
 14 13  1  0  0  0  0
 15 16  1  0  0  0  0
 15 19  1  1  0  0  0
 16 14  1  1  0  0  0
 17 15  1  0  0  0  0
 17 16  1  0  0  0  0
 18 19  1  0  0  0  0
 19 21  1  0  0  0  0
 19 20  1  0  0  0  0
 22 23  1  0  0  0  0
 23 24  1  0  0  0  0
 25 23  1  0  0  0  0
 26 27  1  0  0  0  0
 26  1  1  0  0  0  0
 28 29  1  0  0  0  0
 28 27  1  0  0  0  0
 29 30  1  0  0  0  0
 30 37  1  0  0  0  0
 31 38  1  0  0  0  0
 32 38  1  0  0  0  0
 34 31  2  0  0  0  0
 35 32  2  0  0  0  0
 36 34  1  0  0  0  0
 36 37  2  0  0  0  0
 37 35  1  0  0  0  0
 38 33  1  1  0  0  0
 39 40  2  0  0  0  0
 40 42  1  0  0  0  0
 40 36  1  0  0  0  0
 42 44  1  0  0  0  0
 44 48  2  0  0  0  0
 45 41  1  6  0  0  0
 45 47  1  0  0  0  0
 46 45  1  0  0  0  0
 46 42  2  0  0  0  0
 47 43  1  0  0  0  0
 47 48  1  0  0  0  0
M  END
>  <MODEL>
6

>  <REMARK>
 VINA RESULT:      -5.7      3.546      7.083
  Name = 
  22 active torsions:
  status: ('A' for Active; 'I' for Inactive)
    1  A    between atoms: O_3  and  C_12
    2  A    between atoms: O_3  and  C_14
    3  A    between atoms: C_4  and  C_33
    4  A    between atoms: C_4  and  C_37
    5  A    between atoms: C_5  and  C_25
    6  A    between atoms: O_7  and  C_9
    7  A    between atoms: O_7  and  N_32
    8  A    between atoms: C_8  and  C_22
    9  A    between atoms: C_8  and  C_42
   10  A    between atoms: C_9  and  N_48
   11  A    between atoms: C_12  and  C_24
   12  A    between atoms: C_12  and  C_42
   13  A    between atoms: C_13  and  C_34
   14  A    between atoms: C_13  and  C_37
   15  A    between atoms: C_15  and  O_45
   16  A    between atoms: C_19  and  C_33
   17  A    between atoms: C_19  and  C_36
   18  A    between atoms: C_22  and  O_45
   19  A    between atoms: C_24  and  C_36
   20  A    between atoms: C_25  and  C_31
   21  A    between atoms: N_32  and  C_34
   22  A    between atoms: C_35  and  N_48
                            x       y       z     vdW  Elec       q    Type
                         _______ _______ _______ _____ _____    ______ ____

>  <TORSDO>
F 22

$$$$
=
 OpenBabel11062418283D

 48 50  0  0  1  0  0  0  0  0999 V2000
  189.9630  175.3370  146.7290 C   0  0  1  0  0  3  0  0  0  0  0  0
  189.2550  174.5500  147.6510 O   0  0  0  0  0  1  0  0  0  0  0  0
  190.4500  177.4640  147.6680 O   0  0  0  0  0  0  0  0  0  0  0  0
  189.6900  176.7900  146.9840 C   0  0  0  0  0  0  0  0  0  0  0  0
  188.4870  177.4350  146.3720 C   0  0  0  0  0  2  0  0  0  0  0  0
  187.2150  176.7290  146.8210 C   0  0  0  0  0  2  0  0  0  0  0  0
  186.1310  178.7240  147.4430 O   0  0  0  0  0  0  0  0  0  0  0  0
  186.0420  177.6680  146.8360 C   0  0  0  0  0  0  0  0  0  0  0  0
  184.8100  177.4300  146.0140 C   0  0  0  0  0  2  0  0  0  0  0  0
  184.3240  178.6220  145.1790 C   0  0  0  0  0  2  0  0  0  0  0  0
  184.6860  178.6010  143.6730 C   0  0  2  0  0  0  0  0  0  0  0  0
  184.8000  177.2490  143.3330 O   0  0  0  0  0  1  0  0  0  0  0  0
  186.0490  179.2890  143.3780 C   0  0  0  0  0  2  0  0  0  0  0  0
  186.8250  178.6640  142.2130 C   0  0  0  0  0  2  0  0  0  0  0  0
  188.6000  176.8560  142.0810 C   0  0  2  0  0  3  0  0  0  0  0  0
  187.9960  177.8770  142.7050 C   0  0  2  0  0  3  0  0  0  0  0  0
  187.9170  176.4680  142.8420 O   0  0  0  0  0  0  0  0  0  0  0  0
  188.9310  174.6170  143.8400 F   0  0  0  0  0  0  0  0  0  0  0  0
  189.1400  175.6340  142.9250 C   0  0  0  0  0  0  0  0  0  0  0  0
  189.4090  175.0740  141.6930 F   0  0  0  0  0  0  0  0  0  0  0  0
  190.2320  176.3820  143.3400 F   0  0  0  0  0  0  0  0  0  0  0  0
  183.6230  179.1360  142.8870 O   0  0  0  0  0  0  0  0  0  0  0  0
  183.1020  178.2860  141.8590 C   0  0  0  0  0  3  0  0  0  0  0  0
  181.5920  178.2910  141.6440 C   0  0  0  0  0  1  0  0  0  0  0  0
  183.8810  178.3460  140.5580 C   0  0  0  0  0  1  0  0  0  0  0  0
  191.4670  175.0540  146.7420 C   0  0  0  0  0  2  0  0  0  0  0  0
  192.0050  174.8990  145.3960 N   0  0  0  0  0  2  0  0  0  0  0  0
  192.5580  173.6590  145.3210 O   0  0  0  0  0  0  0  0  0  0  0  0
  191.6160  172.9030  144.6200 C   0  0  0  0  0  2  0  0  0  0  0  0
  192.2780  171.9190  143.7770 N   0  0  0  0  0  2  0  0  0  0  0  0
  192.9210  172.9490  139.4130 C   0  0  0  0  0  3  0  0  0  0  0  0
  190.8040  172.2120  140.3850 C   0  0  0  0  0  3  0  0  0  0  0  0
  190.6940  173.7860  138.2350 Cl  0  0  0  0  0  0  0  0  0  0  0  0
  193.8000  172.5380  140.3230 C   0  0  0  0  0  3  0  0  0  0  0  0
  191.1790  171.6810  141.5480 C   0  0  0  0  0  3  0  0  0  0  0  0
  193.5780  172.3540  141.7820 C   0  0  0  0  0  0  0  0  0  0  0  0
  192.3770  172.0450  142.3450 C   0  0  0  0  0  0  0  0  0  0  0  0
  191.5210  173.3420  139.7420 C   0  0  2  0  0  3  0  0  0  0  0  0
  195.5710  171.3330  142.5930 O   0  0  0  0  0  0  0  0  0  0  0  0
  194.8270  172.3480  142.5960 C   0  0  0  0  0  0  0  0  0  0  0  0
  196.4440  176.6750  142.8960 C   0  0  0  0  0  1  0  0  0  0  0  0
  195.2990  173.5820  143.2610 C   0  0  0  0  0  0  0  0  0  0  0  0
  194.7510  176.5050  145.8520 O   0  0  0  0  0  1  0  0  0  0  0  0
  195.9980  173.4970  144.5650 C   0  0  0  0  0  3  0  0  0  0  0  0
  195.2240  176.0460  143.5210 C   0  0  1  0  0  3  0  0  0  0  0  0
  194.8880  174.7700  142.7990 C   0  0  0  0  0  3  0  0  0  0  0  0
  195.4650  175.8010  144.9460 N   0  0  0  0  0  0  0  0  0  0  0  0
  196.0680  174.5680  145.3600 C   0  0  0  0  0  3  0  0  0  0  0  0
  1 26  1  0  0  0  0
  1  4  1  0  0  0  0
  1  2  1  1  0  0  0
  4  3  2  0  0  0  0
  5  6  1  0  0  0  0
  5  4  1  0  0  0  0
  6  8  1  0  0  0  0
  8  7  2  0  0  0  0
  9  8  1  0  0  0  0
 10  9  1  0  0  0  0
 11 12  1  6  0  0  0
 11 10  1  0  0  0  0
 13 11  1  0  0  0  0
 14 13  1  0  0  0  0
 15 16  1  0  0  0  0
 15 17  1  0  0  0  0
 15 19  1  1  0  0  0
 16 14  1  6  0  0  0
 16 17  1  0  0  0  0
 19 21  1  0  0  0  0
 19 18  1  0  0  0  0
 20 19  1  0  0  0  0
 22 11  1  0  0  0  0
 23 22  1  0  0  0  0
 24 23  1  0  0  0  0
 25 23  1  0  0  0  0
 27 26  1  0  0  0  0
 28 27  1  0  0  0  0
 29 28  1  0  0  0  0
 30 29  1  0  0  0  0
 31 38  1  0  0  0  0
 31 34  2  0  0  0  0
 32 35  2  0  0  0  0
 34 36  1  0  0  0  0
 35 37  1  0  0  0  0
 36 37  2  0  0  0  0
 36 40  1  0  0  0  0
 37 30  1  0  0  0  0
 38 33  1  6  0  0  0
 38 32  1  0  0  0  0
 39 40  2  0  0  0  0
 40 42  1  0  0  0  0
 42 44  1  0  0  0  0
 44 48  2  0  0  0  0
 45 41  1  6  0  0  0
 45 47  1  0  0  0  0
 46 42  2  0  0  0  0
 46 45  1  0  0  0  0
 47 48  1  0  0  0  0
 47 43  1  0  0  0  0
M  END
>  <MODEL>
7

>  <REMARK>
 VINA RESULT:      -5.6      2.346      5.109
  Name = 
  22 active torsions:
  status: ('A' for Active; 'I' for Inactive)
    1  A    between atoms: O_3  and  C_12
    2  A    between atoms: O_3  and  C_14
    3  A    between atoms: C_4  and  C_33
    4  A    between atoms: C_4  and  C_37
    5  A    between atoms: C_5  and  C_25
    6  A    between atoms: O_7  and  C_9
    7  A    between atoms: O_7  and  N_32
    8  A    between atoms: C_8  and  C_22
    9  A    between atoms: C_8  and  C_42
   10  A    between atoms: C_9  and  N_48
   11  A    between atoms: C_12  and  C_24
   12  A    between atoms: C_12  and  C_42
   13  A    between atoms: C_13  and  C_34
   14  A    between atoms: C_13  and  C_37
   15  A    between atoms: C_15  and  O_45
   16  A    between atoms: C_19  and  C_33
   17  A    between atoms: C_19  and  C_36
   18  A    between atoms: C_22  and  O_45
   19  A    between atoms: C_24  and  C_36
   20  A    between atoms: C_25  and  C_31
   21  A    between atoms: N_32  and  C_34
   22  A    between atoms: C_35  and  N_48
                            x       y       z     vdW  Elec       q    Type
                         _______ _______ _______ _____ _____    ______ ____

>  <TORSDO>
F 22

$$$$
=
 OpenBabel11062418283D

 48 49  0  0  1  0  0  0  0  0999 V2000
  194.9990  175.8280  144.1170 C   0  0  1  0  0  3  0  0  0  0  0  0
  195.4290  177.0750  144.6000 O   0  0  0  0  0  1  0  0  0  0  0  0
  193.6710  176.4300  142.2400 O   0  0  0  0  0  0  0  0  0  0  0  0
  193.7000  175.9880  143.3830 C   0  0  0  0  0  0  0  0  0  0  0  0
  192.4220  175.5760  144.0420 C   0  0  0  0  0  2  0  0  0  0  0  0
  191.8860  176.7000  144.9180 C   0  0  0  0  0  2  0  0  0  0  0  0
  192.9400  176.0260  146.9130 O   0  0  0  0  0  0  0  0  0  0  0  0
  191.8840  176.3110  146.3690 C   0  0  0  0  0  0  0  0  0  0  0  0
  190.6530  176.3980  147.2240 C   0  0  0  0  0  2  0  0  0  0  0  0
  189.6830  177.5370  146.8820 C   0  0  0  0  0  2  0  0  0  0  0  0
  188.3140  177.1200  146.2890 C   0  0  2  0  0  0  0  0  0  0  0  0
  188.2250  175.7380  146.4880 O   0  0  0  0  0  1  0  0  0  0  0  0
  188.2170  177.3960  144.7620 C   0  0  0  0  0  2  0  0  0  0  0  0
  188.1940  176.1300  143.8980 C   0  0  0  0  0  2  0  0  0  0  0  0
  187.8950  176.8900  141.4960 C   0  0  0  0  0  2  0  0  0  0  0  0
  188.6430  176.4190  142.5030 C   0  0  2  0  0  3  0  0  0  0  0  0
  188.0060  175.8070  141.3940 O   0  0  0  0  0  0  0  0  0  0  0  0
  188.2370  174.4720  139.4920 F   0  0  0  0  0  0  0  0  0  0  0  0
  188.4800  174.5100  140.8550 C   0  0  0  0  0  3  0  0  0  0  0  0
  189.8370  174.3830  141.0670 F   0  0  0  0  0  0  0  0  0  0  0  0
  187.8190  173.4450  141.4500 F   0  0  0  0  0  0  0  0  0  0  0  0
  187.2430  177.7120  147.0200 O   0  0  0  0  0  0  0  0  0  0  0  0
  186.0320  177.9510  146.2930 C   0  0  0  0  0  3  0  0  0  0  0  0
  184.8670  176.9980  146.5380 C   0  0  0  0  0  1  0  0  0  0  0  0
  185.6050  179.4080  146.2710 C   0  0  0  0  0  1  0  0  0  0  0  0
  196.0440  175.1440  143.2320 C   0  0  0  0  0  2  0  0  0  0  0  0
  195.8030  173.7120  143.1090 N   0  0  0  0  0  2  0  0  0  0  0  0
  195.6040  173.4470  141.7910 O   0  0  0  0  0  0  0  0  0  0  0  0
  195.4330  172.0620  141.7400 C   0  0  0  0  0  2  0  0  0  0  0  0
  194.1840  171.7270  141.0730 N   0  0  0  0  0  2  0  0  0  0  0  0
  189.9970  171.4590  142.7810 C   0  0  0  0  0  3  0  0  0  0  0  0
  192.0080  171.9800  144.0670 C   0  0  0  0  0  3  0  0  0  0  0  0
  189.6910  172.9670  144.9440 Cl  0  0  0  0  0  0  0  0  0  0  0  0
  190.5050  170.8830  141.6950 C   0  0  0  0  0  3  0  0  0  0  0  0
  192.9900  171.5800  143.2600 C   0  0  0  0  0  3  0  0  0  0  0  0
  191.8420  171.1140  141.0850 C   0  0  0  0  0  0  0  0  0  0  0  0
  192.9470  171.5070  141.7790 C   0  0  0  0  0  0  0  0  0  0  0  0
  190.7120  172.5050  143.5670 C   0  0  2  0  0  3  0  0  0  0  0  0
  191.9720  169.4780  139.3590 O   0  0  0  0  0  0  0  0  0  0  0  0
  191.9430  170.7010  139.6560 C   0  0  0  0  0  0  0  0  0  0  0  0
  189.8040  173.4910  136.6450 C   0  0  0  0  0  1  0  0  0  0  0  0
  191.8270  171.7010  138.5730 C   0  0  0  0  0  0  0  0  0  0  0  0
  192.7060  175.2360  137.0600 O   0  0  0  0  0  1  0  0  0  0  0  0
  192.8640  171.7680  137.5150 C   0  0  0  0  0  3  0  0  0  0  0  0
  190.8560  173.8000  137.6810 C   0  0  1  0  0  3  0  0  0  0  0  0
  190.9210  172.6810  138.6840 C   0  0  0  0  0  3  0  0  0  0  0  0
  192.1530  174.0030  137.0290 N   0  0  0  0  0  0  0  0  0  0  0  0
  193.0070  172.8770  136.7860 C   0  0  0  0  0  3  0  0  0  0  0  0
  1  2  1  6  0  0  0
  3  4  2  0  0  0  0
  4  5  1  0  0  0  0
  4  1  1  0  0  0  0
  5  6  1  0  0  0  0
  6  8  1  0  0  0  0
  8  7  2  0  0  0  0
  8  9  1  0  0  0  0
 10  9  1  0  0  0  0
 11 12  1  1  0  0  0
 11 10  1  0  0  0  0
 11 22  1  0  0  0  0
 13 11  1  0  0  0  0
 14 13  1  0  0  0  0
 15 16  1  0  0  0  0
 16 14  1  1  0  0  0
 17 15  1  0  0  0  0
 17 16  1  0  0  0  0
 18 19  1  0  0  0  0
 19 20  1  0  0  0  0
 19 21  1  0  0  0  0
 23 24  1  0  0  0  0
 23 22  1  0  0  0  0
 25 23  1  0  0  0  0
 26  1  1  0  0  0  0
 27 26  1  0  0  0  0
 28 27  1  0  0  0  0
 29 28  1  0  0  0  0
 30 29  1  0  0  0  0
 30 37  1  0  0  0  0
 31 38  1  0  0  0  0
 34 31  2  0  0  0  0
 35 32  2  0  0  0  0
 36 34  1  0  0  0  0
 36 37  2  0  0  0  0
 37 35  1  0  0  0  0
 38 32  1  0  0  0  0
 38 33  1  1  0  0  0
 39 40  2  0  0  0  0
 40 36  1  0  0  0  0
 42 46  2  0  0  0  0
 42 40  1  0  0  0  0
 44 42  1  0  0  0  0
 45 41  1  6  0  0  0
 45 46  1  0  0  0  0
 47 43  1  0  0  0  0
 47 45  1  0  0  0  0
 48 47  1  0  0  0  0
 48 44  2  0  0  0  0
M  END
>  <MODEL>
8

>  <REMARK>
 VINA RESULT:      -5.6      2.781      6.115
  Name = 
  22 active torsions:
  status: ('A' for Active; 'I' for Inactive)
    1  A    between atoms: O_3  and  C_12
    2  A    between atoms: O_3  and  C_14
    3  A    between atoms: C_4  and  C_33
    4  A    between atoms: C_4  and  C_37
    5  A    between atoms: C_5  and  C_25
    6  A    between atoms: O_7  and  C_9
    7  A    between atoms: O_7  and  N_32
    8  A    between atoms: C_8  and  C_22
    9  A    between atoms: C_8  and  C_42
   10  A    between atoms: C_9  and  N_48
   11  A    between atoms: C_12  and  C_24
   12  A    between atoms: C_12  and  C_42
   13  A    between atoms: C_13  and  C_34
   14  A    between atoms: C_13  and  C_37
   15  A    between atoms: C_15  and  O_45
   16  A    between atoms: C_19  and  C_33
   17  A    between atoms: C_19  and  C_36
   18  A    between atoms: C_22  and  O_45
   19  A    between atoms: C_24  and  C_36
   20  A    between atoms: C_25  and  C_31
   21  A    between atoms: N_32  and  C_34
   22  A    between atoms: C_35  and  N_48
                            x       y       z     vdW  Elec       q    Type
                         _______ _______ _______ _____ _____    ______ ____

>  <TORSDO>
F 22

$$$$
=
 OpenBabel11062418283D

 48 50  0  0  1  0  0  0  0  0999 V2000
  190.8380  173.6630  141.7110 C   0  0  1  0  0  3  0  0  0  0  0  0
  191.8530  173.7040  142.6800 O   0  0  0  0  0  1  0  0  0  0  0  0
  190.8060  173.1640  139.3890 O   0  0  0  0  0  0  0  0  0  0  0  0
  191.4450  173.5960  140.3400 C   0  0  0  0  0  0  0  0  0  0  0  0
  192.8410  174.0880  140.1250 C   0  0  0  0  0  2  0  0  0  0  0  0
  193.7590  172.9390  139.7370 C   0  0  0  0  0  2  0  0  0  0  0  0
  195.5060  174.1800  138.7600 O   0  0  0  0  0  0  0  0  0  0  0  0
  195.1890  173.3900  139.6360 C   0  0  0  0  0  0  0  0  0  0  0  0
  196.2230  173.0220  140.6600 C   0  0  0  0  0  2  0  0  0  0  0  0
  196.7640  174.1810  141.5080 C   0  0  0  0  0  2  0  0  0  0  0  0
  196.2550  174.2610  142.9680 C   0  0  2  0  0  0  0  0  0  0  0  0
  195.1670  173.3850  143.0350 O   0  0  0  0  0  1  0  0  0  0  0  0
  195.7530  175.6830  143.3470 C   0  0  0  0  0  2  0  0  0  0  0  0
  194.2840  175.9420  142.9960 C   0  0  0  0  0  2  0  0  0  0  0  0
  193.7850  176.5450  145.4100 C   0  0  1  0  0  3  0  0  0  0  0  0
  193.5890  176.6830  144.0910 C   0  0  2  0  0  3  0  0  0  0  0  0
  192.8940  175.9860  145.1120 O   0  0  0  0  0  0  0  0  0  0  0  0
  193.7020  177.0360  147.0350 F   0  0  0  0  0  0  0  0  0  0  0  0
  193.4910  175.7960  146.4560 C   0  0  0  0  0  0  0  0  0  0  0  0
  192.6290  175.0740  147.2540 F   0  0  0  0  0  0  0  0  0  0  0  0
  194.7090  175.1340  146.3770 F   0  0  0  0  0  0  0  0  0  0  0  0
  197.2380  173.7690  143.8760 O   0  0  0  0  0  0  0  0  0  0  0  0
  196.9450  172.5210  144.5170 C   0  0  0  0  0  3  0  0  0  0  0  0
  197.7550  171.3040  144.0840 C   0  0  0  0  0  1  0  0  0  0  0  0
  196.7950  172.6240  146.0240 C   0  0  0  0  0  1  0  0  0  0  0  0
  189.8570  172.5090  141.9300 C   0  0  0  0  0  2  0  0  0  0  0  0
  188.4710  172.9630  141.9330 N   0  0  0  0  0  2  0  0  0  0  0  0
  188.4870  174.3110  142.1010 O   0  0  0  0  0  0  0  0  0  0  0  0
  187.7330  174.8010  141.0320 C   0  0  0  0  0  2  0  0  0  0  0  0
  187.9650  176.2270  140.8570 N   0  0  0  0  0  2  0  0  0  0  0  0
  185.0660  179.0480  142.8960 C   0  0  0  0  0  3  0  0  0  0  0  0
  184.7250  178.0290  140.7020 C   0  0  0  0  0  3  0  0  0  0  0  0
  182.5570  178.6470  142.1260 Cl  0  0  0  0  0  0  0  0  0  0  0  0
  186.3810  178.9270  143.0550 C   0  0  0  0  0  3  0  0  0  0  0  0
  185.9490  177.6170  140.3710 C   0  0  0  0  0  3  0  0  0  0  0  0
  187.2740  177.8880  142.4770 C   0  0  0  0  0  0  0  0  0  0  0  0
  187.0390  177.2370  141.3030 C   0  0  0  0  0  0  0  0  0  0  0  0
  184.2430  178.0900  142.1040 C   0  0  2  0  0  3  0  0  0  0  0  0
  189.6460  178.0500  142.6170 O   0  0  0  0  0  0  0  0  0  0  0  0
  188.5730  177.7290  143.1920 C   0  0  0  0  0  0  0  0  0  0  0  0
  186.8640  176.8510  147.4030 C   0  0  0  0  0  1  0  0  0  0  0  0
  188.6050  177.3740  144.6270 C   0  0  0  0  0  0  0  0  0  0  0  0
  189.6810  174.9300  147.5310 O   0  0  0  0  0  1  0  0  0  0  0  0
  189.7770  177.7480  145.4540 C   0  0  0  0  0  3  0  0  0  0  0  0
  187.7640  176.0180  146.5250 C   0  0  1  0  0  3  0  0  0  0  0  0
  187.6920  176.5200  145.1080 C   0  0  0  0  0  3  0  0  0  0  0  0
  189.1380  176.0640  147.0330 N   0  0  0  0  0  0  0  0  0  0  0  0
  190.0190  177.1110  146.6030 C   0  0  0  0  0  3  0  0  0  0  0  0
  1 26  1  0  0  0  0
  1  2  1  1  0  0  0
  3  4  2  0  0  0  0
  4  1  1  0  0  0  0
  5  4  1  0  0  0  0
  6  5  1  0  0  0  0
  7  8  2  0  0  0  0
  8  6  1  0  0  0  0
  8  9  1  0  0  0  0
  9 10  1  0  0  0  0
 10 11  1  0  0  0  0
 11 12  1  1  0  0  0
 11 13  1  0  0  0  0
 11 22  1  0  0  0  0
 14 13  1  0  0  0  0
 15 19  1  6  0  0  0
 16 14  1  6  0  0  0
 16 17  1  0  0  0  0
 16 15  1  0  0  0  0
 17 15  1  0  0  0  0
 19 18  1  0  0  0  0
 19 20  1  0  0  0  0
 21 19  1  0  0  0  0
 22 23  1  0  0  0  0
 23 25  1  0  0  0  0
 24 23  1  0  0  0  0
 26 27  1  0  0  0  0
 27 28  1  0  0  0  0
 29 28  1  0  0  0  0
 30 29  1  0  0  0  0
 30 37  1  0  0  0  0
 31 34  2  0  0  0  0
 32 38  1  0  0  0  0
 35 32  2  0  0  0  0
 35 37  1  0  0  0  0
 36 34  1  0  0  0  0
 36 40  1  0  0  0  0
 37 36  2  0  0  0  0
 38 33  1  6  0  0  0
 38 31  1  0  0  0  0
 39 40  2  0  0  0  0
 40 42  1  0  0  0  0
 42 46  2  0  0  0  0
 42 44  1  0  0  0  0
 44 48  2  0  0  0  0
 45 47  1  0  0  0  0
 45 41  1  1  0  0  0
 46 45  1  0  0  0  0
 47 43  1  0  0  0  0
 48 47  1  0  0  0  0
M  END
>  <MODEL>
9

>  <REMARK>
 VINA RESULT:      -5.6      3.053      7.699
  Name = 
  22 active torsions:
  status: ('A' for Active; 'I' for Inactive)
    1  A    between atoms: O_3  and  C_12
    2  A    between atoms: O_3  and  C_14
    3  A    between atoms: C_4  and  C_33
    4  A    between atoms: C_4  and  C_37
    5  A    between atoms: C_5  and  C_25
    6  A    between atoms: O_7  and  C_9
    7  A    between atoms: O_7  and  N_32
    8  A    between atoms: C_8  and  C_22
    9  A    between atoms: C_8  and  C_42
   10  A    between atoms: C_9  and  N_48
   11  A    between atoms: C_12  and  C_24
   12  A    between atoms: C_12  and  C_42
   13  A    between atoms: C_13  and  C_34
   14  A    between atoms: C_13  and  C_37
   15  A    between atoms: C_15  and  O_45
   16  A    between atoms: C_19  and  C_33
   17  A    between atoms: C_19  and  C_36
   18  A    between atoms: C_22  and  O_45
   19  A    between atoms: C_24  and  C_36
   20  A    between atoms: C_25  and  C_31
   21  A    between atoms: N_32  and  C_34
   22  A    between atoms: C_35  and  N_48
                            x       y       z     vdW  Elec       q    Type
                         _______ _______ _______ _____ _____    ______ ____

>  <TORSDO>
F 22

$$$$
