=
 OpenBabel11062422573D

 29 33  0  0  1  0  0  0  0  0999 V2000
  188.4660  176.7880  145.5620 N   0  0  0  0  0  0  0  0  0  0  0  0
  187.4000  177.5110  146.2130 C   0  0  0  0  0  0  0  0  0  0  0  0
  188.3060  176.3950  144.1550 C   0  0  0  0  0  2  0  0  0  0  0  0
  191.7730  175.2500  146.3550 C   0  0  0  0  0  0  0  0  0  0  0  0
  192.5730  174.3330  145.9220 N   0  0  0  0  0  2  0  0  0  0  0  0
  187.4990  177.8410  147.4270 O   0  0  0  0  0  0  0  0  0  0  0  0
  190.1320  174.7620  144.5090 C   0  0  0  0  0  3  0  0  0  0  0  0
  189.7240  176.5140  146.2160 C   0  0  0  0  0  0  0  0  0  0  0  0
  190.1090  177.2030  147.3250 N   0  0  0  0  0  0  0  0  0  0  0  0
  191.2890  176.9360  147.9430 C   0  0  0  0  0  0  0  0  0  0  0  0
  189.0470  175.1220  143.8210 C   0  0  0  0  0  0  0  0  0  0  0  0
  190.5630  175.5170  145.6980 C   0  0  0  0  0  0  0  0  0  0  0  0
  192.1090  175.9680  147.4590 N   0  0  0  0  0  2  0  0  0  0  0  0
  191.6660  177.6720  149.1000 N   0  0  0  0  0  1  0  0  0  0  0  0
  185.4170  178.2410  142.7100 C   0  0  0  0  0  0  0  0  0  0  0  0
  186.1660  179.2990  144.8440 C   0  0  2  0  0  3  0  0  0  0  0  0
  185.2320  179.4080  143.6350 C   0  0  0  0  0  2  0  0  0  0  0  0
  185.4280  178.4210  141.5030 O   0  0  0  0  0  0  0  0  0  0  0  0
  185.3340  176.8170  144.7650 C   0  0  0  0  0  2  0  0  0  0  0  0
  186.1560  177.9000  145.4680 C   0  0  1  0  0  0  0  0  0  0  0  0
  185.5660  176.8480  143.2560 C   0  0  0  0  0  2  0  0  0  0  0  0
  185.3480  179.0130  146.0960 C   0  0  0  0  0  2  0  0  0  0  0  0
  188.5180  174.4730  140.0800 C   0  0  0  0  0  2  0  0  0  0  0  0
  188.6630  174.3270  142.6180 C   0  0  0  0  0  3  0  0  0  0  0  0
  188.2550  173.0520  140.2870 N   0  0  0  0  0  0  0  0  0  0  0  0
  188.4360  175.2380  141.4060 C   0  0  0  0  0  2  0  0  0  0  0  0
  189.3790  172.4700  141.0280 C   0  0  0  0  0  2  0  0  0  0  0  0
  189.6930  173.2350  142.3250 C   0  0  0  0  0  2  0  0  0  0  0  0
  188.2550  172.4730  139.0640 O   0  0  0  0  0  1  0  0  0  0  0  0
  1  2  1  0  0  0  0
  1  8  1  0  0  0  0
  2  6  2  0  0  0  0
  3  1  1  0  0  0  0
  4 13  1  0  0  0  0
  5  4  2  0  0  0  0
  7 12  1  0  0  0  0
  8  9  1  0  0  0  0
  9 10  2  0  0  0  0
 10 14  1  0  0  0  0
 11  3  1  0  0  0  0
 11  7  2  0  0  0  0
 12  8  2  0  0  0  0
 12  4  1  0  0  0  0
 13 10  1  0  0  0  0
 15 21  1  0  0  0  0
 15 17  1  0  0  0  0
 16 17  1  6  0  0  0
 16 20  1  0  0  0  0
 16 22  1  0  0  0  0
 18 15  2  0  0  0  0
 19 20  1  0  0  0  0
 20 22  1  0  0  0  0
 20  2  1  1  0  0  0
 21 19  1  0  0  0  0
 23 25  1  0  0  0  0
 23 26  1  0  0  0  0
 24 11  1  0  0  0  0
 25 27  1  0  0  0  0
 26 24  1  0  0  0  0
 27 28  1  0  0  0  0
 28 24  1  0  0  0  0
 29 25  1  0  0  0  0
M  END
>  <MODEL>
1

>  <REMARK>
 VINA RESULT:      -8.6      0.000      0.000
  Name = 
  2 active torsions:
  status: ('A' for Active; 'I' for Inactive)
    1  A    between atoms: C_2  and  C_18
    2  A    between atoms: C_5  and  C_23
                            x       y       z     vdW  Elec       q    Type
                         _______ _______ _______ _____ _____    ______ ____

>  <TORSDO>
F 2

$$$$
=
 OpenBabel11062422573D

 29 33  0  0  1  0  0  0  0  0999 V2000
  189.8810  174.7000  143.5240 N   0  0  0  0  0  0  0  0  0  0  0  0
  190.6500  174.2400  144.6570 C   0  0  0  0  0  0  0  0  0  0  0  0
  188.9390  175.8120  143.7060 C   0  0  0  0  0  2  0  0  0  0  0  0
  189.2670  173.8280  139.9480 C   0  0  0  0  0  0  0  0  0  0  0  0
  188.3740  173.9780  139.0250 N   0  0  0  0  0  2  0  0  0  0  0  0
  191.4500  173.2720  144.5360 O   0  0  0  0  0  0  0  0  0  0  0  0
  187.8560  175.1060  141.5950 C   0  0  0  0  0  3  0  0  0  0  0  0
  190.0710  174.1660  142.1950 C   0  0  0  0  0  0  0  0  0  0  0  0
  191.1930  173.4690  141.8660 N   0  0  0  0  0  0  0  0  0  0  0  0
  191.3640  172.9620  140.6180 C   0  0  0  0  0  0  0  0  0  0  0  0
  187.7550  175.7270  142.7720 C   0  0  0  0  0  0  0  0  0  0  0  0
  189.0770  174.3680  141.2270 C   0  0  0  0  0  0  0  0  0  0  0  0
  190.4070  173.1410  139.6720 N   0  0  0  0  0  2  0  0  0  0  0  0
  192.5470  172.2380  140.3030 N   0  0  0  0  0  1  0  0  0  0  0  0
  188.8810  176.9570  147.1510 C   0  0  0  0  0  0  0  0  0  0  0  0
  191.0490  176.3420  146.0760 C   0  0  2  0  0  3  0  0  0  0  0  0
  190.3690  177.1510  147.1830 C   0  0  0  0  0  2  0  0  0  0  0  0
  188.1430  177.9130  147.3250 O   0  0  0  0  0  0  0  0  0  0  0  0
  189.3750  174.5150  146.9250 C   0  0  0  0  0  2  0  0  0  0  0  0
  190.5300  174.9030  145.9970 C   0  0  1  0  0  0  0  0  0  0  0  0
  188.2920  175.5920  146.9290 C   0  0  0  0  0  2  0  0  0  0  0  0
  191.8400  175.1970  146.6930 C   0  0  0  0  0  2  0  0  0  0  0  0
  185.6380  178.5220  144.3200 C   0  0  0  0  0  2  0  0  0  0  0  0
  186.4980  176.4680  143.0870 C   0  0  0  0  0  3  0  0  0  0  0  0
  184.4330  178.1060  143.6090 N   0  0  0  0  0  0  0  0  0  0  0  0
  186.7050  177.4230  144.2680 C   0  0  0  0  0  2  0  0  0  0  0  0
  184.7270  178.0560  142.1740 C   0  0  0  0  0  2  0  0  0  0  0  0
  185.9620  177.1950  141.8520 C   0  0  0  0  0  2  0  0  0  0  0  0
  183.5180  179.0880  143.7840 O   0  0  0  0  0  1  0  0  0  0  0  0
  1  3  1  0  0  0  0
  1  2  1  0  0  0  0
  4 12  1  0  0  0  0
  5  4  2  0  0  0  0
  6  2  2  0  0  0  0
  7 11  2  0  0  0  0
  8  1  1  0  0  0  0
  9  8  1  0  0  0  0
 10  9  2  0  0  0  0
 11 24  1  0  0  0  0
 11  3  1  0  0  0  0
 12  7  1  0  0  0  0
 12  8  2  0  0  0  0
 13  4  1  0  0  0  0
 13 10  1  0  0  0  0
 14 10  1  0  0  0  0
 15 17  1  0  0  0  0
 15 18  2  0  0  0  0
 16 22  1  1  0  0  0
 16 17  1  0  0  0  0
 19 21  1  0  0  0  0
 20  2  1  6  0  0  0
 20 16  1  0  0  0  0
 20 22  1  0  0  0  0
 20 19  1  0  0  0  0
 21 15  1  0  0  0  0
 24 26  1  0  0  0  0
 25 29  1  0  0  0  0
 25 23  1  0  0  0  0
 26 23  1  0  0  0  0
 27 25  1  0  0  0  0
 28 27  1  0  0  0  0
 28 24  1  0  0  0  0
M  END
>  <MODEL>
2

>  <REMARK>
 VINA RESULT:      -8.4      2.571      6.241
  Name = 
  2 active torsions:
  status: ('A' for Active; 'I' for Inactive)
    1  A    between atoms: C_2  and  C_18
    2  A    between atoms: C_5  and  C_23
                            x       y       z     vdW  Elec       q    Type
                         _______ _______ _______ _____ _____    ______ ____

>  <TORSDO>
F 2

$$$$
=
 OpenBabel11062422573D

 29 33  0  0  1  0  0  0  0  0999 V2000
  189.8410  174.6370  143.1610 N   0  0  0  0  0  0  0  0  0  0  0  0
  190.5370  173.9720  144.2380 C   0  0  0  0  0  0  0  0  0  0  0  0
  189.1830  175.9240  143.4250 C   0  0  0  0  0  2  0  0  0  0  0  0
  188.8860  174.0680  139.5990 C   0  0  0  0  0  0  0  0  0  0  0  0
  188.0090  174.4500  138.7310 N   0  0  0  0  0  2  0  0  0  0  0  0
  191.0920  172.8560  144.0480 O   0  0  0  0  0  0  0  0  0  0  0  0
  187.8750  175.5630  141.3550 C   0  0  0  0  0  3  0  0  0  0  0  0
  189.8460  174.1280  141.8100 C   0  0  0  0  0  0  0  0  0  0  0  0
  190.7660  173.2110  141.4020 N   0  0  0  0  0  0  0  0  0  0  0  0
  190.7610  172.7290  140.1330 C   0  0  0  0  0  0  0  0  0  0  0  0
  187.9700  176.1440  142.5530 C   0  0  0  0  0  0  0  0  0  0  0  0
  188.8800  174.5860  140.9020 C   0  0  0  0  0  0  0  0  0  0  0  0
  189.8270  173.1550  139.2450 N   0  0  0  0  0  2  0  0  0  0  0  0
  191.7360  171.7710  139.7350 N   0  0  0  0  0  1  0  0  0  0  0  0
  189.3590  176.7740  146.9770 C   0  0  0  0  0  0  0  0  0  0  0  0
  191.3210  175.9580  145.6660 C   0  0  2  0  0  3  0  0  0  0  0  0
  190.8550  176.7950  146.8600 C   0  0  0  0  0  2  0  0  0  0  0  0
  188.7590  177.8010  147.2520 O   0  0  0  0  0  0  0  0  0  0  0  0
  189.5360  174.3030  146.6330 C   0  0  0  0  0  2  0  0  0  0  0  0
  190.6300  174.5920  145.6020 C   0  0  1  0  0  0  0  0  0  0  0  0
  188.5940  175.4960  146.7790 C   0  0  0  0  0  2  0  0  0  0  0  0
  192.0290  174.7060  146.1660 C   0  0  0  0  0  2  0  0  0  0  0  0
  184.5570  177.8810  142.4100 C   0  0  0  0  0  2  0  0  0  0  0  0
  186.9280  177.1340  142.9550 C   0  0  0  0  0  3  0  0  0  0  0  0
  184.8120  178.6490  143.6260 N   0  0  0  0  0  0  0  0  0  0  0  0
  185.8560  177.2750  141.8680 C   0  0  0  0  0  2  0  0  0  0  0  0
  185.1680  177.7190  144.7020 C   0  0  0  0  0  2  0  0  0  0  0  0
  186.3210  176.7760  144.3130 C   0  0  0  0  0  2  0  0  0  0  0  0
  183.6380  179.2210  143.9800 O   0  0  0  0  0  1  0  0  0  0  0  0
  1  3  1  0  0  0  0
  1  2  1  0  0  0  0
  4 12  1  0  0  0  0
  5  4  2  0  0  0  0
  6  2  2  0  0  0  0
  7 11  2  0  0  0  0
  8  1  1  0  0  0  0
  9  8  1  0  0  0  0
 10  9  2  0  0  0  0
 11 24  1  0  0  0  0
 11  3  1  0  0  0  0
 12  7  1  0  0  0  0
 12  8  2  0  0  0  0
 13  4  1  0  0  0  0
 13 10  1  0  0  0  0
 14 10  1  0  0  0  0
 15 18  2  0  0  0  0
 16 22  1  1  0  0  0
 16 17  1  0  0  0  0
 17 15  1  0  0  0  0
 19 21  1  0  0  0  0
 20  2  1  6  0  0  0
 20 16  1  0  0  0  0
 20 22  1  0  0  0  0
 20 19  1  0  0  0  0
 21 15  1  0  0  0  0
 23 25  1  0  0  0  0
 24 28  1  0  0  0  0
 25 29  1  0  0  0  0
 25 27  1  0  0  0  0
 26 23  1  0  0  0  0
 26 24  1  0  0  0  0
 28 27  1  0  0  0  0
M  END
>  <MODEL>
3

>  <REMARK>
 VINA RESULT:      -8.3      2.675      6.490
  Name = 
  2 active torsions:
  status: ('A' for Active; 'I' for Inactive)
    1  A    between atoms: C_2  and  C_18
    2  A    between atoms: C_5  and  C_23
                            x       y       z     vdW  Elec       q    Type
                         _______ _______ _______ _____ _____    ______ ____

>  <TORSDO>
F 2

$$$$
=
 OpenBabel11062422573D

 29 33  0  0  1  0  0  0  0  0999 V2000
  188.9870  176.6500  145.2000 N   0  0  0  0  0  0  0  0  0  0  0  0
  189.9610  177.0280  146.1970 C   0  0  0  0  0  0  0  0  0  0  0  0
  189.3440  175.6320  144.2040 C   0  0  0  0  0  2  0  0  0  0  0  0
  185.5660  177.5990  144.0490 C   0  0  0  0  0  0  0  0  0  0  0  0
  184.8180  177.5410  142.9970 N   0  0  0  0  0  2  0  0  0  0  0  0
  189.6910  177.9160  147.0520 O   0  0  0  0  0  0  0  0  0  0  0  0
  187.4500  176.4510  142.8370 C   0  0  0  0  0  3  0  0  0  0  0  0
  187.6400  177.1720  145.2020 C   0  0  0  0  0  0  0  0  0  0  0  0
  187.1110  177.7610  146.3090 N   0  0  0  0  0  0  0  0  0  0  0  0
  185.8470  178.2570  146.3040 C   0  0  0  0  0  0  0  0  0  0  0  0
  188.6330  175.8350  142.8870 C   0  0  0  0  0  0  0  0  0  0  0  0
  186.8650  177.0710  144.0380 C   0  0  0  0  0  0  0  0  0  0  0  0
  185.0870  178.1760  145.1820 N   0  0  0  0  0  2  0  0  0  0  0  0
  185.3200  178.8670  147.4760 N   0  0  0  0  0  1  0  0  0  0  0  0
  192.8010  174.5600  144.5920 C   0  0  0  0  0  0  0  0  0  0  0  0
  191.3040  174.8700  146.5660 C   0  0  2  0  0  3  0  0  0  0  0  0
  192.5380  174.1530  146.0120 C   0  0  0  0  0  2  0  0  0  0  0  0
  193.1350  173.7180  143.7730 O   0  0  0  0  0  0  0  0  0  0  0  0
  192.4420  176.9080  145.3770 C   0  0  0  0  0  2  0  0  0  0  0  0
  191.3090  176.3700  146.2540 C   0  0  1  0  0  0  0  0  0  0  0  0
  192.6800  175.9980  144.1730 C   0  0  0  0  0  2  0  0  0  0  0  0
  191.7330  175.8810  147.6210 C   0  0  0  0  0  2  0  0  0  0  0  0
  190.2040  173.0610  140.7590 C   0  0  0  0  0  2  0  0  0  0  0  0
  189.1730  175.2150  141.6410 C   0  0  0  0  0  3  0  0  0  0  0  0
  189.9870  173.7910  139.5120 N   0  0  0  0  0  0  0  0  0  0  0  0
  190.0340  173.9890  141.9670 C   0  0  0  0  0  2  0  0  0  0  0  0
  188.5660  174.1390  139.4130 C   0  0  0  0  0  2  0  0  0  0  0  0
  188.0490  174.8780  140.6600 C   0  0  0  0  0  2  0  0  0  0  0  0
  190.2460  172.9260  138.5040 O   0  0  0  0  0  1  0  0  0  0  0  0
  1  8  1  0  0  0  0
  1  2  1  0  0  0  0
  2  6  2  0  0  0  0
  3  1  1  0  0  0  0
  4 13  1  0  0  0  0
  5  4  2  0  0  0  0
  7 11  2  0  0  0  0
  7 12  1  0  0  0  0
  8  9  1  0  0  0  0
 10  9  2  0  0  0  0
 10 14  1  0  0  0  0
 11  3  1  0  0  0  0
 12  4  1  0  0  0  0
 12  8  2  0  0  0  0
 13 10  1  0  0  0  0
 15 17  1  0  0  0  0
 16 17  1  6  0  0  0
 16 22  1  0  0  0  0
 18 15  2  0  0  0  0
 19 20  1  0  0  0  0
 20  2  1  6  0  0  0
 20 16  1  0  0  0  0
 20 22  1  0  0  0  0
 21 15  1  0  0  0  0
 21 19  1  0  0  0  0
 23 26  1  0  0  0  0
 24 26  1  0  0  0  0
 24 11  1  0  0  0  0
 25 23  1  0  0  0  0
 27 25  1  0  0  0  0
 27 28  1  0  0  0  0
 28 24  1  0  0  0  0
 29 25  1  0  0  0  0
M  END
>  <MODEL>
4

>  <REMARK>
 VINA RESULT:      -8.0      2.302      5.393
  Name = 
  2 active torsions:
  status: ('A' for Active; 'I' for Inactive)
    1  A    between atoms: C_2  and  C_18
    2  A    between atoms: C_5  and  C_23
                            x       y       z     vdW  Elec       q    Type
                         _______ _______ _______ _____ _____    ______ ____

>  <TORSDO>
F 2

$$$$
=
 OpenBabel11062422573D

 29 33  0  0  1  0  0  0  0  0999 V2000
  187.8670  176.4230  144.5180 N   0  0  0  0  0  0  0  0  0  0  0  0
  188.6120  176.6280  145.7380 C   0  0  0  0  0  0  0  0  0  0  0  0
  188.3450  175.4260  143.5500 C   0  0  0  0  0  2  0  0  0  0  0  0
  184.9270  177.8270  142.6990 C   0  0  0  0  0  0  0  0  0  0  0  0
  184.4450  177.9160  141.5030 N   0  0  0  0  0  2  0  0  0  0  0  0
  188.2400  177.4920  146.5770 O   0  0  0  0  0  0  0  0  0  0  0  0
  186.9180  176.5360  141.8580 C   0  0  0  0  0  3  0  0  0  0  0  0
  186.6170  177.0970  144.2560 C   0  0  0  0  0  0  0  0  0  0  0  0
  185.9040  177.6810  145.2570 N   0  0  0  0  0  0  0  0  0  0  0  0
  184.7340  178.3220  145.0040 C   0  0  0  0  0  0  0  0  0  0  0  0
  187.9870  175.7840  142.1260 C   0  0  0  0  0  0  0  0  0  0  0  0
  186.1320  177.1530  142.9410 C   0  0  0  0  0  0  0  0  0  0  0  0
  184.2550  178.3930  143.7360 N   0  0  0  0  0  2  0  0  0  0  0  0
  184.0100  178.9230  146.0710 N   0  0  0  0  0  1  0  0  0  0  0  0
  191.8000  174.3700  144.5230 C   0  0  0  0  0  0  0  0  0  0  0  0
  189.6920  174.3010  145.8600 C   0  0  2  0  0  3  0  0  0  0  0  0
  191.0310  173.6170  145.5700 C   0  0  0  0  0  2  0  0  0  0  0  0
  192.3940  173.7570  143.6510 O   0  0  0  0  0  0  0  0  0  0  0  0
  191.2200  176.4290  145.8200 C   0  0  0  0  0  2  0  0  0  0  0  0
  189.8360  175.8150  146.0460 C   0  0  1  0  0  0  0  0  0  0  0  0
  191.8640  175.8710  144.5520 C   0  0  0  0  0  2  0  0  0  0  0  0
  189.7240  174.9120  147.2550 C   0  0  0  0  0  2  0  0  0  0  0  0
  189.8660  173.0120  140.2630 C   0  0  0  0  0  2  0  0  0  0  0  0
  188.7400  175.1750  140.9900 C   0  0  0  0  0  3  0  0  0  0  0  0
  189.9100  173.7740  139.0180 N   0  0  0  0  0  0  0  0  0  0  0  0
  189.4920  173.9180  141.4410 C   0  0  0  0  0  2  0  0  0  0  0  0
  188.5440  174.1670  138.6590 C   0  0  0  0  0  2  0  0  0  0  0  0
  187.8170  174.8940  139.8040 C   0  0  0  0  0  2  0  0  0  0  0  0
  190.3360  172.9250  138.0540 O   0  0  0  0  0  1  0  0  0  0  0  0
  1  2  1  0  0  0  0
  2  6  2  0  0  0  0
  3  1  1  0  0  0  0
  4 12  1  0  0  0  0
  4 13  1  0  0  0  0
  5  4  2  0  0  0  0
  7 11  2  0  0  0  0
  7 12  1  0  0  0  0
  8  1  1  0  0  0  0
  8  9  1  0  0  0  0
 10  9  2  0  0  0  0
 10 14  1  0  0  0  0
 11  3  1  0  0  0  0
 12  8  2  0  0  0  0
 13 10  1  0  0  0  0
 15 21  1  0  0  0  0
 15 17  1  0  0  0  0
 16 17  1  1  0  0  0
 16 20  1  0  0  0  0
 16 22  1  0  0  0  0
 18 15  2  0  0  0  0
 19 20  1  0  0  0  0
 20  2  1  6  0  0  0
 20 22  1  0  0  0  0
 21 19  1  0  0  0  0
 23 26  1  0  0  0  0
 24 26  1  0  0  0  0
 24 11  1  0  0  0  0
 25 23  1  0  0  0  0
 27 25  1  0  0  0  0
 27 28  1  0  0  0  0
 28 24  1  0  0  0  0
 29 25  1  0  0  0  0
M  END
>  <MODEL>
5

>  <REMARK>
 VINA RESULT:      -7.9      2.544      5.530
  Name = 
  2 active torsions:
  status: ('A' for Active; 'I' for Inactive)
    1  A    between atoms: C_2  and  C_18
    2  A    between atoms: C_5  and  C_23
                            x       y       z     vdW  Elec       q    Type
                         _______ _______ _______ _____ _____    ______ ____

>  <TORSDO>
F 2

$$$$
=
 OpenBabel11062422573D

 29 33  0  0  1  0  0  0  0  0999 V2000
  188.3850  176.2970  145.0760 N   0  0  0  0  0  0  0  0  0  0  0  0
  188.2830  176.3480  146.5160 C   0  0  0  0  0  0  0  0  0  0  0  0
  187.4600  177.1010  144.2660 C   0  0  0  0  0  2  0  0  0  0  0  0
  190.2770  174.4940  142.4110 C   0  0  0  0  0  0  0  0  0  0  0  0
  190.1740  174.1660  141.1660 N   0  0  0  0  0  2  0  0  0  0  0  0
  189.0480  175.6510  147.2360 O   0  0  0  0  0  0  0  0  0  0  0  0
  188.0420  175.6520  142.3460 C   0  0  0  0  0  3  0  0  0  0  0  0
  189.4240  175.5520  144.4030 C   0  0  0  0  0  0  0  0  0  0  0  0
  190.5470  175.1520  145.0600 N   0  0  0  0  0  0  0  0  0  0  0  0
  191.5170  174.4450  144.4250 C   0  0  0  0  0  0  0  0  0  0  0  0
  187.1620  176.4690  142.9280 C   0  0  0  0  0  0  0  0  0  0  0  0
  189.2690  175.2330  143.0460 C   0  0  0  0  0  0  0  0  0  0  0  0
  191.3780  174.1200  143.1140 N   0  0  0  0  0  2  0  0  0  0  0  0
  192.6800  174.0400  145.1370 N   0  0  0  0  0  1  0  0  0  0  0  0
  184.8220  178.5280  146.4440 C   0  0  0  0  0  0  0  0  0  0  0  0
  187.2930  178.7050  146.7570 C   0  0  2  0  0  3  0  0  0  0  0  0
  185.9380  179.3880  146.9600 C   0  0  0  0  0  2  0  0  0  0  0  0
  183.9020  179.0370  145.8240 O   0  0  0  0  0  0  0  0  0  0  0  0
  185.9440  176.6450  147.6500 C   0  0  0  0  0  2  0  0  0  0  0  0
  187.2800  177.2360  147.1920 C   0  0  1  0  0  0  0  0  0  0  0  0
  184.8150  177.0470  146.7030 C   0  0  0  0  0  2  0  0  0  0  0  0
  187.8630  178.2900  148.1070 C   0  0  0  0  0  2  0  0  0  0  0  0
  183.8800  178.3540  142.3210 C   0  0  0  0  0  2  0  0  0  0  0  0
  185.9410  176.8680  142.1670 C   0  0  0  0  0  3  0  0  0  0  0  0
  183.8020  177.9220  140.9280 N   0  0  0  0  0  0  0  0  0  0  0  0
  184.9040  177.5140  143.0930 C   0  0  0  0  0  2  0  0  0  0  0  0
  185.0490  178.2900  140.2510 C   0  0  0  0  0  2  0  0  0  0  0  0
  186.2980  177.7750  140.9880 C   0  0  0  0  0  2  0  0  0  0  0  0
  182.8160  178.6470  140.3500 O   0  0  0  0  0  1  0  0  0  0  0  0
  1  2  1  0  0  0  0
  2  6  2  0  0  0  0
  3  1  1  0  0  0  0
  4 12  1  0  0  0  0
  4 13  1  0  0  0  0
  5  4  2  0  0  0  0
  7 11  2  0  0  0  0
  7 12  1  0  0  0  0
  8  9  1  0  0  0  0
  8  1  1  0  0  0  0
 10  9  2  0  0  0  0
 10 14  1  0  0  0  0
 11  3  1  0  0  0  0
 12  8  2  0  0  0  0
 13 10  1  0  0  0  0
 15 21  1  0  0  0  0
 15 17  1  0  0  0  0
 16 17  1  1  0  0  0
 16 20  1  0  0  0  0
 16 22  1  0  0  0  0
 18 15  2  0  0  0  0
 20  2  1  6  0  0  0
 20 19  1  0  0  0  0
 20 22  1  0  0  0  0
 21 19  1  0  0  0  0
 23 26  1  0  0  0  0
 24 11  1  0  0  0  0
 24 26  1  0  0  0  0
 25 23  1  0  0  0  0
 27 25  1  0  0  0  0
 27 28  1  0  0  0  0
 28 24  1  0  0  0  0
 29 25  1  0  0  0  0
M  END
>  <MODEL>
6

>  <REMARK>
 VINA RESULT:      -7.8      2.587      4.291
  Name = 
  2 active torsions:
  status: ('A' for Active; 'I' for Inactive)
    1  A    between atoms: C_2  and  C_18
    2  A    between atoms: C_5  and  C_23
                            x       y       z     vdW  Elec       q    Type
                         _______ _______ _______ _____ _____    ______ ____

>  <TORSDO>
F 2

$$$$
=
 OpenBabel11062422573D

 29 33  0  0  1  0  0  0  0  0999 V2000
  187.7620  175.9810  141.7790 N   0  0  0  0  0  0  0  0  0  0  0  0
  186.9500  176.9900  141.1390 C   0  0  0  0  0  0  0  0  0  0  0  0
  187.8240  175.9410  143.2460 C   0  0  0  0  0  2  0  0  0  0  0  0
  190.1540  173.2580  140.8920 C   0  0  0  0  0  0  0  0  0  0  0  0
  191.1310  172.5850  141.4040 N   0  0  0  0  0  1  0  0  0  0  0  0
  186.8950  177.0640  139.8810 O   0  0  0  0  0  0  0  0  0  0  0  0
  189.8760  174.5740  143.0190 C   0  0  0  0  0  3  0  0  0  0  0  0
  188.4440  174.9520  141.0290 C   0  0  0  0  0  0  0  0  0  0  0  0
  188.0940  174.6610  139.7470 N   0  0  0  0  0  0  0  0  0  0  0  0
  188.7440  173.6970  139.0430 C   0  0  0  0  0  0  0  0  0  0  0  0
  189.1450  175.4140  143.7550 C   0  0  0  0  0  0  0  0  0  0  0  0
  189.4890  174.2410  141.6370 C   0  0  0  0  0  0  0  0  0  0  0  0
  189.7640  173.0070  139.6140 N   0  0  0  0  0  0  0  0  0  0  0  0
  188.3570  173.4150  137.7040 N   0  0  0  0  0  1  0  0  0  0  0  0
  185.3570  178.2210  144.7000 C   0  0  0  0  0  0  0  0  0  0  0  0
  184.7620  177.4760  142.3920 C   0  0  2  0  0  3  0  0  0  0  0  0
  184.2740  178.1780  143.6620 C   0  0  0  0  0  2  0  0  0  0  0  0
  185.0830  178.0060  145.8700 O   0  0  0  0  0  0  0  0  0  0  0  0
  186.8670  178.9670  142.8500 C   0  0  0  0  0  2  0  0  0  0  0  0
  186.1440  177.9650  141.9470 C   0  0  1  0  0  0  0  0  0  0  0  0
  186.7730  178.5470  144.3160 C   0  0  0  0  0  2  0  0  0  0  0  0
  184.9000  178.4940  141.2680 C   0  0  0  0  0  2  0  0  0  0  0  0
  191.6600  176.1000  146.5640 C   0  0  0  0  0  2  0  0  0  0  0  0
  189.5790  175.7080  145.1530 C   0  0  0  0  0  3  0  0  0  0  0  0
  190.6130  176.4510  147.5190 N   0  0  0  0  0  0  0  0  0  0  0  0
  191.0660  175.3880  145.3450 C   0  0  0  0  0  2  0  0  0  0  0  0
  189.7850  177.5130  146.9390 C   0  0  0  0  0  2  0  0  0  0  0  0
  189.2510  177.1500  145.5420 C   0  0  0  0  0  2  0  0  0  0  0  0
  191.2310  176.9870  148.5980 O   0  0  0  0  0  1  0  0  0  0  0  0
  1  3  1  0  0  0  0
  2  1  1  0  0  0  0
  3 11  1  0  0  0  0
  4  5  1  0  0  0  0
  4 12  1  0  0  0  0
  6  2  2  0  0  0  0
  7 11  2  0  0  0  0
  8 12  2  0  0  0  0
  8  1  1  0  0  0  0
  9  8  1  0  0  0  0
 10 13  1  0  0  0  0
 10  9  2  0  0  0  0
 11 24  1  0  0  0  0
 12  7  1  0  0  0  0
 13  4  2  0  0  0  0
 14 10  1  0  0  0  0
 15 18  2  0  0  0  0
 16 22  1  6  0  0  0
 16 17  1  0  0  0  0
 17 15  1  0  0  0  0
 19 21  1  0  0  0  0
 20  2  1  6  0  0  0
 20 16  1  0  0  0  0
 20 19  1  0  0  0  0
 21 15  1  0  0  0  0
 22 20  1  0  0  0  0
 23 25  1  0  0  0  0
 24 26  1  0  0  0  0
 24 28  1  0  0  0  0
 25 29  1  0  0  0  0
 26 23  1  0  0  0  0
 27 25  1  0  0  0  0
 28 27  1  0  0  0  0
M  END
>  <MODEL>
7

>  <REMARK>
 VINA RESULT:      -7.8      1.850      6.063
  Name = 
  2 active torsions:
  status: ('A' for Active; 'I' for Inactive)
    1  A    between atoms: C_2  and  C_18
    2  A    between atoms: C_5  and  C_23
                            x       y       z     vdW  Elec       q    Type
                         _______ _______ _______ _____ _____    ______ ____

>  <TORSDO>
F 2

$$$$
=
 OpenBabel11062422573D

 29 33  0  0  1  0  0  0  0  0999 V2000
  185.9250  177.6920  143.6040 N   0  0  0  0  0  0  0  0  0  0  0  0
  185.2730  178.2630  144.7590 C   0  0  0  0  0  0  0  0  0  0  0  0
  187.1680  176.9310  143.7900 C   0  0  0  0  0  2  0  0  0  0  0  0
  185.6010  177.6220  139.8870 C   0  0  0  0  0  0  0  0  0  0  0  0
  186.3160  177.4290  138.8280 N   0  0  0  0  0  2  0  0  0  0  0  0
  184.2180  178.9410  144.6280 O   0  0  0  0  0  0  0  0  0  0  0  0
  187.5970  177.2360  141.3710 C   0  0  0  0  0  3  0  0  0  0  0  0
  185.3500  177.7630  142.2800 C   0  0  0  0  0  0  0  0  0  0  0  0
  184.0340  178.0540  142.0960 N   0  0  0  0  0  0  0  0  0  0  0  0
  183.4990  178.1290  140.8490 C   0  0  0  0  0  0  0  0  0  0  0  0
  188.0860  177.0190  142.5940 C   0  0  0  0  0  0  0  0  0  0  0  0
  186.1680  177.5310  141.1650 C   0  0  0  0  0  0  0  0  0  0  0  0
  184.2800  177.9160  139.7590 N   0  0  0  0  0  2  0  0  0  0  0  0
  182.1200  178.4340  140.6860 N   0  0  0  0  0  1  0  0  0  0  0  0
  187.7110  176.2760  147.3750 C   0  0  0  0  0  0  0  0  0  0  0  0
  185.3230  176.8100  146.8760 C   0  0  2  0  0  3  0  0  0  0  0  0
  186.3170  176.3150  147.9300 C   0  0  0  0  0  2  0  0  0  0  0  0
  188.4400  175.3340  147.6380 O   0  0  0  0  0  0  0  0  0  0  0  0
  187.2320  178.5580  146.4690 C   0  0  0  0  0  2  0  0  0  0  0  0
  185.8220  178.0590  146.1410 C   0  0  1  0  0  0  0  0  0  0  0  0
  188.2250  177.3990  146.5170 C   0  0  0  0  0  2  0  0  0  0  0  0
  184.8160  178.1930  147.2620 C   0  0  0  0  0  2  0  0  0  0  0  0
  191.6430  177.5130  143.9320 C   0  0  0  0  0  2  0  0  0  0  0  0
  189.5390  176.7150  142.7420 C   0  0  0  0  0  3  0  0  0  0  0  0
  192.1140  176.2550  143.3590 N   0  0  0  0  0  0  0  0  0  0  0  0
  190.2960  177.9150  143.3230 C   0  0  0  0  0  2  0  0  0  0  0  0
  191.2480  175.1710  143.8320 C   0  0  0  0  0  2  0  0  0  0  0  0
  189.7570  175.4480  143.5710 C   0  0  0  0  0  2  0  0  0  0  0  0
  193.3420  176.0250  143.8800 O   0  0  0  0  0  1  0  0  0  0  0  0
  1  3  1  0  0  0  0
  1  2  1  0  0  0  0
  4 12  1  0  0  0  0
  5  4  2  0  0  0  0
  6  2  2  0  0  0  0
  7 11  2  0  0  0  0
  8  1  1  0  0  0  0
  9  8  1  0  0  0  0
 10  9  2  0  0  0  0
 11 24  1  0  0  0  0
 11  3  1  0  0  0  0
 12  7  1  0  0  0  0
 12  8  2  0  0  0  0
 13  4  1  0  0  0  0
 13 10  1  0  0  0  0
 14 10  1  0  0  0  0
 15 18  2  0  0  0  0
 15 17  1  0  0  0  0
 16 22  1  1  0  0  0
 16 17  1  0  0  0  0
 19 21  1  0  0  0  0
 20  2  1  6  0  0  0
 20 19  1  0  0  0  0
 20 16  1  0  0  0  0
 20 22  1  0  0  0  0
 21 15  1  0  0  0  0
 24 26  1  0  0  0  0
 24 28  1  0  0  0  0
 25 27  1  0  0  0  0
 25 29  1  0  0  0  0
 25 23  1  0  0  0  0
 26 23  1  0  0  0  0
 28 27  1  0  0  0  0
M  END
>  <MODEL>
8

>  <REMARK>
 VINA RESULT:      -7.7      3.342      6.245
  Name = 
  2 active torsions:
  status: ('A' for Active; 'I' for Inactive)
    1  A    between atoms: C_2  and  C_18
    2  A    between atoms: C_5  and  C_23
                            x       y       z     vdW  Elec       q    Type
                         _______ _______ _______ _____ _____    ______ ____

>  <TORSDO>
F 2

$$$$
=
 OpenBabel11062422573D

 29 33  0  0  1  0  0  0  0  0999 V2000
  188.4960  176.3260  143.3860 N   0  0  0  0  0  0  0  0  0  0  0  0
  189.2090  176.7110  144.5820 C   0  0  0  0  0  0  0  0  0  0  0  0
  188.7980  175.0300  142.7630 C   0  0  0  0  0  2  0  0  0  0  0  0
  186.0100  177.7120  140.9730 C   0  0  0  0  0  0  0  0  0  0  0  0
  185.6160  177.5600  139.7520 N   0  0  0  0  0  2  0  0  0  0  0  0
  188.9880  177.8280  145.1260 O   0  0  0  0  0  0  0  0  0  0  0  0
  187.7210  175.8850  140.7040 C   0  0  0  0  0  3  0  0  0  0  0  0
  187.4310  177.1290  142.8310 C   0  0  0  0  0  0  0  0  0  0  0  0
  186.8110  178.0900  143.5680 N   0  0  0  0  0  0  0  0  0  0  0  0
  185.8160  178.8480  143.0400 C   0  0  0  0  0  0  0  0  0  0  0  0
  188.5930  175.0450  141.2660 C   0  0  0  0  0  0  0  0  0  0  0  0
  187.0320  176.9130  141.5040 C   0  0  0  0  0  0  0  0  0  0  0  0
  185.4240  178.6580  141.7530 N   0  0  0  0  0  2  0  0  0  0  0  0
  185.1860  179.8450  143.8340 N   0  0  0  0  0  1  0  0  0  0  0  0
  191.2150  175.3350  147.8710 C   0  0  0  0  0  0  0  0  0  0  0  0
  191.5250  176.4560  145.6610 C   0  0  2  0  0  3  0  0  0  0  0  0
  192.2050  175.6940  146.8020 C   0  0  0  0  0  2  0  0  0  0  0  0
  191.5260  175.4450  149.0460 O   0  0  0  0  0  0  0  0  0  0  0  0
  189.7300  174.5790  146.0040 C   0  0  0  0  0  2  0  0  0  0  0  0
  190.2160  175.7960  145.2140 C   0  0  1  0  0  0  0  0  0  0  0  0
  189.8500  174.8200  147.5080 C   0  0  0  0  0  2  0  0  0  0  0  0
  191.4830  175.5800  144.4160 C   0  0  0  0  0  2  0  0  0  0  0  0
  190.3920  171.7430  140.5260 C   0  0  0  0  0  2  0  0  0  0  0  0
  189.2530  174.0170  140.4100 C   0  0  0  0  0  3  0  0  0  0  0  0
  190.2780  171.9180  139.0810 N   0  0  0  0  0  0  0  0  0  0  0  0
  190.0990  173.0580  141.2560 C   0  0  0  0  0  2  0  0  0  0  0  0
  188.8670  172.1300  138.7430 C   0  0  0  0  0  2  0  0  0  0  0  0
  188.2280  173.2700  139.5550 C   0  0  0  0  0  2  0  0  0  0  0  0
  190.6410  170.7430  138.5160 O   0  0  0  0  0  1  0  0  0  0  0  0
  1  2  1  0  0  0  0
  2  6  2  0  0  0  0
  3  1  1  0  0  0  0
  4 12  1  0  0  0  0
  4 13  1  0  0  0  0
  5  4  2  0  0  0  0
  7 11  2  0  0  0  0
  7 12  1  0  0  0  0
  8  1  1  0  0  0  0
  8  9  1  0  0  0  0
 10  9  2  0  0  0  0
 10 14  1  0  0  0  0
 11  3  1  0  0  0  0
 12  8  2  0  0  0  0
 13 10  1  0  0  0  0
 15 18  2  0  0  0  0
 16 22  1  6  0  0  0
 16 17  1  0  0  0  0
 17 15  1  0  0  0  0
 19 21  1  0  0  0  0
 20  2  1  6  0  0  0
 20 16  1  0  0  0  0
 20 19  1  0  0  0  0
 21 15  1  0  0  0  0
 22 20  1  0  0  0  0
 23 26  1  0  0  0  0
 24 26  1  0  0  0  0
 24 11  1  0  0  0  0
 25 23  1  0  0  0  0
 27 25  1  0  0  0  0
 27 28  1  0  0  0  0
 28 24  1  0  0  0  0
 29 25  1  0  0  0  0
M  END
>  <MODEL>
9

>  <REMARK>
 VINA RESULT:      -7.6      2.797      5.826
  Name = 
  2 active torsions:
  status: ('A' for Active; 'I' for Inactive)
    1  A    between atoms: C_2  and  C_18
    2  A    between atoms: C_5  and  C_23
                            x       y       z     vdW  Elec       q    Type
                         _______ _______ _______ _____ _____    ______ ____

>  <TORSDO>
F 2

$$$$
