=
 OpenBabel11062423033D

 62 68  0  0  1  0  0  0  0  0999 V2000
  191.4840  170.5620  139.3260 C   0  0  2  0  0  3  0  0  0  0  0  0
  190.6950  172.2680  142.8720 O   0  0  0  0  0  0  0  0  0  0  0  0
  190.6510  170.8320  140.5970 C   0  0  1  0  0  3  0  0  0  0  0  0
  191.4290  171.4670  136.9710 C   0  0  2  0  0  3  0  0  0  0  0  0
  190.5400  173.7350  139.2350 C   0  0  0  0  0  3  0  0  0  0  0  0
  192.7130  172.3650  141.4870 O   0  0  0  0  0  0  0  0  0  0  0  0
  191.6100  173.3890  138.5330 C   0  0  0  0  0  3  0  0  0  0  0  0
  190.6350  170.7200  138.0630 C   0  0  0  0  0  2  0  0  0  0  0  0
  190.6590  169.7400  141.4740 O   0  0  0  0  0  1  0  0  0  0  0  0
  190.5880  173.7250  140.6620 N   0  0  0  0  0  0  0  0  0  0  0  0
  191.4480  173.0060  137.1100 C   0  0  0  0  0  2  0  0  0  0  0  0
  191.2110  172.3090  141.4580 S   0  0  0  0  0  0  0  0  0  0  0  0
  190.9670  171.0700  135.6400 N   0  0  0  0  0  2  0  0  0  0  0  0
  191.0350  172.1540  134.8260 O   0  0  0  0  0  1  0  0  0  0  0  0
  189.8250  174.7100  141.4170 C   0  0  0  0  0  2  0  0  0  0  0  0
  188.3430  177.3020  142.0000 C   0  0  1  0  0  3  0  0  0  0  0  0
  189.0650  177.1130  144.4920 C   0  0  2  0  0  0  0  0  0  0  0  0
  187.0130  175.8040  143.6140 C   0  0  0  0  0  0  0  0  0  0  0  0
  187.7260  176.3640  140.5470 S   0  0  0  0  0  0  0  0  0  0  0  0
  186.0990  176.2910  144.5660 O   0  0  0  0  0  0  0  0  0  0  0  0
  190.4360  176.7890  144.4700 O   0  0  0  0  0  0  0  0  0  0  0  0
  187.3450  178.0410  145.9840 C   0  0  1  0  0  3  0  0  0  0  0  0
  186.7170  174.6820  143.0280 N   0  0  0  0  0  0  0  0  0  0  0  0
  187.6260  178.4870  142.1310 O   0  0  0  0  0  1  0  0  0  0  0  0
  188.3180  176.5000  143.3020 C   0  0  1  0  0  3  0  0  0  0  0  0
  187.4510  173.9990  141.9950 C   0  0  0  0  0  0  0  0  0  0  0  0
  190.1000  178.1430  144.2430 C   0  0  0  0  0  2  0  0  0  0  0  0
  188.3520  174.7020  141.0130 C   0  0  2  0  0  3  0  0  0  0  0  0
  186.1200  177.5760  145.2030 C   0  0  2  0  0  0  0  0  0  0  0  0
  187.2950  172.7540  141.8790 O   0  0  0  0  0  0  0  0  0  0  0  0
  186.1640  177.4260  146.7080 C   0  0  0  0  0  2  0  0  0  0  0  0
  188.4860  177.0470  145.8930 C   0  0  0  0  0  2  0  0  0  0  0  0
  183.9910  178.7570  145.8160 C   0  0  0  0  0  1  0  0  0  0  0  0
  184.5250  178.2570  143.5550 O   0  0  0  0  0  1  0  0  0  0  0  0
  185.0870  178.6120  144.7750 C   0  0  2  0  0  3  0  0  0  0  0  0
  192.2100  169.2240  139.3190 C   0  0  0  0  0  2  0  0  0  0  0  0
  193.6980  169.4650  139.1470 C   0  0  0  0  0  2  0  0  0  0  0  0
  194.3860  169.5560  140.5100 C   0  0  0  0  0  2  0  0  0  0  0  0
  195.8360  169.3150  140.4730 N   0  0  0  0  0  0  0  0  0  0  0  0
  196.4140  169.3000  141.8160 C   0  0  0  0  0  2  0  0  0  0  0  0
  195.8090  168.1730  142.6270 C   0  0  0  0  0  2  0  0  0  0  0  0
  196.1120  168.3720  144.0370 N   0  0  0  0  0  2  0  0  0  0  0  0
  195.2580  169.1330  144.8930 C   0  0  0  0  0  0  0  0  0  0  0  0
  194.2560  169.7340  144.4210 O   0  0  0  0  0  0  0  0  0  0  0  0
  197.1860  168.4290  148.0160 C   0  0  0  0  0  1  0  0  0  0  0  0
  196.6500  170.3420  146.5530 C   0  0  0  0  0  2  0  0  0  0  0  0
  197.0300  168.8790  146.5770 C   0  0  2  0  0  3  0  0  0  0  0  0
  195.5850  169.2800  146.3440 C   0  0  2  0  0  3  0  0  0  0  0  0
  196.5060  170.2800  139.5970 C   0  0  0  0  0  2  0  0  0  0  0  0
  197.1690  171.2810  140.3250 O   0  0  0  0  0  0  0  0  0  0  0  0
  196.6420  172.4810  139.8420 C   0  0  0  0  0  2  0  0  0  0  0  0
  196.5340  174.7050  140.2480 O   0  0  0  0  0  1  0  0  0  0  0  0
  197.3040  173.6140  140.4760 N   0  0  0  0  0  0  0  0  0  0  0  0
  197.3030  173.3890  141.9130 C   0  0  0  0  0  2  0  0  0  0  0  0
  197.5080  175.8550  143.6500 O   0  0  0  0  0  0  0  0  0  0  0  0
  195.2210  173.2440  143.1940 N   0  0  0  0  0  2  0  0  0  0  0  0
  196.1750  174.1640  142.5930 C   0  0  1  0  0  3  0  0  0  0  0  0
  196.1370  174.5020  145.0690 C   0  0  1  0  0  3  0  0  0  0  0  0
  194.4390  172.7980  145.3610 O   0  0  0  0  0  0  0  0  0  0  0  0
  195.2010  173.4490  144.5980 C   0  0  0  0  0  0  0  0  0  0  0  0
  197.2230  173.8840  145.9350 C   0  0  0  0  0  1  0  0  0  0  0  0
  196.7130  174.9340  143.7590 C   0  0  0  0  0  0  0  0  0  0  0  0
  1 36  1  1  0  0  0
  1  3  1  0  0  0  0
  3 12  1  0  0  0  0
  3  9  1  1  0  0  0
  4 13  1  6  0  0  0
  4 11  1  0  0  0  0
  4  8  1  0  0  0  0
  5 10  1  0  0  0  0
  7  5  2  0  0  0  0
  8  1  1  0  0  0  0
 10 15  1  0  0  0  0
 10 12  1  0  0  0  0
 11  7  1  0  0  0  0
 12  6  2  0  0  0  0
 12  2  2  0  0  0  0
 14 13  1  0  0  0  0
 16 24  1  1  0  0  0
 16 25  1  0  0  0  0
 17 27  1  6  0  0  0
 17 32  1  0  0  0  0
 18 20  1  0  0  0  0
 19 28  1  0  0  0  0
 19 16  1  0  0  0  0
 20 29  1  0  0  0  0
 21 17  1  0  0  0  0
 22 32  1  6  0  0  0
 22 31  1  0  0  0  0
 23 18  2  0  0  0  0
 25 18  1  1  0  0  0
 25 17  1  0  0  0  0
 26 23  1  0  0  0  0
 27 21  1  0  0  0  0
 28 15  1  1  0  0  0
 28 26  1  0  0  0  0
 29 35  1  6  0  0  0
 29 22  1  0  0  0  0
 29 31  1  0  0  0  0
 30 26  2  0  0  0  0
 34 35  1  0  0  0  0
 35 33  1  1  0  0  0
 37 36  1  0  0  0  0
 37 38  1  0  0  0  0
 39 38  1  0  0  0  0
 39 40  1  0  0  0  0
 40 41  1  0  0  0  0
 41 42  1  0  0  0  0
 42 43  1  0  0  0  0
 44 43  2  0  0  0  0
 46 47  1  0  0  0  0
 47 45  1  1  0  0  0
 48 43  1  6  0  0  0
 48 46  1  0  0  0  0
 48 47  1  0  0  0  0
 49 50  1  0  0  0  0
 49 39  1  0  0  0  0
 51 50  1  0  0  0  0
 51 53  1  0  0  0  0
 52 53  1  0  0  0  0
 53 54  1  0  0  0  0
 55 62  2  0  0  0  0
 56 60  1  0  0  0  0
 57 54  1  1  0  0  0
 57 56  1  0  0  0  0
 57 62  1  0  0  0  0
 58 61  1  1  0  0  0
 60 58  1  0  0  0  0
 60 59  2  0  0  0  0
 62 58  1  0  0  0  0
M  END
>  <MODEL>
1

>  <REMARK>
 VINA RESULT:      -5.9      0.000      0.000
  Name = 
  18 active torsions:
  status: ('A' for Active; 'I' for Inactive)
    1  A    between atoms: C_4  and  O_7
    2  A    between atoms: C_4  and  N_56
    3  A    between atoms: N_5  and  C_47
    4  A    between atoms: O_7  and  C_55
    5  A    between atoms: C_10  and  C_38
    6  A    between atoms: C_13  and  C_47
    7  A    between atoms: C_13  and  N_56
    8  A    between atoms: C_18  and  C_59
    9  A    between atoms: N_19  and  C_38
   10  A    between atoms: N_19  and  C_55
   11  A    between atoms: C_21  and  C_61
   12  A    between atoms: C_26  and  N_32
   13  A    between atoms: C_29  and  C_45
   14  A    between atoms: C_31  and  C_37
   15  A    between atoms: C_31  and  C_59
   16  A    between atoms: C_37  and  N_56
   17  A    between atoms: C_41  and  C_52
   18  A    between atoms: C_52  and  N_53
                            x       y       z     vdW  Elec       q    Type
                         _______ _______ _______ _____ _____    ______ ____

>  <TORSDO>
F 18

$$$$
=
 OpenBabel11062423033D

 62 68  0  0  1  0  0  0  0  0999 V2000
  187.8290  175.8430  144.1990 C   0  0  2  0  0  3  0  0  0  0  0  0
  191.2590  175.2200  142.2120 O   0  0  0  0  0  0  0  0  0  0  0  0
  189.0370  175.0140  143.7140 C   0  0  1  0  0  3  0  0  0  0  0  0
  187.3140  177.1180  146.3140 C   0  0  2  0  0  3  0  0  0  0  0  0
  190.5460  177.1830  145.5340 C   0  0  0  0  0  3  0  0  0  0  0  0
  189.7630  177.1590  142.2090 O   0  0  0  0  0  0  0  0  0  0  0  0
  189.4740  177.9530  145.4150 C   0  0  0  0  0  3  0  0  0  0  0  0
  187.6560  175.7390  145.7150 C   0  0  0  0  0  2  0  0  0  0  0  0
  188.6710  174.0570  142.7590 O   0  0  0  0  0  1  0  0  0  0  0  0
  191.2530  176.7580  144.3680 N   0  0  0  0  0  0  0  0  0  0  0  0
  188.5250  178.0500  146.5500 C   0  0  0  0  0  2  0  0  0  0  0  0
  190.3430  176.0630  143.0580 S   0  0  0  0  0  0  0  0  0  0  0  0
  186.5300  176.9650  147.5400 N   0  0  0  0  0  2  0  0  0  0  0  0
  185.3830  177.6770  147.4030 O   0  0  0  0  0  1  0  0  0  0  0  0
  192.7000  176.5900  144.4220 C   0  0  0  0  0  2  0  0  0  0  0  0
  195.6100  175.7150  144.2750 C   0  0  1  0  0  3  0  0  0  0  0  0
  195.2540  175.0740  141.7800 C   0  0  2  0  0  0  0  0  0  0  0  0
  194.5630  173.4450  143.6680 C   0  0  0  0  0  0  0  0  0  0  0  0
  194.8660  175.6620  145.9530 S   0  0  0  0  0  0  0  0  0  0  0  0
  195.2970  172.3410  143.1970 O   0  0  0  0  0  0  0  0  0  0  0  0
  194.5580  176.1540  141.2010 O   0  0  0  0  0  0  0  0  0  0  0  0
  196.6430  173.1440  141.1560 C   0  0  1  0  0  3  0  0  0  0  0  0
  193.5630  173.1970  144.4600 N   0  0  0  0  0  0  0  0  0  0  0  0
  196.9500  175.3480  144.3440 O   0  0  0  0  0  1  0  0  0  0  0  0
  194.8610  174.8660  143.2470 C   0  0  1  0  0  3  0  0  0  0  0  0
  192.6900  174.1390  145.1100 C   0  0  0  0  0  0  0  0  0  0  0  0
  195.9490  176.3210  141.3860 C   0  0  0  0  0  2  0  0  0  0  0  0
  193.1000  175.5460  145.4630 C   0  0  2  0  0  3  0  0  0  0  0  0
  196.5320  172.3740  142.4680 C   0  0  2  0  0  0  0  0  0  0  0  0
  191.5370  173.7520  145.4410 O   0  0  0  0  0  0  0  0  0  0  0  0
  196.3920  171.6490  141.1480 C   0  0  0  0  0  2  0  0  0  0  0  0
  195.3690  173.8950  140.8300 C   0  0  0  0  0  2  0  0  0  0  0  0
  197.9410  170.4640  143.2840 C   0  0  0  0  0  1  0  0  0  0  0  0
  197.8330  172.5200  144.4710 O   0  0  0  0  0  1  0  0  0  0  0  0
  197.8120  171.9730  143.1930 C   0  0  2  0  0  3  0  0  0  0  0  0
  186.5200  175.5260  143.4890 C   0  0  0  0  0  2  0  0  0  0  0  0
  185.7840  176.8210  143.1980 C   0  0  0  0  0  2  0  0  0  0  0  0
  186.4720  177.5840  142.0660 C   0  0  0  0  0  2  0  0  0  0  0  0
  185.7670  177.5220  140.7770 N   0  0  0  0  0  0  0  0  0  0  0  0
  186.6720  177.7610  139.6550 C   0  0  0  0  0  2  0  0  0  0  0  0
  186.4980  176.6790  138.6090 C   0  0  0  0  0  2  0  0  0  0  0  0
  187.4480  175.6050  138.8580 N   0  0  0  0  0  2  0  0  0  0  0  0
  188.0980  174.9090  137.7920 C   0  0  0  0  0  0  0  0  0  0  0  0
  187.7910  175.1510  136.5940 O   0  0  0  0  0  0  0  0  0  0  0  0
  190.0560  172.6350  140.0170 C   0  0  0  0  0  1  0  0  0  0  0  0
  188.4230  172.4800  138.1750 C   0  0  0  0  0  2  0  0  0  0  0  0
  188.7840  173.2220  139.4420 C   0  0  2  0  0  3  0  0  0  0  0  0
  189.0960  173.8390  138.0910 C   0  0  2  0  0  3  0  0  0  0  0  0
  184.6200  178.4340  140.7620 C   0  0  0  0  0  2  0  0  0  0  0  0
  183.4540  177.8230  141.2500 O   0  0  0  0  0  0  0  0  0  0  0  0
  182.4190  178.3670  140.4850 C   0  0  0  0  0  2  0  0  0  0  0  0
  181.6300  178.7220  142.5760 O   0  0  0  0  0  1  0  0  0  0  0  0
  181.2220  178.5290  141.2990 N   0  0  0  0  0  0  0  0  0  0  0  0
  180.5540  179.7520  140.8790 C   0  0  0  0  0  2  0  0  0  0  0  0
  177.7960  179.8160  142.1150 O   0  0  0  0  0  0  0  0  0  0  0  0
  179.3210  178.2660  139.3720 N   0  0  0  0  0  2  0  0  0  0  0  0
  179.2120  179.4480  140.2140 C   0  0  1  0  0  3  0  0  0  0  0  0
  177.7040  177.6570  141.0890 C   0  0  1  0  0  3  0  0  0  0  0  0
  178.3380  176.1370  139.3120 O   0  0  0  0  0  0  0  0  0  0  0  0
  178.4570  177.2580  139.8720 C   0  0  0  0  0  0  0  0  0  0  0  0
  178.1410  176.8090  142.2730 C   0  0  0  0  0  1  0  0  0  0  0  0
  178.2050  179.0550  141.2510 C   0  0  0  0  0  0  0  0  0  0  0  0
  1 36  1  6  0  0  0
  1  8  1  0  0  0  0
  2 12  2  0  0  0  0
  3  9  1  6  0  0  0
  3  1  1  0  0  0  0
  4 11  1  0  0  0  0
  4 13  1  1  0  0  0
  6 12  2  0  0  0  0
  7  5  2  0  0  0  0
  7 11  1  0  0  0  0
  8  4  1  0  0  0  0
 10 15  1  0  0  0  0
 10  5  1  0  0  0  0
 12  3  1  0  0  0  0
 12 10  1  0  0  0  0
 14 13  1  0  0  0  0
 16 24  1  1  0  0  0
 16 19  1  0  0  0  0
 17 32  1  6  0  0  0
 17 25  1  0  0  0  0
 18 23  2  0  0  0  0
 20 18  1  0  0  0  0
 21 27  1  0  0  0  0
 21 17  1  0  0  0  0
 22 32  1  1  0  0  0
 22 29  1  0  0  0  0
 23 26  1  0  0  0  0
 25 18  1  1  0  0  0
 25 16  1  0  0  0  0
 26 30  2  0  0  0  0
 26 28  1  0  0  0  0
 27 17  1  0  0  0  0
 28 15  1  6  0  0  0
 28 19  1  0  0  0  0
 29 35  1  1  0  0  0
 29 20  1  0  0  0  0
 31 22  1  0  0  0  0
 31 29  1  0  0  0  0
 35 33  1  1  0  0  0
 35 34  1  0  0  0  0
 37 36  1  0  0  0  0
 38 37  1  0  0  0  0
 39 38  1  0  0  0  0
 40 39  1  0  0  0  0
 41 42  1  0  0  0  0
 41 40  1  0  0  0  0
 43 42  1  0  0  0  0
 44 43  2  0  0  0  0
 46 47  1  0  0  0  0
 47 45  1  1  0  0  0
 48 43  1  6  0  0  0
 48 46  1  0  0  0  0
 48 47  1  0  0  0  0
 49 39  1  0  0  0  0
 49 50  1  0  0  0  0
 51 50  1  0  0  0  0
 51 53  1  0  0  0  0
 53 52  1  0  0  0  0
 54 53  1  0  0  0  0
 56 60  1  0  0  0  0
 56 57  1  0  0  0  0
 57 54  1  1  0  0  0
 57 62  1  0  0  0  0
 58 62  1  0  0  0  0
 58 61  1  1  0  0  0
 59 60  2  0  0  0  0
 60 58  1  0  0  0  0
 62 55  2  0  0  0  0
M  END
>  <MODEL>
2

>  <REMARK>
 VINA RESULT:      -5.9      3.976     12.178
  Name = 
  18 active torsions:
  status: ('A' for Active; 'I' for Inactive)
    1  A    between atoms: C_4  and  O_7
    2  A    between atoms: C_4  and  N_56
    3  A    between atoms: N_5  and  C_47
    4  A    between atoms: O_7  and  C_55
    5  A    between atoms: C_10  and  C_38
    6  A    between atoms: C_13  and  C_47
    7  A    between atoms: C_13  and  N_56
    8  A    between atoms: C_18  and  C_59
    9  A    between atoms: N_19  and  C_38
   10  A    between atoms: N_19  and  C_55
   11  A    between atoms: C_21  and  C_61
   12  A    between atoms: C_26  and  N_32
   13  A    between atoms: C_29  and  C_45
   14  A    between atoms: C_31  and  C_37
   15  A    between atoms: C_31  and  C_59
   16  A    between atoms: C_37  and  N_56
   17  A    between atoms: C_41  and  C_52
   18  A    between atoms: C_52  and  N_53
                            x       y       z     vdW  Elec       q    Type
                         _______ _______ _______ _____ _____    ______ ____

>  <TORSDO>
F 18

$$$$
=
 OpenBabel11062423033D

 62 68  0  0  1  0  0  0  0  0999 V2000
  194.5430  173.9330  139.5420 C   0  0  2  0  0  3  0  0  0  0  0  0
  190.7270  173.9060  140.7840 O   0  0  0  0  0  0  0  0  0  0  0  0
  193.0330  174.2370  139.4390 C   0  0  1  0  0  3  0  0  0  0  0  0
  196.5510  175.2620  140.2950 C   0  0  2  0  0  3  0  0  0  0  0  0
  193.7920  176.0450  141.9790 C   0  0  0  0  0  3  0  0  0  0  0  0
  192.7040  172.8160  141.7340 O   0  0  0  0  0  0  0  0  0  0  0  0
  194.8740  175.2930  142.1260 C   0  0  0  0  0  3  0  0  0  0  0  0
  195.3810  175.1880  139.2930 C   0  0  0  0  0  2  0  0  0  0  0  0
  192.4000  173.4440  138.4740 O   0  0  0  0  0  1  0  0  0  0  0  0
  192.4950  175.4480  142.0130 N   0  0  0  0  0  0  0  0  0  0  0  0
  196.1870  175.8220  141.6890 C   0  0  0  0  0  2  0  0  0  0  0  0
  192.2060  174.0450  141.0250 S   0  0  0  0  0  0  0  0  0  0  0  0
  197.6760  175.9980  139.7160 N   0  0  0  0  0  2  0  0  0  0  0  0
  197.8300  175.5960  138.4300 O   0  0  0  0  0  1  0  0  0  0  0  0
  191.3740  176.1880  142.5760 C   0  0  0  0  0  2  0  0  0  0  0  0
  188.4630  175.5090  143.1410 C   0  0  1  0  0  3  0  0  0  0  0  0
  187.7810  177.8620  142.2660 C   0  0  2  0  0  0  0  0  0  0  0  0
  188.6210  177.5530  144.6940 C   0  0  0  0  0  0  0  0  0  0  0  0
  189.6870  174.5870  144.1530 S   0  0  0  0  0  0  0  0  0  0  0  0
  187.5130  178.1530  145.3190 O   0  0  0  0  0  0  0  0  0  0  0  0
  188.4950  178.0470  141.0660 O   0  0  0  0  0  0  0  0  0  0  0  0
  185.8150  178.7170  143.4690 C   0  0  1  0  0  3  0  0  0  0  0  0
  189.7290  177.5050  145.3720 N   0  0  0  0  0  0  0  0  0  0  0  0
  187.1780  175.0750  143.4490 O   0  0  0  0  0  1  0  0  0  0  0  0
  188.5760  177.0280  143.2780 C   0  0  1  0  0  3  0  0  0  0  0  0
  190.9810  176.9100  144.9840 C   0  0  0  0  0  0  0  0  0  0  0  0
  187.3410  177.2350  140.9980 C   0  0  0  0  0  2  0  0  0  0  0  0
  191.0910  175.7620  144.0150 C   0  0  2  0  0  3  0  0  0  0  0  0
  186.1580  178.1630  144.8490 C   0  0  2  0  0  0  0  0  0  0  0  0
  192.0370  177.3440  145.5190 O   0  0  0  0  0  0  0  0  0  0  0  0
  185.6530  179.5820  144.7030 C   0  0  0  0  0  2  0  0  0  0  0  0
  187.0530  179.1220  142.6970 C   0  0  0  0  0  2  0  0  0  0  0  0
  184.1350  178.1110  146.3340 C   0  0  0  0  0  1  0  0  0  0  0  0
  185.7820  176.4000  146.4230 O   0  0  0  0  0  1  0  0  0  0  0  0
  185.1390  177.2780  145.5580 C   0  0  2  0  0  3  0  0  0  0  0  0
  195.0180  172.7880  138.6570 C   0  0  0  0  0  2  0  0  0  0  0  0
  196.1340  172.0420  139.3640 C   0  0  0  0  0  2  0  0  0  0  0  0
  195.7830  171.8230  140.8360 C   0  0  0  0  0  2  0  0  0  0  0  0
  195.8540  170.4200  141.2720 N   0  0  0  0  0  0  0  0  0  0  0  0
  196.9160  170.2150  142.2550 C   0  0  0  0  0  2  0  0  0  0  0  0
  197.4650  171.5510  142.7110 C   0  0  0  0  0  2  0  0  0  0  0  0
  196.7310  172.0040  143.8840 N   0  0  0  0  0  2  0  0  0  0  0  0
  196.9940  173.2670  144.4980 C   0  0  0  0  0  0  0  0  0  0  0  0
  197.9410  173.9890  144.0880 O   0  0  0  0  0  0  0  0  0  0  0  0
  194.6150  175.4920  146.3290 C   0  0  0  0  0  1  0  0  0  0  0  0
  194.7880  173.1350  145.6240 C   0  0  0  0  0  2  0  0  0  0  0  0
  195.0310  174.5670  145.2040 C   0  0  2  0  0  3  0  0  0  0  0  0
  196.1910  173.7110  145.6780 C   0  0  2  0  0  3  0  0  0  0  0  0
  195.9860  169.5190  140.1240 C   0  0  0  0  0  2  0  0  0  0  0  0
  194.8210  168.7670  139.9070 O   0  0  0  0  0  0  0  0  0  0  0  0
  194.4760  169.0190  138.5770 C   0  0  0  0  0  2  0  0  0  0  0  0
  192.4810  169.3140  139.6030 O   0  0  0  0  0  1  0  0  0  0  0  0
  193.0290  168.9710  138.4130 N   0  0  0  0  0  0  0  0  0  0  0  0
  192.6490  170.0020  137.4600 C   0  0  0  0  0  2  0  0  0  0  0  0
  191.5860  169.4760  134.6790 O   0  0  0  0  0  0  0  0  0  0  0  0
  190.3560  170.8370  137.6610 N   0  0  0  0  0  2  0  0  0  0  0  0
  191.1950  169.8370  137.0180 C   0  0  1  0  0  3  0  0  0  0  0  0
  190.1880  171.3230  135.2790 C   0  0  1  0  0  3  0  0  0  0  0  0
  188.9900  172.6070  136.9490 O   0  0  0  0  0  0  0  0  0  0  0  0
  189.7820  171.6700  136.6660 C   0  0  0  0  0  0  0  0  0  0  0  0
  191.0100  172.4520  134.6790 C   0  0  0  0  0  1  0  0  0  0  0  0
  191.0660  170.1460  135.5590 C   0  0  0  0  0  0  0  0  0  0  0  0
  1 36  1  6  0  0  0
  2 12  2  0  0  0  0
  3  9  1  6  0  0  0
  3  1  1  0  0  0  0
  3 12  1  0  0  0  0
  4 13  1  6  0  0  0
  4 11  1  0  0  0  0
  5 10  1  0  0  0  0
  5  7  2  0  0  0  0
  8  1  1  0  0  0  0
  8  4  1  0  0  0  0
 10 15  1  0  0  0  0
 11  7  1  0  0  0  0
 12  6  2  0  0  0  0
 12 10  1  0  0  0  0
 14 13  1  0  0  0  0
 16 25  1  0  0  0  0
 16 24  1  1  0  0  0
 16 19  1  0  0  0  0
 17 27  1  6  0  0  0
 17 32  1  0  0  0  0
 17 25  1  0  0  0  0
 18 20  1  0  0  0  0
 18 23  2  0  0  0  0
 21 17  1  0  0  0  0
 22 32  1  6  0  0  0
 22 31  1  0  0  0  0
 22 29  1  0  0  0  0
 25 18  1  1  0  0  0
 26 23  1  0  0  0  0
 26 30  2  0  0  0  0
 27 21  1  0  0  0  0
 28 15  1  6  0  0  0
 28 19  1  0  0  0  0
 28 26  1  0  0  0  0
 29 20  1  0  0  0  0
 29 35  1  1  0  0  0
 31 29  1  0  0  0  0
 35 33  1  1  0  0  0
 35 34  1  0  0  0  0
 36 37  1  0  0  0  0
 37 38  1  0  0  0  0
 38 39  1  0  0  0  0
 39 40  1  0  0  0  0
 40 41  1  0  0  0  0
 41 42  1  0  0  0  0
 42 43  1  0  0  0  0
 44 43  2  0  0  0  0
 46 48  1  0  0  0  0
 47 46  1  0  0  0  0
 47 48  1  0  0  0  0
 47 45  1  1  0  0  0
 48 43  1  6  0  0  0
 49 39  1  0  0  0  0
 50 49  1  0  0  0  0
 51 50  1  0  0  0  0
 53 51  1  0  0  0  0
 53 52  1  0  0  0  0
 54 53  1  0  0  0  0
 55 62  2  0  0  0  0
 57 54  1  1  0  0  0
 57 56  1  0  0  0  0
 58 61  1  1  0  0  0
 58 62  1  0  0  0  0
 58 60  1  0  0  0  0
 60 59  2  0  0  0  0
 60 56  1  0  0  0  0
 62 57  1  0  0  0  0
M  END
>  <MODEL>
3

>  <REMARK>
 VINA RESULT:      -5.6      2.489      5.770
  Name = 
  18 active torsions:
  status: ('A' for Active; 'I' for Inactive)
    1  A    between atoms: C_4  and  O_7
    2  A    between atoms: C_4  and  N_56
    3  A    between atoms: N_5  and  C_47
    4  A    between atoms: O_7  and  C_55
    5  A    between atoms: C_10  and  C_38
    6  A    between atoms: C_13  and  C_47
    7  A    between atoms: C_13  and  N_56
    8  A    between atoms: C_18  and  C_59
    9  A    between atoms: N_19  and  C_38
   10  A    between atoms: N_19  and  C_55
   11  A    between atoms: C_21  and  C_61
   12  A    between atoms: C_26  and  N_32
   13  A    between atoms: C_29  and  C_45
   14  A    between atoms: C_31  and  C_37
   15  A    between atoms: C_31  and  C_59
   16  A    between atoms: C_37  and  N_56
   17  A    between atoms: C_41  and  C_52
   18  A    between atoms: C_52  and  N_53
                            x       y       z     vdW  Elec       q    Type
                         _______ _______ _______ _____ _____    ______ ____

>  <TORSDO>
F 18

$$$$
=
 OpenBabel11062423033D

 62 68  0  0  1  0  0  0  0  0999 V2000
  187.1450  176.4810  140.0910 C   0  0  2  0  0  3  0  0  0  0  0  0
  189.5500  175.3240  143.0880 O   0  0  0  0  0  0  0  0  0  0  0  0
  188.3270  176.6210  141.0730 C   0  0  1  0  0  3  0  0  0  0  0  0
  186.9360  175.7000  137.7010 C   0  0  2  0  0  3  0  0  0  0  0  0
  189.3180  174.0880  139.3710 C   0  0  0  0  0  3  0  0  0  0  0  0
  187.4830  174.3160  142.2440 O   0  0  0  0  0  0  0  0  0  0  0  0
  188.0570  173.9070  139.0040 C   0  0  0  0  0  3  0  0  0  0  0  0
  187.5890  176.7270  138.6480 C   0  0  0  0  0  2  0  0  0  0  0  0
  188.0850  177.5900  142.0560 O   0  0  0  0  0  1  0  0  0  0  0  0
  189.6680  174.0750  140.7560 N   0  0  0  0  0  0  0  0  0  0  0  0
  187.6330  174.3220  137.6460 C   0  0  0  0  0  2  0  0  0  0  0  0
  188.7350  175.0520  141.8530 S   0  0  0  0  0  0  0  0  0  0  0  0
  186.7870  176.2620  136.3580 N   0  0  0  0  0  2  0  0  0  0  0  0
  187.8380  175.8490  135.6060 O   0  0  0  0  0  1  0  0  0  0  0  0
  190.9620  173.5480  141.1680 C   0  0  0  0  0  2  0  0  0  0  0  0
  192.3530  173.4170  143.8710 C   0  0  1  0  0  3  0  0  0  0  0  0
  194.5840  174.0880  142.7150 C   0  0  2  0  0  0  0  0  0  0  0  0
  193.7780  171.6300  142.6910 C   0  0  0  0  0  0  0  0  0  0  0  0
  190.8450  172.3790  143.7220 S   0  0  0  0  0  0  0  0  0  0  0  0
  194.9520  171.0760  143.2340 O   0  0  0  0  0  0  0  0  0  0  0  0
  194.2660  175.1650  141.8630 O   0  0  0  0  0  0  0  0  0  0  0  0
  196.5080  173.0380  143.8280 C   0  0  1  0  0  3  0  0  0  0  0  0
  193.0090  170.8340  142.0090 N   0  0  0  0  0  0  0  0  0  0  0  0
  192.8650  173.3170  145.1600 O   0  0  0  0  0  1  0  0  0  0  0  0
  193.4240  173.0920  142.8290 C   0  0  1  0  0  3  0  0  0  0  0  0
  191.7420  171.1360  141.3950 C   0  0  0  0  0  0  0  0  0  0  0  0
  194.4110  175.4640  143.2370 C   0  0  0  0  0  2  0  0  0  0  0  0
  190.8120  172.2110  141.8940 C   0  0  2  0  0  3  0  0  0  0  0  0
  195.8520  171.7010  144.1590 C   0  0  2  0  0  0  0  0  0  0  0  0
  191.3730  170.4320  140.4170 O   0  0  0  0  0  0  0  0  0  0  0  0
  197.2560  171.7400  143.5950 C   0  0  0  0  0  2  0  0  0  0  0  0
  196.0090  173.6050  142.5150 C   0  0  0  0  0  2  0  0  0  0  0  0
  196.9190  170.1790  145.8470 C   0  0  0  0  0  1  0  0  0  0  0  0
  194.6020  170.7010  145.9370 O   0  0  0  0  0  1  0  0  0  0  0  0
  195.8460  171.2260  145.6080 C   0  0  2  0  0  3  0  0  0  0  0  0
  185.9350  177.3400  140.4330 C   0  0  0  0  0  2  0  0  0  0  0  0
  185.7080  177.3070  141.9330 C   0  0  0  0  0  2  0  0  0  0  0  0
  184.8980  178.5250  142.3770 C   0  0  0  0  0  2  0  0  0  0  0  0
  183.9420  178.2540  143.4620 N   0  0  0  0  0  0  0  0  0  0  0  0
  182.6660  178.9290  143.2370 C   0  0  0  0  0  2  0  0  0  0  0  0
  182.0220  178.4080  141.9690 C   0  0  0  0  0  2  0  0  0  0  0  0
  181.0340  179.3660  141.4950 N   0  0  0  0  0  2  0  0  0  0  0  0
  179.6740  178.9950  141.2590 C   0  0  0  0  0  0  0  0  0  0  0  0
  179.3140  177.7930  141.3700 O   0  0  0  0  0  0  0  0  0  0  0  0
  178.6010  182.3590  140.0360 C   0  0  0  0  0  1  0  0  0  0  0  0
  178.5390  180.0060  139.2990 C   0  0  0  0  0  2  0  0  0  0  0  0
  179.3860  181.0660  139.9660 C   0  0  2  0  0  3  0  0  0  0  0  0
  178.6820  180.0190  140.8100 C   0  0  2  0  0  3  0  0  0  0  0  0
  184.5200  178.5920  144.7660 C   0  0  0  0  0  2  0  0  0  0  0  0
  184.8920  177.4490  145.4900 O   0  0  0  0  0  0  0  0  0  0  0  0
  186.2770  177.5560  145.6390 C   0  0  0  0  0  2  0  0  0  0  0  0
  186.0230  177.1180  147.8440 O   0  0  0  0  0  1  0  0  0  0  0  0
  186.6080  177.9900  146.9890 N   0  0  0  0  0  0  0  0  0  0  0  0
  188.0460  177.8560  147.1660 C   0  0  0  0  0  2  0  0  0  0  0  0
  188.4400  174.8770  147.4940 O   0  0  0  0  0  0  0  0  0  0  0  0
  189.8180  177.4260  145.5310 N   0  0  0  0  0  2  0  0  0  0  0  0
  188.6350  176.8630  146.1640 C   0  0  1  0  0  3  0  0  0  0  0  0
  190.6290  175.4690  146.7340 C   0  0  1  0  0  3  0  0  0  0  0  0
  192.0950  176.8750  145.4120 O   0  0  0  0  0  0  0  0  0  0  0  0
  190.9430  176.6240  145.8540 C   0  0  0  0  0  0  0  0  0  0  0  0
  191.3140  175.6410  148.0810 C   0  0  0  0  0  1  0  0  0  0  0  0
  189.1550  175.6570  146.8840 C   0  0  0  0  0  0  0  0  0  0  0  0
  1 36  1  1  0  0  0
  1  3  1  0  0  0  0
  3 12  1  0  0  0  0
  3  9  1  1  0  0  0
  4 13  1  6  0  0  0
  4  8  1  0  0  0  0
  5 10  1  0  0  0  0
  7  5  2  0  0  0  0
  8  1  1  0  0  0  0
 10 15  1  0  0  0  0
 10 12  1  0  0  0  0
 11  4  1  0  0  0  0
 11  7  1  0  0  0  0
 12  6  2  0  0  0  0
 12  2  2  0  0  0  0
 14 13  1  0  0  0  0
 16 24  1  1  0  0  0
 17 32  1  6  0  0  0
 17 25  1  0  0  0  0
 17 27  1  0  0  0  0
 18 20  1  0  0  0  0
 19 16  1  0  0  0  0
 20 29  1  0  0  0  0
 21 17  1  0  0  0  0
 21 27  1  0  0  0  0
 22 32  1  6  0  0  0
 22 29  1  0  0  0  0
 23 18  2  0  0  0  0
 25 18  1  1  0  0  0
 25 16  1  0  0  0  0
 26 28  1  0  0  0  0
 26 23  1  0  0  0  0
 28 15  1  6  0  0  0
 28 19  1  0  0  0  0
 29 35  1  1  0  0  0
 30 26  2  0  0  0  0
 31 22  1  0  0  0  0
 31 29  1  0  0  0  0
 35 33  1  6  0  0  0
 35 34  1  0  0  0  0
 36 37  1  0  0  0  0
 37 38  1  0  0  0  0
 38 39  1  0  0  0  0
 39 49  1  0  0  0  0
 40 39  1  0  0  0  0
 41 40  1  0  0  0  0
 42 41  1  0  0  0  0
 43 44  2  0  0  0  0
 43 42  1  0  0  0  0
 46 47  1  0  0  0  0
 46 48  1  0  0  0  0
 47 45  1  1  0  0  0
 47 48  1  0  0  0  0
 48 43  1  6  0  0  0
 49 50  1  0  0  0  0
 50 51  1  0  0  0  0
 51 53  1  0  0  0  0
 53 54  1  0  0  0  0
 53 52  1  0  0  0  0
 56 60  1  0  0  0  0
 56 57  1  0  0  0  0
 57 62  1  0  0  0  0
 57 54  1  1  0  0  0
 58 62  1  0  0  0  0
 58 61  1  1  0  0  0
 59 60  2  0  0  0  0
 60 58  1  0  0  0  0
 62 55  2  0  0  0  0
M  END
>  <MODEL>
4

>  <REMARK>
 VINA RESULT:      -5.4      3.587     11.214
  Name = 
  18 active torsions:
  status: ('A' for Active; 'I' for Inactive)
    1  A    between atoms: C_4  and  O_7
    2  A    between atoms: C_4  and  N_56
    3  A    between atoms: N_5  and  C_47
    4  A    between atoms: O_7  and  C_55
    5  A    between atoms: C_10  and  C_38
    6  A    between atoms: C_13  and  C_47
    7  A    between atoms: C_13  and  N_56
    8  A    between atoms: C_18  and  C_59
    9  A    between atoms: N_19  and  C_38
   10  A    between atoms: N_19  and  C_55
   11  A    between atoms: C_21  and  C_61
   12  A    between atoms: C_26  and  N_32
   13  A    between atoms: C_29  and  C_45
   14  A    between atoms: C_31  and  C_37
   15  A    between atoms: C_31  and  C_59
   16  A    between atoms: C_37  and  N_56
   17  A    between atoms: C_41  and  C_52
   18  A    between atoms: C_52  and  N_53
                            x       y       z     vdW  Elec       q    Type
                         _______ _______ _______ _____ _____    ______ ____

>  <TORSDO>
F 18

$$$$
=
 OpenBabel11062423033D

 62 68  0  0  1  0  0  0  0  0999 V2000
  194.5650  174.0900  137.5520 C   0  0  2  0  0  3  0  0  0  0  0  0
  193.4120  173.0250  141.2460 O   0  0  0  0  0  0  0  0  0  0  0  0
  193.7840  174.2410  138.8750 C   0  0  1  0  0  3  0  0  0  0  0  0
  196.7240  175.0530  136.6730 C   0  0  2  0  0  3  0  0  0  0  0  0
  196.7850  174.5660  139.9620 C   0  0  0  0  0  3  0  0  0  0  0  0
  194.7820  171.8210  139.6110 O   0  0  0  0  0  0  0  0  0  0  0  0
  197.1960  173.9640  138.8550 C   0  0  0  0  0  3  0  0  0  0  0  0
  195.3110  175.3770  137.1980 C   0  0  0  0  0  2  0  0  0  0  0  0
  192.4150  173.9900  138.7120 O   0  0  0  0  0  1  0  0  0  0  0  0
  195.8790  173.9010  140.8430 N   0  0  0  0  0  0  0  0  0  0  0  0
  197.7830  174.7790  137.7650 C   0  0  0  0  0  2  0  0  0  0  0  0
  194.4490  173.1790  140.1650 S   0  0  0  0  0  0  0  0  0  0  0  0
  197.1820  176.0960  135.7540 N   0  0  0  0  0  2  0  0  0  0  0  0
  196.1600  176.4030  134.9160 O   0  0  0  0  0  1  0  0  0  0  0  0
  195.9730  174.1250  142.2800 C   0  0  0  0  0  2  0  0  0  0  0  0
  195.0890  174.6610  145.1410 C   0  0  1  0  0  3  0  0  0  0  0  0
  193.0310  173.1180  144.7560 C   0  0  2  0  0  0  0  0  0  0  0  0
  192.9890  175.5860  143.9790 C   0  0  0  0  0  0  0  0  0  0  0  0
  196.1360  175.9710  144.3920 S   0  0  0  0  0  0  0  0  0  0  0  0
  191.8080  175.9420  144.6560 O   0  0  0  0  0  0  0  0  0  0  0  0
  193.5290  171.9650  144.1180 O   0  0  0  0  0  0  0  0  0  0  0  0
  191.0880  173.8980  146.0450 C   0  0  1  0  0  3  0  0  0  0  0  0
  193.3360  176.3230  142.9660 N   0  0  0  0  0  0  0  0  0  0  0  0
  194.7970  174.9920  146.4600 O   0  0  0  0  0  1  0  0  0  0  0  0
  193.8110  174.3740  144.3510 C   0  0  1  0  0  3  0  0  0  0  0  0
  194.5100  176.2030  142.1420 C   0  0  0  0  0  0  0  0  0  0  0  0
  193.7210  172.0500  145.5160 C   0  0  0  0  0  2  0  0  0  0  0  0
  195.8060  175.6040  142.6240 C   0  0  2  0  0  3  0  0  0  0  0  0
  191.3250  175.3980  145.8920 C   0  0  2  0  0  0  0  0  0  0  0  0
  194.4640  176.6650  140.9700 O   0  0  0  0  0  0  0  0  0  0  0  0
  189.9350  174.8260  145.7170 C   0  0  0  0  0  2  0  0  0  0  0  0
  191.5140  173.1280  144.8120 C   0  0  0  0  0  2  0  0  0  0  0  0
  190.2470  177.2110  147.2520 C   0  0  0  0  0  1  0  0  0  0  0  0
  192.6100  176.9780  147.1480 O   0  0  0  0  0  1  0  0  0  0  0  0
  191.4220  176.2560  147.1480 C   0  0  2  0  0  3  0  0  0  0  0  0
  193.7250  173.6170  136.3740 C   0  0  0  0  0  2  0  0  0  0  0  0
  193.3690  172.1550  136.5710 C   0  0  0  0  0  2  0  0  0  0  0  0
  192.0900  171.8080  135.8080 C   0  0  0  0  0  2  0  0  0  0  0  0
  191.6300  170.4230  135.9930 N   0  0  0  0  0  0  0  0  0  0  0  0
  191.7900  169.6350  134.7730 C   0  0  0  0  0  2  0  0  0  0  0  0
  192.8770  168.5980  134.9660 C   0  0  0  0  0  2  0  0  0  0  0  0
  194.1780  169.2080  134.7390 N   0  0  0  0  0  2  0  0  0  0  0  0
  195.2020  169.2000  135.7360 C   0  0  0  0  0  0  0  0  0  0  0  0
  194.9670  168.7360  136.8840 O   0  0  0  0  0  0  0  0  0  0  0  0
  197.5360  171.9680  134.8120 C   0  0  0  0  0  1  0  0  0  0  0  0
  197.1270  170.4320  136.6990 C   0  0  0  0  0  2  0  0  0  0  0  0
  196.4660  171.3060  135.6570 C   0  0  2  0  0  3  0  0  0  0  0  0
  196.5380  169.8040  135.4490 C   0  0  2  0  0  3  0  0  0  0  0  0
  190.2530  170.3900  136.4930 C   0  0  0  0  0  2  0  0  0  0  0  0
  190.0860  171.1890  137.6340 O   0  0  0  0  0  0  0  0  0  0  0  0
  189.1430  172.1500  137.2630 C   0  0  0  0  0  2  0  0  0  0  0  0
  188.7090  174.3570  137.5160 O   0  0  0  0  0  1  0  0  0  0  0  0
  189.1800  173.2770  138.1860 N   0  0  0  0  0  0  0  0  0  0  0  0
  188.2420  173.0070  139.2640 C   0  0  0  0  0  2  0  0  0  0  0  0
  187.0830  172.3010  141.9660 O   0  0  0  0  0  0  0  0  0  0  0  0
  189.8350  174.1020  140.7680 N   0  0  0  0  0  2  0  0  0  0  0  0
  188.9550  172.9530  140.6150 C   0  0  1  0  0  3  0  0  0  0  0  0
  188.1880  174.3420  142.5460 C   0  0  1  0  0  3  0  0  0  0  0  0
  189.9990  175.9220  142.2400 O   0  0  0  0  0  0  0  0  0  0  0  0
  189.3960  174.8800  141.8710 C   0  0  0  0  0  0  0  0  0  0  0  0
  187.0230  175.3040  142.3730 C   0  0  0  0  0  1  0  0  0  0  0  0
  187.9620  173.1150  141.7250 C   0  0  0  0  0  0  0  0  0  0  0  0
  1 36  1  6  0  0  0
  1  3  1  0  0  0  0
  3  9  1  6  0  0  0
  3 12  1  0  0  0  0
  4 13  1  1  0  0  0
  4  8  1  0  0  0  0
  4 11  1  0  0  0  0
  5 10  1  0  0  0  0
  6 12  2  0  0  0  0
  7  5  2  0  0  0  0
  8  1  1  0  0  0  0
 10 15  1  0  0  0  0
 11  7  1  0  0  0  0
 12 10  1  0  0  0  0
 12  2  2  0  0  0  0
 14 13  1  0  0  0  0
 16 24  1  1  0  0  0
 17 32  1  1  0  0  0
 17 27  1  0  0  0  0
 18 20  1  0  0  0  0
 19 16  1  0  0  0  0
 20 29  1  0  0  0  0
 21 17  1  0  0  0  0
 21 27  1  0  0  0  0
 22 32  1  6  0  0  0
 23 18  2  0  0  0  0
 25 18  1  1  0  0  0
 25 17  1  0  0  0  0
 25 16  1  0  0  0  0
 26 28  1  0  0  0  0
 26 23  1  0  0  0  0
 28 15  1  1  0  0  0
 28 19  1  0  0  0  0
 29 22  1  0  0  0  0
 29 35  1  1  0  0  0
 30 26  2  0  0  0  0
 31 29  1  0  0  0  0
 31 22  1  0  0  0  0
 35 34  1  0  0  0  0
 35 33  1  6  0  0  0
 36 37  1  0  0  0  0
 38 39  1  0  0  0  0
 38 37  1  0  0  0  0
 39 49  1  0  0  0  0
 40 41  1  0  0  0  0
 40 39  1  0  0  0  0
 42 41  1  0  0  0  0
 42 43  1  0  0  0  0
 43 44  2  0  0  0  0
 47 45  1  6  0  0  0
 47 46  1  0  0  0  0
 48 47  1  0  0  0  0
 48 43  1  1  0  0  0
 48 46  1  0  0  0  0
 49 50  1  0  0  0  0
 51 50  1  0  0  0  0
 51 53  1  0  0  0  0
 52 53  1  0  0  0  0
 53 54  1  0  0  0  0
 56 60  1  0  0  0  0
 57 54  1  6  0  0  0
 57 56  1  0  0  0  0
 57 62  1  0  0  0  0
 58 61  1  6  0  0  0
 60 59  2  0  0  0  0
 60 58  1  0  0  0  0
 62 55  2  0  0  0  0
 62 58  1  0  0  0  0
M  END
>  <MODEL>
5

>  <REMARK>
 VINA RESULT:      -5.0      3.339      7.447
  Name = 
  18 active torsions:
  status: ('A' for Active; 'I' for Inactive)
    1  A    between atoms: C_4  and  O_7
    2  A    between atoms: C_4  and  N_56
    3  A    between atoms: N_5  and  C_47
    4  A    between atoms: O_7  and  C_55
    5  A    between atoms: C_10  and  C_38
    6  A    between atoms: C_13  and  C_47
    7  A    between atoms: C_13  and  N_56
    8  A    between atoms: C_18  and  C_59
    9  A    between atoms: N_19  and  C_38
   10  A    between atoms: N_19  and  C_55
   11  A    between atoms: C_21  and  C_61
   12  A    between atoms: C_26  and  N_32
   13  A    between atoms: C_29  and  C_45
   14  A    between atoms: C_31  and  C_37
   15  A    between atoms: C_31  and  C_59
   16  A    between atoms: C_37  and  N_56
   17  A    between atoms: C_41  and  C_52
   18  A    between atoms: C_52  and  N_53
                            x       y       z     vdW  Elec       q    Type
                         _______ _______ _______ _____ _____    ______ ____

>  <TORSDO>
F 18

$$$$
=
 OpenBabel11062423033D

 62 68  0  0  1  0  0  0  0  0999 V2000
  191.4160  170.2140  139.5770 C   0  0  2  0  0  3  0  0  0  0  0  0
  190.4640  172.0760  143.0030 O   0  0  0  0  0  0  0  0  0  0  0  0
  190.5070  170.5710  140.7720 C   0  0  1  0  0  3  0  0  0  0  0  0
  191.5930  171.0440  137.2010 C   0  0  2  0  0  3  0  0  0  0  0  0
  190.6720  173.4310  139.3260 C   0  0  0  0  0  3  0  0  0  0  0  0
  192.5830  172.0120  141.7760 O   0  0  0  0  0  0  0  0  0  0  0  0
  191.7700  173.0020  138.7180 C   0  0  0  0  0  3  0  0  0  0  0  0
  190.6760  170.3790  138.2480 C   0  0  0  0  0  2  0  0  0  0  0  0
  190.3830  169.5100  141.6770 O   0  0  0  0  0  1  0  0  0  0  0  0
  190.6110  173.4650  140.7520 N   0  0  0  0  0  0  0  0  0  0  0  0
  191.6930  172.5830  137.2990 C   0  0  0  0  0  2  0  0  0  0  0  0
  191.0860  172.0410  141.6330 S   0  0  0  0  0  0  0  0  0  0  0  0
  191.2110  170.6320  135.8500 N   0  0  0  0  0  2  0  0  0  0  0  0
  191.4450  171.6690  135.0070 O   0  0  0  0  0  1  0  0  0  0  0  0
  189.8530  174.5150  141.4180 C   0  0  0  0  0  2  0  0  0  0  0  0
  188.4160  177.1490  141.9180 C   0  0  1  0  0  3  0  0  0  0  0  0
  188.9960  176.9460  144.4460 C   0  0  2  0  0  0  0  0  0  0  0  0
  186.9580  175.6930  143.4580 C   0  0  0  0  0  0  0  0  0  0  0  0
  187.8520  176.2260  140.4350 S   0  0  0  0  0  0  0  0  0  0  0  0
  186.0080  176.2080  144.3600 O   0  0  0  0  0  0  0  0  0  0  0  0
  190.3560  176.5830  144.4990 O   0  0  0  0  0  0  0  0  0  0  0  0
  187.2250  177.9250  145.8420 C   0  0  1  0  0  3  0  0  0  0  0  0
  186.6620  174.5790  142.8580 N   0  0  0  0  0  0  0  0  0  0  0  0
  187.7270  178.3550  142.0100 O   0  0  0  0  0  1  0  0  0  0  0  0
  188.2970  176.3510  143.2180 C   0  0  1  0  0  3  0  0  0  0  0  0
  187.4320  173.8730  141.8670 C   0  0  0  0  0  0  0  0  0  0  0  0
  190.0720  177.9450  144.2530 C   0  0  0  0  0  2  0  0  0  0  0  0
  188.4040  174.5480  140.9340 C   0  0  2  0  0  3  0  0  0  0  0  0
  186.0310  177.4930  144.9960 C   0  0  2  0  0  0  0  0  0  0  0  0
  187.2470  172.6330  141.7430 O   0  0  0  0  0  0  0  0  0  0  0  0
  185.9890  177.3450  146.5010 C   0  0  0  0  0  2  0  0  0  0  0  0
  188.3400  176.8990  145.8130 C   0  0  0  0  0  2  0  0  0  0  0  0
  183.9580  178.8020  145.5350 C   0  0  0  0  0  1  0  0  0  0  0  0
  184.4830  178.1750  143.3030 O   0  0  0  0  0  1  0  0  0  0  0  0
  185.0530  178.5570  144.5120 C   0  0  2  0  0  3  0  0  0  0  0  0
  192.0590  168.8370  139.6640 C   0  0  0  0  0  2  0  0  0  0  0  0
  193.5180  168.9420  139.2570 C   0  0  0  0  0  2  0  0  0  0  0  0
  194.3730  169.3860  140.4440 C   0  0  0  0  0  2  0  0  0  0  0  0
  195.7770  168.9540  140.3740 N   0  0  0  0  0  0  0  0  0  0  0  0
  196.4950  169.2490  141.6120 C   0  0  0  0  0  2  0  0  0  0  0  0
  195.5640  169.9190  142.6010 C   0  0  0  0  0  2  0  0  0  0  0  0
  196.0980  171.2250  142.9640 N   0  0  0  0  0  2  0  0  0  0  0  0
  195.3750  172.1310  143.8010 C   0  0  0  0  0  0  0  0  0  0  0  0
  194.2050  171.8540  144.1760 O   0  0  0  0  0  0  0  0  0  0  0  0
  195.4640  175.4310  145.5500 C   0  0  0  0  0  1  0  0  0  0  0  0
  196.7520  173.3290  145.4800 C   0  0  0  0  0  2  0  0  0  0  0  0
  195.3610  173.9210  145.4840 C   0  0  2  0  0  3  0  0  0  0  0  0
  195.9760  173.4450  144.1810 C   0  0  2  0  0  3  0  0  0  0  0  0
  196.4450  169.5270  139.2020 C   0  0  0  0  0  2  0  0  0  0  0  0
  197.2520  170.6250  139.5390 O   0  0  0  0  0  0  0  0  0  0  0  0
  197.0940  171.5230  138.4810 C   0  0  0  0  0  2  0  0  0  0  0  0
  197.7160  173.5290  137.6390 O   0  0  0  0  0  1  0  0  0  0  0  0
  197.9170  172.7060  138.6950 N   0  0  0  0  0  0  0  0  0  0  0  0
  197.4140  173.3970  139.8720 C   0  0  0  0  0  2  0  0  0  0  0  0
  196.9810  175.7110  141.7690 O   0  0  0  0  0  0  0  0  0  0  0  0
  195.9480  174.8390  138.5410 N   0  0  0  0  0  2  0  0  0  0  0  0
  197.0090  174.8330  139.5370 C   0  0  1  0  0  3  0  0  0  0  0  0
  194.9520  175.8640  140.5130 C   0  0  1  0  0  3  0  0  0  0  0  0
  193.7270  175.5870  138.4400 O   0  0  0  0  0  0  0  0  0  0  0  0
  194.7880  175.4320  139.1010 C   0  0  0  0  0  0  0  0  0  0  0  0
  194.0470  175.0410  141.4160 C   0  0  0  0  0  1  0  0  0  0  0  0
  196.3780  175.4780  140.7330 C   0  0  0  0  0  0  0  0  0  0  0  0
  1 36  1  1  0  0  0
  1  3  1  0  0  0  0
  3 12  1  0  0  0  0
  3  9  1  1  0  0  0
  4 13  1  6  0  0  0
  4 11  1  0  0  0  0
  4  8  1  0  0  0  0
  5 10  1  0  0  0  0
  7  5  2  0  0  0  0
  8  1  1  0  0  0  0
 10 15  1  0  0  0  0
 10 12  1  0  0  0  0
 11  7  1  0  0  0  0
 12  6  2  0  0  0  0
 12  2  2  0  0  0  0
 14 13  1  0  0  0  0
 16 24  1  1  0  0  0
 16 25  1  0  0  0  0
 17 27  1  6  0  0  0
 17 21  1  0  0  0  0
 17 32  1  0  0  0  0
 18 20  1  0  0  0  0
 19 28  1  0  0  0  0
 19 16  1  0  0  0  0
 20 29  1  0  0  0  0
 22 32  1  6  0  0  0
 22 31  1  0  0  0  0
 23 18  2  0  0  0  0
 25 18  1  1  0  0  0
 25 17  1  0  0  0  0
 26 23  1  0  0  0  0
 27 21  1  0  0  0  0
 28 15  1  1  0  0  0
 28 26  1  0  0  0  0
 29 35  1  6  0  0  0
 29 22  1  0  0  0  0
 29 31  1  0  0  0  0
 30 26  2  0  0  0  0
 34 35  1  0  0  0  0
 35 33  1  1  0  0  0
 37 36  1  0  0  0  0
 37 38  1  0  0  0  0
 39 38  1  0  0  0  0
 39 40  1  0  0  0  0
 40 41  1  0  0  0  0
 41 42  1  0  0  0  0
 42 43  1  0  0  0  0
 43 44  2  0  0  0  0
 46 47  1  0  0  0  0
 47 45  1  6  0  0  0
 48 43  1  1  0  0  0
 48 46  1  0  0  0  0
 48 47  1  0  0  0  0
 49 50  1  0  0  0  0
 49 39  1  0  0  0  0
 51 53  1  0  0  0  0
 51 50  1  0  0  0  0
 52 53  1  0  0  0  0
 53 54  1  0  0  0  0
 56 60  1  0  0  0  0
 56 57  1  0  0  0  0
 57 54  1  1  0  0  0
 57 62  1  0  0  0  0
 58 62  1  0  0  0  0
 58 61  1  1  0  0  0
 59 60  2  0  0  0  0
 60 58  1  0  0  0  0
 62 55  2  0  0  0  0
M  END
>  <MODEL>
6

>  <REMARK>
 VINA RESULT:      -4.9      1.482      2.441
  Name = 
  18 active torsions:
  status: ('A' for Active; 'I' for Inactive)
    1  A    between atoms: C_4  and  O_7
    2  A    between atoms: C_4  and  N_56
    3  A    between atoms: N_5  and  C_47
    4  A    between atoms: O_7  and  C_55
    5  A    between atoms: C_10  and  C_38
    6  A    between atoms: C_13  and  C_47
    7  A    between atoms: C_13  and  N_56
    8  A    between atoms: C_18  and  C_59
    9  A    between atoms: N_19  and  C_38
   10  A    between atoms: N_19  and  C_55
   11  A    between atoms: C_21  and  C_61
   12  A    between atoms: C_26  and  N_32
   13  A    between atoms: C_29  and  C_45
   14  A    between atoms: C_31  and  C_37
   15  A    between atoms: C_31  and  C_59
   16  A    between atoms: C_37  and  N_56
   17  A    between atoms: C_41  and  C_52
   18  A    between atoms: C_52  and  N_53
                            x       y       z     vdW  Elec       q    Type
                         _______ _______ _______ _____ _____    ______ ____

>  <TORSDO>
F 18

$$$$
=
 OpenBabel11062423033D

 62 68  0  0  1  0  0  0  0  0999 V2000
  194.3660  174.0490  144.7590 C   0  0  2  0  0  3  0  0  0  0  0  0
  196.9560  176.1870  142.5610 O   0  0  0  0  0  0  0  0  0  0  0  0
  194.7770  175.1170  143.7230 C   0  0  1  0  0  3  0  0  0  0  0  0
  193.5910  171.6540  144.5930 C   0  0  2  0  0  3  0  0  0  0  0  0
  195.7640  172.4650  142.2100 C   0  0  0  0  0  3  0  0  0  0  0  0
  197.3650  174.5790  144.3630 O   0  0  0  0  0  0  0  0  0  0  0  0
  195.7520  171.8520  143.3860 C   0  0  0  0  0  3  0  0  0  0  0  0
  193.2940  173.1140  144.1960 C   0  0  0  0  0  2  0  0  0  0  0  0
  194.5890  176.4190  144.2030 O   0  0  0  0  0  1  0  0  0  0  0  0
  196.5760  173.6230  142.0160 N   0  0  0  0  0  0  0  0  0  0  0  0
  194.6350  170.9340  143.7100 C   0  0  0  0  0  2  0  0  0  0  0  0
  196.4820  174.9040  143.1900 S   0  0  0  0  0  0  0  0  0  0  0  0
  192.3510  170.8800  144.6690 N   0  0  0  0  0  2  0  0  0  0  0  0
  191.3170  171.7050  144.3680 O   0  0  0  0  0  1  0  0  0  0  0  0
  197.1850  173.8690  140.7150 C   0  0  0  0  0  2  0  0  0  0  0  0
  194.7310  172.7450  139.3120 C   0  0  1  0  0  3  0  0  0  0  0  0
  196.2500  170.9920  138.1350 C   0  0  2  0  0  0  0  0  0  0  0  0
  196.0400  173.3930  137.1950 C   0  0  0  0  0  0  0  0  0  0  0  0
  194.5970  174.5040  139.8230 S   0  0  0  0  0  0  0  0  0  0  0  0
  195.6650  173.0170  135.8920 O   0  0  0  0  0  0  0  0  0  0  0  0
  197.0870  170.4720  139.1420 O   0  0  0  0  0  0  0  0  0  0  0  0
  195.4070  170.4560  135.8890 C   0  0  1  0  0  3  0  0  0  0  0  0
  196.5590  174.5760  137.3440 N   0  0  0  0  0  0  0  0  0  0  0  0
  193.5340  172.3330  138.7340 O   0  0  0  0  0  1  0  0  0  0  0  0
  195.9130  172.4670  138.3820 C   0  0  1  0  0  3  0  0  0  0  0  0
  196.9790  175.2130  138.5640 C   0  0  0  0  0  0  0  0  0  0  0  0
  195.7670  169.9690  139.0920 C   0  0  0  0  0  2  0  0  0  0  0  0
  196.3880  174.8970  139.9130 C   0  0  2  0  0  3  0  0  0  0  0  0
  194.9200  171.8520  135.5110 C   0  0  2  0  0  0  0  0  0  0  0  0
  197.8550  176.1160  138.4920 O   0  0  0  0  0  0  0  0  0  0  0  0
  195.6980  171.0230  134.5130 C   0  0  0  0  0  2  0  0  0  0  0  0
  196.6490  170.5040  136.7550 C   0  0  0  0  0  2  0  0  0  0  0  0
  192.9700  173.4290  135.3920 C   0  0  0  0  0  1  0  0  0  0  0  0
  192.6590  171.0940  135.7120 O   0  0  0  0  0  1  0  0  0  0  0  0
  193.4690  172.0300  135.0790 C   0  0  2  0  0  3  0  0  0  0  0  0
  193.9320  174.6110  146.1050 C   0  0  0  0  0  2  0  0  0  0  0  0
  192.4310  174.8290  146.0950 C   0  0  0  0  0  2  0  0  0  0  0  0
  192.0760  176.1430  146.7910 C   0  0  0  0  0  2  0  0  0  0  0  0
  190.7010  176.6050  146.5480 N   0  0  0  0  0  0  0  0  0  0  0  0
  189.7810  175.4850  146.3630 C   0  0  0  0  0  2  0  0  0  0  0  0
  188.6320  175.5920  147.3440 C   0  0  0  0  0  2  0  0  0  0  0  0
  187.4220  175.9810  146.6360 N   0  0  0  0  0  2  0  0  0  0  0  0
  186.9320  177.3240  146.6570 C   0  0  0  0  0  0  0  0  0  0  0  0
  187.4950  178.1950  147.3730 O   0  0  0  0  0  0  0  0  0  0  0  0
  184.7200  179.6230  144.7120 C   0  0  0  0  0  1  0  0  0  0  0  0
  185.9300  177.4960  144.3950 C   0  0  0  0  0  2  0  0  0  0  0  0
  186.0110  178.8820  144.9950 C   0  0  2  0  0  3  0  0  0  0  0  0
  185.7070  177.6900  145.8840 C   0  0  2  0  0  3  0  0  0  0  0  0
  190.6540  177.5460  145.4260 C   0  0  0  0  0  2  0  0  0  0  0  0
  190.8280  176.9020  144.1910 O   0  0  0  0  0  0  0  0  0  0  0  0
  190.3200  177.7970  143.2460 C   0  0  0  0  0  2  0  0  0  0  0  0
  188.4800  178.3600  142.0540 O   0  0  0  0  0  1  0  0  0  0  0  0
  189.0200  177.3440  142.7690 N   0  0  0  0  0  0  0  0  0  0  0  0
  189.2390  176.2450  141.8420 C   0  0  0  0  0  2  0  0  0  0  0  0
  191.6320  174.4000  141.7350 O   0  0  0  0  0  0  0  0  0  0  0  0
  188.2390  174.1250  142.5520 N   0  0  0  0  0  2  0  0  0  0  0  0
  189.4530  174.9270  142.5870 C   0  0  1  0  0  3  0  0  0  0  0  0
  189.8970  172.7960  141.3600 C   0  0  1  0  0  3  0  0  0  0  0  0
  187.6270  172.0230  141.7070 O   0  0  0  0  0  0  0  0  0  0  0  0
  188.5030  172.9140  141.8600 C   0  0  0  0  0  0  0  0  0  0  0  0
  189.9050  172.7850  139.8390 C   0  0  0  0  0  1  0  0  0  0  0  0
  190.4580  174.0860  141.8620 C   0  0  0  0  0  0  0  0  0  0  0  0
  1 36  1  1  0  0  0
  2 12  2  0  0  0  0
  3  9  1  1  0  0  0
  3  1  1  0  0  0  0
  4 13  1  6  0  0  0
  5  7  2  0  0  0  0
  7 11  1  0  0  0  0
  8  4  1  0  0  0  0
  8  1  1  0  0  0  0
 10  5  1  0  0  0  0
 10 12  1  0  0  0  0
 11  4  1  0  0  0  0
 12  3  1  0  0  0  0
 12  6  2  0  0  0  0
 14 13  1  0  0  0  0
 15 10  1  0  0  0  0
 16 24  1  6  0  0  0
 16 19  1  0  0  0  0
 17 32  1  6  0  0  0
 17 25  1  0  0  0  0
 17 27  1  0  0  0  0
 17 21  1  0  0  0  0
 18 23  2  0  0  0  0
 19 28  1  0  0  0  0
 20 18  1  0  0  0  0
 22 31  1  6  0  0  0
 22 32  1  0  0  0  0
 23 26  1  0  0  0  0
 25 18  1  6  0  0  0
 25 16  1  0  0  0  0
 26 28  1  0  0  0  0
 27 21  1  0  0  0  0
 28 15  1  6  0  0  0
 29 35  1  6  0  0  0
 29 22  1  0  0  0  0
 29 20  1  0  0  0  0
 30 26  2  0  0  0  0
 31 29  1  0  0  0  0
 35 33  1  1  0  0  0
 35 34  1  0  0  0  0
 37 36  1  0  0  0  0
 37 38  1  0  0  0  0
 39 38  1  0  0  0  0
 40 39  1  0  0  0  0
 40 41  1  0  0  0  0
 42 43  1  0  0  0  0
 42 41  1  0  0  0  0
 43 44  2  0  0  0  0
 46 47  1  0  0  0  0
 46 48  1  0  0  0  0
 47 45  1  6  0  0  0
 47 48  1  0  0  0  0
 48 43  1  1  0  0  0
 49 39  1  0  0  0  0
 50 49  1  0  0  0  0
 51 50  1  0  0  0  0
 52 53  1  0  0  0  0
 53 51  1  0  0  0  0
 54 53  1  0  0  0  0
 55 62  2  0  0  0  0
 56 57  1  0  0  0  0
 57 54  1  6  0  0  0
 58 61  1  6  0  0  0
 58 60  1  0  0  0  0
 58 62  1  0  0  0  0
 59 60  2  0  0  0  0
 60 56  1  0  0  0  0
 62 57  1  0  0  0  0
M  END
>  <MODEL>
7

>  <REMARK>
 VINA RESULT:      -4.9      2.800     10.278
  Name = 
  18 active torsions:
  status: ('A' for Active; 'I' for Inactive)
    1  A    between atoms: C_4  and  O_7
    2  A    between atoms: C_4  and  N_56
    3  A    between atoms: N_5  and  C_47
    4  A    between atoms: O_7  and  C_55
    5  A    between atoms: C_10  and  C_38
    6  A    between atoms: C_13  and  C_47
    7  A    between atoms: C_13  and  N_56
    8  A    between atoms: C_18  and  C_59
    9  A    between atoms: N_19  and  C_38
   10  A    between atoms: N_19  and  C_55
   11  A    between atoms: C_21  and  C_61
   12  A    between atoms: C_26  and  N_32
   13  A    between atoms: C_29  and  C_45
   14  A    between atoms: C_31  and  C_37
   15  A    between atoms: C_31  and  C_59
   16  A    between atoms: C_37  and  N_56
   17  A    between atoms: C_41  and  C_52
   18  A    between atoms: C_52  and  N_53
                            x       y       z     vdW  Elec       q    Type
                         _______ _______ _______ _____ _____    ______ ____

>  <TORSDO>
F 18

$$$$
=
 OpenBabel11062423033D

 62 68  0  0  1  0  0  0  0  0999 V2000
  188.2590  174.6160  141.4390 C   0  0  2  0  0  3  0  0  0  0  0  0
  191.5800  172.9140  142.9150 O   0  0  0  0  0  0  0  0  0  0  0  0
  189.6500  174.6050  142.1060 C   0  0  1  0  0  3  0  0  0  0  0  0
  187.4510  174.9630  139.0740 C   0  0  2  0  0  3  0  0  0  0  0  0
  190.4150  173.4600  139.2080 C   0  0  0  0  0  3  0  0  0  0  0  0
  189.5080  171.8900  142.1030 O   0  0  0  0  0  0  0  0  0  0  0  0
  189.1370  173.1400  139.0540 C   0  0  0  0  0  3  0  0  0  0  0  0
  188.2150  175.5880  140.2590 C   0  0  0  0  0  2  0  0  0  0  0  0
  189.5860  174.9310  143.4670 O   0  0  0  0  0  1  0  0  0  0  0  0
  191.1610  172.9210  140.3000 N   0  0  0  0  0  0  0  0  0  0  0  0
  188.2760  173.9920  138.2000 C   0  0  0  0  0  2  0  0  0  0  0  0
  190.4770  173.0210  141.8960 S   0  0  0  0  0  0  0  0  0  0  0  0
  186.8350  176.0070  138.2530 N   0  0  0  0  0  2  0  0  0  0  0  0
  186.8410  177.1640  138.9620 O   0  0  0  0  0  1  0  0  0  0  0  0
  192.5770  172.6230  140.1290 C   0  0  0  0  0  2  0  0  0  0  0  0
  195.4480  171.8160  139.5300 C   0  0  1  0  0  3  0  0  0  0  0  0
  195.2730  173.0300  137.2360 C   0  0  2  0  0  0  0  0  0  0  0  0
  194.3570  170.6270  137.5270 C   0  0  0  0  0  0  0  0  0  0  0  0
  194.5660  170.7270  140.7160 S   0  0  0  0  0  0  0  0  0  0  0  0
  195.0790  170.0570  136.4630 O   0  0  0  0  0  0  0  0  0  0  0  0
  194.6750  174.2770  137.5070 O   0  0  0  0  0  0  0  0  0  0  0  0
  196.6240  171.8910  135.5270 C   0  0  1  0  0  3  0  0  0  0  0  0
  193.2850  170.0040  137.9160 N   0  0  0  0  0  0  0  0  0  0  0  0
  196.7600  171.3800  139.3800 O   0  0  0  0  0  1  0  0  0  0  0  0
  194.7510  171.9350  138.1730 C   0  0  1  0  0  3  0  0  0  0  0  0
  192.4030  170.3490  139.0000 C   0  0  0  0  0  0  0  0  0  0  0  0
  196.0520  174.1560  137.8010 C   0  0  0  0  0  2  0  0  0  0  0  0
  192.8440  171.1210  140.2170 C   0  0  2  0  0  3  0  0  0  0  0  0
  196.3700  170.4570  135.9840 C   0  0  2  0  0  0  0  0  0  0  0  0
  191.2110  169.9430  138.9490 O   0  0  0  0  0  0  0  0  0  0  0  0
  196.3090  170.8090  134.5130 C   0  0  0  0  0  2  0  0  0  0  0  0
  195.4150  172.7770  135.7460 C   0  0  0  0  0  2  0  0  0  0  0  0
  197.3670  168.1660  135.7430 C   0  0  0  0  0  1  0  0  0  0  0  0
  197.7740  169.4990  137.6680 O   0  0  0  0  0  1  0  0  0  0  0  0
  197.5670  169.5650  136.2950 C   0  0  2  0  0  3  0  0  0  0  0  0
  187.1030  174.8810  142.3940 C   0  0  0  0  0  2  0  0  0  0  0  0
  186.6090  176.3020  142.1960 C   0  0  0  0  0  2  0  0  0  0  0  0
  185.6760  176.7080  143.3370 C   0  0  0  0  0  2  0  0  0  0  0  0
  184.7840  177.8330  143.0190 N   0  0  0  0  0  0  0  0  0  0  0  0
  184.9500  178.2790  141.6370 C   0  0  0  0  0  2  0  0  0  0  0  0
  183.6440  178.1320  140.8850 C   0  0  0  0  0  2  0  0  0  0  0  0
  182.5300  178.2900  141.8090 N   0  0  0  0  0  2  0  0  0  0  0  0
  181.2310  178.6900  141.3660 C   0  0  0  0  0  0  0  0  0  0  0  0
  181.0400  179.0070  140.1620 O   0  0  0  0  0  0  0  0  0  0  0  0
  177.7450  179.5100  142.4300 C   0  0  0  0  0  1  0  0  0  0  0  0
  179.2420  177.5530  142.3170 C   0  0  0  0  0  2  0  0  0  0  0  0
  178.7860  178.7990  141.5910 C   0  0  2  0  0  3  0  0  0  0  0  0
  180.1060  178.8020  142.3420 C   0  0  2  0  0  3  0  0  0  0  0  0
  184.9600  178.9300  143.9760 C   0  0  0  0  0  2  0  0  0  0  0  0
  184.6910  178.5280  145.2930 O   0  0  0  0  0  0  0  0  0  0  0  0
  185.6910  179.1280  146.0620 C   0  0  0  0  0  2  0  0  0  0  0  0
  184.3640  178.0930  147.5740 O   0  0  0  0  0  1  0  0  0  0  0  0
  185.5260  178.7810  147.4670 N   0  0  0  0  0  0  0  0  0  0  0  0
  186.5950  177.8640  147.8320 C   0  0  0  0  0  2  0  0  0  0  0  0
  187.3560  176.1160  145.4860 O   0  0  0  0  0  0  0  0  0  0  0  0
  188.9930  178.3260  147.6510 N   0  0  0  0  0  2  0  0  0  0  0  0
  187.7920  178.0090  146.8930 C   0  0  1  0  0  3  0  0  0  0  0  0
  189.4610  176.1690  146.6200 C   0  0  1  0  0  3  0  0  0  0  0  0
  191.0780  177.3150  148.0150 O   0  0  0  0  0  0  0  0  0  0  0  0
  189.9370  177.2800  147.4840 C   0  0  0  0  0  0  0  0  0  0  0  0
  189.3260  174.8950  147.4400 C   0  0  0  0  0  1  0  0  0  0  0  0
  188.1080  176.6890  146.2590 C   0  0  0  0  0  0  0  0  0  0  0  0
  1  3  1  0  0  0  0
  1 36  1  1  0  0  0
  3  9  1  1  0  0  0
  4 13  1  6  0  0  0
  4  8  1  0  0  0  0
  5 10  1  0  0  0  0
  7  5  2  0  0  0  0
  8  1  1  0  0  0  0
 10 12  1  0  0  0  0
 11  7  1  0  0  0  0
 11  4  1  0  0  0  0
 12  6  2  0  0  0  0
 12  3  1  0  0  0  0
 12  2  2  0  0  0  0
 13 14  1  0  0  0  0
 15 10  1  0  0  0  0
 16 24  1  6  0  0  0
 16 19  1  0  0  0  0
 17 32  1  6  0  0  0
 17 21  1  0  0  0  0
 17 27  1  0  0  0  0
 17 25  1  0  0  0  0
 18 23  2  0  0  0  0
 20 18  1  0  0  0  0
 21 27  1  0  0  0  0
 22 31  1  6  0  0  0
 22 32  1  0  0  0  0
 22 29  1  0  0  0  0
 23 26  1  0  0  0  0
 25 18  1  6  0  0  0
 25 16  1  0  0  0  0
 26 28  1  0  0  0  0
 28 15  1  6  0  0  0
 28 19  1  0  0  0  0
 29 35  1  1  0  0  0
 29 20  1  0  0  0  0
 30 26  2  0  0  0  0
 31 29  1  0  0  0  0
 35 33  1  1  0  0  0
 35 34  1  0  0  0  0
 37 36  1  0  0  0  0
 37 38  1  0  0  0  0
 39 38  1  0  0  0  0
 39 49  1  0  0  0  0
 40 39  1  0  0  0  0
 41 40  1  0  0  0  0
 41 42  1  0  0  0  0
 43 42  1  0  0  0  0
 44 43  2  0  0  0  0
 46 48  1  0  0  0  0
 47 46  1  0  0  0  0
 47 48  1  0  0  0  0
 47 45  1  1  0  0  0
 48 43  1  6  0  0  0
 49 50  1  0  0  0  0
 50 51  1  0  0  0  0
 51 53  1  0  0  0  0
 53 52  1  0  0  0  0
 53 54  1  0  0  0  0
 55 62  2  0  0  0  0
 57 56  1  0  0  0  0
 57 54  1  1  0  0  0
 58 61  1  1  0  0  0
 58 60  1  0  0  0  0
 60 56  1  0  0  0  0
 60 59  2  0  0  0  0
 62 58  1  0  0  0  0
 62 57  1  0  0  0  0
M  END
>  <MODEL>
8

>  <REMARK>
 VINA RESULT:      -4.8      3.765     11.910
  Name = 
  18 active torsions:
  status: ('A' for Active; 'I' for Inactive)
    1  A    between atoms: C_4  and  O_7
    2  A    between atoms: C_4  and  N_56
    3  A    between atoms: N_5  and  C_47
    4  A    between atoms: O_7  and  C_55
    5  A    between atoms: C_10  and  C_38
    6  A    between atoms: C_13  and  C_47
    7  A    between atoms: C_13  and  N_56
    8  A    between atoms: C_18  and  C_59
    9  A    between atoms: N_19  and  C_38
   10  A    between atoms: N_19  and  C_55
   11  A    between atoms: C_21  and  C_61
   12  A    between atoms: C_26  and  N_32
   13  A    between atoms: C_29  and  C_45
   14  A    between atoms: C_31  and  C_37
   15  A    between atoms: C_31  and  C_59
   16  A    between atoms: C_37  and  N_56
   17  A    between atoms: C_41  and  C_52
   18  A    between atoms: C_52  and  N_53
                            x       y       z     vdW  Elec       q    Type
                         _______ _______ _______ _____ _____    ______ ____

>  <TORSDO>
F 18

$$$$
=
 OpenBabel11062423033D

 62 68  0  0  1  0  0  0  0  0999 V2000
  187.9030  175.9200  143.7010 C   0  0  2  0  0  3  0  0  0  0  0  0
  191.4650  175.1800  142.0070 O   0  0  0  0  0  0  0  0  0  0  0  0
  189.1160  175.0480  143.3120 C   0  0  1  0  0  3  0  0  0  0  0  0
  187.2570  177.1990  145.7780 C   0  0  2  0  0  3  0  0  0  0  0  0
  190.5450  177.1450  145.2760 C   0  0  0  0  0  3  0  0  0  0  0  0
  190.0480  177.1750  141.8960 O   0  0  0  0  0  0  0  0  0  0  0  0
  189.5160  177.9570  145.0740 C   0  0  0  0  0  3  0  0  0  0  0  0
  187.5970  175.8120  145.1960 C   0  0  0  0  0  2  0  0  0  0  0  0
  188.7970  174.1130  142.3190 O   0  0  0  0  0  1  0  0  0  0  0  0
  191.3320  176.7010  144.1710 N   0  0  0  0  0  0  0  0  0  0  0  0
  188.4770  178.0820  146.1240 C   0  0  0  0  0  2  0  0  0  0  0  0
  190.5120  176.0510  142.7810 S   0  0  0  0  0  0  0  0  0  0  0  0
  186.3660  177.0670  146.9310 N   0  0  0  0  0  2  0  0  0  0  0  0
  185.2810  177.8540  146.7210 O   0  0  0  0  0  1  0  0  0  0  0  0
  192.7610  176.4770  144.3460 C   0  0  0  0  0  2  0  0  0  0  0  0
  195.6270  175.4630  144.4530 C   0  0  1  0  0  3  0  0  0  0  0  0
  195.4190  174.7190  141.9700 C   0  0  2  0  0  0  0  0  0  0  0  0
  194.5150  173.2170  143.8730 C   0  0  0  0  0  0  0  0  0  0  0  0
  194.7640  175.5260  146.0720 S   0  0  0  0  0  0  0  0  0  0  0  0
  195.2260  172.0590  143.5080 O   0  0  0  0  0  0  0  0  0  0  0  0
  194.8210  175.8000  141.2940 O   0  0  0  0  0  0  0  0  0  0  0  0
  196.7520  172.6990  141.5370 C   0  0  1  0  0  3  0  0  0  0  0  0
  193.4500  173.0540  144.6000 N   0  0  0  0  0  0  0  0  0  0  0  0
  196.9390  175.0390  144.6380 O   0  0  0  0  0  1  0  0  0  0  0  0
  194.9130  174.6000  143.4120 C   0  0  1  0  0  3  0  0  0  0  0  0
  192.5810  174.0660  145.1400 C   0  0  0  0  0  0  0  0  0  0  0  0
  196.2020  175.9120  141.5730 C   0  0  0  0  0  2  0  0  0  0  0  0
  193.0340  175.4670  145.4590 C   0  0  2  0  0  3  0  0  0  0  0  0
  196.5100  172.0000  142.8720 C   0  0  2  0  0  0  0  0  0  0  0  0
  191.3890  173.7490  145.4020 O   0  0  0  0  0  0  0  0  0  0  0  0
  196.4290  171.2180  141.5780 C   0  0  0  0  0  2  0  0  0  0  0  0
  195.5440  173.4920  141.0850 C   0  0  0  0  0  2  0  0  0  0  0  0
  197.6460  170.1000  144.0560 C   0  0  0  0  0  1  0  0  0  0  0  0
  197.7790  172.3280  144.8740 O   0  0  0  0  0  1  0  0  0  0  0  0
  197.7130  171.5760  143.7060 C   0  0  2  0  0  3  0  0  0  0  0  0
  186.6490  175.6580  142.8780 C   0  0  0  0  0  2  0  0  0  0  0  0
  185.9340  176.9730  142.6260 C   0  0  0  0  0  2  0  0  0  0  0  0
  186.5810  177.7160  141.4570 C   0  0  0  0  0  2  0  0  0  0  0  0
  185.8370  177.6200  140.1920 N   0  0  0  0  0  0  0  0  0  0  0  0
  186.7220  177.7390  139.0350 C   0  0  0  0  0  2  0  0  0  0  0  0
  186.9820  176.3710  138.4400 C   0  0  0  0  0  2  0  0  0  0  0  0
  185.8520  175.9770  137.6120 N   0  0  0  0  0  2  0  0  0  0  0  0
  185.8920  176.0630  136.1860 C   0  0  0  0  0  0  0  0  0  0  0  0
  186.8880  176.5730  135.6080 O   0  0  0  0  0  0  0  0  0  0  0  0
  182.2610  175.5460  135.4750 C   0  0  0  0  0  1  0  0  0  0  0  0
  184.1910  176.7450  134.5160 C   0  0  0  0  0  2  0  0  0  0  0  0
  183.4850  176.3760  135.8010 C   0  0  2  0  0  3  0  0  0  0  0  0
  184.7240  175.6110  135.3720 C   0  0  2  0  0  3  0  0  0  0  0  0
  184.7440  178.5970  140.1500 C   0  0  0  0  0  2  0  0  0  0  0  0
  183.6780  178.2300  140.9870 O   0  0  0  0  0  0  0  0  0  0  0  0
  182.5480  178.7980  140.3940 C   0  0  0  0  0  2  0  0  0  0  0  0
  181.7710  178.2260  142.4410 O   0  0  0  0  0  1  0  0  0  0  0  0
  181.3590  178.4930  141.1790 N   0  0  0  0  0  0  0  0  0  0  0  0
  180.5430  179.6950  141.2460 C   0  0  0  0  0  2  0  0  0  0  0  0
  177.9340  179.7600  142.7730 O   0  0  0  0  0  0  0  0  0  0  0  0
  179.1280  178.2810  139.8340 N   0  0  0  0  0  2  0  0  0  0  0  0
  179.1320  179.4350  140.7200 C   0  0  1  0  0  3  0  0  0  0  0  0
  177.6910  177.6390  141.6940 C   0  0  1  0  0  3  0  0  0  0  0  0
  178.1030  176.1700  139.8110 O   0  0  0  0  0  0  0  0  0  0  0  0
  178.3020  177.2700  140.3910 C   0  0  0  0  0  0  0  0  0  0  0  0
  178.2370  176.7440  142.7960 C   0  0  0  0  0  1  0  0  0  0  0  0
  178.2340  179.0230  141.8460 C   0  0  0  0  0  0  0  0  0  0  0  0
  1 36  1  6  0  0  0
  1  8  1  0  0  0  0
  2 12  2  0  0  0  0
  3  9  1  6  0  0  0
  3  1  1  0  0  0  0
  4 11  1  0  0  0  0
  4 13  1  1  0  0  0
  6 12  2  0  0  0  0
  7  5  2  0  0  0  0
  7 11  1  0  0  0  0
  8  4  1  0  0  0  0
 10 15  1  0  0  0  0
 10  5  1  0  0  0  0
 12  3  1  0  0  0  0
 12 10  1  0  0  0  0
 14 13  1  0  0  0  0
 16 24  1  1  0  0  0
 16 19  1  0  0  0  0
 17 32  1  6  0  0  0
 17 25  1  0  0  0  0
 18 23  2  0  0  0  0
 20 18  1  0  0  0  0
 21 27  1  0  0  0  0
 21 17  1  0  0  0  0
 22 32  1  6  0  0  0
 22 31  1  0  0  0  0
 22 29  1  0  0  0  0
 23 26  1  0  0  0  0
 25 18  1  1  0  0  0
 25 16  1  0  0  0  0
 26 30  2  0  0  0  0
 26 28  1  0  0  0  0
 27 17  1  0  0  0  0
 28 15  1  6  0  0  0
 28 19  1  0  0  0  0
 29 20  1  0  0  0  0
 29 35  1  1  0  0  0
 31 29  1  0  0  0  0
 35 33  1  1  0  0  0
 35 34  1  0  0  0  0
 37 36  1  0  0  0  0
 38 37  1  0  0  0  0
 39 38  1  0  0  0  0
 40 39  1  0  0  0  0
 41 40  1  0  0  0  0
 42 41  1  0  0  0  0
 43 42  1  0  0  0  0
 44 43  2  0  0  0  0
 46 48  1  0  0  0  0
 46 47  1  0  0  0  0
 47 45  1  6  0  0  0
 48 47  1  0  0  0  0
 48 43  1  1  0  0  0
 49 39  1  0  0  0  0
 49 50  1  0  0  0  0
 51 50  1  0  0  0  0
 51 53  1  0  0  0  0
 53 54  1  0  0  0  0
 53 52  1  0  0  0  0
 56 60  1  0  0  0  0
 56 57  1  0  0  0  0
 57 54  1  1  0  0  0
 57 62  1  0  0  0  0
 58 62  1  0  0  0  0
 58 61  1  1  0  0  0
 59 60  2  0  0  0  0
 60 58  1  0  0  0  0
 62 55  2  0  0  0  0
M  END
>  <MODEL>
9

>  <REMARK>
 VINA RESULT:      -4.8      4.425     12.781
  Name = 
  18 active torsions:
  status: ('A' for Active; 'I' for Inactive)
    1  A    between atoms: C_4  and  O_7
    2  A    between atoms: C_4  and  N_56
    3  A    between atoms: N_5  and  C_47
    4  A    between atoms: O_7  and  C_55
    5  A    between atoms: C_10  and  C_38
    6  A    between atoms: C_13  and  C_47
    7  A    between atoms: C_13  and  N_56
    8  A    between atoms: C_18  and  C_59
    9  A    between atoms: N_19  and  C_38
   10  A    between atoms: N_19  and  C_55
   11  A    between atoms: C_21  and  C_61
   12  A    between atoms: C_26  and  N_32
   13  A    between atoms: C_29  and  C_45
   14  A    between atoms: C_31  and  C_37
   15  A    between atoms: C_31  and  C_59
   16  A    between atoms: C_37  and  N_56
   17  A    between atoms: C_41  and  C_52
   18  A    between atoms: C_52  and  N_53
                            x       y       z     vdW  Elec       q    Type
                         _______ _______ _______ _____ _____    ______ ____

>  <TORSDO>
F 18

$$$$
