=
 OpenBabel11072409213D

 58 61  0  0  1  0  0  0  0  0999 V2000
  190.0330  172.9380  144.6130 C   0  0  0  0  0  3  0  0  0  0  0  0
  189.6050  172.2960  143.4130 N   0  0  0  0  0  0  0  0  0  0  0  0
  192.0220  172.1540  142.6330 C   0  0  2  0  0  3  0  0  0  0  0  0
  190.5490  171.9020  142.4170 C   0  0  0  0  0  0  0  0  0  0  0  0
  190.1500  171.2590  141.4100 O   0  0  0  0  0  0  0  0  0  0  0  0
  191.2860  173.3600  144.7520 C   0  0  0  0  0  2  0  0  0  0  0  0
  192.3030  173.2870  143.6410 C   0  0  1  0  0  3  0  0  0  0  0  0
  193.7060  173.0990  144.2300 C   0  0  0  0  0  2  0  0  0  0  0  0
  194.4880  174.3930  144.5280 C   0  0  1  0  0  3  0  0  0  0  0  0
  196.5430  173.3000  143.4450 C   0  0  0  0  0  1  0  0  0  0  0  0
  196.0170  174.2950  144.4660 C   0  0  2  0  0  3  0  0  0  0  0  0
  196.9320  172.7640  146.0890 O   0  0  0  0  0  1  0  0  0  0  0  0
  196.6560  174.1110  145.8400 C   0  0  0  0  0  2  0  0  0  0  0  0
  193.9650  175.6290  143.8040 C   0  0  0  0  0  2  0  0  0  0  0  0
  193.1280  176.4690  144.7200 C   0  0  0  0  0  0  0  0  0  0  0  0
  192.0770  177.0950  144.2900 N   0  0  0  0  0  0  0  0  0  0  0  0
  194.6110  177.4070  146.3010 O   0  0  0  0  0  1  0  0  0  0  0  0
  193.5060  176.5650  146.1570 C   0  0  0  0  0  2  0  0  0  0  0  0
  191.6670  177.0050  142.9780 O   0  0  0  0  0  0  0  0  0  0  0  0
  190.2300  176.1150  142.5780 S   0  0  0  0  0  0  0  0  0  0  0  0
  189.1610  177.4090  143.2790 C   0  0  0  0  0  2  0  0  0  0  0  0
  187.6950  177.0140  143.1490 C   0  0  2  0  0  0  0  0  0  0  0  0
  186.8830  176.9240  144.4350 C   0  0  2  0  0  3  0  0  0  0  0  0
  187.3200  175.9670  142.1110 C   0  0  0  0  0  1  0  0  0  0  0  0
  186.6870  178.1040  143.4900 C   0  0  2  0  0  3  0  0  0  0  0  0
  184.2330  178.5620  143.1980 C   0  0  0  0  0  0  0  0  0  0  0  0
  185.4390  177.9410  142.7590 N   0  0  0  0  0  2  0  0  0  0  0  0
  183.1710  178.3780  142.5460 O   0  0  0  0  0  0  0  0  0  0  0  0
  183.8920  178.8520  145.6190 C   0  0  0  0  0  1  0  0  0  0  0  0
  184.2360  179.3660  144.3410 O   0  0  0  0  0  0  0  0  0  0  0  0
  187.6230  177.3520  145.5460 O   0  0  0  0  0  0  0  0  0  0  0  0
  190.0170  176.9890  146.8920 O   0  0  0  0  0  0  0  0  0  0  0  0
  189.1700  176.0580  146.8970 C   0  0  0  0  0  0  0  0  0  0  0  0
  187.9170  176.2180  146.2300 N   0  0  0  0  0  2  0  0  0  0  0  0
  189.4700  174.7900  147.6110 C   0  0  0  0  0  1  0  0  0  0  0  0
  192.7750  172.3840  141.3170 C   0  0  0  0  0  2  0  0  0  0  0  0
  194.8130  171.0730  138.9110 C   0  0  2  0  0  3  0  0  0  0  0  0
  193.6910  170.1690  141.2240 C   0  0  0  0  0  2  0  0  0  0  0  0
  193.4180  170.5030  138.7060 C   0  0  0  0  0  2  0  0  0  0  0  0
  192.9520  169.7420  139.9460 C   0  0  0  0  0  2  0  0  0  0  0  0
  194.7910  172.0560  140.0920 C   0  0  0  0  0  2  0  0  0  0  0  0
  194.0110  171.6040  141.2590 N   0  0  0  0  0  0  0  0  0  0  0  0
  196.5950  171.3310  137.2370 C   0  0  1  0  0  3  0  0  0  0  0  0
  195.2470  171.7610  137.6960 N   0  0  2  0  0  0  0  0  0  0  0  0
  196.4480  172.5480  138.0320 C   0  0  2  0  0  3  0  0  0  0  0  0
  197.1460  170.3180  138.0310 O   0  0  0  0  0  1  0  0  0  0  0  0
  196.5060  173.7750  137.1650 C   0  0  0  0  0  0  0  0  0  0  0  0
  196.9770  173.6720  135.9780 N   0  0  0  0  0  2  0  0  0  0  0  0
  195.7940  175.2260  138.9350 O   0  0  0  0  0  1  0  0  0  0  0  0
  195.8020  175.0500  137.5490 C   0  0  2  0  0  3  0  0  0  0  0  0
  194.3850  175.1300  136.9860 C   0  0  0  0  0  2  0  0  0  0  0  0
  193.4450  174.7190  137.9330 O   0  0  0  0  0  0  0  0  0  0  0  0
  192.2530  174.5740  137.2180 C   0  0  0  0  0  2  0  0  0  0  0  0
  191.5800  173.2650  137.5980 C   0  0  1  0  0  3  0  0  0  0  0  0
  190.5240  173.5500  138.6460 C   0  0  0  0  0  1  0  0  0  0  0  0
  190.9130  172.6310  136.3820 C   0  0  0  0  0  2  0  0  0  0  0  0
  189.7100  171.7850  136.7770 C   0  0  0  0  0  2  0  0  0  0  0  0
  190.1160  170.3340  136.9510 C   0  0  0  0  0  1  0  0  0  0  0  0
  1  6  1  0  0  0  0
  2  1  2  0  0  0  0
  3 36  1  6  0  0  0
  3  7  1  0  0  0  0
  4  3  1  0  0  0  0
  4  2  1  0  0  0  0
  5  4  2  0  0  0  0
  7  8  1  1  0  0  0
  7  6  1  0  0  0  0
  8  9  1  0  0  0  0
  9 14  1  6  0  0  0
 11 10  1  6  0  0  0
 11  9  1  0  0  0  0
 11 13  1  0  0  0  0
 13 12  1  0  0  0  0
 14 15  1  0  0  0  0
 15 18  1  0  0  0  0
 16 15  2  0  0  0  0
 18 17  1  0  0  0  0
 19 16  1  0  0  0  0
 20 19  1  0  0  0  0
 20 21  1  0  0  0  0
 22 24  1  6  0  0  0
 22 21  1  0  0  0  0
 22 25  1  0  0  0  0
 22 23  1  0  0  0  0
 23 31  1  1  0  0  0
 25 27  1  6  0  0  0
 25 23  1  0  0  0  0
 26 30  1  0  0  0  0
 27 26  1  0  0  0  0
 28 26  2  0  0  0  0
 30 29  1  0  0  0  0
 31 34  1  0  0  0  0
 32 33  2  0  0  0  0
 33 35  1  0  0  0  0
 34 33  1  0  0  0  0
 37 39  1  6  0  0  0
 37 41  1  0  0  0  0
 38 42  1  0  0  0  0
 39 40  1  0  0  0  0
 40 38  1  0  0  0  0
 41 42  1  0  0  0  0
 42 36  1  0  0  0  0
 43 44  1  0  0  0  0
 43 46  1  1  0  0  0
 43 45  1  0  0  0  0
 44 45  1  0  0  0  0
 44 37  1  1  0  0  0
 45 47  1  6  0  0  0
 47 50  1  0  0  0  0
 48 47  2  0  0  0  0
 50 49  1  1  0  0  0
 51 50  1  0  0  0  0
 51 52  1  0  0  0  0
 53 54  1  0  0  0  0
 53 52  1  0  0  0  0
 54 55  1  1  0  0  0
 56 57  1  0  0  0  0
 56 54  1  0  0  0  0
 57 58  1  0  0  0  0
M  END
>  <MODEL>
1

>  <REMARK>
 VINA RESULT:      -5.2      0.000      0.000
  Name = 
  26 active torsions:
  status: ('A' for Active; 'I' for Inactive)
    1  A    between atoms: C_3  and  O_31
    2  A    between atoms: C_5  and  C_50
    3  A    between atoms: C_6  and  C_30
    4  A    between atoms: C_6  and  CA_38
    5  A    between atoms: N_8  and  C_37
    6  A    between atoms: C_9  and  C_48
    7  A    between atoms: C_10  and  C_41
    8  A    between atoms: C_10  and  C_48
    9  A    between atoms: C_11  and  C_27
   10  A    between atoms: O_12  and  C_18
   11  A    between atoms: O_12  and  C_41
   12  A    between atoms: O_13  and  C_14
   13  A    between atoms: O_13  and  N_49
   14  A    between atoms: C_16  and  N_17
   15  A    between atoms: C_18  and  C_30
   16  A    between atoms: C_27  and  S_46
   17  A    between atoms: C_33  and  C_42
   18  A    between atoms: C_35  and  C_39
   19  A    between atoms: C_35  and  C_44
   20  A    between atoms: C_39  and  C_55
   21  A    between atoms: C_42  and  N_54
   22  A    between atoms: S_46  and  O_53
   23  A    between atoms: N_47  and  O_53
   24  A    between atoms: C_50  and  C_55
   25  A    between atoms: C_55  and  C_57
   26  A    between atoms: C_56  and  C_57
                            x       y       z     vdW  Elec       q    Type
                         _______ _______ _______ _____ _____    ______ ____

>  <TORSDO>
F 26

$$$$
=
 OpenBabel11072409213D

 58 61  0  0  1  0  0  0  0  0999 V2000
  189.8710  177.1750  147.1480 C   0  0  0  0  0  3  0  0  0  0  0  0
  191.0670  176.7530  146.4950 N   0  0  0  0  0  2  0  0  0  0  0  0
  189.9000  176.9460  144.2440 C   0  0  2  0  0  3  0  0  0  0  0  0
  191.1190  176.6240  145.0750 C   0  0  0  0  0  0  0  0  0  0  0  0
  192.2140  176.3350  144.5220 O   0  0  0  0  0  0  0  0  0  0  0  0
  188.7250  177.2700  146.4800 C   0  0  0  0  0  3  0  0  0  0  0  0
  188.5810  176.8530  145.0380 C   0  0  1  0  0  3  0  0  0  0  0  0
  187.5180  177.7170  144.3500 C   0  0  0  0  0  2  0  0  0  0  0  0
  186.0870  177.1460  144.3490 C   0  0  1  0  0  3  0  0  0  0  0  0
  185.1100  179.4090  145.0640 C   0  0  0  0  0  1  0  0  0  0  0  0
  185.0520  177.8960  145.1960 C   0  0  2  0  0  3  0  0  0  0  0  0
  184.6490  178.4820  147.5000 O   0  0  0  0  0  1  0  0  0  0  0  0
  185.0340  177.4400  146.6520 C   0  0  0  0  0  2  0  0  0  0  0  0
  185.5470  176.7940  142.9670 C   0  0  0  0  0  2  0  0  0  0  0  0
  185.7200  177.9430  142.0200 C   0  0  0  0  0  0  0  0  0  0  0  0
  184.6970  178.5410  141.4920 N   0  0  0  0  0  0  0  0  0  0  0  0
  187.5910  177.7180  140.5970 O   0  0  0  0  0  1  0  0  0  0  0  0
  187.0950  178.4150  141.7010 C   0  0  0  0  0  2  0  0  0  0  0  0
  183.4060  178.1630  141.7870 O   0  0  0  0  0  0  0  0  0  0  0  0
  182.2670  177.8930  140.5040 S   0  0  0  0  0  0  0  0  0  0  0  0
  181.0030  178.9070  141.3290 C   0  0  0  0  0  2  0  0  0  0  0  0
  179.7580  179.0170  140.4580 C   0  0  2  0  0  0  0  0  0  0  0  0
  178.5060  179.5960  141.1040 C   0  0  2  0  0  3  0  0  0  0  0  0
  179.4760  177.9030  139.4600 C   0  0  0  0  0  1  0  0  0  0  0  0
  179.3140  180.4350  140.1200 C   0  0  2  0  0  3  0  0  0  0  0  0
  178.7610  181.6170  137.9730 C   0  0  0  0  0  0  0  0  0  0  0  0
  178.6150  180.4980  138.8450 N   0  0  0  0  0  2  0  0  0  0  0  0
  178.1230  181.6390  136.8860 O   0  0  0  0  0  0  0  0  0  0  0  0
  179.1020  183.9720  138.6040 C   0  0  0  0  0  1  0  0  0  0  0  0
  179.6040  182.6740  138.3240 O   0  0  0  0  0  0  0  0  0  0  0  0
  178.7590  180.0550  142.4040 O   0  0  0  0  0  0  0  0  0  0  0  0
  179.5930  179.6470  145.0140 O   0  0  0  0  0  0  0  0  0  0  0  0
  178.6650  178.9320  144.5540 C   0  0  0  0  0  0  0  0  0  0  0  0
  178.1970  179.1280  143.2190 N   0  0  0  0  0  2  0  0  0  0  0  0
  178.0450  177.8860  145.4080 C   0  0  0  0  0  1  0  0  0  0  0  0
  189.8320  176.1120  142.9570 C   0  0  0  0  0  2  0  0  0  0  0  0
  190.3080  172.9490  141.7620 C   0  0  2  0  0  3  0  0  0  0  0  0
  188.1540  174.5230  142.3210 C   0  0  0  0  0  2  0  0  0  0  0  0
  189.9080  173.8380  140.5940 C   0  0  0  0  0  2  0  0  0  0  0  0
  188.5380  174.4690  140.8330 C   0  0  0  0  0  2  0  0  0  0  0  0
  190.3930  173.7990  143.0400 C   0  0  0  0  0  2  0  0  0  0  0  0
  189.2990  174.7740  143.2080 N   0  0  0  0  0  0  0  0  0  0  0  0
  191.6060  170.8620  141.7310 C   0  0  1  0  0  3  0  0  0  0  0  0
  191.6040  172.3290  141.4880 N   0  0  2  0  0  0  0  0  0  0  0  0
  192.1100  171.7730  142.7560 C   0  0  2  0  0  3  0  0  0  0  0  0
  190.3540  170.3690  142.1200 O   0  0  0  0  0  1  0  0  0  0  0  0
  193.6140  171.8120  142.7580 C   0  0  0  0  0  0  0  0  0  0  0  0
  194.2600  170.7110  142.8780 N   0  0  0  0  0  2  0  0  0  0  0  0
  193.6170  174.2030  142.6050 O   0  0  0  0  0  1  0  0  0  0  0  0
  194.3750  173.0530  142.3740 C   0  0  2  0  0  3  0  0  0  0  0  0
  194.8700  173.0130  140.9290 C   0  0  0  0  0  2  0  0  0  0  0  0
  194.6880  174.2480  140.3030 O   0  0  0  0  0  0  0  0  0  0  0  0
  194.8250  173.9820  138.9380 C   0  0  0  0  0  2  0  0  0  0  0  0
  193.8320  174.8200  138.1480 C   0  0  1  0  0  3  0  0  0  0  0  0
  194.4060  175.0810  136.7710 C   0  0  0  0  0  1  0  0  0  0  0  0
  192.5060  174.0820  138.0010 C   0  0  0  0  0  2  0  0  0  0  0  0
  192.7150  172.6010  137.7140 C   0  0  0  0  0  2  0  0  0  0  0  0
  192.0140  172.2040  136.4300 C   0  0  0  0  0  1  0  0  0  0  0  0
  2  1  1  0  0  0  0
  3 36  1  6  0  0  0
  3  7  1  0  0  0  0
  3  4  1  0  0  0  0
  4  2  1  0  0  0  0
  5  4  2  0  0  0  0
  6  1  2  0  0  0  0
  7  8  1  6  0  0  0
  7  6  1  0  0  0  0
  9 14  1  6  0  0  0
  9  8  1  0  0  0  0
  9 11  1  0  0  0  0
 11 10  1  1  0  0  0
 11 13  1  0  0  0  0
 13 12  1  0  0  0  0
 15 14  1  0  0  0  0
 16 19  1  0  0  0  0
 16 15  2  0  0  0  0
 17 18  1  0  0  0  0
 18 15  1  0  0  0  0
 20 21  1  0  0  0  0
 20 19  1  0  0  0  0
 22 24  1  6  0  0  0
 22 23  1  0  0  0  0
 22 21  1  0  0  0  0
 23 31  1  1  0  0  0
 25 27  1  6  0  0  0
 25 22  1  0  0  0  0
 25 23  1  0  0  0  0
 26 30  1  0  0  0  0
 26 27  1  0  0  0  0
 28 26  2  0  0  0  0
 30 29  1  0  0  0  0
 31 34  1  0  0  0  0
 33 32  2  0  0  0  0
 33 35  1  0  0  0  0
 34 33  1  0  0  0  0
 36 42  1  0  0  0  0
 37 39  1  6  0  0  0
 37 41  1  0  0  0  0
 38 42  1  0  0  0  0
 39 40  1  0  0  0  0
 40 38  1  0  0  0  0
 41 42  1  0  0  0  0
 43 46  1  1  0  0  0
 43 45  1  0  0  0  0
 44 43  1  0  0  0  0
 44 37  1  1  0  0  0
 44 45  1  0  0  0  0
 45 47  1  6  0  0  0
 47 48  2  0  0  0  0
 50 49  1  6  0  0  0
 50 47  1  0  0  0  0
 51 50  1  0  0  0  0
 52 51  1  0  0  0  0
 53 52  1  0  0  0  0
 54 55  1  6  0  0  0
 54 53  1  0  0  0  0
 56 54  1  0  0  0  0
 57 56  1  0  0  0  0
 58 57  1  0  0  0  0
M  END
>  <MODEL>
2

>  <REMARK>
 VINA RESULT:      -4.8      3.868      7.755
  Name = 
  26 active torsions:
  status: ('A' for Active; 'I' for Inactive)
    1  A    between atoms: C_3  and  O_31
    2  A    between atoms: C_5  and  C_50
    3  A    between atoms: C_6  and  C_30
    4  A    between atoms: C_6  and  CA_38
    5  A    between atoms: N_8  and  C_37
    6  A    between atoms: C_9  and  C_48
    7  A    between atoms: C_10  and  C_41
    8  A    between atoms: C_10  and  C_48
    9  A    between atoms: C_11  and  C_27
   10  A    between atoms: O_12  and  C_18
   11  A    between atoms: O_12  and  C_41
   12  A    between atoms: O_13  and  C_14
   13  A    between atoms: O_13  and  N_49
   14  A    between atoms: C_16  and  N_17
   15  A    between atoms: C_18  and  C_30
   16  A    between atoms: C_27  and  S_46
   17  A    between atoms: C_33  and  C_42
   18  A    between atoms: C_35  and  C_39
   19  A    between atoms: C_35  and  C_44
   20  A    between atoms: C_39  and  C_55
   21  A    between atoms: C_42  and  N_54
   22  A    between atoms: S_46  and  O_53
   23  A    between atoms: N_47  and  O_53
   24  A    between atoms: C_50  and  C_55
   25  A    between atoms: C_55  and  C_57
   26  A    between atoms: C_56  and  C_57
                            x       y       z     vdW  Elec       q    Type
                         _______ _______ _______ _____ _____    ______ ____

>  <TORSDO>
F 26

$$$$
=
 OpenBabel11072409213D

 58 61  0  0  1  0  0  0  0  0999 V2000
  189.9310  172.3520  144.3840 C   0  0  0  0  0  3  0  0  0  0  0  0
  189.7110  171.7550  143.1070 N   0  0  0  0  0  0  0  0  0  0  0  0
  192.2230  171.5310  142.7850 C   0  0  2  0  0  3  0  0  0  0  0  0
  190.8080  171.3440  142.2930 C   0  0  0  0  0  0  0  0  0  0  0  0
  190.5810  170.7410  141.2100 O   0  0  0  0  0  0  0  0  0  0  0  0
  191.1510  172.7190  144.7650 C   0  0  0  0  0  2  0  0  0  0  0  0
  192.3530  172.6290  143.8610 C   0  0  1  0  0  3  0  0  0  0  0  0
  193.6140  172.3700  144.6930 C   0  0  0  0  0  2  0  0  0  0  0  0
  194.5590  173.5740  144.8740 C   0  0  1  0  0  3  0  0  0  0  0  0
  196.7480  173.1540  146.1460 C   0  0  0  0  0  1  0  0  0  0  0  0
  196.0620  173.2800  144.7960 C   0  0  2  0  0  3  0  0  0  0  0  0
  197.0140  173.6250  142.6080 O   0  0  0  0  0  1  0  0  0  0  0  0
  196.8030  174.2230  143.8530 C   0  0  0  0  0  2  0  0  0  0  0  0
  194.1740  174.8060  144.0610 C   0  0  0  0  0  2  0  0  0  0  0  0
  193.6890  175.9040  144.9570 C   0  0  0  0  0  0  0  0  0  0  0  0
  192.5710  176.5200  144.7250 N   0  0  0  0  0  0  0  0  0  0  0  0
  193.7010  176.9460  147.0760 O   0  0  0  0  0  1  0  0  0  0  0  0
  194.5020  176.2770  146.1470 C   0  0  0  0  0  2  0  0  0  0  0  0
  191.7680  176.1840  143.6570 O   0  0  0  0  0  0  0  0  0  0  0  0
  190.6930  177.3650  142.9760 S   0  0  0  0  0  0  0  0  0  0  0  0
  189.2280  176.4500  143.5470 C   0  0  0  0  0  2  0  0  0  0  0  0
  188.0000  176.8610  142.7440 C   0  0  2  0  0  0  0  0  0  0  0  0
  187.2770  175.7640  141.9710 C   0  0  2  0  0  3  0  0  0  0  0  0
  188.0210  178.2050  142.0290 C   0  0  0  0  0  1  0  0  0  0  0  0
  186.6690  176.3210  143.2540 C   0  0  2  0  0  3  0  0  0  0  0  0
  184.8200  177.8780  143.9410 C   0  0  0  0  0  0  0  0  0  0  0  0
  185.5610  177.2050  142.9250 N   0  0  0  0  0  2  0  0  0  0  0  0
  183.8560  178.6200  143.6130 O   0  0  0  0  0  0  0  0  0  0  0  0
  184.3620  178.2320  146.3340 C   0  0  0  0  0  1  0  0  0  0  0  0
  185.1660  177.7130  145.2850 O   0  0  0  0  0  0  0  0  0  0  0  0
  187.8170  174.5000  142.2380 O   0  0  0  0  0  0  0  0  0  0  0  0
  190.1260  174.3420  140.7150 O   0  0  0  0  0  0  0  0  0  0  0  0
  189.0670  173.8300  140.2680 C   0  0  0  0  0  0  0  0  0  0  0  0
  187.8630  173.8760  141.0340 N   0  0  0  0  0  2  0  0  0  0  0  0
  189.0720  173.1650  138.9400 C   0  0  0  0  0  1  0  0  0  0  0  0
  193.2170  171.7580  141.6380 C   0  0  0  0  0  2  0  0  0  0  0  0
  195.5110  170.3030  139.5690 C   0  0  2  0  0  3  0  0  0  0  0  0
  193.9970  169.4910  141.6850 C   0  0  0  0  0  2  0  0  0  0  0  0
  194.1300  169.8180  139.1550 C   0  0  0  0  0  2  0  0  0  0  0  0
  193.4350  169.0980  140.3090 C   0  0  0  0  0  2  0  0  0  0  0  0
  195.3710  171.2970  140.7330 C   0  0  0  0  0  2  0  0  0  0  0  0
  194.3970  170.9040  141.7680 N   0  0  0  0  0  0  0  0  0  0  0  0
  197.5450  170.4510  138.1970 C   0  0  1  0  0  3  0  0  0  0  0  0
  196.1660  170.9530  138.4340 N   0  0  2  0  0  0  0  0  0  0  0  0
  197.3360  171.6850  138.9520 C   0  0  2  0  0  3  0  0  0  0  0  0
  197.9130  169.4240  139.0750 O   0  0  0  0  0  1  0  0  0  0  0  0
  197.5920  172.8960  138.0980 C   0  0  0  0  0  0  0  0  0  0  0  0
  197.9390  172.7280  136.8750 N   0  0  0  0  0  2  0  0  0  0  0  0
  196.3070  174.2330  139.6160 O   0  0  0  0  0  1  0  0  0  0  0  0
  197.2110  174.2800  138.5520 C   0  0  2  0  0  3  0  0  0  0  0  0
  196.6640  175.1410  137.4160 C   0  0  0  0  0  2  0  0  0  0  0  0
  195.3560  174.7750  137.0950 O   0  0  0  0  0  0  0  0  0  0  0  0
  195.2780  174.9020  135.7050 C   0  0  0  0  0  2  0  0  0  0  0  0
  194.1720  174.0090  135.1670 C   0  0  1  0  0  3  0  0  0  0  0  0
  194.6420  172.5700  135.2180 C   0  0  0  0  0  1  0  0  0  0  0  0
  192.9110  174.1480  136.0140 C   0  0  0  0  0  2  0  0  0  0  0  0
  192.5610  172.8440  136.7200 C   0  0  0  0  0  2  0  0  0  0  0  0
  192.6310  173.0210  138.2250 C   0  0  0  0  0  1  0  0  0  0  0  0
  1  6  1  0  0  0  0
  2  1  2  0  0  0  0
  3 36  1  6  0  0  0
  3  7  1  0  0  0  0
  4  3  1  0  0  0  0
  4  2  1  0  0  0  0
  5  4  2  0  0  0  0
  7  8  1  1  0  0  0
  7  6  1  0  0  0  0
  8  9  1  0  0  0  0
  9 14  1  6  0  0  0
 11  9  1  0  0  0  0
 11 10  1  1  0  0  0
 12 13  1  0  0  0  0
 13 11  1  0  0  0  0
 14 15  1  0  0  0  0
 15 18  1  0  0  0  0
 16 15  2  0  0  0  0
 18 17  1  0  0  0  0
 19 16  1  0  0  0  0
 20 21  1  0  0  0  0
 20 19  1  0  0  0  0
 22 24  1  6  0  0  0
 22 25  1  0  0  0  0
 22 21  1  0  0  0  0
 23 31  1  1  0  0  0
 23 22  1  0  0  0  0
 23 25  1  0  0  0  0
 25 27  1  6  0  0  0
 26 30  1  0  0  0  0
 27 26  1  0  0  0  0
 28 26  2  0  0  0  0
 30 29  1  0  0  0  0
 33 32  2  0  0  0  0
 33 34  1  0  0  0  0
 34 31  1  0  0  0  0
 35 33  1  0  0  0  0
 36 42  1  0  0  0  0
 37 39  1  6  0  0  0
 37 41  1  0  0  0  0
 38 42  1  0  0  0  0
 39 40  1  0  0  0  0
 40 38  1  0  0  0  0
 41 42  1  0  0  0  0
 43 44  1  0  0  0  0
 43 45  1  0  0  0  0
 43 46  1  1  0  0  0
 44 45  1  0  0  0  0
 44 37  1  1  0  0  0
 45 47  1  6  0  0  0
 47 50  1  0  0  0  0
 48 47  2  0  0  0  0
 50 49  1  1  0  0  0
 51 50  1  0  0  0  0
 52 51  1  0  0  0  0
 53 52  1  0  0  0  0
 54 55  1  1  0  0  0
 54 53  1  0  0  0  0
 54 56  1  0  0  0  0
 56 57  1  0  0  0  0
 57 58  1  0  0  0  0
M  END
>  <MODEL>
3

>  <REMARK>
 VINA RESULT:      -4.6      1.673      2.661
  Name = 
  26 active torsions:
  status: ('A' for Active; 'I' for Inactive)
    1  A    between atoms: C_3  and  O_31
    2  A    between atoms: C_5  and  C_50
    3  A    between atoms: C_6  and  C_30
    4  A    between atoms: C_6  and  CA_38
    5  A    between atoms: N_8  and  C_37
    6  A    between atoms: C_9  and  C_48
    7  A    between atoms: C_10  and  C_41
    8  A    between atoms: C_10  and  C_48
    9  A    between atoms: C_11  and  C_27
   10  A    between atoms: O_12  and  C_18
   11  A    between atoms: O_12  and  C_41
   12  A    between atoms: O_13  and  C_14
   13  A    between atoms: O_13  and  N_49
   14  A    between atoms: C_16  and  N_17
   15  A    between atoms: C_18  and  C_30
   16  A    between atoms: C_27  and  S_46
   17  A    between atoms: C_33  and  C_42
   18  A    between atoms: C_35  and  C_39
   19  A    between atoms: C_35  and  C_44
   20  A    between atoms: C_39  and  C_55
   21  A    between atoms: C_42  and  N_54
   22  A    between atoms: S_46  and  O_53
   23  A    between atoms: N_47  and  O_53
   24  A    between atoms: C_50  and  C_55
   25  A    between atoms: C_55  and  C_57
   26  A    between atoms: C_56  and  C_57
                            x       y       z     vdW  Elec       q    Type
                         _______ _______ _______ _____ _____    ______ ____

>  <TORSDO>
F 26

$$$$
=
 OpenBabel11072409213D

 58 61  0  0  1  0  0  0  0  0999 V2000
  189.9960  177.1240  147.0810 C   0  0  0  0  0  3  0  0  0  0  0  0
  191.1930  176.7190  146.4200 N   0  0  0  0  0  2  0  0  0  0  0  0
  190.0290  176.9590  144.1720 C   0  0  2  0  0  3  0  0  0  0  0  0
  191.2480  176.6220  144.9970 C   0  0  0  0  0  0  0  0  0  0  0  0
  192.3440  176.3470  144.4400 O   0  0  0  0  0  0  0  0  0  0  0  0
  188.8500  177.2310  146.4130 C   0  0  0  0  0  3  0  0  0  0  0  0
  188.7090  176.8460  144.9620 C   0  0  1  0  0  3  0  0  0  0  0  0
  187.6460  177.7230  144.2910 C   0  0  0  0  0  2  0  0  0  0  0  0
  186.2010  177.1880  144.3490 C   0  0  1  0  0  3  0  0  0  0  0  0
  185.4230  179.5040  145.1370 C   0  0  0  0  0  1  0  0  0  0  0  0
  185.2060  178.0010  145.1870 C   0  0  2  0  0  3  0  0  0  0  0  0
  184.5910  178.4770  147.4690 O   0  0  0  0  0  1  0  0  0  0  0  0
  185.0690  177.4800  146.6150 C   0  0  0  0  0  2  0  0  0  0  0  0
  185.6200  176.7910  142.9970 C   0  0  0  0  0  2  0  0  0  0  0  0
  185.8020  177.8910  141.9950 C   0  0  0  0  0  0  0  0  0  0  0  0
  184.7850  178.4720  141.4380 N   0  0  0  0  0  0  0  0  0  0  0  0
  187.5780  177.7590  140.4440 O   0  0  0  0  0  1  0  0  0  0  0  0
  187.1820  178.3340  141.6540 C   0  0  0  0  0  2  0  0  0  0  0  0
  183.4910  178.1210  141.7510 O   0  0  0  0  0  0  0  0  0  0  0  0
  182.3410  177.8280  140.4820 S   0  0  0  0  0  0  0  0  0  0  0  0
  181.0480  178.7620  141.3560 C   0  0  0  0  0  2  0  0  0  0  0  0
  179.7910  178.8570  140.4990 C   0  0  2  0  0  0  0  0  0  0  0  0
  178.5300  179.3830  141.1720 C   0  0  2  0  0  3  0  0  0  0  0  0
  179.5320  177.7610  139.4760 C   0  0  0  0  0  1  0  0  0  0  0  0
  179.3020  180.2700  140.2020 C   0  0  2  0  0  3  0  0  0  0  0  0
  178.6120  181.5250  138.1380 C   0  0  0  0  0  0  0  0  0  0  0  0
  178.5890  180.3440  138.9360 N   0  0  0  0  0  2  0  0  0  0  0  0
  177.9650  181.5530  137.0570 O   0  0  0  0  0  0  0  0  0  0  0  0
  180.0300  183.4740  137.6320 C   0  0  0  0  0  1  0  0  0  0  0  0
  179.3490  182.6370  138.5550 O   0  0  0  0  0  0  0  0  0  0  0  0
  178.7820  179.8150  142.4810 O   0  0  0  0  0  0  0  0  0  0  0  0
  178.8240  179.9410  145.2480 O   0  0  0  0  0  0  0  0  0  0  0  0
  178.4990  178.8590  144.6930 C   0  0  0  0  0  0  0  0  0  0  0  0
  178.4480  178.7630  143.2700 N   0  0  0  0  0  2  0  0  0  0  0  0
  178.1560  177.6770  145.5250 C   0  0  0  0  0  1  0  0  0  0  0  0
  189.9650  176.1540  142.8670 C   0  0  0  0  0  2  0  0  0  0  0  0
  190.4070  173.2170  141.1830 C   0  0  2  0  0  3  0  0  0  0  0  0
  188.4280  174.3220  142.6960 C   0  0  0  0  0  2  0  0  0  0  0  0
  189.4590  174.0860  140.3710 C   0  0  0  0  0  2  0  0  0  0  0  0
  188.2100  174.4350  141.1780 C   0  0  0  0  0  2  0  0  0  0  0  0
  190.8520  173.9860  142.4380 C   0  0  0  0  0  2  0  0  0  0  0  0
  189.7760  174.7270  143.1220 N   0  0  0  0  0  0  0  0  0  0  0  0
  191.6200  171.4250  140.0170 C   0  0  1  0  0  3  0  0  0  0  0  0
  191.5730  172.8680  140.3720 N   0  0  2  0  0  0  0  0  0  0  0  0
  192.3940  171.9250  141.1510 C   0  0  2  0  0  3  0  0  0  0  0  0
  190.5130  170.7090  140.4860 O   0  0  0  0  0  1  0  0  0  0  0  0
  193.8430  172.0980  140.7880 C   0  0  0  0  0  0  0  0  0  0  0  0
  194.4490  173.1660  141.1570 N   0  0  0  0  0  2  0  0  0  0  0  0
  194.3080  170.6780  138.9150 O   0  0  0  0  0  1  0  0  0  0  0  0
  194.6620  170.9620  140.2350 C   0  0  2  0  0  3  0  0  0  0  0  0
  194.5800  169.7050  141.0990 C   0  0  0  0  0  2  0  0  0  0  0  0
  195.4450  169.7890  142.1910 O   0  0  0  0  0  0  0  0  0  0  0  0
  194.6130  169.7490  143.3130 C   0  0  0  0  0  2  0  0  0  0  0  0
  195.4020  170.1380  144.5530 C   0  0  1  0  0  3  0  0  0  0  0  0
  196.5390  171.0480  144.1400 C   0  0  0  0  0  1  0  0  0  0  0  0
  194.5110  170.8770  145.5460 C   0  0  0  0  0  2  0  0  0  0  0  0
  194.8150  172.3700  145.5720 C   0  0  0  0  0  2  0  0  0  0  0  0
  193.6340  173.1620  145.0470 C   0  0  0  0  0  1  0  0  0  0  0  0
  2  1  1  0  0  0  0
  3 36  1  6  0  0  0
  3  7  1  0  0  0  0
  3  4  1  0  0  0  0
  4  2  1  0  0  0  0
  5  4  2  0  0  0  0
  6  1  2  0  0  0  0
  7  8  1  6  0  0  0
  7  6  1  0  0  0  0
  8  9  1  0  0  0  0
  9 14  1  6  0  0  0
  9 11  1  0  0  0  0
 11 10  1  1  0  0  0
 11 13  1  0  0  0  0
 13 12  1  0  0  0  0
 15 14  1  0  0  0  0
 16 19  1  0  0  0  0
 16 15  2  0  0  0  0
 17 18  1  0  0  0  0
 18 15  1  0  0  0  0
 20 21  1  0  0  0  0
 20 19  1  0  0  0  0
 22 24  1  6  0  0  0
 22 23  1  0  0  0  0
 22 21  1  0  0  0  0
 23 31  1  1  0  0  0
 25 27  1  6  0  0  0
 25 22  1  0  0  0  0
 25 23  1  0  0  0  0
 26 30  1  0  0  0  0
 26 27  1  0  0  0  0
 28 26  2  0  0  0  0
 29 30  1  0  0  0  0
 31 34  1  0  0  0  0
 33 32  2  0  0  0  0
 33 35  1  0  0  0  0
 34 33  1  0  0  0  0
 36 42  1  0  0  0  0
 37 39  1  6  0  0  0
 37 41  1  0  0  0  0
 38 42  1  0  0  0  0
 39 40  1  0  0  0  0
 40 38  1  0  0  0  0
 41 42  1  0  0  0  0
 43 44  1  0  0  0  0
 43 46  1  1  0  0  0
 43 45  1  0  0  0  0
 44 45  1  0  0  0  0
 44 37  1  1  0  0  0
 45 47  1  6  0  0  0
 47 48  2  0  0  0  0
 50 49  1  6  0  0  0
 50 47  1  0  0  0  0
 50 51  1  0  0  0  0
 51 52  1  0  0  0  0
 52 53  1  0  0  0  0
 53 54  1  0  0  0  0
 54 55  1  6  0  0  0
 54 56  1  0  0  0  0
 56 57  1  0  0  0  0
 58 57  1  0  0  0  0
M  END
>  <MODEL>
4

>  <REMARK>
 VINA RESULT:      -4.6      3.937      8.157
  Name = 
  26 active torsions:
  status: ('A' for Active; 'I' for Inactive)
    1  A    between atoms: C_3  and  O_31
    2  A    between atoms: C_5  and  C_50
    3  A    between atoms: C_6  and  C_30
    4  A    between atoms: C_6  and  CA_38
    5  A    between atoms: N_8  and  C_37
    6  A    between atoms: C_9  and  C_48
    7  A    between atoms: C_10  and  C_41
    8  A    between atoms: C_10  and  C_48
    9  A    between atoms: C_11  and  C_27
   10  A    between atoms: O_12  and  C_18
   11  A    between atoms: O_12  and  C_41
   12  A    between atoms: O_13  and  C_14
   13  A    between atoms: O_13  and  N_49
   14  A    between atoms: C_16  and  N_17
   15  A    between atoms: C_18  and  C_30
   16  A    between atoms: C_27  and  S_46
   17  A    between atoms: C_33  and  C_42
   18  A    between atoms: C_35  and  C_39
   19  A    between atoms: C_35  and  C_44
   20  A    between atoms: C_39  and  C_55
   21  A    between atoms: C_42  and  N_54
   22  A    between atoms: S_46  and  O_53
   23  A    between atoms: N_47  and  O_53
   24  A    between atoms: C_50  and  C_55
   25  A    between atoms: C_55  and  C_57
   26  A    between atoms: C_56  and  C_57
                            x       y       z     vdW  Elec       q    Type
                         _______ _______ _______ _____ _____    ______ ____

>  <TORSDO>
F 26

$$$$
=
 OpenBabel11072409213D

 58 61  0  0  1  0  0  0  0  0999 V2000
  190.1090  172.9550  144.8930 C   0  0  0  0  0  3  0  0  0  0  0  0
  189.4480  172.4750  143.7240 N   0  0  0  0  0  0  0  0  0  0  0  0
  191.7040  172.0480  142.6300 C   0  0  2  0  0  3  0  0  0  0  0  0
  190.1950  172.0270  142.5930 C   0  0  0  0  0  0  0  0  0  0  0  0
  189.5850  171.5270  141.6110 O   0  0  0  0  0  0  0  0  0  0  0  0
  191.4200  173.1820  144.8930 C   0  0  0  0  0  2  0  0  0  0  0  0
  192.2730  173.0490  143.6570 C   0  0  1  0  0  3  0  0  0  0  0  0
  193.6910  172.6170  144.0470 C   0  0  0  0  0  2  0  0  0  0  0  0
  194.7910  173.6820  143.8650 C   0  0  1  0  0  3  0  0  0  0  0  0
  196.5650  173.4530  142.0240 C   0  0  0  0  0  1  0  0  0  0  0  0
  196.1790  173.1670  143.4660 C   0  0  2  0  0  3  0  0  0  0  0  0
  197.7630  171.4360  144.0200 O   0  0  0  0  0  1  0  0  0  0  0  0
  196.4030  171.7070  143.8490 C   0  0  0  0  0  2  0  0  0  0  0  0
  194.3690  174.8900  143.0370 C   0  0  0  0  0  2  0  0  0  0  0  0
  194.4220  176.1430  143.8570 C   0  0  0  0  0  0  0  0  0  0  0  0
  193.3500  176.8270  144.1140 N   0  0  0  0  0  0  0  0  0  0  0  0
  196.6420  176.7750  143.3610 O   0  0  0  0  0  1  0  0  0  0  0  0
  195.7310  176.5930  144.4040 C   0  0  0  0  0  2  0  0  0  0  0  0
  192.1120  176.4280  143.6620 O   0  0  0  0  0  0  0  0  0  0  0  0
  190.9340  177.6180  143.1970 S   0  0  0  0  0  0  0  0  0  0  0  0
  189.6090  176.7380  144.0780 C   0  0  0  0  0  2  0  0  0  0  0  0
  188.4920  176.3570  143.1130 C   0  0  2  0  0  0  0  0  0  0  0  0
  187.1010  176.1600  143.7030 C   0  0  2  0  0  3  0  0  0  0  0  0
  188.8190  175.4010  141.9750 C   0  0  0  0  0  1  0  0  0  0  0  0
  187.4170  177.4150  142.8980 C   0  0  2  0  0  3  0  0  0  0  0  0
  185.6050  178.0070  141.2610 C   0  0  0  0  0  0  0  0  0  0  0  0
  186.8110  177.3150  141.5790 N   0  0  0  0  0  2  0  0  0  0  0  0
  185.1030  177.8770  140.1120 O   0  0  0  0  0  0  0  0  0  0  0  0
  183.7460  178.4770  142.8050 C   0  0  0  0  0  1  0  0  0  0  0  0
  184.9920  178.8200  142.2170 O   0  0  0  0  0  0  0  0  0  0  0  0
  187.0640  176.4920  145.0640 O   0  0  0  0  0  0  0  0  0  0  0  0
  186.2940  177.6190  147.4740 O   0  0  0  0  0  0  0  0  0  0  0  0
  185.4810  177.6240  146.5140 C   0  0  0  0  0  0  0  0  0  0  0  0
  185.8500  177.0690  145.2510 N   0  0  0  0  0  2  0  0  0  0  0  0
  184.1310  178.2200  146.6910 C   0  0  0  0  0  1  0  0  0  0  0  0
  192.3200  172.2670  141.2420 C   0  0  0  0  0  2  0  0  0  0  0  0
  193.8990  170.8590  138.5620 C   0  0  2  0  0  3  0  0  0  0  0  0
  192.9830  169.9790  140.9730 C   0  0  0  0  0  2  0  0  0  0  0  0
  192.4380  170.4390  138.5200 C   0  0  0  0  0  2  0  0  0  0  0  0
  192.0520  169.6790  139.7870 C   0  0  0  0  0  2  0  0  0  0  0  0
  194.1250  171.7920  139.7630 C   0  0  0  0  0  2  0  0  0  0  0  0
  193.4520  171.3720  141.0070 N   0  0  0  0  0  0  0  0  0  0  0  0
  195.6150  171.2170  136.8390 C   0  0  1  0  0  3  0  0  0  0  0  0
  194.2490  171.5500  137.3210 N   0  0  2  0  0  0  0  0  0  0  0  0
  195.3890  172.4380  137.6100 C   0  0  2  0  0  3  0  0  0  0  0  0
  196.2640  170.2720  137.6420 O   0  0  0  0  0  1  0  0  0  0  0  0
  195.3290  173.6450  136.7140 C   0  0  0  0  0  0  0  0  0  0  0  0
  196.4060  174.0510  136.1510 N   0  0  0  0  0  2  0  0  0  0  0  0
  194.1850  175.0390  135.1360 O   0  0  0  0  0  1  0  0  0  0  0  0
  194.0170  174.2290  136.2610 C   0  0  2  0  0  3  0  0  0  0  0  0
  193.2990  174.9910  137.3730 C   0  0  0  0  0  2  0  0  0  0  0  0
  192.2620  174.2280  137.9140 O   0  0  0  0  0  0  0  0  0  0  0  0
  191.5220  173.7930  136.8110 C   0  0  0  0  0  2  0  0  0  0  0  0
  190.1140  173.4230  137.2490 C   0  0  1  0  0  3  0  0  0  0  0  0
  190.0480  173.4700  138.7610 C   0  0  0  0  0  1  0  0  0  0  0  0
  189.0990  174.4070  136.6770 C   0  0  0  0  0  2  0  0  0  0  0  0
  189.6010  175.0490  135.3900 C   0  0  0  0  0  2  0  0  0  0  0  0
  188.4910  175.8350  134.7200 C   0  0  0  0  0  1  0  0  0  0  0  0
  1  6  1  0  0  0  0
  2  1  2  0  0  0  0
  3 36  1  6  0  0  0
  3  7  1  0  0  0  0
  4  3  1  0  0  0  0
  4  2  1  0  0  0  0
  5  4  2  0  0  0  0
  7  8  1  1  0  0  0
  7  6  1  0  0  0  0
  9 14  1  6  0  0  0
  9  8  1  0  0  0  0
 11 10  1  6  0  0  0
 11 13  1  0  0  0  0
 11  9  1  0  0  0  0
 13 12  1  0  0  0  0
 14 15  1  0  0  0  0
 15 16  2  0  0  0  0
 15 18  1  0  0  0  0
 17 18  1  0  0  0  0
 19 16  1  0  0  0  0
 20 19  1  0  0  0  0
 20 21  1  0  0  0  0
 22 24  1  6  0  0  0
 22 23  1  0  0  0  0
 22 21  1  0  0  0  0
 23 31  1  1  0  0  0
 25 27  1  6  0  0  0
 25 22  1  0  0  0  0
 25 23  1  0  0  0  0
 26 27  1  0  0  0  0
 26 30  1  0  0  0  0
 28 26  2  0  0  0  0
 30 29  1  0  0  0  0
 31 34  1  0  0  0  0
 33 35  1  0  0  0  0
 33 32  2  0  0  0  0
 34 33  1  0  0  0  0
 37 39  1  6  0  0  0
 37 41  1  0  0  0  0
 38 42  1  0  0  0  0
 39 40  1  0  0  0  0
 40 38  1  0  0  0  0
 41 42  1  0  0  0  0
 42 36  1  0  0  0  0
 43 44  1  0  0  0  0
 43 45  1  0  0  0  0
 43 46  1  1  0  0  0
 44 45  1  0  0  0  0
 44 37  1  1  0  0  0
 45 47  1  6  0  0  0
 48 47  2  0  0  0  0
 50 49  1  6  0  0  0
 50 47  1  0  0  0  0
 50 51  1  0  0  0  0
 51 52  1  0  0  0  0
 53 54  1  0  0  0  0
 53 52  1  0  0  0  0
 54 55  1  1  0  0  0
 56 54  1  0  0  0  0
 57 56  1  0  0  0  0
 58 57  1  0  0  0  0
M  END
>  <MODEL>
5

>  <REMARK>
 VINA RESULT:      -4.5      1.628      2.164
  Name = 
  26 active torsions:
  status: ('A' for Active; 'I' for Inactive)
    1  A    between atoms: C_3  and  O_31
    2  A    between atoms: C_5  and  C_50
    3  A    between atoms: C_6  and  C_30
    4  A    between atoms: C_6  and  CA_38
    5  A    between atoms: N_8  and  C_37
    6  A    between atoms: C_9  and  C_48
    7  A    between atoms: C_10  and  C_41
    8  A    between atoms: C_10  and  C_48
    9  A    between atoms: C_11  and  C_27
   10  A    between atoms: O_12  and  C_18
   11  A    between atoms: O_12  and  C_41
   12  A    between atoms: O_13  and  C_14
   13  A    between atoms: O_13  and  N_49
   14  A    between atoms: C_16  and  N_17
   15  A    between atoms: C_18  and  C_30
   16  A    between atoms: C_27  and  S_46
   17  A    between atoms: C_33  and  C_42
   18  A    between atoms: C_35  and  C_39
   19  A    between atoms: C_35  and  C_44
   20  A    between atoms: C_39  and  C_55
   21  A    between atoms: C_42  and  N_54
   22  A    between atoms: S_46  and  O_53
   23  A    between atoms: N_47  and  O_53
   24  A    between atoms: C_50  and  C_55
   25  A    between atoms: C_55  and  C_57
   26  A    between atoms: C_56  and  C_57
                            x       y       z     vdW  Elec       q    Type
                         _______ _______ _______ _____ _____    ______ ____

>  <TORSDO>
F 26

$$$$
=
 OpenBabel11072409213D

 58 61  0  0  1  0  0  0  0  0999 V2000
  190.3650  174.0880  145.8940 C   0  0  0  0  0  3  0  0  0  0  0  0
  189.5200  173.3500  145.0140 N   0  0  0  0  0  0  0  0  0  0  0  0
  191.5490  172.1170  144.1040 C   0  0  2  0  0  3  0  0  0  0  0  0
  190.0630  172.3800  144.1190 C   0  0  0  0  0  0  0  0  0  0  0  0
  189.2820  171.6830  143.4170 O   0  0  0  0  0  0  0  0  0  0  0  0
  191.6890  174.0370  145.7710 C   0  0  0  0  0  2  0  0  0  0  0  0
  192.3800  173.2940  144.6570 C   0  0  1  0  0  3  0  0  0  0  0  0
  193.7350  172.7670  145.1430 C   0  0  0  0  0  2  0  0  0  0  0  0
  194.9770  173.4610  144.5500 C   0  0  1  0  0  3  0  0  0  0  0  0
  196.1350  171.2240  145.0430 C   0  0  0  0  0  1  0  0  0  0  0  0
  196.2880  172.6670  144.5940 C   0  0  2  0  0  3  0  0  0  0  0  0
  197.0570  173.5770  146.6900 O   0  0  0  0  0  1  0  0  0  0  0  0
  197.3980  173.3950  145.3470 C   0  0  0  0  0  2  0  0  0  0  0  0
  194.7480  174.1120  143.1910 C   0  0  0  0  0  2  0  0  0  0  0  0
  195.2020  175.5400  143.2010 C   0  0  0  0  0  0  0  0  0  0  0  0
  194.3560  176.5160  143.3270 N   0  0  0  0  0  0  0  0  0  0  0  0
  197.1720  175.2330  141.9360 O   0  0  0  0  0  1  0  0  0  0  0  0
  196.6560  175.8360  143.0850 C   0  0  0  0  0  2  0  0  0  0  0  0
  193.0060  176.2880  143.4750 O   0  0  0  0  0  0  0  0  0  0  0  0
  192.1060  177.1630  144.6760 S   0  0  0  0  0  0  0  0  0  0  0  0
  191.0670  177.9530  143.4110 C   0  0  0  0  0  2  0  0  0  0  0  0
  190.0370  176.9650  142.8770 C   0  0  2  0  0  0  0  0  0  0  0  0
  188.7070  176.8810  143.6150 C   0  0  2  0  0  3  0  0  0  0  0  0
  190.5300  175.6270  142.3440 C   0  0  0  0  0  1  0  0  0  0  0  0
  188.7860  177.5840  142.2640 C   0  0  2  0  0  3  0  0  0  0  0  0
  187.0170  177.1100  140.5440 C   0  0  0  0  0  0  0  0  0  0  0  0
  188.2050  176.7320  141.2370 N   0  0  0  0  0  2  0  0  0  0  0  0
  186.5370  176.3340  139.6750 O   0  0  0  0  0  0  0  0  0  0  0  0
  185.0050  178.4180  141.0950 C   0  0  0  0  0  1  0  0  0  0  0  0
  186.3980  178.3290  140.8290 O   0  0  0  0  0  0  0  0  0  0  0  0
  188.6120  177.8490  144.6240 O   0  0  0  0  0  0  0  0  0  0  0  0
  187.8090  176.3260  146.7930 O   0  0  0  0  0  0  0  0  0  0  0  0
  186.9430  176.9820  146.1570 C   0  0  0  0  0  0  0  0  0  0  0  0
  187.3240  177.7930  145.0460 N   0  0  0  0  0  2  0  0  0  0  0  0
  185.5180  176.9200  146.5720 C   0  0  0  0  0  1  0  0  0  0  0  0
  192.0530  171.6840  142.7210 C   0  0  0  0  0  2  0  0  0  0  0  0
  193.6220  169.3950  140.7320 C   0  0  2  0  0  3  0  0  0  0  0  0
  192.7200  169.4550  143.3030 C   0  0  0  0  0  2  0  0  0  0  0  0
  192.1620  168.9880  140.8540 C   0  0  0  0  0  2  0  0  0  0  0  0
  191.7830  168.7430  142.3130 C   0  0  0  0  0  2  0  0  0  0  0  0
  193.8520  170.7010  141.5090 C   0  0  0  0  0  2  0  0  0  0  0  0
  193.1860  170.7650  142.8230 N   0  0  0  0  0  0  0  0  0  0  0  0
  195.2600  168.9550  138.9530 C   0  0  1  0  0  3  0  0  0  0  0  0
  193.9650  169.5850  139.3230 N   0  0  2  0  0  0  0  0  0  0  0  0
  195.2040  170.3810  139.2670 C   0  0  2  0  0  3  0  0  0  0  0  0
  195.8580  168.2660  140.0150 O   0  0  0  0  0  1  0  0  0  0  0  0
  195.2110  171.2160  138.0160 C   0  0  0  0  0  0  0  0  0  0  0  0
  196.1680  172.0500  137.8360 N   0  0  0  0  0  2  0  0  0  0  0  0
  194.9970  170.6140  135.7070 O   0  0  0  0  0  1  0  0  0  0  0  0
  194.2840  170.9270  136.8660 C   0  0  2  0  0  3  0  0  0  0  0  0
  193.3000  172.0660  136.6050 C   0  0  0  0  0  2  0  0  0  0  0  0
  192.0110  171.7190  137.0130 O   0  0  0  0  0  0  0  0  0  0  0  0
  191.4970  172.8760  137.6050 C   0  0  0  0  0  2  0  0  0  0  0  0
  190.1660  173.2350  136.9640 C   0  0  1  0  0  3  0  0  0  0  0  0
  189.5450  171.9750  136.3980 C   0  0  0  0  0  1  0  0  0  0  0  0
  189.2180  173.8340  137.9970 C   0  0  0  0  0  2  0  0  0  0  0  0
  188.5240  172.7540  138.8170 C   0  0  0  0  0  2  0  0  0  0  0  0
  188.4320  173.1690  140.2720 C   0  0  0  0  0  1  0  0  0  0  0  0
  2  1  2  0  0  0  0
  3 36  1  6  0  0  0
  3  4  1  0  0  0  0
  3  7  1  0  0  0  0
  4  2  1  0  0  0  0
  5  4  2  0  0  0  0
  6  1  1  0  0  0  0
  7  8  1  1  0  0  0
  7  6  1  0  0  0  0
  9 14  1  6  0  0  0
  9 11  1  0  0  0  0
  9  8  1  0  0  0  0
 11 10  1  1  0  0  0
 11 13  1  0  0  0  0
 13 12  1  0  0  0  0
 14 15  1  0  0  0  0
 15 16  2  0  0  0  0
 16 19  1  0  0  0  0
 17 18  1  0  0  0  0
 18 15  1  0  0  0  0
 19 20  1  0  0  0  0
 21 20  1  0  0  0  0
 22 24  1  6  0  0  0
 22 21  1  0  0  0  0
 22 23  1  0  0  0  0
 23 31  1  1  0  0  0
 25 27  1  6  0  0  0
 25 22  1  0  0  0  0
 25 23  1  0  0  0  0
 26 30  1  0  0  0  0
 26 27  1  0  0  0  0
 28 26  2  0  0  0  0
 30 29  1  0  0  0  0
 31 34  1  0  0  0  0
 33 35  1  0  0  0  0
 33 32  2  0  0  0  0
 34 33  1  0  0  0  0
 36 42  1  0  0  0  0
 37 39  1  6  0  0  0
 37 41  1  0  0  0  0
 39 40  1  0  0  0  0
 40 38  1  0  0  0  0
 41 42  1  0  0  0  0
 42 38  1  0  0  0  0
 43 45  1  0  0  0  0
 43 44  1  0  0  0  0
 43 46  1  1  0  0  0
 44 37  1  1  0  0  0
 45 47  1  6  0  0  0
 45 44  1  0  0  0  0
 48 47  2  0  0  0  0
 50 49  1  6  0  0  0
 50 47  1  0  0  0  0
 51 50  1  0  0  0  0
 51 52  1  0  0  0  0
 52 53  1  0  0  0  0
 54 55  1  1  0  0  0
 54 53  1  0  0  0  0
 54 56  1  0  0  0  0
 56 57  1  0  0  0  0
 57 58  1  0  0  0  0
M  END
>  <MODEL>
6

>  <REMARK>
 VINA RESULT:      -4.2      2.151      2.916
  Name = 
  26 active torsions:
  status: ('A' for Active; 'I' for Inactive)
    1  A    between atoms: C_3  and  O_31
    2  A    between atoms: C_5  and  C_50
    3  A    between atoms: C_6  and  C_30
    4  A    between atoms: C_6  and  CA_38
    5  A    between atoms: N_8  and  C_37
    6  A    between atoms: C_9  and  C_48
    7  A    between atoms: C_10  and  C_41
    8  A    between atoms: C_10  and  C_48
    9  A    between atoms: C_11  and  C_27
   10  A    between atoms: O_12  and  C_18
   11  A    between atoms: O_12  and  C_41
   12  A    between atoms: O_13  and  C_14
   13  A    between atoms: O_13  and  N_49
   14  A    between atoms: C_16  and  N_17
   15  A    between atoms: C_18  and  C_30
   16  A    between atoms: C_27  and  S_46
   17  A    between atoms: C_33  and  C_42
   18  A    between atoms: C_35  and  C_39
   19  A    between atoms: C_35  and  C_44
   20  A    between atoms: C_39  and  C_55
   21  A    between atoms: C_42  and  N_54
   22  A    between atoms: S_46  and  O_53
   23  A    between atoms: N_47  and  O_53
   24  A    between atoms: C_50  and  C_55
   25  A    between atoms: C_55  and  C_57
   26  A    between atoms: C_56  and  C_57
                            x       y       z     vdW  Elec       q    Type
                         _______ _______ _______ _____ _____    ______ ____

>  <TORSDO>
F 26

$$$$
=
 OpenBabel11072409213D

 58 61  0  0  1  0  0  0  0  0999 V2000
  190.7570  176.9920  147.0170 C   0  0  0  0  0  3  0  0  0  0  0  0
  191.7630  176.7380  146.0380 N   0  0  0  0  0  0  0  0  0  0  0  0
  190.0410  177.0470  144.1940 C   0  0  2  0  0  3  0  0  0  0  0  0
  191.4500  176.7510  144.6460 C   0  0  0  0  0  0  0  0  0  0  0  0
  192.3770  176.6100  143.8050 O   0  0  0  0  0  0  0  0  0  0  0  0
  189.4730  177.0540  146.6760 C   0  0  0  0  0  2  0  0  0  0  0  0
  188.9820  176.7680  145.2800 C   0  0  1  0  0  3  0  0  0  0  0  0
  187.7290  177.6000  144.9870 C   0  0  0  0  0  2  0  0  0  0  0  0
  186.4030  176.8180  144.9210 C   0  0  1  0  0  3  0  0  0  0  0  0
  184.2650  177.9610  145.7650 C   0  0  0  0  0  1  0  0  0  0  0  0
  185.4250  177.0320  146.0820 C   0  0  2  0  0  3  0  0  0  0  0  0
  186.5540  176.2600  148.0680 O   0  0  0  0  0  1  0  0  0  0  0  0
  186.1250  177.4020  147.3870 C   0  0  0  0  0  2  0  0  0  0  0  0
  185.7040  176.8730  143.5670 C   0  0  0  0  0  2  0  0  0  0  0  0
  185.5490  178.2900  143.1050 C   0  0  0  0  0  0  0  0  0  0  0  0
  184.5390  178.6570  142.3780 N   0  0  0  0  0  0  0  0  0  0  0  0
  185.9360  180.4650  143.9420 O   0  0  0  0  0  1  0  0  0  0  0  0
  186.5690  179.2970  143.5110 C   0  0  0  0  0  2  0  0  0  0  0  0
  183.5530  177.7700  142.0110 O   0  0  0  0  0  0  0  0  0  0  0  0
  182.6470  178.0350  140.5530 S   0  0  0  0  0  0  0  0  0  0  0  0
  181.2440  178.7290  141.4790 C   0  0  0  0  0  2  0  0  0  0  0  0
  180.0200  178.8480  140.5780 C   0  0  2  0  0  0  0  0  0  0  0  0
  178.7390  179.3730  141.2120 C   0  0  2  0  0  3  0  0  0  0  0  0
  179.7900  177.7710  139.5270 C   0  0  0  0  0  1  0  0  0  0  0  0
  179.5530  180.2690  140.2860 C   0  0  2  0  0  3  0  0  0  0  0  0
  178.8940  181.5860  138.2510 C   0  0  0  0  0  0  0  0  0  0  0  0
  178.8880  180.3700  138.9960 N   0  0  0  0  0  2  0  0  0  0  0  0
  178.2900  181.6350  137.1460 O   0  0  0  0  0  0  0  0  0  0  0  0
  178.8980  183.9370  138.9800 C   0  0  0  0  0  1  0  0  0  0  0  0
  179.5660  182.7070  138.7440 O   0  0  0  0  0  0  0  0  0  0  0  0
  178.9460  179.7820  142.5360 O   0  0  0  0  0  0  0  0  0  0  0  0
  178.5050  179.8960  145.2690 O   0  0  0  0  0  0  0  0  0  0  0  0
  178.4920  178.7750  144.6980 C   0  0  0  0  0  0  0  0  0  0  0  0
  178.6970  178.6800  143.2880 N   0  0  0  0  0  2  0  0  0  0  0  0
  178.2530  177.5430  145.4930 C   0  0  0  0  0  1  0  0  0  0  0  0
  189.6870  176.3390  142.8800 C   0  0  0  0  0  2  0  0  0  0  0  0
  189.9700  173.7360  140.6880 C   0  0  2  0  0  3  0  0  0  0  0  0
  188.7470  174.1420  143.0890 C   0  0  0  0  0  2  0  0  0  0  0  0
  188.5730  174.3190  140.5460 C   0  0  0  0  0  2  0  0  0  0  0  0
  187.8150  174.2490  141.8710 C   0  0  0  0  0  2  0  0  0  0  0  0
  190.7570  174.5490  141.7290 C   0  0  0  0  0  2  0  0  0  0  0  0
  189.9930  174.9100  142.9370 N   0  0  0  0  0  0  0  0  0  0  0  0
  190.7160  172.4550  138.7270 C   0  0  1  0  0  3  0  0  0  0  0  0
  190.6560  173.7810  139.3970 N   0  0  2  0  0  0  0  0  0  0  0  0
  191.8590  172.9350  139.5000 C   0  0  2  0  0  3  0  0  0  0  0  0
  190.0580  171.4480  139.4440 O   0  0  0  0  0  1  0  0  0  0  0  0
  192.9360  173.4780  138.6000 C   0  0  0  0  0  0  0  0  0  0  0  0
  192.6370  173.7780  137.3910 N   0  0  0  0  0  2  0  0  0  0  0  0
  195.0560  172.8170  139.4990 O   0  0  0  0  0  1  0  0  0  0  0  0
  194.2720  173.9150  139.1390 C   0  0  2  0  0  3  0  0  0  0  0  0
  194.1430  174.8920  140.3060 C   0  0  0  0  0  2  0  0  0  0  0  0
  195.3330  174.9630  141.0340 O   0  0  0  0  0  0  0  0  0  0  0  0
  194.9420  174.8720  142.3720 C   0  0  0  0  0  2  0  0  0  0  0  0
  196.0750  174.2900  143.2010 C   0  0  1  0  0  3  0  0  0  0  0  0
  196.8190  175.4260  143.8710 C   0  0  0  0  0  1  0  0  0  0  0  0
  195.5290  173.3540  144.2750 C   0  0  0  0  0  2  0  0  0  0  0  0
  194.0480  173.0640  144.0670 C   0  0  0  0  0  2  0  0  0  0  0  0
  193.2520  173.4610  145.2940 C   0  0  0  0  0  1  0  0  0  0  0  0
  2  1  2  0  0  0  0
  3 36  1  6  0  0  0
  3  4  1  0  0  0  0
  3  7  1  0  0  0  0
  4  2  1  0  0  0  0
  5  4  2  0  0  0  0
  6  1  1  0  0  0  0
  7  8  1  6  0  0  0
  7  6  1  0  0  0  0
  9 14  1  6  0  0  0
  9  8  1  0  0  0  0
  9 11  1  0  0  0  0
 11 10  1  6  0  0  0
 11 13  1  0  0  0  0
 13 12  1  0  0  0  0
 15 18  1  0  0  0  0
 15 14  1  0  0  0  0
 16 15  2  0  0  0  0
 18 17  1  0  0  0  0
 19 16  1  0  0  0  0
 20 21  1  0  0  0  0
 20 19  1  0  0  0  0
 22 24  1  6  0  0  0
 22 23  1  0  0  0  0
 22 21  1  0  0  0  0
 23 31  1  1  0  0  0
 25 27  1  6  0  0  0
 25 22  1  0  0  0  0
 25 23  1  0  0  0  0
 26 30  1  0  0  0  0
 26 27  1  0  0  0  0
 28 26  2  0  0  0  0
 30 29  1  0  0  0  0
 31 34  1  0  0  0  0
 33 32  2  0  0  0  0
 33 35  1  0  0  0  0
 34 33  1  0  0  0  0
 36 42  1  0  0  0  0
 37 39  1  6  0  0  0
 37 41  1  0  0  0  0
 39 40  1  0  0  0  0
 40 38  1  0  0  0  0
 41 42  1  0  0  0  0
 42 38  1  0  0  0  0
 43 44  1  0  0  0  0
 43 46  1  1  0  0  0
 43 45  1  0  0  0  0
 44 45  1  0  0  0  0
 44 37  1  1  0  0  0
 45 47  1  6  0  0  0
 47 50  1  0  0  0  0
 48 47  2  0  0  0  0
 50 49  1  1  0  0  0
 50 51  1  0  0  0  0
 51 52  1  0  0  0  0
 52 53  1  0  0  0  0
 53 54  1  0  0  0  0
 54 55  1  1  0  0  0
 54 56  1  0  0  0  0
 57 56  1  0  0  0  0
 57 58  1  0  0  0  0
M  END
>  <MODEL>
7

>  <REMARK>
 VINA RESULT:      -3.9      3.809      7.797
  Name = 
  26 active torsions:
  status: ('A' for Active; 'I' for Inactive)
    1  A    between atoms: C_3  and  O_31
    2  A    between atoms: C_5  and  C_50
    3  A    between atoms: C_6  and  C_30
    4  A    between atoms: C_6  and  CA_38
    5  A    between atoms: N_8  and  C_37
    6  A    between atoms: C_9  and  C_48
    7  A    between atoms: C_10  and  C_41
    8  A    between atoms: C_10  and  C_48
    9  A    between atoms: C_11  and  C_27
   10  A    between atoms: O_12  and  C_18
   11  A    between atoms: O_12  and  C_41
   12  A    between atoms: O_13  and  C_14
   13  A    between atoms: O_13  and  N_49
   14  A    between atoms: C_16  and  N_17
   15  A    between atoms: C_18  and  C_30
   16  A    between atoms: C_27  and  S_46
   17  A    between atoms: C_33  and  C_42
   18  A    between atoms: C_35  and  C_39
   19  A    between atoms: C_35  and  C_44
   20  A    between atoms: C_39  and  C_55
   21  A    between atoms: C_42  and  N_54
   22  A    between atoms: S_46  and  O_53
   23  A    between atoms: N_47  and  O_53
   24  A    between atoms: C_50  and  C_55
   25  A    between atoms: C_55  and  C_57
   26  A    between atoms: C_56  and  C_57
                            x       y       z     vdW  Elec       q    Type
                         _______ _______ _______ _____ _____    ______ ____

>  <TORSDO>
F 26

$$$$
=
 OpenBabel11072409213D

 58 61  0  0  1  0  0  0  0  0999 V2000
  189.9880  177.0760  147.0580 C   0  0  0  0  0  3  0  0  0  0  0  0
  191.1900  176.6880  146.3950 N   0  0  0  0  0  2  0  0  0  0  0  0
  190.0290  176.9480  144.1480 C   0  0  2  0  0  3  0  0  0  0  0  0
  191.2480  176.6090  144.9710 C   0  0  0  0  0  0  0  0  0  0  0  0
  192.3470  176.3490  144.4120 O   0  0  0  0  0  0  0  0  0  0  0  0
  188.8430  177.1840  146.3890 C   0  0  0  0  0  3  0  0  0  0  0  0
  188.7080  176.8160  144.9330 C   0  0  1  0  0  3  0  0  0  0  0  0
  187.6390  177.6930  144.2710 C   0  0  0  0  0  2  0  0  0  0  0  0
  186.1820  177.2230  144.4450 C   0  0  1  0  0  3  0  0  0  0  0  0
  185.4540  179.6130  145.0320 C   0  0  0  0  0  1  0  0  0  0  0  0
  185.2690  178.1260  145.2830 C   0  0  2  0  0  3  0  0  0  0  0  0
  184.5240  176.6430  147.0330 O   0  0  0  0  0  1  0  0  0  0  0  0
  185.2940  177.7790  146.7690 C   0  0  0  0  0  2  0  0  0  0  0  0
  185.5080  176.7660  143.1560 C   0  0  0  0  0  2  0  0  0  0  0  0
  185.6700  177.7930  142.0770 C   0  0  0  0  0  0  0  0  0  0  0  0
  184.6420  178.3040  141.4720 N   0  0  0  0  0  0  0  0  0  0  0  0
  187.4700  177.5770  140.5650 O   0  0  0  0  0  1  0  0  0  0  0  0
  187.0400  178.2460  141.7130 C   0  0  0  0  0  2  0  0  0  0  0  0
  183.3550  177.9420  141.8020 O   0  0  0  0  0  0  0  0  0  0  0  0
  182.1890  177.6470  140.5490 S   0  0  0  0  0  0  0  0  0  0  0  0
  180.9360  178.6590  141.3910 C   0  0  0  0  0  2  0  0  0  0  0  0
  179.6690  178.7460  140.5480 C   0  0  2  0  0  0  0  0  0  0  0  0
  178.4260  179.3160  141.2190 C   0  0  2  0  0  3  0  0  0  0  0  0
  179.3770  177.6190  139.5680 C   0  0  0  0  0  1  0  0  0  0  0  0
  179.2000  180.1560  140.2090 C   0  0  2  0  0  3  0  0  0  0  0  0
  178.6370  181.2750  138.0310 C   0  0  0  0  0  0  0  0  0  0  0  0
  178.4700  180.1980  138.9500 N   0  0  0  0  0  2  0  0  0  0  0  0
  177.9720  181.2820  136.9600 O   0  0  0  0  0  0  0  0  0  0  0  0
  179.1020  183.5320  138.8960 C   0  0  0  0  0  1  0  0  0  0  0  0
  179.5320  182.3090  138.3180 O   0  0  0  0  0  0  0  0  0  0  0  0
  178.7040  179.7900  142.5090 O   0  0  0  0  0  0  0  0  0  0  0  0
  179.2380  179.8080  145.2270 O   0  0  0  0  0  0  0  0  0  0  0  0
  178.6220  178.8270  144.7350 C   0  0  0  0  0  0  0  0  0  0  0  0
  178.3130  178.7930  143.3410 N   0  0  0  0  0  2  0  0  0  0  0  0
  178.2040  177.7020  145.6110 C   0  0  0  0  0  1  0  0  0  0  0  0
  189.9730  176.1590  142.8330 C   0  0  0  0  0  2  0  0  0  0  0  0
  190.3370  172.8970  141.8910 C   0  0  2  0  0  3  0  0  0  0  0  0
  188.3180  174.7270  141.8520 C   0  0  0  0  0  2  0  0  0  0  0  0
  190.3400  173.7520  140.6340 C   0  0  0  0  0  2  0  0  0  0  0  0
  189.0400  174.5430  140.5070 C   0  0  0  0  0  2  0  0  0  0  0  0
  190.2130  173.8080  143.1240 C   0  0  0  0  0  2  0  0  0  0  0  0
  189.2370  174.9050  142.9860 N   0  0  0  0  0  0  0  0  0  0  0  0
  191.4030  170.7120  141.5310 C   0  0  1  0  0  3  0  0  0  0  0  0
  191.5760  172.1230  141.9650 N   0  0  2  0  0  0  0  0  0  0  0  0
  191.3740  171.0480  142.9530 C   0  0  2  0  0  3  0  0  0  0  0  0
  190.1040  170.4290  141.0920 O   0  0  0  0  0  1  0  0  0  0  0  0
  192.6830  170.7210  143.6170 C   0  0  0  0  0  0  0  0  0  0  0  0
  193.2750  171.6320  144.2970 N   0  0  0  0  0  2  0  0  0  0  0  0
  193.0110  168.7980  145.0080 O   0  0  0  0  0  1  0  0  0  0  0  0
  193.1870  169.3060  143.7190 C   0  0  2  0  0  3  0  0  0  0  0  0
  194.6430  169.1690  143.2780 C   0  0  0  0  0  2  0  0  0  0  0  0
  194.8550  169.7940  142.0480 O   0  0  0  0  0  0  0  0  0  0  0  0
  195.8820  170.7120  142.2840 C   0  0  0  0  0  2  0  0  0  0  0  0
  196.7440  170.8520  141.0400 C   0  0  1  0  0  3  0  0  0  0  0  0
  196.6090  169.5910  140.2110 C   0  0  0  0  0  1  0  0  0  0  0  0
  196.2900  172.0450  140.2050 C   0  0  0  0  0  2  0  0  0  0  0  0
  197.3280  173.1600  140.2090 C   0  0  0  0  0  2  0  0  0  0  0  0
  196.6680  174.5010  139.9490 C   0  0  0  0  0  1  0  0  0  0  0  0
  2  1  1  0  0  0  0
  3 36  1  6  0  0  0
  3  7  1  0  0  0  0
  3  4  1  0  0  0  0
  4  2  1  0  0  0  0
  5  4  2  0  0  0  0
  6  1  2  0  0  0  0
  7  8  1  6  0  0  0
  7  6  1  0  0  0  0
  8  9  1  0  0  0  0
  9 14  1  6  0  0  0
  9 11  1  0  0  0  0
 11 10  1  1  0  0  0
 11 13  1  0  0  0  0
 13 12  1  0  0  0  0
 15 14  1  0  0  0  0
 16 19  1  0  0  0  0
 16 15  2  0  0  0  0
 17 18  1  0  0  0  0
 18 15  1  0  0  0  0
 20 21  1  0  0  0  0
 20 19  1  0  0  0  0
 22 24  1  6  0  0  0
 22 23  1  0  0  0  0
 22 21  1  0  0  0  0
 23 31  1  1  0  0  0
 25 27  1  6  0  0  0
 25 22  1  0  0  0  0
 25 23  1  0  0  0  0
 26 30  1  0  0  0  0
 26 27  1  0  0  0  0
 28 26  2  0  0  0  0
 30 29  1  0  0  0  0
 31 34  1  0  0  0  0
 33 32  2  0  0  0  0
 33 35  1  0  0  0  0
 34 33  1  0  0  0  0
 36 42  1  0  0  0  0
 37 39  1  6  0  0  0
 37 41  1  0  0  0  0
 38 42  1  0  0  0  0
 40 39  1  0  0  0  0
 40 38  1  0  0  0  0
 42 41  1  0  0  0  0
 43 46  1  6  0  0  0
 43 44  1  0  0  0  0
 43 45  1  0  0  0  0
 44 37  1  6  0  0  0
 44 45  1  0  0  0  0
 45 47  1  1  0  0  0
 47 50  1  0  0  0  0
 47 48  2  0  0  0  0
 50 49  1  1  0  0  0
 51 50  1  0  0  0  0
 52 53  1  0  0  0  0
 52 51  1  0  0  0  0
 54 55  1  6  0  0  0
 54 53  1  0  0  0  0
 56 57  1  0  0  0  0
 56 54  1  0  0  0  0
 58 57  1  0  0  0  0
M  END
>  <MODEL>
8

>  <REMARK>
 VINA RESULT:      -3.9      4.009      8.271
  Name = 
  26 active torsions:
  status: ('A' for Active; 'I' for Inactive)
    1  A    between atoms: C_3  and  O_31
    2  A    between atoms: C_5  and  C_50
    3  A    between atoms: C_6  and  C_30
    4  A    between atoms: C_6  and  CA_38
    5  A    between atoms: N_8  and  C_37
    6  A    between atoms: C_9  and  C_48
    7  A    between atoms: C_10  and  C_41
    8  A    between atoms: C_10  and  C_48
    9  A    between atoms: C_11  and  C_27
   10  A    between atoms: O_12  and  C_18
   11  A    between atoms: O_12  and  C_41
   12  A    between atoms: O_13  and  C_14
   13  A    between atoms: O_13  and  N_49
   14  A    between atoms: C_16  and  N_17
   15  A    between atoms: C_18  and  C_30
   16  A    between atoms: C_27  and  S_46
   17  A    between atoms: C_33  and  C_42
   18  A    between atoms: C_35  and  C_39
   19  A    between atoms: C_35  and  C_44
   20  A    between atoms: C_39  and  C_55
   21  A    between atoms: C_42  and  N_54
   22  A    between atoms: S_46  and  O_53
   23  A    between atoms: N_47  and  O_53
   24  A    between atoms: C_50  and  C_55
   25  A    between atoms: C_55  and  C_57
   26  A    between atoms: C_56  and  C_57
                            x       y       z     vdW  Elec       q    Type
                         _______ _______ _______ _____ _____    ______ ____

>  <TORSDO>
F 26

$$$$
=
 OpenBabel11072409213D

 58 61  0  0  1  0  0  0  0  0999 V2000
  189.7410  172.4180  144.8920 C   0  0  0  0  0  3  0  0  0  0  0  0
  189.6970  171.5440  143.7660 N   0  0  0  0  0  0  0  0  0  0  0  0
  191.9490  172.4340  142.9910 C   0  0  2  0  0  3  0  0  0  0  0  0
  190.7560  171.5260  142.8100 C   0  0  0  0  0  0  0  0  0  0  0  0
  190.7290  170.6820  141.8750 O   0  0  0  0  0  0  0  0  0  0  0  0
  190.6650  173.3710  144.9810 C   0  0  0  0  0  2  0  0  0  0  0  0
  191.6510  173.6610  143.8780 C   0  0  1  0  0  3  0  0  0  0  0  0
  192.9630  174.1800  144.4750 C   0  0  0  0  0  2  0  0  0  0  0  0
  193.2510  175.6800  144.2620 C   0  0  1  0  0  3  0  0  0  0  0  0
  194.5670  176.4230  142.1880 C   0  0  0  0  0  1  0  0  0  0  0  0
  194.6140  176.0340  143.6560 C   0  0  2  0  0  3  0  0  0  0  0  0
  196.9540  175.5610  143.9900 O   0  0  0  0  0  1  0  0  0  0  0  0
  195.6830  174.9840  143.9450 C   0  0  0  0  0  2  0  0  0  0  0  0
  192.1140  176.4540  143.6040 C   0  0  0  0  0  2  0  0  0  0  0  0
  190.9740  176.6400  144.5590 C   0  0  0  0  0  0  0  0  0  0  0  0
  189.7520  176.3830  144.2090 N   0  0  0  0  0  0  0  0  0  0  0  0
  190.0780  177.5280  146.5550 O   0  0  0  0  0  1  0  0  0  0  0  0
  191.2610  177.1100  145.9430 C   0  0  0  0  0  2  0  0  0  0  0  0
  189.4430  175.9110  142.9530 O   0  0  0  0  0  0  0  0  0  0  0  0
  187.9200  175.1230  142.6730 S   0  0  0  0  0  0  0  0  0  0  0  0
  187.7660  175.8730  141.0240 C   0  0  0  0  0  2  0  0  0  0  0  0
  187.2950  177.3180  141.1400 C   0  0  2  0  0  0  0  0  0  0  0  0
  186.3240  177.8200  140.0780 C   0  0  2  0  0  3  0  0  0  0  0  0
  188.2940  178.3680  141.6050 C   0  0  0  0  0  1  0  0  0  0  0  0
  185.8210  177.5050  141.4830 C   0  0  2  0  0  3  0  0  0  0  0  0
  185.2870  178.7470  143.6000 C   0  0  0  0  0  0  0  0  0  0  0  0
  185.5830  178.7450  142.2050 N   0  0  0  0  0  2  0  0  0  0  0  0
  185.0680  179.8430  144.1830 O   0  0  0  0  0  0  0  0  0  0  0  0
  185.6840  177.4500  145.6540 C   0  0  0  0  0  1  0  0  0  0  0  0
  185.2420  177.5440  144.3080 O   0  0  0  0  0  0  0  0  0  0  0  0
  185.9260  176.7920  139.2130 O   0  0  0  0  0  0  0  0  0  0  0  0
  185.2780  175.8500  136.6900 O   0  0  0  0  0  0  0  0  0  0  0  0
  186.4140  176.3580  136.8760 C   0  0  0  0  0  0  0  0  0  0  0  0
  186.7750  176.8710  138.1580 N   0  0  0  0  0  2  0  0  0  0  0  0
  187.3820  176.4340  135.7510 C   0  0  0  0  0  1  0  0  0  0  0  0
  192.5720  172.8550  141.6540 C   0  0  0  0  0  2  0  0  0  0  0  0
  195.2050  171.9750  139.6650 C   0  0  2  0  0  3  0  0  0  0  0  0
  194.5280  171.6160  142.2800 C   0  0  0  0  0  2  0  0  0  0  0  0
  194.3500  170.7370  139.8880 C   0  0  0  0  0  2  0  0  0  0  0  0
  194.2480  170.4040  141.3750 C   0  0  0  0  0  2  0  0  0  0  0  0
  194.5570  173.1740  140.3760 C   0  0  0  0  0  2  0  0  0  0  0  0
  194.0330  172.8840  141.7240 N   0  0  0  0  0  0  0  0  0  0  0  0
  196.6960  172.6150  137.8190 C   0  0  1  0  0  3  0  0  0  0  0  0
  195.3170  172.2450  138.2320 N   0  0  2  0  0  0  0  0  0  0  0  0
  195.7050  173.6580  138.0720 C   0  0  2  0  0  3  0  0  0  0  0  0
  197.6140  172.5770  138.8760 O   0  0  0  0  0  1  0  0  0  0  0  0
  195.1380  174.1950  136.7870 C   0  0  0  0  0  0  0  0  0  0  0  0
  195.6840  175.2230  136.2520 N   0  0  0  0  0  2  0  0  0  0  0  0
  194.0410  173.9000  134.6760 O   0  0  0  0  0  1  0  0  0  0  0  0
  194.1230  173.4220  135.9860 C   0  0  2  0  0  3  0  0  0  0  0  0
  192.7440  173.4090  136.6430 C   0  0  0  0  0  2  0  0  0  0  0  0
  192.2910  174.7070  136.8850 O   0  0  0  0  0  0  0  0  0  0  0  0
  191.0300  174.7650  136.2850 C   0  0  0  0  0  2  0  0  0  0  0  0
  190.2300  173.5240  136.6480 C   0  0  1  0  0  3  0  0  0  0  0  0
  189.2820  173.8700  137.7770 C   0  0  0  0  0  1  0  0  0  0  0  0
  189.4200  173.0390  135.4510 C   0  0  0  0  0  2  0  0  0  0  0  0
  189.4710  171.5220  135.3150 C   0  0  0  0  0  2  0  0  0  0  0  0
  190.0840  170.8980  136.5530 C   0  0  0  0  0  1  0  0  0  0  0  0
  1  6  1  0  0  0  0
  2  1  2  0  0  0  0
  3 36  1  6  0  0  0
  3  7  1  0  0  0  0
  4  3  1  0  0  0  0
  4  2  1  0  0  0  0
  5  4  2  0  0  0  0
  7  8  1  1  0  0  0
  7  6  1  0  0  0  0
  9 14  1  6  0  0  0
  9  8  1  0  0  0  0
 11 10  1  6  0  0  0
 11 13  1  0  0  0  0
 11  9  1  0  0  0  0
 13 12  1  0  0  0  0
 14 15  1  0  0  0  0
 15 18  1  0  0  0  0
 16 15  2  0  0  0  0
 18 17  1  0  0  0  0
 19 16  1  0  0  0  0
 20 19  1  0  0  0  0
 21 22  1  0  0  0  0
 21 20  1  0  0  0  0
 22 25  1  0  0  0  0
 22 24  1  1  0  0  0
 23 31  1  6  0  0  0
 23 22  1  0  0  0  0
 23 25  1  0  0  0  0
 25 27  1  1  0  0  0
 26 28  2  0  0  0  0
 26 30  1  0  0  0  0
 27 26  1  0  0  0  0
 30 29  1  0  0  0  0
 32 33  2  0  0  0  0
 33 34  1  0  0  0  0
 34 31  1  0  0  0  0
 35 33  1  0  0  0  0
 36 42  1  0  0  0  0
 37 39  1  6  0  0  0
 37 41  1  0  0  0  0
 39 40  1  0  0  0  0
 40 38  1  0  0  0  0
 41 42  1  0  0  0  0
 42 38  1  0  0  0  0
 43 45  1  0  0  0  0
 43 44  1  0  0  0  0
 43 46  1  1  0  0  0
 44 37  1  1  0  0  0
 45 47  1  6  0  0  0
 45 44  1  0  0  0  0
 48 47  2  0  0  0  0
 50 49  1  6  0  0  0
 50 51  1  0  0  0  0
 50 47  1  0  0  0  0
 51 52  1  0  0  0  0
 53 54  1  0  0  0  0
 53 52  1  0  0  0  0
 54 55  1  1  0  0  0
 56 54  1  0  0  0  0
 57 56  1  0  0  0  0
 57 58  1  0  0  0  0
M  END
>  <MODEL>
9

>  <REMARK>
 VINA RESULT:      -3.8      2.228      3.584
  Name = 
  26 active torsions:
  status: ('A' for Active; 'I' for Inactive)
    1  A    between atoms: C_3  and  O_31
    2  A    between atoms: C_5  and  C_50
    3  A    between atoms: C_6  and  C_30
    4  A    between atoms: C_6  and  CA_38
    5  A    between atoms: N_8  and  C_37
    6  A    between atoms: C_9  and  C_48
    7  A    between atoms: C_10  and  C_41
    8  A    between atoms: C_10  and  C_48
    9  A    between atoms: C_11  and  C_27
   10  A    between atoms: O_12  and  C_18
   11  A    between atoms: O_12  and  C_41
   12  A    between atoms: O_13  and  C_14
   13  A    between atoms: O_13  and  N_49
   14  A    between atoms: C_16  and  N_17
   15  A    between atoms: C_18  and  C_30
   16  A    between atoms: C_27  and  S_46
   17  A    between atoms: C_33  and  C_42
   18  A    between atoms: C_35  and  C_39
   19  A    between atoms: C_35  and  C_44
   20  A    between atoms: C_39  and  C_55
   21  A    between atoms: C_42  and  N_54
   22  A    between atoms: S_46  and  O_53
   23  A    between atoms: N_47  and  O_53
   24  A    between atoms: C_50  and  C_55
   25  A    between atoms: C_55  and  C_57
   26  A    between atoms: C_56  and  C_57
                            x       y       z     vdW  Elec       q    Type
                         _______ _______ _______ _____ _____    ______ ____

>  <TORSDO>
F 26

$$$$
