=
 OpenBabel11062419253D

 38 44  0  0  1  0  0  0  0  0999 V2000
  189.7000  174.1180  143.6080 C   0  0  0  0  0  2  0  0  0  0  0  0
  188.4280  173.5530  139.9390 C   0  0  0  0  0  2  0  0  0  0  0  0
  188.3700  174.8530  143.3690 C   0  0  1  0  0  3  0  0  0  0  0  0
  189.3160  172.3460  140.1730 C   0  0  0  0  0  2  0  0  0  0  0  0
  188.3390  176.3880  143.5440 C   0  0  2  0  0  3  0  0  0  0  0  0
  187.9840  176.5290  142.0550 C   0  0  1  0  0  3  0  0  0  0  0  0
  190.6960  174.5050  142.6190 N   0  0  0  0  0  0  0  0  0  0  0  0
  190.3080  173.9920  141.3000 C   0  0  1  0  0  3  0  0  0  0  0  0
  190.1430  172.5910  141.2900 O   0  0  0  0  0  0  0  0  0  0  0  0
  189.0190  174.6330  140.8040 C   0  0  2  0  0  3  0  0  0  0  0  0
  187.9850  175.0160  141.8860 C   0  0  1  0  0  3  0  0  0  0  0  0
  186.6070  177.0870  141.7630 C   0  0  0  0  0  0  0  0  0  0  0  0
  184.5300  177.9150  142.6950 C   0  0  0  0  0  3  0  0  0  0  0  0
  184.9040  178.0870  140.3540 C   0  0  0  0  0  3  0  0  0  0  0  0
  185.7810  177.3140  142.8680 C   0  0  0  0  0  3  0  0  0  0  0  0
  184.1180  178.2840  141.4530 N   0  0  0  0  0  0  0  0  0  0  0  0
  186.1660  177.4950  140.4810 C   0  0  0  0  0  0  0  0  0  0  0  0
  186.9500  177.3370  139.3410 O   0  0  0  0  0  1  0  0  0  0  0  0
  190.6530  177.2560  142.9930 O   0  0  0  0  0  1  0  0  0  0  0  0
  189.6630  177.0750  143.9610 C   0  0  1  0  0  0  0  0  0  0  0  0
  189.5260  178.1860  144.8200 O   0  0  0  0  0  0  0  0  0  0  0  0
  190.1650  177.0440  145.3560 C   0  0  2  0  0  0  0  0  0  0  0  0
  191.5070  177.2790  145.5730 F   0  0  0  0  0  0  0  0  0  0  0  0
  189.3510  176.3850  146.4560 C   0  0  0  0  0  2  0  0  0  0  0  0
  188.6610  177.3860  147.1910 O   0  0  0  0  0  0  0  0  0  0  0  0
  184.5150  177.9980  146.7980 C   0  0  0  0  0  3  0  0  0  0  0  0
  185.1040  176.8140  146.3430 C   0  0  0  0  0  3  0  0  0  0  0  0
  185.3050  178.9860  147.3920 C   0  0  0  0  0  3  0  0  0  0  0  0
  186.4860  176.6180  146.4750 C   0  0  0  0  0  3  0  0  0  0  0  0
  187.2830  177.6030  147.0700 C   0  0  0  0  0  0  0  0  0  0  0  0
  186.6820  178.7890  147.5300 C   0  0  0  0  0  3  0  0  0  0  0  0
  191.9660  173.9080  143.0040 C   0  0  0  0  0  2  0  0  0  0  0  0
  192.5130  174.6240  144.1450 N   0  0  0  0  0  0  0  0  0  0  0  0
  192.9160  173.6090  145.1380 C   0  0  0  0  0  2  0  0  0  0  0  0
  194.9530  174.9350  145.7580 C   0  0  0  0  0  2  0  0  0  0  0  0
  194.4410  176.0220  144.7970 C   0  0  0  0  0  2  0  0  0  0  0  0
  194.4280  173.5460  145.3980 C   0  0  0  0  0  2  0  0  0  0  0  0
  193.6330  175.4290  143.6400 C   0  0  0  0  0  2  0  0  0  0  0  0
  2  4  1  0  0  0  0
  3  5  1  0  0  0  0
  3  1  1  6  0  0  0
  4  9  1  0  0  0  0
  5 20  1  6  0  0  0
  6 12  1  1  0  0  0
  6  5  1  0  0  0  0
  7 32  1  0  0  0  0
  7  1  1  0  0  0  0
  8  9  1  1  0  0  0
  8  7  1  0  0  0  0
 10  2  1  6  0  0  0
 10  8  1  0  0  0  0
 10 11  1  0  0  0  0
 11  6  1  0  0  0  0
 11  3  1  0  0  0  0
 12 15  1  0  0  0  0
 13 15  2  0  0  0  0
 14 17  1  0  0  0  0
 14 16  2  0  0  0  0
 16 13  1  0  0  0  0
 17 12  2  0  0  0  0
 18 17  1  0  0  0  0
 19 20  1  0  0  0  0
 20 21  1  0  0  0  0
 20 22  1  0  0  0  0
 21 22  1  0  0  0  0
 22 23  1  0  0  0  0
 22 24  1  0  0  0  0
 24 25  1  0  0  0  0
 26 28  1  0  0  0  0
 27 29  1  0  0  0  0
 27 26  2  0  0  0  0
 28 31  2  0  0  0  0
 29 30  2  0  0  0  0
 30 25  1  0  0  0  0
 30 31  1  0  0  0  0
 32 33  1  0  0  0  0
 33 34  1  0  0  0  0
 34 37  1  0  0  0  0
 36 35  1  0  0  0  0
 37 35  1  0  0  0  0
 38 33  1  0  0  0  0
 38 36  1  0  0  0  0
M  END
>  <MODEL>
1

>  <REMARK>
 VINA RESULT:      -8.6      0.000      0.000
  Name = 
  7 active torsions:
  status: ('A' for Active; 'I' for Inactive)
    1  A    between atoms: C_3  and  C_25
    2  A    between atoms: N_8  and  C_37
    3  A    between atoms: C_16  and  O_17
    4  A    between atoms: C_16  and  C_21
    5  A    between atoms: O_17  and  C_31
    6  A    between atoms: C_19  and  C_23
    7  A    between atoms: N_29  and  C_37
                            x       y       z     vdW  Elec       q    Type
                         _______ _______ _______ _____ _____    ______ ____

>  <TORSDO>
F 7

$$$$
=
 OpenBabel11062419253D

 38 44  0  0  1  0  0  0  0  0999 V2000
  190.2720  177.1150  144.1090 C   0  0  0  0  0  2  0  0  0  0  0  0
  188.4740  174.7920  141.5070 C   0  0  0  0  0  2  0  0  0  0  0  0
  191.1510  175.9050  143.7550 C   0  0  1  0  0  3  0  0  0  0  0  0
  187.8120  176.1350  141.2670 C   0  0  0  0  0  2  0  0  0  0  0  0
  191.5680  174.9430  144.8900 C   0  0  2  0  0  3  0  0  0  0  0  0
  190.7940  173.8150  144.1900 C   0  0  1  0  0  3  0  0  0  0  0  0
  188.9590  176.6890  144.5730 N   0  0  0  0  0  0  0  0  0  0  0  0
  188.2110  176.0950  143.4590 C   0  0  1  0  0  3  0  0  0  0  0  0
  188.0690  176.9800  142.3680 O   0  0  0  0  0  0  0  0  0  0  0  0
  188.8650  174.8150  142.9590 C   0  0  2  0  0  3  0  0  0  0  0  0
  190.4060  174.7520  143.0550 C   0  0  1  0  0  3  0  0  0  0  0  0
  191.6370  172.6750  143.6620 C   0  0  0  0  0  0  0  0  0  0  0  0
  193.8320  171.6520  143.6050 C   0  0  0  0  0  3  0  0  0  0  0  0
  191.9890  170.5040  142.6370 C   0  0  0  0  0  3  0  0  0  0  0  0
  193.0000  172.7120  143.9730 C   0  0  0  0  0  3  0  0  0  0  0  0
  193.3170  170.5790  142.9470 N   0  0  0  0  0  0  0  0  0  0  0  0
  191.1180  171.5400  142.9920 C   0  0  0  0  0  0  0  0  0  0  0  0
  189.7660  171.4140  142.6840 O   0  0  0  0  0  1  0  0  0  0  0  0
  189.7240  175.0580  146.6220 O   0  0  0  0  0  1  0  0  0  0  0  0
  191.0690  175.2820  146.3170 C   0  0  1  0  0  0  0  0  0  0  0  0
  191.9380  174.9160  147.3660 O   0  0  0  0  0  0  0  0  0  0  0  0
  191.7320  176.3010  147.1650 C   0  0  2  0  0  0  0  0  0  0  0  0
  191.0130  176.8540  148.2040 F   0  0  0  0  0  0  0  0  0  0  0  0
  192.9850  177.0110  146.6830 C   0  0  0  0  0  2  0  0  0  0  0  0
  194.1090  176.1660  146.8880 O   0  0  0  0  0  0  0  0  0  0  0  0
  196.5040  174.8110  143.7030 C   0  0  0  0  0  3  0  0  0  0  0  0
  195.7370  175.9730  143.5700 C   0  0  0  0  0  3  0  0  0  0  0  0
  196.4810  174.0940  144.9020 C   0  0  0  0  0  3  0  0  0  0  0  0
  194.9400  176.4160  144.6340 C   0  0  0  0  0  3  0  0  0  0  0  0
  194.9130  175.7040  145.8390 C   0  0  0  0  0  0  0  0  0  0  0  0
  195.6920  174.5400  145.9670 C   0  0  0  0  0  3  0  0  0  0  0  0
  188.2470  177.8650  145.0480 C   0  0  0  0  0  2  0  0  0  0  0  0
  186.8750  177.5060  145.3690 N   0  0  0  0  0  0  0  0  0  0  0  0
  186.8340  177.2110  146.8140 C   0  0  0  0  0  2  0  0  0  0  0  0
  184.5810  178.2920  147.0340 C   0  0  0  0  0  2  0  0  0  0  0  0
  184.6110  178.4800  145.5060 C   0  0  0  0  0  2  0  0  0  0  0  0
  185.9820  178.1910  147.6350 C   0  0  0  0  0  2  0  0  0  0  0  0
  186.0370  178.6470  144.9780 C   0  0  0  0  0  2  0  0  0  0  0  0
  1  7  1  0  0  0  0
  3  1  1  1  0  0  0
  3  5  1  0  0  0  0
  4  2  1  0  0  0  0
  4  9  1  0  0  0  0
  5 20  1  1  0  0  0
  6 12  1  6  0  0  0
  6  5  1  0  0  0  0
  7 32  1  0  0  0  0
  8  9  1  6  0  0  0
  8  7  1  0  0  0  0
 10  2  1  6  0  0  0
 10 11  1  0  0  0  0
 10  8  1  0  0  0  0
 11  3  1  0  0  0  0
 11  6  1  0  0  0  0
 12 15  1  0  0  0  0
 13 15  2  0  0  0  0
 14 16  2  0  0  0  0
 14 17  1  0  0  0  0
 16 13  1  0  0  0  0
 17 12  2  0  0  0  0
 18 17  1  0  0  0  0
 20 19  1  0  0  0  0
 20 22  1  0  0  0  0
 20 21  1  0  0  0  0
 22 21  1  0  0  0  0
 22 23  1  0  0  0  0
 24 25  1  0  0  0  0
 24 22  1  0  0  0  0
 26 28  1  0  0  0  0
 27 26  2  0  0  0  0
 27 29  1  0  0  0  0
 28 31  2  0  0  0  0
 29 30  2  0  0  0  0
 30 31  1  0  0  0  0
 30 25  1  0  0  0  0
 32 33  1  0  0  0  0
 33 34  1  0  0  0  0
 34 37  1  0  0  0  0
 35 37  1  0  0  0  0
 36 35  1  0  0  0  0
 38 33  1  0  0  0  0
 38 36  1  0  0  0  0
M  END
>  <MODEL>
2

>  <REMARK>
 VINA RESULT:      -7.7      2.355      7.391
  Name = 
  7 active torsions:
  status: ('A' for Active; 'I' for Inactive)
    1  A    between atoms: C_3  and  C_25
    2  A    between atoms: N_8  and  C_37
    3  A    between atoms: C_16  and  O_17
    4  A    between atoms: C_16  and  C_21
    5  A    between atoms: O_17  and  C_31
    6  A    between atoms: C_19  and  C_23
    7  A    between atoms: N_29  and  C_37
                            x       y       z     vdW  Elec       q    Type
                         _______ _______ _______ _____ _____    ______ ____

>  <TORSDO>
F 7

$$$$
=
 OpenBabel11062419253D

 38 44  0  0  1  0  0  0  0  0999 V2000
  190.9250  176.8820  143.3970 C   0  0  0  0  0  2  0  0  0  0  0  0
  191.5640  176.4200  147.2400 C   0  0  0  0  0  2  0  0  0  0  0  0
  189.7590  177.4560  144.2190 C   0  0  1  0  0  3  0  0  0  0  0  0
  192.9660  176.3950  146.6650 C   0  0  0  0  0  2  0  0  0  0  0  0
  188.3480  176.8670  144.0010 C   0  0  2  0  0  3  0  0  0  0  0  0
  188.3440  176.3890  145.4610 C   0  0  1  0  0  3  0  0  0  0  0  0
  191.1760  175.4910  143.7450 N   0  0  0  0  0  0  0  0  0  0  0  0
  191.7100  175.4120  145.1100 C   0  0  1  0  0  3  0  0  0  0  0  0
  192.8910  176.1670  145.2740 O   0  0  0  0  0  0  0  0  0  0  0  0
  190.6920  175.8790  146.1410 C   0  0  2  0  0  3  0  0  0  0  0  0
  189.7220  176.9940  145.6880 C   0  0  1  0  0  3  0  0  0  0  0  0
  187.3260  177.0540  146.3620 C   0  0  0  0  0  0  0  0  0  0  0  0
  186.9560  178.6340  148.1610 C   0  0  0  0  0  3  0  0  0  0  0  0
  185.0850  177.7010  147.0310 C   0  0  0  0  0  3  0  0  0  0  0  0
  187.8310  177.9080  147.3480 C   0  0  0  0  0  3  0  0  0  0  0  0
  185.6130  178.5160  147.9910 N   0  0  0  0  0  0  0  0  0  0  0  0
  185.9230  176.9600  146.1910 C   0  0  0  0  0  0  0  0  0  0  0  0
  185.3480  176.1620  145.2040 O   0  0  0  0  0  1  0  0  0  0  0  0
  188.8440  174.5160  143.2000 O   0  0  0  0  0  1  0  0  0  0  0  0
  188.2130  175.7370  142.9500 C   0  0  1  0  0  0  0  0  0  0  0  0
  186.9290  175.5850  142.3840 O   0  0  0  0  0  0  0  0  0  0  0  0
  187.9590  176.0170  141.5160 C   0  0  2  0  0  0  0  0  0  0  0  0
  188.2760  175.0400  140.5940 F   0  0  0  0  0  0  0  0  0  0  0  0
  187.7520  177.4410  141.0310 C   0  0  0  0  0  2  0  0  0  0  0  0
  186.3580  177.7110  140.9580 O   0  0  0  0  0  0  0  0  0  0  0  0
  184.2490  179.4910  144.1350 C   0  0  0  0  0  3  0  0  0  0  0  0
  185.6020  179.7790  143.9320 C   0  0  0  0  0  3  0  0  0  0  0  0
  183.5870  178.6090  143.2750 C   0  0  0  0  0  3  0  0  0  0  0  0
  186.2980  179.1800  142.8730 C   0  0  0  0  0  3  0  0  0  0  0  0
  185.6420  178.2970  142.0080 C   0  0  0  0  0  0  0  0  0  0  0  0
  184.2790  178.0160  142.2150 C   0  0  0  0  0  3  0  0  0  0  0  0
  192.1680  174.9680  142.8180 C   0  0  0  0  0  2  0  0  0  0  0  0
  192.4720  173.5880  143.1600 N   0  0  0  0  0  0  0  0  0  0  0  0
  191.6480  172.7340  142.2830 C   0  0  0  0  0  2  0  0  0  0  0  0
  193.5130  171.0760  142.0390 C   0  0  0  0  0  2  0  0  0  0  0  0
  194.3010  171.9330  143.0450 C   0  0  0  0  0  2  0  0  0  0  0  0
  192.4540  171.8830  141.2900 C   0  0  0  0  0  2  0  0  0  0  0  0
  193.9160  173.4120  142.9620 C   0  0  0  0  0  2  0  0  0  0  0  0
  1  7  1  0  0  0  0
  3  1  1  6  0  0  0
  3 11  1  0  0  0  0
  4  2  1  0  0  0  0
  5 20  1  6  0  0  0
  5  3  1  0  0  0  0
  5  6  1  0  0  0  0
  6 11  1  0  0  0  0
  6 12  1  1  0  0  0
  7  8  1  0  0  0  0
  8  9  1  6  0  0  0
  8 10  1  0  0  0  0
  9  4  1  0  0  0  0
 10  2  1  1  0  0  0
 11 10  1  0  0  0  0
 12 15  1  0  0  0  0
 14 16  2  0  0  0  0
 15 13  2  0  0  0  0
 16 13  1  0  0  0  0
 17 12  2  0  0  0  0
 17 14  1  0  0  0  0
 18 17  1  0  0  0  0
 20 19  1  0  0  0  0
 21 20  1  0  0  0  0
 22 21  1  0  0  0  0
 22 20  1  0  0  0  0
 23 22  1  0  0  0  0
 24 22  1  0  0  0  0
 25 24  1  0  0  0  0
 25 30  1  0  0  0  0
 27 26  1  0  0  0  0
 28 26  2  0  0  0  0
 29 27  2  0  0  0  0
 30 31  2  0  0  0  0
 30 29  1  0  0  0  0
 31 28  1  0  0  0  0
 32 33  1  0  0  0  0
 32  7  1  0  0  0  0
 34 33  1  0  0  0  0
 35 36  1  0  0  0  0
 37 35  1  0  0  0  0
 37 34  1  0  0  0  0
 38 36  1  0  0  0  0
 38 33  1  0  0  0  0
M  END
>  <MODEL>
3

>  <REMARK>
 VINA RESULT:      -7.5      2.428      4.927
  Name = 
  7 active torsions:
  status: ('A' for Active; 'I' for Inactive)
    1  A    between atoms: C_3  and  C_25
    2  A    between atoms: N_8  and  C_37
    3  A    between atoms: C_16  and  O_17
    4  A    between atoms: C_16  and  C_21
    5  A    between atoms: O_17  and  C_31
    6  A    between atoms: C_19  and  C_23
    7  A    between atoms: N_29  and  C_37
                            x       y       z     vdW  Elec       q    Type
                         _______ _______ _______ _____ _____    ______ ____

>  <TORSDO>
F 7

$$$$
=
 OpenBabel11062419253D

 38 44  0  0  1  0  0  0  0  0999 V2000
  190.4170  174.3670  143.4380 C   0  0  0  0  0  2  0  0  0  0  0  0
  188.0540  173.6390  140.3920 C   0  0  0  0  0  2  0  0  0  0  0  0
  189.0390  175.0180  143.6450 C   0  0  1  0  0  3  0  0  0  0  0  0
  189.0420  172.4900  140.3280 C   0  0  0  0  0  2  0  0  0  0  0  0
  188.9710  176.5530  143.8120 C   0  0  2  0  0  3  0  0  0  0  0  0
  188.1410  176.6370  142.5220 C   0  0  1  0  0  3  0  0  0  0  0  0
  191.0090  174.7850  142.1760 N   0  0  0  0  0  0  0  0  0  0  0  0
  190.2440  174.2180  141.0600 C   0  0  1  0  0  3  0  0  0  0  0  0
  190.1720  172.8090  141.1110 O   0  0  0  0  0  0  0  0  0  0  0  0
  188.8260  174.7710  141.0100 C   0  0  2  0  0  3  0  0  0  0  0  0
  188.1810  175.1220  142.3690 C   0  0  1  0  0  3  0  0  0  0  0  0
  186.7130  177.1080  142.6940 C   0  0  0  0  0  0  0  0  0  0  0  0
  184.9970  177.8040  144.2550 C   0  0  0  0  0  3  0  0  0  0  0  0
  184.5940  178.0000  141.9200 C   0  0  0  0  0  3  0  0  0  0  0  0
  186.2700  177.2830  144.0090 C   0  0  0  0  0  3  0  0  0  0  0  0
  184.1890  178.1470  143.2160 N   0  0  0  0  0  0  0  0  0  0  0  0
  185.8630  177.4870  141.6270 C   0  0  0  0  0  0  0  0  0  0  0  0
  186.2510  177.3790  140.2940 O   0  0  0  0  0  1  0  0  0  0  0  0
  190.8560  177.6500  142.5230 O   0  0  0  0  0  1  0  0  0  0  0  0
  190.3140  177.3250  143.7690 C   0  0  1  0  0  0  0  0  0  0  0  0
  190.4460  178.3650  144.7130 O   0  0  0  0  0  0  0  0  0  0  0  0
  191.3040  177.2510  144.8710 C   0  0  2  0  0  0  0  0  0  0  0  0
  192.6130  177.5880  144.5960 F   0  0  0  0  0  0  0  0  0  0  0  0
  191.0020  176.4590  146.1300 C   0  0  0  0  0  2  0  0  0  0  0  0
  192.2110  176.2340  146.8420 O   0  0  0  0  0  0  0  0  0  0  0  0
  195.1780  173.5790  145.4750 C   0  0  0  0  0  3  0  0  0  0  0  0
  193.8350  173.1890  145.5060 C   0  0  0  0  0  3  0  0  0  0  0  0
  195.5410  174.8620  145.8970 C   0  0  0  0  0  3  0  0  0  0  0  0
  192.8530  174.0770  145.9650 C   0  0  0  0  0  3  0  0  0  0  0  0
  193.2090  175.3630  146.3870 C   0  0  0  0  0  0  0  0  0  0  0  0
  194.5610  175.7510  146.3480 C   0  0  0  0  0  3  0  0  0  0  0  0
  192.3690  174.2710  142.1260 C   0  0  0  0  0  2  0  0  0  0  0  0
  193.2260  175.2300  141.4480 N   0  0  0  0  0  0  0  0  0  0  0  0
  194.1440  175.7820  142.4640 C   0  0  0  0  0  2  0  0  0  0  0  0
  196.0400  175.8180  140.8230 C   0  0  0  0  0  2  0  0  0  0  0  0
  195.0270  175.3500  139.7630 C   0  0  0  0  0  2  0  0  0  0  0  0
  195.6210  175.4280  142.2400 C   0  0  0  0  0  2  0  0  0  0  0  0
  193.9110  174.4990  140.3740 C   0  0  0  0  0  2  0  0  0  0  0  0
  3  1  1  6  0  0  0
  3  5  1  0  0  0  0
  4  2  1  0  0  0  0
  4  9  1  0  0  0  0
  5 20  1  6  0  0  0
  6 12  1  1  0  0  0
  6  5  1  0  0  0  0
  7  1  1  0  0  0  0
  8  9  1  1  0  0  0
  8  7  1  0  0  0  0
 10  2  1  1  0  0  0
 10  8  1  0  0  0  0
 10 11  1  0  0  0  0
 11  6  1  0  0  0  0
 11  3  1  0  0  0  0
 12 15  1  0  0  0  0
 14 16  2  0  0  0  0
 15 13  2  0  0  0  0
 16 13  1  0  0  0  0
 17 14  1  0  0  0  0
 17 12  2  0  0  0  0
 18 17  1  0  0  0  0
 19 20  1  0  0  0  0
 20 21  1  0  0  0  0
 20 22  1  0  0  0  0
 21 22  1  0  0  0  0
 22 24  1  0  0  0  0
 23 22  1  0  0  0  0
 24 25  1  0  0  0  0
 26 27  2  0  0  0  0
 26 28  1  0  0  0  0
 27 29  1  0  0  0  0
 28 31  2  0  0  0  0
 29 30  2  0  0  0  0
 30 25  1  0  0  0  0
 31 30  1  0  0  0  0
 32  7  1  0  0  0  0
 33 32  1  0  0  0  0
 33 34  1  0  0  0  0
 35 37  1  0  0  0  0
 36 38  1  0  0  0  0
 36 35  1  0  0  0  0
 37 34  1  0  0  0  0
 38 33  1  0  0  0  0
M  END
>  <MODEL>
4

>  <REMARK>
 VINA RESULT:      -7.4      1.635      4.138
  Name = 
  7 active torsions:
  status: ('A' for Active; 'I' for Inactive)
    1  A    between atoms: C_3  and  C_25
    2  A    between atoms: N_8  and  C_37
    3  A    between atoms: C_16  and  O_17
    4  A    between atoms: C_16  and  C_21
    5  A    between atoms: O_17  and  C_31
    6  A    between atoms: C_19  and  C_23
    7  A    between atoms: N_29  and  C_37
                            x       y       z     vdW  Elec       q    Type
                         _______ _______ _______ _____ _____    ______ ____

>  <TORSDO>
F 7

$$$$
=
 OpenBabel11062419253D

 38 44  0  0  1  0  0  0  0  0999 V2000
  189.9190  177.2720  143.6980 C   0  0  0  0  0  2  0  0  0  0  0  0
  187.8160  175.6250  140.8240 C   0  0  0  0  0  2  0  0  0  0  0  0
  190.6840  176.1000  143.0610 C   0  0  1  0  0  3  0  0  0  0  0  0
  187.2480  177.0300  140.8890 C   0  0  0  0  0  2  0  0  0  0  0  0
  191.0840  174.9100  143.9610 C   0  0  2  0  0  3  0  0  0  0  0  0
  190.1900  173.9930  143.1110 C   0  0  1  0  0  3  0  0  0  0  0  0
  188.6030  176.8500  144.1570 N   0  0  0  0  0  0  0  0  0  0  0  0
  187.7550  176.5360  143.0020 C   0  0  1  0  0  3  0  0  0  0  0  0
  187.6250  177.6240  142.1120 O   0  0  0  0  0  0  0  0  0  0  0  0
  188.2820  175.3380  142.2240 C   0  0  2  0  0  3  0  0  0  0  0  0
  189.8170  175.1580  142.2050 C   0  0  1  0  0  3  0  0  0  0  0  0
  190.9150  172.9260  142.3200 C   0  0  0  0  0  0  0  0  0  0  0  0
  191.7710  172.2560  140.1550 C   0  0  0  0  0  3  0  0  0  0  0  0
  192.2890  170.9430  142.0680 C   0  0  0  0  0  3  0  0  0  0  0  0
  191.0350  173.1450  140.9440 C   0  0  0  0  0  3  0  0  0  0  0  0
  192.3760  171.1800  140.7260 N   0  0  0  0  0  0  0  0  0  0  0  0
  191.5680  171.8090  142.8960 C   0  0  0  0  0  0  0  0  0  0  0  0
  191.5270  171.5490  144.2640 O   0  0  0  0  0  1  0  0  0  0  0  0
  189.3650  174.7170  145.8120 O   0  0  0  0  0  1  0  0  0  0  0  0
  190.6870  174.9950  145.4570 C   0  0  1  0  0  0  0  0  0  0  0  0
  191.6230  174.4550  146.3650 O   0  0  0  0  0  0  0  0  0  0  0  0
  191.4160  175.8540  146.4210 C   0  0  2  0  0  0  0  0  0  0  0  0
  190.7750  176.2160  147.5870 F   0  0  0  0  0  0  0  0  0  0  0  0
  192.6390  176.6410  145.9840 C   0  0  0  0  0  2  0  0  0  0  0  0
  193.8020  176.0420  146.5390 O   0  0  0  0  0  0  0  0  0  0  0  0
  197.0600  174.8420  144.1600 C   0  0  0  0  0  3  0  0  0  0  0  0
  196.2700  175.9330  143.7830 C   0  0  0  0  0  3  0  0  0  0  0  0
  196.7720  174.1450  145.3370 C   0  0  0  0  0  3  0  0  0  0  0  0
  195.1860  176.3250  144.5790 C   0  0  0  0  0  3  0  0  0  0  0  0
  194.8910  175.6330  145.7600 C   0  0  0  0  0  0  0  0  0  0  0  0
  195.6940  174.5400  146.1350 C   0  0  0  0  0  3  0  0  0  0  0  0
  188.0090  177.9550  144.8940 C   0  0  0  0  0  2  0  0  0  0  0  0
  186.6410  177.6190  145.2530 N   0  0  0  0  0  0  0  0  0  0  0  0
  186.6660  177.1480  146.6520 C   0  0  0  0  0  2  0  0  0  0  0  0
  184.4880  178.2900  147.1410 C   0  0  0  0  0  2  0  0  0  0  0  0
  184.4410  178.6660  145.6500 C   0  0  0  0  0  2  0  0  0  0  0  0
  185.9130  178.0540  147.6370 C   0  0  0  0  0  2  0  0  0  0  0  0
  185.8420  178.8350  145.0580 C   0  0  0  0  0  2  0  0  0  0  0  0
  1  7  1  0  0  0  0
  2  4  1  0  0  0  0
  3  1  1  1  0  0  0
  3  5  1  0  0  0  0
  4  9  1  0  0  0  0
  5 20  1  1  0  0  0
  6 12  1  6  0  0  0
  6  5  1  0  0  0  0
  7 32  1  0  0  0  0
  8  9  1  6  0  0  0
  8  7  1  0  0  0  0
 10  2  1  6  0  0  0
 10  8  1  0  0  0  0
 11 10  1  0  0  0  0
 11  3  1  0  0  0  0
 11  6  1  0  0  0  0
 12 17  1  0  0  0  0
 13 16  2  0  0  0  0
 13 15  1  0  0  0  0
 14 17  2  0  0  0  0
 15 12  2  0  0  0  0
 16 14  1  0  0  0  0
 17 18  1  0  0  0  0
 20 19  1  0  0  0  0
 20 21  1  0  0  0  0
 20 22  1  0  0  0  0
 21 22  1  0  0  0  0
 22 23  1  0  0  0  0
 24 22  1  0  0  0  0
 24 25  1  0  0  0  0
 26 28  1  0  0  0  0
 27 26  2  0  0  0  0
 27 29  1  0  0  0  0
 28 31  2  0  0  0  0
 29 30  2  0  0  0  0
 30 31  1  0  0  0  0
 30 25  1  0  0  0  0
 32 33  1  0  0  0  0
 33 34  1  0  0  0  0
 34 37  1  0  0  0  0
 35 37  1  0  0  0  0
 36 35  1  0  0  0  0
 38 33  1  0  0  0  0
 38 36  1  0  0  0  0
M  END
>  <MODEL>
5

>  <REMARK>
 VINA RESULT:      -7.3      2.347      7.306
  Name = 
  7 active torsions:
  status: ('A' for Active; 'I' for Inactive)
    1  A    between atoms: C_3  and  C_25
    2  A    between atoms: N_8  and  C_37
    3  A    between atoms: C_16  and  O_17
    4  A    between atoms: C_16  and  C_21
    5  A    between atoms: O_17  and  C_31
    6  A    between atoms: C_19  and  C_23
    7  A    between atoms: N_29  and  C_37
                            x       y       z     vdW  Elec       q    Type
                         _______ _______ _______ _____ _____    ______ ____

>  <TORSDO>
F 7

$$$$
=
 OpenBabel11062419253D

 38 44  0  0  1  0  0  0  0  0999 V2000
  188.9800  175.2200  145.4420 C   0  0  0  0  0  2  0  0  0  0  0  0
  192.4230  176.4140  146.8970 C   0  0  0  0  0  2  0  0  0  0  0  0
  190.1420  174.7700  144.5410 C   0  0  1  0  0  3  0  0  0  0  0  0
  191.5360  176.3790  148.1260 C   0  0  0  0  0  2  0  0  0  0  0  0
  190.1660  175.2580  143.0750 C   0  0  2  0  0  3  0  0  0  0  0  0
  191.4800  175.9990  143.3650 C   0  0  1  0  0  3  0  0  0  0  0  0
  189.0130  176.6600  145.6560 N   0  0  0  0  0  0  0  0  0  0  0  0
  190.1770  177.0110  146.4770 C   0  0  1  0  0  3  0  0  0  0  0  0
  190.1850  176.3420  147.7200 O   0  0  0  0  0  0  0  0  0  0  0  0
  191.4850  176.7090  145.7590 C   0  0  2  0  0  3  0  0  0  0  0  0
  191.4750  175.4960  144.8020 C   0  0  1  0  0  3  0  0  0  0  0  0
  192.6980  175.4790  142.6330 C   0  0  0  0  0  0  0  0  0  0  0  0
  193.5200  174.1660  140.7700 C   0  0  0  0  0  3  0  0  0  0  0  0
  195.0590  175.4180  142.0790 C   0  0  0  0  0  3  0  0  0  0  0  0
  192.4570  174.6170  141.5580 C   0  0  0  0  0  3  0  0  0  0  0  0
  194.7890  174.5680  141.0450 N   0  0  0  0  0  0  0  0  0  0  0  0
  194.0260  175.8990  142.8900 C   0  0  0  0  0  0  0  0  0  0  0  0
  194.3370  176.7860  143.9180 O   0  0  0  0  0  1  0  0  0  0  0  0
  189.0140  177.5120  142.9940 O   0  0  0  0  0  1  0  0  0  0  0  0
  188.9970  176.1670  142.6180 C   0  0  1  0  0  0  0  0  0  0  0  0
  188.5630  175.9740  141.2890 O   0  0  0  0  0  0  0  0  0  0  0  0
  187.6500  175.6290  142.3130 C   0  0  2  0  0  0  0  0  0  0  0  0
  186.5780  176.4980  142.3390 F   0  0  0  0  0  0  0  0  0  0  0  0
  187.3810  174.1350  142.3740 C   0  0  0  0  0  2  0  0  0  0  0  0
  187.8250  173.5310  141.1670 O   0  0  0  0  0  0  0  0  0  0  0  0
  191.1680  170.9850  140.9370 C   0  0  0  0  0  3  0  0  0  0  0  0
  190.7800  171.7480  139.8310 C   0  0  0  0  0  3  0  0  0  0  0  0
  190.4460  171.0690  142.1310 C   0  0  0  0  0  3  0  0  0  0  0  0
  189.6640  172.5910  139.9150 C   0  0  0  0  0  3  0  0  0  0  0  0
  188.9370  172.6820  141.1070 C   0  0  0  0  0  0  0  0  0  0  0  0
  189.3370  171.9160  142.2170 C   0  0  0  0  0  3  0  0  0  0  0  0
  187.8000  177.0360  146.3680 C   0  0  0  0  0  2  0  0  0  0  0  0
  186.7180  177.2290  145.4160 N   0  0  0  0  0  0  0  0  0  0  0  0
  185.4750  176.7990  146.0840 C   0  0  0  0  0  2  0  0  0  0  0  0
  184.1830  178.6670  145.0200 C   0  0  0  0  0  2  0  0  0  0  0  0
  185.4720  179.0160  144.2540 C   0  0  0  0  0  2  0  0  0  0  0  0
  184.4650  177.9300  146.3280 C   0  0  0  0  0  2  0  0  0  0  0  0
  186.7270  178.6510  145.0510 C   0  0  0  0  0  2  0  0  0  0  0  0
  1  7  1  0  0  0  0
  2  4  1  0  0  0  0
  3 11  1  0  0  0  0
  3  1  1  1  0  0  0
  5 20  1  1  0  0  0
  5  6  1  0  0  0  0
  5  3  1  0  0  0  0
  6 12  1  6  0  0  0
  6 11  1  0  0  0  0
  7 32  1  0  0  0  0
  7  8  1  0  0  0  0
  8  9  1  1  0  0  0
  9  4  1  0  0  0  0
 10  8  1  0  0  0  0
 10  2  1  1  0  0  0
 11 10  1  0  0  0  0
 12 17  1  0  0  0  0
 13 16  2  0  0  0  0
 13 15  1  0  0  0  0
 14 17  2  0  0  0  0
 15 12  2  0  0  0  0
 16 14  1  0  0  0  0
 17 18  1  0  0  0  0
 20 19  1  0  0  0  0
 21 22  1  0  0  0  0
 21 20  1  0  0  0  0
 22 23  1  0  0  0  0
 22 24  1  0  0  0  0
 22 20  1  0  0  0  0
 25 24  1  0  0  0  0
 26 28  1  0  0  0  0
 27 29  1  0  0  0  0
 27 26  2  0  0  0  0
 28 31  2  0  0  0  0
 29 30  2  0  0  0  0
 30 25  1  0  0  0  0
 30 31  1  0  0  0  0
 33 34  1  0  0  0  0
 33 32  1  0  0  0  0
 34 37  1  0  0  0  0
 35 37  1  0  0  0  0
 36 35  1  0  0  0  0
 36 38  1  0  0  0  0
 38 33  1  0  0  0  0
M  END
>  <MODEL>
6

>  <REMARK>
 VINA RESULT:      -7.2      2.421      7.590
  Name = 
  7 active torsions:
  status: ('A' for Active; 'I' for Inactive)
    1  A    between atoms: C_3  and  C_25
    2  A    between atoms: N_8  and  C_37
    3  A    between atoms: C_16  and  O_17
    4  A    between atoms: C_16  and  C_21
    5  A    between atoms: O_17  and  C_31
    6  A    between atoms: C_19  and  C_23
    7  A    between atoms: N_29  and  C_37
                            x       y       z     vdW  Elec       q    Type
                         _______ _______ _______ _____ _____    ______ ____

>  <TORSDO>
F 7

$$$$
=
 OpenBabel11062419253D

 38 44  0  0  1  0  0  0  0  0999 V2000
  192.0700  176.4140  145.3310 C   0  0  0  0  0  2  0  0  0  0  0  0
  189.8490  178.0730  148.1070 C   0  0  0  0  0  2  0  0  0  0  0  0
  190.8940  177.1820  144.7060 C   0  0  1  0  0  3  0  0  0  0  0  0
  191.1910  177.9270  148.7980 C   0  0  0  0  0  2  0  0  0  0  0  0
  189.8840  176.3980  143.8380 C   0  0  2  0  0  3  0  0  0  0  0  0
  188.7790  176.7420  144.8490 C   0  0  1  0  0  3  0  0  0  0  0  0
  191.6000  175.4410  146.3070 N   0  0  0  0  0  0  0  0  0  0  0  0
  191.0500  176.1410  147.4740 C   0  0  1  0  0  3  0  0  0  0  0  0
  191.9840  177.0100  148.0760 O   0  0  0  0  0  0  0  0  0  0  0  0
  189.8060  176.9440  147.1160 C   0  0  2  0  0  3  0  0  0  0  0  0
  189.7650  177.5400  145.6910 C   0  0  1  0  0  3  0  0  0  0  0  0
  187.6810  177.6470  144.3320 C   0  0  0  0  0  0  0  0  0  0  0  0
  186.6590  178.6650  142.3870 C   0  0  0  0  0  3  0  0  0  0  0  0
  185.5950  178.8730  144.5020 C   0  0  0  0  0  3  0  0  0  0  0  0
  187.6900  177.9160  142.9600 C   0  0  0  0  0  3  0  0  0  0  0  0
  185.6420  179.1280  143.1610 N   0  0  0  0  0  0  0  0  0  0  0  0
  186.6030  178.1240  145.1180 C   0  0  0  0  0  0  0  0  0  0  0  0
  186.5060  177.8610  146.4820 O   0  0  0  0  0  1  0  0  0  0  0  0
  189.7350  174.0090  144.6650 O   0  0  0  0  0  1  0  0  0  0  0  0
  190.1440  174.8820  143.6540 C   0  0  1  0  0  0  0  0  0  0  0  0
  189.8970  174.3770  142.3590 O   0  0  0  0  0  0  0  0  0  0  0  0
  191.2410  174.3650  142.8010 C   0  0  2  0  0  0  0  0  0  0  0  0
  191.6840  173.0770  143.0160 F   0  0  0  0  0  0  0  0  0  0  0  0
  192.1200  175.3190  142.0100 C   0  0  0  0  0  2  0  0  0  0  0  0
  193.2100  174.5960  141.4550 O   0  0  0  0  0  0  0  0  0  0  0  0
  197.2130  175.7030  142.1400 C   0  0  0  0  0  3  0  0  0  0  0  0
  196.1680  176.4170  142.7340 C   0  0  0  0  0  3  0  0  0  0  0  0
  196.9310  174.6100  141.3150 C   0  0  0  0  0  3  0  0  0  0  0  0
  194.8370  176.0440  142.4990 C   0  0  0  0  0  3  0  0  0  0  0  0
  194.5470  174.9500  141.6750 C   0  0  0  0  0  0  0  0  0  0  0  0
  195.6040  174.2330  141.0860 C   0  0  0  0  0  3  0  0  0  0  0  0
  192.7390  174.6410  146.7290 C   0  0  0  0  0  2  0  0  0  0  0  0
  193.6530  174.4700  145.6100 N   0  0  0  0  0  0  0  0  0  0  0  0
  194.9210  175.1260  145.9850 C   0  0  0  0  0  2  0  0  0  0  0  0
  196.2570  173.3180  144.8740 C   0  0  0  0  0  2  0  0  0  0  0  0
  194.9160  172.7250  144.4050 C   0  0  0  0  0  2  0  0  0  0  0  0
  196.1080  174.1650  146.1370 C   0  0  0  0  0  2  0  0  0  0  0  0
  193.7830  173.0250  145.3880 C   0  0  0  0  0  2  0  0  0  0  0  0
  1  7  1  0  0  0  0
  2  4  1  0  0  0  0
  3  1  1  1  0  0  0
  3 11  1  0  0  0  0
  5 20  1  1  0  0  0
  5  3  1  0  0  0  0
  5  6  1  0  0  0  0
  6 12  1  6  0  0  0
  6 11  1  0  0  0  0
  7 32  1  0  0  0  0
  7  8  1  0  0  0  0
  8  9  1  6  0  0  0
  9  4  1  0  0  0  0
 10  8  1  0  0  0  0
 10  2  1  1  0  0  0
 11 10  1  0  0  0  0
 12 17  1  0  0  0  0
 13 15  1  0  0  0  0
 13 16  2  0  0  0  0
 14 17  2  0  0  0  0
 15 12  2  0  0  0  0
 16 14  1  0  0  0  0
 17 18  1  0  0  0  0
 20 19  1  0  0  0  0
 21 22  1  0  0  0  0
 21 20  1  0  0  0  0
 22 23  1  0  0  0  0
 22 20  1  0  0  0  0
 24 22  1  0  0  0  0
 25 30  1  0  0  0  0
 25 24  1  0  0  0  0
 26 27  1  0  0  0  0
 28 26  2  0  0  0  0
 29 27  2  0  0  0  0
 30 29  1  0  0  0  0
 31 28  1  0  0  0  0
 31 30  2  0  0  0  0
 33 34  1  0  0  0  0
 33 32  1  0  0  0  0
 34 37  1  0  0  0  0
 35 37  1  0  0  0  0
 36 35  1  0  0  0  0
 36 38  1  0  0  0  0
 38 33  1  0  0  0  0
M  END
>  <MODEL>
7

>  <REMARK>
 VINA RESULT:      -7.2      2.492      6.498
  Name = 
  7 active torsions:
  status: ('A' for Active; 'I' for Inactive)
    1  A    between atoms: C_3  and  C_25
    2  A    between atoms: N_8  and  C_37
    3  A    between atoms: C_16  and  O_17
    4  A    between atoms: C_16  and  C_21
    5  A    between atoms: O_17  and  C_31
    6  A    between atoms: C_19  and  C_23
    7  A    between atoms: N_29  and  C_37
                            x       y       z     vdW  Elec       q    Type
                         _______ _______ _______ _____ _____    ______ ____

>  <TORSDO>
F 7

$$$$
=
 OpenBabel11062419253D

 38 44  0  0  1  0  0  0  0  0999 V2000
  190.3060  173.5150  144.7920 C   0  0  0  0  0  2  0  0  0  0  0  0
  189.8230  172.2800  141.1000 C   0  0  0  0  0  2  0  0  0  0  0  0
  189.1790  174.2950  144.0970 C   0  0  1  0  0  3  0  0  0  0  0  0
  190.4600  171.0790  141.7720 C   0  0  0  0  0  2  0  0  0  0  0  0
  189.3210  175.8280  143.9630 C   0  0  2  0  0  3  0  0  0  0  0  0
  189.3310  175.6730  142.4340 C   0  0  1  0  0  3  0  0  0  0  0  0
  191.5420  173.5870  144.0260 N   0  0  0  0  0  0  0  0  0  0  0  0
  191.3920  172.8360  142.7750 C   0  0  1  0  0  3  0  0  0  0  0  0
  191.0410  171.4870  142.9910 O   0  0  0  0  0  0  0  0  0  0  0  0
  190.3480  173.4650  141.8620 C   0  0  2  0  0  3  0  0  0  0  0  0
  189.1610  174.1650  142.5620 C   0  0  1  0  0  3  0  0  0  0  0  0
  188.1450  176.2730  141.7100 C   0  0  0  0  0  0  0  0  0  0  0  0
  186.4290  177.9820  141.7280 C   0  0  0  0  0  3  0  0  0  0  0  0
  186.7060  176.6330  139.7900 C   0  0  0  0  0  3  0  0  0  0  0  0
  187.4750  177.3100  142.3660 C   0  0  0  0  0  3  0  0  0  0  0  0
  186.0650  177.6320  140.4650 N   0  0  0  0  0  0  0  0  0  0  0  0
  187.7620  175.9370  140.3880 C   0  0  0  0  0  0  0  0  0  0  0  0
  188.4100  174.9440  139.6580 O   0  0  0  0  0  1  0  0  0  0  0  0
  191.7970  176.3490  143.8460 O   0  0  0  0  0  1  0  0  0  0  0  0
  190.6000  176.4690  144.5570 C   0  0  1  0  0  0  0  0  0  0  0  0
  190.4280  177.7480  145.1290 O   0  0  0  0  0  0  0  0  0  0  0  0
  190.7680  176.6960  146.0120 C   0  0  2  0  0  0  0  0  0  0  0  0
  192.0470  176.8530  146.5050 F   0  0  0  0  0  0  0  0  0  0  0  0
  189.6470  176.3650  146.9810 C   0  0  0  0  0  2  0  0  0  0  0  0
  188.8760  177.5340  147.2210 O   0  0  0  0  0  0  0  0  0  0  0  0
  184.7390  177.7730  146.4840 C   0  0  0  0  0  3  0  0  0  0  0  0
  185.3430  178.6160  147.4210 C   0  0  0  0  0  3  0  0  0  0  0  0
  185.5130  176.8450  145.7800 C   0  0  0  0  0  3  0  0  0  0  0  0
  186.7200  178.5290  147.6630 C   0  0  0  0  0  3  0  0  0  0  0  0
  187.5020  177.6030  146.9620 C   0  0  0  0  0  0  0  0  0  0  0  0
  186.8880  176.7620  146.0160 C   0  0  0  0  0  3  0  0  0  0  0  0
  192.5990  172.9780  144.8200 C   0  0  0  0  0  2  0  0  0  0  0  0
  193.8940  173.3640  144.2820 N   0  0  0  0  0  0  0  0  0  0  0  0
  194.2900  174.6110  144.9650 C   0  0  0  0  0  2  0  0  0  0  0  0
  196.6860  173.8750  145.0510 C   0  0  0  0  0  2  0  0  0  0  0  0
  196.2540  172.6410  144.2400 C   0  0  0  0  0  2  0  0  0  0  0  0
  195.5340  174.4750  145.8550 C   0  0  0  0  0  2  0  0  0  0  0  0
  194.8060  172.2410  144.5330 C   0  0  0  0  0  2  0  0  0  0  0  0
  2  4  1  0  0  0  0
  3  1  1  6  0  0  0
  4  9  1  0  0  0  0
  5  3  1  0  0  0  0
  5 20  1  1  0  0  0
  6 12  1  6  0  0  0
  6 11  1  0  0  0  0
  6  5  1  0  0  0  0
  7  1  1  0  0  0  0
  7 32  1  0  0  0  0
  8  9  1  1  0  0  0
  8  7  1  0  0  0  0
 10  2  1  6  0  0  0
 10 11  1  0  0  0  0
 10  8  1  0  0  0  0
 11  3  1  0  0  0  0
 12 15  1  0  0  0  0
 13 15  2  0  0  0  0
 14 17  1  0  0  0  0
 14 16  2  0  0  0  0
 16 13  1  0  0  0  0
 17 12  2  0  0  0  0
 18 17  1  0  0  0  0
 19 20  1  0  0  0  0
 20 21  1  0  0  0  0
 20 22  1  0  0  0  0
 21 22  1  0  0  0  0
 22 23  1  0  0  0  0
 22 24  1  0  0  0  0
 24 25  1  0  0  0  0
 26 27  1  0  0  0  0
 27 29  2  0  0  0  0
 28 31  1  0  0  0  0
 28 26  2  0  0  0  0
 30 25  1  0  0  0  0
 30 29  1  0  0  0  0
 31 30  2  0  0  0  0
 33 38  1  0  0  0  0
 33 32  1  0  0  0  0
 33 34  1  0  0  0  0
 34 37  1  0  0  0  0
 35 37  1  0  0  0  0
 36 38  1  0  0  0  0
 36 35  1  0  0  0  0
M  END
>  <MODEL>
8

>  <REMARK>
 VINA RESULT:      -7.2      1.369      1.985
  Name = 
  7 active torsions:
  status: ('A' for Active; 'I' for Inactive)
    1  A    between atoms: C_3  and  C_25
    2  A    between atoms: N_8  and  C_37
    3  A    between atoms: C_16  and  O_17
    4  A    between atoms: C_16  and  C_21
    5  A    between atoms: O_17  and  C_31
    6  A    between atoms: C_19  and  C_23
    7  A    between atoms: N_29  and  C_37
                            x       y       z     vdW  Elec       q    Type
                         _______ _______ _______ _____ _____    ______ ____

>  <TORSDO>
F 7

$$$$
=
 OpenBabel11062419253D

 38 44  0  0  1  0  0  0  0  0999 V2000
  191.4660  173.7240  143.1040 C   0  0  0  0  0  2  0  0  0  0  0  0
  187.9980  173.5680  141.2750 C   0  0  0  0  0  2  0  0  0  0  0  0
  190.3370  174.2110  144.0270 C   0  0  1  0  0  3  0  0  0  0  0  0
  188.8170  172.5380  140.5230 C   0  0  0  0  0  2  0  0  0  0  0  0
  190.4070  175.6550  144.5730 C   0  0  2  0  0  3  0  0  0  0  0  0
  189.1080  175.9810  143.8210 C   0  0  1  0  0  3  0  0  0  0  0  0
  191.4750  174.4670  141.8510 N   0  0  0  0  0  0  0  0  0  0  0  0
  190.2830  174.1250  141.0670 C   0  0  1  0  0  3  0  0  0  0  0  0
  190.1850  172.7430  140.8020 O   0  0  0  0  0  0  0  0  0  0  0  0
  189.0040  174.5750  141.7600 C   0  0  2  0  0  3  0  0  0  0  0  0
  189.0190  174.5510  143.3050 C   0  0  1  0  0  3  0  0  0  0  0  0
  187.9110  176.2980  144.6920 C   0  0  0  0  0  0  0  0  0  0  0  0
  187.1050  176.6790  146.9440 C   0  0  0  0  0  3  0  0  0  0  0  0
  185.6450  177.0580  145.1060 C   0  0  0  0  0  3  0  0  0  0  0  0
  188.1320  176.3050  146.0730 C   0  0  0  0  0  3  0  0  0  0  0  0
  185.8910  177.0420  146.4490 N   0  0  0  0  0  0  0  0  0  0  0  0
  186.6450  176.6960  144.1980 C   0  0  0  0  0  0  0  0  0  0  0  0
  186.3650  176.7520  142.8340 O   0  0  0  0  0  1  0  0  0  0  0  0
  191.6800  177.0000  142.8450 O   0  0  0  0  0  1  0  0  0  0  0  0
  191.6310  176.5070  144.1510 C   0  0  1  0  0  0  0  0  0  0  0  0
  192.0770  177.4430  145.1080 O   0  0  0  0  0  0  0  0  0  0  0  0
  192.9530  176.3720  144.8090 C   0  0  2  0  0  0  0  0  0  0  0  0
  194.0680  176.8160  144.1290 F   0  0  0  0  0  0  0  0  0  0  0  0
  193.1390  175.4280  145.9830 C   0  0  0  0  0  2  0  0  0  0  0  0
  194.5270  175.1880  146.1740 O   0  0  0  0  0  0  0  0  0  0  0  0
  196.2850  171.4490  145.3740 C   0  0  0  0  0  3  0  0  0  0  0  0
  194.9030  171.6250  145.2490 C   0  0  0  0  0  3  0  0  0  0  0  0
  197.0920  172.5210  145.7620 C   0  0  0  0  0  3  0  0  0  0  0  0
  194.3250  172.8720  145.5190 C   0  0  0  0  0  3  0  0  0  0  0  0
  195.1270  173.9510  145.9080 C   0  0  0  0  0  0  0  0  0  0  0  0
  196.5170  173.7680  146.0260 C   0  0  0  0  0  3  0  0  0  0  0  0
  192.6610  174.0740  141.1060 C   0  0  0  0  0  2  0  0  0  0  0  0
  193.7740  173.8940  142.0240 N   0  0  0  0  0  0  0  0  0  0  0  0
  194.3000  172.5330  141.8000 C   0  0  0  0  0  2  0  0  0  0  0  0
  196.6580  173.3250  142.1170 C   0  0  0  0  0  2  0  0  0  0  0  0
  196.0650  174.7050  142.4550 C   0  0  0  0  0  2  0  0  0  0  0  0
  195.7280  172.4920  141.2370 C   0  0  0  0  0  2  0  0  0  0  0  0
  194.7440  174.9550  141.7250 C   0  0  0  0  0  2  0  0  0  0  0  0
  3  1  1  6  0  0  0
  3  5  1  0  0  0  0
  4  9  1  0  0  0  0
  4  2  1  0  0  0  0
  5 20  1  6  0  0  0
  6  5  1  0  0  0  0
  6 12  1  1  0  0  0
  7  1  1  0  0  0  0
  8  9  1  1  0  0  0
  8 10  1  0  0  0  0
  8  7  1  0  0  0  0
 10  2  1  6  0  0  0
 10 11  1  0  0  0  0
 11  6  1  0  0  0  0
 11  3  1  0  0  0  0
 12 15  1  0  0  0  0
 14 16  2  0  0  0  0
 15 13  2  0  0  0  0
 16 13  1  0  0  0  0
 17 12  2  0  0  0  0
 17 14  1  0  0  0  0
 18 17  1  0  0  0  0
 19 20  1  0  0  0  0
 20 22  1  0  0  0  0
 20 21  1  0  0  0  0
 22 21  1  0  0  0  0
 22 24  1  0  0  0  0
 23 22  1  0  0  0  0
 24 25  1  0  0  0  0
 26 28  1  0  0  0  0
 27 26  2  0  0  0  0
 27 29  1  0  0  0  0
 28 31  2  0  0  0  0
 29 30  2  0  0  0  0
 30 31  1  0  0  0  0
 30 25  1  0  0  0  0
 32  7  1  0  0  0  0
 32 33  1  0  0  0  0
 34 33  1  0  0  0  0
 35 36  1  0  0  0  0
 37 34  1  0  0  0  0
 37 35  1  0  0  0  0
 38 33  1  0  0  0  0
 38 36  1  0  0  0  0
M  END
>  <MODEL>
9

>  <REMARK>
 VINA RESULT:      -7.0      2.344      5.367
  Name = 
  7 active torsions:
  status: ('A' for Active; 'I' for Inactive)
    1  A    between atoms: C_3  and  C_25
    2  A    between atoms: N_8  and  C_37
    3  A    between atoms: C_16  and  O_17
    4  A    between atoms: C_16  and  C_21
    5  A    between atoms: O_17  and  C_31
    6  A    between atoms: C_19  and  C_23
    7  A    between atoms: N_29  and  C_37
                            x       y       z     vdW  Elec       q    Type
                         _______ _______ _______ _____ _____    ______ ____

>  <TORSDO>
F 7

$$$$
