=
 OpenBabel11062419223D

 38 43  0  0  1  0  0  0  0  0999 V2000
  187.1040  177.0590  140.5780 C   0  0  0  0  0  2  0  0  0  0  0  0
  195.8000  173.0430  145.2640 C   0  0  0  0  0  0  0  0  0  0  0  0
  193.7740  172.8800  143.8930 O   0  0  0  0  0  0  0  0  0  0  0  0
  188.6780  175.7540  147.5680 C   0  0  0  0  0  2  0  0  0  0  0  0
  191.5350  172.4170  141.2180 C   0  0  0  0  0  2  0  0  0  0  0  0
  188.6310  177.6030  142.4050 C   0  0  2  0  0  3  0  0  0  0  0  0
  191.2080  173.8950  145.1220 S   0  0  0  0  0  0  0  0  0  0  0  0
  189.1120  174.6070  146.6530 C   0  0  0  0  0  2  0  0  0  0  0  0
  196.1500  171.6170  144.9320 C   0  0  0  0  0  2  0  0  0  0  0  0
  189.8560  175.0860  145.4130 C   0  0  2  0  0  3  0  0  0  0  0  0
  187.7320  178.2160  141.3490 C   0  0  0  0  0  2  0  0  0  0  0  0
  189.8820  173.9380  142.2490 C   0  0  0  0  0  0  0  0  0  0  0  0
  193.8570  174.5220  145.6660 C   0  0  0  0  0  2  0  0  0  0  0  0
  187.8850  176.8710  146.8820 C   0  0  0  0  0  2  0  0  0  0  0  0
  189.0090  176.2640  141.8110 C   0  0  2  0  0  3  0  0  0  0  0  0
  191.1200  173.7140  141.8170 C   0  0  0  0  0  3  0  0  0  0  0  0
  187.9140  176.3800  144.4740 C   0  0  0  0  0  0  0  0  0  0  0  0
  196.5100  173.6460  146.0540 O   0  0  0  0  0  0  0  0  0  0  0  0
  193.6120  171.3390  142.0480 C   0  0  2  0  0  3  0  0  0  0  0  0
  195.1480  170.9560  143.9930 C   0  0  0  0  0  2  0  0  0  0  0  0
  187.7820  175.7870  141.0580 C   0  0  0  0  0  2  0  0  0  0  0  0
  193.0450  172.3840  141.1000 C   0  0  0  0  0  2  0  0  0  0  0  0
  187.0570  176.3840  145.7010 C   0  0  0  0  0  2  0  0  0  0  0  0
  195.1790  174.6940  143.6740 O   0  0  0  0  0  1  0  0  0  0  0  0
  194.5190  172.0020  143.0820 C   0  0  2  0  0  3  0  0  0  0  0  0
  187.8250  177.4410  143.6620 C   0  0  0  0  0  3  0  0  0  0  0  0
  188.8690  175.2200  144.2250 C   0  0  1  0  0  3  0  0  0  0  0  0
  194.6470  173.7670  144.5770 C   0  0  1  0  0  0  0  0  0  0  0  0
  192.5190  175.1560  145.2570 C   0  0  1  0  0  3  0  0  0  0  0  0
  189.5800  175.2840  142.8470 C   0  0  1  0  0  3  0  0  0  0  0  0
  193.4330  177.1310  144.2650 O   0  0  0  0  0  0  0  0  0  0  0  0
  192.0470  177.3580  144.2570 C   0  0  0  0  0  2  0  0  0  0  0  0
  192.6150  176.0160  144.0020 C   0  0  2  0  0  3  0  0  0  0  0  0
  193.7900  169.1310  140.8180 C   0  0  0  0  0  3  0  0  0  0  0  0
  194.3650  170.3560  141.2780 N   0  0  0  0  0  2  0  0  0  0  0  0
  192.5970  168.8340  141.0890 O   0  0  0  0  0  0  0  0  0  0  0  0
  188.7680  171.9850  143.0660 O   0  0  0  0  0  1  0  0  0  0  0  0
  188.9100  172.9390  142.1360 O   0  0  0  0  0  0  0  0  0  0  0  0
  1 21  1  0  0  0  0
  1 11  1  0  0  0  0
  2 18  2  0  0  0  0
  3 28  1  0  0  0  0
  5 16  1  0  0  0  0
  6 11  1  6  0  0  0
  6 26  1  0  0  0  0
  7 29  1  0  0  0  0
  7 10  1  0  0  0  0
  8  4  1  0  0  0  0
  9  2  1  0  0  0  0
 10  8  1  1  0  0  0
 14  4  1  0  0  0  0
 15 21  1  1  0  0  0
 15  6  1  0  0  0  0
 15 30  1  0  0  0  0
 16 12  2  0  0  0  0
 17 23  1  0  0  0  0
 19 35  1  6  0  0  0
 19 25  1  0  0  0  0
 20  9  1  0  0  0  0
 22  5  1  0  0  0  0
 22 19  1  0  0  0  0
 23 14  1  0  0  0  0
 25  3  1  0  0  0  0
 25 20  1  1  0  0  0
 26 17  2  0  0  0  0
 27 17  1  1  0  0  0
 27 10  1  0  0  0  0
 28 24  1  6  0  0  0
 28  2  1  0  0  0  0
 28 13  1  0  0  0  0
 29 13  1  6  0  0  0
 30 12  1  6  0  0  0
 30 27  1  0  0  0  0
 32 31  1  0  0  0  0
 33 32  1  1  0  0  0
 33 31  1  0  0  0  0
 33 29  1  0  0  0  0
 34 36  2  0  0  0  0
 34 35  1  0  0  0  0
 38 12  1  0  0  0  0
 38 37  1  0  0  0  0
M  END
>  <MODEL>
1

>  <REMARK>
 VINA RESULT:      -7.4      0.000      0.000
  Name = 
  3 active torsions:
  status: ('A' for Active; 'I' for Inactive)
    1  A    between atoms: N_15  and  C_24
    2  A    between atoms: C_16  and  O_38
    3  A    between atoms: C_29  and  C_36
                            x       y       z     vdW  Elec       q    Type
                         _______ _______ _______ _____ _____    ______ ____

>  <TORSDO>
F 3

$$$$
=
 OpenBabel11062419223D

 38 43  0  0  1  0  0  0  0  0999 V2000
  186.0160  177.9050  141.6950 C   0  0  0  0  0  2  0  0  0  0  0  0
  195.1640  172.4390  142.0400 C   0  0  0  0  0  0  0  0  0  0  0  0
  192.7820  172.6970  141.5230 O   0  0  0  0  0  0  0  0  0  0  0  0
  189.7740  175.0940  147.2630 C   0  0  0  0  0  2  0  0  0  0  0  0
  189.6980  172.9440  139.8470 C   0  0  0  0  0  2  0  0  0  0  0  0
  188.1510  177.9600  142.8780 C   0  0  2  0  0  3  0  0  0  0  0  0
  190.9870  173.6100  143.7750 S   0  0  0  0  0  0  0  0  0  0  0  0
  189.6910  174.1330  146.0760 C   0  0  0  0  0  2  0  0  0  0  0  0
  195.1730  171.0920  141.3700 C   0  0  0  0  0  2  0  0  0  0  0  0
  190.0060  174.8040  144.7450 C   0  0  2  0  0  3  0  0  0  0  0  0
  187.0300  178.8350  142.3540 C   0  0  0  0  0  2  0  0  0  0  0  0
  188.7460  174.3290  141.6600 C   0  0  0  0  0  0  0  0  0  0  0  0
  193.7160  173.9320  143.3800 C   0  0  0  0  0  2  0  0  0  0  0  0
  188.9520  176.3790  147.1190 C   0  0  0  0  0  2  0  0  0  0  0  0
  188.1050  176.7490  141.9730 C   0  0  2  0  0  3  0  0  0  0  0  0
  189.7060  174.1160  140.7640 C   0  0  0  0  0  3  0  0  0  0  0  0
  188.0550  176.3900  144.8320 C   0  0  0  0  0  0  0  0  0  0  0  0
  196.1850  172.8190  142.5940 O   0  0  0  0  0  0  0  0  0  0  0  0
  191.7640  171.5810  139.6460 C   0  0  2  0  0  3  0  0  0  0  0  0
  193.8220  170.7060  140.7810 C   0  0  0  0  0  2  0  0  0  0  0  0
  186.6370  176.5200  141.6680 C   0  0  0  0  0  2  0  0  0  0  0  0
  191.0470  172.8340  139.1680 C   0  0  0  0  0  2  0  0  0  0  0  0
  187.7000  176.2000  146.2730 C   0  0  0  0  0  2  0  0  0  0  0  0
  194.2530  174.4190  141.0960 O   0  0  0  0  0  1  0  0  0  0  0  0
  193.0620  171.9560  140.3590 C   0  0  2  0  0  3  0  0  0  0  0  0
  187.8310  177.5990  144.3000 C   0  0  0  0  0  3  0  0  0  0  0  0
  188.6890  175.2440  144.0540 C   0  0  1  0  0  3  0  0  0  0  0  0
  193.9550  173.3650  141.9660 C   0  0  1  0  0  0  0  0  0  0  0  0
  192.4210  174.7250  143.6150 C   0  0  1  0  0  3  0  0  0  0  0  0
  188.8650  175.5410  142.5410 C   0  0  1  0  0  3  0  0  0  0  0  0
  193.2040  176.7800  142.6730 O   0  0  0  0  0  0  0  0  0  0  0  0
  191.9650  177.1180  143.2430 C   0  0  0  0  0  2  0  0  0  0  0  0
  192.1830  175.8150  142.5770 C   0  0  2  0  0  3  0  0  0  0  0  0
  191.1500  169.7150  138.0460 C   0  0  0  0  0  3  0  0  0  0  0  0
  192.0500  170.7280  138.4990 N   0  0  0  0  0  2  0  0  0  0  0  0
  190.0670  169.4950  138.6500 O   0  0  0  0  0  0  0  0  0  0  0  0
  187.7630  172.2910  142.4350 O   0  0  0  0  0  1  0  0  0  0  0  0
  187.6690  173.4420  141.7570 O   0  0  0  0  0  0  0  0  0  0  0  0
  1 11  1  0  0  0  0
  2 18  2  0  0  0  0
  3 28  1  0  0  0  0
  5 16  1  0  0  0  0
  6 11  1  6  0  0  0
  6 26  1  0  0  0  0
  7 10  1  0  0  0  0
  8  4  1  0  0  0  0
  9  2  1  0  0  0  0
 10  8  1  1  0  0  0
 12 38  1  0  0  0  0
 14  4  1  0  0  0  0
 15 21  1  1  0  0  0
 15 30  1  0  0  0  0
 15  6  1  0  0  0  0
 16 12  2  0  0  0  0
 17 23  1  0  0  0  0
 19 35  1  6  0  0  0
 19 25  1  0  0  0  0
 20  9  1  0  0  0  0
 21  1  1  0  0  0  0
 22 19  1  0  0  0  0
 22  5  1  0  0  0  0
 23 14  1  0  0  0  0
 25 20  1  1  0  0  0
 25  3  1  0  0  0  0
 26 17  2  0  0  0  0
 27 10  1  0  0  0  0
 27 17  1  1  0  0  0
 28 24  1  6  0  0  0
 28  2  1  0  0  0  0
 28 13  1  0  0  0  0
 29 13  1  6  0  0  0
 29  7  1  0  0  0  0
 30 12  1  6  0  0  0
 30 27  1  0  0  0  0
 31 32  1  0  0  0  0
 33 31  1  0  0  0  0
 33 32  1  1  0  0  0
 33 29  1  0  0  0  0
 34 35  1  0  0  0  0
 34 36  2  0  0  0  0
 38 37  1  0  0  0  0
M  END
>  <MODEL>
2

>  <REMARK>
 VINA RESULT:      -7.3      1.813      2.209
  Name = 
  3 active torsions:
  status: ('A' for Active; 'I' for Inactive)
    1  A    between atoms: N_15  and  C_24
    2  A    between atoms: C_16  and  O_38
    3  A    between atoms: C_29  and  C_36
                            x       y       z     vdW  Elec       q    Type
                         _______ _______ _______ _____ _____    ______ ____

>  <TORSDO>
F 3

$$$$
=
 OpenBabel11062419223D

 38 43  0  0  1  0  0  0  0  0999 V2000
  190.1640  171.3280  141.1450 C   0  0  0  0  0  2  0  0  0  0  0  0
  186.8850  178.9050  147.8940 C   0  0  0  0  0  0  0  0  0  0  0  0
  187.0570  177.8630  145.6820 O   0  0  0  0  0  0  0  0  0  0  0  0
  193.7690  176.6240  144.6080 C   0  0  0  0  0  2  0  0  0  0  0  0
  186.3140  176.2860  142.6250 C   0  0  0  0  0  2  0  0  0  0  0  0
  190.7540  172.2220  143.3400 C   0  0  2  0  0  3  0  0  0  0  0  0
  189.8370  177.2360  144.6800 S   0  0  0  0  0  0  0  0  0  0  0  0
  192.4430  177.1140  144.0200 C   0  0  0  0  0  2  0  0  0  0  0  0
  185.9290  179.9300  147.3470 C   0  0  0  0  0  2  0  0  0  0  0  0
  191.2790  176.1780  144.3200 C   0  0  2  0  0  3  0  0  0  0  0  0
  190.7530  170.9580  142.5020 C   0  0  0  0  0  2  0  0  0  0  0  0
  188.5850  175.3210  142.4930 C   0  0  0  0  0  0  0  0  0  0  0  0
  188.8640  177.5620  147.2590 C   0  0  0  0  0  2  0  0  0  0  0  0
  194.1500  175.1850  144.2460 C   0  0  0  0  0  2  0  0  0  0  0  0
  189.6240  173.0360  142.7490 C   0  0  2  0  0  3  0  0  0  0  0  0
  187.4550  175.5010  143.1700 C   0  0  0  0  0  3  0  0  0  0  0  0
  192.2300  174.2290  143.0460 C   0  0  0  0  0  0  0  0  0  0  0  0
  187.2420  179.0060  149.0580 O   0  0  0  0  0  0  0  0  0  0  0  0
  185.2810  178.0280  144.0620 C   0  0  2  0  0  3  0  0  0  0  0  0
  185.6200  179.7340  145.8690 C   0  0  0  0  0  2  0  0  0  0  0  0
  189.6480  172.7520  141.2600 C   0  0  0  0  0  2  0  0  0  0  0  0
  185.3140  176.5430  143.7330 C   0  0  0  0  0  2  0  0  0  0  0  0
  193.6250  174.7480  142.8860 C   0  0  0  0  0  2  0  0  0  0  0  0
  186.7060  176.5620  147.5510 O   0  0  0  0  0  1  0  0  0  0  0  0
  185.7160  178.2570  145.5080 C   0  0  2  0  0  3  0  0  0  0  0  0
  192.0800  172.9020  143.1520 C   0  0  0  0  0  3  0  0  0  0  0  0
  191.0660  175.2060  143.1300 C   0  0  1  0  0  3  0  0  0  0  0  0
  187.3410  177.7090  147.0650 C   0  0  1  0  0  0  0  0  0  0  0  0
  189.5990  176.5590  146.3560 C   0  0  1  0  0  3  0  0  0  0  0  0
  189.6750  174.5190  143.1470 C   0  0  1  0  0  3  0  0  0  0  0  0
  189.0700  174.5840  147.5970 O   0  0  0  0  0  0  0  0  0  0  0  0
  189.9560  174.1340  146.6040 C   0  0  0  0  0  2  0  0  0  0  0  0
  188.9480  175.1810  146.3280 C   0  0  2  0  0  3  0  0  0  0  0  0
  183.3380  178.6650  142.5650 C   0  0  0  0  0  3  0  0  0  0  0  0
  183.9270  178.5310  143.8600 N   0  0  0  0  0  2  0  0  0  0  0  0
  183.9890  178.3750  141.5260 O   0  0  0  0  0  0  0  0  0  0  0  0
  188.2050  175.2780  140.1320 O   0  0  0  0  0  1  0  0  0  0  0  0
  188.7300  175.8670  141.2130 O   0  0  0  0  0  0  0  0  0  0  0  0
  1 21  1  0  0  0  0
  1 11  1  0  0  0  0
  2 18  2  0  0  0  0
  3 28  1  0  0  0  0
  5 16  1  0  0  0  0
  5 22  1  0  0  0  0
  6 11  1  6  0  0  0
  7 29  1  0  0  0  0
  8  4  1  0  0  0  0
  9  2  1  0  0  0  0
 10  8  1  6  0  0  0
 10  7  1  0  0  0  0
 12 16  2  0  0  0  0
 14  4  1  0  0  0  0
 15 21  1  6  0  0  0
 15 30  1  0  0  0  0
 15  6  1  0  0  0  0
 17 26  2  0  0  0  0
 19 35  1  1  0  0  0
 19 25  1  0  0  0  0
 20  9  1  0  0  0  0
 22 19  1  0  0  0  0
 23 17  1  0  0  0  0
 23 14  1  0  0  0  0
 25  3  1  0  0  0  0
 25 20  1  6  0  0  0
 26  6  1  0  0  0  0
 27 17  1  1  0  0  0
 27 30  1  0  0  0  0
 27 10  1  0  0  0  0
 28 13  1  0  0  0  0
 28 24  1  1  0  0  0
 28  2  1  0  0  0  0
 29 13  1  1  0  0  0
 30 12  1  6  0  0  0
 32 31  1  0  0  0  0
 33 29  1  0  0  0  0
 33 32  1  6  0  0  0
 33 31  1  0  0  0  0
 34 35  1  0  0  0  0
 36 34  2  0  0  0  0
 37 38  1  0  0  0  0
 38 12  1  0  0  0  0
M  END
>  <MODEL>
3

>  <REMARK>
 VINA RESULT:      -7.1      3.960      7.856
  Name = 
  3 active torsions:
  status: ('A' for Active; 'I' for Inactive)
    1  A    between atoms: N_15  and  C_24
    2  A    between atoms: C_16  and  O_38
    3  A    between atoms: C_29  and  C_36
                            x       y       z     vdW  Elec       q    Type
                         _______ _______ _______ _____ _____    ______ ____

>  <TORSDO>
F 3

$$$$
=
 OpenBabel11062419223D

 38 43  0  0  1  0  0  0  0  0999 V2000
  186.2280  177.7420  147.4720 C   0  0  0  0  0  2  0  0  0  0  0  0
  192.1890  172.4380  140.3990 C   0  0  0  0  0  0  0  0  0  0  0  0
  191.8400  174.1120  142.1560 O   0  0  0  0  0  0  0  0  0  0  0  0
  186.4160  177.9160  140.1940 C   0  0  0  0  0  2  0  0  0  0  0  0
  191.9700  175.9190  145.1720 C   0  0  0  0  0  2  0  0  0  0  0  0
  185.9350  176.4100  145.4460 C   0  0  2  0  0  3  0  0  0  0  0  0
  189.6350  176.1260  141.7030 S   0  0  0  0  0  0  0  0  0  0  0  0
  187.8160  177.8990  140.8100 C   0  0  0  0  0  2  0  0  0  0  0  0
  193.6710  172.7010  140.4310 C   0  0  0  0  0  2  0  0  0  0  0  0
  187.9720  176.8500  141.9040 C   0  0  2  0  0  3  0  0  0  0  0  0
  185.2740  176.7910  146.7560 C   0  0  0  0  0  2  0  0  0  0  0  0
  189.7250  176.8730  144.7770 C   0  0  0  0  0  0  0  0  0  0  0  0
  190.0100  173.5770  140.6700 C   0  0  0  0  0  2  0  0  0  0  0  0
  185.2650  178.0350  141.1980 C   0  0  0  0  0  2  0  0  0  0  0  0
  187.4110  176.5730  145.7370 C   0  0  2  0  0  3  0  0  0  0  0  0
  190.5160  175.8090  144.8790 C   0  0  0  0  0  3  0  0  0  0  0  0
  186.2630  177.8770  143.4380 C   0  0  0  0  0  0  0  0  0  0  0  0
  191.7560  171.6580  139.5650 O   0  0  0  0  0  0  0  0  0  0  0  0
  193.5660  174.6620  143.7440 C   0  0  2  0  0  3  0  0  0  0  0  0
  194.0730  173.7440  141.4660 C   0  0  0  0  0  2  0  0  0  0  0  0
  187.5170  177.7620  146.6710 C   0  0  0  0  0  2  0  0  0  0  0  0
  192.6280  174.5750  144.9380 C   0  0  0  0  0  2  0  0  0  0  0  0
  185.6370  178.8130  142.4520 C   0  0  0  0  0  2  0  0  0  0  0  0
  190.8390  172.0420  142.3120 O   0  0  0  0  0  1  0  0  0  0  0  0
  193.1020  173.7160  142.6390 C   0  0  2  0  0  3  0  0  0  0  0  0
  185.4700  177.3780  144.3950 C   0  0  0  0  0  3  0  0  0  0  0  0
  187.7310  177.4980  143.2910 C   0  0  1  0  0  3  0  0  0  0  0  0
  191.2440  173.0480  141.4280 C   0  0  1  0  0  0  0  0  0  0  0  0
  189.0060  174.4320  141.4590 C   0  0  1  0  0  3  0  0  0  0  0  0
  188.2720  176.6410  144.4660 C   0  0  1  0  0  3  0  0  0  0  0  0
  188.0200  172.5220  142.5080 O   0  0  0  0  0  0  0  0  0  0  0  0
  187.1070  173.5580  142.7630 C   0  0  0  0  0  2  0  0  0  0  0  0
  188.5680  173.7910  142.7710 C   0  0  2  0  0  3  0  0  0  0  0  0
  195.9240  175.2910  144.4270 C   0  0  0  0  0  3  0  0  0  0  0  0
  194.9150  174.3110  144.1710 N   0  0  0  0  0  2  0  0  0  0  0  0
  195.6910  176.5170  144.2630 O   0  0  0  0  0  0  0  0  0  0  0  0
  190.8520  178.8200  143.9650 O   0  0  0  0  0  1  0  0  0  0  0  0
  190.2500  178.1560  144.9610 O   0  0  0  0  0  0  0  0  0  0  0  0
  2  9  1  0  0  0  0
  2 28  1  0  0  0  0
  3 25  1  0  0  0  0
  4  8  1  0  0  0  0
  4 14  1  0  0  0  0
  6 26  1  6  0  0  0
  6 15  1  0  0  0  0
  6 11  1  0  0  0  0
  7 10  1  0  0  0  0
  9 20  1  0  0  0  0
 10  8  1  6  0  0  0
 10 27  1  0  0  0  0
 11  1  1  0  0  0  0
 12 16  2  0  0  0  0
 12 38  1  0  0  0  0
 13 28  1  0  0  0  0
 14 23  1  0  0  0  0
 15 21  1  6  0  0  0
 16  5  1  0  0  0  0
 17 26  2  0  0  0  0
 18  2  2  0  0  0  0
 19 35  1  1  0  0  0
 19 22  1  0  0  0  0
 21  1  1  0  0  0  0
 22  5  1  0  0  0  0
 23 17  1  0  0  0  0
 25 20  1  6  0  0  0
 25 19  1  0  0  0  0
 27 17  1  1  0  0  0
 27 30  1  0  0  0  0
 28  3  1  0  0  0  0
 28 24  1  1  0  0  0
 29 13  1  1  0  0  0
 29  7  1  0  0  0  0
 29 33  1  0  0  0  0
 30 12  1  1  0  0  0
 30 15  1  0  0  0  0
 31 32  1  0  0  0  0
 31 33  1  0  0  0  0
 33 32  1  6  0  0  0
 35 34  1  0  0  0  0
 36 34  2  0  0  0  0
 37 38  1  0  0  0  0
M  END
>  <MODEL>
4

>  <REMARK>
 VINA RESULT:      -7.1      2.191      5.445
  Name = 
  3 active torsions:
  status: ('A' for Active; 'I' for Inactive)
    1  A    between atoms: N_15  and  C_24
    2  A    between atoms: C_16  and  O_38
    3  A    between atoms: C_29  and  C_36
                            x       y       z     vdW  Elec       q    Type
                         _______ _______ _______ _____ _____    ______ ____

>  <TORSDO>
F 3

$$$$
=
 OpenBabel11062419223D

 38 43  0  0  1  0  0  0  0  0999 V2000
  191.9410  176.4070  147.7290 C   0  0  0  0  0  2  0  0  0  0  0  0
  189.9290  171.8090  138.3210 C   0  0  0  0  0  0  0  0  0  0  0  0
  191.0230  173.4590  139.7660 O   0  0  0  0  0  0  0  0  0  0  0  0
  186.0200  176.4330  143.4900 C   0  0  0  0  0  2  0  0  0  0  0  0
  193.4110  175.3380  141.5410 C   0  0  0  0  0  2  0  0  0  0  0  0
  190.2350  175.0000  146.6930 C   0  0  2  0  0  3  0  0  0  0  0  0
  189.2280  175.1400  141.5210 S   0  0  0  0  0  0  0  0  0  0  0  0
  187.3080  176.6230  142.6870 C   0  0  0  0  0  2  0  0  0  0  0  0
  190.7540  172.2730  137.1510 C   0  0  0  0  0  2  0  0  0  0  0  0
  188.4000  175.6320  143.0700 C   0  0  2  0  0  3  0  0  0  0  0  0
  190.9130  175.3170  148.0120 C   0  0  0  0  0  2  0  0  0  0  0  0
  191.7440  175.9640  143.2550 C   0  0  0  0  0  0  0  0  0  0  0  0
  188.8310  172.6430  140.3750 C   0  0  0  0  0  2  0  0  0  0  0  0
  186.1970  176.4160  145.0110 C   0  0  0  0  0  2  0  0  0  0  0  0
  191.2800  175.3710  145.6630 C   0  0  2  0  0  3  0  0  0  0  0  0
  192.3710  175.0210  142.5570 C   0  0  0  0  0  3  0  0  0  0  0  0
  188.6170  176.4500  145.4390 C   0  0  0  0  0  0  0  0  0  0  0  0
  189.0750  170.9570  138.1270 O   0  0  0  0  0  0  0  0  0  0  0  0
  193.2400  174.2790  139.3010 C   0  0  2  0  0  3  0  0  0  0  0  0
  191.7310  173.3860  137.5090 C   0  0  0  0  0  2  0  0  0  0  0  0
  191.9940  176.5850  146.2220 C   0  0  0  0  0  2  0  0  0  0  0  0
  193.7130  174.0920  140.7340 C   0  0  0  0  0  2  0  0  0  0  0  0
  187.3640  177.2680  145.4910 C   0  0  0  0  0  2  0  0  0  0  0  0
  190.7970  171.2760  140.4670 O   0  0  0  0  0  1  0  0  0  0  0  0
  192.1620  173.2520  138.9640 C   0  0  2  0  0  3  0  0  0  0  0  0
  189.0150  175.8690  146.5790 C   0  0  0  0  0  3  0  0  0  0  0  0
  189.3480  176.2740  144.1160 C   0  0  1  0  0  3  0  0  0  0  0  0
  190.1940  172.3060  139.7380 C   0  0  1  0  0  0  0  0  0  0  0  0
  188.8420  173.3700  141.7290 C   0  0  1  0  0  3  0  0  0  0  0  0
  190.7030  175.5270  144.2480 C   0  0  1  0  0  3  0  0  0  0  0  0
  189.3160  171.3810  142.9700 O   0  0  0  0  0  0  0  0  0  0  0  0
  188.9560  172.3160  143.9530 C   0  0  0  0  0  2  0  0  0  0  0  0
  189.7440  172.7060  142.7630 C   0  0  2  0  0  3  0  0  0  0  0  0
  194.6580  175.0540  137.3490 C   0  0  0  0  0  3  0  0  0  0  0  0
  194.3770  174.1280  138.4010 N   0  0  0  0  0  2  0  0  0  0  0  0
  193.9050  176.0410  137.1380 O   0  0  0  0  0  0  0  0  0  0  0  0
  191.1410  178.2770  143.1630 O   0  0  0  0  0  1  0  0  0  0  0  0
  192.0630  177.3120  143.0570 O   0  0  0  0  0  0  0  0  0  0  0  0
  1 11  1  0  0  0  0
  2 28  1  0  0  0  0
  4 14  1  0  0  0  0
  5 16  1  0  0  0  0
  6 26  1  6  0  0  0
  6 11  1  0  0  0  0
  7 29  1  0  0  0  0
  7 10  1  0  0  0  0
  8  4  1  0  0  0  0
  9 20  1  0  0  0  0
  9  2  1  0  0  0  0
 10  8  1  6  0  0  0
 10 27  1  0  0  0  0
 14 23  1  0  0  0  0
 15 21  1  1  0  0  0
 15  6  1  0  0  0  0
 16 12  2  0  0  0  0
 17 23  1  0  0  0  0
 17 26  2  0  0  0  0
 18  2  2  0  0  0  0
 19 35  1  6  0  0  0
 19 22  1  0  0  0  0
 21  1  1  0  0  0  0
 22  5  1  0  0  0  0
 25 20  1  6  0  0  0
 25 19  1  0  0  0  0
 25  3  1  0  0  0  0
 27 30  1  0  0  0  0
 27 17  1  1  0  0  0
 28  3  1  0  0  0  0
 28 13  1  0  0  0  0
 28 24  1  1  0  0  0
 29 13  1  6  0  0  0
 29 33  1  0  0  0  0
 30 12  1  6  0  0  0
 30 15  1  0  0  0  0
 31 32  1  0  0  0  0
 33 31  1  0  0  0  0
 33 32  1  1  0  0  0
 34 35  1  0  0  0  0
 36 34  2  0  0  0  0
 38 37  1  0  0  0  0
 38 12  1  0  0  0  0
M  END
>  <MODEL>
5

>  <REMARK>
 VINA RESULT:      -6.9      2.934      5.800
  Name = 
  3 active torsions:
  status: ('A' for Active; 'I' for Inactive)
    1  A    between atoms: N_15  and  C_24
    2  A    between atoms: C_16  and  O_38
    3  A    between atoms: C_29  and  C_36
                            x       y       z     vdW  Elec       q    Type
                         _______ _______ _______ _____ _____    ______ ____

>  <TORSDO>
F 3

$$$$
=
 OpenBabel11062419223D

 38 43  0  0  1  0  0  0  0  0999 V2000
  197.7390  174.1450  144.9950 C   0  0  0  0  0  2  0  0  0  0  0  0
  188.7690  172.8260  139.3840 C   0  0  0  0  0  0  0  0  0  0  0  0
  191.0170  173.7340  139.7440 O   0  0  0  0  0  0  0  0  0  0  0  0
  190.9780  176.6540  146.0050 C   0  0  0  0  0  2  0  0  0  0  0  0
  194.4460  174.4730  139.4600 C   0  0  0  0  0  2  0  0  0  0  0  0
  195.4140  173.4950  145.3630 C   0  0  2  0  0  3  0  0  0  0  0  0
  191.4840  175.2430  142.3190 S   0  0  0  0  0  0  0  0  0  0  0  0
  191.4210  176.7550  144.5440 C   0  0  0  0  0  2  0  0  0  0  0  0
  188.7550  173.3870  137.9880 C   0  0  0  0  0  2  0  0  0  0  0  0
  192.0700  175.4770  144.0310 C   0  0  2  0  0  3  0  0  0  0  0  0
  196.8300  173.2830  145.8640 C   0  0  0  0  0  2  0  0  0  0  0  0
  194.6060  174.9780  141.8740 C   0  0  0  0  0  0  0  0  0  0  0  0
  189.6090  173.3050  141.6610 C   0  0  0  0  0  2  0  0  0  0  0  0
  192.0610  176.1890  146.9840 C   0  0  0  0  0  2  0  0  0  0  0  0
  195.6090  173.8810  143.9130 C   0  0  2  0  0  3  0  0  0  0  0  0
  194.2650  174.1400  140.8990 C   0  0  0  0  0  3  0  0  0  0  0  0
  194.0110  175.5570  145.6290 C   0  0  0  0  0  0  0  0  0  0  0  0
  187.7600  172.2740  139.7980 O   0  0  0  0  0  0  0  0  0  0  0  0
  192.5350  174.1230  137.9140 C   0  0  2  0  0  3  0  0  0  0  0  0
  190.0440  174.1100  137.6200 C   0  0  0  0  0  2  0  0  0  0  0  0
  196.8810  174.7050  143.8750 C   0  0  0  0  0  2  0  0  0  0  0  0
  193.7060  173.4550  138.6180 C   0  0  0  0  0  2  0  0  0  0  0  0
  193.4670  176.5930  146.5620 C   0  0  0  0  0  2  0  0  0  0  0  0
  190.5430  171.5530  140.3180 O   0  0  0  0  0  1  0  0  0  0  0  0
  191.2190  173.4970  138.3700 C   0  0  2  0  0  3  0  0  0  0  0  0
  194.8060  174.6160  146.1560 C   0  0  0  0  0  3  0  0  0  0  0  0
  193.6120  175.5810  144.1600 C   0  0  1  0  0  3  0  0  0  0  0  0
  190.0250  172.8500  140.2470 C   0  0  1  0  0  0  0  0  0  0  0  0
  190.7310  173.6190  142.6630 C   0  0  1  0  0  3  0  0  0  0  0  0
  194.3670  174.5390  143.2920 C   0  0  1  0  0  3  0  0  0  0  0  0
  191.1650  171.3360  143.2310 O   0  0  0  0  0  0  0  0  0  0  0  0
  191.9140  172.0670  144.1670 C   0  0  0  0  0  2  0  0  0  0  0  0
  191.7770  172.5140  142.7640 C   0  0  2  0  0  3  0  0  0  0  0  0
  192.9310  175.0660  135.5960 C   0  0  0  0  0  3  0  0  0  0  0  0
  192.6920  173.9640  136.4730 N   0  0  0  0  0  2  0  0  0  0  0  0
  192.9890  176.2440  136.0380 O   0  0  0  0  0  0  0  0  0  0  0  0
  196.4360  176.3320  141.1430 O   0  0  0  0  0  1  0  0  0  0  0  0
  195.1710  176.2200  141.5660 O   0  0  0  0  0  0  0  0  0  0  0  0
  1 11  1  0  0  0  0
  2 18  2  0  0  0  0
  2 28  1  0  0  0  0
  3 28  1  0  0  0  0
  4 14  1  0  0  0  0
  5 16  1  0  0  0  0
  6 11  1  1  0  0  0
  6 26  1  0  0  0  0
  7 29  1  0  0  0  0
  7 10  1  0  0  0  0
  8  4  1  0  0  0  0
  9  2  1  0  0  0  0
 10 27  1  0  0  0  0
 10  8  1  6  0  0  0
 15 21  1  1  0  0  0
 15  6  1  0  0  0  0
 16 12  2  0  0  0  0
 17 26  2  0  0  0  0
 17 23  1  0  0  0  0
 19 35  1  6  0  0  0
 19 25  1  0  0  0  0
 19 22  1  0  0  0  0
 20  9  1  0  0  0  0
 21  1  1  0  0  0  0
 22  5  1  0  0  0  0
 23 14  1  0  0  0  0
 25 20  1  6  0  0  0
 25  3  1  0  0  0  0
 27 17  1  1  0  0  0
 28 24  1  1  0  0  0
 28 13  1  0  0  0  0
 29 13  1  6  0  0  0
 29 33  1  0  0  0  0
 30 12  1  6  0  0  0
 30 15  1  0  0  0  0
 30 27  1  0  0  0  0
 31 32  1  0  0  0  0
 33 31  1  0  0  0  0
 33 32  1  1  0  0  0
 34 36  2  0  0  0  0
 34 35  1  0  0  0  0
 37 38  1  0  0  0  0
 38 12  1  0  0  0  0
M  END
>  <MODEL>
6

>  <REMARK>
 VINA RESULT:      -6.8      3.044      6.865
  Name = 
  3 active torsions:
  status: ('A' for Active; 'I' for Inactive)
    1  A    between atoms: N_15  and  C_24
    2  A    between atoms: C_16  and  O_38
    3  A    between atoms: C_29  and  C_36
                            x       y       z     vdW  Elec       q    Type
                         _______ _______ _______ _____ _____    ______ ____

>  <TORSDO>
F 3

$$$$
=
 OpenBabel11062419223D

 38 43  0  0  1  0  0  0  0  0999 V2000
  191.1910  175.9650  148.0110 C   0  0  0  0  0  2  0  0  0  0  0  0
  191.2340  171.4980  138.3290 C   0  0  0  0  0  0  0  0  0  0  0  0
  192.0580  173.0640  140.0260 O   0  0  0  0  0  0  0  0  0  0  0  0
  186.5320  176.4400  142.4340 C   0  0  0  0  0  2  0  0  0  0  0  0
  194.0670  174.7560  142.3670 C   0  0  0  0  0  2  0  0  0  0  0  0
  189.6920  174.6930  146.5620 C   0  0  2  0  0  3  0  0  0  0  0  0
  190.0190  174.8890  141.3060 S   0  0  0  0  0  0  0  0  0  0  0  0
  187.9900  176.5240  141.9800 C   0  0  0  0  0  2  0  0  0  0  0  0
  192.3570  171.8910  137.4080 C   0  0  0  0  0  2  0  0  0  0  0  0
  188.8710  175.4520  142.6080 C   0  0  2  0  0  3  0  0  0  0  0  0
  190.0430  174.9610  148.0130 C   0  0  0  0  0  2  0  0  0  0  0  0
  192.0800  175.5200  143.6230 C   0  0  0  0  0  0  0  0  0  0  0  0
  189.7270  172.4260  140.0580 C   0  0  0  0  0  2  0  0  0  0  0  0
  186.3230  176.4160  143.9520 C   0  0  0  0  0  2  0  0  0  0  0  0
  190.9860  174.9760  145.8300 C   0  0  2  0  0  3  0  0  0  0  0  0
  192.7860  174.5270  143.0880 C   0  0  0  0  0  3  0  0  0  0  0  0
  188.5550  176.2610  144.9680 C   0  0  0  0  0  0  0  0  0  0  0  0
  190.3910  170.7160  137.9160 O   0  0  0  0  0  0  0  0  0  0  0  0
  194.3780  173.7050  140.1390 C   0  0  2  0  0  3  0  0  0  0  0  0
  193.2970  172.9250  138.0150 C   0  0  0  0  0  2  0  0  0  0  0  0
  191.6310  176.1330  146.5670 C   0  0  0  0  0  2  0  0  0  0  0  0
  194.4630  173.4870  141.6420 C   0  0  0  0  0  2  0  0  0  0  0  0
  187.3960  177.1750  144.7190 C   0  0  0  0  0  2  0  0  0  0  0  0
  191.4960  170.9090  140.6150 O   0  0  0  0  0  1  0  0  0  0  0  0
  193.3410  172.7640  139.5290 C   0  0  2  0  0  3  0  0  0  0  0  0
  188.6110  175.6560  146.1620 C   0  0  0  0  0  3  0  0  0  0  0  0
  189.5770  176.0210  143.8650 C   0  0  1  0  0  3  0  0  0  0  0  0
  191.1750  171.9800  139.7750 C   0  0  1  0  0  0  0  0  0  0  0  0
  189.4570  173.1560  141.3830 C   0  0  1  0  0  3  0  0  0  0  0  0
  190.7940  175.1710  144.3180 C   0  0  1  0  0  3  0  0  0  0  0  0
  189.4030  171.1660  142.7100 O   0  0  0  0  0  0  0  0  0  0  0  0
  188.9430  172.1670  143.5810 C   0  0  0  0  0  2  0  0  0  0  0  0
  190.0180  172.4270  142.5990 C   0  0  2  0  0  3  0  0  0  0  0  0
  196.6740  174.4830  139.4040 C   0  0  0  0  0  3  0  0  0  0  0  0
  195.6880  173.4590  139.5470 N   0  0  0  0  0  2  0  0  0  0  0  0
  196.4360  175.6660  139.7650 O   0  0  0  0  0  0  0  0  0  0  0  0
  191.9280  177.7470  142.7630 O   0  0  0  0  0  1  0  0  0  0  0  0
  192.5420  176.8370  143.5300 O   0  0  0  0  0  0  0  0  0  0  0  0
  1 11  1  0  0  0  0
  2 28  1  0  0  0  0
  4 14  1  0  0  0  0
  5 16  1  0  0  0  0
  6 26  1  6  0  0  0
  6 11  1  0  0  0  0
  7 29  1  0  0  0  0
  7 10  1  0  0  0  0
  8  4  1  0  0  0  0
  9 20  1  0  0  0  0
  9  2  1  0  0  0  0
 10  8  1  6  0  0  0
 10 27  1  0  0  0  0
 14 23  1  0  0  0  0
 15  6  1  0  0  0  0
 15 21  1  1  0  0  0
 16 12  2  0  0  0  0
 17 26  2  0  0  0  0
 18  2  2  0  0  0  0
 19 35  1  6  0  0  0
 19 22  1  0  0  0  0
 21  1  1  0  0  0  0
 22  5  1  0  0  0  0
 23 17  1  0  0  0  0
 25 20  1  6  0  0  0
 25  3  1  0  0  0  0
 25 19  1  0  0  0  0
 27 30  1  0  0  0  0
 27 17  1  1  0  0  0
 28  3  1  0  0  0  0
 28 13  1  0  0  0  0
 28 24  1  1  0  0  0
 29 13  1  6  0  0  0
 29 33  1  0  0  0  0
 30 12  1  1  0  0  0
 30 15  1  0  0  0  0
 31 32  1  0  0  0  0
 33 31  1  0  0  0  0
 33 32  1  1  0  0  0
 34 35  1  0  0  0  0
 34 36  2  0  0  0  0
 37 38  1  0  0  0  0
 38 12  1  0  0  0  0
M  END
>  <MODEL>
7

>  <REMARK>
 VINA RESULT:      -6.6      2.444      5.551
  Name = 
  3 active torsions:
  status: ('A' for Active; 'I' for Inactive)
    1  A    between atoms: N_15  and  C_24
    2  A    between atoms: C_16  and  O_38
    3  A    between atoms: C_29  and  C_36
                            x       y       z     vdW  Elec       q    Type
                         _______ _______ _______ _____ _____    ______ ____

>  <TORSDO>
F 3

$$$$
=
 OpenBabel11062419223D

 38 43  0  0  1  0  0  0  0  0999 V2000
  190.0660  169.1330  137.8840 C   0  0  0  0  0  2  0  0  0  0  0  0
  190.8350  176.2570  145.7800 C   0  0  0  0  0  0  0  0  0  0  0  0
  190.1210  175.5190  143.5540 O   0  0  0  0  0  0  0  0  0  0  0  0
  195.7250  172.9290  140.4520 C   0  0  0  0  0  2  0  0  0  0  0  0
  188.1910  174.5910  140.7620 C   0  0  0  0  0  2  0  0  0  0  0  0
  191.4420  169.5560  139.8570 C   0  0  2  0  0  3  0  0  0  0  0  0
  192.2610  174.4130  141.7310 S   0  0  0  0  0  0  0  0  0  0  0  0
  194.4650  173.7870  140.3190 C   0  0  0  0  0  2  0  0  0  0  0  0
  190.0660  177.5410  145.6100 C   0  0  0  0  0  2  0  0  0  0  0  0
  193.2240  173.1120  140.8900 C   0  0  2  0  0  3  0  0  0  0  0  0
  190.8850  168.4540  138.9770 C   0  0  0  0  0  2  0  0  0  0  0  0
  190.0090  173.1570  139.8970 C   0  0  0  0  0  0  0  0  0  0  0  0
  192.1460  174.5960  144.4990 C   0  0  0  0  0  2  0  0  0  0  0  0
  195.6060  171.5050  139.9010 C   0  0  0  0  0  2  0  0  0  0  0  0
  190.4460  170.6810  139.6830 C   0  0  2  0  0  3  0  0  0  0  0  0
  189.1920  173.4970  140.8900 C   0  0  0  0  0  3  0  0  0  0  0  0
  193.2520  171.1900  139.2670 C   0  0  0  0  0  0  0  0  0  0  0  0
  191.5080  176.1130  146.7890 O   0  0  0  0  0  0  0  0  0  0  0  0
  188.0780  176.3090  142.5510 C   0  0  2  0  0  3  0  0  0  0  0  0
  189.3270  177.6260  144.2820 C   0  0  0  0  0  2  0  0  0  0  0  0
  189.9900  170.6070  138.2390 C   0  0  0  0  0  2  0  0  0  0  0  0
  187.6330  174.9170  142.1320 C   0  0  0  0  0  2  0  0  0  0  0  0
  194.6360  171.3910  138.7330 C   0  0  0  0  0  2  0  0  0  0  0  0
  189.9650  174.0890  145.3540 O   0  0  0  0  0  1  0  0  0  0  0  0
  188.9340  176.2310  143.8130 C   0  0  2  0  0  3  0  0  0  0  0  0
  192.7970  169.9320  139.3270 C   0  0  0  0  0  3  0  0  0  0  0  0
  192.4510  172.3880  139.7580 C   0  0  1  0  0  3  0  0  0  0  0  0
  190.7200  175.1150  144.7770 C   0  0  1  0  0  0  0  0  0  0  0  0
  192.3200  173.5850  143.3550 C   0  0  1  0  0  3  0  0  0  0  0  0
  190.9880  172.0430  140.1430 C   0  0  1  0  0  3  0  0  0  0  0  0
  191.5840  171.6940  144.6210 O   0  0  0  0  0  0  0  0  0  0  0  0
  192.0960  171.1330  143.4400 C   0  0  0  0  0  2  0  0  0  0  0  0
  191.3510  172.4110  143.4330 C   0  0  2  0  0  3  0  0  0  0  0  0
  186.2680  177.8990  141.7670 C   0  0  0  0  0  3  0  0  0  0  0  0
  186.8990  177.1330  142.7940 N   0  0  0  0  0  2  0  0  0  0  0  0
  186.7300  177.9160  140.5960 O   0  0  0  0  0  0  0  0  0  0  0  0
  188.9160  173.6390  137.8240 O   0  0  0  0  0  1  0  0  0  0  0  0
  189.9370  173.8260  138.6700 O   0  0  0  0  0  0  0  0  0  0  0  0
  1 21  1  0  0  0  0
  1 11  1  0  0  0  0
  2 18  2  0  0  0  0
  3 25  1  0  0  0  0
  3 28  1  0  0  0  0
  5 16  1  0  0  0  0
  5 22  1  0  0  0  0
  6 11  1  6  0  0  0
  7 29  1  0  0  0  0
  8  4  1  0  0  0  0
  9  2  1  0  0  0  0
 10  8  1  6  0  0  0
 10  7  1  0  0  0  0
 12 16  2  0  0  0  0
 13 28  1  0  0  0  0
 14  4  1  0  0  0  0
 15 21  1  6  0  0  0
 15  6  1  0  0  0  0
 15 30  1  0  0  0  0
 17 26  2  0  0  0  0
 19 35  1  1  0  0  0
 19 25  1  0  0  0  0
 20  9  1  0  0  0  0
 22 19  1  0  0  0  0
 23 17  1  0  0  0  0
 23 14  1  0  0  0  0
 25 20  1  6  0  0  0
 26  6  1  0  0  0  0
 27 17  1  1  0  0  0
 27 30  1  0  0  0  0
 27 10  1  0  0  0  0
 28 24  1  1  0  0  0
 28  2  1  0  0  0  0
 29 33  1  0  0  0  0
 29 13  1  1  0  0  0
 30 12  1  6  0  0  0
 32 31  1  0  0  0  0
 33 32  1  6  0  0  0
 33 31  1  0  0  0  0
 34 35  1  0  0  0  0
 36 34  2  0  0  0  0
 37 38  1  0  0  0  0
 38 12  1  0  0  0  0
M  END
>  <MODEL>
8

>  <REMARK>
 VINA RESULT:      -6.4      3.111      7.320
  Name = 
  3 active torsions:
  status: ('A' for Active; 'I' for Inactive)
    1  A    between atoms: N_15  and  C_24
    2  A    between atoms: C_16  and  O_38
    3  A    between atoms: C_29  and  C_36
                            x       y       z     vdW  Elec       q    Type
                         _______ _______ _______ _____ _____    ______ ____

>  <TORSDO>
F 3

$$$$
=
 OpenBabel11062419223D

 38 43  0  0  1  0  0  0  0  0999 V2000
  189.6910  169.8200  137.8770 C   0  0  0  0  0  2  0  0  0  0  0  0
  194.2660  175.2790  145.8120 C   0  0  0  0  0  0  0  0  0  0  0  0
  192.4380  174.7940  144.2530 O   0  0  0  0  0  0  0  0  0  0  0  0
  195.2500  174.5240  137.9480 C   0  0  0  0  0  2  0  0  0  0  0  0
  189.3320  173.8890  142.8670 C   0  0  0  0  0  2  0  0  0  0  0  0
  191.9230  170.2440  138.7750 C   0  0  2  0  0  3  0  0  0  0  0  0
  193.1360  174.6990  141.3160 S   0  0  0  0  0  0  0  0  0  0  0  0
  194.0800  174.9970  138.8120 C   0  0  0  0  0  2  0  0  0  0  0  0
  193.4100  176.3000  146.5130 C   0  0  0  0  0  2  0  0  0  0  0  0
  193.5330  173.9050  139.7220 C   0  0  2  0  0  3  0  0  0  0  0  0
  191.0790  169.2120  138.0520 C   0  0  0  0  0  2  0  0  0  0  0  0
  190.4000  173.2170  140.7420 C   0  0  0  0  0  0  0  0  0  0  0  0
  194.7090  174.3260  143.5720 C   0  0  0  0  0  2  0  0  0  0  0  0
  194.9880  173.2530  137.1350 C   0  0  0  0  0  2  0  0  0  0  0  0
  190.9030  171.0520  139.5480 C   0  0  2  0  0  3  0  0  0  0  0  0
  190.3240  173.1210  142.0660 C   0  0  0  0  0  3  0  0  0  0  0  0
  192.7920  172.4050  137.8430 C   0  0  0  0  0  0  0  0  0  0  0  0
  195.4260  175.1480  146.1730 O   0  0  0  0  0  0  0  0  0  0  0  0
  190.1310  175.1430  144.8560 C   0  0  2  0  0  3  0  0  0  0  0  0
  192.0100  176.4160  145.9220 C   0  0  0  0  0  2  0  0  0  0  0  0
  189.6750  171.1200  138.6620 C   0  0  0  0  0  2  0  0  0  0  0  0
  189.6900  173.7840  144.3350 C   0  0  0  0  0  2  0  0  0  0  0  0
  193.5290  173.0860  136.7330 C   0  0  0  0  0  2  0  0  0  0  0  0
  193.5790  173.0710  145.2720 O   0  0  0  0  0  1  0  0  0  0  0  0
  191.5800  175.0780  145.3340 C   0  0  2  0  0  3  0  0  0  0  0  0
  192.6180  171.0800  137.7390 C   0  0  0  0  0  3  0  0  0  0  0  0
  192.3220  173.2130  139.0440 C   0  0  1  0  0  3  0  0  0  0  0  0
  193.7000  174.3580  144.7370 C   0  0  1  0  0  0  0  0  0  0  0  0
  194.2680  173.6360  142.2720 C   0  0  1  0  0  3  0  0  0  0  0  0
  191.4490  172.4020  140.0380 C   0  0  1  0  0  3  0  0  0  0  0  0
  194.6860  171.4120  143.0460 O   0  0  0  0  0  0  0  0  0  0  0  0
  194.4270  171.2510  141.6750 C   0  0  0  0  0  2  0  0  0  0  0  0
  193.6930  172.2420  142.4920 C   0  0  2  0  0  3  0  0  0  0  0  0
  188.1410  176.4110  145.7790 C   0  0  0  0  0  3  0  0  0  0  0  0
  189.2580  175.5370  145.9560 N   0  0  0  0  0  2  0  0  0  0  0  0
  187.8790  176.9060  144.6510 O   0  0  0  0  0  0  0  0  0  0  0  0
  188.2450  173.7050  139.8260 O   0  0  0  0  0  1  0  0  0  0  0  0
  189.5190  174.0530  140.0480 O   0  0  0  0  0  0  0  0  0  0  0  0
  1 11  1  0  0  0  0
  1 21  1  0  0  0  0
  2 18  2  0  0  0  0
  2  9  1  0  0  0  0
  3 28  1  0  0  0  0
  3 25  1  0  0  0  0
  4  8  1  0  0  0  0
  5 22  1  0  0  0  0
  6 26  1  6  0  0  0
  6 15  1  0  0  0  0
  7 29  1  0  0  0  0
 10  8  1  6  0  0  0
 10  7  1  0  0  0  0
 11  6  1  0  0  0  0
 12 16  2  0  0  0  0
 13 28  1  0  0  0  0
 14  4  1  0  0  0  0
 15 21  1  6  0  0  0
 15 30  1  0  0  0  0
 16  5  1  0  0  0  0
 19 25  1  0  0  0  0
 19 35  1  1  0  0  0
 20  9  1  0  0  0  0
 22 19  1  0  0  0  0
 23 14  1  0  0  0  0
 23 17  1  0  0  0  0
 25 20  1  6  0  0  0
 26 17  2  0  0  0  0
 27 17  1  6  0  0  0
 27 10  1  0  0  0  0
 27 30  1  0  0  0  0
 28 24  1  1  0  0  0
 28  2  1  0  0  0  0
 29 33  1  0  0  0  0
 29 13  1  1  0  0  0
 30 12  1  6  0  0  0
 32 31  1  0  0  0  0
 33 32  1  6  0  0  0
 33 31  1  0  0  0  0
 34 35  1  0  0  0  0
 36 34  2  0  0  0  0
 37 38  1  0  0  0  0
 38 12  1  0  0  0  0
M  END
>  <MODEL>
9

>  <REMARK>
 VINA RESULT:      -6.3      2.975      6.812
  Name = 
  3 active torsions:
  status: ('A' for Active; 'I' for Inactive)
    1  A    between atoms: N_15  and  C_24
    2  A    between atoms: C_16  and  O_38
    3  A    between atoms: C_29  and  C_36
                            x       y       z     vdW  Elec       q    Type
                         _______ _______ _______ _____ _____    ______ ____

>  <TORSDO>
F 3

$$$$
