=
 OpenBabel11062423103D

 28 31  0  0  1  0  0  0  0  0999 V2000
  184.7850  178.2170  146.1370 C   0  0  0  0  0  3  0  0  0  0  0  0
  187.2600  176.8030  141.6960 C   0  0  0  0  0  0  0  0  0  0  0  0
  184.0330  178.5660  145.0060 C   0  0  0  0  0  3  0  0  0  0  0  0
  185.7820  177.6200  143.5990 C   0  0  0  0  0  0  0  0  0  0  0  0
  185.2370  177.8220  140.0460 N   0  0  0  0  0  0  0  0  0  0  0  0
  183.8520  178.5800  142.2540 S   0  0  0  0  0  0  0  0  0  0  0  0
  187.3650  176.7350  140.2980 C   0  0  0  0  0  3  0  0  0  0  0  0
  186.0390  177.5830  146.0090 C   0  0  0  0  0  0  0  0  0  0  0  0
  186.1150  177.4050  142.2500 C   0  0  0  0  0  0  0  0  0  0  0  0
  184.5520  178.2590  143.7530 C   0  0  0  0  0  0  0  0  0  0  0  0
  185.1300  177.8960  141.3950 C   0  0  0  0  0  0  0  0  0  0  0  0
  186.3400  177.2490  139.4870 C   0  0  0  0  0  3  0  0  0  0  0  0
  186.5310  177.2760  144.7260 C   0  0  0  0  0  3  0  0  0  0  0  0
  188.2630  174.9870  142.9490 O   0  0  0  0  0  0  0  0  0  0  0  0
  190.4980  175.7800  143.0380 C   0  0  0  0  0  2  0  0  0  0  0  0
  189.6030  174.5590  142.9010 C   0  0  1  0  0  3  0  0  0  0  0  0
  188.3150  176.2650  142.4960 N   0  0  0  0  0  0  0  0  0  0  0  0
  189.6130  176.8940  142.5690 C   0  0  1  0  0  3  0  0  0  0  0  0
  189.5910  177.9130  143.5220 O   0  0  0  0  0  1  0  0  0  0  0  0
  189.8750  173.5910  144.0320 C   0  0  0  0  0  1  0  0  0  0  0  0
  186.8260  177.1900  147.2020 C   0  0  0  0  0  0  0  0  0  0  0  0
  186.2150  176.8760  148.2580 O   0  0  0  0  0  0  0  0  0  0  0  0
  188.2280  177.1640  147.2220 O   0  0  0  0  0  0  0  0  0  0  0  0
  189.0230  176.1300  146.6400 C   0  0  2  0  0  3  0  0  0  0  0  0
  188.8780  174.8140  147.3990 C   0  0  0  0  0  1  0  0  0  0  0  0
  190.3710  176.5200  146.4970 O   0  0  0  0  0  0  0  0  0  0  0  0
  191.1570  175.7640  147.3810 C   0  0  0  0  0  2  0  0  0  0  0  0
  192.4950  175.4670  146.7400 C   0  0  0  0  0  1  0  0  0  0  0  0
  2  9  1  0  0  0  0
  2 17  1  0  0  0  0
  3  1  2  0  0  0  0
  4 10  2  0  0  0  0
  4 13  1  0  0  0  0
  5 11  1  0  0  0  0
  6 10  1  0  0  0  0
  7  2  2  0  0  0  0
  8  1  1  0  0  0  0
  8 21  1  0  0  0  0
  9  4  1  0  0  0  0
 10  3  1  0  0  0  0
 11  9  2  0  0  0  0
 11  6  1  0  0  0  0
 12  5  2  0  0  0  0
 12  7  1  0  0  0  0
 13  8  2  0  0  0  0
 16 14  1  0  0  0  0
 16 15  1  0  0  0  0
 16 20  1  1  0  0  0
 17 18  1  0  0  0  0
 17 14  1  0  0  0  0
 18 15  1  0  0  0  0
 18 19  1  1  0  0  0
 21 23  1  0  0  0  0
 21 22  2  0  0  0  0
 24 23  1  0  0  0  0
 24 25  1  1  0  0  0
 26 24  1  0  0  0  0
 26 27  1  0  0  0  0
 28 27  1  0  0  0  0
M  END
>  <MODEL>
1

>  <REMARK>
 VINA RESULT:      -7.1      0.000      0.000
  Name = 
  6 active torsions:
  status: ('A' for Active; 'I' for Inactive)
    1  A    between atoms: C_2  and  N_16
    2  A    between atoms: C_9  and  O_15
    3  A    between atoms: C_9  and  O_18
    4  A    between atoms: C_11  and  C_12
    5  A    between atoms: C_12  and  O_15
    6  A    between atoms: O_18  and  C_27
                            x       y       z     vdW  Elec       q    Type
                         _______ _______ _______ _____ _____    ______ ____

>  <TORSDO>
F 6

$$$$
=
 OpenBabel11062423103D

 28 31  0  0  1  0  0  0  0  0999 V2000
  186.7450  176.7800  147.1380 C   0  0  0  0  0  3  0  0  0  0  0  0
  187.1840  177.0120  141.8840 C   0  0  0  0  0  0  0  0  0  0  0  0
  185.6550  177.4540  146.5690 C   0  0  0  0  0  3  0  0  0  0  0  0
  186.6320  177.0960  144.3670 C   0  0  0  0  0  0  0  0  0  0  0  0
  184.7920  178.4410  141.5810 N   0  0  0  0  0  0  0  0  0  0  0  0
  184.4370  178.3720  144.2700 S   0  0  0  0  0  0  0  0  0  0  0  0
  186.7380  177.4150  140.6160 C   0  0  0  0  0  3  0  0  0  0  0  0
  187.7870  176.2730  146.3330 C   0  0  0  0  0  0  0  0  0  0  0  0
  186.4010  177.3530  143.0050 C   0  0  0  0  0  0  0  0  0  0  0  0
  185.6230  177.6000  145.1870 C   0  0  0  0  0  0  0  0  0  0  0  0
  185.2170  178.0600  142.8100 C   0  0  0  0  0  0  0  0  0  0  0  0
  185.5360  178.1290  140.4820 C   0  0  0  0  0  3  0  0  0  0  0  0
  187.7180  176.4270  144.9350 C   0  0  0  0  0  3  0  0  0  0  0  0
  189.5590  176.8980  142.3520 O   0  0  0  0  0  0  0  0  0  0  0  0
  189.7660  174.5570  142.6780 C   0  0  0  0  0  2  0  0  0  0  0  0
  190.2270  175.9340  143.1290 C   0  0  1  0  0  3  0  0  0  0  0  0
  188.4070  176.2810  141.9890 N   0  0  0  0  0  0  0  0  0  0  0  0
  188.4270  174.8390  142.0690 C   0  0  1  0  0  3  0  0  0  0  0  0
  188.3680  174.2950  140.7860 O   0  0  0  0  0  1  0  0  0  0  0  0
  191.7230  176.0650  142.9380 C   0  0  0  0  0  1  0  0  0  0  0  0
  188.9280  175.5390  146.9280 C   0  0  0  0  0  0  0  0  0  0  0  0
  188.6950  174.5270  147.6410 O   0  0  0  0  0  0  0  0  0  0  0  0
  190.2650  175.9230  146.7500 O   0  0  0  0  0  0  0  0  0  0  0  0
  191.2900  175.7550  147.7310 C   0  0  2  0  0  3  0  0  0  0  0  0
  191.5390  177.0420  148.5120 C   0  0  0  0  0  1  0  0  0  0  0  0
  192.4740  175.2320  147.1700 O   0  0  0  0  0  0  0  0  0  0  0  0
  193.1340  176.2540  146.4700 C   0  0  0  0  0  2  0  0  0  0  0  0
  194.5610  175.8360  146.1910 C   0  0  0  0  0  1  0  0  0  0  0  0
  2 17  1  0  0  0  0
  2  9  1  0  0  0  0
  3  1  1  0  0  0  0
  4 13  2  0  0  0  0
  4 10  1  0  0  0  0
  5 11  1  0  0  0  0
  6 10  1  0  0  0  0
  7  2  2  0  0  0  0
  8 21  1  0  0  0  0
  8  1  2  0  0  0  0
  9  4  1  0  0  0  0
 10  3  2  0  0  0  0
 11  9  2  0  0  0  0
 11  6  1  0  0  0  0
 12  7  1  0  0  0  0
 12  5  2  0  0  0  0
 13  8  1  0  0  0  0
 14 16  1  0  0  0  0
 15 16  1  0  0  0  0
 16 20  1  6  0  0  0
 17 18  1  0  0  0  0
 17 14  1  0  0  0  0
 18 19  1  6  0  0  0
 18 15  1  0  0  0  0
 21 22  2  0  0  0  0
 23 21  1  0  0  0  0
 23 24  1  0  0  0  0
 24 25  1  6  0  0  0
 26 24  1  0  0  0  0
 27 26  1  0  0  0  0
 28 27  1  0  0  0  0
M  END
>  <MODEL>
2

>  <REMARK>
 VINA RESULT:      -7.1      1.374      2.309
  Name = 
  6 active torsions:
  status: ('A' for Active; 'I' for Inactive)
    1  A    between atoms: C_2  and  N_16
    2  A    between atoms: C_9  and  O_15
    3  A    between atoms: C_9  and  O_18
    4  A    between atoms: C_11  and  C_12
    5  A    between atoms: C_12  and  O_15
    6  A    between atoms: O_18  and  C_27
                            x       y       z     vdW  Elec       q    Type
                         _______ _______ _______ _____ _____    ______ ____

>  <TORSDO>
F 6

$$$$
=
 OpenBabel11062423103D

 28 31  0  0  1  0  0  0  0  0999 V2000
  187.0880  177.0290  147.7760 C   0  0  0  0  0  3  0  0  0  0  0  0
  185.9620  177.0460  142.6200 C   0  0  0  0  0  0  0  0  0  0  0  0
  185.9330  177.7800  147.5140 C   0  0  0  0  0  3  0  0  0  0  0  0
  186.1810  177.2610  145.1470 C   0  0  0  0  0  0  0  0  0  0  0  0
  183.7070  178.6770  142.9480 N   0  0  0  0  0  0  0  0  0  0  0  0
  184.1630  178.7290  145.6230 S   0  0  0  0  0  0  0  0  0  0  0  0
  185.1920  177.4450  141.5170 C   0  0  0  0  0  3  0  0  0  0  0  0
  187.8010  176.4020  146.7320 C   0  0  0  0  0  0  0  0  0  0  0  0
  185.5770  177.4930  143.8990 C   0  0  0  0  0  0  0  0  0  0  0  0
  185.5040  177.8820  146.1950 C   0  0  0  0  0  0  0  0  0  0  0  0
  184.4470  178.2990  144.0190 C   0  0  0  0  0  0  0  0  0  0  0  0
  184.0640  178.2610  141.7010 C   0  0  0  0  0  3  0  0  0  0  0  0
  187.3320  176.5160  145.4100 C   0  0  0  0  0  3  0  0  0  0  0  0
  187.0240  174.8680  142.5900 O   0  0  0  0  0  0  0  0  0  0  0  0
  188.9060  175.3860  141.2420 C   0  0  0  0  0  2  0  0  0  0  0  0
  187.8560  174.3410  141.5850 C   0  0  1  0  0  3  0  0  0  0  0  0
  187.1010  176.2090  142.4050 N   0  0  0  0  0  0  0  0  0  0  0  0
  188.2510  176.6660  141.6590 C   0  0  1  0  0  3  0  0  0  0  0  0
  189.1030  177.3820  142.4990 O   0  0  0  0  0  1  0  0  0  0  0  0
  188.5280  173.0790  142.0820 C   0  0  0  0  0  1  0  0  0  0  0  0
  189.0070  175.5860  147.0090 C   0  0  0  0  0  0  0  0  0  0  0  0
  188.8660  174.4520  147.5390 O   0  0  0  0  0  0  0  0  0  0  0  0
  190.3090  176.0210  146.7220 O   0  0  0  0  0  0  0  0  0  0  0  0
  190.8320  176.1830  145.4020 C   0  0  2  0  0  3  0  0  0  0  0  0
  190.6510  174.9200  144.5650 C   0  0  0  0  0  1  0  0  0  0  0  0
  192.1710  176.6280  145.4180 O   0  0  0  0  0  0  0  0  0  0  0  0
  192.7420  176.3020  146.6580 C   0  0  0  0  0  2  0  0  0  0  0  0
  194.2290  176.0860  146.4890 C   0  0  0  0  0  1  0  0  0  0  0  0
  2  9  1  0  0  0  0
  3  1  1  0  0  0  0
  4 13  2  0  0  0  0
  4 10  1  0  0  0  0
  5 11  1  0  0  0  0
  6 10  1  0  0  0  0
  7 12  1  0  0  0  0
  7  2  2  0  0  0  0
  8 21  1  0  0  0  0
  8  1  2  0  0  0  0
  9 11  2  0  0  0  0
  9  4  1  0  0  0  0
 10  3  2  0  0  0  0
 11  6  1  0  0  0  0
 12  5  2  0  0  0  0
 13  8  1  0  0  0  0
 15 16  1  0  0  0  0
 15 18  1  0  0  0  0
 16 20  1  1  0  0  0
 16 14  1  0  0  0  0
 17 14  1  0  0  0  0
 17  2  1  0  0  0  0
 18 17  1  0  0  0  0
 18 19  1  1  0  0  0
 21 22  2  0  0  0  0
 23 21  1  0  0  0  0
 24 25  1  1  0  0  0
 24 26  1  0  0  0  0
 24 23  1  0  0  0  0
 26 27  1  0  0  0  0
 28 27  1  0  0  0  0
M  END
>  <MODEL>
3

>  <REMARK>
 VINA RESULT:      -7.1      1.667      2.451
  Name = 
  6 active torsions:
  status: ('A' for Active; 'I' for Inactive)
    1  A    between atoms: C_2  and  N_16
    2  A    between atoms: C_9  and  O_15
    3  A    between atoms: C_9  and  O_18
    4  A    between atoms: C_11  and  C_12
    5  A    between atoms: C_12  and  O_15
    6  A    between atoms: O_18  and  C_27
                            x       y       z     vdW  Elec       q    Type
                         _______ _______ _______ _____ _____    ______ ____

>  <TORSDO>
F 6

$$$$
=
 OpenBabel11062423103D

 28 31  0  0  1  0  0  0  0  0999 V2000
  187.5160  175.3380  142.3700 C   0  0  0  0  0  3  0  0  0  0  0  0
  191.9120  173.5500  144.6790 C   0  0  0  0  0  0  0  0  0  0  0  0
  187.8260  174.0420  141.9320 C   0  0  0  0  0  3  0  0  0  0  0  0
  189.7830  174.0620  143.3830 C   0  0  0  0  0  0  0  0  0  0  0  0
  191.8310  171.1020  143.3180 N   0  0  0  0  0  0  0  0  0  0  0  0
  189.5500  171.8930  142.0790 S   0  0  0  0  0  0  0  0  0  0  0  0
  192.9080  172.5810  144.8750 C   0  0  0  0  0  3  0  0  0  0  0  0
  188.3380  176.0060  143.3010 C   0  0  0  0  0  0  0  0  0  0  0  0
  190.8730  173.2650  143.7730 C   0  0  0  0  0  0  0  0  0  0  0  0
  188.9620  173.4290  142.4500 C   0  0  0  0  0  0  0  0  0  0  0  0
  190.8670  172.0340  143.1200 C   0  0  0  0  0  0  0  0  0  0  0  0
  192.8500  171.3590  144.1860 C   0  0  0  0  0  3  0  0  0  0  0  0
  189.4740  175.3530  143.8150 C   0  0  0  0  0  3  0  0  0  0  0  0
  191.2670  174.9770  146.5290 O   0  0  0  0  0  0  0  0  0  0  0  0
  193.0570  176.5330  146.4460 C   0  0  0  0  0  2  0  0  0  0  0  0
  192.1160  175.7470  147.3450 C   0  0  1  0  0  3  0  0  0  0  0  0
  191.9930  174.7820  145.3990 N   0  0  0  0  0  0  0  0  0  0  0  0
  193.0730  175.7180  145.1890 C   0  0  1  0  0  3  0  0  0  0  0  0
  192.7850  176.5320  144.0940 O   0  0  0  0  0  1  0  0  0  0  0  0
  191.2950  176.6980  148.1900 C   0  0  0  0  0  1  0  0  0  0  0  0
  188.0000  177.3660  143.7860 C   0  0  0  0  0  0  0  0  0  0  0  0
  188.4710  177.7540  144.8880 O   0  0  0  0  0  0  0  0  0  0  0  0
  187.1640  178.2450  143.0830 O   0  0  0  0  0  0  0  0  0  0  0  0
  185.7920  178.4810  143.4030 C   0  0  2  0  0  3  0  0  0  0  0  0
  185.6010  179.8160  144.1170 C   0  0  0  0  0  1  0  0  0  0  0  0
  185.2260  177.4050  144.1190 O   0  0  0  0  0  0  0  0  0  0  0  0
  184.8000  177.8710  145.3730 C   0  0  0  0  0  2  0  0  0  0  0  0
  185.2780  176.9240  146.4520 C   0  0  0  0  0  1  0  0  0  0  0  0
  1  8  1  0  0  0  0
  2  7  1  0  0  0  0
  2 17  1  0  0  0  0
  3  1  2  0  0  0  0
  3 10  1  0  0  0  0
  4  9  1  0  0  0  0
  4 13  1  0  0  0  0
  5 12  1  0  0  0  0
  6 10  1  0  0  0  0
  6 11  1  0  0  0  0
  8 21  1  0  0  0  0
  8 13  2  0  0  0  0
  9  2  2  0  0  0  0
 10  4  2  0  0  0  0
 11  5  2  0  0  0  0
 11  9  1  0  0  0  0
 12  7  2  0  0  0  0
 14 16  1  0  0  0  0
 15 16  1  0  0  0  0
 16 20  1  6  0  0  0
 17 14  1  0  0  0  0
 18 19  1  6  0  0  0
 18 17  1  0  0  0  0
 18 15  1  0  0  0  0
 21 22  2  0  0  0  0
 23 24  1  0  0  0  0
 23 21  1  0  0  0  0
 24 25  1  1  0  0  0
 24 26  1  0  0  0  0
 26 27  1  0  0  0  0
 27 28  1  0  0  0  0
M  END
>  <MODEL>
4

>  <REMARK>
 VINA RESULT:      -6.4      3.232      6.229
  Name = 
  6 active torsions:
  status: ('A' for Active; 'I' for Inactive)
    1  A    between atoms: C_2  and  N_16
    2  A    between atoms: C_9  and  O_15
    3  A    between atoms: C_9  and  O_18
    4  A    between atoms: C_11  and  C_12
    5  A    between atoms: C_12  and  O_15
    6  A    between atoms: O_18  and  C_27
                            x       y       z     vdW  Elec       q    Type
                         _______ _______ _______ _____ _____    ______ ____

>  <TORSDO>
F 6

$$$$
=
 OpenBabel11062423103D

 28 31  0  0  1  0  0  0  0  0999 V2000
  187.8430  175.7120  141.4820 C   0  0  0  0  0  3  0  0  0  0  0  0
  187.7560  177.2800  146.5210 C   0  0  0  0  0  0  0  0  0  0  0  0
  186.6870  176.4570  141.7600 C   0  0  0  0  0  3  0  0  0  0  0  0
  187.4530  176.7150  144.0580 C   0  0  0  0  0  0  0  0  0  0  0  0
  185.2850  178.5730  146.2510 N   0  0  0  0  0  0  0  0  0  0  0  0
  185.2190  177.8480  143.6360 S   0  0  0  0  0  0  0  0  0  0  0  0
  187.1530  177.9210  147.6140 C   0  0  0  0  0  3  0  0  0  0  0  0
  188.8000  175.4540  142.4860 C   0  0  0  0  0  0  0  0  0  0  0  0
  187.0840  177.2950  145.2840 C   0  0  0  0  0  0  0  0  0  0  0  0
  186.5160  176.9430  143.0520 C   0  0  0  0  0  0  0  0  0  0  0  0
  185.8590  177.9530  145.1910 C   0  0  0  0  0  0  0  0  0  0  0  0
  185.9150  178.5660  147.4590 C   0  0  0  0  0  3  0  0  0  0  0  0
  188.6020  175.9710  143.7810 C   0  0  0  0  0  3  0  0  0  0  0  0
  190.1730  177.3520  146.6850 O   0  0  0  0  0  0  0  0  0  0  0  0
  190.5410  175.2650  147.7510 C   0  0  0  0  0  2  0  0  0  0  0  0
  190.9800  176.7170  147.6470 C   0  0  1  0  0  3  0  0  0  0  0  0
  189.0200  176.6380  146.7060 N   0  0  0  0  0  0  0  0  0  0  0  0
  189.1250  175.3100  147.2630 C   0  0  1  0  0  3  0  0  0  0  0  0
  188.9410  174.3600  146.2590 O   0  0  0  0  0  1  0  0  0  0  0  0
  192.4330  176.7870  147.2290 C   0  0  0  0  0  1  0  0  0  0  0  0
  190.0350  174.6890  142.1900 C   0  0  0  0  0  0  0  0  0  0  0  0
  190.1680  174.1650  141.0530 O   0  0  0  0  0  0  0  0  0  0  0  0
  191.0650  174.5040  143.1240 O   0  0  0  0  0  0  0  0  0  0  0  0
  192.3720  175.0670  143.0040 C   0  0  2  0  0  3  0  0  0  0  0  0
  193.1820  174.8880  144.2850 C   0  0  0  0  0  1  0  0  0  0  0  0
  192.3280  176.4130  142.5830 O   0  0  0  0  0  0  0  0  0  0  0  0
  192.2620  177.2400  143.7160 C   0  0  0  0  0  2  0  0  0  0  0  0
  191.1920  178.2900  143.5130 C   0  0  0  0  0  1  0  0  0  0  0  0
  1  3  2  0  0  0  0
  1  8  1  0  0  0  0
  2 17  1  0  0  0  0
  2  7  1  0  0  0  0
  3 10  1  0  0  0  0
  4  9  1  0  0  0  0
  5 12  1  0  0  0  0
  6 11  1  0  0  0  0
  8 13  2  0  0  0  0
  9  2  2  0  0  0  0
 10  6  1  0  0  0  0
 10  4  2  0  0  0  0
 11  9  1  0  0  0  0
 11  5  2  0  0  0  0
 12  7  2  0  0  0  0
 13  4  1  0  0  0  0
 14 17  1  0  0  0  0
 14 16  1  0  0  0  0
 16 20  1  6  0  0  0
 16 15  1  0  0  0  0
 17 18  1  0  0  0  0
 18 19  1  6  0  0  0
 18 15  1  0  0  0  0
 21  8  1  0  0  0  0
 21 23  1  0  0  0  0
 22 21  2  0  0  0  0
 24 23  1  0  0  0  0
 24 25  1  1  0  0  0
 26 24  1  0  0  0  0
 26 27  1  0  0  0  0
 28 27  1  0  0  0  0
M  END
>  <MODEL>
5

>  <REMARK>
 VINA RESULT:      -6.4      2.277      5.131
  Name = 
  6 active torsions:
  status: ('A' for Active; 'I' for Inactive)
    1  A    between atoms: C_2  and  N_16
    2  A    between atoms: C_9  and  O_15
    3  A    between atoms: C_9  and  O_18
    4  A    between atoms: C_11  and  C_12
    5  A    between atoms: C_12  and  O_15
    6  A    between atoms: O_18  and  C_27
                            x       y       z     vdW  Elec       q    Type
                         _______ _______ _______ _____ _____    ______ ____

>  <TORSDO>
F 6

$$$$
=
 OpenBabel11062423103D

 28 31  0  0  1  0  0  0  0  0999 V2000
  187.8430  176.0360  141.2720 C   0  0  0  0  0  3  0  0  0  0  0  0
  188.0080  177.3000  146.3930 C   0  0  0  0  0  0  0  0  0  0  0  0
  186.7380  176.8200  141.6350 C   0  0  0  0  0  3  0  0  0  0  0  0
  187.5930  176.9000  143.9140 C   0  0  0  0  0  0  0  0  0  0  0  0
  185.6000  178.7290  146.2890 N   0  0  0  0  0  0  0  0  0  0  0  0
  185.4080  178.1680  143.6400 S   0  0  0  0  0  0  0  0  0  0  0  0
  187.4760  177.9030  147.5430 C   0  0  0  0  0  3  0  0  0  0  0  0
  188.8190  175.6700  142.2230 C   0  0  0  0  0  0  0  0  0  0  0  0
  187.2960  177.4230  145.1840 C   0  0  0  0  0  0  0  0  0  0  0  0
  186.6360  177.2350  142.9570 C   0  0  0  0  0  0  0  0  0  0  0  0
  186.1050  178.1460  145.1750 C   0  0  0  0  0  0  0  0  0  0  0  0
  186.2680  178.6180  147.4710 C   0  0  0  0  0  3  0  0  0  0  0  0
  188.6910  176.1180  143.5520 C   0  0  0  0  0  3  0  0  0  0  0  0
  190.4150  177.1690  146.1430 O   0  0  0  0  0  0  0  0  0  0  0  0
  190.8360  175.2910  147.5300 C   0  0  0  0  0  2  0  0  0  0  0  0
  191.3390  176.6490  147.0670 C   0  0  1  0  0  3  0  0  0  0  0  0
  189.2420  176.5850  146.4930 N   0  0  0  0  0  0  0  0  0  0  0  0
  189.3620  175.3800  147.2810 C   0  0  1  0  0  3  0  0  0  0  0  0
  188.9420  174.2820  146.5300 O   0  0  0  0  0  1  0  0  0  0  0  0
  192.6960  176.5000  146.4120 C   0  0  0  0  0  1  0  0  0  0  0  0
  190.0010  174.8630  141.8380 C   0  0  0  0  0  0  0  0  0  0  0  0
  191.0730  175.0080  142.4830 O   0  0  0  0  0  0  0  0  0  0  0  0
  189.9930  173.9500  140.7740 O   0  0  0  0  0  0  0  0  0  0  0  0
  189.2980  172.7010  140.7890 C   0  0  2  0  0  3  0  0  0  0  0  0
  188.1910  172.6590  139.7400 C   0  0  0  0  0  1  0  0  0  0  0  0
  188.8260  172.3770  142.0780 O   0  0  0  0  0  0  0  0  0  0  0  0
  189.7570  171.5300  142.7020 C   0  0  0  0  0  2  0  0  0  0  0  0
  189.9490  171.9600  144.1390 C   0  0  0  0  0  1  0  0  0  0  0  0
  1  3  2  0  0  0  0
  1  8  1  0  0  0  0
  2 17  1  0  0  0  0
  2  7  1  0  0  0  0
  3 10  1  0  0  0  0
  4  9  1  0  0  0  0
  5 12  1  0  0  0  0
  6 11  1  0  0  0  0
  8 13  2  0  0  0  0
  9  2  2  0  0  0  0
 10  6  1  0  0  0  0
 10  4  2  0  0  0  0
 11  9  1  0  0  0  0
 11  5  2  0  0  0  0
 12  7  2  0  0  0  0
 13  4  1  0  0  0  0
 14 17  1  0  0  0  0
 14 16  1  0  0  0  0
 16 20  1  6  0  0  0
 16 15  1  0  0  0  0
 17 18  1  0  0  0  0
 18 19  1  6  0  0  0
 18 15  1  0  0  0  0
 21  8  1  0  0  0  0
 21 22  2  0  0  0  0
 23 24  1  0  0  0  0
 23 21  1  0  0  0  0
 24 25  1  6  0  0  0
 24 26  1  0  0  0  0
 26 27  1  0  0  0  0
 27 28  1  0  0  0  0
M  END
>  <MODEL>
6

>  <REMARK>
 VINA RESULT:      -6.4      2.239      5.483
  Name = 
  6 active torsions:
  status: ('A' for Active; 'I' for Inactive)
    1  A    between atoms: C_2  and  N_16
    2  A    between atoms: C_9  and  O_15
    3  A    between atoms: C_9  and  O_18
    4  A    between atoms: C_11  and  C_12
    5  A    between atoms: C_12  and  O_15
    6  A    between atoms: O_18  and  C_27
                            x       y       z     vdW  Elec       q    Type
                         _______ _______ _______ _____ _____    ______ ____

>  <TORSDO>
F 6

$$$$
=
 OpenBabel11062423103D

 28 31  0  0  1  0  0  0  0  0999 V2000
  187.8170  176.0310  141.3360 C   0  0  0  0  0  3  0  0  0  0  0  0
  188.0350  177.3000  146.4540 C   0  0  0  0  0  0  0  0  0  0  0  0
  186.7220  176.8250  141.7070 C   0  0  0  0  0  3  0  0  0  0  0  0
  187.5960  176.9010  143.9800 C   0  0  0  0  0  0  0  0  0  0  0  0
  185.6390  178.7500  146.3690 N   0  0  0  0  0  0  0  0  0  0  0  0
  185.4200  178.1870  143.7230 S   0  0  0  0  0  0  0  0  0  0  0  0
  187.5180  177.9100  147.6080 C   0  0  0  0  0  3  0  0  0  0  0  0
  188.7970  175.6580  142.2800 C   0  0  0  0  0  0  0  0  0  0  0  0
  187.3140  177.4280  145.2510 C   0  0  0  0  0  0  0  0  0  0  0  0
  186.6340  177.2430  143.0310 C   0  0  0  0  0  0  0  0  0  0  0  0
  186.1290  178.1610  145.2510 C   0  0  0  0  0  0  0  0  0  0  0  0
  186.3160  178.6340  147.5450 C   0  0  0  0  0  3  0  0  0  0  0  0
  188.6840  176.1080  143.6090 C   0  0  0  0  0  3  0  0  0  0  0  0
  190.4340  177.1370  146.1540 O   0  0  0  0  0  0  0  0  0  0  0  0
  190.8680  175.2900  147.5790 C   0  0  0  0  0  2  0  0  0  0  0  0
  191.3740  176.6310  147.0700 C   0  0  1  0  0  3  0  0  0  0  0  0
  189.2640  176.5750  146.5460 N   0  0  0  0  0  0  0  0  0  0  0  0
  189.3890  175.3890  147.3610 C   0  0  1  0  0  3  0  0  0  0  0  0
  188.9410  174.2770  146.6480 O   0  0  0  0  0  1  0  0  0  0  0  0
  192.7140  176.4510  146.3890 C   0  0  0  0  0  1  0  0  0  0  0  0
  189.9690  174.8400  141.8860 C   0  0  0  0  0  0  0  0  0  0  0  0
  189.7830  173.8020  141.1970 O   0  0  0  0  0  0  0  0  0  0  0  0
  191.2840  175.1570  142.2560 O   0  0  0  0  0  0  0  0  0  0  0  0
  192.0350  174.4510  143.2460 C   0  0  2  0  0  3  0  0  0  0  0  0
  192.9040  173.3620  142.6230 C   0  0  0  0  0  1  0  0  0  0  0  0
  191.2090  173.9530  144.2760 O   0  0  0  0  0  0  0  0  0  0  0  0
  191.2810  172.5510  144.2750 C   0  0  0  0  0  2  0  0  0  0  0  0
  189.8820  171.9730  144.2670 C   0  0  0  0  0  1  0  0  0  0  0  0
  1  3  2  0  0  0  0
  1  8  1  0  0  0  0
  2 17  1  0  0  0  0
  2  7  1  0  0  0  0
  3 10  1  0  0  0  0
  4  9  1  0  0  0  0
  5 12  1  0  0  0  0
  6 11  1  0  0  0  0
  8 13  2  0  0  0  0
  9  2  2  0  0  0  0
 10  6  1  0  0  0  0
 10  4  2  0  0  0  0
 11  9  1  0  0  0  0
 11  5  2  0  0  0  0
 12  7  2  0  0  0  0
 13  4  1  0  0  0  0
 14 17  1  0  0  0  0
 14 16  1  0  0  0  0
 16 20  1  6  0  0  0
 16 15  1  0  0  0  0
 17 18  1  0  0  0  0
 18 19  1  6  0  0  0
 18 15  1  0  0  0  0
 21 23  1  0  0  0  0
 21  8  1  0  0  0  0
 22 21  2  0  0  0  0
 23 24  1  0  0  0  0
 24 25  1  6  0  0  0
 24 26  1  0  0  0  0
 27 26  1  0  0  0  0
 28 27  1  0  0  0  0
M  END
>  <MODEL>
7

>  <REMARK>
 VINA RESULT:      -6.3      2.249      5.164
  Name = 
  6 active torsions:
  status: ('A' for Active; 'I' for Inactive)
    1  A    between atoms: C_2  and  N_16
    2  A    between atoms: C_9  and  O_15
    3  A    between atoms: C_9  and  O_18
    4  A    between atoms: C_11  and  C_12
    5  A    between atoms: C_12  and  O_15
    6  A    between atoms: O_18  and  C_27
                            x       y       z     vdW  Elec       q    Type
                         _______ _______ _______ _____ _____    ______ ____

>  <TORSDO>
F 6

$$$$
=
 OpenBabel11062423103D

 28 31  0  0  1  0  0  0  0  0999 V2000
  188.1900  176.1740  141.3120 C   0  0  0  0  0  3  0  0  0  0  0  0
  186.1790  177.6310  145.9690 C   0  0  0  0  0  0  0  0  0  0  0  0
  186.9410  176.7900  141.1530 C   0  0  0  0  0  3  0  0  0  0  0  0
  186.8200  177.0830  143.5680 C   0  0  0  0  0  0  0  0  0  0  0  0
  183.8400  178.6660  144.8230 N   0  0  0  0  0  0  0  0  0  0  0  0
  184.7720  177.9880  142.3660 S   0  0  0  0  0  0  0  0  0  0  0  0
  185.1670  178.1860  146.7680 C   0  0  0  0  0  3  0  0  0  0  0  0
  188.7550  175.9980  142.5930 C   0  0  0  0  0  0  0  0  0  0  0  0
  185.9860  177.5990  144.5740 C   0  0  0  0  0  0  0  0  0  0  0  0
  186.2780  177.2320  142.2920 C   0  0  0  0  0  0  0  0  0  0  0  0
  184.8110  178.1280  144.0450 C   0  0  0  0  0  0  0  0  0  0  0  0
  184.0030  178.7020  146.1760 C   0  0  0  0  0  3  0  0  0  0  0  0
  188.0630  176.4680  143.7250 C   0  0  0  0  0  3  0  0  0  0  0  0
  187.5670  175.7840  146.7010 O   0  0  0  0  0  0  0  0  0  0  0  0
  189.6170  176.9430  146.9850 C   0  0  0  0  0  2  0  0  0  0  0  0
  188.9570  175.6480  146.5380 C   0  0  1  0  0  3  0  0  0  0  0  0
  187.3560  177.1200  146.5980 N   0  0  0  0  0  0  0  0  0  0  0  0
  188.5170  177.9480  146.8270 C   0  0  1  0  0  3  0  0  0  0  0  0
  188.3590  178.6650  148.0120 O   0  0  0  0  0  1  0  0  0  0  0  0
  189.4650  174.4950  147.3770 C   0  0  0  0  0  1  0  0  0  0  0  0
  190.0880  175.3700  142.7640 C   0  0  0  0  0  0  0  0  0  0  0  0
  190.1580  174.1200  142.9010 O   0  0  0  0  0  0  0  0  0  0  0  0
  191.2820  176.1030  142.7970 O   0  0  0  0  0  0  0  0  0  0  0  0
  191.7370  176.8530  143.9250 C   0  0  2  0  0  3  0  0  0  0  0  0
  191.2380  178.2940  143.8830 C   0  0  0  0  0  1  0  0  0  0  0  0
  193.1370  176.7750  144.0780 O   0  0  0  0  0  0  0  0  0  0  0  0
  193.4630  175.5340  144.6490 C   0  0  0  0  0  2  0  0  0  0  0  0
  192.9290  175.4730  146.0630 C   0  0  0  0  0  1  0  0  0  0  0  0
  1  8  1  0  0  0  0
  2 17  1  0  0  0  0
  2  7  1  0  0  0  0
  3  1  2  0  0  0  0
  3 10  1  0  0  0  0
  4 13  1  0  0  0  0
  4  9  1  0  0  0  0
  5 12  1  0  0  0  0
  6 11  1  0  0  0  0
  8 21  1  0  0  0  0
  8 13  2  0  0  0  0
  9  2  2  0  0  0  0
 10  6  1  0  0  0  0
 10  4  2  0  0  0  0
 11  9  1  0  0  0  0
 11  5  2  0  0  0  0
 12  7  2  0  0  0  0
 16 14  1  0  0  0  0
 16 15  1  0  0  0  0
 16 20  1  1  0  0  0
 17 14  1  0  0  0  0
 17 18  1  0  0  0  0
 18 15  1  0  0  0  0
 18 19  1  1  0  0  0
 21 23  1  0  0  0  0
 21 22  2  0  0  0  0
 23 24  1  0  0  0  0
 24 25  1  6  0  0  0
 24 26  1  0  0  0  0
 26 27  1  0  0  0  0
 27 28  1  0  0  0  0
M  END
>  <MODEL>
8

>  <REMARK>
 VINA RESULT:      -6.3      1.960      4.504
  Name = 
  6 active torsions:
  status: ('A' for Active; 'I' for Inactive)
    1  A    between atoms: C_2  and  N_16
    2  A    between atoms: C_9  and  O_15
    3  A    between atoms: C_9  and  O_18
    4  A    between atoms: C_11  and  C_12
    5  A    between atoms: C_12  and  O_15
    6  A    between atoms: O_18  and  C_27
                            x       y       z     vdW  Elec       q    Type
                         _______ _______ _______ _____ _____    ______ ____

>  <TORSDO>
F 6

$$$$
=
 OpenBabel11062423103D

 28 31  0  0  1  0  0  0  0  0999 V2000
  187.6020  175.0670  142.3830 C   0  0  0  0  0  3  0  0  0  0  0  0
  192.0590  173.4390  144.6920 C   0  0  0  0  0  0  0  0  0  0  0  0
  187.9280  173.7620  141.9870 C   0  0  0  0  0  3  0  0  0  0  0  0
  189.9040  173.8670  143.4080 C   0  0  0  0  0  0  0  0  0  0  0  0
  192.0030  170.9420  143.4190 N   0  0  0  0  0  0  0  0  0  0  0  0
  189.6910  171.6500  142.1850 S   0  0  0  0  0  0  0  0  0  0  0  0
  193.0750  172.4940  144.9080 C   0  0  0  0  0  3  0  0  0  0  0  0
  188.4240  175.7820  143.2790 C   0  0  0  0  0  0  0  0  0  0  0  0
  191.0130  173.1030  143.8110 C   0  0  0  0  0  0  0  0  0  0  0  0
  189.0810  173.1880  142.5100 C   0  0  0  0  0  0  0  0  0  0  0  0
  191.0200  171.8500  143.2020 C   0  0  0  0  0  0  0  0  0  0  0  0
  193.0290  171.2470  144.2630 C   0  0  0  0  0  3  0  0  0  0  0  0
  189.5780  175.1670  143.8000 C   0  0  0  0  0  3  0  0  0  0  0  0
  191.3570  174.9460  146.4550 O   0  0  0  0  0  0  0  0  0  0  0  0
  193.1730  176.4720  146.3910 C   0  0  0  0  0  2  0  0  0  0  0  0
  192.1820  175.7350  147.2770 C   0  0  1  0  0  3  0  0  0  0  0  0
  192.1280  174.6970  145.3670 N   0  0  0  0  0  0  0  0  0  0  0  0
  193.2310  175.6080  145.1680 C   0  0  1  0  0  3  0  0  0  0  0  0
  193.0040  176.3830  144.0310 O   0  0  0  0  0  1  0  0  0  0  0  0
  191.3400  176.7300  148.0480 C   0  0  0  0  0  1  0  0  0  0  0  0
  188.0690  177.1520  143.7200 C   0  0  0  0  0  0  0  0  0  0  0  0
  187.5200  177.9330  142.8980 O   0  0  0  0  0  0  0  0  0  0  0  0
  188.3290  177.6340  145.0110 O   0  0  0  0  0  0  0  0  0  0  0  0
  187.4740  177.4240  146.1370 C   0  0  2  0  0  3  0  0  0  0  0  0
  187.8360  176.1460  146.8880 C   0  0  0  0  0  1  0  0  0  0  0  0
  186.1100  177.4650  145.7760 O   0  0  0  0  0  0  0  0  0  0  0  0
  185.5690  178.6920  146.1910 C   0  0  0  0  0  2  0  0  0  0  0  0
  184.0660  178.6660  146.0200 C   0  0  0  0  0  1  0  0  0  0  0  0
  1  8  1  0  0  0  0
  2  7  1  0  0  0  0
  2 17  1  0  0  0  0
  3  1  2  0  0  0  0
  3 10  1  0  0  0  0
  4 13  1  0  0  0  0
  4  9  1  0  0  0  0
  5 12  1  0  0  0  0
  6 10  1  0  0  0  0
  6 11  1  0  0  0  0
  8 21  1  0  0  0  0
  8 13  2  0  0  0  0
  9  2  2  0  0  0  0
 10  4  2  0  0  0  0
 11  5  2  0  0  0  0
 11  9  1  0  0  0  0
 12  7  2  0  0  0  0
 14 16  1  0  0  0  0
 15 16  1  0  0  0  0
 16 20  1  6  0  0  0
 17 14  1  0  0  0  0
 18 19  1  6  0  0  0
 18 17  1  0  0  0  0
 18 15  1  0  0  0  0
 21 23  1  0  0  0  0
 22 21  2  0  0  0  0
 23 24  1  0  0  0  0
 24 25  1  6  0  0  0
 26 24  1  0  0  0  0
 26 27  1  0  0  0  0
 28 27  1  0  0  0  0
M  END
>  <MODEL>
9

>  <REMARK>
 VINA RESULT:      -6.3      3.265      6.186
  Name = 
  6 active torsions:
  status: ('A' for Active; 'I' for Inactive)
    1  A    between atoms: C_2  and  N_16
    2  A    between atoms: C_9  and  O_15
    3  A    between atoms: C_9  and  O_18
    4  A    between atoms: C_11  and  C_12
    5  A    between atoms: C_12  and  O_15
    6  A    between atoms: O_18  and  C_27
                            x       y       z     vdW  Elec       q    Type
                         _______ _______ _______ _____ _____    ______ ____

>  <TORSDO>
F 6

$$$$
