=
 OpenBabel11072408333D

 26 30  0  0  1  0  0  0  0  0999 V2000
  190.3970  175.7430  143.1920 N   0  0  0  0  0  0  0  0  0  0  0  0
  186.1040  178.8180  144.0730 C   0  0  2  0  0  3  0  0  0  0  0  0
  184.8660  177.5290  142.5540 N   0  0  0  0  0  0  0  0  0  0  0  0
  191.5550  175.1280  142.8260 C   0  0  0  0  0  0  0  0  0  0  0  0
  189.2100  175.4690  142.5830 C   0  0  0  0  0  0  0  0  0  0  0  0
  188.0210  177.1510  143.9910 N   0  0  0  0  0  2  0  0  0  0  0  0
  188.0190  176.1400  143.0090 N   0  0  0  0  0  0  0  0  0  0  0  0
  184.9310  178.6930  143.1260 C   0  0  0  0  0  3  0  0  0  0  0  0
  189.1670  174.5250  141.5470 C   0  0  0  0  0  3  0  0  0  0  0  0
  190.3430  173.8840  141.1550 C   0  0  0  0  0  3  0  0  0  0  0  0
  191.5470  174.1850  141.7950 C   0  0  0  0  0  3  0  0  0  0  0  0
  185.9430  176.7900  143.0900 C   0  0  1  0  0  3  0  0  0  0  0  0
  186.7370  176.0130  142.3920 C   0  0  0  0  0  2  0  0  0  0  0  0
  186.6570  177.4710  144.0820 N   0  0  2  0  0  0  0  0  0  0  0  0
  185.6280  179.2700  145.4630 C   0  0  1  0  0  3  0  0  0  0  0  0
  184.2090  178.8310  145.7940 C   0  0  0  0  0  2  0  0  0  0  0  0
  184.7450  177.9330  146.8930 C   0  0  2  0  0  3  0  0  0  0  0  0
  186.1610  178.3630  146.5560 C   0  0  0  0  0  2  0  0  0  0  0  0
  184.5660  176.6090  146.5360 F   0  0  0  0  0  0  0  0  0  0  0  0
  192.8410  175.4580  143.5130 C   0  0  1  0  0  3  0  0  0  0  0  0
  194.9900  176.1110  142.7840 O   0  0  0  0  0  0  0  0  0  0  0  0
  193.7890  176.1280  142.5690 C   0  0  0  0  0  3  0  0  0  0  0  0
  192.5980  176.2930  144.6070 O   0  0  0  0  0  0  0  0  0  0  0  0
  193.0250  175.5660  145.7200 C   0  0  0  0  0  3  0  0  0  0  0  0
  192.7120  176.3530  146.9770 C   0  0  0  0  0  2  0  0  0  0  0  0
  194.1210  176.3370  146.4260 C   0  0  0  0  0  2  0  0  0  0  0  0
  2  8  1  6  0  0  0
  2 14  1  0  0  0  0
  2 15  1  0  0  0  0
  3 12  1  0  0  0  0
  3  8  2  0  0  0  0
  4  1  1  0  0  0  0
  4 20  1  0  0  0  0
  5  7  1  0  0  0  0
  5  1  2  0  0  0  0
  7  6  1  0  0  0  0
  9  5  1  0  0  0  0
 10  9  2  0  0  0  0
 10 11  1  0  0  0  0
 11  4  2  0  0  0  0
 12 13  1  6  0  0  0
 12 14  1  0  0  0  0
 13  7  1  0  0  0  0
 14  6  1  6  0  0  0
 15 16  1  6  0  0  0
 15 18  1  0  0  0  0
 16 17  1  0  0  0  0
 17 19  1  6  0  0  0
 18 17  1  0  0  0  0
 20 22  1  6  0  0  0
 20 23  1  0  0  0  0
 22 21  2  0  0  0  0
 23 24  1  0  0  0  0
 24 26  1  0  0  0  0
 24 25  1  0  0  0  0
 26 25  1  0  0  0  0
M  END
>  <MODEL>
1

>  <REMARK>
 VINA RESULT:      -7.1      0.000      0.000
  Name = 
  5 active torsions:
  status: ('A' for Active; 'I' for Inactive)
    1  A    between atoms: C_2  and  O_9
    2  A    between atoms: C_3  and  C_8
    3  A    between atoms: C_6  and  C_20
    4  A    between atoms: O_9  and  C_20
    5  A    between atoms: C_10  and  C_20
                            x       y       z     vdW  Elec       q    Type
                         _______ _______ _______ _____ _____    ______ ____

>  <TORSDO>
F 5

$$$$
=
 OpenBabel11072408333D

 26 30  0  0  1  0  0  0  0  0999 V2000
  190.7580  176.3010  143.6250 N   0  0  0  0  0  0  0  0  0  0  0  0
  186.0790  178.8650  144.0550 C   0  0  2  0  0  3  0  0  0  0  0  0
  185.0800  177.2880  142.6360 N   0  0  0  0  0  0  0  0  0  0  0  0
  192.0000  175.8080  143.3600 C   0  0  0  0  0  0  0  0  0  0  0  0
  189.6430  175.8180  143.0100 C   0  0  0  0  0  0  0  0  0  0  0  0
  188.1910  177.4590  144.2020 N   0  0  0  0  0  2  0  0  0  0  0  0
  188.3600  176.3670  143.3280 N   0  0  0  0  0  0  0  0  0  0  0  0
  184.9740  178.4990  143.0890 C   0  0  0  0  0  3  0  0  0  0  0  0
  189.7660  174.7820  142.0740 C   0  0  0  0  0  3  0  0  0  0  0  0
  191.0290  174.2630  141.7850 C   0  0  0  0  0  3  0  0  0  0  0  0
  192.1550  174.7770  142.4290 C   0  0  0  0  0  3  0  0  0  0  0  0
  186.2170  176.7480  143.2770 C   0  0  1  0  0  3  0  0  0  0  0  0
  187.1330  176.0170  142.6860 C   0  0  0  0  0  2  0  0  0  0  0  0
  186.7960  177.6080  144.2170 N   0  0  2  0  0  0  0  0  0  0  0  0
  185.4880  179.3830  145.3760 C   0  0  1  0  0  3  0  0  0  0  0  0
  184.0760  178.8880  145.6500 C   0  0  0  0  0  2  0  0  0  0  0  0
  184.5850  178.0980  146.8410 C   0  0  2  0  0  3  0  0  0  0  0  0
  185.9960  178.5850  146.5630 C   0  0  0  0  0  2  0  0  0  0  0  0
  184.5000  176.7450  146.5700 F   0  0  0  0  0  0  0  0  0  0  0  0
  193.2030  176.3660  144.0500 C   0  0  1  0  0  3  0  0  0  0  0  0
  192.6900  176.2440  146.3520 O   0  0  0  0  0  0  0  0  0  0  0  0
  193.3400  175.7900  145.4240 C   0  0  0  0  0  3  0  0  0  0  0  0
  194.3530  176.0860  143.3070 O   0  0  0  0  0  0  0  0  0  0  0  0
  195.4150  176.2990  144.1880 C   0  0  0  0  0  3  0  0  0  0  0  0
  196.6090  176.8150  143.4110 C   0  0  0  0  0  2  0  0  0  0  0  0
  196.5510  175.3630  143.8320 C   0  0  0  0  0  2  0  0  0  0  0  0
  2  8  1  6  0  0  0
  2 14  1  0  0  0  0
  2 15  1  0  0  0  0
  3  8  2  0  0  0  0
  3 12  1  0  0  0  0
  4  1  1  0  0  0  0
  4 20  1  0  0  0  0
  5  7  1  0  0  0  0
  5  1  2  0  0  0  0
  7  6  1  0  0  0  0
  9  5  1  0  0  0  0
 10  9  2  0  0  0  0
 10 11  1  0  0  0  0
 11  4  2  0  0  0  0
 12 13  1  6  0  0  0
 12 14  1  0  0  0  0
 13  7  1  0  0  0  0
 14  6  1  6  0  0  0
 15 16  1  6  0  0  0
 15 18  1  0  0  0  0
 16 17  1  0  0  0  0
 17 19  1  6  0  0  0
 18 17  1  0  0  0  0
 20 22  1  1  0  0  0
 22 21  2  0  0  0  0
 23 20  1  0  0  0  0
 23 24  1  0  0  0  0
 25 26  1  0  0  0  0
 25 24  1  0  0  0  0
 26 24  1  0  0  0  0
M  END
>  <MODEL>
2

>  <REMARK>
 VINA RESULT:      -7.0      1.148      1.850
  Name = 
  5 active torsions:
  status: ('A' for Active; 'I' for Inactive)
    1  A    between atoms: C_2  and  O_9
    2  A    between atoms: C_3  and  C_8
    3  A    between atoms: C_6  and  C_20
    4  A    between atoms: O_9  and  C_20
    5  A    between atoms: C_10  and  C_20
                            x       y       z     vdW  Elec       q    Type
                         _______ _______ _______ _____ _____    ______ ____

>  <TORSDO>
F 5

$$$$
=
 OpenBabel11072408333D

 26 30  0  0  1  0  0  0  0  0999 V2000
  187.2940  177.7990  143.3710 N   0  0  0  0  0  0  0  0  0  0  0  0
  190.9450  174.5670  145.5820 C   0  0  2  0  0  3  0  0  0  0  0  0
  191.5280  173.7670  143.4560 N   0  0  0  0  0  0  0  0  0  0  0  0
  186.2150  178.4580  142.8670 C   0  0  0  0  0  0  0  0  0  0  0  0
  188.0900  177.0150  142.5920 C   0  0  0  0  0  0  0  0  0  0  0  0
  189.5070  176.3910  144.5480 N   0  0  0  0  0  2  0  0  0  0  0  0
  189.2160  176.3470  143.1700 N   0  0  0  0  0  0  0  0  0  0  0  0
  191.5490  173.4800  144.7210 C   0  0  0  0  0  3  0  0  0  0  0  0
  187.7990  176.8770  141.2280 C   0  0  0  0  0  3  0  0  0  0  0  0
  186.6970  177.5440  140.6900 C   0  0  0  0  0  3  0  0  0  0  0  0
  185.8960  178.3390  141.5120 C   0  0  0  0  0  3  0  0  0  0  0  0
  190.9580  175.0570  143.3760 C   0  0  1  0  0  3  0  0  0  0  0  0
  190.0680  175.4260  142.4850 C   0  0  0  0  0  2  0  0  0  0  0  0
  190.6850  175.6310  144.6210 N   0  0  2  0  0  0  0  0  0  0  0  0
  191.9320  174.9930  146.6810 C   0  0  1  0  0  3  0  0  0  0  0  0
  192.3370  176.4570  146.6050 C   0  0  0  0  0  2  0  0  0  0  0  0
  191.6330  176.7190  147.9230 C   0  0  2  0  0  3  0  0  0  0  0  0
  191.2200  175.2600  147.9940 C   0  0  0  0  0  2  0  0  0  0  0  0
  190.5170  177.5050  147.7030 F   0  0  0  0  0  0  0  0  0  0  0  0
  185.3590  179.3060  143.7540 C   0  0  1  0  0  3  0  0  0  0  0  0
  183.0640  178.9890  143.2980 O   0  0  0  0  0  0  0  0  0  0  0  0
  184.0260  178.6630  143.9750 C   0  0  0  0  0  3  0  0  0  0  0  0
  185.9950  179.5040  144.9830 O   0  0  0  0  0  0  0  0  0  0  0  0
  185.2320  178.7830  145.9050 C   0  0  0  0  0  3  0  0  0  0  0  0
  185.6470  179.1780  147.3080 C   0  0  0  0  0  2  0  0  0  0  0  0
  186.1460  177.8810  146.7080 C   0  0  0  0  0  2  0  0  0  0  0  0
  2  8  1  6  0  0  0
  2 15  1  0  0  0  0
  3  8  2  0  0  0  0
  4  1  1  0  0  0  0
  4 20  1  0  0  0  0
  5  7  1  0  0  0  0
  5  1  2  0  0  0  0
  7  6  1  0  0  0  0
  9  5  1  0  0  0  0
 10  9  2  0  0  0  0
 10 11  1  0  0  0  0
 11  4  2  0  0  0  0
 12 13  1  6  0  0  0
 12  3  1  0  0  0  0
 12 14  1  0  0  0  0
 13  7  1  0  0  0  0
 14  6  1  6  0  0  0
 14  2  1  0  0  0  0
 15 16  1  6  0  0  0
 15 18  1  0  0  0  0
 16 17  1  0  0  0  0
 17 19  1  6  0  0  0
 17 18  1  0  0  0  0
 20 22  1  1  0  0  0
 20 23  1  0  0  0  0
 21 22  2  0  0  0  0
 23 24  1  0  0  0  0
 24 26  1  0  0  0  0
 24 25  1  0  0  0  0
 26 25  1  0  0  0  0
M  END
>  <MODEL>
3

>  <REMARK>
 VINA RESULT:      -7.0      3.090      6.830
  Name = 
  5 active torsions:
  status: ('A' for Active; 'I' for Inactive)
    1  A    between atoms: C_2  and  O_9
    2  A    between atoms: C_3  and  C_8
    3  A    between atoms: C_6  and  C_20
    4  A    between atoms: O_9  and  C_20
    5  A    between atoms: C_10  and  C_20
                            x       y       z     vdW  Elec       q    Type
                         _______ _______ _______ _____ _____    ______ ____

>  <TORSDO>
F 5

$$$$
=
 OpenBabel11072408333D

 26 30  0  0  1  0  0  0  0  0999 V2000
  190.9340  176.5230  145.1120 N   0  0  0  0  0  0  0  0  0  0  0  0
  185.6220  177.1800  145.0180 C   0  0  2  0  0  3  0  0  0  0  0  0
  185.6230  177.5410  147.3350 N   0  0  0  0  0  0  0  0  0  0  0  0
  192.2390  176.1320  145.1360 C   0  0  0  0  0  0  0  0  0  0  0  0
  190.2530  176.8350  146.2490 C   0  0  0  0  0  0  0  0  0  0  0  0
  188.1620  177.2680  144.9600 N   0  0  0  0  0  2  0  0  0  0  0  0
  188.8850  177.2460  146.1700 N   0  0  0  0  0  0  0  0  0  0  0  0
  184.8800  177.1760  146.3360 C   0  0  0  0  0  3  0  0  0  0  0  0
  190.9050  176.7550  147.4880 C   0  0  0  0  0  3  0  0  0  0  0  0
  192.2420  176.3550  147.5350 C   0  0  0  0  0  3  0  0  0  0  0  0
  192.9160  176.0390  146.3550 C   0  0  0  0  0  3  0  0  0  0  0  0
  186.8810  177.8490  146.7710 C   0  0  1  0  0  3  0  0  0  0  0  0
  188.0360  177.5060  147.2900 C   0  0  0  0  0  2  0  0  0  0  0  0
  186.9120  177.7540  145.3760 N   0  0  2  0  0  0  0  0  0  0  0  0
  184.8690  178.0250  143.9790 C   0  0  1  0  0  3  0  0  0  0  0  0
  185.5530  179.3440  143.6520 C   0  0  0  0  0  2  0  0  0  0  0  0
  185.8100  178.8590  142.2380 C   0  0  2  0  0  3  0  0  0  0  0  0
  185.1350  177.5400  142.5660 C   0  0  0  0  0  2  0  0  0  0  0  0
  187.1650  178.6540  142.0580 F   0  0  0  0  0  0  0  0  0  0  0  0
  192.9540  175.7920  143.8680 C   0  0  1  0  0  3  0  0  0  0  0  0
  191.6730  175.1010  142.0080 O   0  0  0  0  0  0  0  0  0  0  0  0
  192.0750  176.0360  142.6820 C   0  0  0  0  0  3  0  0  0  0  0  0
  194.1170  176.5580  143.7550 O   0  0  0  0  0  0  0  0  0  0  0  0
  195.0800  175.6820  143.2490 C   0  0  0  0  0  3  0  0  0  0  0  0
  196.4530  176.2980  143.4250 C   0  0  0  0  0  2  0  0  0  0  0  0
  195.7760  176.3340  142.0720 C   0  0  0  0  0  2  0  0  0  0  0  0
  1  4  2  0  0  0  0
  1  5  1  0  0  0  0
  2 14  1  0  0  0  0
  2  8  1  1  0  0  0
  4 11  1  0  0  0  0
  5  9  2  0  0  0  0
  6  7  1  0  0  0  0
  7  5  1  0  0  0  0
  7 13  1  0  0  0  0
  8  3  2  0  0  0  0
  9 10  1  0  0  0  0
 11 10  2  0  0  0  0
 12 13  1  1  0  0  0
 12  3  1  0  0  0  0
 14  6  1  1  0  0  0
 14 12  1  0  0  0  0
 15 18  1  6  0  0  0
 15  2  1  0  0  0  0
 16 15  1  0  0  0  0
 17 19  1  1  0  0  0
 17 18  1  0  0  0  0
 17 16  1  0  0  0  0
 20 22  1  6  0  0  0
 20  4  1  0  0  0  0
 21 22  2  0  0  0  0
 23 20  1  0  0  0  0
 24 25  1  0  0  0  0
 24 23  1  0  0  0  0
 26 24  1  0  0  0  0
 26 25  1  0  0  0  0
M  END
>  <MODEL>
4

>  <REMARK>
 VINA RESULT:      -6.9      2.138      3.954
  Name = 
  5 active torsions:
  status: ('A' for Active; 'I' for Inactive)
    1  A    between atoms: C_2  and  O_9
    2  A    between atoms: C_3  and  C_8
    3  A    between atoms: C_6  and  C_20
    4  A    between atoms: O_9  and  C_20
    5  A    between atoms: C_10  and  C_20
                            x       y       z     vdW  Elec       q    Type
                         _______ _______ _______ _____ _____    ______ ____

>  <TORSDO>
F 5

$$$$
=
 OpenBabel11072408333D

 26 30  0  0  1  0  0  0  0  0999 V2000
  187.3060  177.1100  144.7460 N   0  0  0  0  0  0  0  0  0  0  0  0
  192.6490  176.7920  144.6640 C   0  0  2  0  0  3  0  0  0  0  0  0
  192.6410  176.0460  146.8880 N   0  0  0  0  0  0  0  0  0  0  0  0
  185.9800  177.4140  144.8050 C   0  0  0  0  0  0  0  0  0  0  0  0
  187.9900  176.6520  145.8300 C   0  0  0  0  0  0  0  0  0  0  0  0
  190.1200  176.5650  144.5350 N   0  0  0  0  0  2  0  0  0  0  0  0
  189.3820  176.3410  145.7140 N   0  0  0  0  0  0  0  0  0  0  0  0
  193.3730  176.6180  145.9810 C   0  0  0  0  0  3  0  0  0  0  0  0
  187.3190  176.4830  147.0490 C   0  0  0  0  0  3  0  0  0  0  0  0
  185.9600  176.7900  147.1330 C   0  0  0  0  0  3  0  0  0  0  0  0
  185.2820  177.2600  146.0070 C   0  0  0  0  0  3  0  0  0  0  0  0
  191.4120  175.7640  146.2520 C   0  0  1  0  0  3  0  0  0  0  0  0
  190.2310  175.9470  146.7940 C   0  0  0  0  0  2  0  0  0  0  0  0
  191.3920  176.0910  144.8920 N   0  0  2  0  0  0  0  0  0  0  0  0
  193.4660  176.1800  143.5160 C   0  0  1  0  0  3  0  0  0  0  0  0
  194.7810  175.5610  143.9650 C   0  0  0  0  0  2  0  0  0  0  0  0
  194.2660  174.1870  143.5770 C   0  0  2  0  0  3  0  0  0  0  0  0
  192.9510  174.8040  143.1370 C   0  0  0  0  0  2  0  0  0  0  0  0
  194.0650  173.4300  144.7150 F   0  0  0  0  0  0  0  0  0  0  0  0
  185.2610  177.9210  143.5960 C   0  0  1  0  0  3  0  0  0  0  0  0
  185.4300  180.1790  144.2630 O   0  0  0  0  0  0  0  0  0  0  0  0
  185.5680  179.3670  143.3640 C   0  0  0  0  0  3  0  0  0  0  0  0
  185.6320  177.1750  142.4730 O   0  0  0  0  0  0  0  0  0  0  0  0
  186.1880  178.1040  141.5900 C   0  0  0  0  0  3  0  0  0  0  0  0
  186.1400  177.5410  140.1840 C   0  0  0  0  0  2  0  0  0  0  0  0
  187.4350  177.5110  140.9670 C   0  0  0  0  0  2  0  0  0  0  0  0
  1  4  2  0  0  0  0
  1  5  1  0  0  0  0
  2 14  1  0  0  0  0
  2  8  1  1  0  0  0
  4 11  1  0  0  0  0
  5  9  2  0  0  0  0
  6  7  1  0  0  0  0
  7  5  1  0  0  0  0
  7 13  1  0  0  0  0
  8  3  2  0  0  0  0
  9 10  1  0  0  0  0
 11 10  2  0  0  0  0
 12 13  1  1  0  0  0
 12  3  1  0  0  0  0
 14  6  1  1  0  0  0
 14 12  1  0  0  0  0
 15 18  1  1  0  0  0
 15 16  1  0  0  0  0
 15  2  1  0  0  0  0
 17 16  1  0  0  0  0
 17 19  1  1  0  0  0
 18 17  1  0  0  0  0
 20 22  1  6  0  0  0
 20  4  1  0  0  0  0
 22 21  2  0  0  0  0
 23 20  1  0  0  0  0
 24 23  1  0  0  0  0
 25 26  1  0  0  0  0
 25 24  1  0  0  0  0
 26 24  1  0  0  0  0
M  END
>  <MODEL>
5

>  <REMARK>
 VINA RESULT:      -6.8      3.573      7.826
  Name = 
  5 active torsions:
  status: ('A' for Active; 'I' for Inactive)
    1  A    between atoms: C_2  and  O_9
    2  A    between atoms: C_3  and  C_8
    3  A    between atoms: C_6  and  C_20
    4  A    between atoms: O_9  and  C_20
    5  A    between atoms: C_10  and  C_20
                            x       y       z     vdW  Elec       q    Type
                         _______ _______ _______ _____ _____    ______ ____

>  <TORSDO>
F 5

$$$$
=
 OpenBabel11072408333D

 26 30  0  0  1  0  0  0  0  0999 V2000
  190.5110  175.6300  145.2560 N   0  0  0  0  0  0  0  0  0  0  0  0
  185.4390  177.3430  145.1890 C   0  0  2  0  0  3  0  0  0  0  0  0
  185.6540  178.0730  147.4080 N   0  0  0  0  0  0  0  0  0  0  0  0
  191.7100  174.9880  145.3130 C   0  0  0  0  0  0  0  0  0  0  0  0
  189.9760  176.2580  146.3390 C   0  0  0  0  0  0  0  0  0  0  0  0
  187.9380  176.8950  145.0500 N   0  0  0  0  0  2  0  0  0  0  0  0
  188.7140  176.9240  146.2260 N   0  0  0  0  0  0  0  0  0  0  0  0
  184.7930  177.7090  146.5070 C   0  0  0  0  0  3  0  0  0  0  0  0
  190.6740  176.2510  147.5550 C   0  0  0  0  0  3  0  0  0  0  0  0
  191.9050  175.5970  147.6360 C   0  0  0  0  0  3  0  0  0  0  0  0
  192.4290  174.9600  146.5110 C   0  0  0  0  0  3  0  0  0  0  0  0
  186.9110  178.0180  146.7660 C   0  0  1  0  0  3  0  0  0  0  0  0
  188.0050  177.5340  147.3050 C   0  0  0  0  0  2  0  0  0  0  0  0
  186.8370  177.6900  145.4080 N   0  0  2  0  0  0  0  0  0  0  0  0
  184.8070  178.1430  144.0400 C   0  0  1  0  0  3  0  0  0  0  0  0
  185.5600  179.4190  143.6960 C   0  0  0  0  0  2  0  0  0  0  0  0
  185.9210  178.8390  142.3410 C   0  0  2  0  0  3  0  0  0  0  0  0
  185.1770  177.5630  142.6870 C   0  0  0  0  0  2  0  0  0  0  0  0
  187.2790  178.5850  142.2930 F   0  0  0  0  0  0  0  0  0  0  0  0
  192.2640  174.3030  144.1040 C   0  0  1  0  0  3  0  0  0  0  0  0
  194.4420  173.3920  144.1620 O   0  0  0  0  0  0  0  0  0  0  0  0
  193.2750  173.2720  144.4960 C   0  0  0  0  0  3  0  0  0  0  0  0
  191.2310  173.6980  143.3830 O   0  0  0  0  0  0  0  0  0  0  0  0
  191.1040  172.4220  143.9350 C   0  0  0  0  0  3  0  0  0  0  0  0
  190.0990  171.6280  143.1240 C   0  0  0  0  0  2  0  0  0  0  0  0
  189.6890  172.2400  144.4460 C   0  0  0  0  0  2  0  0  0  0  0  0
  1  4  2  0  0  0  0
  1  5  1  0  0  0  0
  2 14  1  0  0  0  0
  2  8  1  1  0  0  0
  4 11  1  0  0  0  0
  5  9  2  0  0  0  0
  6  7  1  0  0  0  0
  7  5  1  0  0  0  0
  7 13  1  0  0  0  0
  8  3  2  0  0  0  0
  9 10  1  0  0  0  0
 11 10  2  0  0  0  0
 12 13  1  1  0  0  0
 12  3  1  0  0  0  0
 14  6  1  1  0  0  0
 14 12  1  0  0  0  0
 15 18  1  6  0  0  0
 15  2  1  0  0  0  0
 16 15  1  0  0  0  0
 17 19  1  1  0  0  0
 17 18  1  0  0  0  0
 17 16  1  0  0  0  0
 20 22  1  1  0  0  0
 20  4  1  0  0  0  0
 21 22  2  0  0  0  0
 23 24  1  0  0  0  0
 23 20  1  0  0  0  0
 24 26  1  0  0  0  0
 25 24  1  0  0  0  0
 25 26  1  0  0  0  0
M  END
>  <MODEL>
6

>  <REMARK>
 VINA RESULT:      -6.7      2.384      4.168
  Name = 
  5 active torsions:
  status: ('A' for Active; 'I' for Inactive)
    1  A    between atoms: C_2  and  O_9
    2  A    between atoms: C_3  and  C_8
    3  A    between atoms: C_6  and  C_20
    4  A    between atoms: O_9  and  C_20
    5  A    between atoms: C_10  and  C_20
                            x       y       z     vdW  Elec       q    Type
                         _______ _______ _______ _____ _____    ______ ____

>  <TORSDO>
F 5

$$$$
=
 OpenBabel11072408333D

 26 30  0  0  1  0  0  0  0  0999 V2000
  190.6670  175.0270  144.0610 N   0  0  0  0  0  0  0  0  0  0  0  0
  185.9950  177.5790  144.6270 C   0  0  2  0  0  3  0  0  0  0  0  0
  185.4730  177.1250  142.3860 N   0  0  0  0  0  0  0  0  0  0  0  0
  191.9450  174.5880  143.8900 C   0  0  0  0  0  0  0  0  0  0  0  0
  189.7820  175.0910  143.0290 C   0  0  0  0  0  0  0  0  0  0  0  0
  188.0150  176.0400  144.5120 N   0  0  0  0  0  2  0  0  0  0  0  0
  188.4480  175.5550  143.2620 N   0  0  0  0  0  0  0  0  0  0  0  0
  185.2140  177.9220  143.3780 C   0  0  0  0  0  3  0  0  0  0  0  0
  190.1860  174.6920  141.7470 C   0  0  0  0  0  3  0  0  0  0  0  0
  191.4920  174.2390  141.5490 C   0  0  0  0  0  3  0  0  0  0  0  0
  192.3800  174.1860  142.6240 C   0  0  0  0  0  3  0  0  0  0  0  0
  186.3960  176.1860  142.8940 C   0  0  1  0  0  3  0  0  0  0  0  0
  187.4580  175.7590  142.2520 C   0  0  0  0  0  2  0  0  0  0  0  0
  186.6680  176.3410  144.2570 N   0  0  2  0  0  0  0  0  0  0  0  0
  185.0460  177.4010  145.8230 C   0  0  1  0  0  3  0  0  0  0  0  0
  185.7510  177.4250  147.1700 C   0  0  0  0  0  2  0  0  0  0  0  0
  185.0360  178.7170  147.5200 C   0  0  2  0  0  3  0  0  0  0  0  0
  184.3410  178.6980  146.1710 C   0  0  0  0  0  2  0  0  0  0  0  0
  185.9490  179.7550  147.5560 F   0  0  0  0  0  0  0  0  0  0  0  0
  192.8920  174.5370  145.0460 C   0  0  1  0  0  3  0  0  0  0  0  0
  194.5770  172.9380  145.4720 O   0  0  0  0  0  0  0  0  0  0  0  0
  193.3930  173.1440  145.2600 C   0  0  0  0  0  3  0  0  0  0  0  0
  193.9730  175.3940  144.8150 O   0  0  0  0  0  0  0  0  0  0  0  0
  193.5610  176.6350  145.3050 C   0  0  0  0  0  3  0  0  0  0  0  0
  194.7830  177.4610  145.6540 C   0  0  0  0  0  2  0  0  0  0  0  0
  194.0000  176.7700  146.7480 C   0  0  0  0  0  2  0  0  0  0  0  0
  2  8  1  6  0  0  0
  2 15  1  0  0  0  0
  3 12  1  0  0  0  0
  3  8  2  0  0  0  0
  4  1  1  0  0  0  0
  4 20  1  0  0  0  0
  5  7  1  0  0  0  0
  5  1  2  0  0  0  0
  7  6  1  0  0  0  0
  9  5  1  0  0  0  0
 10  9  2  0  0  0  0
 10 11  1  0  0  0  0
 11  4  2  0  0  0  0
 12 13  1  6  0  0  0
 12 14  1  0  0  0  0
 13  7  1  0  0  0  0
 14  6  1  6  0  0  0
 14  2  1  0  0  0  0
 15 18  1  1  0  0  0
 15 16  1  0  0  0  0
 16 17  1  0  0  0  0
 17 19  1  6  0  0  0
 18 17  1  0  0  0  0
 20 22  1  6  0  0  0
 22 21  2  0  0  0  0
 23 20  1  0  0  0  0
 23 24  1  0  0  0  0
 24 25  1  0  0  0  0
 24 26  1  0  0  0  0
 25 26  1  0  0  0  0
M  END
>  <MODEL>
7

>  <REMARK>
 VINA RESULT:      -6.7      1.534      1.882
  Name = 
  5 active torsions:
  status: ('A' for Active; 'I' for Inactive)
    1  A    between atoms: C_2  and  O_9
    2  A    between atoms: C_3  and  C_8
    3  A    between atoms: C_6  and  C_20
    4  A    between atoms: O_9  and  C_20
    5  A    between atoms: C_10  and  C_20
                            x       y       z     vdW  Elec       q    Type
                         _______ _______ _______ _____ _____    ______ ____

>  <TORSDO>
F 5

$$$$
=
 OpenBabel11072408333D

 26 30  0  0  1  0  0  0  0  0999 V2000
  192.5980  175.9650  144.0310 N   0  0  0  0  0  0  0  0  0  0  0  0
  187.4200  177.0320  144.8730 C   0  0  2  0  0  3  0  0  0  0  0  0
  186.8780  176.0340  142.8200 N   0  0  0  0  0  0  0  0  0  0  0  0
  193.9290  175.9110  143.7470 C   0  0  0  0  0  0  0  0  0  0  0  0
  191.6530  175.5640  143.1370 C   0  0  0  0  0  0  0  0  0  0  0  0
  189.8110  176.1870  144.7000 N   0  0  0  0  0  2  0  0  0  0  0  0
  190.2670  175.6350  143.4860 N   0  0  0  0  0  0  0  0  0  0  0  0
  186.4640  176.8830  143.7100 C   0  0  0  0  0  3  0  0  0  0  0  0
  192.0500  175.0770  141.8840 C   0  0  0  0  0  3  0  0  0  0  0  0
  193.4090  175.0150  141.5710 C   0  0  0  0  0  3  0  0  0  0  0  0
  194.3580  175.4350  142.5050 C   0  0  0  0  0  3  0  0  0  0  0  0
  188.0970  175.5310  143.3250 C   0  0  1  0  0  3  0  0  0  0  0  0
  189.1800  175.3370  142.6080 C   0  0  0  0  0  2  0  0  0  0  0  0
  188.4230  176.0110  144.5980 N   0  0  2  0  0  0  0  0  0  0  0  0
  186.6890  176.7980  146.2040 C   0  0  1  0  0  3  0  0  0  0  0  0
  187.0090  177.8370  147.2670 C   0  0  0  0  0  2  0  0  0  0  0  0
  185.5750  178.3290  147.2170 C   0  0  2  0  0  3  0  0  0  0  0  0
  185.2580  177.2980  146.1490 C   0  0  0  0  0  2  0  0  0  0  0  0
  185.5390  179.5950  146.6630 F   0  0  0  0  0  0  0  0  0  0  0  0
  194.9400  176.3660  144.7510 C   0  0  1  0  0  3  0  0  0  0  0  0
  194.4980  177.4990  146.7750 O   0  0  0  0  0  0  0  0  0  0  0  0
  194.3200  176.4940  146.1060 C   0  0  0  0  0  3  0  0  0  0  0  0
  196.0020  175.4590  144.8030 O   0  0  0  0  0  0  0  0  0  0  0  0
  195.6270  174.5200  145.7660 C   0  0  0  0  0  3  0  0  0  0  0  0
  196.8320  173.6760  146.1320 C   0  0  0  0  0  2  0  0  0  0  0  0
  195.7840  173.1280  145.1890 C   0  0  0  0  0  2  0  0  0  0  0  0
  2  8  1  6  0  0  0
  2 15  1  0  0  0  0
  3 12  1  0  0  0  0
  3  8  2  0  0  0  0
  4  1  1  0  0  0  0
  4 20  1  0  0  0  0
  5  7  1  0  0  0  0
  5  1  2  0  0  0  0
  7  6  1  0  0  0  0
  9  5  1  0  0  0  0
 10  9  2  0  0  0  0
 10 11  1  0  0  0  0
 11  4  2  0  0  0  0
 12 13  1  6  0  0  0
 12 14  1  0  0  0  0
 13  7  1  0  0  0  0
 14  6  1  6  0  0  0
 14  2  1  0  0  0  0
 15 18  1  6  0  0  0
 15 16  1  0  0  0  0
 17 19  1  6  0  0  0
 17 16  1  0  0  0  0
 18 17  1  0  0  0  0
 20 23  1  0  0  0  0
 20 22  1  1  0  0  0
 22 21  2  0  0  0  0
 23 24  1  0  0  0  0
 24 25  1  0  0  0  0
 26 24  1  0  0  0  0
 26 25  1  0  0  0  0
M  END
>  <MODEL>
8

>  <REMARK>
 VINA RESULT:      -6.6      1.913      2.935
  Name = 
  5 active torsions:
  status: ('A' for Active; 'I' for Inactive)
    1  A    between atoms: C_2  and  O_9
    2  A    between atoms: C_3  and  C_8
    3  A    between atoms: C_6  and  C_20
    4  A    between atoms: O_9  and  C_20
    5  A    between atoms: C_10  and  C_20
                            x       y       z     vdW  Elec       q    Type
                         _______ _______ _______ _____ _____    ______ ____

>  <TORSDO>
F 5

$$$$
=
 OpenBabel11072408333D

 26 30  0  0  1  0  0  0  0  0999 V2000
  188.5910  176.8510  144.2160 N   0  0  0  0  0  0  0  0  0  0  0  0
  193.9280  176.6220  144.5610 C   0  0  2  0  0  3  0  0  0  0  0  0
  193.7770  176.5710  146.9010 N   0  0  0  0  0  0  0  0  0  0  0  0
  187.2640  177.1350  144.1000 C   0  0  0  0  0  0  0  0  0  0  0  0
  189.2040  176.7490  145.4270 C   0  0  0  0  0  0  0  0  0  0  0  0
  191.4130  176.3210  144.3500 N   0  0  0  0  0  2  0  0  0  0  0  0
  190.6010  176.4440  145.4950 N   0  0  0  0  0  0  0  0  0  0  0  0
  194.5660  176.8600  145.9120 C   0  0  0  0  0  3  0  0  0  0  0  0
  188.4560  176.9380  146.5980 C   0  0  0  0  0  3  0  0  0  0  0  0
  187.0940  177.2310  146.5020 C   0  0  0  0  0  3  0  0  0  0  0  0
  186.4910  177.3320  145.2480 C   0  0  0  0  0  3  0  0  0  0  0  0
  192.5910  176.0900  146.3040 C   0  0  1  0  0  3  0  0  0  0  0  0
  191.3780  176.4040  146.6930 C   0  0  0  0  0  2  0  0  0  0  0  0
  192.6590  175.9980  144.9100 N   0  0  2  0  0  0  0  0  0  0  0  0
  194.8170  175.7110  143.7000 C   0  0  1  0  0  3  0  0  0  0  0  0
  195.4340  176.4160  142.5010 C   0  0  0  0  0  2  0  0  0  0  0  0
  196.8130  176.2380  143.1080 C   0  0  2  0  0  3  0  0  0  0  0  0
  196.1970  175.5430  144.3080 C   0  0  0  0  0  2  0  0  0  0  0  0
  197.3120  177.4690  143.4910 F   0  0  0  0  0  0  0  0  0  0  0  0
  186.6250  177.2460  142.7530 C   0  0  1  0  0  3  0  0  0  0  0  0
  187.5810  176.4190  140.7590 O   0  0  0  0  0  0  0  0  0  0  0  0
  187.1010  176.1530  141.8490 C   0  0  0  0  0  3  0  0  0  0  0  0
  185.2340  177.1800  142.8780 O   0  0  0  0  0  0  0  0  0  0  0  0
  184.7710  178.4150  142.4180 C   0  0  0  0  0  3  0  0  0  0  0  0
  183.3040  178.2910  142.0560 C   0  0  0  0  0  2  0  0  0  0  0  0
  184.3560  178.2810  140.9680 C   0  0  0  0  0  2  0  0  0  0  0  0
  1  5  1  0  0  0  0
  2 14  1  0  0  0  0
  2  8  1  1  0  0  0
  4  1  2  0  0  0  0
  4 11  1  0  0  0  0
  5  7  1  0  0  0  0
  5  9  2  0  0  0  0
  6  7  1  0  0  0  0
  7 13  1  0  0  0  0
  8  3  2  0  0  0  0
 10  9  1  0  0  0  0
 11 10  2  0  0  0  0
 12 13  1  6  0  0  0
 12  3  1  0  0  0  0
 14  6  1  6  0  0  0
 14 12  1  0  0  0  0
 15 16  1  6  0  0  0
 15 18  1  0  0  0  0
 15  2  1  0  0  0  0
 16 17  1  0  0  0  0
 17 19  1  1  0  0  0
 17 18  1  0  0  0  0
 20 22  1  6  0  0  0
 20 23  1  0  0  0  0
 20  4  1  0  0  0  0
 21 22  2  0  0  0  0
 24 23  1  0  0  0  0
 25 24  1  0  0  0  0
 26 25  1  0  0  0  0
 26 24  1  0  0  0  0
M  END
>  <MODEL>
9

>  <REMARK>
 VINA RESULT:      -6.6      3.867      8.383
  Name = 
  5 active torsions:
  status: ('A' for Active; 'I' for Inactive)
    1  A    between atoms: C_2  and  O_9
    2  A    between atoms: C_3  and  C_8
    3  A    between atoms: C_6  and  C_20
    4  A    between atoms: O_9  and  C_20
    5  A    between atoms: C_10  and  C_20
                            x       y       z     vdW  Elec       q    Type
                         _______ _______ _______ _____ _____    ______ ____

>  <TORSDO>
F 5

$$$$
