=
 OpenBabel11062421063D

 68 74  0  0  1  0  0  0  0  0999 V2000
  189.8550  173.7960  140.8180 C   0  0  0  0  0  0  0  0  0  0  0  0
  188.5900  174.0250  137.3360 O   0  0  0  0  0  0  0  0  0  0  0  0
  190.9130  172.9980  138.7080 C   0  0  2  0  0  3  0  0  0  0  0  0
  188.6380  174.5820  142.8770 C   0  0  0  0  0  3  0  0  0  0  0  0
  190.5740  172.2040  142.5720 C   0  0  0  0  0  3  0  0  0  0  0  0
  188.6600  174.2210  138.7170 C   0  0  0  0  0  0  0  0  0  0  0  0
  190.4090  172.2940  137.4370 C   0  0  2  0  0  3  0  0  0  0  0  0
  191.0280  173.2070  141.5580 C   0  0  0  0  0  2  0  0  0  0  0  0
  187.7090  174.8780  139.3050 N   0  0  0  0  0  0  0  0  0  0  0  0
  187.6520  175.1800  140.7350 C   0  0  1  0  0  3  0  0  0  0  0  0
  189.8000  173.6670  139.4800 C   0  0  0  0  0  0  0  0  0  0  0  0
  189.9060  172.5960  143.6610 C   0  0  0  0  0  3  0  0  0  0  0  0
  189.4730  173.1300  135.4100 O   0  0  0  0  0  0  0  0  0  0  0  0
  189.6050  174.0470  143.8910 C   0  0  0  0  0  2  0  0  0  0  0  0
  189.4790  173.1790  136.6670 C   0  0  0  0  0  0  0  0  0  0  0  0
  188.7500  174.5150  141.5360 C   0  0  0  0  0  0  0  0  0  0  0  0
  192.0080  174.0070  138.3710 C   0  0  0  0  0  2  0  0  0  0  0  0
  193.3840  173.3540  138.4170 C   0  0  0  0  0  2  0  0  0  0  0  0
  194.4280  174.3400  138.9180 C   0  0  0  0  0  2  0  0  0  0  0  0
  194.3590  174.4810  140.4270 C   0  0  0  0  0  2  0  0  0  0  0  0
  194.3640  175.9510  140.8130 C   0  0  0  0  0  2  0  0  0  0  0  0
  196.7220  175.9110  141.1940 O   0  0  0  0  0  1  0  0  0  0  0  0
  195.4970  176.2260  141.7850 C   0  0  2  0  0  3  0  0  0  0  0  0
  195.3050  175.3830  143.0320 C   0  0  0  0  0  2  0  0  0  0  0  0
  193.9850  173.8250  145.2930 C   0  0  2  0  0  3  0  0  0  0  0  0
  194.0660  176.0930  146.3180 C   0  0  0  0  0  3  0  0  0  0  0  0
  193.1620  174.9450  145.9000 C   0  0  1  0  0  3  0  0  0  0  0  0
  193.2500  174.8080  144.3940 C   0  0  1  0  0  3  0  0  0  0  0  0
  194.1630  175.9240  143.8840 C   0  0  1  0  0  3  0  0  0  0  0  0
  194.7110  176.6810  145.0770 C   0  0  0  0  0  3  0  0  0  0  0  0
  193.2080  172.5240  145.3390 C   0  0  0  0  0  2  0  0  0  0  0  0
  194.2390  171.2450  143.4720 C   0  0  0  0  0  1  0  0  0  0  0  0
  195.4830  171.5950  145.5780 C   0  0  0  0  0  1  0  0  0  0  0  0
  194.1120  171.3580  144.9800 C   0  0  0  0  0  3  0  0  0  0  0  0
  189.7050  170.9820  137.7710 C   0  0  0  0  0  2  0  0  0  0  0  0
  190.3770  170.2430  138.9270 C   0  0  0  0  0  2  0  0  0  0  0  0
  191.2910  168.1840  137.1510 O   0  0  0  0  0  0  0  0  0  0  0  0
  191.7690  169.9410  138.6150 N   0  0  0  0  0  2  0  0  0  0  0  0
  192.1570  168.9380  137.6730 C   0  0  0  0  0  0  0  0  0  0  0  0
  193.5020  168.8260  137.3150 O   0  0  0  0  0  0  0  0  0  0  0  0
  194.0660  169.5520  136.2300 C   0  0  0  0  0  2  0  0  0  0  0  0
  197.1210  172.2080  137.6440 C   0  0  0  0  0  3  0  0  0  0  0  0
  195.5390  171.5560  135.9300 C   0  0  0  0  0  3  0  0  0  0  0  0
  196.6810  171.1560  138.4540 C   0  0  0  0  0  3  0  0  0  0  0  0
  195.1040  170.4970  136.7330 C   0  0  0  0  0  0  0  0  0  0  0  0
  196.5480  172.4100  136.3840 C   0  0  0  0  0  3  0  0  0  0  0  0
  195.6750  170.3000  137.9970 C   0  0  0  0  0  3  0  0  0  0  0  0
  187.6650  176.6910  140.9160 C   0  0  0  0  0  2  0  0  0  0  0  0
  186.4670  177.3010  140.2010 C   0  0  0  0  0  2  0  0  0  0  0  0
  185.4720  177.9290  141.1770 C   0  0  1  0  0  3  0  0  0  0  0  0
  183.0030  178.3350  141.5070 N   0  0  0  0  0  2  0  0  0  0  0  0
  183.8250  177.4770  139.4950 O   0  0  0  0  0  0  0  0  0  0  0  0
  184.0670  177.8870  140.6630 C   0  0  0  0  0  0  0  0  0  0  0  0
  180.7390  177.9040  142.2840 C   0  0  0  0  0  1  0  0  0  0  0  0
  181.6070  178.2820  141.1000 C   0  0  0  0  0  3  0  0  0  0  0  0
  181.1820  179.6410  140.5880 C   0  0  0  0  0  1  0  0  0  0  0  0
  185.5640  177.3050  142.4910 N   0  0  0  0  0  2  0  0  0  0  0  0
  186.0120  178.3270  143.4240 C   0  0  0  0  0  2  0  0  0  0  0  0
  188.3720  177.9520  144.1630 C   0  0  0  0  0  3  0  0  0  0  0  0
  191.0020  177.7600  144.6940 Cl  0  0  0  0  0  0  0  0  0  0  0  0
  187.5010  176.4800  146.3630 C   0  0  0  0  0  3  0  0  0  0  0  0
  189.3150  177.4230  145.0510 C   0  0  0  0  0  0  0  0  0  0  0  0
  187.0070  177.7440  144.3650 C   0  0  0  0  0  0  0  0  0  0  0  0
  186.5700  177.0130  145.4700 C   0  0  0  0  0  3  0  0  0  0  0  0
  188.8790  176.6720  146.1740 C   0  0  0  0  0  0  0  0  0  0  0  0
  189.7390  174.8350  147.4130 O   0  0  0  0  0  0  0  0  0  0  0  0
  190.7490  176.8340  147.8340 O   0  0  0  0  0  1  0  0  0  0  0  0
  189.8020  176.0700  147.1660 C   0  0  0  0  0  0  0  0  0  0  0  0
  1 16  1  0  0  0  0
  1  8  1  0  0  0  0
  2  6  1  0  0  0  0
  3 17  1  6  0  0  0
  3 11  1  0  0  0  0
  4 14  1  0  0  0  0
  5 12  2  0  0  0  0
  6  9  2  0  0  0  0
  6 11  1  0  0  0  0
  7 35  1  1  0  0  0
  7  3  1  0  0  0  0
  8  5  1  0  0  0  0
  9 10  1  0  0  0  0
 10 48  1  6  0  0  0
 10 16  1  0  0  0  0
 11  1  2  0  0  0  0
 12 14  1  0  0  0  0
 13 15  2  0  0  0  0
 15  2  1  0  0  0  0
 15  7  1  0  0  0  0
 16  4  2  0  0  0  0
 17 18  1  0  0  0  0
 18 19  1  0  0  0  0
 19 20  1  0  0  0  0
 20 21  1  0  0  0  0
 21 23  1  0  0  0  0
 23 22  1  6  0  0  0
 23 24  1  0  0  0  0
 24 29  1  0  0  0  0
 25 31  1  1  0  0  0
 25 27  1  0  0  0  0
 27 26  1  6  0  0  0
 28 25  1  0  0  0  0
 28 27  1  0  0  0  0
 29 28  1  0  0  0  0
 29 30  1  0  0  0  0
 30 26  2  0  0  0  0
 32 34  1  0  0  0  0
 34 31  1  0  0  0  0
 34 33  1  0  0  0  0
 35 36  1  0  0  0  0
 37 39  2  0  0  0  0
 38 36  1  0  0  0  0
 39 38  1  0  0  0  0
 40 39  1  0  0  0  0
 41 45  1  0  0  0  0
 41 40  1  0  0  0  0
 42 44  1  0  0  0  0
 43 46  1  0  0  0  0
 43 45  2  0  0  0  0
 45 47  1  0  0  0  0
 46 42  2  0  0  0  0
 47 44  2  0  0  0  0
 49 48  1  0  0  0  0
 49 50  1  0  0  0  0
 50 57  1  0  0  0  0
 52 53  2  0  0  0  0
 53 50  1  0  0  0  0
 53 51  1  0  0  0  0
 55 51  1  0  0  0  0
 55 54  1  0  0  0  0
 56 55  1  0  0  0  0
 57 58  1  0  0  0  0
 58 63  1  0  0  0  0
 59 63  2  0  0  0  0
 59 62  1  0  0  0  0
 60 62  1  0  0  0  0
 62 65  2  0  0  0  0
 63 64  1  0  0  0  0
 64 61  2  0  0  0  0
 65 61  1  0  0  0  0
 65 68  1  0  0  0  0
 68 66  2  0  0  0  0
 68 67  1  0  0  0  0
M  END
>  <MODEL>
1

>  <REMARK>
 VINA RESULT:      -5.8      0.000      0.000
  Name = 
  25 active torsions:
  status: ('A' for Active; 'I' for Inactive)
    1  A    between atoms: C_3  and  C_5
    2  A    between atoms: C_3  and  C_49
    3  A    between atoms: N_4  and  C_31
    4  A    between atoms: C_5  and  C_47
    5  A    between atoms: C_6  and  C_47
    6  A    between atoms: C_8  and  C_38
    7  A    between atoms: C_11  and  N_34
    8  A    between atoms: C_11  and  C_52
    9  A    between atoms: C_11  and  C_58
   10  A    between atoms: C_21  and  C_33
   11  A    between atoms: C_21  and  C_49
   12  A    between atoms: C_22  and  C_39
   13  A    between atoms: C_22  and  C_58
   14  A    between atoms: C_24  and  C_41
   15  A    between atoms: C_25  and  C_64
   16  A    between atoms: N_26  and  C_37
   17  A    between atoms: C_33  and  C_64
   18  A    between atoms: N_34  and  C_42
   19  A    between atoms: C_36  and  C_55
   20  A    between atoms: C_36  and  O_57
   21  A    between atoms: C_37  and  C_41
   22  A    between atoms: C_38  and  C_60
   23  A    between atoms: C_42  and  C_51
   24  A    between atoms: C_54  and  C_62
   25  A    between atoms: O_57  and  C_67
                            x       y       z     vdW  Elec       q    Type
                         _______ _______ _______ _____ _____    ______ ____

>  <TORSDO>
F 25

$$$$
=
 OpenBabel11062421063D

 68 74  0  0  1  0  0  0  0  0999 V2000
  191.2240  172.7130  140.6730 C   0  0  0  0  0  0  0  0  0  0  0  0
  189.2750  173.5900  143.7080 O   0  0  0  0  0  0  0  0  0  0  0  0
  190.4530  174.9520  141.4520 C   0  0  2  0  0  3  0  0  0  0  0  0
  191.8720  170.3850  139.9660 C   0  0  0  0  0  3  0  0  0  0  0  0
  191.2090  172.8220  138.2000 C   0  0  0  0  0  3  0  0  0  0  0  0
  189.9970  172.8170  142.7960 C   0  0  0  0  0  0  0  0  0  0  0  0
  189.1600  175.4990  142.0780 C   0  0  2  0  0  3  0  0  0  0  0  0
  191.7870  173.3980  139.4550 C   0  0  0  0  0  2  0  0  0  0  0  0
  190.1330  171.5470  143.0220 N   0  0  0  0  0  0  0  0  0  0  0  0
  190.8740  170.6140  142.1740 C   0  0  1  0  0  3  0  0  0  0  0  0
  190.5750  173.4520  141.5920 C   0  0  0  0  0  0  0  0  0  0  0  0
  191.5210  171.5800  137.8180 C   0  0  0  0  0  3  0  0  0  0  0  0
  188.4050  175.6250  144.3370 O   0  0  0  0  0  0  0  0  0  0  0  0
  192.4600  170.7430  138.6340 C   0  0  0  0  0  2  0  0  0  0  0  0
  188.9370  174.9190  143.4400 C   0  0  0  0  0  0  0  0  0  0  0  0
  191.3640  171.2330  140.8820 C   0  0  0  0  0  0  0  0  0  0  0  0
  191.6780  175.6420  142.0460 C   0  0  0  0  0  2  0  0  0  0  0  0
  192.9130  174.7570  141.9280 C   0  0  0  0  0  2  0  0  0  0  0  0
  194.1760  175.5600  142.2000 C   0  0  0  0  0  2  0  0  0  0  0  0
  195.4120  174.7790  141.7970 C   0  0  0  0  0  2  0  0  0  0  0  0
  196.4330  175.7110  141.1650 C   0  0  0  0  0  2  0  0  0  0  0  0
  197.9410  175.8740  139.3190 O   0  0  0  0  0  1  0  0  0  0  0  0
  197.2220  174.9690  140.1010 C   0  0  2  0  0  3  0  0  0  0  0  0
  196.2640  174.1870  139.2200 C   0  0  0  0  0  2  0  0  0  0  0  0
  195.3920  172.9660  136.5690 C   0  0  2  0  0  3  0  0  0  0  0  0
  193.7770  174.8550  136.7300 C   0  0  0  0  0  3  0  0  0  0  0  0
  194.8760  174.2210  135.8920 C   0  0  1  0  0  3  0  0  0  0  0  0
  196.1600  174.2730  136.6930 C   0  0  1  0  0  3  0  0  0  0  0  0
  195.8570  175.0050  138.0010 C   0  0  1  0  0  3  0  0  0  0  0  0
  194.3740  175.3120  138.0470 C   0  0  0  0  0  3  0  0  0  0  0  0
  196.0900  172.0780  135.5580 C   0  0  0  0  0  2  0  0  0  0  0  0
  195.7850  170.1550  137.1060 C   0  0  0  0  0  1  0  0  0  0  0  0
  194.1220  170.6040  135.3330 C   0  0  0  0  0  1  0  0  0  0  0  0
  195.5950  170.6480  135.6830 C   0  0  0  0  0  3  0  0  0  0  0  0
  187.9490  175.2100  141.1960 C   0  0  0  0  0  2  0  0  0  0  0  0
  187.4550  176.4580  140.4650 C   0  0  0  0  0  2  0  0  0  0  0  0
  187.7900  178.6430  142.2930 O   0  0  0  0  0  0  0  0  0  0  0  0
  186.3900  177.1140  141.2160 N   0  0  0  0  0  2  0  0  0  0  0  0
  186.6160  178.2390  142.0680 C   0  0  0  0  0  0  0  0  0  0  0  0
  185.5200  178.9050  142.6200 O   0  0  0  0  0  0  0  0  0  0  0  0
  185.6320  179.7380  143.7670 C   0  0  0  0  0  2  0  0  0  0  0  0
  185.2980  177.4600  147.3860 C   0  0  0  0  0  3  0  0  0  0  0  0
  184.2640  178.7680  145.6280 C   0  0  0  0  0  3  0  0  0  0  0  0
  186.5420  177.6000  146.7610 C   0  0  0  0  0  3  0  0  0  0  0  0
  185.5080  178.9180  145.0070 C   0  0  0  0  0  0  0  0  0  0  0  0
  184.1590  178.0410  146.8180 C   0  0  0  0  0  3  0  0  0  0  0  0
  186.6460  178.3310  145.5750 C   0  0  0  0  0  3  0  0  0  0  0  0
  192.0220  170.0260  142.9800 C   0  0  0  0  0  2  0  0  0  0  0  0
  192.9560  171.1430  143.4270 C   0  0  0  0  0  2  0  0  0  0  0  0
  193.8270  170.7250  144.6130 C   0  0  1  0  0  3  0  0  0  0  0  0
  195.6310  170.4830  142.8660 N   0  0  0  0  0  2  0  0  0  0  0  0
  195.8540  169.4970  144.9720 O   0  0  0  0  0  0  0  0  0  0  0  0
  195.1550  170.1880  144.1810 C   0  0  0  0  0  0  0  0  0  0  0  0
  196.7130  169.5100  140.9170 C   0  0  0  0  0  1  0  0  0  0  0  0
  196.8890  169.9610  142.3530 C   0  0  0  0  0  3  0  0  0  0  0  0
  197.9410  171.0460  142.4060 C   0  0  0  0  0  1  0  0  0  0  0  0
  193.9920  171.8250  145.5530 N   0  0  0  0  0  2  0  0  0  0  0  0
  193.9220  173.0610  144.7890 C   0  0  0  0  0  2  0  0  0  0  0  0
  191.8410  173.8670  145.9190 C   0  0  0  0  0  3  0  0  0  0  0  0
  189.4660  174.4230  147.0540 Cl  0  0  0  0  0  0  0  0  0  0  0  0
  193.1190  176.2150  146.7040 C   0  0  0  0  0  3  0  0  0  0  0  0
  191.1330  174.8180  146.6620 C   0  0  0  0  0  0  0  0  0  0  0  0
  193.1730  174.0870  145.5640 C   0  0  0  0  0  0  0  0  0  0  0  0
  193.8150  175.2600  145.9630 C   0  0  0  0  0  3  0  0  0  0  0  0
  191.7770  176.0170  147.0650 C   0  0  0  0  0  0  0  0  0  0  0  0
  191.5790  177.4280  148.9670 O   0  0  0  0  0  1  0  0  0  0  0  0
  189.9710  177.7250  147.3810 O   0  0  0  0  0  0  0  0  0  0  0  0
  191.1090  177.0830  147.8500 C   0  0  0  0  0  0  0  0  0  0  0  0
  1 16  1  0  0  0  0
  1 11  2  0  0  0  0
  3 11  1  0  0  0  0
  3 17  1  1  0  0  0
  3  7  1  0  0  0  0
  4 16  2  0  0  0  0
  5  8  1  0  0  0  0
  6  9  2  0  0  0  0
  6  2  1  0  0  0  0
  7 35  1  6  0  0  0
  7 15  1  0  0  0  0
  8  1  1  0  0  0  0
 10 48  1  1  0  0  0
 10  9  1  0  0  0  0
 11  6  1  0  0  0  0
 12  5  2  0  0  0  0
 12 14  1  0  0  0  0
 14  4  1  0  0  0  0
 15  2  1  0  0  0  0
 15 13  2  0  0  0  0
 16 10  1  0  0  0  0
 18 17  1  0  0  0  0
 18 19  1  0  0  0  0
 20 19  1  0  0  0  0
 21 20  1  0  0  0  0
 23 22  1  6  0  0  0
 23 21  1  0  0  0  0
 24 23  1  0  0  0  0
 25 31  1  6  0  0  0
 25 28  1  0  0  0  0
 26 30  2  0  0  0  0
 27 25  1  0  0  0  0
 27 28  1  0  0  0  0
 27 26  1  1  0  0  0
 28 29  1  0  0  0  0
 29 30  1  0  0  0  0
 29 24  1  0  0  0  0
 31 34  1  0  0  0  0
 33 34  1  0  0  0  0
 34 32  1  0  0  0  0
 36 35  1  0  0  0  0
 36 38  1  0  0  0  0
 38 39  1  0  0  0  0
 39 37  2  0  0  0  0
 39 40  1  0  0  0  0
 40 41  1  0  0  0  0
 41 45  1  0  0  0  0
 43 46  2  0  0  0  0
 44 42  2  0  0  0  0
 45 47  2  0  0  0  0
 45 43  1  0  0  0  0
 46 42  1  0  0  0  0
 47 44  1  0  0  0  0
 48 49  1  0  0  0  0
 49 50  1  0  0  0  0
 50 57  1  0  0  0  0
 51 53  1  0  0  0  0
 53 50  1  0  0  0  0
 53 52  2  0  0  0  0
 54 55  1  0  0  0  0
 55 56  1  0  0  0  0
 55 51  1  0  0  0  0
 58 57  1  0  0  0  0
 58 63  1  0  0  0  0
 59 62  1  0  0  0  0
 61 65  1  0  0  0  0
 62 60  1  0  0  0  0
 62 65  2  0  0  0  0
 63 59  2  0  0  0  0
 63 64  1  0  0  0  0
 64 61  2  0  0  0  0
 65 68  1  0  0  0  0
 67 68  2  0  0  0  0
 68 66  1  0  0  0  0
M  END
>  <MODEL>
2

>  <REMARK>
 VINA RESULT:      -5.6      2.866      9.445
  Name = 
  25 active torsions:
  status: ('A' for Active; 'I' for Inactive)
    1  A    between atoms: C_3  and  C_5
    2  A    between atoms: C_3  and  C_49
    3  A    between atoms: N_4  and  C_31
    4  A    between atoms: C_5  and  C_47
    5  A    between atoms: C_6  and  C_47
    6  A    between atoms: C_8  and  C_38
    7  A    between atoms: C_11  and  N_34
    8  A    between atoms: C_11  and  C_52
    9  A    between atoms: C_11  and  C_58
   10  A    between atoms: C_21  and  C_33
   11  A    between atoms: C_21  and  C_49
   12  A    between atoms: C_22  and  C_39
   13  A    between atoms: C_22  and  C_58
   14  A    between atoms: C_24  and  C_41
   15  A    between atoms: C_25  and  C_64
   16  A    between atoms: N_26  and  C_37
   17  A    between atoms: C_33  and  C_64
   18  A    between atoms: N_34  and  C_42
   19  A    between atoms: C_36  and  C_55
   20  A    between atoms: C_36  and  O_57
   21  A    between atoms: C_37  and  C_41
   22  A    between atoms: C_38  and  C_60
   23  A    between atoms: C_42  and  C_51
   24  A    between atoms: C_54  and  C_62
   25  A    between atoms: O_57  and  C_67
                            x       y       z     vdW  Elec       q    Type
                         _______ _______ _______ _____ _____    ______ ____

>  <TORSDO>
F 25

$$$$
=
 OpenBabel11062421063D

 68 74  0  0  1  0  0  0  0  0999 V2000
  193.6450  173.9100  139.5210 C   0  0  0  0  0  0  0  0  0  0  0  0
  190.3510  173.0370  138.0500 O   0  0  0  0  0  0  0  0  0  0  0  0
  191.7010  172.7720  140.5880 C   0  0  2  0  0  3  0  0  0  0  0  0
  195.5020  175.1370  138.3420 C   0  0  0  0  0  3  0  0  0  0  0  0
  194.7370  175.2060  141.3260 C   0  0  0  0  0  3  0  0  0  0  0  0
  191.6710  173.4870  138.1260 C   0  0  0  0  0  0  0  0  0  0  0  0
  190.1770  172.9660  140.5550 C   0  0  2  0  0  3  0  0  0  0  0  0
  194.3410  173.8410  140.8560 C   0  0  0  0  0  2  0  0  0  0  0  0
  192.2330  173.9640  137.0580 N   0  0  0  0  0  0  0  0  0  0  0  0
  193.6080  174.4530  136.9750 C   0  0  1  0  0  3  0  0  0  0  0  0
  192.3930  173.4280  139.4150 C   0  0  0  0  0  0  0  0  0  0  0  0
  195.7030  175.8840  140.7010 C   0  0  0  0  0  3  0  0  0  0  0  0
  188.4910  172.1550  139.0760 O   0  0  0  0  0  0  0  0  0  0  0  0
  196.4130  175.2900  139.5220 C   0  0  0  0  0  2  0  0  0  0  0  0
  189.6280  172.6830  139.1920 C   0  0  0  0  0  0  0  0  0  0  0  0
  194.3110  174.5060  138.3150 C   0  0  0  0  0  0  0  0  0  0  0  0
  192.0590  171.2890  140.6540 C   0  0  0  0  0  2  0  0  0  0  0  0
  192.0490  170.7910  142.0940 C   0  0  0  0  0  2  0  0  0  0  0  0
  193.4690  170.6250  142.6130 C   0  0  0  0  0  2  0  0  0  0  0  0
  193.6020  171.1860  144.0160 C   0  0  0  0  0  2  0  0  0  0  0  0
  193.3830  172.6900  143.9970 C   0  0  0  0  0  2  0  0  0  0  0  0
  191.1390  173.5070  144.0250 O   0  0  0  0  0  1  0  0  0  0  0  0
  192.1730  173.0470  144.8420 C   0  0  2  0  0  3  0  0  0  0  0  0
  192.5550  174.1300  145.8340 C   0  0  0  0  0  2  0  0  0  0  0  0
  192.4680  176.9950  144.8040 C   0  0  2  0  0  3  0  0  0  0  0  0
  194.5750  177.0740  146.1290 C   0  0  0  0  0  3  0  0  0  0  0  0
  193.9590  177.2710  144.7540 C   0  0  1  0  0  3  0  0  0  0  0  0
  193.4260  175.9330  144.2860 C   0  0  1  0  0  3  0  0  0  0  0  0
  193.7810  174.8980  145.3550 C   0  0  1  0  0  3  0  0  0  0  0  0
  194.4390  175.6140  146.5170 C   0  0  0  0  0  3  0  0  0  0  0  0
  191.7770  177.6520  143.6260 C   0  0  0  0  0  2  0  0  0  0  0  0
  189.8580  176.5400  144.7520 C   0  0  0  0  0  1  0  0  0  0  0  0
  189.4650  178.1350  142.9050 C   0  0  0  0  0  1  0  0  0  0  0  0
  190.3930  177.0590  143.4290 C   0  0  0  0  0  3  0  0  0  0  0  0
  189.7870  174.3800  140.9780 C   0  0  0  0  0  2  0  0  0  0  0  0
  188.2940  174.6480  140.7920 C   0  0  0  0  0  2  0  0  0  0  0  0
  186.5960  176.9050  141.2900 O   0  0  0  0  0  0  0  0  0  0  0  0
  187.6600  174.9750  142.0640 N   0  0  0  0  0  2  0  0  0  0  0  0
  186.7750  176.0850  142.2310 C   0  0  0  0  0  0  0  0  0  0  0  0
  186.0870  176.2300  143.4370 O   0  0  0  0  0  0  0  0  0  0  0  0
  185.3300  177.3930  143.7490 C   0  0  0  0  0  2  0  0  0  0  0  0
  185.8090  178.3230  147.9070 C   0  0  0  0  0  3  0  0  0  0  0  0
  186.7510  177.5790  145.8030 C   0  0  0  0  0  3  0  0  0  0  0  0
  184.5670  178.5030  147.2910 C   0  0  0  0  0  3  0  0  0  0  0  0
  185.5070  177.7480  145.1860 C   0  0  0  0  0  0  0  0  0  0  0  0
  186.9020  177.8650  147.1630 C   0  0  0  0  0  3  0  0  0  0  0  0
  184.4170  178.2120  145.9320 C   0  0  0  0  0  3  0  0  0  0  0  0
  194.3730  173.5950  135.9780 C   0  0  0  0  0  2  0  0  0  0  0  0
  195.4990  172.8610  136.6950 C   0  0  0  0  0  2  0  0  0  0  0  0
  195.0570  171.4890  137.2070 C   0  0  1  0  0  3  0  0  0  0  0  0
  192.7350  170.5960  136.7850 N   0  0  0  0  0  2  0  0  0  0  0  0
  194.3750  170.5240  135.1220 O   0  0  0  0  0  0  0  0  0  0  0  0
  194.0590  170.8390  136.3020 C   0  0  0  0  0  0  0  0  0  0  0  0
  190.7240  169.2340  136.8920 C   0  0  0  0  0  1  0  0  0  0  0  0
  191.7210  169.9280  135.9850 C   0  0  0  0  0  3  0  0  0  0  0  0
  190.9930  170.9490  135.1400 C   0  0  0  0  0  1  0  0  0  0  0  0
  196.2050  170.6190  137.4260 N   0  0  0  0  0  2  0  0  0  0  0  0
  197.1910  171.3840  138.1720 C   0  0  0  0  0  2  0  0  0  0  0  0
  197.1170  171.9210  140.6150 C   0  0  0  0  0  3  0  0  0  0  0  0
  197.0030  172.8330  143.1430 Cl  0  0  0  0  0  0  0  0  0  0  0  0
  197.1530  169.2110  141.2610 C   0  0  0  0  0  3  0  0  0  0  0  0
  197.0840  171.5370  141.9590 C   0  0  0  0  0  0  0  0  0  0  0  0
  197.1750  170.9640  139.6000 C   0  0  0  0  0  0  0  0  0  0  0  0
  197.1850  169.6080  139.9230 C   0  0  0  0  0  3  0  0  0  0  0  0
  197.1020  170.1580  142.2970 C   0  0  0  0  0  0  0  0  0  0  0  0
  197.8910  170.1040  144.5380 O   0  0  0  0  0  1  0  0  0  0  0  0
  196.1540  168.6960  144.0980 O   0  0  0  0  0  0  0  0  0  0  0  0
  197.0730  169.6540  143.6910 C   0  0  0  0  0  0  0  0  0  0  0  0
  1  8  1  0  0  0  0
  2  6  1  0  0  0  0
  2 15  1  0  0  0  0
  3 17  1  6  0  0  0
  4 14  1  0  0  0  0
  6 11  1  0  0  0  0
  7  3  1  0  0  0  0
  7 35  1  6  0  0  0
  8  5  1  0  0  0  0
  9  6  2  0  0  0  0
 10 48  1  6  0  0  0
 10  9  1  0  0  0  0
 10 16  1  0  0  0  0
 11  1  2  0  0  0  0
 11  3  1  0  0  0  0
 12  5  2  0  0  0  0
 13 15  2  0  0  0  0
 14 12  1  0  0  0  0
 15  7  1  0  0  0  0
 16  4  2  0  0  0  0
 16  1  1  0  0  0  0
 17 18  1  0  0  0  0
 18 19  1  0  0  0  0
 19 20  1  0  0  0  0
 21 20  1  0  0  0  0
 21 23  1  0  0  0  0
 23 22  1  6  0  0  0
 23 24  1  0  0  0  0
 25 31  1  6  0  0  0
 26 30  2  0  0  0  0
 27 25  1  0  0  0  0
 27 26  1  1  0  0  0
 28 27  1  0  0  0  0
 28 25  1  0  0  0  0
 28 29  1  0  0  0  0
 29 24  1  0  0  0  0
 29 30  1  0  0  0  0
 33 34  1  0  0  0  0
 34 31  1  0  0  0  0
 34 32  1  0  0  0  0
 36 35  1  0  0  0  0
 36 38  1  0  0  0  0
 37 39  2  0  0  0  0
 38 39  1  0  0  0  0
 39 40  1  0  0  0  0
 40 41  1  0  0  0  0
 41 45  1  0  0  0  0
 43 46  1  0  0  0  0
 44 42  1  0  0  0  0
 45 43  2  0  0  0  0
 45 47  1  0  0  0  0
 46 42  2  0  0  0  0
 47 44  2  0  0  0  0
 48 49  1  0  0  0  0
 49 50  1  0  0  0  0
 50 57  1  0  0  0  0
 52 53  2  0  0  0  0
 53 51  1  0  0  0  0
 53 50  1  0  0  0  0
 55 51  1  0  0  0  0
 55 54  1  0  0  0  0
 56 55  1  0  0  0  0
 57 58  1  0  0  0  0
 58 63  1  0  0  0  0
 59 62  1  0  0  0  0
 61 65  1  0  0  0  0
 62 65  2  0  0  0  0
 62 60  1  0  0  0  0
 63 64  1  0  0  0  0
 63 59  2  0  0  0  0
 64 61  2  0  0  0  0
 65 68  1  0  0  0  0
 68 67  2  0  0  0  0
 68 66  1  0  0  0  0
M  END
>  <MODEL>
3

>  <REMARK>
 VINA RESULT:      -5.2      2.619      9.487
  Name = 
  25 active torsions:
  status: ('A' for Active; 'I' for Inactive)
    1  A    between atoms: C_3  and  C_5
    2  A    between atoms: C_3  and  C_49
    3  A    between atoms: N_4  and  C_31
    4  A    between atoms: C_5  and  C_47
    5  A    between atoms: C_6  and  C_47
    6  A    between atoms: C_8  and  C_38
    7  A    between atoms: C_11  and  N_34
    8  A    between atoms: C_11  and  C_52
    9  A    between atoms: C_11  and  C_58
   10  A    between atoms: C_21  and  C_33
   11  A    between atoms: C_21  and  C_49
   12  A    between atoms: C_22  and  C_39
   13  A    between atoms: C_22  and  C_58
   14  A    between atoms: C_24  and  C_41
   15  A    between atoms: C_25  and  C_64
   16  A    between atoms: N_26  and  C_37
   17  A    between atoms: C_33  and  C_64
   18  A    between atoms: N_34  and  C_42
   19  A    between atoms: C_36  and  C_55
   20  A    between atoms: C_36  and  O_57
   21  A    between atoms: C_37  and  C_41
   22  A    between atoms: C_38  and  C_60
   23  A    between atoms: C_42  and  C_51
   24  A    between atoms: C_54  and  C_62
   25  A    between atoms: O_57  and  C_67
                            x       y       z     vdW  Elec       q    Type
                         _______ _______ _______ _____ _____    ______ ____

>  <TORSDO>
F 25

$$$$
=
 OpenBabel11062421063D

 68 74  0  0  1  0  0  0  0  0999 V2000
  192.7760  174.0860  141.1580 C   0  0  0  0  0  0  0  0  0  0  0  0
  191.0400  171.9170  138.6960 O   0  0  0  0  0  0  0  0  0  0  0  0
  190.5280  173.0210  141.3140 C   0  0  2  0  0  3  0  0  0  0  0  0
  195.0290  175.1620  140.8350 C   0  0  0  0  0  3  0  0  0  0  0  0
  192.5970  176.2160  142.4060 C   0  0  0  0  0  3  0  0  0  0  0  0
  192.0570  172.6710  139.2860 C   0  0  0  0  0  0  0  0  0  0  0  0
  189.3590  172.8030  140.3400 C   0  0  2  0  0  3  0  0  0  0  0  0
  192.4990  174.7250  142.4940 C   0  0  0  0  0  2  0  0  0  0  0  0
  193.1810  172.8080  138.6540 N   0  0  0  0  0  0  0  0  0  0  0  0
  194.3420  173.5480  139.1490 C   0  0  1  0  0  3  0  0  0  0  0  0
  191.8290  173.3080  140.6010 C   0  0  0  0  0  0  0  0  0  0  0  0
  193.7790  176.8070  142.2110 C   0  0  0  0  0  3  0  0  0  0  0  0
  188.8970  171.0830  138.7540 O   0  0  0  0  0  0  0  0  0  0  0  0
  195.0300  175.9900  142.0840 C   0  0  0  0  0  2  0  0  0  0  0  0
  189.7500  171.8770  139.2310 C   0  0  0  0  0  0  0  0  0  0  0  0
  194.0740  174.3000  140.4350 C   0  0  0  0  0  0  0  0  0  0  0  0
  190.6860  171.8240  142.2480 C   0  0  0  0  0  2  0  0  0  0  0  0
  189.7860  171.9640  143.4700 C   0  0  0  0  0  2  0  0  0  0  0  0
  190.5520  172.5750  144.6330 C   0  0  0  0  0  2  0  0  0  0  0  0
  189.7360  173.6600  145.3100 C   0  0  0  0  0  2  0  0  0  0  0  0
  190.5880  174.9030  145.5100 C   0  0  0  0  0  2  0  0  0  0  0  0
  189.9600  177.1750  145.8960 O   0  0  0  0  0  1  0  0  0  0  0  0
  189.8530  176.1230  144.9840 C   0  0  2  0  0  3  0  0  0  0  0  0
  188.3890  175.7770  144.7780 C   0  0  0  0  0  2  0  0  0  0  0  0
  186.7550  178.2180  143.9720 C   0  0  2  0  0  3  0  0  0  0  0  0
  188.3530  178.1160  142.0640 C   0  0  0  0  0  3  0  0  0  0  0  0
  186.8870  178.1010  142.4660 C   0  0  1  0  0  3  0  0  0  0  0  0
  186.6450  176.8590  143.2970 C   0  0  1  0  0  3  0  0  0  0  0  0
  187.9580  176.0760  143.3470 C   0  0  1  0  0  3  0  0  0  0  0  0
  189.0250  176.8810  142.6350 C   0  0  0  0  0  3  0  0  0  0  0  0
  185.3650  178.7010  144.3370 C   0  0  0  0  0  2  0  0  0  0  0  0
  184.5440  177.5690  146.3940 C   0  0  0  0  0  1  0  0  0  0  0  0
  186.6030  178.9350  146.4610 C   0  0  0  0  0  1  0  0  0  0  0  0
  185.2250  178.8100  145.8450 C   0  0  0  0  0  3  0  0  0  0  0  0
  188.8700  174.1240  139.7520 C   0  0  0  0  0  2  0  0  0  0  0  0
  188.2490  173.9470  138.3680 C   0  0  0  0  0  2  0  0  0  0  0  0
  189.2650  172.7460  135.9700 O   0  0  0  0  0  0  0  0  0  0  0  0
  189.0460  174.6190  137.3480 N   0  0  0  0  0  2  0  0  0  0  0  0
  189.4730  173.9780  136.1450 C   0  0  0  0  0  0  0  0  0  0  0  0
  190.0930  174.7390  135.1510 O   0  0  0  0  0  0  0  0  0  0  0  0
  191.3870  174.4310  134.6500 C   0  0  0  0  0  2  0  0  0  0  0  0
  193.9430  177.8380  135.1490 C   0  0  0  0  0  3  0  0  0  0  0  0
  193.6470  175.4360  135.0460 C   0  0  0  0  0  3  0  0  0  0  0  0
  192.5820  178.0190  134.8830 C   0  0  0  0  0  3  0  0  0  0  0  0
  192.2840  175.6140  134.7900 C   0  0  0  0  0  0  0  0  0  0  0  0
  194.4760  176.5470  135.2270 C   0  0  0  0  0  3  0  0  0  0  0  0
  191.7540  176.9080  134.7070 C   0  0  0  0  0  3  0  0  0  0  0  0
  195.5090  172.5840  139.2980 C   0  0  0  0  0  2  0  0  0  0  0  0
  195.0810  171.1920  138.8500 C   0  0  0  0  0  2  0  0  0  0  0  0
  194.9000  170.2370  140.0310 C   0  0  1  0  0  3  0  0  0  0  0  0
  192.6240  169.2020  140.3660 N   0  0  0  0  0  2  0  0  0  0  0  0
  194.1960  168.2210  138.9430 O   0  0  0  0  0  0  0  0  0  0  0  0
  193.9090  169.1550  139.7410 C   0  0  0  0  0  0  0  0  0  0  0  0
  190.6490  168.1660  141.3360 C   0  0  0  0  0  1  0  0  0  0  0  0
  191.6210  168.1660  140.1730 C   0  0  0  0  0  3  0  0  0  0  0  0
  190.8620  168.4340  138.8930 C   0  0  0  0  0  1  0  0  0  0  0  0
  196.1780  169.6740  140.4470 N   0  0  0  0  0  2  0  0  0  0  0  0
  196.0840  169.3920  141.8710 C   0  0  0  0  0  2  0  0  0  0  0  0
  195.1190  170.9230  143.5980 C   0  0  0  0  0  3  0  0  0  0  0  0
  193.8520  172.3120  145.5220 Cl  0  0  0  0  0  0  0  0  0  0  0  0
  197.1360  172.7900  143.1400 C   0  0  0  0  0  3  0  0  0  0  0  0
  195.1320  172.1120  144.3340 C   0  0  0  0  0  0  0  0  0  0  0  0
  196.0980  170.6690  142.6360 C   0  0  0  0  0  0  0  0  0  0  0  0
  197.1110  171.6000  142.4120 C   0  0  0  0  0  3  0  0  0  0  0  0
  196.1560  173.0680  144.1070 C   0  0  0  0  0  0  0  0  0  0  0  0
  195.3870  174.6530  145.7030 O   0  0  0  0  0  1  0  0  0  0  0  0
  197.2830  175.2530  144.5910 O   0  0  0  0  0  0  0  0  0  0  0  0
  196.2520  174.3570  144.8350 C   0  0  0  0  0  0  0  0  0  0  0  0
  1  8  1  0  0  0  0
  2 15  1  0  0  0  0
  2  6  1  0  0  0  0
  3 17  1  6  0  0  0
  4 14  1  0  0  0  0
  5  8  1  0  0  0  0
  6 11  1  0  0  0  0
  7 35  1  6  0  0  0
  7  3  1  0  0  0  0
  9 10  1  0  0  0  0
  9  6  2  0  0  0  0
 10 48  1  1  0  0  0
 10 16  1  0  0  0  0
 11  1  2  0  0  0  0
 11  3  1  0  0  0  0
 12  5  2  0  0  0  0
 13 15  2  0  0  0  0
 14 12  1  0  0  0  0
 15  7  1  0  0  0  0
 16  4  2  0  0  0  0
 16  1  1  0  0  0  0
 17 18  1  0  0  0  0
 18 19  1  0  0  0  0
 19 20  1  0  0  0  0
 20 21  1  0  0  0  0
 23 21  1  0  0  0  0
 23 22  1  1  0  0  0
 24 23  1  0  0  0  0
 25 31  1  6  0  0  0
 26 30  2  0  0  0  0
 27 26  1  1  0  0  0
 27 28  1  0  0  0  0
 27 25  1  0  0  0  0
 28 29  1  0  0  0  0
 28 25  1  0  0  0  0
 29 24  1  0  0  0  0
 30 29  1  0  0  0  0
 31 34  1  0  0  0  0
 34 32  1  0  0  0  0
 34 33  1  0  0  0  0
 36 35  1  0  0  0  0
 37 39  2  0  0  0  0
 38 36  1  0  0  0  0
 39 38  1  0  0  0  0
 40 39  1  0  0  0  0
 41 45  1  0  0  0  0
 41 40  1  0  0  0  0
 42 46  1  0  0  0  0
 43 46  2  0  0  0  0
 44 42  2  0  0  0  0
 45 43  1  0  0  0  0
 47 45  2  0  0  0  0
 47 44  1  0  0  0  0
 49 48  1  0  0  0  0
 49 50  1  0  0  0  0
 50 57  1  0  0  0  0
 52 53  2  0  0  0  0
 53 50  1  0  0  0  0
 53 51  1  0  0  0  0
 55 51  1  0  0  0  0
 55 54  1  0  0  0  0
 56 55  1  0  0  0  0
 57 58  1  0  0  0  0
 58 63  1  0  0  0  0
 59 62  1  0  0  0  0
 61 65  1  0  0  0  0
 62 60  1  0  0  0  0
 63 59  2  0  0  0  0
 64 63  1  0  0  0  0
 64 61  2  0  0  0  0
 65 62  2  0  0  0  0
 65 68  1  0  0  0  0
 67 68  2  0  0  0  0
 68 66  1  0  0  0  0
M  END
>  <MODEL>
4

>  <REMARK>
 VINA RESULT:      -5.0      2.794      8.300
  Name = 
  25 active torsions:
  status: ('A' for Active; 'I' for Inactive)
    1  A    between atoms: C_3  and  C_5
    2  A    between atoms: C_3  and  C_49
    3  A    between atoms: N_4  and  C_31
    4  A    between atoms: C_5  and  C_47
    5  A    between atoms: C_6  and  C_47
    6  A    between atoms: C_8  and  C_38
    7  A    between atoms: C_11  and  N_34
    8  A    between atoms: C_11  and  C_52
    9  A    between atoms: C_11  and  C_58
   10  A    between atoms: C_21  and  C_33
   11  A    between atoms: C_21  and  C_49
   12  A    between atoms: C_22  and  C_39
   13  A    between atoms: C_22  and  C_58
   14  A    between atoms: C_24  and  C_41
   15  A    between atoms: C_25  and  C_64
   16  A    between atoms: N_26  and  C_37
   17  A    between atoms: C_33  and  C_64
   18  A    between atoms: N_34  and  C_42
   19  A    between atoms: C_36  and  C_55
   20  A    between atoms: C_36  and  O_57
   21  A    between atoms: C_37  and  C_41
   22  A    between atoms: C_38  and  C_60
   23  A    between atoms: C_42  and  C_51
   24  A    between atoms: C_54  and  C_62
   25  A    between atoms: O_57  and  C_67
                            x       y       z     vdW  Elec       q    Type
                         _______ _______ _______ _____ _____    ______ ____

>  <TORSDO>
F 25

$$$$
=
 OpenBabel11062421063D

 68 74  0  0  1  0  0  0  0  0999 V2000
  189.6380  173.7970  140.3210 C   0  0  0  0  0  0  0  0  0  0  0  0
  188.7730  174.0700  136.7220 O   0  0  0  0  0  0  0  0  0  0  0  0
  190.9300  173.0280  138.3330 C   0  0  2  0  0  3  0  0  0  0  0  0
  188.1930  174.5520  142.2400 C   0  0  0  0  0  3  0  0  0  0  0  0
  190.1600  172.1830  142.1240 C   0  0  0  0  0  3  0  0  0  0  0  0
  188.6860  174.2470  138.1040 C   0  0  0  0  0  0  0  0  0  0  0  0
  190.5750  172.3410  137.0050 C   0  0  2  0  0  3  0  0  0  0  0  0
  190.7220  173.2000  141.1810 C   0  0  0  0  0  2  0  0  0  0  0  0
  187.6720  174.8940  138.5900 N   0  0  0  0  0  0  0  0  0  0  0  0
  187.4530  175.1770  140.0070 C   0  0  1  0  0  3  0  0  0  0  0  0
  189.7350  173.6850  138.9830 C   0  0  0  0  0  0  0  0  0  0  0  0
  189.3720  172.5590  143.1350 C   0  0  0  0  0  3  0  0  0  0  0  0
  189.8710  173.2020  134.8960 O   0  0  0  0  0  0  0  0  0  0  0  0
  189.0410  174.0060  143.3480 C   0  0  0  0  0  2  0  0  0  0  0  0
  189.7340  173.2340  136.1470 C   0  0  0  0  0  0  0  0  0  0  0  0
  188.4560  174.5030  140.9190 C   0  0  0  0  0  0  0  0  0  0  0  0
  192.0520  174.0450  138.1350 C   0  0  0  0  0  2  0  0  0  0  0  0
  193.0550  173.5530  137.0980 C   0  0  0  0  0  2  0  0  0  0  0  0
  194.4800  173.7750  137.5840 C   0  0  0  0  0  2  0  0  0  0  0  0
  194.5090  174.0200  139.0810 C   0  0  0  0  0  2  0  0  0  0  0  0
  195.1870  175.3480  139.3760 C   0  0  0  0  0  2  0  0  0  0  0  0
  194.2050  176.4360  141.2630 O   0  0  0  0  0  1  0  0  0  0  0  0
  195.2370  175.5800  140.8760 C   0  0  2  0  0  3  0  0  0  0  0  0
  196.5740  176.1980  141.2440 C   0  0  0  0  0  2  0  0  0  0  0  0
  195.5690  175.0700  143.8890 C   0  0  2  0  0  3  0  0  0  0  0  0
  196.7200  173.0620  142.9690 C   0  0  0  0  0  3  0  0  0  0  0  0
  196.6550  174.0390  144.1310 C   0  0  1  0  0  3  0  0  0  0  0  0
  197.0250  175.4110  143.6070 C   0  0  1  0  0  3  0  0  0  0  0  0
  197.3830  175.2560  142.1280 C   0  0  1  0  0  3  0  0  0  0  0  0
  197.1380  173.8170  141.7220 C   0  0  0  0  0  3  0  0  0  0  0  0
  195.1580  175.7110  145.2000 C   0  0  0  0  0  2  0  0  0  0  0  0
  192.9530  175.0590  144.2530 C   0  0  0  0  0  1  0  0  0  0  0  0
  193.1260  175.8220  146.5980 C   0  0  0  0  0  1  0  0  0  0  0  0
  193.6690  176.0080  145.1960 C   0  0  0  0  0  3  0  0  0  0  0  0
  189.8430  171.0230  137.2400 C   0  0  0  0  0  2  0  0  0  0  0  0
  190.4090  170.2510  138.4310 C   0  0  0  0  0  2  0  0  0  0  0  0
  191.7630  168.1660  137.0010 O   0  0  0  0  0  0  0  0  0  0  0  0
  191.8540  170.0960  138.3120 N   0  0  0  0  0  2  0  0  0  0  0  0
  192.4670  169.0670  137.5340 C   0  0  0  0  0  0  0  0  0  0  0  0
  193.8500  169.0890  137.3450 O   0  0  0  0  0  0  0  0  0  0  0  0
  194.4440  169.3760  136.0850 C   0  0  0  0  0  2  0  0  0  0  0  0
  197.6460  172.1920  136.5370 C   0  0  0  0  0  3  0  0  0  0  0  0
  195.8990  171.2040  135.1810 C   0  0  0  0  0  3  0  0  0  0  0  0
  197.2770  171.3750  137.6110 C   0  0  0  0  0  3  0  0  0  0  0  0
  195.5350  170.3790  136.2500 C   0  0  0  0  0  0  0  0  0  0  0  0
  196.9550  172.1080  135.3240 C   0  0  0  0  0  3  0  0  0  0  0  0
  196.2250  170.4680  137.4660 C   0  0  0  0  0  3  0  0  0  0  0  0
  187.4410  176.6850  140.2090 C   0  0  0  0  0  2  0  0  0  0  0  0
  186.1970  177.2760  139.5590 C   0  0  0  0  0  2  0  0  0  0  0  0
  185.3050  177.9980  140.5710 C   0  0  1  0  0  3  0  0  0  0  0  0
  182.8960  178.6030  141.0120 N   0  0  0  0  0  2  0  0  0  0  0  0
  183.4740  177.1430  139.2820 O   0  0  0  0  0  0  0  0  0  0  0  0
  183.8520  177.8720  140.2400 C   0  0  0  0  0  0  0  0  0  0  0  0
  180.7890  177.9010  142.0040 C   0  0  0  0  0  1  0  0  0  0  0  0
  181.4630  178.4990  140.7850 C   0  0  0  0  0  3  0  0  0  0  0  0
  180.8930  179.8770  140.5300 C   0  0  0  0  0  1  0  0  0  0  0  0
  185.5730  177.5330  141.9260 N   0  0  0  0  0  2  0  0  0  0  0  0
  186.1000  178.6640  142.6740 C   0  0  0  0  0  2  0  0  0  0  0  0
  186.4040  177.9570  145.0540 C   0  0  0  0  0  3  0  0  0  0  0  0
  186.3860  177.2410  147.6470 Cl  0  0  0  0  0  0  0  0  0  0  0  0
  189.1000  177.4180  144.6000 C   0  0  0  0  0  3  0  0  0  0  0  0
  187.1940  177.4790  146.1050 C   0  0  0  0  0  0  0  0  0  0  0  0
  186.9540  178.1720  143.7900 C   0  0  0  0  0  0  0  0  0  0  0  0
  188.3020  177.8950  143.5600 C   0  0  0  0  0  3  0  0  0  0  0  0
  188.5680  177.2020  145.8820 C   0  0  0  0  0  0  0  0  0  0  0  0
  190.1020  177.5090  147.6710 O   0  0  0  0  0  1  0  0  0  0  0  0
  189.6770  175.3360  147.1340 O   0  0  0  0  0  0  0  0  0  0  0  0
  189.4840  176.6960  146.9330 C   0  0  0  0  0  0  0  0  0  0  0  0
  1 16  1  0  0  0  0
  1  8  1  0  0  0  0
  2  6  1  0  0  0  0
  3 17  1  6  0  0  0
  3 11  1  0  0  0  0
  4 14  1  0  0  0  0
  5 12  2  0  0  0  0
  6  9  2  0  0  0  0
  6 11  1  0  0  0  0
  7 35  1  1  0  0  0
  7  3  1  0  0  0  0
  8  5  1  0  0  0  0
  9 10  1  0  0  0  0
 10 48  1  6  0  0  0
 10 16  1  0  0  0  0
 11  1  2  0  0  0  0
 12 14  1  0  0  0  0
 13 15  2  0  0  0  0
 15  2  1  0  0  0  0
 15  7  1  0  0  0  0
 16  4  2  0  0  0  0
 18 19  1  0  0  0  0
 18 17  1  0  0  0  0
 19 20  1  0  0  0  0
 20 21  1  0  0  0  0
 21 23  1  0  0  0  0
 23 24  1  0  0  0  0
 23 22  1  6  0  0  0
 24 29  1  0  0  0  0
 25 27  1  0  0  0  0
 25 31  1  1  0  0  0
 27 26  1  6  0  0  0
 28 25  1  0  0  0  0
 28 27  1  0  0  0  0
 29 28  1  0  0  0  0
 30 29  1  0  0  0  0
 30 26  2  0  0  0  0
 32 34  1  0  0  0  0
 34 31  1  0  0  0  0
 34 33  1  0  0  0  0
 35 36  1  0  0  0  0
 37 39  2  0  0  0  0
 38 36  1  0  0  0  0
 39 38  1  0  0  0  0
 40 39  1  0  0  0  0
 41 45  1  0  0  0  0
 41 40  1  0  0  0  0
 42 44  1  0  0  0  0
 43 46  1  0  0  0  0
 43 45  2  0  0  0  0
 45 47  1  0  0  0  0
 46 42  2  0  0  0  0
 47 44  2  0  0  0  0
 49 48  1  0  0  0  0
 49 50  1  0  0  0  0
 50 57  1  0  0  0  0
 52 53  2  0  0  0  0
 53 50  1  0  0  0  0
 53 51  1  0  0  0  0
 55 51  1  0  0  0  0
 55 54  1  0  0  0  0
 56 55  1  0  0  0  0
 57 58  1  0  0  0  0
 58 63  1  0  0  0  0
 59 62  1  0  0  0  0
 61 65  1  0  0  0  0
 62 60  1  0  0  0  0
 63 59  2  0  0  0  0
 64 63  1  0  0  0  0
 64 61  2  0  0  0  0
 65 62  2  0  0  0  0
 65 68  1  0  0  0  0
 68 67  2  0  0  0  0
 68 66  1  0  0  0  0
M  END
>  <MODEL>
5

>  <REMARK>
 VINA RESULT:      -4.6      1.307      2.060
  Name = 
  25 active torsions:
  status: ('A' for Active; 'I' for Inactive)
    1  A    between atoms: C_3  and  C_5
    2  A    between atoms: C_3  and  C_49
    3  A    between atoms: N_4  and  C_31
    4  A    between atoms: C_5  and  C_47
    5  A    between atoms: C_6  and  C_47
    6  A    between atoms: C_8  and  C_38
    7  A    between atoms: C_11  and  N_34
    8  A    between atoms: C_11  and  C_52
    9  A    between atoms: C_11  and  C_58
   10  A    between atoms: C_21  and  C_33
   11  A    between atoms: C_21  and  C_49
   12  A    between atoms: C_22  and  C_39
   13  A    between atoms: C_22  and  C_58
   14  A    between atoms: C_24  and  C_41
   15  A    between atoms: C_25  and  C_64
   16  A    between atoms: N_26  and  C_37
   17  A    between atoms: C_33  and  C_64
   18  A    between atoms: N_34  and  C_42
   19  A    between atoms: C_36  and  C_55
   20  A    between atoms: C_36  and  O_57
   21  A    between atoms: C_37  and  C_41
   22  A    between atoms: C_38  and  C_60
   23  A    between atoms: C_42  and  C_51
   24  A    between atoms: C_54  and  C_62
   25  A    between atoms: O_57  and  C_67
                            x       y       z     vdW  Elec       q    Type
                         _______ _______ _______ _____ _____    ______ ____

>  <TORSDO>
F 25

$$$$
=
 OpenBabel11062421063D

 68 74  0  0  1  0  0  0  0  0999 V2000
  191.4940  175.0220  142.5340 C   0  0  0  0  0  0  0  0  0  0  0  0
  192.1370  172.0340  140.4280 O   0  0  0  0  0  0  0  0  0  0  0  0
  190.2380  172.8710  142.4350 C   0  0  2  0  0  3  0  0  0  0  0  0
  192.8060  177.1700  142.4760 C   0  0  0  0  0  3  0  0  0  0  0  0
  189.8090  176.7580  143.0620 C   0  0  0  0  0  3  0  0  0  0  0  0
  192.3290  173.2880  141.0110 C   0  0  0  0  0  0  0  0  0  0  0  0
  189.7860  171.9280  141.3080 C   0  0  2  0  0  3  0  0  0  0  0  0
  190.4740  175.5020  143.5330 C   0  0  0  0  0  2  0  0  0  0  0  0
  193.3580  173.9930  140.6550 N   0  0  0  0  0  0  0  0  0  0  0  0
  193.7040  175.3100  141.1890 C   0  0  1  0  0  3  0  0  0  0  0  0
  191.3560  173.7920  142.0040 C   0  0  0  0  0  0  0  0  0  0  0  0
  190.4940  177.9030  143.0010 C   0  0  0  0  0  3  0  0  0  0  0  0
  190.8780  170.1220  140.1980 O   0  0  0  0  0  0  0  0  0  0  0  0
  191.9350  177.9550  143.4090 C   0  0  0  0  0  2  0  0  0  0  0  0
  190.9630  171.3030  140.6270 C   0  0  0  0  0  0  0  0  0  0  0  0
  192.6500  175.8810  142.1130 C   0  0  0  0  0  0  0  0  0  0  0  0
  190.6490  172.0800  143.6740 C   0  0  0  0  0  2  0  0  0  0  0  0
  189.6900  172.3410  144.8290 C   0  0  0  0  0  2  0  0  0  0  0  0
  189.9600  173.7020  145.4520 C   0  0  0  0  0  2  0  0  0  0  0  0
  189.0560  173.9400  146.6460 C   0  0  0  0  0  2  0  0  0  0  0  0
  189.1000  175.4050  147.0480 C   0  0  0  0  0  2  0  0  0  0  0  0
  187.3070  175.5570  145.4780 O   0  0  0  0  0  1  0  0  0  0  0  0
  187.7940  176.0830  146.6750 C   0  0  2  0  0  3  0  0  0  0  0  0
  188.0290  177.5740  146.5150 C   0  0  0  0  0  2  0  0  0  0  0  0
  185.9530  178.0630  144.3410 C   0  0  2  0  0  3  0  0  0  0  0  0
  184.4550  177.6170  146.2790 C   0  0  0  0  0  3  0  0  0  0  0  0
  184.8370  178.6200  145.2040 C   0  0  1  0  0  3  0  0  0  0  0  0
  186.2670  179.0500  145.4550 C   0  0  1  0  0  3  0  0  0  0  0  0
  186.7380  178.3540  146.7330 C   0  0  1  0  0  3  0  0  0  0  0  0
  185.6390  177.4260  147.2080 C   0  0  0  0  0  3  0  0  0  0  0  0
  185.9960  178.7910  143.0110 C   0  0  0  0  0  2  0  0  0  0  0  0
  187.2720  178.1430  140.9770 C   0  0  0  0  0  1  0  0  0  0  0  0
  186.2960  176.4070  142.4410 C   0  0  0  0  0  1  0  0  0  0  0  0
  186.0940  177.7950  141.8690 C   0  0  0  0  0  3  0  0  0  0  0  0
  188.9300  172.6610  140.2790 C   0  0  0  0  0  2  0  0  0  0  0  0
  189.1330  172.1160  138.8650 C   0  0  0  0  0  2  0  0  0  0  0  0
  190.4700  171.3480  136.4470 O   0  0  0  0  0  0  0  0  0  0  0  0
  190.0950  172.9270  138.1270 N   0  0  0  0  0  2  0  0  0  0  0  0
  190.6820  172.5090  136.8940 C   0  0  0  0  0  0  0  0  0  0  0  0
  191.4670  173.4120  136.1740 O   0  0  0  0  0  0  0  0  0  0  0  0
  192.3930  174.2890  136.8020 C   0  0  0  0  0  2  0  0  0  0  0  0
  192.6870  177.9040  134.5140 C   0  0  0  0  0  3  0  0  0  0  0  0
  191.3350  176.1690  135.5290 C   0  0  0  0  0  3  0  0  0  0  0  0
  193.8430  177.3070  135.0280 C   0  0  0  0  0  3  0  0  0  0  0  0
  192.4900  175.5640  136.0350 C   0  0  0  0  0  0  0  0  0  0  0  0
  191.4340  177.3370  134.7670 C   0  0  0  0  0  3  0  0  0  0  0  0
  193.7430  176.1370  135.7850 C   0  0  0  0  0  3  0  0  0  0  0  0
  195.0590  175.2190  141.8750 C   0  0  0  0  0  2  0  0  0  0  0  0
  195.9420  174.2270  141.1290 C   0  0  0  0  0  2  0  0  0  0  0  0
  196.1330  172.9260  141.9090 C   0  0  1  0  0  3  0  0  0  0  0  0
  195.9620  171.8070  139.6540 N   0  0  0  0  0  2  0  0  0  0  0  0
  197.0340  170.7540  141.4430 O   0  0  0  0  0  0  0  0  0  0  0  0
  196.4060  171.7600  141.0120 C   0  0  0  0  0  0  0  0  0  0  0  0
  195.1500  170.8030  137.5930 C   0  0  0  0  0  1  0  0  0  0  0  0
  196.1460  170.6980  138.7310 C   0  0  0  0  0  3  0  0  0  0  0  0
  197.5490  170.7410  138.1680 C   0  0  0  0  0  1  0  0  0  0  0  0
  197.1810  173.0670  142.9120 N   0  0  0  0  0  2  0  0  0  0  0  0
  196.7200  172.3950  144.1170 C   0  0  0  0  0  2  0  0  0  0  0  0
  195.8750  174.6180  144.8940 C   0  0  0  0  0  3  0  0  0  0  0  0
  195.2450  177.1450  145.5660 Cl  0  0  0  0  0  0  0  0  0  0  0  0
  193.5850  173.4330  145.9490 C   0  0  0  0  0  3  0  0  0  0  0  0
  194.9150  175.4190  145.5190 C   0  0  0  0  0  0  0  0  0  0  0  0
  195.7000  173.2360  144.8000 C   0  0  0  0  0  0  0  0  0  0  0  0
  194.5500  172.6440  145.3220 C   0  0  0  0  0  3  0  0  0  0  0  0
  193.7450  174.8240  146.0600 C   0  0  0  0  0  0  0  0  0  0  0  0
  192.0870  175.0930  147.7410 O   0  0  0  0  0  1  0  0  0  0  0  0
  192.3020  176.8560  146.3140 O   0  0  0  0  0  0  0  0  0  0  0  0
  192.6750  175.5890  146.7420 C   0  0  0  0  0  0  0  0  0  0  0  0
  1  8  1  0  0  0  0
  2 15  1  0  0  0  0
  2  6  1  0  0  0  0
  3 17  1  1  0  0  0
  4 14  1  0  0  0  0
  5  8  1  0  0  0  0
  6 11  1  0  0  0  0
  7 35  1  6  0  0  0
  7  3  1  0  0  0  0
  9  6  2  0  0  0  0
  9 10  1  0  0  0  0
 10 48  1  1  0  0  0
 10 16  1  0  0  0  0
 11  3  1  0  0  0  0
 11  1  2  0  0  0  0
 12  5  2  0  0  0  0
 12 14  1  0  0  0  0
 13 15  2  0  0  0  0
 15  7  1  0  0  0  0
 16  4  2  0  0  0  0
 16  1  1  0  0  0  0
 17 18  1  0  0  0  0
 18 19  1  0  0  0  0
 19 20  1  0  0  0  0
 20 21  1  0  0  0  0
 23 22  1  6  0  0  0
 23 21  1  0  0  0  0
 24 23  1  0  0  0  0
 24 29  1  0  0  0  0
 25 31  1  6  0  0  0
 25 27  1  0  0  0  0
 25 28  1  0  0  0  0
 26 30  2  0  0  0  0
 27 28  1  0  0  0  0
 27 26  1  1  0  0  0
 28 29  1  0  0  0  0
 29 30  1  0  0  0  0
 32 34  1  0  0  0  0
 34 33  1  0  0  0  0
 34 31  1  0  0  0  0
 36 35  1  0  0  0  0
 37 39  2  0  0  0  0
 38 36  1  0  0  0  0
 39 38  1  0  0  0  0
 40 41  1  0  0  0  0
 40 39  1  0  0  0  0
 42 46  2  0  0  0  0
 42 44  1  0  0  0  0
 43 45  2  0  0  0  0
 44 47  2  0  0  0  0
 45 41  1  0  0  0  0
 46 43  1  0  0  0  0
 47 45  1  0  0  0  0
 49 48  1  0  0  0  0
 49 50  1  0  0  0  0
 50 57  1  0  0  0  0
 51 53  1  0  0  0  0
 53 52  2  0  0  0  0
 53 50  1  0  0  0  0
 54 55  1  0  0  0  0
 55 51  1  0  0  0  0
 56 55  1  0  0  0  0
 57 58  1  0  0  0  0
 58 63  1  0  0  0  0
 59 62  1  0  0  0  0
 61 65  1  0  0  0  0
 62 60  1  0  0  0  0
 62 65  2  0  0  0  0
 63 59  2  0  0  0  0
 63 64  1  0  0  0  0
 64 61  2  0  0  0  0
 65 68  1  0  0  0  0
 67 68  2  0  0  0  0
 68 66  1  0  0  0  0
M  END
>  <MODEL>
6

>  <REMARK>
 VINA RESULT:      -4.6      2.820      8.338
  Name = 
  25 active torsions:
  status: ('A' for Active; 'I' for Inactive)
    1  A    between atoms: C_3  and  C_5
    2  A    between atoms: C_3  and  C_49
    3  A    between atoms: N_4  and  C_31
    4  A    between atoms: C_5  and  C_47
    5  A    between atoms: C_6  and  C_47
    6  A    between atoms: C_8  and  C_38
    7  A    between atoms: C_11  and  N_34
    8  A    between atoms: C_11  and  C_52
    9  A    between atoms: C_11  and  C_58
   10  A    between atoms: C_21  and  C_33
   11  A    between atoms: C_21  and  C_49
   12  A    between atoms: C_22  and  C_39
   13  A    between atoms: C_22  and  C_58
   14  A    between atoms: C_24  and  C_41
   15  A    between atoms: C_25  and  C_64
   16  A    between atoms: N_26  and  C_37
   17  A    between atoms: C_33  and  C_64
   18  A    between atoms: N_34  and  C_42
   19  A    between atoms: C_36  and  C_55
   20  A    between atoms: C_36  and  O_57
   21  A    between atoms: C_37  and  C_41
   22  A    between atoms: C_38  and  C_60
   23  A    between atoms: C_42  and  C_51
   24  A    between atoms: C_54  and  C_62
   25  A    between atoms: O_57  and  C_67
                            x       y       z     vdW  Elec       q    Type
                         _______ _______ _______ _____ _____    ______ ____

>  <TORSDO>
F 25

$$$$
=
 OpenBabel11062421063D

 68 74  0  0  1  0  0  0  0  0999 V2000
  195.2880  173.0010  144.3240 C   0  0  0  0  0  0  0  0  0  0  0  0
  194.5390  175.0540  141.3240 O   0  0  0  0  0  0  0  0  0  0  0  0
  195.7610  175.4140  143.9150 C   0  0  2  0  0  3  0  0  0  0  0  0
  194.8210  170.5400  144.5740 C   0  0  0  0  0  3  0  0  0  0  0  0
  197.1250  172.1950  145.7750 C   0  0  0  0  0  3  0  0  0  0  0  0
  194.5530  173.9560  142.1860 C   0  0  0  0  0  0  0  0  0  0  0  0
  196.2660  176.2340  142.7170 C   0  0  2  0  0  3  0  0  0  0  0  0
  195.9820  173.1530  145.6530 C   0  0  0  0  0  2  0  0  0  0  0  0
  193.9920  172.8510  141.8020 N   0  0  0  0  0  0  0  0  0  0  0  0
  193.9080  171.6270  142.5970 C   0  0  1  0  0  3  0  0  0  0  0  0
  195.2150  174.0660  143.5040 C   0  0  0  0  0  0  0  0  0  0  0  0
  196.9010  170.8830  145.8840 C   0  0  0  0  0  3  0  0  0  0  0  0
  195.1350  177.2290  140.8680 O   0  0  0  0  0  0  0  0  0  0  0  0
  195.5020  170.3450  145.8950 C   0  0  0  0  0  2  0  0  0  0  0  0
  195.2760  176.2110  141.5950 C   0  0  0  0  0  0  0  0  0  0  0  0
  194.6860  171.6950  143.8940 C   0  0  0  0  0  0  0  0  0  0  0  0
  194.7120  176.1940  144.7040 C   0  0  0  0  0  2  0  0  0  0  0  0
  193.7030  175.2510  145.3490 C   0  0  0  0  0  2  0  0  0  0  0  0
  192.8940  175.9790  146.4110 C   0  0  0  0  0  2  0  0  0  0  0  0
  192.1830  174.9940  147.3200 C   0  0  0  0  0  2  0  0  0  0  0  0
  191.0210  175.6780  148.0210 C   0  0  0  0  0  2  0  0  0  0  0  0
  191.2100  177.8170  149.0680 O   0  0  0  0  0  1  0  0  0  0  0  0
  191.1140  177.1810  147.8290 C   0  0  2  0  0  3  0  0  0  0  0  0
  189.8760  177.6720  147.1010 C   0  0  0  0  0  2  0  0  0  0  0  0
  187.4920  178.0550  145.2440 C   0  0  2  0  0  3  0  0  0  0  0  0
  189.3430  178.0490  143.5790 C   0  0  0  0  0  3  0  0  0  0  0  0
  188.0480  177.3780  144.0060 C   0  0  1  0  0  3  0  0  0  0  0  0
  188.2740  176.7560  145.3690 C   0  0  1  0  0  3  0  0  0  0  0  0
  189.7380  176.9920  145.7440 C   0  0  1  0  0  3  0  0  0  0  0  0
  190.3810  177.8390  144.6650 C   0  0  0  0  0  3  0  0  0  0  0  0
  186.0120  177.7550  145.3820 C   0  0  0  0  0  2  0  0  0  0  0  0
  185.0760  179.4300  143.8000 C   0  0  0  0  0  1  0  0  0  0  0  0
  183.8190  178.7970  145.8320 C   0  0  0  0  0  1  0  0  0  0  0  0
  185.2010  179.0330  145.2590 C   0  0  0  0  0  3  0  0  0  0  0  0
  197.6140  175.7200  142.2190 C   0  0  0  0  0  2  0  0  0  0  0  0
  197.6160  175.4680  140.7120 C   0  0  0  0  0  2  0  0  0  0  0  0
  196.2180  174.3860  138.4540 O   0  0  0  0  0  0  0  0  0  0  0  0
  197.4330  174.0510  140.4200 N   0  0  0  0  0  2  0  0  0  0  0  0
  196.7760  173.5760  139.2440 C   0  0  0  0  0  0  0  0  0  0  0  0
  196.7870  172.2080  138.9630 O   0  0  0  0  0  0  0  0  0  0  0  0
  195.7180  171.3450  139.3300 C   0  0  0  0  0  2  0  0  0  0  0  0
  193.6630  169.8740  135.8660 C   0  0  0  0  0  3  0  0  0  0  0  0
  193.6510  171.1420  137.9300 C   0  0  0  0  0  3  0  0  0  0  0  0
  195.0240  169.6010  136.0390 C   0  0  0  0  0  3  0  0  0  0  0  0
  195.0100  170.8630  138.1100 C   0  0  0  0  0  0  0  0  0  0  0  0
  192.9780  170.6460  136.8100 C   0  0  0  0  0  3  0  0  0  0  0  0
  195.6950  170.0940  137.1610 C   0  0  0  0  0  3  0  0  0  0  0  0
  192.4420  171.3030  142.8430 C   0  0  0  0  0  2  0  0  0  0  0  0
  191.9230  170.4100  141.7230 C   0  0  0  0  0  2  0  0  0  0  0  0
  190.5250  170.8220  141.2590 C   0  0  1  0  0  3  0  0  0  0  0  0
  190.4390  173.0810  142.3810 N   0  0  0  0  0  2  0  0  0  0  0  0
  188.8240  171.4520  142.8270 O   0  0  0  0  0  0  0  0  0  0  0  0
  189.8720  171.7800  142.2040 C   0  0  0  0  0  0  0  0  0  0  0  0
  188.3930  174.1700  143.1190 C   0  0  0  0  0  1  0  0  0  0  0  0
  189.8920  174.0530  143.3150 C   0  0  0  0  0  3  0  0  0  0  0  0
  190.1730  173.6020  144.7310 C   0  0  0  0  0  1  0  0  0  0  0  0
  190.5620  171.3690  139.9090 N   0  0  0  0  0  2  0  0  0  0  0  0
  189.2080  171.7770  139.5690 C   0  0  0  0  0  2  0  0  0  0  0  0
  190.3090  172.7530  137.5460 C   0  0  0  0  0  3  0  0  0  0  0  0
  191.7310  173.5490  135.4060 Cl  0  0  0  0  0  0  0  0  0  0  0  0
  188.2270  174.5780  137.2340 C   0  0  0  0  0  3  0  0  0  0  0  0
  190.3470  173.6610  136.4820 C   0  0  0  0  0  0  0  0  0  0  0  0
  189.2470  172.7590  138.4520 C   0  0  0  0  0  0  0  0  0  0  0  0
  188.2010  173.6680  138.2920 C   0  0  0  0  0  3  0  0  0  0  0  0
  189.2900  174.5940  136.3170 C   0  0  0  0  0  0  0  0  0  0  0  0
  188.1560  175.8220  134.6270 O   0  0  0  0  0  0  0  0  0  0  0  0
  190.3730  176.3030  134.8390 O   0  0  0  0  0  1  0  0  0  0  0  0
  189.2430  175.5950  135.2240 C   0  0  0  0  0  0  0  0  0  0  0  0
  1  8  1  0  0  0  0
  2 15  1  0  0  0  0
  2  6  1  0  0  0  0
  3 17  1  6  0  0  0
  4 14  1  0  0  0  0
  5 12  2  0  0  0  0
  6 11  1  0  0  0  0
  7 35  1  6  0  0  0
  7  3  1  0  0  0  0
  8  5  1  0  0  0  0
  9  6  2  0  0  0  0
  9 10  1  0  0  0  0
 10 48  1  1  0  0  0
 10 16  1  0  0  0  0
 11  3  1  0  0  0  0
 11  1  2  0  0  0  0
 12 14  1  0  0  0  0
 13 15  2  0  0  0  0
 15  7  1  0  0  0  0
 16  1  1  0  0  0  0
 16  4  2  0  0  0  0
 17 18  1  0  0  0  0
 18 19  1  0  0  0  0
 19 20  1  0  0  0  0
 20 21  1  0  0  0  0
 23 21  1  0  0  0  0
 23 22  1  1  0  0  0
 24 23  1  0  0  0  0
 25 28  1  0  0  0  0
 25 31  1  6  0  0  0
 26 30  2  0  0  0  0
 27 26  1  1  0  0  0
 27 25  1  0  0  0  0
 27 28  1  0  0  0  0
 28 29  1  0  0  0  0
 29 24  1  0  0  0  0
 30 29  1  0  0  0  0
 32 34  1  0  0  0  0
 34 31  1  0  0  0  0
 34 33  1  0  0  0  0
 36 35  1  0  0  0  0
 37 39  2  0  0  0  0
 38 36  1  0  0  0  0
 39 38  1  0  0  0  0
 40 39  1  0  0  0  0
 40 41  1  0  0  0  0
 42 44  2  0  0  0  0
 42 46  1  0  0  0  0
 43 45  1  0  0  0  0
 44 47  1  0  0  0  0
 45 41  1  0  0  0  0
 46 43  2  0  0  0  0
 47 45  2  0  0  0  0
 49 48  1  0  0  0  0
 50 49  1  0  0  0  0
 50 53  1  0  0  0  0
 51 55  1  0  0  0  0
 53 51  1  0  0  0  0
 53 52  2  0  0  0  0
 54 55  1  0  0  0  0
 55 56  1  0  0  0  0
 57 50  1  0  0  0  0
 58 57  1  0  0  0  0
 59 63  1  0  0  0  0
 60 62  1  0  0  0  0
 61 64  1  0  0  0  0
 62 59  2  0  0  0  0
 63 58  1  0  0  0  0
 64 63  2  0  0  0  0
 65 62  1  0  0  0  0
 65 61  2  0  0  0  0
 66 68  2  0  0  0  0
 67 68  1  0  0  0  0
 68 65  1  0  0  0  0
M  END
>  <MODEL>
7

>  <REMARK>
 VINA RESULT:      -4.2      3.074      8.149
  Name = 
  25 active torsions:
  status: ('A' for Active; 'I' for Inactive)
    1  A    between atoms: C_3  and  C_5
    2  A    between atoms: C_3  and  C_49
    3  A    between atoms: N_4  and  C_31
    4  A    between atoms: C_5  and  C_47
    5  A    between atoms: C_6  and  C_47
    6  A    between atoms: C_8  and  C_38
    7  A    between atoms: C_11  and  N_34
    8  A    between atoms: C_11  and  C_52
    9  A    between atoms: C_11  and  C_58
   10  A    between atoms: C_21  and  C_33
   11  A    between atoms: C_21  and  C_49
   12  A    between atoms: C_22  and  C_39
   13  A    between atoms: C_22  and  C_58
   14  A    between atoms: C_24  and  C_41
   15  A    between atoms: C_25  and  C_64
   16  A    between atoms: N_26  and  C_37
   17  A    between atoms: C_33  and  C_64
   18  A    between atoms: N_34  and  C_42
   19  A    between atoms: C_36  and  C_55
   20  A    between atoms: C_36  and  O_57
   21  A    between atoms: C_37  and  C_41
   22  A    between atoms: C_38  and  C_60
   23  A    between atoms: C_42  and  C_51
   24  A    between atoms: C_54  and  C_62
   25  A    between atoms: O_57  and  C_67
                            x       y       z     vdW  Elec       q    Type
                         _______ _______ _______ _____ _____    ______ ____

>  <TORSDO>
F 25

$$$$
=
 OpenBabel11062421063D

 68 74  0  0  1  0  0  0  0  0999 V2000
  187.3870  176.3640  140.4860 C   0  0  0  0  0  0  0  0  0  0  0  0
  186.7500  176.2180  144.1400 O   0  0  0  0  0  0  0  0  0  0  0  0
  186.6450  178.1790  142.0240 C   0  0  2  0  0  3  0  0  0  0  0  0
  188.0630  174.4210  139.0340 C   0  0  0  0  0  3  0  0  0  0  0  0
  186.3340  176.8640  138.3020 C   0  0  0  0  0  3  0  0  0  0  0  0
  187.1490  175.8100  142.8650 C   0  0  0  0  0  0  0  0  0  0  0  0
  185.6550  178.2740  143.1970 C   0  0  2  0  0  3  0  0  0  0  0  0
  187.2740  177.3560  139.3580 C   0  0  0  0  0  2  0  0  0  0  0  0
  187.5750  174.5970  142.7010 N   0  0  0  0  0  0  0  0  0  0  0  0
  188.0440  174.0310  141.4360 C   0  0  1  0  0  3  0  0  0  0  0  0
  187.0620  176.7570  141.7310 C   0  0  0  0  0  0  0  0  0  0  0  0
  186.6620  175.8200  137.5360 C   0  0  0  0  0  3  0  0  0  0  0  0
  185.8920  177.8380  145.5290 O   0  0  0  0  0  0  0  0  0  0  0  0
  187.9790  175.1270  137.7140 C   0  0  0  0  0  2  0  0  0  0  0  0
  186.1140  177.4440  144.3540 C   0  0  0  0  0  0  0  0  0  0  0  0
  187.8460  174.9540  140.2530 C   0  0  0  0  0  0  0  0  0  0  0  0
  187.8720  179.0520  142.2780 C   0  0  0  0  0  2  0  0  0  0  0  0
  189.1570  178.2730  142.0200 C   0  0  0  0  0  2  0  0  0  0  0  0
  189.8580  177.9470  143.3290 C   0  0  0  0  0  2  0  0  0  0  0  0
  190.9460  176.9110  143.1170 C   0  0  0  0  0  2  0  0  0  0  0  0
  192.0240  177.0660  144.1770 C   0  0  0  0  0  2  0  0  0  0  0  0
  194.3570  176.6220  144.4330 O   0  0  0  0  0  1  0  0  0  0  0  0
  193.1760  176.1210  143.8850 C   0  0  2  0  0  3  0  0  0  0  0  0
  193.3360  175.9740  142.3820 C   0  0  0  0  0  2  0  0  0  0  0  0
  193.7100  173.8690  140.2130 C   0  0  2  0  0  3  0  0  0  0  0  0
  195.7630  175.2330  139.8540 C   0  0  0  0  0  3  0  0  0  0  0  0
  195.2260  173.8460  140.1690 C   0  0  1  0  0  3  0  0  0  0  0  0
  194.5140  173.9140  141.5040 C   0  0  1  0  0  3  0  0  0  0  0  0
  194.6770  175.3370  142.0390 C   0  0  1  0  0  3  0  0  0  0  0  0
  195.3980  176.1650  140.9940 C   0  0  0  0  0  3  0  0  0  0  0  0
  193.1620  172.4680  140.0220 C   0  0  0  0  0  2  0  0  0  0  0  0
  191.1130  171.4980  138.9990 C   0  0  0  0  0  1  0  0  0  0  0  0
  191.8220  173.7970  138.4290 C   0  0  0  0  0  1  0  0  0  0  0  0
  192.3100  172.4030  138.7670 C   0  0  0  0  0  3  0  0  0  0  0  0
  184.2550  177.8350  142.7780 C   0  0  0  0  0  2  0  0  0  0  0  0
  183.4790  178.9560  142.0880 C   0  0  0  0  0  2  0  0  0  0  0  0
  181.7530  177.6180  140.2290 O   0  0  0  0  0  0  0  0  0  0  0  0
  182.0410  178.7680  142.2420 N   0  0  0  0  0  2  0  0  0  0  0  0
  181.2460  178.0380  141.3050 C   0  0  0  0  0  0  0  0  0  0  0  0
  179.9110  177.7680  141.6120 O   0  0  0  0  0  0  0  0  0  0  0  0
  178.9040  177.6670  140.6120 C   0  0  0  0  0  2  0  0  0  0  0  0
  178.0390  181.5260  138.9520 C   0  0  0  0  0  3  0  0  0  0  0  0
  178.9890  180.1680  140.7200 C   0  0  0  0  0  3  0  0  0  0  0  0
  177.6930  180.3690  138.2470 C   0  0  0  0  0  3  0  0  0  0  0  0
  178.6350  179.0100  140.0210 C   0  0  0  0  0  0  0  0  0  0  0  0
  178.6900  181.4260  140.1870 C   0  0  0  0  0  3  0  0  0  0  0  0
  177.9880  179.1130  138.7830 C   0  0  0  0  0  3  0  0  0  0  0  0
  189.5030  173.6290  141.5910 C   0  0  0  0  0  2  0  0  0  0  0  0
  189.6080  172.4570  142.5590 C   0  0  0  0  0  2  0  0  0  0  0  0
  190.6630  172.6970  143.6410 C   0  0  1  0  0  3  0  0  0  0  0  0
  190.2780  174.3660  145.4930 N   0  0  0  0  0  2  0  0  0  0  0  0
  189.3390  172.2280  145.5830 O   0  0  0  0  0  0  0  0  0  0  0  0
  190.0550  173.0590  144.9580 C   0  0  0  0  0  0  0  0  0  0  0  0
  190.8710  175.4040  147.6110 C   0  0  0  0  0  1  0  0  0  0  0  0
  189.7610  174.7800  146.7880 C   0  0  0  0  0  3  0  0  0  0  0  0
  188.6610  175.7980  146.5880 C   0  0  0  0  0  1  0  0  0  0  0  0
  191.5450  171.5440  143.7740 N   0  0  0  0  0  2  0  0  0  0  0  0
  192.8660  171.9570  143.3260 C   0  0  0  0  0  2  0  0  0  0  0  0
  194.8060  170.3780  143.2890 C   0  0  0  0  0  3  0  0  0  0  0  0
  196.8760  168.7050  142.9000 Cl  0  0  0  0  0  0  0  0  0  0  0  0
  194.9820  170.4530  146.0680 C   0  0  0  0  0  3  0  0  0  0  0  0
  195.7970  169.6310  143.9330 C   0  0  0  0  0  0  0  0  0  0  0  0
  193.9050  171.1510  144.0230 C   0  0  0  0  0  0  0  0  0  0  0  0
  193.9980  171.1940  145.4140 C   0  0  0  0  0  3  0  0  0  0  0  0
  195.8940  169.6630  145.3490 C   0  0  0  0  0  0  0  0  0  0  0  0
  197.8170  168.2770  145.5130 O   0  0  0  0  0  0  0  0  0  0  0  0
  196.8880  168.8690  147.5070 O   0  0  0  0  0  1  0  0  0  0  0  0
  196.9070  168.9040  146.1200 C   0  0  0  0  0  0  0  0  0  0  0  0
  1 11  2  0  0  0  0
  2 15  1  0  0  0  0
  3 17  1  1  0  0  0
  3  7  1  0  0  0  0
  4 16  2  0  0  0  0
  5  8  1  0  0  0  0
  6  2  1  0  0  0  0
  7 35  1  6  0  0  0
  7 15  1  0  0  0  0
  8  1  1  0  0  0  0
  9  6  2  0  0  0  0
 10 48  1  1  0  0  0
 10  9  1  0  0  0  0
 11  3  1  0  0  0  0
 11  6  1  0  0  0  0
 12 14  1  0  0  0  0
 12  5  2  0  0  0  0
 14  4  1  0  0  0  0
 15 13  2  0  0  0  0
 16  1  1  0  0  0  0
 16 10  1  0  0  0  0
 18 17  1  0  0  0  0
 18 19  1  0  0  0  0
 20 19  1  0  0  0  0
 20 21  1  0  0  0  0
 23 21  1  0  0  0  0
 23 22  1  6  0  0  0
 24 23  1  0  0  0  0
 25 31  1  1  0  0  0
 25 28  1  0  0  0  0
 26 30  2  0  0  0  0
 27 26  1  6  0  0  0
 27 25  1  0  0  0  0
 27 28  1  0  0  0  0
 28 29  1  0  0  0  0
 29 24  1  0  0  0  0
 30 29  1  0  0  0  0
 33 34  1  0  0  0  0
 34 32  1  0  0  0  0
 34 31  1  0  0  0  0
 36 38  1  0  0  0  0
 36 35  1  0  0  0  0
 37 39  2  0  0  0  0
 39 40  1  0  0  0  0
 39 38  1  0  0  0  0
 41 40  1  0  0  0  0
 42 46  1  0  0  0  0
 44 47  1  0  0  0  0
 44 42  2  0  0  0  0
 45 41  1  0  0  0  0
 45 43  1  0  0  0  0
 46 43  2  0  0  0  0
 47 45  2  0  0  0  0
 48 49  1  0  0  0  0
 49 50  1  0  0  0  0
 50 57  1  0  0  0  0
 50 53  1  0  0  0  0
 51 55  1  0  0  0  0
 53 51  1  0  0  0  0
 53 52  2  0  0  0  0
 55 54  1  0  0  0  0
 56 55  1  0  0  0  0
 58 57  1  0  0  0  0
 58 63  1  0  0  0  0
 59 62  2  0  0  0  0
 59 63  1  0  0  0  0
 60 62  1  0  0  0  0
 62 65  1  0  0  0  0
 63 64  2  0  0  0  0
 64 61  1  0  0  0  0
 65 61  2  0  0  0  0
 65 68  1  0  0  0  0
 66 68  2  0  0  0  0
 68 67  1  0  0  0  0
M  END
>  <MODEL>
8

>  <REMARK>
 VINA RESULT:      -4.2      3.373     10.153
  Name = 
  25 active torsions:
  status: ('A' for Active; 'I' for Inactive)
    1  A    between atoms: C_3  and  C_5
    2  A    between atoms: C_3  and  C_49
    3  A    between atoms: N_4  and  C_31
    4  A    between atoms: C_5  and  C_47
    5  A    between atoms: C_6  and  C_47
    6  A    between atoms: C_8  and  C_38
    7  A    between atoms: C_11  and  N_34
    8  A    between atoms: C_11  and  C_52
    9  A    between atoms: C_11  and  C_58
   10  A    between atoms: C_21  and  C_33
   11  A    between atoms: C_21  and  C_49
   12  A    between atoms: C_22  and  C_39
   13  A    between atoms: C_22  and  C_58
   14  A    between atoms: C_24  and  C_41
   15  A    between atoms: C_25  and  C_64
   16  A    between atoms: N_26  and  C_37
   17  A    between atoms: C_33  and  C_64
   18  A    between atoms: N_34  and  C_42
   19  A    between atoms: C_36  and  C_55
   20  A    between atoms: C_36  and  O_57
   21  A    between atoms: C_37  and  C_41
   22  A    between atoms: C_38  and  C_60
   23  A    between atoms: C_42  and  C_51
   24  A    between atoms: C_54  and  C_62
   25  A    between atoms: O_57  and  C_67
                            x       y       z     vdW  Elec       q    Type
                         _______ _______ _______ _____ _____    ______ ____

>  <TORSDO>
F 25

$$$$
=
 OpenBabel11062421063D

 68 74  0  0  1  0  0  0  0  0999 V2000
  191.6400  173.8160  142.8380 C   0  0  0  0  0  0  0  0  0  0  0  0
  194.5380  173.8330  145.1570 O   0  0  0  0  0  0  0  0  0  0  0  0
  193.6340  175.3110  142.8480 C   0  0  2  0  0  3  0  0  0  0  0  0
  189.6450  172.2890  142.9920 C   0  0  0  0  0  3  0  0  0  0  0  0
  189.7730  175.1960  141.9780 C   0  0  0  0  0  3  0  0  0  0  0  0
  193.3520  173.4160  144.5510 C   0  0  0  0  0  0  0  0  0  0  0  0
  194.4500  176.0280  143.9360 C   0  0  2  0  0  3  0  0  0  0  0  0
  191.1200  174.6190  141.6740 C   0  0  0  0  0  2  0  0  0  0  0  0
  192.7380  172.3760  145.0250 N   0  0  0  0  0  0  0  0  0  0  0  0
  191.5030  171.8070  144.4870 C   0  0  1  0  0  3  0  0  0  0  0  0
  192.8120  174.1700  143.3980 C   0  0  0  0  0  0  0  0  0  0  0  0
  188.7050  174.4020  142.0880 C   0  0  0  0  0  3  0  0  0  0  0  0
  196.2870  175.3220  145.2840 O   0  0  0  0  0  0  0  0  0  0  0  0
  188.8320  172.9200  141.9010 C   0  0  0  0  0  2  0  0  0  0  0  0
  195.1520  175.0420  144.8170 C   0  0  0  0  0  0  0  0  0  0  0  0
  190.8830  172.6430  143.3880 C   0  0  0  0  0  0  0  0  0  0  0  0
  194.5430  174.8180  141.7250 C   0  0  0  0  0  2  0  0  0  0  0  0
  194.1570  175.4520  140.3940 C   0  0  0  0  0  2  0  0  0  0  0  0
  194.6890  174.6250  139.2330 C   0  0  0  0  0  2  0  0  0  0  0  0
  196.1100  175.0300  138.8860 C   0  0  0  0  0  2  0  0  0  0  0  0
  196.6510  174.1330  137.7840 C   0  0  0  0  0  2  0  0  0  0  0  0
  196.5070  173.8900  135.4120 O   0  0  0  0  0  1  0  0  0  0  0  0
  195.7790  174.2530  136.5470 C   0  0  2  0  0  3  0  0  0  0  0  0
  195.3000  175.6860  136.4060 C   0  0  0  0  0  2  0  0  0  0  0  0
  192.3120  175.0990  136.4340 C   0  0  2  0  0  3  0  0  0  0  0  0
  192.3390  177.1470  135.0170 C   0  0  0  0  0  3  0  0  0  0  0  0
  191.9460  175.6800  135.0810 C   0  0  1  0  0  3  0  0  0  0  0  0
  193.2140  174.8650  135.2320 C   0  0  1  0  0  3  0  0  0  0  0  0
  194.3930  175.8380  135.1900 C   0  0  1  0  0  3  0  0  0  0  0  0
  193.8490  177.2500  135.1160 C   0  0  0  0  0  3  0  0  0  0  0  0
  191.5040  173.8430  136.6960 C   0  0  0  0  0  2  0  0  0  0  0  0
  189.5600  173.6980  138.2400 C   0  0  0  0  0  1  0  0  0  0  0  0
  191.6840  172.5660  138.8020 C   0  0  0  0  0  1  0  0  0  0  0  0
  191.0720  173.7890  138.1510 C   0  0  0  0  0  3  0  0  0  0  0  0
  193.5660  176.9340  144.7880 C   0  0  0  0  0  2  0  0  0  0  0  0
  192.9300  176.1870  145.9600 C   0  0  0  0  0  2  0  0  0  0  0  0
  191.1450  175.6650  148.1420 O   0  0  0  0  0  0  0  0  0  0  0  0
  191.4760  176.2910  145.9170 N   0  0  0  0  0  2  0  0  0  0  0  0
  190.6450  176.0740  147.0580 C   0  0  0  0  0  0  0  0  0  0  0  0
  189.2800  176.3510  146.9690 O   0  0  0  0  0  0  0  0  0  0  0  0
  188.5280  176.1100  145.7850 C   0  0  0  0  0  2  0  0  0  0  0  0
  185.0550  178.6190  145.6150 C   0  0  0  0  0  3  0  0  0  0  0  0
  186.3390  176.8890  146.7220 C   0  0  0  0  0  3  0  0  0  0  0  0
  186.0550  178.7440  144.6450 C   0  0  0  0  0  3  0  0  0  0  0  0
  187.3360  177.0040  145.7470 C   0  0  0  0  0  0  0  0  0  0  0  0
  185.1990  177.6940  146.6550 C   0  0  0  0  0  3  0  0  0  0  0  0
  187.1920  177.9350  144.7110 C   0  0  0  0  0  3  0  0  0  0  0  0
  191.7800  170.3870  144.0200 C   0  0  0  0  0  2  0  0  0  0  0  0
  192.5380  170.4240  142.6990 C   0  0  0  0  0  2  0  0  0  0  0  0
  194.0320  170.1530  142.8840 C   0  0  1  0  0  3  0  0  0  0  0  0
  195.2290  169.7950  145.0760 N   0  0  0  0  0  2  0  0  0  0  0  0
  193.7350  168.2030  144.2450 O   0  0  0  0  0  0  0  0  0  0  0  0
  194.3120  169.3140  144.0900 C   0  0  0  0  0  0  0  0  0  0  0  0
  196.8300  169.6080  146.8980 C   0  0  0  0  0  1  0  0  0  0  0  0
  195.5900  169.0200  146.2540 C   0  0  0  0  0  3  0  0  0  0  0  0
  194.4510  169.0550  147.2480 C   0  0  0  0  0  1  0  0  0  0  0  0
  194.6060  169.5520  141.6870 N   0  0  0  0  0  2  0  0  0  0  0  0
  193.6480  169.7370  140.6090 C   0  0  0  0  0  2  0  0  0  0  0  0
  193.7110  169.6950  138.1080 C   0  0  0  0  0  3  0  0  0  0  0  0
  193.4370  169.5800  135.4350 Cl  0  0  0  0  0  0  0  0  0  0  0  0
  196.3830  170.4850  138.1150 C   0  0  0  0  0  3  0  0  0  0  0  0
  194.3780  169.8680  136.8910 C   0  0  0  0  0  0  0  0  0  0  0  0
  194.3720  169.9070  139.3200 C   0  0  0  0  0  0  0  0  0  0  0  0
  195.7070  170.3090  139.3230 C   0  0  0  0  0  3  0  0  0  0  0  0
  195.7390  170.2700  136.8850 C   0  0  0  0  0  0  0  0  0  0  0  0
  195.9400  170.5830  134.5380 O   0  0  0  0  0  0  0  0  0  0  0  0
  197.9140  170.5630  135.6760 O   0  0  0  0  0  1  0  0  0  0  0  0
  196.5290  170.4760  135.6480 C   0  0  0  0  0  0  0  0  0  0  0  0
  1 16  1  0  0  0  0
  1 11  2  0  0  0  0
  3 17  1  6  0  0  0
  3 11  1  0  0  0  0
  3  7  1  0  0  0  0
  4 16  2  0  0  0  0
  5 12  2  0  0  0  0
  6  9  2  0  0  0  0
  6  2  1  0  0  0  0
  7 35  1  1  0  0  0
  7 15  1  0  0  0  0
  8  5  1  0  0  0  0
  8  1  1  0  0  0  0
 10 48  1  6  0  0  0
 10  9  1  0  0  0  0
 11  6  1  0  0  0  0
 14 12  1  0  0  0  0
 14  4  1  0  0  0  0
 15  2  1  0  0  0  0
 15 13  2  0  0  0  0
 16 10  1  0  0  0  0
 18 17  1  0  0  0  0
 19 18  1  0  0  0  0
 20 19  1  0  0  0  0
 21 20  1  0  0  0  0
 23 22  1  6  0  0  0
 23 21  1  0  0  0  0
 24 23  1  0  0  0  0
 25 31  1  6  0  0  0
 26 30  2  0  0  0  0
 27 26  1  1  0  0  0
 27 28  1  0  0  0  0
 27 25  1  0  0  0  0
 28 25  1  0  0  0  0
 29 28  1  0  0  0  0
 29 24  1  0  0  0  0
 30 29  1  0  0  0  0
 31 34  1  0  0  0  0
 34 32  1  0  0  0  0
 34 33  1  0  0  0  0
 35 36  1  0  0  0  0
 38 36  1  0  0  0  0
 38 39  1  0  0  0  0
 39 37  2  0  0  0  0
 40 39  1  0  0  0  0
 41 40  1  0  0  0  0
 42 46  1  0  0  0  0
 44 47  1  0  0  0  0
 44 42  2  0  0  0  0
 45 41  1  0  0  0  0
 45 43  1  0  0  0  0
 46 43  2  0  0  0  0
 47 45  2  0  0  0  0
 49 50  1  0  0  0  0
 49 48  1  0  0  0  0
 50 53  1  0  0  0  0
 51 55  1  0  0  0  0
 53 52  2  0  0  0  0
 53 51  1  0  0  0  0
 55 54  1  0  0  0  0
 55 56  1  0  0  0  0
 57 50  1  0  0  0  0
 58 57  1  0  0  0  0
 59 63  1  0  0  0  0
 60 62  1  0  0  0  0
 61 64  1  0  0  0  0
 62 59  2  0  0  0  0
 63 64  2  0  0  0  0
 63 58  1  0  0  0  0
 65 62  1  0  0  0  0
 65 61  2  0  0  0  0
 66 68  2  0  0  0  0
 68 67  1  0  0  0  0
 68 65  1  0  0  0  0
M  END
>  <MODEL>
9

>  <REMARK>
 VINA RESULT:      -4.1      3.665     10.792
  Name = 
  25 active torsions:
  status: ('A' for Active; 'I' for Inactive)
    1  A    between atoms: C_3  and  C_5
    2  A    between atoms: C_3  and  C_49
    3  A    between atoms: N_4  and  C_31
    4  A    between atoms: C_5  and  C_47
    5  A    between atoms: C_6  and  C_47
    6  A    between atoms: C_8  and  C_38
    7  A    between atoms: C_11  and  N_34
    8  A    between atoms: C_11  and  C_52
    9  A    between atoms: C_11  and  C_58
   10  A    between atoms: C_21  and  C_33
   11  A    between atoms: C_21  and  C_49
   12  A    between atoms: C_22  and  C_39
   13  A    between atoms: C_22  and  C_58
   14  A    between atoms: C_24  and  C_41
   15  A    between atoms: C_25  and  C_64
   16  A    between atoms: N_26  and  C_37
   17  A    between atoms: C_33  and  C_64
   18  A    between atoms: N_34  and  C_42
   19  A    between atoms: C_36  and  C_55
   20  A    between atoms: C_36  and  O_57
   21  A    between atoms: C_37  and  C_41
   22  A    between atoms: C_38  and  C_60
   23  A    between atoms: C_42  and  C_51
   24  A    between atoms: C_54  and  C_62
   25  A    between atoms: O_57  and  C_67
                            x       y       z     vdW  Elec       q    Type
                         _______ _______ _______ _____ _____    ______ ____

>  <TORSDO>
F 25

$$$$
