=
 OpenBabel11072409103D

 65 72  0  0  1  0  0  0  0  0999 V2000
  191.2510  170.8730  141.2870 C   0  0  0  0  0  2  0  0  0  0  0  0
  192.2510  173.5660  139.4530 O   0  0  0  0  0  0  0  0  0  0  0  0
  195.2880  174.5100  139.4210 C   0  0  1  0  0  3  0  0  0  0  0  0
  193.9620  175.1320  137.6510 C   0  0  1  0  0  3  0  0  0  0  0  0
  191.6900  170.0990  140.0520 C   0  0  0  0  0  2  0  0  0  0  0  0
  192.1430  173.1190  140.7800 C   0  0  0  0  0  2  0  0  0  0  0  0
  193.3460  172.9440  138.7940 C   0  0  2  0  0  0  0  0  0  0  0  0
  194.9960  175.4510  136.7670 O   0  0  0  0  0  1  0  0  0  0  0  0
  193.0880  170.5080  139.6170 C   0  0  1  0  0  3  0  0  0  0  0  0
  193.5190  173.6680  137.4580 C   0  0  0  0  0  2  0  0  0  0  0  0
  193.7940  169.3720  139.2240 O   0  0  0  0  0  1  0  0  0  0  0  0
  193.0150  171.4780  138.4410 C   0  0  0  0  0  2  0  0  0  0  0  0
  195.6320  172.1630  139.1580 O   0  0  0  0  0  1  0  0  0  0  0  0
  190.8690  172.3060  140.9340 C   0  0  2  0  0  3  0  0  0  0  0  0
  194.6850  173.0990  139.5830 C   0  0  1  0  0  3  0  0  0  0  0  0
  194.3250  175.4430  138.9850 O   0  0  0  0  0  0  0  0  0  0  0  0
  195.9730  175.0070  140.6950 C   0  0  1  0  0  3  0  0  0  0  0  0
  195.0280  175.2560  141.6930 O   0  0  0  0  0  1  0  0  0  0  0  0
  197.0070  174.0080  141.2000 C   0  0  0  0  0  2  0  0  0  0  0  0
  197.6050  174.4830  142.5100 C   0  0  0  0  0  2  0  0  0  0  0  0
  195.3660  173.8240  145.0390 N   0  0  0  0  0  0  0  0  0  0  0  0
  197.7550  173.9090  144.9380 C   0  0  0  0  0  2  0  0  0  0  0  0
  197.6270  173.3420  143.5070 C   0  0  1  0  0  3  0  0  0  0  0  0
  196.5700  173.4790  145.7940 C   0  0  2  0  0  3  0  0  0  0  0  0
  195.1500  172.7290  144.0810 C   0  0  1  0  0  3  0  0  0  0  0  0
  196.4180  172.3900  143.2630 C   0  0  2  0  0  3  0  0  0  0  0  0
  194.3240  173.8080  145.9060 O   0  0  0  0  0  1  0  0  0  0  0  0
  196.6120  171.9650  145.8610 C   0  0  0  0  0  2  0  0  0  0  0  0
  196.0420  171.5820  144.5070 C   0  0  1  0  0  0  0  0  0  0  0  0
  193.4920  168.9590  144.7990 N   0  0  0  0  0  2  0  0  0  0  0  0
  194.1090  170.2790  144.9200 C   0  0  0  0  0  2  0  0  0  0  0  0
  193.2310  168.7080  143.3830 C   0  0  0  0  0  2  0  0  0  0  0  0
  195.4260  170.2730  144.2800 N   0  0  1  0  0  0  0  0  0  0  0  0
  194.5380  168.7260  142.5930 C   0  0  0  0  0  2  0  0  0  0  0  0
  195.2400  170.0580  142.8400 C   0  0  0  0  0  2  0  0  0  0  0  0
  189.9450  172.9270  141.9920 C   0  0  2  0  0  3  0  0  0  0  0  0
  189.4260  171.9170  142.8150 O   0  0  0  0  0  0  0  0  0  0  0  0
  190.9620  172.3000  144.5860 C   0  0  0  0  0  1  0  0  0  0  0  0
  189.5280  172.4200  144.1110 C   0  0  0  0  0  2  0  0  0  0  0  0
  188.8000  173.7090  141.3080 C   0  0  1  0  0  3  0  0  0  0  0  0
  189.1500  175.1600  140.9920 C   0  0  0  0  0  2  0  0  0  0  0  0
  188.5400  176.0730  142.0450 C   0  0  2  0  0  3  0  0  0  0  0  0
  192.4080  176.5680  144.7420 C   0  0  0  0  0  2  0  0  0  0  0  0
  189.6080  177.5600  147.6400 C   0  0  0  0  0  1  0  0  0  0  0  0
  190.2210  175.2590  147.1520 N   0  0  0  0  0  2  0  0  0  0  0  0
  191.4350  175.3110  146.5330 O   0  0  0  0  0  0  0  0  0  0  0  0
  190.0070  176.7550  145.3500 C   0  0  2  0  0  3  0  0  0  0  0  0
  190.2410  177.8310  142.6250 C   0  0  0  0  0  2  0  0  0  0  0  0
  189.0170  176.5780  144.3540 O   0  0  0  0  0  0  0  0  0  0  0  0
  192.3120  176.8330  143.3660 O   0  0  0  0  0  0  0  0  0  0  0  0
  189.5950  176.5040  143.0630 C   0  0  1  0  0  3  0  0  0  0  0  0
  191.1830  175.8010  145.2440 C   0  0  1  0  0  3  0  0  0  0  0  0
  191.6160  178.0470  143.2620 C   0  0  0  0  0  2  0  0  0  0  0  0
  189.4400  176.3940  146.6840 C   0  0  2  0  0  3  0  0  0  0  0  0
  187.3920  175.3390  142.7180 C   0  0  0  0  0  2  0  0  0  0  0  0
  186.2360  176.2690  142.8620 C   0  0  0  0  0  3  0  0  0  0  0  0
  186.1180  177.3200  142.0570 C   0  0  0  0  0  3  0  0  0  0  0  0
  184.9620  178.2480  142.2110 C   0  0  0  0  0  2  0  0  0  0  0  0
  184.3230  178.0590  143.5770 C   0  0  0  0  0  2  0  0  0  0  0  0
  184.2190  178.9160  145.6080 C   0  0  0  0  0  1  0  0  0  0  0  0
  184.2910  179.2760  144.2610 O   0  0  0  0  0  0  0  0  0  0  0  0
  188.2850  173.0080  140.0510 C   0  0  0  0  0  2  0  0  0  0  0  0
  188.2770  173.9280  138.8390 C   0  0  0  0  0  2  0  0  0  0  0  0
  189.1540  173.3590  136.6350 C   0  0  0  0  0  2  0  0  0  0  0  0
  189.3920  173.5510  137.9270 C   0  0  0  0  0  3  0  0  0  0  0  0
  2  6  1  0  0  0  0
  3 15  1  0  0  0  0
  3 17  1  1  0  0  0
  4  8  1  6  0  0  0
  4 16  1  0  0  0  0
  5  1  1  0  0  0  0
  6 14  1  0  0  0  0
  7 10  1  6  0  0  0
  7  2  1  0  0  0  0
  7 15  1  0  0  0  0
  9 11  1  6  0  0  0
  9  5  1  0  0  0  0
 10  4  1  0  0  0  0
 12  7  1  0  0  0  0
 12  9  1  0  0  0  0
 14  1  1  0  0  0  0
 14 36  1  1  0  0  0
 15 13  1  6  0  0  0
 16  3  1  0  0  0  0
 17 19  1  0  0  0  0
 17 18  1  1  0  0  0
 19 20  1  0  0  0  0
 21 24  1  0  0  0  0
 21 27  1  0  0  0  0
 23 20  1  6  0  0  0
 23 22  1  0  0  0  0
 24 22  1  6  0  0  0
 24 28  1  0  0  0  0
 25 29  1  0  0  0  0
 25 21  1  1  0  0  0
 26 23  1  0  0  0  0
 26 25  1  0  0  0  0
 26 29  1  0  0  0  0
 29 28  1  0  0  0  0
 30 31  1  0  0  0  0
 32 30  1  0  0  0  0
 33 29  1  0  0  0  0
 33 31  1  0  0  0  0
 34 35  1  0  0  0  0
 34 32  1  0  0  0  0
 35 33  1  0  0  0  0
 36 37  1  0  0  0  0
 37 39  1  0  0  0  0
 39 38  1  0  0  0  0
 40 36  1  0  0  0  0
 41 40  1  0  0  0  0
 41 42  1  0  0  0  0
 42 55  1  0  0  0  0
 42 51  1  0  0  0  0
 43 52  1  0  0  0  0
 46 45  1  0  0  0  0
 47 54  1  0  0  0  0
 48 51  1  0  0  0  0
 48 53  1  0  0  0  0
 49 47  1  0  0  0  0
 50 43  1  0  0  0  0
 51 49  1  0  0  0  0
 52 47  1  0  0  0  0
 52 46  1  0  0  0  0
 53 50  1  0  0  0  0
 54 45  1  0  0  0  0
 54 44  1  0  0  0  0
 55 56  1  0  0  0  0
 57 58  1  0  0  0  0
 57 56  2  0  0  0  0
 58 59  1  0  0  0  0
 59 61  1  0  0  0  0
 61 60  1  0  0  0  0
 62 40  1  0  0  0  0
 63 62  1  0  0  0  0
 64 65  2  0  0  0  0
 65 63  1  0  0  0  0
M  END
>  <MODEL>
1

>  <REMARK>
 VINA RESULT:      -6.3      0.000      0.000
  Name = 
  20 active torsions:
  status: ('A' for Active; 'I' for Inactive)
    1  A    between atoms: C_7  and  C_14
    2  A    between atoms: C_13  and  C_27
    3  A    between atoms: C_13  and  C_42
    4  A    between atoms: C_13  and  C_53
    5  A    between atoms: C_14  and  C_18
    6  A    between atoms: C_18  and  C_38
    7  A    between atoms: C_19  and  C_20
    8  A    between atoms: C_19  and  C_54
    9  A    between atoms: C_22  and  C_29
   10  A    between atoms: C_24  and  C_38
   11  A    between atoms: C_27  and  C_58
   12  A    between atoms: C_27  and  O_65
   13  A    between atoms: C_29  and  C_42
   14  A    between atoms: C_34  and  O_65
   15  A    between atoms: C_35  and  C_61
   16  A    between atoms: N_39  and  C_56
   17  A    between atoms: C_41  and  C_54
   18  A    between atoms: C_46  and  O_47
   19  A    between atoms: C_46  and  C_61
   20  A    between atoms: C_53  and  C_54
                            x       y       z     vdW  Elec       q    Type
                         _______ _______ _______ _____ _____    ______ ____

>  <TORSDO>
F 20

$$$$
=
 OpenBabel11072409103D

 65 72  0  0  1  0  0  0  0  0999 V2000
  189.9750  174.7440  143.8040 C   0  0  0  0  0  2  0  0  0  0  0  0
  189.6930  173.8890  140.5170 O   0  0  0  0  0  0  0  0  0  0  0  0
  192.2040  172.8730  138.8510 C   0  0  1  0  0  3  0  0  0  0  0  0
  190.1160  172.2950  138.0870 C   0  0  1  0  0  3  0  0  0  0  0  0
  189.7720  173.2510  144.0210 C   0  0  0  0  0  2  0  0  0  0  0  0
  190.3160  174.8250  141.3590 C   0  0  0  0  0  2  0  0  0  0  0  0
  190.3350  172.6240  140.6000 C   0  0  2  0  0  0  0  0  0  0  0  0
  190.5220  171.2490  137.2550 O   0  0  0  0  0  1  0  0  0  0  0  0
  190.7140  172.4370  143.1490 C   0  0  1  0  0  3  0  0  0  0  0  0
  189.7440  171.7610  139.4840 C   0  0  0  0  0  2  0  0  0  0  0  0
  191.1970  171.3570  143.8860 O   0  0  0  0  0  1  0  0  0  0  0  0
  189.9770  171.9110  141.9210 C   0  0  0  0  0  2  0  0  0  0  0  0
  192.5320  171.5810  140.8300 O   0  0  0  0  0  1  0  0  0  0  0  0
  189.3640  175.1990  142.4840 C   0  0  2  0  0  3  0  0  0  0  0  0
  191.8740  172.7170  140.3490 C   0  0  1  0  0  3  0  0  0  0  0  0
  191.0890  173.3250  138.1140 O   0  0  0  0  0  0  0  0  0  0  0  0
  193.4080  173.7840  138.6050 C   0  0  1  0  0  3  0  0  0  0  0  0
  193.1510  174.6620  137.5490 O   0  0  0  0  0  1  0  0  0  0  0  0
  193.7760  174.5740  139.8550 C   0  0  0  0  0  2  0  0  0  0  0  0
  195.2750  174.7910  139.9220 C   0  0  0  0  0  2  0  0  0  0  0  0
  196.9080  176.4700  142.4440 N   0  0  0  0  0  0  0  0  0  0  0  0
  197.3480  174.4310  141.2720 C   0  0  0  0  0  2  0  0  0  0  0  0
  195.8160  174.2320  141.2220 C   0  0  1  0  0  3  0  0  0  0  0  0
  197.7420  175.2690  142.4820 C   0  0  2  0  0  3  0  0  0  0  0  0
  195.6170  176.0980  143.0440 C   0  0  1  0  0  3  0  0  0  0  0  0
  195.0210  174.8110  142.4300 C   0  0  2  0  0  3  0  0  0  0  0  0
  197.4790  177.3880  143.2610 O   0  0  0  0  0  1  0  0  0  0  0  0
  197.3080  174.4890  143.7070 C   0  0  0  0  0  2  0  0  0  0  0  0
  195.8160  174.7670  143.7360 C   0  0  1  0  0  0  0  0  0  0  0  0
  194.1590  175.9330  146.7970 N   0  0  0  0  0  2  0  0  0  0  0  0
  194.8490  176.0030  145.5100 C   0  0  0  0  0  2  0  0  0  0  0  0
  192.8120  175.4160  146.5620 C   0  0  0  0  0  2  0  0  0  0  0  0
  195.0420  174.6530  144.9740 N   0  0  1  0  0  0  0  0  0  0  0  0
  192.8820  174.0180  145.9520 C   0  0  0  0  0  2  0  0  0  0  0  0
  193.7230  174.0790  144.6810 C   0  0  0  0  0  2  0  0  0  0  0  0
  189.0730  176.7070  142.4790 C   0  0  2  0  0  3  0  0  0  0  0  0
  189.6740  177.3060  143.5950 O   0  0  0  0  0  0  0  0  0  0  0  0
  191.9860  177.7630  143.8880 C   0  0  0  0  0  1  0  0  0  0  0  0
  190.7360  178.0470  143.0800 C   0  0  0  0  0  2  0  0  0  0  0  0
  187.5470  176.9570  142.4850 C   0  0  1  0  0  3  0  0  0  0  0  0
  187.1640  178.4190  142.6990 C   0  0  0  0  0  2  0  0  0  0  0  0
  185.8650  178.4950  143.4860 C   0  0  2  0  0  3  0  0  0  0  0  0
  186.8310  178.7360  148.1220 C   0  0  0  0  0  2  0  0  0  0  0  0
  188.5290  175.0160  147.4180 C   0  0  0  0  0  1  0  0  0  0  0  0
  189.7340  177.0920  147.0410 N   0  0  0  0  0  2  0  0  0  0  0  0
  189.0970  178.0430  147.7820 O   0  0  0  0  0  0  0  0  0  0  0  0
  187.4580  177.0090  146.4510 C   0  0  2  0  0  3  0  0  0  0  0  0
  184.7800  177.9430  145.6860 C   0  0  0  0  0  2  0  0  0  0  0  0
  187.0360  177.1480  145.1080 O   0  0  0  0  0  0  0  0  0  0  0  0
  185.7050  179.2730  147.4770 O   0  0  0  0  0  0  0  0  0  0  0  0
  186.1130  178.2140  144.9680 C   0  0  1  0  0  3  0  0  0  0  0  0
  187.8940  178.3050  147.1110 C   0  0  1  0  0  3  0  0  0  0  0  0
  184.8720  178.1800  147.1950 C   0  0  0  0  0  2  0  0  0  0  0  0
  188.7180  176.2050  146.4960 C   0  0  2  0  0  3  0  0  0  0  0  0
  184.8790  177.5020  142.8940 C   0  0  0  0  0  2  0  0  0  0  0  0
  184.0770  178.1810  141.8370 C   0  0  0  0  0  3  0  0  0  0  0  0
  182.7550  178.0480  141.8120 C   0  0  0  0  0  3  0  0  0  0  0  0
  181.9610  178.7270  140.7480 C   0  0  0  0  0  2  0  0  0  0  0  0
  180.4970  178.3340  140.8620 C   0  0  0  0  0  2  0  0  0  0  0  0
  178.6880  178.9130  139.7400 C   0  0  0  0  0  1  0  0  0  0  0  0
  179.6850  179.4300  140.5690 O   0  0  0  0  0  0  0  0  0  0  0  0
  186.8620  176.4130  141.2320 C   0  0  0  0  0  2  0  0  0  0  0  0
  187.1830  177.2380  139.9950 C   0  0  0  0  0  2  0  0  0  0  0  0
  186.7360  176.3890  137.7510 C   0  0  0  0  0  2  0  0  0  0  0  0
  186.2520  176.8600  138.8950 C   0  0  0  0  0  3  0  0  0  0  0  0
  1  5  1  0  0  0  0
  2  7  1  0  0  0  0
  2  6  1  0  0  0  0
  3 17  1  1  0  0  0
  3 15  1  0  0  0  0
  4  8  1  6  0  0  0
  4 16  1  0  0  0  0
  4 10  1  0  0  0  0
  6 14  1  0  0  0  0
  7 10  1  6  0  0  0
  7 12  1  0  0  0  0
  9 11  1  1  0  0  0
  9  5  1  0  0  0  0
 12  9  1  0  0  0  0
 14 36  1  1  0  0  0
 14  1  1  0  0  0  0
 15  7  1  0  0  0  0
 15 13  1  6  0  0  0
 16  3  1  0  0  0  0
 17 18  1  6  0  0  0
 17 19  1  0  0  0  0
 19 20  1  0  0  0  0
 21 24  1  0  0  0  0
 21 27  1  0  0  0  0
 23 20  1  6  0  0  0
 23 22  1  0  0  0  0
 23 26  1  0  0  0  0
 24 22  1  6  0  0  0
 24 28  1  0  0  0  0
 25 21  1  6  0  0  0
 25 29  1  0  0  0  0
 26 25  1  0  0  0  0
 26 29  1  0  0  0  0
 28 29  1  0  0  0  0
 29 33  1  0  0  0  0
 31 30  1  0  0  0  0
 32 30  1  0  0  0  0
 33 31  1  0  0  0  0
 34 32  1  0  0  0  0
 35 33  1  0  0  0  0
 35 34  1  0  0  0  0
 36 40  1  0  0  0  0
 36 37  1  0  0  0  0
 39 37  1  0  0  0  0
 39 38  1  0  0  0  0
 40 41  1  0  0  0  0
 41 42  1  0  0  0  0
 42 51  1  0  0  0  0
 45 46  1  0  0  0  0
 47 54  1  0  0  0  0
 47 52  1  0  0  0  0
 48 53  1  0  0  0  0
 49 47  1  0  0  0  0
 50 43  1  0  0  0  0
 51 49  1  0  0  0  0
 51 48  1  0  0  0  0
 52 46  1  0  0  0  0
 52 43  1  0  0  0  0
 53 50  1  0  0  0  0
 54 45  1  0  0  0  0
 54 44  1  0  0  0  0
 55 42  1  0  0  0  0
 56 55  1  0  0  0  0
 57 56  2  0  0  0  0
 58 59  1  0  0  0  0
 58 57  1  0  0  0  0
 60 61  1  0  0  0  0
 61 59  1  0  0  0  0
 62 40  1  0  0  0  0
 63 62  1  0  0  0  0
 64 65  2  0  0  0  0
 65 63  1  0  0  0  0
M  END
>  <MODEL>
2

>  <REMARK>
 VINA RESULT:      -6.2      2.402      4.630
  Name = 
  20 active torsions:
  status: ('A' for Active; 'I' for Inactive)
    1  A    between atoms: C_7  and  C_14
    2  A    between atoms: C_13  and  C_27
    3  A    between atoms: C_13  and  C_42
    4  A    between atoms: C_13  and  C_53
    5  A    between atoms: C_14  and  C_18
    6  A    between atoms: C_18  and  C_38
    7  A    between atoms: C_19  and  C_20
    8  A    between atoms: C_19  and  C_54
    9  A    between atoms: C_22  and  C_29
   10  A    between atoms: C_24  and  C_38
   11  A    between atoms: C_27  and  C_58
   12  A    between atoms: C_27  and  O_65
   13  A    between atoms: C_29  and  C_42
   14  A    between atoms: C_34  and  O_65
   15  A    between atoms: C_35  and  C_61
   16  A    between atoms: N_39  and  C_56
   17  A    between atoms: C_41  and  C_54
   18  A    between atoms: C_46  and  O_47
   19  A    between atoms: C_46  and  C_61
   20  A    between atoms: C_53  and  C_54
                            x       y       z     vdW  Elec       q    Type
                         _______ _______ _______ _____ _____    ______ ____

>  <TORSDO>
F 20

$$$$
=
 OpenBabel11072409103D

 65 72  0  0  1  0  0  0  0  0999 V2000
  189.2530  174.5900  141.0850 C   0  0  0  0  0  2  0  0  0  0  0  0
  190.5250  174.2160  144.2260 O   0  0  0  0  0  0  0  0  0  0  0  0
  192.1540  176.5530  145.6390 C   0  0  1  0  0  3  0  0  0  0  0  0
  191.1850  174.9660  146.9870 C   0  0  1  0  0  3  0  0  0  0  0  0
  188.0890  175.2270  141.8300 C   0  0  0  0  0  2  0  0  0  0  0  0
  190.9260  174.4040  142.8930 C   0  0  0  0  0  2  0  0  0  0  0  0
  190.0120  175.4220  144.7760 C   0  0  2  0  0  0  0  0  0  0  0  0
  191.2310  175.7000  148.1760 O   0  0  0  0  0  1  0  0  0  0  0  0
  188.5760  176.2840  142.8080 C   0  0  1  0  0  3  0  0  0  0  0  0
  189.8330  175.1750  146.2760 C   0  0  0  0  0  2  0  0  0  0  0  0
  187.7100  177.3750  142.7690 O   0  0  0  0  0  1  0  0  0  0  0  0
  188.6010  175.7210  144.2270 C   0  0  0  0  0  2  0  0  0  0  0  0
  190.3400  177.8430  144.7770 O   0  0  0  0  0  1  0  0  0  0  0  0
  190.0100  173.6110  141.9760 C   0  0  2  0  0  3  0  0  0  0  0  0
  191.0010  176.6200  144.6170 C   0  0  1  0  0  3  0  0  0  0  0  0
  192.3070  175.2560  146.1720 O   0  0  0  0  0  0  0  0  0  0  0  0
  193.4810  177.0510  145.0620 C   0  0  1  0  0  3  0  0  0  0  0  0
  194.4840  177.0050  146.0330 O   0  0  0  0  0  1  0  0  0  0  0  0
  193.9020  176.2360  143.8460 C   0  0  0  0  0  2  0  0  0  0  0  0
  195.3790  176.4300  143.5640 C   0  0  0  0  0  2  0  0  0  0  0  0
  196.7690  174.1070  145.6890 N   0  0  0  0  0  0  0  0  0  0  0  0
  197.4980  175.1060  143.6400 C   0  0  0  0  0  2  0  0  0  0  0  0
  196.0140  175.1000  143.2120 C   0  0  1  0  0  3  0  0  0  0  0  0
  197.7750  173.9850  144.6340 C   0  0  2  0  0  3  0  0  0  0  0  0
  195.5570  173.4450  145.1840 C   0  0  1  0  0  3  0  0  0  0  0  0
  195.1540  173.9280  143.7730 C   0  0  2  0  0  3  0  0  0  0  0  0
  197.2050  173.3880  146.7520 O   0  0  0  0  0  1  0  0  0  0  0  0
  197.4780  172.6860  143.9120 C   0  0  0  0  0  2  0  0  0  0  0  0
  195.9620  172.6430  143.9660 C   0  0  1  0  0  0  0  0  0  0  0  0
  195.3370  169.0530  144.4060 N   0  0  0  0  0  2  0  0  0  0  0  0
  195.9840  170.3540  144.5710 C   0  0  0  0  0  2  0  0  0  0  0  0
  194.0340  169.1080  145.0680 C   0  0  0  0  0  2  0  0  0  0  0  0
  195.2280  171.3810  143.8510 N   0  0  1  0  0  0  0  0  0  0  0  0
  193.1630  170.1870  144.4310 C   0  0  0  0  0  2  0  0  0  0  0  0
  193.9110  171.5150  144.4850 C   0  0  0  0  0  2  0  0  0  0  0  0
  190.8070  172.5880  141.1520 C   0  0  2  0  0  3  0  0  0  0  0  0
  191.3110  171.5920  142.0000 O   0  0  0  0  0  0  0  0  0  0  0  0
  190.8690  169.3310  141.4240 C   0  0  0  0  0  1  0  0  0  0  0  0
  190.3230  170.6090  142.0290 C   0  0  0  0  0  2  0  0  0  0  0  0
  191.9590  173.2920  140.3990 C   0  0  1  0  0  3  0  0  0  0  0  0
  193.3490  172.8590  140.8570 C   0  0  0  0  0  2  0  0  0  0  0  0
  194.3140  172.9170  139.6830 C   0  0  2  0  0  3  0  0  0  0  0  0
  197.3550  169.2820  139.5280 C   0  0  0  0  0  2  0  0  0  0  0  0
  195.3250  168.4270  136.0110 C   0  0  0  0  0  1  0  0  0  0  0  0
  197.1780  169.9970  136.0990 N   0  0  0  0  0  2  0  0  0  0  0  0
  197.8790  169.6960  137.2290 O   0  0  0  0  0  0  0  0  0  0  0  0
  195.6410  169.9970  137.8790 C   0  0  2  0  0  3  0  0  0  0  0  0
  194.5010  170.5570  140.5290 C   0  0  0  0  0  2  0  0  0  0  0  0
  194.8290  171.1230  138.1570 O   0  0  0  0  0  0  0  0  0  0  0  0
  196.8100  169.8630  140.6850 O   0  0  0  0  0  0  0  0  0  0  0  0
  195.0090  171.5700  139.4880 C   0  0  1  0  0  3  0  0  0  0  0  0
  197.0930  170.1510  138.2970 C   0  0  1  0  0  3  0  0  0  0  0  0
  195.4840  169.4050  140.7500 C   0  0  0  0  0  2  0  0  0  0  0  0
  195.7640  169.8260  136.3990 C   0  0  2  0  0  3  0  0  0  0  0  0
  195.3210  174.0260  139.9350 C   0  0  0  0  0  2  0  0  0  0  0  0
  195.2840  174.9880  138.7960 C   0  0  0  0  0  3  0  0  0  0  0  0
  195.7150  174.6170  137.5950 C   0  0  0  0  0  3  0  0  0  0  0  0
  195.6800  175.5860  136.4630 C   0  0  0  0  0  2  0  0  0  0  0  0
  194.3500  175.4840  135.7330 C   0  0  0  0  0  2  0  0  0  0  0  0
  192.1880  175.6760  136.1290 C   0  0  0  0  0  1  0  0  0  0  0  0
  193.4090  176.3190  136.3380 O   0  0  0  0  0  0  0  0  0  0  0  0
  191.8380  173.1470  138.8820 C   0  0  0  0  0  2  0  0  0  0  0  0
  190.6560  172.2800  138.4780 C   0  0  0  0  0  2  0  0  0  0  0  0
  191.6450  170.1220  137.9110 C   0  0  0  0  0  2  0  0  0  0  0  0
  191.1070  171.2610  137.4890 C   0  0  0  0  0  3  0  0  0  0  0  0
  1  5  1  0  0  0  0
  1 14  1  0  0  0  0
  2  7  1  0  0  0  0
  3 17  1  6  0  0  0
  3 16  1  0  0  0  0
  4  8  1  1  0  0  0
  5  9  1  0  0  0  0
  6  2  1  0  0  0  0
  7 12  1  6  0  0  0
  7 10  1  0  0  0  0
  9 11  1  1  0  0  0
  9 12  1  0  0  0  0
 10  4  1  0  0  0  0
 14 36  1  6  0  0  0
 14  6  1  0  0  0  0
 15  7  1  0  0  0  0
 15 13  1  1  0  0  0
 15  3  1  0  0  0  0
 16  4  1  0  0  0  0
 17 18  1  1  0  0  0
 19 17  1  0  0  0  0
 20 19  1  0  0  0  0
 21 27  1  0  0  0  0
 23 20  1  1  0  0  0
 23 22  1  0  0  0  0
 23 26  1  0  0  0  0
 24 22  1  6  0  0  0
 24 21  1  0  0  0  0
 25 21  1  6  0  0  0
 26 29  1  0  0  0  0
 26 25  1  0  0  0  0
 28 29  1  0  0  0  0
 28 24  1  0  0  0  0
 29 25  1  0  0  0  0
 30 31  1  0  0  0  0
 30 32  1  0  0  0  0
 33 29  1  0  0  0  0
 33 35  1  0  0  0  0
 33 31  1  0  0  0  0
 34 35  1  0  0  0  0
 34 32  1  0  0  0  0
 36 37  1  0  0  0  0
 37 39  1  0  0  0  0
 38 39  1  0  0  0  0
 40 41  1  0  0  0  0
 40 36  1  0  0  0  0
 42 55  1  0  0  0  0
 42 41  1  0  0  0  0
 43 50  1  0  0  0  0
 44 54  1  0  0  0  0
 45 54  1  0  0  0  0
 45 46  1  0  0  0  0
 46 52  1  0  0  0  0
 47 49  1  0  0  0  0
 47 52  1  0  0  0  0
 48 53  1  0  0  0  0
 49 51  1  0  0  0  0
 50 53  1  0  0  0  0
 51 42  1  0  0  0  0
 51 48  1  0  0  0  0
 52 43  1  0  0  0  0
 54 47  1  0  0  0  0
 56 55  1  0  0  0  0
 57 56  2  0  0  0  0
 58 57  1  0  0  0  0
 59 61  1  0  0  0  0
 59 58  1  0  0  0  0
 60 61  1  0  0  0  0
 62 40  1  0  0  0  0
 63 62  1  0  0  0  0
 65 64  2  0  0  0  0
 65 63  1  0  0  0  0
M  END
>  <MODEL>
3

>  <REMARK>
 VINA RESULT:      -6.0      2.302      7.641
  Name = 
  20 active torsions:
  status: ('A' for Active; 'I' for Inactive)
    1  A    between atoms: C_7  and  C_14
    2  A    between atoms: C_13  and  C_27
    3  A    between atoms: C_13  and  C_42
    4  A    between atoms: C_13  and  C_53
    5  A    between atoms: C_14  and  C_18
    6  A    between atoms: C_18  and  C_38
    7  A    between atoms: C_19  and  C_20
    8  A    between atoms: C_19  and  C_54
    9  A    between atoms: C_22  and  C_29
   10  A    between atoms: C_24  and  C_38
   11  A    between atoms: C_27  and  C_58
   12  A    between atoms: C_27  and  O_65
   13  A    between atoms: C_29  and  C_42
   14  A    between atoms: C_34  and  O_65
   15  A    between atoms: C_35  and  C_61
   16  A    between atoms: N_39  and  C_56
   17  A    between atoms: C_41  and  C_54
   18  A    between atoms: C_46  and  O_47
   19  A    between atoms: C_46  and  C_61
   20  A    between atoms: C_53  and  C_54
                            x       y       z     vdW  Elec       q    Type
                         _______ _______ _______ _____ _____    ______ ____

>  <TORSDO>
F 20

$$$$
=
 OpenBabel11072409103D

 65 72  0  0  1  0  0  0  0  0999 V2000
  196.0930  174.3920  145.5620 C   0  0  0  0  0  2  0  0  0  0  0  0
  193.5060  172.5490  144.3270 O   0  0  0  0  0  0  0  0  0  0  0  0
  193.7750  170.9450  141.5930 C   0  0  1  0  0  3  0  0  0  0  0  0
  192.1710  170.2470  143.0820 C   0  0  1  0  0  3  0  0  0  0  0  0
  196.5230  173.0560  146.1520 C   0  0  0  0  0  2  0  0  0  0  0  0
  194.2920  173.6750  144.0320 C   0  0  0  0  0  2  0  0  0  0  0  0
  194.2310  171.3490  144.0920 C   0  0  2  0  0  0  0  0  0  0  0  0
  191.9780  168.9740  142.5420 O   0  0  0  0  0  1  0  0  0  0  0  0
  196.5320  171.9660  145.0930 C   0  0  1  0  0  3  0  0  0  0  0  0
  193.2240  170.2020  144.2080 C   0  0  0  0  0  2  0  0  0  0  0  0
  197.6500  171.1560  145.2820 O   0  0  0  0  0  1  0  0  0  0  0  0
  195.2740  171.1090  145.2050 C   0  0  0  0  0  2  0  0  0  0  0  0
  195.8610  170.3360  142.5800 O   0  0  0  0  0  1  0  0  0  0  0  0
  194.5890  174.4290  145.3180 C   0  0  2  0  0  3  0  0  0  0  0  0
  194.8400  171.2890  142.6550 C   0  0  1  0  0  3  0  0  0  0  0  0
  192.4680  171.1880  142.0650 O   0  0  0  0  0  0  0  0  0  0  0  0
  194.0070  171.6760  140.2690 C   0  0  1  0  0  3  0  0  0  0  0  0
  192.8000  171.8470  139.5880 O   0  0  0  0  0  1  0  0  0  0  0  0
  194.6730  173.0280  140.4870 C   0  0  0  0  0  2  0  0  0  0  0  0
  195.9170  173.1500  139.6290 C   0  0  0  0  0  2  0  0  0  0  0  0
  196.9490  173.5130  136.3660 N   0  0  0  0  0  0  0  0  0  0  0  0
  197.2260  174.8420  138.3360 C   0  0  0  0  0  2  0  0  0  0  0  0
  195.8110  174.3750  138.7430 C   0  0  1  0  0  3  0  0  0  0  0  0
  197.3790  174.8360  136.8200 C   0  0  2  0  0  3  0  0  0  0  0  0
  195.4820  173.5600  136.2800 C   0  0  1  0  0  3  0  0  0  0  0  0
  194.8240  174.1060  137.5680 C   0  0  2  0  0  3  0  0  0  0  0  0
  197.4190  173.3440  135.1060 O   0  0  0  0  0  1  0  0  0  0  0  0
  196.3620  175.8210  136.2800 C   0  0  0  0  0  2  0  0  0  0  0  0
  195.0780  175.0160  136.3640 C   0  0  1  0  0  0  0  0  0  0  0  0
  191.8680  174.4260  134.6860 N   0  0  0  0  0  2  0  0  0  0  0  0
  192.9970  174.1960  135.5850 C   0  0  0  0  0  2  0  0  0  0  0  0
  191.1090  175.5690  135.1910 C   0  0  0  0  0  2  0  0  0  0  0  0
  193.9220  175.3310  135.5220 N   0  0  1  0  0  0  0  0  0  0  0  0
  191.9900  176.8160  135.2200 C   0  0  0  0  0  2  0  0  0  0  0  0
  193.2350  176.5170  136.0490 C   0  0  0  0  0  2  0  0  0  0  0  0
  194.0580  175.8690  145.2460 C   0  0  2  0  0  3  0  0  0  0  0  0
  193.3830  176.1810  146.4340 O   0  0  0  0  0  0  0  0  0  0  0  0
  191.7500  175.2650  147.8950 C   0  0  0  0  0  1  0  0  0  0  0  0
  192.8090  174.9800  146.8490 C   0  0  0  0  0  2  0  0  0  0  0  0
  193.1180  176.0310  144.0290 C   0  0  1  0  0  3  0  0  0  0  0  0
  192.0780  177.1350  144.1990 C   0  0  0  0  0  2  0  0  0  0  0  0
  190.7530  176.5240  144.6290 C   0  0  2  0  0  3  0  0  0  0  0  0
  187.0710  175.9740  141.6920 C   0  0  0  0  0  2  0  0  0  0  0  0
  189.7610  173.5830  139.6270 C   0  0  0  0  0  1  0  0  0  0  0  0
  188.4300  172.7480  141.4800 N   0  0  0  0  0  2  0  0  0  0  0  0
  187.3730  173.6010  141.6060 O   0  0  0  0  0  0  0  0  0  0  0  0
  189.3190  174.9190  141.6450 C   0  0  2  0  0  3  0  0  0  0  0  0
  189.7280  177.6560  142.6320 C   0  0  0  0  0  2  0  0  0  0  0  0
  190.2720  175.2560  142.6360 O   0  0  0  0  0  0  0  0  0  0  0  0
  187.3790  177.1260  142.4340 O   0  0  0  0  0  0  0  0  0  0  0  0
  189.8260  176.3430  143.4270 C   0  0  1  0  0  3  0  0  0  0  0  0
  187.8980  174.7760  142.1610 C   0  0  1  0  0  3  0  0  0  0  0  0
  188.4630  177.7240  141.7720 C   0  0  0  0  0  2  0  0  0  0  0  0
  189.5980  173.5420  141.1340 C   0  0  2  0  0  3  0  0  0  0  0  0
  190.1220  177.4210  145.6810 C   0  0  0  0  0  2  0  0  0  0  0  0
  188.8470  176.8050  146.1470 C   0  0  0  0  0  3  0  0  0  0  0  0
  187.7220  177.5130  146.1410 C   0  0  0  0  0  3  0  0  0  0  0  0
  186.4520  176.8910  146.6140 C   0  0  0  0  0  2  0  0  0  0  0  0
  185.2910  177.8440  146.3860 C   0  0  0  0  0  2  0  0  0  0  0  0
  185.2220  179.3910  144.8150 C   0  0  0  0  0  1  0  0  0  0  0  0
  185.7720  179.1150  146.0670 O   0  0  0  0  0  0  0  0  0  0  0  0
  193.8840  176.2290  142.7220 C   0  0  0  0  0  2  0  0  0  0  0  0
  195.2750  176.8030  142.9490 C   0  0  0  0  0  2  0  0  0  0  0  0
  197.3100  175.6840  142.2030 C   0  0  0  0  0  2  0  0  0  0  0  0
  196.1890  176.3180  141.8780 C   0  0  0  0  0  3  0  0  0  0  0  0
  1  5  1  0  0  0  0
  3 17  1  6  0  0  0
  3 16  1  0  0  0  0
  3 15  1  0  0  0  0
  4  8  1  6  0  0  0
  4 10  1  0  0  0  0
  6  2  1  0  0  0  0
  6 14  1  0  0  0  0
  7 10  1  1  0  0  0
  7  2  1  0  0  0  0
  7 12  1  0  0  0  0
  9 12  1  0  0  0  0
  9 11  1  1  0  0  0
  9  5  1  0  0  0  0
 14 36  1  6  0  0  0
 14  1  1  0  0  0  0
 15 13  1  1  0  0  0
 15  7  1  0  0  0  0
 16  4  1  0  0  0  0
 17 18  1  1  0  0  0
 17 19  1  0  0  0  0
 20 19  1  0  0  0  0
 21 24  1  0  0  0  0
 22 23  1  0  0  0  0
 23 20  1  6  0  0  0
 24 28  1  6  0  0  0
 24 22  1  0  0  0  0
 25 29  1  0  0  0  0
 25 21  1  1  0  0  0
 25 26  1  0  0  0  0
 26 23  1  0  0  0  0
 27 21  1  0  0  0  0
 28 29  1  0  0  0  0
 29 26  1  0  0  0  0
 30 32  1  0  0  0  0
 30 31  1  0  0  0  0
 32 34  1  0  0  0  0
 33 31  1  0  0  0  0
 33 35  1  0  0  0  0
 33 29  1  0  0  0  0
 34 35  1  0  0  0  0
 36 37  1  0  0  0  0
 37 39  1  0  0  0  0
 39 38  1  0  0  0  0
 40 41  1  0  0  0  0
 40 36  1  0  0  0  0
 41 42  1  0  0  0  0
 42 55  1  0  0  0  0
 43 52  1  0  0  0  0
 43 50  1  0  0  0  0
 44 54  1  0  0  0  0
 45 46  1  0  0  0  0
 46 52  1  0  0  0  0
 47 52  1  0  0  0  0
 47 49  1  0  0  0  0
 48 51  1  0  0  0  0
 49 51  1  0  0  0  0
 51 42  1  0  0  0  0
 53 50  1  0  0  0  0
 53 48  1  0  0  0  0
 54 45  1  0  0  0  0
 54 47  1  0  0  0  0
 55 56  1  0  0  0  0
 57 56  2  0  0  0  0
 57 58  1  0  0  0  0
 59 58  1  0  0  0  0
 60 61  1  0  0  0  0
 61 59  1  0  0  0  0
 62 63  1  0  0  0  0
 62 40  1  0  0  0  0
 65 64  2  0  0  0  0
 65 63  1  0  0  0  0
M  END
>  <MODEL>
4

>  <REMARK>
 VINA RESULT:      -5.7      3.057      6.742
  Name = 
  20 active torsions:
  status: ('A' for Active; 'I' for Inactive)
    1  A    between atoms: C_7  and  C_14
    2  A    between atoms: C_13  and  C_27
    3  A    between atoms: C_13  and  C_42
    4  A    between atoms: C_13  and  C_53
    5  A    between atoms: C_14  and  C_18
    6  A    between atoms: C_18  and  C_38
    7  A    between atoms: C_19  and  C_20
    8  A    between atoms: C_19  and  C_54
    9  A    between atoms: C_22  and  C_29
   10  A    between atoms: C_24  and  C_38
   11  A    between atoms: C_27  and  C_58
   12  A    between atoms: C_27  and  O_65
   13  A    between atoms: C_29  and  C_42
   14  A    between atoms: C_34  and  O_65
   15  A    between atoms: C_35  and  C_61
   16  A    between atoms: N_39  and  C_56
   17  A    between atoms: C_41  and  C_54
   18  A    between atoms: C_46  and  O_47
   19  A    between atoms: C_46  and  C_61
   20  A    between atoms: C_53  and  C_54
                            x       y       z     vdW  Elec       q    Type
                         _______ _______ _______ _____ _____    ______ ____

>  <TORSDO>
F 20

$$$$
=
 OpenBabel11072409103D

 65 72  0  0  1  0  0  0  0  0999 V2000
  188.9950  175.2230  141.0280 C   0  0  0  0  0  2  0  0  0  0  0  0
  190.4370  174.3780  143.9980 O   0  0  0  0  0  0  0  0  0  0  0  0
  192.2400  176.4440  145.6090 C   0  0  1  0  0  3  0  0  0  0  0  0
  191.2910  174.7160  146.7880 C   0  0  1  0  0  3  0  0  0  0  0  0
  187.9040  175.7870  141.9270 C   0  0  0  0  0  2  0  0  0  0  0  0
  190.7650  174.7360  142.6800 C   0  0  0  0  0  2  0  0  0  0  0  0
  190.0070  175.5110  144.7410 C   0  0  2  0  0  0  0  0  0  0  0  0
  191.4380  175.2760  148.0590 O   0  0  0  0  0  1  0  0  0  0  0  0
  188.4910  176.6820  143.0060 C   0  0  1  0  0  3  0  0  0  0  0  0
  189.9090  175.0640  146.2000 C   0  0  0  0  0  2  0  0  0  0  0  0
  187.6680  177.7950  143.1720 O   0  0  0  0  0  1  0  0  0  0  0  0
  188.5780  175.9280  144.3300 C   0  0  0  0  0  2  0  0  0  0  0  0
  190.4310  177.8970  145.0510 O   0  0  0  0  0  1  0  0  0  0  0  0
  189.7640  174.1070  141.7260 C   0  0  2  0  0  3  0  0  0  0  0  0
  191.0310  176.6880  144.6830 C   0  0  1  0  0  3  0  0  0  0  0  0
  192.3730  175.0810  145.9480 O   0  0  0  0  0  0  0  0  0  0  0  0
  193.5490  176.9750  145.0200 C   0  0  1  0  0  3  0  0  0  0  0  0
  194.5700  176.9210  145.9720 O   0  0  0  0  0  1  0  0  0  0  0  0
  193.9600  176.1950  143.7780 C   0  0  0  0  0  2  0  0  0  0  0  0
  195.4420  176.3680  143.5100 C   0  0  0  0  0  2  0  0  0  0  0  0
  196.7910  174.1260  145.7450 N   0  0  0  0  0  0  0  0  0  0  0  0
  197.5510  175.0350  143.6670 C   0  0  0  0  0  2  0  0  0  0  0  0
  196.0720  175.0200  143.2210 C   0  0  1  0  0  3  0  0  0  0  0  0
  197.8090  173.9540  144.7090 C   0  0  2  0  0  3  0  0  0  0  0  0
  195.5810  173.4500  145.2530 C   0  0  1  0  0  3  0  0  0  0  0  0
  195.1980  173.8780  143.8180 C   0  0  2  0  0  3  0  0  0  0  0  0
  197.2100  173.4490  146.8420 O   0  0  0  0  0  1  0  0  0  0  0  0
  197.5120  172.6280  144.0370 C   0  0  0  0  0  2  0  0  0  0  0  0
  195.9950  172.5970  144.0740 C   0  0  1  0  0  0  0  0  0  0  0  0
  195.2710  169.0670  144.7700 N   0  0  0  0  0  2  0  0  0  0  0  0
  195.9220  170.3720  144.8800 C   0  0  0  0  0  2  0  0  0  0  0  0
  193.9130  169.1920  145.2960 C   0  0  0  0  0  2  0  0  0  0  0  0
  195.2550  171.3360  144.0020 N   0  0  1  0  0  0  0  0  0  0  0  0
  193.1240  170.2160  144.4840 C   0  0  0  0  0  2  0  0  0  0  0  0
  193.8860  171.5380  144.4910 C   0  0  0  0  0  2  0  0  0  0  0  0
  190.4690  173.1840  140.7200 C   0  0  2  0  0  3  0  0  0  0  0  0
  190.2600  171.8460  141.0830 O   0  0  0  0  0  0  0  0  0  0  0  0
  188.7670  172.1820  139.2670 C   0  0  0  0  0  1  0  0  0  0  0  0
  189.7440  171.2380  139.9390 C   0  0  0  0  0  2  0  0  0  0  0  0
  191.9810  173.5030  140.6720 C   0  0  1  0  0  3  0  0  0  0  0  0
  192.8710  172.3140  141.0190 C   0  0  0  0  0  2  0  0  0  0  0  0
  193.9770  172.1850  139.9820 C   0  0  2  0  0  3  0  0  0  0  0  0
  194.6850  168.3500  137.2850 C   0  0  0  0  0  2  0  0  0  0  0  0
  190.5410  168.1660  137.3920 C   0  0  0  0  0  1  0  0  0  0  0  0
  191.7450  169.5380  135.7880 N   0  0  0  0  0  2  0  0  0  0  0  0
  193.0060  169.0250  135.7180 O   0  0  0  0  0  0  0  0  0  0  0  0
  192.5640  169.4320  137.9900 C   0  0  2  0  0  3  0  0  0  0  0  0
  194.4160  169.7240  140.2530 C   0  0  0  0  0  2  0  0  0  0  0  0
  192.6050  170.5770  138.8210 O   0  0  0  0  0  0  0  0  0  0  0  0
  195.5260  168.8140  138.3100 O   0  0  0  0  0  0  0  0  0  0  0  0
  193.9170  170.8200  139.2950 C   0  0  1  0  0  3  0  0  0  0  0  0
  193.6350  169.3980  136.9140 C   0  0  1  0  0  3  0  0  0  0  0  0
  194.8830  168.4700  139.5100 C   0  0  0  0  0  2  0  0  0  0  0  0
  191.3120  169.4540  137.1750 C   0  0  2  0  0  3  0  0  0  0  0  0
  195.3150  172.3990  140.6680 C   0  0  0  0  0  2  0  0  0  0  0  0
  196.2030  173.1910  139.7700 C   0  0  0  0  0  3  0  0  0  0  0  0
  196.0320  174.5040  139.6500 C   0  0  0  0  0  3  0  0  0  0  0  0
  196.9210  175.2880  138.7470 C   0  0  0  0  0  2  0  0  0  0  0  0
  196.3380  175.3230  137.3450 C   0  0  0  0  0  2  0  0  0  0  0  0
  196.7100  174.9310  135.2050 C   0  0  0  0  0  1  0  0  0  0  0  0
  197.1160  174.5470  136.4840 O   0  0  0  0  0  0  0  0  0  0  0  0
  192.4080  174.1050  139.3330 C   0  0  0  0  0  2  0  0  0  0  0  0
  191.3820  173.8600  138.2360 C   0  0  0  0  0  2  0  0  0  0  0  0
  193.0470  173.3020  136.5430 C   0  0  0  0  0  2  0  0  0  0  0  0
  192.0230  174.0650  136.9070 C   0  0  0  0  0  3  0  0  0  0  0  0
  1 14  1  0  0  0  0
  1  5  1  0  0  0  0
  2  7  1  0  0  0  0
  3 17  1  6  0  0  0
  3 16  1  0  0  0  0
  4  8  1  1  0  0  0
  5  9  1  0  0  0  0
  6  2  1  0  0  0  0
  7 12  1  6  0  0  0
  7 10  1  0  0  0  0
  9 11  1  1  0  0  0
  9 12  1  0  0  0  0
 10  4  1  0  0  0  0
 14 36  1  6  0  0  0
 14  6  1  0  0  0  0
 15  7  1  0  0  0  0
 15 13  1  1  0  0  0
 15  3  1  0  0  0  0
 16  4  1  0  0  0  0
 17 18  1  1  0  0  0
 19 17  1  0  0  0  0
 20 19  1  0  0  0  0
 21 27  1  0  0  0  0
 23 20  1  1  0  0  0
 23 22  1  0  0  0  0
 23 26  1  0  0  0  0
 24 22  1  6  0  0  0
 24 21  1  0  0  0  0
 25 21  1  6  0  0  0
 26 29  1  0  0  0  0
 26 25  1  0  0  0  0
 28 29  1  0  0  0  0
 28 24  1  0  0  0  0
 29 25  1  0  0  0  0
 30 31  1  0  0  0  0
 30 32  1  0  0  0  0
 33 29  1  0  0  0  0
 33 35  1  0  0  0  0
 33 31  1  0  0  0  0
 34 35  1  0  0  0  0
 34 32  1  0  0  0  0
 36 37  1  0  0  0  0
 38 39  1  0  0  0  0
 39 37  1  0  0  0  0
 40 36  1  0  0  0  0
 40 41  1  0  0  0  0
 42 55  1  0  0  0  0
 42 41  1  0  0  0  0
 43 50  1  0  0  0  0
 45 54  1  0  0  0  0
 46 45  1  0  0  0  0
 46 52  1  0  0  0  0
 47 49  1  0  0  0  0
 49 51  1  0  0  0  0
 50 53  1  0  0  0  0
 51 42  1  0  0  0  0
 51 48  1  0  0  0  0
 52 43  1  0  0  0  0
 52 47  1  0  0  0  0
 53 48  1  0  0  0  0
 54 44  1  0  0  0  0
 54 47  1  0  0  0  0
 56 55  1  0  0  0  0
 57 56  2  0  0  0  0
 58 57  1  0  0  0  0
 59 58  1  0  0  0  0
 60 61  1  0  0  0  0
 61 59  1  0  0  0  0
 62 40  1  0  0  0  0
 63 62  1  0  0  0  0
 64 65  2  0  0  0  0
 65 63  1  0  0  0  0
M  END
>  <MODEL>
5

>  <REMARK>
 VINA RESULT:      -5.5      2.313      7.841
  Name = 
  20 active torsions:
  status: ('A' for Active; 'I' for Inactive)
    1  A    between atoms: C_7  and  C_14
    2  A    between atoms: C_13  and  C_27
    3  A    between atoms: C_13  and  C_42
    4  A    between atoms: C_13  and  C_53
    5  A    between atoms: C_14  and  C_18
    6  A    between atoms: C_18  and  C_38
    7  A    between atoms: C_19  and  C_20
    8  A    between atoms: C_19  and  C_54
    9  A    between atoms: C_22  and  C_29
   10  A    between atoms: C_24  and  C_38
   11  A    between atoms: C_27  and  C_58
   12  A    between atoms: C_27  and  O_65
   13  A    between atoms: C_29  and  C_42
   14  A    between atoms: C_34  and  O_65
   15  A    between atoms: C_35  and  C_61
   16  A    between atoms: N_39  and  C_56
   17  A    between atoms: C_41  and  C_54
   18  A    between atoms: C_46  and  O_47
   19  A    between atoms: C_46  and  C_61
   20  A    between atoms: C_53  and  C_54
                            x       y       z     vdW  Elec       q    Type
                         _______ _______ _______ _____ _____    ______ ____

>  <TORSDO>
F 20

$$$$
=
 OpenBabel11072409103D

 65 72  0  0  1  0  0  0  0  0999 V2000
  191.1450  171.3700  141.6640 C   0  0  0  0  0  2  0  0  0  0  0  0
  192.8180  174.2540  142.3720 O   0  0  0  0  0  0  0  0  0  0  0  0
  192.7830  175.5120  145.2930 C   0  0  1  0  0  3  0  0  0  0  0  0
  194.5200  176.0910  143.9060 C   0  0  1  0  0  3  0  0  0  0  0  0
  192.4200  170.7180  142.1810 C   0  0  0  0  0  2  0  0  0  0  0  0
  191.5190  173.7230  142.3140 C   0  0  0  0  0  2  0  0  0  0  0  0
  193.5060  173.7890  143.5260 C   0  0  2  0  0  0  0  0  0  0  0  0
  195.3800  176.5680  144.8990 O   0  0  0  0  0  1  0  0  0  0  0  0
  192.8240  171.2960  143.5270 C   0  0  1  0  0  3  0  0  0  0  0  0
  194.7980  174.6020  143.6190 C   0  0  0  0  0  2  0  0  0  0  0  0
  193.2780  170.2650  144.3480 O   0  0  0  0  0  1  0  0  0  0  0  0
  193.9430  172.3190  143.3500 C   0  0  0  0  0  2  0  0  0  0  0  0
  193.1780  173.2330  145.8820 O   0  0  0  0  0  1  0  0  0  0  0  0
  191.4180  172.7720  141.1330 C   0  0  2  0  0  3  0  0  0  0  0  0
  192.7030  174.0390  144.8420 C   0  0  1  0  0  3  0  0  0  0  0  0
  193.1690  176.3630  144.2360 O   0  0  0  0  0  0  0  0  0  0  0  0
  191.4790  176.0050  145.9240 C   0  0  1  0  0  3  0  0  0  0  0  0
  191.7340  176.6270  147.1480 O   0  0  0  0  0  1  0  0  0  0  0  0
  190.7400  176.9660  145.0010 C   0  0  0  0  0  2  0  0  0  0  0  0
  189.5570  177.5860  145.7190 C   0  0  0  0  0  2  0  0  0  0  0  0
  186.2900  178.6020  146.0880 N   0  0  0  0  0  0  0  0  0  0  0  0
  187.4640  176.5980  146.6620 C   0  0  0  0  0  2  0  0  0  0  0  0
  188.2940  176.8220  145.3780 C   0  0  1  0  0  3  0  0  0  0  0  0
  186.0810  177.2210  146.5230 C   0  0  2  0  0  3  0  0  0  0  0  0
  186.4830  178.5530  144.6310 C   0  0  1  0  0  3  0  0  0  0  0  0
  187.5450  177.5150  144.2020 C   0  0  2  0  0  3  0  0  0  0  0  0
  185.1390  179.2790  146.3170 O   0  0  0  0  0  1  0  0  0  0  0  0
  185.4010  176.5110  145.3690 C   0  0  0  0  0  2  0  0  0  0  0  0
  186.0530  177.1770  144.1710 C   0  0  1  0  0  0  0  0  0  0  0  0
  183.6330  178.2420  141.6250 N   0  0  0  0  0  2  0  0  0  0  0  0
  184.3760  178.2450  142.8840 C   0  0  0  0  0  2  0  0  0  0  0  0
  184.5520  178.6270  140.5550 C   0  0  0  0  0  2  0  0  0  0  0  0
  185.4000  177.1980  142.8600 N   0  0  1  0  0  0  0  0  0  0  0  0
  185.7030  177.6280  140.4620 C   0  0  0  0  0  2  0  0  0  0  0  0
  186.3830  177.5370  141.8240 C   0  0  0  0  0  2  0  0  0  0  0  0
  190.3290  173.2320  140.1500 C   0  0  2  0  0  3  0  0  0  0  0  0
  189.1340  172.5520  140.4210 O   0  0  0  0  0  0  0  0  0  0  0  0
  187.6060  172.8840  142.2080 C   0  0  0  0  0  1  0  0  0  0  0  0
  188.3040  173.5020  141.0140 C   0  0  0  0  0  2  0  0  0  0  0  0
  190.7820  172.9730  138.6940 C   0  0  1  0  0  3  0  0  0  0  0  0
  192.2440  172.5540  138.5700 C   0  0  0  0  0  2  0  0  0  0  0  0
  192.7640  172.9220  137.1890 C   0  0  2  0  0  3  0  0  0  0  0  0
  194.9580  169.0880  135.4660 C   0  0  0  0  0  2  0  0  0  0  0  0
  197.8140  170.1070  138.2980 C   0  0  0  0  0  1  0  0  0  0  0  0
  195.8610  168.7670  138.8400 N   0  0  0  0  0  2  0  0  0  0  0  0
  195.4160  168.2470  137.6600 O   0  0  0  0  0  0  0  0  0  0  0  0
  195.5900  170.5710  137.3550 C   0  0  2  0  0  3  0  0  0  0  0  0
  194.3500  172.3110  135.3370 C   0  0  0  0  0  2  0  0  0  0  0  0
  194.7730  171.6800  137.6780 O   0  0  0  0  0  0  0  0  0  0  0  0
  194.1460  169.9780  134.7440 O   0  0  0  0  0  0  0  0  0  0  0  0
  193.7720  171.8830  136.6970 C   0  0  1  0  0  3  0  0  0  0  0  0
  194.8250  169.3160  136.9720 C   0  0  1  0  0  3  0  0  0  0  0  0
  194.9250  171.1290  134.5510 C   0  0  0  0  0  2  0  0  0  0  0  0
  196.3240  170.1210  138.5770 C   0  0  2  0  0  3  0  0  0  0  0  0
  193.3880  174.3060  137.2570 C   0  0  0  0  0  2  0  0  0  0  0  0
  194.4610  174.3080  138.2910 C   0  0  0  0  0  3  0  0  0  0  0  0
  194.5310  175.2920  139.1810 C   0  0  0  0  0  3  0  0  0  0  0  0
  195.6100  175.2890  140.2080 C   0  0  0  0  0  2  0  0  0  0  0  0
  196.9230  174.8510  139.5820 C   0  0  0  0  0  2  0  0  0  0  0  0
  197.7890  173.6340  141.2060 C   0  0  0  0  0  1  0  0  0  0  0  0
  197.2070  173.5330  139.9420 O   0  0  0  0  0  0  0  0  0  0  0  0
  189.8840  171.9670  137.9740 C   0  0  0  0  0  2  0  0  0  0  0  0
  190.2880  170.5280  138.2580 C   0  0  0  0  0  2  0  0  0  0  0  0
  191.0900  169.1140  136.4380 C   0  0  0  0  0  2  0  0  0  0  0  0
  190.0620  169.7030  137.0380 C   0  0  0  0  0  3  0  0  0  0  0  0
  1  5  1  0  0  0  0
  2  7  1  0  0  0  0
  3 17  1  6  0  0  0
  4 16  1  0  0  0  0
  4  8  1  1  0  0  0
  5  9  1  0  0  0  0
  6  2  1  0  0  0  0
  7 12  1  6  0  0  0
  7 10  1  0  0  0  0
  7 15  1  0  0  0  0
  9 11  1  1  0  0  0
 10  4  1  0  0  0  0
 12  9  1  0  0  0  0
 14 36  1  6  0  0  0
 14  1  1  0  0  0  0
 14  6  1  0  0  0  0
 15  3  1  0  0  0  0
 15 13  1  1  0  0  0
 16  3  1  0  0  0  0
 17 18  1  1  0  0  0
 19 20  1  0  0  0  0
 19 17  1  0  0  0  0
 21 27  1  0  0  0  0
 21 24  1  0  0  0  0
 23 20  1  1  0  0  0
 23 22  1  0  0  0  0
 24 28  1  6  0  0  0
 24 22  1  0  0  0  0
 25 21  1  1  0  0  0
 26 25  1  0  0  0  0
 26 23  1  0  0  0  0
 29 26  1  0  0  0  0
 29 25  1  0  0  0  0
 29 28  1  0  0  0  0
 30 31  1  0  0  0  0
 32 30  1  0  0  0  0
 33 31  1  0  0  0  0
 33 29  1  0  0  0  0
 34 32  1  0  0  0  0
 34 35  1  0  0  0  0
 35 33  1  0  0  0  0
 36 37  1  0  0  0  0
 37 39  1  0  0  0  0
 39 38  1  0  0  0  0
 40 36  1  0  0  0  0
 41 40  1  0  0  0  0
 42 55  1  0  0  0  0
 42 41  1  0  0  0  0
 43 52  1  0  0  0  0
 44 54  1  0  0  0  0
 46 45  1  0  0  0  0
 47 49  1  0  0  0  0
 47 54  1  0  0  0  0
 48 51  1  0  0  0  0
 50 43  1  0  0  0  0
 51 42  1  0  0  0  0
 51 49  1  0  0  0  0
 52 47  1  0  0  0  0
 52 46  1  0  0  0  0
 53 50  1  0  0  0  0
 53 48  1  0  0  0  0
 54 45  1  0  0  0  0
 55 56  1  0  0  0  0
 56 57  2  0  0  0  0
 57 58  1  0  0  0  0
 59 61  1  0  0  0  0
 59 58  1  0  0  0  0
 61 60  1  0  0  0  0
 62 63  1  0  0  0  0
 62 40  1  0  0  0  0
 64 65  2  0  0  0  0
 65 63  1  0  0  0  0
M  END
>  <MODEL>
6

>  <REMARK>
 VINA RESULT:      -5.4      2.762      9.184
  Name = 
  20 active torsions:
  status: ('A' for Active; 'I' for Inactive)
    1  A    between atoms: C_7  and  C_14
    2  A    between atoms: C_13  and  C_27
    3  A    between atoms: C_13  and  C_42
    4  A    between atoms: C_13  and  C_53
    5  A    between atoms: C_14  and  C_18
    6  A    between atoms: C_18  and  C_38
    7  A    between atoms: C_19  and  C_20
    8  A    between atoms: C_19  and  C_54
    9  A    between atoms: C_22  and  C_29
   10  A    between atoms: C_24  and  C_38
   11  A    between atoms: C_27  and  C_58
   12  A    between atoms: C_27  and  O_65
   13  A    between atoms: C_29  and  C_42
   14  A    between atoms: C_34  and  O_65
   15  A    between atoms: C_35  and  C_61
   16  A    between atoms: N_39  and  C_56
   17  A    between atoms: C_41  and  C_54
   18  A    between atoms: C_46  and  O_47
   19  A    between atoms: C_46  and  C_61
   20  A    between atoms: C_53  and  C_54
                            x       y       z     vdW  Elec       q    Type
                         _______ _______ _______ _____ _____    ______ ____

>  <TORSDO>
F 20

$$$$
=
 OpenBabel11072409103D

 65 72  0  0  1  0  0  0  0  0999 V2000
  189.4790  173.1440  140.7960 C   0  0  0  0  0  2  0  0  0  0  0  0
  192.2640  173.6890  138.9070 O   0  0  0  0  0  0  0  0  0  0  0  0
  194.5400  171.4840  138.6430 C   0  0  1  0  0  3  0  0  0  0  0  0
  194.3980  173.0700  136.9870 C   0  0  1  0  0  3  0  0  0  0  0  0
  188.9700  172.4780  139.5250 C   0  0  0  0  0  2  0  0  0  0  0  0
  191.8620  173.4740  140.2360 C   0  0  0  0  0  2  0  0  0  0  0  0
  192.2190  172.4800  138.1610 C   0  0  2  0  0  0  0  0  0  0  0  0
  195.1440  172.3820  136.0270 O   0  0  0  0  0  1  0  0  0  0  0  0
  189.9830  171.4820  138.9850 C   0  0  1  0  0  3  0  0  0  0  0  0
  192.8940  172.7710  136.8190 C   0  0  0  0  0  2  0  0  0  0  0  0
  189.3090  170.3490  138.5310 O   0  0  0  0  0  1  0  0  0  0  0  0
  190.7620  172.0940  137.8250 C   0  0  0  0  0  2  0  0  0  0  0  0
  192.6350  170.0800  138.3390 O   0  0  0  0  0  1  0  0  0  0  0  0
  190.5440  174.1890  140.4830 C   0  0  2  0  0  3  0  0  0  0  0  0
  193.0190  171.3260  138.8430 C   0  0  1  0  0  3  0  0  0  0  0  0
  194.8870  172.8060  138.2900 O   0  0  0  0  0  0  0  0  0  0  0  0
  195.3450  171.0310  139.8630 C   0  0  1  0  0  3  0  0  0  0  0  0
  196.1500  169.9370  139.5390 O   0  0  0  0  0  1  0  0  0  0  0  0
  196.2070  172.1600  140.4150 C   0  0  0  0  0  2  0  0  0  0  0  0
  196.6730  171.8320  141.8200 C   0  0  0  0  0  2  0  0  0  0  0  0
  196.8160  172.3020  145.2260 N   0  0  0  0  0  0  0  0  0  0  0  0
  195.5460  170.8410  143.8190 C   0  0  0  0  0  2  0  0  0  0  0  0
  195.5220  171.9950  142.7920 C   0  0  1  0  0  3  0  0  0  0  0  0
  195.6760  171.3850  145.2360 C   0  0  2  0  0  3  0  0  0  0  0  0
  196.3110  173.5850  144.7130 C   0  0  1  0  0  3  0  0  0  0  0  0
  195.5230  173.4330  143.3920 C   0  0  2  0  0  3  0  0  0  0  0  0
  197.1860  172.5040  146.5140 O   0  0  0  0  0  1  0  0  0  0  0  0
  194.4470  172.2380  145.4850 C   0  0  0  0  0  2  0  0  0  0  0  0
  194.8000  173.5110  144.7380 C   0  0  1  0  0  0  0  0  0  0  0  0
  192.8320  175.8820  146.7320 N   0  0  0  0  0  2  0  0  0  0  0  0
  193.5460  174.6530  146.3910 C   0  0  0  0  0  2  0  0  0  0  0  0
  193.8160  176.9510  146.8910 C   0  0  0  0  0  2  0  0  0  0  0  0
  194.1780  174.7930  145.0770 N   0  0  1  0  0  0  0  0  0  0  0  0
  194.5820  177.1600  145.5860 C   0  0  0  0  0  2  0  0  0  0  0  0
  195.2090  175.8340  145.1680 C   0  0  0  0  0  2  0  0  0  0  0  0
  190.6820  175.2190  141.6150 C   0  0  2  0  0  3  0  0  0  0  0  0
  191.8050  174.9110  142.3970 O   0  0  0  0  0  0  0  0  0  0  0  0
  193.7800  176.0410  141.7180 C   0  0  0  0  0  1  0  0  0  0  0  0
  192.4980  176.1150  142.5220 C   0  0  0  0  0  2  0  0  0  0  0  0
  189.4040  175.2320  142.4850 C   0  0  1  0  0  3  0  0  0  0  0  0
  189.6020  175.8630  143.8600 C   0  0  0  0  0  2  0  0  0  0  0  0
  188.5860  175.2880  144.8350 C   0  0  2  0  0  3  0  0  0  0  0  0
  185.6680  177.8980  147.5110 C   0  0  0  0  0  2  0  0  0  0  0  0
  185.5590  180.2860  144.1190 C   0  0  0  0  0  1  0  0  0  0  0  0
  184.1140  178.3520  144.3990 N   0  0  0  0  0  2  0  0  0  0  0  0
  184.0710  178.0990  145.7380 O   0  0  0  0  0  0  0  0  0  0  0  0
  186.3410  178.1880  145.1380 C   0  0  2  0  0  3  0  0  0  0  0  0
  188.7070  177.1410  146.5310 C   0  0  0  0  0  2  0  0  0  0  0  0
  187.2510  177.2760  144.5520 O   0  0  0  0  0  0  0  0  0  0  0  0
  186.7630  177.1440  147.9640 O   0  0  0  0  0  0  0  0  0  0  0  0
  187.8050  176.4070  145.5230 C   0  0  1  0  0  3  0  0  0  0  0  0
  185.3190  177.5500  146.0620 C   0  0  1  0  0  3  0  0  0  0  0  0
  187.9030  177.8790  147.6040 C   0  0  0  0  0  2  0  0  0  0  0  0
  185.4690  178.7730  144.0740 C   0  0  2  0  0  3  0  0  0  0  0  0
  189.3190  174.4250  145.8480 C   0  0  0  0  0  2  0  0  0  0  0  0
  190.3840  173.6490  145.1490 C   0  0  0  0  0  3  0  0  0  0  0  0
  190.1100  172.4570  144.6300 C   0  0  0  0  0  3  0  0  0  0  0  0
  191.1810  171.6860  143.9370 C   0  0  0  0  0  2  0  0  0  0  0  0
  190.5750  170.8200  142.8460 C   0  0  0  0  0  2  0  0  0  0  0  0
  192.3060  169.4690  142.6220 C   0  0  0  0  0  1  0  0  0  0  0  0
  191.5630  170.4340  141.9390 O   0  0  0  0  0  0  0  0  0  0  0  0
  188.2200  175.8870  141.7720 C   0  0  0  0  0  2  0  0  0  0  0  0
  188.2950  177.4060  141.8060 C   0  0  0  0  0  2  0  0  0  0  0  0
  186.6330  177.1660  140.0350 C   0  0  0  0  0  2  0  0  0  0  0  0
  187.2810  177.9700  140.8720 C   0  0  0  0  0  3  0  0  0  0  0  0
  2  6  1  0  0  0  0
  3 15  1  0  0  0  0
  3 17  1  1  0  0  0
  4  8  1  6  0  0  0
  4 16  1  0  0  0  0
  5  1  1  0  0  0  0
  6 14  1  0  0  0  0
  7 10  1  6  0  0  0
  7 15  1  0  0  0  0
  7  2  1  0  0  0  0
  9 11  1  6  0  0  0
  9  5  1  0  0  0  0
 10  4  1  0  0  0  0
 12  7  1  0  0  0  0
 12  9  1  0  0  0  0
 14  1  1  0  0  0  0
 14 36  1  1  0  0  0
 15 13  1  6  0  0  0
 16  3  1  0  0  0  0
 17 18  1  6  0  0  0
 17 19  1  0  0  0  0
 19 20  1  0  0  0  0
 21 24  1  0  0  0  0
 21 27  1  0  0  0  0
 23 20  1  6  0  0  0
 23 26  1  0  0  0  0
 23 22  1  0  0  0  0
 24 22  1  6  0  0  0
 24 28  1  0  0  0  0
 25 29  1  0  0  0  0
 25 21  1  1  0  0  0
 26 25  1  0  0  0  0
 26 29  1  0  0  0  0
 29 33  1  0  0  0  0
 29 28  1  0  0  0  0
 30 32  1  0  0  0  0
 31 30  1  0  0  0  0
 33 35  1  0  0  0  0
 33 31  1  0  0  0  0
 34 32  1  0  0  0  0
 35 34  1  0  0  0  0
 36 37  1  0  0  0  0
 36 40  1  0  0  0  0
 37 39  1  0  0  0  0
 38 39  1  0  0  0  0
 40 41  1  0  0  0  0
 41 42  1  0  0  0  0
 42 51  1  0  0  0  0
 42 55  1  0  0  0  0
 43 50  1  0  0  0  0
 45 46  1  0  0  0  0
 46 52  1  0  0  0  0
 47 52  1  0  0  0  0
 48 53  1  0  0  0  0
 49 47  1  0  0  0  0
 49 51  1  0  0  0  0
 51 48  1  0  0  0  0
 52 43  1  0  0  0  0
 53 50  1  0  0  0  0
 54 44  1  0  0  0  0
 54 45  1  0  0  0  0
 54 47  1  0  0  0  0
 56 55  1  0  0  0  0
 57 56  2  0  0  0  0
 58 57  1  0  0  0  0
 59 58  1  0  0  0  0
 61 60  1  0  0  0  0
 61 59  1  0  0  0  0
 62 63  1  0  0  0  0
 62 40  1  0  0  0  0
 64 65  2  0  0  0  0
 65 63  1  0  0  0  0
M  END
>  <MODEL>
7

>  <REMARK>
 VINA RESULT:      -5.4      2.162      5.123
  Name = 
  20 active torsions:
  status: ('A' for Active; 'I' for Inactive)
    1  A    between atoms: C_7  and  C_14
    2  A    between atoms: C_13  and  C_27
    3  A    between atoms: C_13  and  C_42
    4  A    between atoms: C_13  and  C_53
    5  A    between atoms: C_14  and  C_18
    6  A    between atoms: C_18  and  C_38
    7  A    between atoms: C_19  and  C_20
    8  A    between atoms: C_19  and  C_54
    9  A    between atoms: C_22  and  C_29
   10  A    between atoms: C_24  and  C_38
   11  A    between atoms: C_27  and  C_58
   12  A    between atoms: C_27  and  O_65
   13  A    between atoms: C_29  and  C_42
   14  A    between atoms: C_34  and  O_65
   15  A    between atoms: C_35  and  C_61
   16  A    between atoms: N_39  and  C_56
   17  A    between atoms: C_41  and  C_54
   18  A    between atoms: C_46  and  O_47
   19  A    between atoms: C_46  and  C_61
   20  A    between atoms: C_53  and  C_54
                            x       y       z     vdW  Elec       q    Type
                         _______ _______ _______ _____ _____    ______ ____

>  <TORSDO>
F 20

$$$$
=
 OpenBabel11072409103D

 65 72  0  0  1  0  0  0  0  0999 V2000
  192.9080  174.7910  146.4420 C   0  0  0  0  0  2  0  0  0  0  0  0
  191.3340  176.5750  144.0010 O   0  0  0  0  0  0  0  0  0  0  0  0
  188.6300  175.5460  142.6820 C   0  0  1  0  0  3  0  0  0  0  0  0
  189.0830  177.7940  142.5610 C   0  0  1  0  0  3  0  0  0  0  0  0
  191.9410  175.5340  147.3540 C   0  0  0  0  0  2  0  0  0  0  0  0
  191.9860  175.3500  144.2200 C   0  0  0  0  0  2  0  0  0  0  0  0
  190.0350  176.5690  144.5780 C   0  0  2  0  0  0  0  0  0  0  0  0
  187.7840  178.2150  142.2660 O   0  0  0  0  0  1  0  0  0  0  0  0
  190.5130  175.4250  146.8450 C   0  0  1  0  0  3  0  0  0  0  0  0
  189.3320  177.8340  144.0820 C   0  0  0  0  0  2  0  0  0  0  0  0
  189.6560  175.2350  147.9280 O   0  0  0  0  0  1  0  0  0  0  0  0
  190.1130  176.7030  146.1140 C   0  0  0  0  0  2  0  0  0  0  0  0
  188.1000  175.1310  144.9720 O   0  0  0  0  0  1  0  0  0  0  0  0
  193.1630  175.5690  145.1570 C   0  0  2  0  0  3  0  0  0  0  0  0
  189.1790  175.3490  144.1100 C   0  0  1  0  0  3  0  0  0  0  0  0
  189.3500  176.5310  141.9760 O   0  0  0  0  0  0  0  0  0  0  0  0
  188.5880  174.2420  141.8830 C   0  0  1  0  0  3  0  0  0  0  0  0
  187.3470  173.6190  142.0270 O   0  0  0  0  0  1  0  0  0  0  0  0
  188.8750  174.4830  140.4060 C   0  0  0  0  0  2  0  0  0  0  0  0
  190.0500  173.6390  139.9500 C   0  0  0  0  0  2  0  0  0  0  0  0
  190.6800  174.0440  136.5910 N   0  0  0  0  0  0  0  0  0  0  0  0
  188.7060  173.5380  137.8450 C   0  0  0  0  0  2  0  0  0  0  0  0
  189.6250  172.7460  138.8020 C   0  0  1  0  0  3  0  0  0  0  0  0
  189.3010  173.5800  136.4430 C   0  0  2  0  0  3  0  0  0  0  0  0
  191.4780  172.8650  136.9610 C   0  0  1  0  0  3  0  0  0  0  0  0
  190.8710  172.0800  138.1470 C   0  0  2  0  0  3  0  0  0  0  0  0
  191.1070  174.4490  135.3700 O   0  0  0  0  0  1  0  0  0  0  0  0
  189.3850  172.1430  135.9660 C   0  0  0  0  0  2  0  0  0  0  0  0
  190.6170  171.6470  136.7020 C   0  0  1  0  0  0  0  0  0  0  0  0
  193.5960  169.8270  135.5690 N   0  0  0  0  0  2  0  0  0  0  0  0
  192.7960  170.9080  136.1410 C   0  0  0  0  0  2  0  0  0  0  0  0
  193.5660  168.6990  136.4990 C   0  0  0  0  0  2  0  0  0  0  0  0
  191.3900  170.5040  136.2120 N   0  0  1  0  0  0  0  0  0  0  0  0
  192.1320  168.2140  136.6950 C   0  0  0  0  0  2  0  0  0  0  0  0
  191.2770  169.3890  137.1590 C   0  0  0  0  0  2  0  0  0  0  0  0
  194.4820  175.1510  144.4890 C   0  0  2  0  0  3  0  0  0  0  0  0
  194.8280  176.0880  143.5050 O   0  0  0  0  0  0  0  0  0  0  0  0
  196.9490  176.7390  142.6580 C   0  0  0  0  0  1  0  0  0  0  0  0
  196.0810  176.5660  143.8880 C   0  0  0  0  0  2  0  0  0  0  0  0
  194.3430  173.7410  143.8690 C   0  0  1  0  0  3  0  0  0  0  0  0
  194.6950  173.6840  142.3860 C   0  0  0  0  0  2  0  0  0  0  0  0
  193.5390  173.0710  141.6110 C   0  0  2  0  0  3  0  0  0  0  0  0
  192.9430  168.5470  142.9040 C   0  0  0  0  0  2  0  0  0  0  0  0
  196.8350  168.1930  141.5080 C   0  0  0  0  0  1  0  0  0  0  0  0
  196.3210  168.9250  143.7680 N   0  0  0  0  0  2  0  0  0  0  0  0
  195.0540  168.4930  144.0300 O   0  0  0  0  0  0  0  0  0  0  0  0
  194.9560  169.6990  142.0150 C   0  0  2  0  0  3  0  0  0  0  0  0
  192.6560  170.9200  140.6540 C   0  0  0  0  0  2  0  0  0  0  0  0
  194.8870  171.0720  141.6810 O   0  0  0  0  0  0  0  0  0  0  0  0
  191.9530  169.4080  142.4010 O   0  0  0  0  0  0  0  0  0  0  0  0
  193.5540  171.5470  141.7350 C   0  0  1  0  0  3  0  0  0  0  0  0
  194.2070  169.3210  143.2810 C   0  0  1  0  0  3  0  0  0  0  0  0
  192.2010  169.5060  141.0230 C   0  0  0  0  0  2  0  0  0  0  0  0
  196.3630  169.3450  142.3750 C   0  0  2  0  0  3  0  0  0  0  0  0
  193.6410  173.5060  140.1590 C   0  0  0  0  0  2  0  0  0  0  0  0
  195.0530  173.8770  139.8580 C   0  0  0  0  0  3  0  0  0  0  0  0
  195.3210  174.9660  139.1440 C   0  0  0  0  0  3  0  0  0  0  0  0
  196.7350  175.3270  138.8430 C   0  0  0  0  0  2  0  0  0  0  0  0
  197.3830  174.2370  138.0060 C   0  0  0  0  0  2  0  0  0  0  0  0
  197.0280  173.4380  135.9800 C   0  0  0  0  0  1  0  0  0  0  0  0
  197.3810  174.6050  136.6590 O   0  0  0  0  0  0  0  0  0  0  0  0
  195.1380  172.6850  144.6380 C   0  0  0  0  0  2  0  0  0  0  0  0
  196.5790  172.5880  144.1620 C   0  0  0  0  0  2  0  0  0  0  0  0
  197.0100  173.3980  146.4230 C   0  0  0  0  0  2  0  0  0  0  0  0
  197.4950  172.8750  145.3020 C   0  0  0  0  0  3  0  0  0  0  0  0
  1  5  1  0  0  0  0
  2  6  1  0  0  0  0
  2  7  1  0  0  0  0
  3 17  1  6  0  0  0
  3 15  1  0  0  0  0
  4  8  1  1  0  0  0
  4 10  1  0  0  0  0
  6 14  1  0  0  0  0
  7 10  1  6  0  0  0
  7 12  1  0  0  0  0
  9  5  1  0  0  0  0
  9 11  1  1  0  0  0
 12  9  1  0  0  0  0
 14 36  1  6  0  0  0
 14  1  1  0  0  0  0
 15  7  1  0  0  0  0
 15 13  1  1  0  0  0
 16  4  1  0  0  0  0
 16  3  1  0  0  0  0
 17 18  1  6  0  0  0
 19 17  1  0  0  0  0
 20 19  1  0  0  0  0
 22 23  1  0  0  0  0
 23 20  1  1  0  0  0
 24 28  1  1  0  0  0
 24 21  1  0  0  0  0
 24 22  1  0  0  0  0
 25 21  1  6  0  0  0
 25 26  1  0  0  0  0
 26 23  1  0  0  0  0
 27 21  1  0  0  0  0
 28 29  1  0  0  0  0
 29 25  1  0  0  0  0
 29 26  1  0  0  0  0
 30 31  1  0  0  0  0
 30 32  1  0  0  0  0
 31 33  1  0  0  0  0
 32 34  1  0  0  0  0
 33 29  1  0  0  0  0
 33 35  1  0  0  0  0
 34 35  1  0  0  0  0
 37 39  1  0  0  0  0
 37 36  1  0  0  0  0
 38 39  1  0  0  0  0
 40 36  1  0  0  0  0
 40 62  1  0  0  0  0
 41 40  1  0  0  0  0
 42 51  1  0  0  0  0
 42 41  1  0  0  0  0
 43 52  1  0  0  0  0
 44 54  1  0  0  0  0
 45 46  1  0  0  0  0
 47 54  1  0  0  0  0
 47 52  1  0  0  0  0
 48 53  1  0  0  0  0
 48 51  1  0  0  0  0
 49 51  1  0  0  0  0
 49 47  1  0  0  0  0
 50 43  1  0  0  0  0
 52 46  1  0  0  0  0
 53 50  1  0  0  0  0
 54 45  1  0  0  0  0
 55 42  1  0  0  0  0
 56 55  1  0  0  0  0
 57 56  2  0  0  0  0
 58 57  1  0  0  0  0
 59 58  1  0  0  0  0
 60 61  1  0  0  0  0
 61 59  1  0  0  0  0
 63 62  1  0  0  0  0
 63 65  1  0  0  0  0
 65 64  2  0  0  0  0
M  END
>  <MODEL>
8

>  <REMARK>
 VINA RESULT:      -5.3      2.857      9.178
  Name = 
  20 active torsions:
  status: ('A' for Active; 'I' for Inactive)
    1  A    between atoms: C_7  and  C_14
    2  A    between atoms: C_13  and  C_27
    3  A    between atoms: C_13  and  C_42
    4  A    between atoms: C_13  and  C_53
    5  A    between atoms: C_14  and  C_18
    6  A    between atoms: C_18  and  C_38
    7  A    between atoms: C_19  and  C_20
    8  A    between atoms: C_19  and  C_54
    9  A    between atoms: C_22  and  C_29
   10  A    between atoms: C_24  and  C_38
   11  A    between atoms: C_27  and  C_58
   12  A    between atoms: C_27  and  O_65
   13  A    between atoms: C_29  and  C_42
   14  A    between atoms: C_34  and  O_65
   15  A    between atoms: C_35  and  C_61
   16  A    between atoms: N_39  and  C_56
   17  A    between atoms: C_41  and  C_54
   18  A    between atoms: C_46  and  O_47
   19  A    between atoms: C_46  and  C_61
   20  A    between atoms: C_53  and  C_54
                            x       y       z     vdW  Elec       q    Type
                         _______ _______ _______ _____ _____    ______ ____

>  <TORSDO>
F 20

$$$$
=
 OpenBabel11072409103D

 65 72  0  0  1  0  0  0  0  0999 V2000
  188.1210  176.0510  147.6230 C   0  0  0  0  0  2  0  0  0  0  0  0
  188.9700  177.2270  144.5380 O   0  0  0  0  0  0  0  0  0  0  0  0
  187.7960  175.9170  141.8880 C   0  0  1  0  0  3  0  0  0  0  0  0
  188.5620  178.0780  141.7570 C   0  0  1  0  0  3  0  0  0  0  0  0
  186.9290  176.9810  147.4480 C   0  0  0  0  0  2  0  0  0  0  0  0
  189.0860  176.0860  145.3490 C   0  0  0  0  0  2  0  0  0  0  0  0
  187.6530  177.3500  144.0190 C   0  0  2  0  0  0  0  0  0  0  0  0
  187.9120  178.4190  140.5680 O   0  0  0  0  0  1  0  0  0  0  0  0
  186.2500  176.7560  146.1060 C   0  0  1  0  0  3  0  0  0  0  0  0
  187.6990  178.4670  142.9750 C   0  0  0  0  0  2  0  0  0  0  0  0
  184.8680  176.8180  146.2790 O   0  0  0  0  0  1  0  0  0  0  0  0
  186.6740  177.8320  145.1110 C   0  0  0  0  0  2  0  0  0  0  0  0
  185.7810  176.0360  143.1600 O   0  0  0  0  0  1  0  0  0  0  0  0
  189.3100  176.5150  146.7890 C   0  0  2  0  0  3  0  0  0  0  0  0
  187.1730  176.0540  143.2920 C   0  0  1  0  0  3  0  0  0  0  0  0
  188.9500  176.7160  141.7480 O   0  0  0  0  0  0  0  0  0  0  0  0
  188.1080  174.4650  141.5210 C   0  0  1  0  0  3  0  0  0  0  0  0
  187.0620  173.6260  141.9130 O   0  0  0  0  0  1  0  0  0  0  0  0
  188.3620  174.3080  140.0270 C   0  0  0  0  0  2  0  0  0  0  0  0
  189.5570  173.4080  139.7840 C   0  0  0  0  0  2  0  0  0  0  0  0
  190.7390  174.2400  136.6610 N   0  0  0  0  0  0  0  0  0  0  0  0
  188.6020  173.5380  137.4780 C   0  0  0  0  0  2  0  0  0  0  0  0
  189.3750  172.6540  138.4820 C   0  0  1  0  0  3  0  0  0  0  0  0
  189.4280  173.7670  136.2180 C   0  0  2  0  0  3  0  0  0  0  0  0
  191.5110  173.0410  137.0230 C   0  0  1  0  0  3  0  0  0  0  0  0
  190.7440  172.1030  137.9830 C   0  0  2  0  0  3  0  0  0  0  0  0
  191.3520  174.8020  135.5900 O   0  0  0  0  0  1  0  0  0  0  0  0
  189.6550  172.4030  135.5970 C   0  0  0  0  0  2  0  0  0  0  0  0
  190.7620  171.8470  136.4740 C   0  0  1  0  0  0  0  0  0  0  0  0
  193.9680  170.1900  135.8040 N   0  0  0  0  0  2  0  0  0  0  0  0
  193.0280  171.1720  136.3430 C   0  0  0  0  0  2  0  0  0  0  0  0
  193.7380  168.9180  136.4890 C   0  0  0  0  0  2  0  0  0  0  0  0
  191.6570  170.7900  135.9970 N   0  0  1  0  0  0  0  0  0  0  0  0
  192.3100  168.4360  136.2420 C   0  0  0  0  0  2  0  0  0  0  0  0
  191.3410  169.5300  136.6800 C   0  0  0  0  0  2  0  0  0  0  0  0
  190.6370  175.9580  147.3280 C   0  0  2  0  0  3  0  0  0  0  0  0
  191.4870  177.0180  147.6730 O   0  0  0  0  0  0  0  0  0  0  0  0
  191.5540  178.1010  149.7850 C   0  0  0  0  0  1  0  0  0  0  0  0
  190.7390  177.8130  148.5410 C   0  0  0  0  0  2  0  0  0  0  0  0
  191.3050  175.0510  146.2690 C   0  0  1  0  0  3  0  0  0  0  0  0
  192.7440  174.6710  146.6040 C   0  0  0  0  0  2  0  0  0  0  0  0
  193.6930  175.7030  146.0150 C   0  0  2  0  0  3  0  0  0  0  0  0
  192.6650  174.9210  141.4520 C   0  0  0  0  0  2  0  0  0  0  0  0
  196.5020  176.3980  140.8880 C   0  0  0  0  0  1  0  0  0  0  0  0
  196.0660  174.0640  141.4040 N   0  0  0  0  0  2  0  0  0  0  0  0
  194.7640  173.8350  141.0680 O   0  0  0  0  0  0  0  0  0  0  0  0
  194.7790  175.7000  142.4990 C   0  0  2  0  0  3  0  0  0  0  0  0
  192.6050  176.8850  144.0810 C   0  0  0  0  0  2  0  0  0  0  0  0
  194.8420  175.8760  143.9020 O   0  0  0  0  0  0  0  0  0  0  0  0
  191.7620  175.3100  142.4550 O   0  0  0  0  0  0  0  0  0  0  0  0
  193.5610  175.7520  144.4930 C   0  0  1  0  0  3  0  0  0  0  0  0
  193.9990  174.4750  142.0530 C   0  0  1  0  0  3  0  0  0  0  0  0
  192.0150  176.6720  142.6850 C   0  0  0  0  0  2  0  0  0  0  0  0
  196.1450  175.4000  141.9730 C   0  0  2  0  0  3  0  0  0  0  0  0
  195.1120  175.3550  146.4340 C   0  0  0  0  0  2  0  0  0  0  0  0
  195.4840  174.0350  145.8500 C   0  0  0  0  0  3  0  0  0  0  0  0
  196.7260  173.5770  145.9700 C   0  0  0  0  0  3  0  0  0  0  0  0
  197.0910  172.2580  145.3790 C   0  0  0  0  0  2  0  0  0  0  0  0
  195.8850  171.3340  145.3860 C   0  0  0  0  0  2  0  0  0  0  0  0
  196.1500  169.2630  146.0980 C   0  0  0  0  0  1  0  0  0  0  0  0
  195.8850  170.5580  146.5450 O   0  0  0  0  0  0  0  0  0  0  0  0
  190.4850  173.7940  145.9770 C   0  0  0  0  0  2  0  0  0  0  0  0
  191.0150  173.0240  144.7770 C   0  0  0  0  0  2  0  0  0  0  0  0
  190.0830  171.6740  142.9710 C   0  0  0  0  0  2  0  0  0  0  0  0
  189.8990  172.2660  144.1460 C   0  0  0  0  0  3  0  0  0  0  0  0
  2  6  1  0  0  0  0
  3 17  1  1  0  0  0
  3 15  1  0  0  0  0
  4  8  1  6  0  0  0
  4 10  1  0  0  0  0
  5  1  1  0  0  0  0
  6 14  1  0  0  0  0
  7 10  1  6  0  0  0
  7  2  1  0  0  0  0
  7 12  1  0  0  0  0
  9 11  1  1  0  0  0
  9  5  1  0  0  0  0
 12  9  1  0  0  0  0
 14 36  1  1  0  0  0
 14  1  1  0  0  0  0
 15 13  1  6  0  0  0
 15  7  1  0  0  0  0
 16  4  1  0  0  0  0
 16  3  1  0  0  0  0
 17 18  1  6  0  0  0
 19 17  1  0  0  0  0
 20 19  1  0  0  0  0
 22 23  1  0  0  0  0
 23 20  1  1  0  0  0
 24 28  1  1  0  0  0
 24 21  1  0  0  0  0
 24 22  1  0  0  0  0
 25 21  1  6  0  0  0
 25 26  1  0  0  0  0
 26 23  1  0  0  0  0
 27 21  1  0  0  0  0
 28 29  1  0  0  0  0
 29 25  1  0  0  0  0
 29 26  1  0  0  0  0
 30 31  1  0  0  0  0
 30 32  1  0  0  0  0
 33 31  1  0  0  0  0
 33 29  1  0  0  0  0
 33 35  1  0  0  0  0
 34 32  1  0  0  0  0
 34 35  1  0  0  0  0
 36 37  1  0  0  0  0
 37 39  1  0  0  0  0
 39 38  1  0  0  0  0
 40 41  1  0  0  0  0
 40 36  1  0  0  0  0
 42 55  1  0  0  0  0
 42 41  1  0  0  0  0
 43 52  1  0  0  0  0
 43 50  1  0  0  0  0
 44 54  1  0  0  0  0
 45 54  1  0  0  0  0
 46 45  1  0  0  0  0
 46 52  1  0  0  0  0
 47 49  1  0  0  0  0
 48 51  1  0  0  0  0
 49 51  1  0  0  0  0
 50 53  1  0  0  0  0
 51 42  1  0  0  0  0
 52 47  1  0  0  0  0
 53 48  1  0  0  0  0
 54 47  1  0  0  0  0
 56 57  2  0  0  0  0
 56 55  1  0  0  0  0
 58 59  1  0  0  0  0
 58 57  1  0  0  0  0
 59 61  1  0  0  0  0
 60 61  1  0  0  0  0
 62 40  1  0  0  0  0
 63 62  1  0  0  0  0
 64 65  2  0  0  0  0
 65 63  1  0  0  0  0
M  END
>  <MODEL>
9

>  <REMARK>
 VINA RESULT:      -5.1      2.883      8.812
  Name = 
  20 active torsions:
  status: ('A' for Active; 'I' for Inactive)
    1  A    between atoms: C_7  and  C_14
    2  A    between atoms: C_13  and  C_27
    3  A    between atoms: C_13  and  C_42
    4  A    between atoms: C_13  and  C_53
    5  A    between atoms: C_14  and  C_18
    6  A    between atoms: C_18  and  C_38
    7  A    between atoms: C_19  and  C_20
    8  A    between atoms: C_19  and  C_54
    9  A    between atoms: C_22  and  C_29
   10  A    between atoms: C_24  and  C_38
   11  A    between atoms: C_27  and  C_58
   12  A    between atoms: C_27  and  O_65
   13  A    between atoms: C_29  and  C_42
   14  A    between atoms: C_34  and  O_65
   15  A    between atoms: C_35  and  C_61
   16  A    between atoms: N_39  and  C_56
   17  A    between atoms: C_41  and  C_54
   18  A    between atoms: C_46  and  O_47
   19  A    between atoms: C_46  and  C_61
   20  A    between atoms: C_53  and  C_54
                            x       y       z     vdW  Elec       q    Type
                         _______ _______ _______ _____ _____    ______ ____

>  <TORSDO>
F 20

$$$$
