=
 OpenBabel11072408563D

 45 49  0  0  1  0  0  0  0  0999 V2000
  191.5700  176.4160  142.7650 O   0  0  0  0  0  0  0  0  0  0  0  0
  192.3450  176.6060  143.7420 C   0  0  0  0  0  0  0  0  0  0  0  0
  193.7500  176.4030  143.5660 N   0  0  0  0  0  2  0  0  0  0  0  0
  190.2600  178.7600  144.3060 O   0  0  0  0  0  0  0  0  0  0  0  0
  190.4720  177.6780  144.9160 C   0  0  0  0  0  0  0  0  0  0  0  0
  191.6010  175.8800  145.8950 O   0  0  0  0  0  0  0  0  0  0  0  0
  191.7830  177.0220  145.0700 C   0  0  1  0  0  3  0  0  0  0  0  0
  189.6960  174.4490  145.6300 C   0  0  0  0  0  1  0  0  0  0  0  0
  189.5010  176.9150  145.6150 C   0  0  0  0  0  0  0  0  0  0  0  0
  190.2180  175.7550  146.2040 C   0  0  2  0  0  3  0  0  0  0  0  0
  188.2180  177.2480  145.7690 C   0  0  0  0  0  3  0  0  0  0  0  0
  187.2780  176.4220  146.5760 C   0  0  0  0  0  2  0  0  0  0  0  0
  186.3620  177.3280  147.3770 C   0  0  0  0  0  2  0  0  0  0  0  0
  185.9070  178.4990  146.5220 C   0  0  0  0  0  2  0  0  0  0  0  0
  184.4070  178.4380  146.2970 C   0  0  0  0  0  2  0  0  0  0  0  0
  184.0680  179.1020  144.9780 C   0  0  0  0  0  2  0  0  0  0  0  0
  184.2340  178.1860  143.9390 O   0  0  0  0  0  0  0  0  0  0  0  0
  188.3360  176.2110  141.8650 C   0  0  0  0  0  2  0  0  0  0  0  0
  186.2180  177.8390  142.6980 C   0  0  2  0  0  0  0  0  0  0  0  0
  188.0170  177.6000  141.3100 C   0  0  0  0  0  2  0  0  0  0  0  0
  187.4390  178.4220  142.3000 O   0  0  0  0  0  0  0  0  0  0  0  0
  185.1200  178.1220  141.7630 N   0  0  0  0  0  2  0  0  0  0  0  0
  185.1710  178.7810  143.0880 C   0  0  1  0  0  3  0  0  0  0  0  0
  186.2330  176.3970  143.2180 C   0  0  0  0  0  2  0  0  0  0  0  0
  187.0280  175.5230  142.2530 C   0  0  0  0  0  2  0  0  0  0  0  0
  194.7330  176.5480  144.6330 C   0  0  0  0  0  2  0  0  0  0  0  0
  193.8480  173.1650  145.6920 C   0  0  0  0  0  3  0  0  0  0  0  0
  195.1410  175.2160  145.1710 C   0  0  0  0  0  0  0  0  0  0  0  0
  194.2590  174.5220  146.1610 C   0  0  0  0  0  2  0  0  0  0  0  0
  196.8840  173.4320  145.2620 C   0  0  0  0  0  3  0  0  0  0  0  0
  194.7040  172.1680  145.4330 C   0  0  0  0  0  0  0  0  0  0  0  0
  196.3430  174.7390  144.8440 C   0  0  0  0  0  3  0  0  0  0  0  0
  196.1760  172.3250  145.5170 C   0  0  0  0  0  3  0  0  0  0  0  0
  193.2120  170.7080  144.0320 N   0  0  0  0  0  2  0  0  0  0  0  0
  193.2650  168.1660  143.8740 C   0  0  0  0  0  1  0  0  0  0  0  0
  194.1650  170.8360  145.0960 C   0  0  0  0  0  0  0  0  0  0  0  0
  192.6910  169.4870  143.4850 C   0  0  0  0  0  0  0  0  0  0  0  0
  194.5350  169.8210  145.7490 O   0  0  0  0  0  0  0  0  0  0  0  0
  191.7390  169.4960  142.5970 N   0  0  0  0  0  0  0  0  0  0  0  0
  191.0340  170.6270  142.0540 C   0  0  0  0  0  0  0  0  0  0  0  0
  190.0040  171.2880  142.7470 C   0  0  0  0  0  3  0  0  0  0  0  0
  190.7120  172.1520  140.1880 C   0  0  0  0  0  3  0  0  0  0  0  0
  191.3770  171.0680  140.7700 C   0  0  0  0  0  3  0  0  0  0  0  0
  189.6930  172.8040  140.8860 C   0  0  0  0  0  3  0  0  0  0  0  0
  189.3380  172.3720  142.1670 C   0  0  0  0  0  3  0  0  0  0  0  0
  1  2  2  0  0  0  0
  3  2  1  0  0  0  0
  3 26  1  0  0  0  0
  4  5  2  0  0  0  0
  5  7  1  0  0  0  0
  5  9  1  0  0  0  0
  6 10  1  0  0  0  0
  7  2  1  6  0  0  0
  7  6  1  0  0  0  0
  9 11  2  0  0  0  0
  9 10  1  0  0  0  0
 10  8  1  6  0  0  0
 11 12  1  0  0  0  0
 12 13  1  0  0  0  0
 14 13  1  0  0  0  0
 15 14  1  0  0  0  0
 16 15  1  0  0  0  0
 17 16  1  0  0  0  0
 18 25  1  0  0  0  0
 19 23  1  0  0  0  0
 19 24  1  1  0  0  0
 20 18  1  0  0  0  0
 20 21  1  0  0  0  0
 21 19  1  0  0  0  0
 22 19  1  0  0  0  0
 22 23  1  0  0  0  0
 23 17  1  1  0  0  0
 25 24  1  0  0  0  0
 26 28  1  0  0  0  0
 27 29  1  0  0  0  0
 28 29  1  0  0  0  0
 30 33  2  0  0  0  0
 31 33  1  0  0  0  0
 31 27  2  0  0  0  0
 32 28  2  0  0  0  0
 32 30  1  0  0  0  0
 34 36  1  0  0  0  0
 36 31  1  0  0  0  0
 36 38  2  0  0  0  0
 37 35  1  0  0  0  0
 37 34  1  0  0  0  0
 39 37  2  0  0  0  0
 40 39  1  0  0  0  0
 40 41  1  0  0  0  0
 42 43  1  0  0  0  0
 42 44  2  0  0  0  0
 43 40  2  0  0  0  0
 44 45  1  0  0  0  0
 45 41  2  0  0  0  0
M  END
>  <MODEL>
1

>  <REMARK>
 VINA RESULT:      -8.1      0.000      0.000
  Name = 
  12 active torsions:
  status: ('A' for Active; 'I' for Inactive)
    1  A    between atoms: C_3  and  N_43
    2  A    between atoms: C_12  and  C_17
    3  A    between atoms: C_13  and  C_14
    4  A    between atoms: C_13  and  C_24
    5  A    between atoms: C_14  and  C_38
    6  A    between atoms: C_16  and  O_28
    7  A    between atoms: C_17  and  N_34
    8  A    between atoms: C_21  and  C_27
    9  A    between atoms: C_24  and  C_26
   10  A    between atoms: C_26  and  C_44
   11  A    between atoms: O_28  and  C_38
   12  A    between atoms: C_32  and  C_35
                            x       y       z     vdW  Elec       q    Type
                         _______ _______ _______ _____ _____    ______ ____

>  <TORSDO>
F 12

$$$$
=
 OpenBabel11072408563D

 45 49  0  0  1  0  0  0  0  0999 V2000
  193.1990  173.6530  145.9940 O   0  0  0  0  0  0  0  0  0  0  0  0
  193.8590  174.6020  145.4910 C   0  0  0  0  0  0  0  0  0  0  0  0
  195.1610  174.3400  144.9620 N   0  0  0  0  0  2  0  0  0  0  0  0
  191.7460  175.7240  143.5990 O   0  0  0  0  0  0  0  0  0  0  0  0
  191.9620  176.0070  144.8080 C   0  0  0  0  0  0  0  0  0  0  0  0
  193.0990  176.4520  146.8010 O   0  0  0  0  0  0  0  0  0  0  0  0
  193.2780  175.9860  145.4710 C   0  0  1  0  0  3  0  0  0  0  0  0
  191.2120  175.7690  148.1120 C   0  0  0  0  0  1  0  0  0  0  0  0
  190.9920  176.4480  145.7430 C   0  0  0  0  0  0  0  0  0  0  0  0
  191.7150  176.6950  147.0180 C   0  0  2  0  0  3  0  0  0  0  0  0
  189.7040  176.6730  145.4770 C   0  0  0  0  0  3  0  0  0  0  0  0
  188.7640  177.2020  146.5040 C   0  0  0  0  0  2  0  0  0  0  0  0
  187.7810  176.1170  146.9000 C   0  0  0  0  0  2  0  0  0  0  0  0
  186.4530  176.7350  147.3030 C   0  0  0  0  0  2  0  0  0  0  0  0
  186.5040  178.2450  147.1490 C   0  0  0  0  0  2  0  0  0  0  0  0
  185.1680  178.7450  146.6390 C   0  0  0  0  0  2  0  0  0  0  0  0
  184.7370  177.9340  145.5890 O   0  0  0  0  0  0  0  0  0  0  0  0
  187.3910  176.9540  141.4620 C   0  0  0  0  0  2  0  0  0  0  0  0
  185.7610  178.0450  143.4580 C   0  0  2  0  0  0  0  0  0  0  0  0
  186.5320  178.2110  141.3140 C   0  0  0  0  0  2  0  0  0  0  0  0
  186.4150  178.8950  142.5430 O   0  0  0  0  0  0  0  0  0  0  0  0
  184.3020  178.0310  143.2800 N   0  0  0  0  0  2  0  0  0  0  0  0
  184.9130  178.7160  144.4420 C   0  0  1  0  0  3  0  0  0  0  0  0
  186.3660  176.6630  143.7320 C   0  0  0  0  0  2  0  0  0  0  0  0
  186.6840  175.9820  142.4040 C   0  0  0  0  0  2  0  0  0  0  0  0
  196.0320  175.3660  144.3970 C   0  0  0  0  0  2  0  0  0  0  0  0
  195.0330  173.7100  141.2970 C   0  0  0  0  0  3  0  0  0  0  0  0
  196.1850  175.1860  142.9220 C   0  0  0  0  0  0  0  0  0  0  0  0
  196.1000  173.8120  142.3360 C   0  0  0  0  0  2  0  0  0  0  0  0
  196.6750  176.2490  140.7170 C   0  0  0  0  0  3  0  0  0  0  0  0
  195.0160  174.4270  140.1650 C   0  0  0  0  0  0  0  0  0  0  0  0
  196.5160  176.2470  142.1840 C   0  0  0  0  0  3  0  0  0  0  0  0
  196.0290  175.4620  139.8490 C   0  0  0  0  0  3  0  0  0  0  0  0
  192.6450  173.8160  139.5920 N   0  0  0  0  0  2  0  0  0  0  0  0
  191.5240  173.9970  137.3110 C   0  0  0  0  0  1  0  0  0  0  0  0
  193.9730  174.1440  139.1590 C   0  0  0  0  0  0  0  0  0  0  0  0
  191.4860  173.6470  138.7600 C   0  0  0  0  0  0  0  0  0  0  0  0
  194.2540  174.1820  137.9290 O   0  0  0  0  0  0  0  0  0  0  0  0
  190.3550  173.2320  139.2540 N   0  0  0  0  0  0  0  0  0  0  0  0
  190.0590  172.8440  140.6090 C   0  0  0  0  0  0  0  0  0  0  0  0
  189.4680  173.7170  141.5400 C   0  0  0  0  0  3  0  0  0  0  0  0
  190.1490  171.1260  142.3260 C   0  0  0  0  0  3  0  0  0  0  0  0
  190.3990  171.5490  141.0160 C   0  0  0  0  0  3  0  0  0  0  0  0
  189.5580  171.9990  143.2420 C   0  0  0  0  0  3  0  0  0  0  0  0
  189.2170  173.2960  142.8490 C   0  0  0  0  0  3  0  0  0  0  0  0
  2  1  2  0  0  0  0
  3  2  1  0  0  0  0
  4  5  2  0  0  0  0
  5  7  1  0  0  0  0
  5  9  1  0  0  0  0
  6 10  1  0  0  0  0
  7  2  1  1  0  0  0
  7  6  1  0  0  0  0
  9 10  1  0  0  0  0
 10  8  1  1  0  0  0
 11  9  2  0  0  0  0
 11 12  1  0  0  0  0
 12 13  1  0  0  0  0
 13 14  1  0  0  0  0
 15 14  1  0  0  0  0
 16 15  1  0  0  0  0
 17 16  1  0  0  0  0
 18 25  1  0  0  0  0
 19 24  1  1  0  0  0
 19 23  1  0  0  0  0
 20 18  1  0  0  0  0
 20 21  1  0  0  0  0
 21 19  1  0  0  0  0
 22 19  1  0  0  0  0
 22 23  1  0  0  0  0
 23 17  1  1  0  0  0
 25 24  1  0  0  0  0
 26  3  1  0  0  0  0
 27 29  1  0  0  0  0
 28 26  1  0  0  0  0
 29 28  1  0  0  0  0
 30 32  1  0  0  0  0
 31 27  2  0  0  0  0
 32 28  2  0  0  0  0
 33 31  1  0  0  0  0
 33 30  2  0  0  0  0
 35 37  1  0  0  0  0
 36 34  1  0  0  0  0
 36 31  1  0  0  0  0
 37 39  2  0  0  0  0
 37 34  1  0  0  0  0
 38 36  2  0  0  0  0
 39 40  1  0  0  0  0
 40 43  2  0  0  0  0
 40 41  1  0  0  0  0
 41 45  2  0  0  0  0
 42 44  2  0  0  0  0
 43 42  1  0  0  0  0
 45 44  1  0  0  0  0
M  END
>  <MODEL>
2

>  <REMARK>
 VINA RESULT:      -7.7      2.496      3.689
  Name = 
  12 active torsions:
  status: ('A' for Active; 'I' for Inactive)
    1  A    between atoms: C_3  and  N_43
    2  A    between atoms: C_12  and  C_17
    3  A    between atoms: C_13  and  C_14
    4  A    between atoms: C_13  and  C_24
    5  A    between atoms: C_14  and  C_38
    6  A    between atoms: C_16  and  O_28
    7  A    between atoms: C_17  and  N_34
    8  A    between atoms: C_21  and  C_27
    9  A    between atoms: C_24  and  C_26
   10  A    between atoms: C_26  and  C_44
   11  A    between atoms: O_28  and  C_38
   12  A    between atoms: C_32  and  C_35
                            x       y       z     vdW  Elec       q    Type
                         _______ _______ _______ _____ _____    ______ ____

>  <TORSDO>
F 12

$$$$
=
 OpenBabel11072408563D

 45 49  0  0  1  0  0  0  0  0999 V2000
  192.5620  173.8560  145.8570 O   0  0  0  0  0  0  0  0  0  0  0  0
  193.3410  174.7710  145.4760 C   0  0  0  0  0  0  0  0  0  0  0  0
  194.7260  174.4690  145.2840 N   0  0  0  0  0  2  0  0  0  0  0  0
  192.8740  176.1880  142.8160 O   0  0  0  0  0  0  0  0  0  0  0  0
  192.2370  176.2960  143.8980 C   0  0  0  0  0  0  0  0  0  0  0  0
  191.7820  176.4380  146.1870 O   0  0  0  0  0  0  0  0  0  0  0  0
  192.8110  176.1560  145.2480 C   0  0  1  0  0  3  0  0  0  0  0  0
  189.5510  175.6200  145.8650 C   0  0  0  0  0  1  0  0  0  0  0  0
  190.8630  176.6240  144.0230 C   0  0  0  0  0  0  0  0  0  0  0  0
  190.5720  176.6780  145.4790 C   0  0  2  0  0  3  0  0  0  0  0  0
  190.0390  176.9110  143.0140 C   0  0  0  0  0  3  0  0  0  0  0  0
  188.6230  177.3130  143.2370 C   0  0  0  0  0  2  0  0  0  0  0  0
  187.7650  176.8150  142.0890 C   0  0  0  0  0  2  0  0  0  0  0  0
  187.2060  177.9900  141.3050 C   0  0  0  0  0  2  0  0  0  0  0  0
  185.8090  177.6740  140.8040 C   0  0  0  0  0  2  0  0  0  0  0  0
  184.7870  178.3120  141.7230 C   0  0  0  0  0  2  0  0  0  0  0  0
  184.7610  177.6260  142.9380 O   0  0  0  0  0  0  0  0  0  0  0  0
  185.7990  177.6300  147.8320 C   0  0  0  0  0  2  0  0  0  0  0  0
  184.9900  178.2150  145.2180 C   0  0  2  0  0  0  0  0  0  0  0  0
  185.3060  178.9920  147.3430 C   0  0  0  0  0  2  0  0  0  0  0  0
  184.3570  178.8480  146.3080 O   0  0  0  0  0  0  0  0  0  0  0  0
  185.7930  179.1420  144.4090 N   0  0  0  0  0  2  0  0  0  0  0  0
  184.5080  178.6130  143.8970 C   0  0  1  0  0  3  0  0  0  0  0  0
  185.6580  176.8550  145.4510 C   0  0  0  0  0  2  0  0  0  0  0  0
  186.5430  176.9370  146.6920 C   0  0  0  0  0  2  0  0  0  0  0  0
  195.7270  175.4550  144.8900 C   0  0  0  0  0  2  0  0  0  0  0  0
  195.1560  173.8780  141.6440 C   0  0  0  0  0  3  0  0  0  0  0  0
  196.0070  175.3780  143.4250 C   0  0  0  0  0  0  0  0  0  0  0  0
  196.1250  174.0390  142.7680 C   0  0  0  0  0  2  0  0  0  0  0  0
  196.5290  176.6130  141.3190 C   0  0  0  0  0  3  0  0  0  0  0  0
  195.1370  174.6510  140.5510 C   0  0  0  0  0  0  0  0  0  0  0  0
  196.2650  176.5090  142.7670 C   0  0  0  0  0  3  0  0  0  0  0  0
  196.0430  175.8100  140.3650 C   0  0  0  0  0  3  0  0  0  0  0  0
  192.8720  173.8990  139.7620 N   0  0  0  0  0  2  0  0  0  0  0  0
  191.9550  174.0240  137.3880 C   0  0  0  0  0  1  0  0  0  0  0  0
  194.2110  174.3100  139.4530 C   0  0  0  0  0  0  0  0  0  0  0  0
  191.8060  173.6640  138.8280 C   0  0  0  0  0  0  0  0  0  0  0  0
  194.6000  174.3730  138.2540 O   0  0  0  0  0  0  0  0  0  0  0  0
  190.6620  173.1770  139.2160 N   0  0  0  0  0  0  0  0  0  0  0  0
  190.2680  172.7630  140.5370 C   0  0  0  0  0  0  0  0  0  0  0  0
  190.5320  171.4780  141.0440 C   0  0  0  0  0  3  0  0  0  0  0  0
  189.1510  173.3210  142.6230 C   0  0  0  0  0  3  0  0  0  0  0  0
  189.5730  173.6770  141.3380 C   0  0  0  0  0  3  0  0  0  0  0  0
  189.4220  172.0430  143.1190 C   0  0  0  0  0  3  0  0  0  0  0  0
  190.1130  171.1200  142.3290 C   0  0  0  0  0  3  0  0  0  0  0  0
  2  1  2  0  0  0  0
  3  2  1  0  0  0  0
  4  5  2  0  0  0  0
  5  9  1  0  0  0  0
  5  7  1  0  0  0  0
  7  2  1  1  0  0  0
  7  6  1  0  0  0  0
  9 10  1  0  0  0  0
 10  8  1  6  0  0  0
 10  6  1  0  0  0  0
 11 12  1  0  0  0  0
 11  9  2  0  0  0  0
 13 12  1  0  0  0  0
 14 13  1  0  0  0  0
 15 14  1  0  0  0  0
 15 16  1  0  0  0  0
 16 17  1  0  0  0  0
 19 24  1  1  0  0  0
 19 21  1  0  0  0  0
 20 18  1  0  0  0  0
 21 20  1  0  0  0  0
 22 19  1  0  0  0  0
 23 17  1  6  0  0  0
 23 22  1  0  0  0  0
 23 19  1  0  0  0  0
 24 25  1  0  0  0  0
 25 18  1  0  0  0  0
 26  3  1  0  0  0  0
 27 29  1  0  0  0  0
 28 26  1  0  0  0  0
 29 28  1  0  0  0  0
 30 32  1  0  0  0  0
 31 27  2  0  0  0  0
 32 28  2  0  0  0  0
 33 31  1  0  0  0  0
 33 30  2  0  0  0  0
 35 37  1  0  0  0  0
 36 34  1  0  0  0  0
 36 31  1  0  0  0  0
 37 39  2  0  0  0  0
 37 34  1  0  0  0  0
 38 36  2  0  0  0  0
 39 40  1  0  0  0  0
 40 41  2  0  0  0  0
 40 43  1  0  0  0  0
 41 45  1  0  0  0  0
 42 44  1  0  0  0  0
 43 42  2  0  0  0  0
 45 44  2  0  0  0  0
M  END
>  <MODEL>
3

>  <REMARK>
 VINA RESULT:      -7.6      2.426      4.291
  Name = 
  12 active torsions:
  status: ('A' for Active; 'I' for Inactive)
    1  A    between atoms: C_3  and  N_43
    2  A    between atoms: C_12  and  C_17
    3  A    between atoms: C_13  and  C_14
    4  A    between atoms: C_13  and  C_24
    5  A    between atoms: C_14  and  C_38
    6  A    between atoms: C_16  and  O_28
    7  A    between atoms: C_17  and  N_34
    8  A    between atoms: C_21  and  C_27
    9  A    between atoms: C_24  and  C_26
   10  A    between atoms: C_26  and  C_44
   11  A    between atoms: O_28  and  C_38
   12  A    between atoms: C_32  and  C_35
                            x       y       z     vdW  Elec       q    Type
                         _______ _______ _______ _____ _____    ______ ____

>  <TORSDO>
F 12

$$$$
=
 OpenBabel11072408563D

 45 49  0  0  1  0  0  0  0  0999 V2000
  189.0670  174.6160  147.1390 O   0  0  0  0  0  0  0  0  0  0  0  0
  188.8100  175.8280  146.9060 C   0  0  0  0  0  0  0  0  0  0  0  0
  187.4520  176.2240  146.6960 N   0  0  0  0  0  2  0  0  0  0  0  0
  191.3160  175.9660  148.6410 O   0  0  0  0  0  0  0  0  0  0  0  0
  191.1650  176.2920  147.4330 C   0  0  0  0  0  0  0  0  0  0  0  0
  190.2040  177.1480  145.4810 O   0  0  0  0  0  0  0  0  0  0  0  0
  189.9270  176.8280  146.8380 C   0  0  1  0  0  3  0  0  0  0  0  0
  191.5290  175.6960  144.1080 C   0  0  0  0  0  1  0  0  0  0  0  0
  192.1690  176.2560  146.4320 C   0  0  0  0  0  0  0  0  0  0  0  0
  191.5420  176.7670  145.1850 C   0  0  2  0  0  3  0  0  0  0  0  0
  193.4430  175.9100  146.6230 C   0  0  0  0  0  3  0  0  0  0  0  0
  194.4510  175.9640  145.5290 C   0  0  0  0  0  2  0  0  0  0  0  0
  194.8500  174.5550  145.1350 C   0  0  0  0  0  2  0  0  0  0  0  0
  195.7260  174.5860  143.8940 C   0  0  0  0  0  2  0  0  0  0  0  0
  197.1890  174.7020  144.2820 C   0  0  0  0  0  2  0  0  0  0  0  0
  197.5190  173.6490  145.3220 C   0  0  0  0  0  2  0  0  0  0  0  0
  197.4520  172.3830  144.7400 O   0  0  0  0  0  0  0  0  0  0  0  0
  193.6990  169.0810  144.5580 C   0  0  0  0  0  2  0  0  0  0  0  0
  195.8490  170.7260  145.2670 C   0  0  2  0  0  0  0  0  0  0  0  0
  194.4820  168.9950  145.8680 C   0  0  0  0  0  2  0  0  0  0  0  0
  194.9580  170.2650  146.2600 O   0  0  0  0  0  0  0  0  0  0  0  0
  197.1900  170.1390  145.3900 N   0  0  0  0  0  2  0  0  0  0  0  0
  196.9510  171.5550  145.7500 C   0  0  1  0  0  3  0  0  0  0  0  0
  195.3430  170.8240  143.8230 C   0  0  0  0  0  2  0  0  0  0  0  0
  194.6460  169.5210  143.4440 C   0  0  0  0  0  2  0  0  0  0  0  0
  187.0410  177.5870  146.3760 C   0  0  0  0  0  2  0  0  0  0  0  0
  188.0600  177.3000  142.8780 C   0  0  0  0  0  3  0  0  0  0  0  0
  186.7220  177.7230  144.9230 C   0  0  0  0  0  0  0  0  0  0  0  0
  187.7630  178.2540  143.9880 C   0  0  0  0  0  2  0  0  0  0  0  0
  185.0010  177.5370  143.1250 C   0  0  0  0  0  3  0  0  0  0  0  0
  187.1560  176.8880  141.9800 C   0  0  0  0  0  0  0  0  0  0  0  0
  185.4740  177.4800  144.5210 C   0  0  0  0  0  3  0  0  0  0  0  0
  185.7280  177.2830  142.0300 C   0  0  0  0  0  3  0  0  0  0  0  0
  188.3200  174.8290  141.1280 N   0  0  0  0  0  2  0  0  0  0  0  0
  188.2150  173.8740  138.7680 C   0  0  0  0  0  1  0  0  0  0  0  0
  187.6040  176.0420  140.8560 C   0  0  0  0  0  0  0  0  0  0  0  0
  188.7090  173.8270  140.1750 C   0  0  0  0  0  0  0  0  0  0  0  0
  187.3660  176.3910  139.6670 O   0  0  0  0  0  0  0  0  0  0  0  0
  189.4620  172.8220  140.5190 N   0  0  0  0  0  0  0  0  0  0  0  0
  190.0520  172.5460  141.8030 C   0  0  0  0  0  0  0  0  0  0  0  0
  189.2870  172.2710  142.9510 C   0  0  0  0  0  3  0  0  0  0  0  0
  192.0720  172.3330  143.1380 C   0  0  0  0  0  3  0  0  0  0  0  0
  191.4470  172.5770  141.9110 C   0  0  0  0  0  3  0  0  0  0  0  0
  191.3040  172.0570  144.2720 C   0  0  0  0  0  3  0  0  0  0  0  0
  189.9090  172.0260  144.1790 C   0  0  0  0  0  3  0  0  0  0  0  0
  2  1  2  0  0  0  0
  3  2  1  0  0  0  0
  5  4  2  0  0  0  0
  6  7  1  0  0  0  0
  7  2  1  6  0  0  0
  7  5  1  0  0  0  0
  9 11  2  0  0  0  0
  9  5  1  0  0  0  0
 10  8  1  6  0  0  0
 10  6  1  0  0  0  0
 10  9  1  0  0  0  0
 12 11  1  0  0  0  0
 13 12  1  0  0  0  0
 14 15  1  0  0  0  0
 14 13  1  0  0  0  0
 15 16  1  0  0  0  0
 17 16  1  0  0  0  0
 18 20  1  0  0  0  0
 19 24  1  6  0  0  0
 19 22  1  0  0  0  0
 19 23  1  0  0  0  0
 19 21  1  0  0  0  0
 20 21  1  0  0  0  0
 22 23  1  0  0  0  0
 23 17  1  6  0  0  0
 25 24  1  0  0  0  0
 25 18  1  0  0  0  0
 26  3  1  0  0  0  0
 27 29  1  0  0  0  0
 28 26  1  0  0  0  0
 29 28  1  0  0  0  0
 30 32  1  0  0  0  0
 31 33  1  0  0  0  0
 31 27  2  0  0  0  0
 32 28  2  0  0  0  0
 33 30  2  0  0  0  0
 35 37  1  0  0  0  0
 36 34  1  0  0  0  0
 36 31  1  0  0  0  0
 37 39  2  0  0  0  0
 37 34  1  0  0  0  0
 38 36  2  0  0  0  0
 39 40  1  0  0  0  0
 40 43  2  0  0  0  0
 40 41  1  0  0  0  0
 41 45  2  0  0  0  0
 42 44  2  0  0  0  0
 43 42  1  0  0  0  0
 45 44  1  0  0  0  0
M  END
>  <MODEL>
4

>  <REMARK>
 VINA RESULT:      -7.6      2.263      8.745
  Name = 
  12 active torsions:
  status: ('A' for Active; 'I' for Inactive)
    1  A    between atoms: C_3  and  N_43
    2  A    between atoms: C_12  and  C_17
    3  A    between atoms: C_13  and  C_14
    4  A    between atoms: C_13  and  C_24
    5  A    between atoms: C_14  and  C_38
    6  A    between atoms: C_16  and  O_28
    7  A    between atoms: C_17  and  N_34
    8  A    between atoms: C_21  and  C_27
    9  A    between atoms: C_24  and  C_26
   10  A    between atoms: C_26  and  C_44
   11  A    between atoms: O_28  and  C_38
   12  A    between atoms: C_32  and  C_35
                            x       y       z     vdW  Elec       q    Type
                         _______ _______ _______ _____ _____    ______ ____

>  <TORSDO>
F 12

$$$$
=
 OpenBabel11072408563D

 45 49  0  0  1  0  0  0  0  0999 V2000
  189.7560  174.1600  139.9780 O   0  0  0  0  0  0  0  0  0  0  0  0
  190.2030  173.6210  141.0260 C   0  0  0  0  0  0  0  0  0  0  0  0
  189.3750  173.5720  142.1920 N   0  0  0  0  0  2  0  0  0  0  0  0
  191.9850  172.9600  138.6400 O   0  0  0  0  0  0  0  0  0  0  0  0
  192.3100  173.3640  139.7890 C   0  0  0  0  0  0  0  0  0  0  0  0
  192.3330  173.6270  142.1120 O   0  0  0  0  0  0  0  0  0  0  0  0
  191.5940  173.0580  141.0400 C   0  0  1  0  0  3  0  0  0  0  0  0
  193.3070  175.8100  141.9250 C   0  0  0  0  0  1  0  0  0  0  0  0
  193.4530  174.1430  140.1020 C   0  0  0  0  0  0  0  0  0  0  0  0
  193.4420  174.3380  141.5750 C   0  0  2  0  0  3  0  0  0  0  0  0
  194.3850  174.5360  139.2330 C   0  0  0  0  0  3  0  0  0  0  0  0
  195.5930  175.2980  139.6560 C   0  0  0  0  0  2  0  0  0  0  0  0
  196.6730  174.3320  140.1060 C   0  0  0  0  0  2  0  0  0  0  0  0
  197.6760  175.0460  140.9960 C   0  0  0  0  0  2  0  0  0  0  0  0
  197.2910  174.8900  142.4570 C   0  0  0  0  0  2  0  0  0  0  0  0
  196.7990  173.4760  142.7000 C   0  0  0  0  0  2  0  0  0  0  0  0
  196.0650  173.4370  143.8850 O   0  0  0  0  0  0  0  0  0  0  0  0
  192.8340  176.1930  146.5310 C   0  0  0  0  0  2  0  0  0  0  0  0
  195.0370  175.1450  145.1600 C   0  0  2  0  0  0  0  0  0  0  0  0
  194.2420  176.7910  146.5310 C   0  0  0  0  0  2  0  0  0  0  0  0
  194.9010  176.5410  145.3080 O   0  0  0  0  0  0  0  0  0  0  0  0
  196.1650  174.5990  145.9270 N   0  0  0  0  0  2  0  0  0  0  0  0
  196.2370  174.7050  144.4510 C   0  0  1  0  0  3  0  0  0  0  0  0
  193.7730  174.2790  145.2120 C   0  0  0  0  0  2  0  0  0  0  0  0
  192.9440  174.6730  146.4300 C   0  0  0  0  0  2  0  0  0  0  0  0
  189.8010  173.0140  143.4700 C   0  0  0  0  0  2  0  0  0  0  0  0
  188.5210  176.2190  144.6710 C   0  0  0  0  0  3  0  0  0  0  0  0
  189.6590  174.0180  144.5670 C   0  0  0  0  0  0  0  0  0  0  0  0
  189.7440  175.4770  144.2440 C   0  0  0  0  0  2  0  0  0  0  0  0
  189.4070  174.4320  147.0160 C   0  0  0  0  0  3  0  0  0  0  0  0
  188.1000  176.3050  145.9400 C   0  0  0  0  0  0  0  0  0  0  0  0
  189.5820  173.5800  145.8240 C   0  0  0  0  0  3  0  0  0  0  0  0
  188.7700  175.6080  147.0630 C   0  0  0  0  0  3  0  0  0  0  0  0
  186.0310  177.5300  145.2040 N   0  0  0  0  0  2  0  0  0  0  0  0
  184.2310  178.5360  146.7010 C   0  0  0  0  0  1  0  0  0  0  0  0
  186.9460  177.1730  146.2490 C   0  0  0  0  0  0  0  0  0  0  0  0
  184.7940  178.2450  145.3500 C   0  0  0  0  0  0  0  0  0  0  0  0
  186.7760  177.6030  147.4230 O   0  0  0  0  0  0  0  0  0  0  0  0
  184.1010  178.6170  144.3120 N   0  0  0  0  0  0  0  0  0  0  0  0
  184.4190  178.4470  142.9180 C   0  0  0  0  0  0  0  0  0  0  0  0
  183.4360  178.2610  141.9290 C   0  0  0  0  0  3  0  0  0  0  0  0
  186.1320  178.2690  141.2020 C   0  0  0  0  0  3  0  0  0  0  0  0
  185.7670  178.4460  142.5410 C   0  0  0  0  0  3  0  0  0  0  0  0
  185.1480  178.0880  140.2270 C   0  0  0  0  0  3  0  0  0  0  0  0
  183.7980  178.0840  140.5910 C   0  0  0  0  0  3  0  0  0  0  0  0
  1  2  2  0  0  0  0
  2  3  1  0  0  0  0
  3 26  1  0  0  0  0
  4  5  2  0  0  0  0
  5  9  1  0  0  0  0
  5  7  1  0  0  0  0
  7  2  1  6  0  0  0
  7  6  1  0  0  0  0
  9 10  1  0  0  0  0
 10  8  1  6  0  0  0
 10  6  1  0  0  0  0
 11 12  1  0  0  0  0
 11  9  2  0  0  0  0
 12 13  1  0  0  0  0
 13 14  1  0  0  0  0
 14 15  1  0  0  0  0
 15 16  1  0  0  0  0
 16 17  1  0  0  0  0
 18 20  1  0  0  0  0
 19 24  1  6  0  0  0
 19 21  1  0  0  0  0
 19 22  1  0  0  0  0
 21 20  1  0  0  0  0
 23 17  1  6  0  0  0
 23 19  1  0  0  0  0
 23 22  1  0  0  0  0
 24 25  1  0  0  0  0
 25 18  1  0  0  0  0
 26 28  1  0  0  0  0
 27 31  2  0  0  0  0
 28 32  2  0  0  0  0
 29 28  1  0  0  0  0
 29 27  1  0  0  0  0
 30 33  2  0  0  0  0
 31 36  1  0  0  0  0
 31 33  1  0  0  0  0
 32 30  1  0  0  0  0
 34 37  1  0  0  0  0
 34 36  1  0  0  0  0
 36 38  2  0  0  0  0
 37 35  1  0  0  0  0
 39 37  2  0  0  0  0
 40 39  1  0  0  0  0
 41 40  2  0  0  0  0
 42 43  2  0  0  0  0
 43 40  1  0  0  0  0
 44 45  2  0  0  0  0
 44 42  1  0  0  0  0
 45 41  1  0  0  0  0
M  END
>  <MODEL>
5

>  <REMARK>
 VINA RESULT:      -7.4      2.784      9.157
  Name = 
  12 active torsions:
  status: ('A' for Active; 'I' for Inactive)
    1  A    between atoms: C_3  and  N_43
    2  A    between atoms: C_12  and  C_17
    3  A    between atoms: C_13  and  C_14
    4  A    between atoms: C_13  and  C_24
    5  A    between atoms: C_14  and  C_38
    6  A    between atoms: C_16  and  O_28
    7  A    between atoms: C_17  and  N_34
    8  A    between atoms: C_21  and  C_27
    9  A    between atoms: C_24  and  C_26
   10  A    between atoms: C_26  and  C_44
   11  A    between atoms: O_28  and  C_38
   12  A    between atoms: C_32  and  C_35
                            x       y       z     vdW  Elec       q    Type
                         _______ _______ _______ _____ _____    ______ ____

>  <TORSDO>
F 12

$$$$
=
 OpenBabel11072408563D

 45 49  0  0  1  0  0  0  0  0999 V2000
  196.5940  173.7600  143.1870 O   0  0  0  0  0  0  0  0  0  0  0  0
  196.2190  174.6110  142.3350 C   0  0  0  0  0  0  0  0  0  0  0  0
  196.4520  174.3540  140.9470 N   0  0  0  0  0  2  0  0  0  0  0  0
  193.2990  175.4240  141.9990 O   0  0  0  0  0  0  0  0  0  0  0  0
  194.0990  175.7000  142.9320 C   0  0  0  0  0  0  0  0  0  0  0  0
  196.0710  176.2650  144.0540 O   0  0  0  0  0  0  0  0  0  0  0  0
  195.5550  175.8780  142.7880 C   0  0  1  0  0  3  0  0  0  0  0  0
  195.2980  175.2340  146.0760 C   0  0  0  0  0  1  0  0  0  0  0  0
  193.7460  175.9420  144.2840 C   0  0  0  0  0  0  0  0  0  0  0  0
  195.0070  176.2650  145.0000 C   0  0  2  0  0  3  0  0  0  0  0  0
  192.5040  175.9570  144.7700 C   0  0  0  0  0  3  0  0  0  0  0  0
  192.2140  176.2880  146.1930 C   0  0  0  0  0  2  0  0  0  0  0  0
  191.7890  175.0320  146.9310 C   0  0  0  0  0  2  0  0  0  0  0  0
  190.5400  175.3050  147.7510 C   0  0  0  0  0  2  0  0  0  0  0  0
  189.3030  175.2180  146.8750 C   0  0  0  0  0  2  0  0  0  0  0  0
  188.5690  176.5440  146.9060 C   0  0  0  0  0  2  0  0  0  0  0  0
  187.1990  176.3200  146.7730 O   0  0  0  0  0  0  0  0  0  0  0  0
  185.0370  178.8260  143.0210 C   0  0  0  0  0  2  0  0  0  0  0  0
  186.0920  177.9470  145.4600 C   0  0  2  0  0  0  0  0  0  0  0  0
  184.8570  179.5300  144.3670 C   0  0  0  0  0  2  0  0  0  0  0  0
  185.9790  179.3290  145.2000 O   0  0  0  0  0  0  0  0  0  0  0  0
  185.1760  177.4900  146.5140 N   0  0  0  0  0  2  0  0  0  0  0  0
  186.6300  177.5980  146.7730 C   0  0  1  0  0  3  0  0  0  0  0  0
  186.1970  176.9870  144.2690 C   0  0  0  0  0  2  0  0  0  0  0  0
  185.1040  177.3190  143.2570 C   0  0  0  0  0  2  0  0  0  0  0  0
  196.1030  175.2840  139.8780 C   0  0  0  0  0  2  0  0  0  0  0  0
  193.3120  172.9720  139.4160 C   0  0  0  0  0  3  0  0  0  0  0  0
  195.0160  174.7280  139.0170 C   0  0  0  0  0  0  0  0  0  0  0  0
  194.7300  173.2600  139.0510 C   0  0  0  0  0  2  0  0  0  0  0  0
  193.3030  175.1640  137.2550 C   0  0  0  0  0  3  0  0  0  0  0  0
  192.2550  173.3790  138.7010 C   0  0  0  0  0  0  0  0  0  0  0  0
  194.4120  175.5430  138.1510 C   0  0  0  0  0  3  0  0  0  0  0  0
  192.3750  174.2290  137.4930 C   0  0  0  0  0  3  0  0  0  0  0  0
  190.0520  173.8080  139.8350 N   0  0  0  0  0  2  0  0  0  0  0  0
  187.9220  172.4260  139.6200 C   0  0  0  0  0  1  0  0  0  0  0  0
  190.9080  172.9230  139.0990 C   0  0  0  0  0  0  0  0  0  0  0  0
  188.6760  173.5830  140.1830 C   0  0  0  0  0  0  0  0  0  0  0  0
  190.5200  171.7600  138.8000 O   0  0  0  0  0  0  0  0  0  0  0  0
  188.0320  174.4070  140.9580 N   0  0  0  0  0  0  0  0  0  0  0  0
  188.5260  175.5910  141.6120 C   0  0  0  0  0  0  0  0  0  0  0  0
  189.3910  175.5450  142.7200 C   0  0  0  0  0  3  0  0  0  0  0  0
  188.5390  178.0180  141.7440 C   0  0  0  0  0  3  0  0  0  0  0  0
  188.1040  176.8370  141.1350 C   0  0  0  0  0  3  0  0  0  0  0  0
  189.4020  177.9620  142.8410 C   0  0  0  0  0  3  0  0  0  0  0  0
  189.8290  176.7240  143.3300 C   0  0  0  0  0  3  0  0  0  0  0  0
  2  1  2  0  0  0  0
  3  2  1  0  0  0  0
  4  5  2  0  0  0  0
  5  9  1  0  0  0  0
  6 10  1  0  0  0  0
  7  2  1  1  0  0  0
  7  5  1  0  0  0  0
  7  6  1  0  0  0  0
  9 11  2  0  0  0  0
  9 10  1  0  0  0  0
 10  8  1  1  0  0  0
 11 12  1  0  0  0  0
 12 13  1  0  0  0  0
 13 14  1  0  0  0  0
 15 16  1  0  0  0  0
 15 14  1  0  0  0  0
 17 16  1  0  0  0  0
 18 25  1  0  0  0  0
 18 20  1  0  0  0  0
 19 24  1  6  0  0  0
 19 22  1  0  0  0  0
 19 23  1  0  0  0  0
 20 21  1  0  0  0  0
 21 19  1  0  0  0  0
 22 23  1  0  0  0  0
 23 17  1  6  0  0  0
 25 24  1  0  0  0  0
 26  3  1  0  0  0  0
 28 29  1  0  0  0  0
 28 26  1  0  0  0  0
 29 27  1  0  0  0  0
 30 33  2  0  0  0  0
 30 32  1  0  0  0  0
 31 36  1  0  0  0  0
 31 27  2  0  0  0  0
 32 28  2  0  0  0  0
 33 31  1  0  0  0  0
 34 37  1  0  0  0  0
 35 37  1  0  0  0  0
 36 34  1  0  0  0  0
 37 39  2  0  0  0  0
 38 36  2  0  0  0  0
 39 40  1  0  0  0  0
 40 41  1  0  0  0  0
 41 45  2  0  0  0  0
 42 44  2  0  0  0  0
 43 40  2  0  0  0  0
 43 42  1  0  0  0  0
 44 45  1  0  0  0  0
M  END
>  <MODEL>
6

>  <REMARK>
 VINA RESULT:      -7.4      3.060      5.701
  Name = 
  12 active torsions:
  status: ('A' for Active; 'I' for Inactive)
    1  A    between atoms: C_3  and  N_43
    2  A    between atoms: C_12  and  C_17
    3  A    between atoms: C_13  and  C_14
    4  A    between atoms: C_13  and  C_24
    5  A    between atoms: C_14  and  C_38
    6  A    between atoms: C_16  and  O_28
    7  A    between atoms: C_17  and  N_34
    8  A    between atoms: C_21  and  C_27
    9  A    between atoms: C_24  and  C_26
   10  A    between atoms: C_26  and  C_44
   11  A    between atoms: O_28  and  C_38
   12  A    between atoms: C_32  and  C_35
                            x       y       z     vdW  Elec       q    Type
                         _______ _______ _______ _____ _____    ______ ____

>  <TORSDO>
F 12

$$$$
=
 OpenBabel11072408563D

 45 49  0  0  1  0  0  0  0  0999 V2000
  196.1310  176.7910  143.2480 O   0  0  0  0  0  0  0  0  0  0  0  0
  195.8600  175.6120  142.8930 C   0  0  0  0  0  0  0  0  0  0  0  0
  196.5510  175.0450  141.7760 N   0  0  0  0  0  2  0  0  0  0  0  0
  195.9110  174.6830  145.7980 O   0  0  0  0  0  0  0  0  0  0  0  0
  194.9270  175.0250  145.0880 C   0  0  0  0  0  0  0  0  0  0  0  0
  193.5200  175.2710  143.2380 O   0  0  0  0  0  0  0  0  0  0  0  0
  194.8120  174.8320  143.6310 C   0  0  1  0  0  3  0  0  0  0  0  0
  192.5570  177.2700  144.1480 C   0  0  0  0  0  1  0  0  0  0  0  0
  193.7250  175.6090  145.5630 C   0  0  0  0  0  0  0  0  0  0  0  0
  192.8490  175.7970  144.3770 C   0  0  2  0  0  3  0  0  0  0  0  0
  193.4320  175.8500  146.8420 C   0  0  0  0  0  3  0  0  0  0  0  0
  192.1160  176.4070  147.2610 C   0  0  0  0  0  2  0  0  0  0  0  0
  191.2360  175.2900  147.7900 C   0  0  0  0  0  2  0  0  0  0  0  0
  189.7720  175.6210  147.5570 C   0  0  0  0  0  2  0  0  0  0  0  0
  189.6410  176.9260  146.7910 C   0  0  0  0  0  2  0  0  0  0  0  0
  188.3340  177.5980  147.1620 C   0  0  0  0  0  2  0  0  0  0  0  0
  187.2750  176.7240  146.9150 O   0  0  0  0  0  0  0  0  0  0  0  0
  185.1820  178.0410  142.5660 C   0  0  0  0  0  2  0  0  0  0  0  0
  185.8840  177.6660  145.2490 C   0  0  2  0  0  0  0  0  0  0  0  0
  184.3530  178.4940  143.7680 C   0  0  0  0  0  2  0  0  0  0  0  0
  185.1820  178.8260  144.8610 O   0  0  0  0  0  0  0  0  0  0  0  0
  185.0770  176.7640  146.0810 N   0  0  0  0  0  2  0  0  0  0  0  0
  186.1760  177.5570  146.6770 C   0  0  1  0  0  3  0  0  0  0  0  0
  186.7370  176.9440  144.1980 C   0  0  0  0  0  2  0  0  0  0  0  0
  185.9130  176.7510  142.9290 C   0  0  0  0  0  2  0  0  0  0  0  0
  196.2900  173.7100  141.2490 C   0  0  0  0  0  2  0  0  0  0  0  0
  193.4450  172.4810  139.3120 C   0  0  0  0  0  3  0  0  0  0  0  0
  195.4370  173.7750  140.0240 C   0  0  0  0  0  0  0  0  0  0  0  0
  194.9350  172.5070  139.4090 C   0  0  0  0  0  2  0  0  0  0  0  0
  194.4110  175.2050  138.2540 C   0  0  0  0  0  3  0  0  0  0  0  0
  192.7230  173.3610  138.6070 C   0  0  0  0  0  0  0  0  0  0  0  0
  195.2480  174.9620  139.4440 C   0  0  0  0  0  3  0  0  0  0  0  0
  193.3240  174.5130  137.8930 C   0  0  0  0  0  3  0  0  0  0  0  0
  190.4360  173.2920  139.6500 N   0  0  0  0  0  2  0  0  0  0  0  0
  188.1970  173.2620  138.4340 C   0  0  0  0  0  1  0  0  0  0  0  0
  191.2660  173.1530  138.4880 C   0  0  0  0  0  0  0  0  0  0  0  0
  189.0010  173.2600  139.6910 C   0  0  0  0  0  0  0  0  0  0  0  0
  190.7600  172.8460  137.3740 O   0  0  0  0  0  0  0  0  0  0  0  0
  188.3570  173.2780  140.8230 N   0  0  0  0  0  0  0  0  0  0  0  0
  188.8950  173.2870  142.1580 C   0  0  0  0  0  0  0  0  0  0  0  0
  189.2040  174.4740  142.8470 C   0  0  0  0  0  3  0  0  0  0  0  0
  189.6780  172.0100  144.0720 C   0  0  0  0  0  3  0  0  0  0  0  0
  189.1400  172.0590  142.7820 C   0  0  0  0  0  3  0  0  0  0  0  0
  189.9780  173.1940  144.7500 C   0  0  0  0  0  3  0  0  0  0  0  0
  189.7410  174.4280  144.1370 C   0  0  0  0  0  3  0  0  0  0  0  0
  2  1  2  0  0  0  0
  3  2  1  0  0  0  0
  5  9  1  0  0  0  0
  5  4  2  0  0  0  0
  6  7  1  0  0  0  0
  6 10  1  0  0  0  0
  7  2  1  6  0  0  0
  7  5  1  0  0  0  0
  9 11  2  0  0  0  0
 10  8  1  6  0  0  0
 10  9  1  0  0  0  0
 11 12  1  0  0  0  0
 12 13  1  0  0  0  0
 14 13  1  0  0  0  0
 15 16  1  0  0  0  0
 15 14  1  0  0  0  0
 17 16  1  0  0  0  0
 18 25  1  0  0  0  0
 18 20  1  0  0  0  0
 19 24  1  6  0  0  0
 19 22  1  0  0  0  0
 19 23  1  0  0  0  0
 20 21  1  0  0  0  0
 21 19  1  0  0  0  0
 22 23  1  0  0  0  0
 23 17  1  6  0  0  0
 25 24  1  0  0  0  0
 26  3  1  0  0  0  0
 27 29  1  0  0  0  0
 28 26  1  0  0  0  0
 29 28  1  0  0  0  0
 30 32  1  0  0  0  0
 31 27  2  0  0  0  0
 32 28  2  0  0  0  0
 33 30  2  0  0  0  0
 33 31  1  0  0  0  0
 34 37  1  0  0  0  0
 35 37  1  0  0  0  0
 36 31  1  0  0  0  0
 36 34  1  0  0  0  0
 37 39  2  0  0  0  0
 38 36  2  0  0  0  0
 39 40  1  0  0  0  0
 40 43  2  0  0  0  0
 40 41  1  0  0  0  0
 41 45  2  0  0  0  0
 42 44  2  0  0  0  0
 43 42  1  0  0  0  0
 45 44  1  0  0  0  0
M  END
>  <MODEL>
7

>  <REMARK>
 VINA RESULT:      -7.3      3.005      5.247
  Name = 
  12 active torsions:
  status: ('A' for Active; 'I' for Inactive)
    1  A    between atoms: C_3  and  N_43
    2  A    between atoms: C_12  and  C_17
    3  A    between atoms: C_13  and  C_14
    4  A    between atoms: C_13  and  C_24
    5  A    between atoms: C_14  and  C_38
    6  A    between atoms: C_16  and  O_28
    7  A    between atoms: C_17  and  N_34
    8  A    between atoms: C_21  and  C_27
    9  A    between atoms: C_24  and  C_26
   10  A    between atoms: C_26  and  C_44
   11  A    between atoms: O_28  and  C_38
   12  A    between atoms: C_32  and  C_35
                            x       y       z     vdW  Elec       q    Type
                         _______ _______ _______ _____ _____    ______ ____

>  <TORSDO>
F 12

$$$$
=
 OpenBabel11072408563D

 45 49  0  0  1  0  0  0  0  0999 V2000
  193.6940  177.1750  146.9180 O   0  0  0  0  0  0  0  0  0  0  0  0
  193.7240  176.1200  146.2280 C   0  0  0  0  0  0  0  0  0  0  0  0
  194.9870  175.6070  145.7960 N   0  0  0  0  0  2  0  0  0  0  0  0
  191.4550  175.2600  148.0780 O   0  0  0  0  0  0  0  0  0  0  0  0
  191.4020  175.6520  146.8810 C   0  0  0  0  0  0  0  0  0  0  0  0
  191.9550  175.9510  144.6290 O   0  0  0  0  0  0  0  0  0  0  0  0
  192.4410  175.4330  145.8590 C   0  0  1  0  0  3  0  0  0  0  0  0
  190.7680  178.0330  144.5420 C   0  0  0  0  0  1  0  0  0  0  0  0
  190.3120  176.3290  146.2780 C   0  0  0  0  0  0  0  0  0  0  0  0
  190.6840  176.5490  144.8560 C   0  0  2  0  0  3  0  0  0  0  0  0
  189.1540  176.6200  146.8730 C   0  0  0  0  0  3  0  0  0  0  0  0
  188.0320  177.2760  146.1470 C   0  0  0  0  0  2  0  0  0  0  0  0
  186.7130  176.8770  146.7790 C   0  0  0  0  0  2  0  0  0  0  0  0
  185.9390  178.1130  147.2030 C   0  0  0  0  0  2  0  0  0  0  0  0
  185.6520  178.9950  146.0000 C   0  0  0  0  0  2  0  0  0  0  0  0
  184.2580  178.7000  145.4800 C   0  0  0  0  0  2  0  0  0  0  0  0
  184.3480  178.1090  144.2200 O   0  0  0  0  0  0  0  0  0  0  0  0
  188.4240  176.4010  141.8750 C   0  0  0  0  0  2  0  0  0  0  0  0
  186.3660  177.9290  142.9980 C   0  0  2  0  0  0  0  0  0  0  0  0
  188.2130  177.8990  141.6530 C   0  0  0  0  0  2  0  0  0  0  0  0
  187.6360  178.5060  142.7900 O   0  0  0  0  0  0  0  0  0  0  0  0
  185.3320  178.4960  142.1200 N   0  0  0  0  0  2  0  0  0  0  0  0
  185.3570  178.8220  143.5650 C   0  0  1  0  0  3  0  0  0  0  0  0
  186.2730  176.4080  143.1640 C   0  0  0  0  0  2  0  0  0  0  0  0
  187.0620  175.7320  142.0470 C   0  0  0  0  0  2  0  0  0  0  0  0
  195.1410  174.4230  144.9570 C   0  0  0  0  0  2  0  0  0  0  0  0
  195.4310  173.8530  141.3600 C   0  0  0  0  0  3  0  0  0  0  0  0
  195.7490  174.7750  143.6390 C   0  0  0  0  0  0  0  0  0  0  0  0
  196.1080  173.6840  142.6800 C   0  0  0  0  0  2  0  0  0  0  0  0
  196.6420  176.5700  142.1510 C   0  0  0  0  0  3  0  0  0  0  0  0
  195.6040  174.9100  140.5560 C   0  0  0  0  0  0  0  0  0  0  0  0
  196.0670  176.0500  143.4060 C   0  0  0  0  0  3  0  0  0  0  0  0
  196.4430  176.0760  140.9230 C   0  0  0  0  0  3  0  0  0  0  0  0
  193.6050  174.4950  139.0880 N   0  0  0  0  0  2  0  0  0  0  0  0
  193.2940  175.2470  136.6740 C   0  0  0  0  0  1  0  0  0  0  0  0
  194.9760  174.8980  139.2200 C   0  0  0  0  0  0  0  0  0  0  0  0
  192.8020  174.5530  137.8990 C   0  0  0  0  0  0  0  0  0  0  0  0
  195.6450  175.2330  138.2040 O   0  0  0  0  0  0  0  0  0  0  0  0
  191.6020  174.0480  137.8690 N   0  0  0  0  0  0  0  0  0  0  0  0
  190.9020  173.3440  138.9110 C   0  0  0  0  0  0  0  0  0  0  0  0
  191.4860  172.3010  139.6520 C   0  0  0  0  0  3  0  0  0  0  0  0
  188.8430  173.0410  140.1680 C   0  0  0  0  0  3  0  0  0  0  0  0
  189.5750  173.7030  139.1770 C   0  0  0  0  0  3  0  0  0  0  0  0
  189.4330  172.0080  140.9010 C   0  0  0  0  0  3  0  0  0  0  0  0
  190.7560  171.6370  140.6430 C   0  0  0  0  0  3  0  0  0  0  0  0
  2  1  2  0  0  0  0
  3  2  1  0  0  0  0
  5  4  2  0  0  0  0
  6 10  1  0  0  0  0
  6  7  1  0  0  0  0
  7  2  1  1  0  0  0
  7  5  1  0  0  0  0
  9 11  2  0  0  0  0
  9  5  1  0  0  0  0
 10  8  1  1  0  0  0
 10  9  1  0  0  0  0
 12 13  1  0  0  0  0
 12 11  1  0  0  0  0
 13 14  1  0  0  0  0
 15 14  1  0  0  0  0
 16 15  1  0  0  0  0
 17 16  1  0  0  0  0
 18 25  1  0  0  0  0
 19 24  1  1  0  0  0
 19 23  1  0  0  0  0
 20 18  1  0  0  0  0
 20 21  1  0  0  0  0
 21 19  1  0  0  0  0
 22 19  1  0  0  0  0
 22 23  1  0  0  0  0
 23 17  1  1  0  0  0
 25 24  1  0  0  0  0
 26  3  1  0  0  0  0
 27 29  1  0  0  0  0
 28 26  1  0  0  0  0
 29 28  1  0  0  0  0
 30 32  1  0  0  0  0
 31 33  1  0  0  0  0
 31 27  2  0  0  0  0
 32 28  2  0  0  0  0
 33 30  2  0  0  0  0
 34 36  1  0  0  0  0
 35 37  1  0  0  0  0
 36 31  1  0  0  0  0
 37 34  1  0  0  0  0
 38 36  2  0  0  0  0
 39 37  2  0  0  0  0
 39 40  1  0  0  0  0
 40 43  2  0  0  0  0
 40 41  1  0  0  0  0
 41 45  2  0  0  0  0
 42 44  2  0  0  0  0
 43 42  1  0  0  0  0
 45 44  1  0  0  0  0
M  END
>  <MODEL>
8

>  <REMARK>
 VINA RESULT:      -7.3      2.558      3.880
  Name = 
  12 active torsions:
  status: ('A' for Active; 'I' for Inactive)
    1  A    between atoms: C_3  and  N_43
    2  A    between atoms: C_12  and  C_17
    3  A    between atoms: C_13  and  C_14
    4  A    between atoms: C_13  and  C_24
    5  A    between atoms: C_14  and  C_38
    6  A    between atoms: C_16  and  O_28
    7  A    between atoms: C_17  and  N_34
    8  A    between atoms: C_21  and  C_27
    9  A    between atoms: C_24  and  C_26
   10  A    between atoms: C_26  and  C_44
   11  A    between atoms: O_28  and  C_38
   12  A    between atoms: C_32  and  C_35
                            x       y       z     vdW  Elec       q    Type
                         _______ _______ _______ _____ _____    ______ ____

>  <TORSDO>
F 12

$$$$
=
 OpenBabel11072408563D

 45 49  0  0  1  0  0  0  0  0999 V2000
  192.1050  174.0370  138.5320 O   0  0  0  0  0  0  0  0  0  0  0  0
  192.5030  173.0700  139.2350 C   0  0  0  0  0  0  0  0  0  0  0  0
  193.8710  172.6590  139.1430 N   0  0  0  0  0  2  0  0  0  0  0  0
  191.9060  173.6470  142.1700 O   0  0  0  0  0  0  0  0  0  0  0  0
  191.1380  173.2090  141.2730 C   0  0  0  0  0  0  0  0  0  0  0  0
  190.3650  172.0170  139.4160 O   0  0  0  0  0  0  0  0  0  0  0  0
  191.5400  172.3580  140.1390 C   0  0  1  0  0  3  0  0  0  0  0  0
  188.6490  173.6380  139.0000 C   0  0  0  0  0  1  0  0  0  0  0  0
  189.7350  173.4090  141.2120 C   0  0  0  0  0  0  0  0  0  0  0  0
  189.2550  172.6790  140.0100 C   0  0  2  0  0  3  0  0  0  0  0  0
  189.0030  174.0570  142.1200 C   0  0  0  0  0  3  0  0  0  0  0  0
  187.5220  174.1640  142.0140 C   0  0  0  0  0  2  0  0  0  0  0  0
  187.0910  175.5870  142.3170 C   0  0  0  0  0  2  0  0  0  0  0  0
  188.0920  176.5710  141.7370 C   0  0  0  0  0  2  0  0  0  0  0  0
  187.3740  177.6530  140.9490 C   0  0  0  0  0  2  0  0  0  0  0  0
  186.1080  178.0520  141.6800 C   0  0  0  0  0  2  0  0  0  0  0  0
  186.4110  179.0100  142.6480 O   0  0  0  0  0  0  0  0  0  0  0  0
  185.9020  177.2680  147.3100 C   0  0  0  0  0  2  0  0  0  0  0  0
  185.5770  178.4260  144.7830 C   0  0  2  0  0  0  0  0  0  0  0  0
  184.6920  178.0900  146.8630 C   0  0  0  0  0  2  0  0  0  0  0  0
  184.4540  177.9340  145.4810 O   0  0  0  0  0  0  0  0  0  0  0  0
  185.5740  179.8900  144.6610 N   0  0  0  0  0  2  0  0  0  0  0  0
  185.2910  179.0350  143.4850 C   0  0  1  0  0  3  0  0  0  0  0  0
  186.9530  177.8320  145.1050 C   0  0  0  0  0  2  0  0  0  0  0  0
  187.1500  177.8110  146.6180 C   0  0  0  0  0  2  0  0  0  0  0  0
  194.4310  171.5270  139.8740 C   0  0  0  0  0  2  0  0  0  0  0  0
  195.8750  174.0910  142.0410 C   0  0  0  0  0  3  0  0  0  0  0  0
  194.9320  171.9510  141.2150 C   0  0  0  0  0  0  0  0  0  0  0  0
  196.1470  172.8200  141.3060 C   0  0  0  0  0  2  0  0  0  0  0  0
  194.7000  171.7750  143.6950 C   0  0  0  0  0  3  0  0  0  0  0  0
  195.4740  174.1500  143.3170 C   0  0  0  0  0  0  0  0  0  0  0  0
  194.3500  171.4400  142.3010 C   0  0  0  0  0  3  0  0  0  0  0  0
  195.1870  172.9440  144.1300 C   0  0  0  0  0  3  0  0  0  0  0  0
  194.2100  175.7630  144.7730 N   0  0  0  0  0  2  0  0  0  0  0  0
  195.1000  177.9150  145.8090 C   0  0  0  0  0  1  0  0  0  0  0  0
  195.3600  175.4700  143.9670 C   0  0  0  0  0  0  0  0  0  0  0  0
  194.0000  176.9330  145.5810 C   0  0  0  0  0  0  0  0  0  0  0  0
  196.2650  176.3350  143.8050 O   0  0  0  0  0  0  0  0  0  0  0  0
  192.8630  177.1460  146.1780 N   0  0  0  0  0  0  0  0  0  0  0  0
  191.6630  176.3530  146.1270 C   0  0  0  0  0  0  0  0  0  0  0  0
  190.8730  176.2400  144.9690 C   0  0  0  0  0  3  0  0  0  0  0  0
  190.0920  174.9150  147.3000 C   0  0  0  0  0  3  0  0  0  0  0  0
  191.2590  175.6860  147.2890 C   0  0  0  0  0  3  0  0  0  0  0  0
  189.3160  174.8060  146.1440 C   0  0  0  0  0  3  0  0  0  0  0  0
  189.7060  175.4700  144.9770 C   0  0  0  0  0  3  0  0  0  0  0  0
  1  2  2  0  0  0  0
  3  2  1  0  0  0  0
  3 26  1  0  0  0  0
  5  4  2  0  0  0  0
  6 10  1  0  0  0  0
  6  7  1  0  0  0  0
  7  2  1  6  0  0  0
  7  5  1  0  0  0  0
  9  5  1  0  0  0  0
  9 11  2  0  0  0  0
 10  8  1  6  0  0  0
 10  9  1  0  0  0  0
 12 11  1  0  0  0  0
 12 13  1  0  0  0  0
 14 13  1  0  0  0  0
 15 16  1  0  0  0  0
 15 14  1  0  0  0  0
 16 17  1  0  0  0  0
 19 24  1  1  0  0  0
 19 21  1  0  0  0  0
 20 18  1  0  0  0  0
 21 20  1  0  0  0  0
 22 19  1  0  0  0  0
 23 17  1  6  0  0  0
 23 22  1  0  0  0  0
 23 19  1  0  0  0  0
 24 25  1  0  0  0  0
 25 18  1  0  0  0  0
 26 28  1  0  0  0  0
 27 31  2  0  0  0  0
 28 29  1  0  0  0  0
 28 32  2  0  0  0  0
 29 27  1  0  0  0  0
 30 33  2  0  0  0  0
 31 36  1  0  0  0  0
 31 33  1  0  0  0  0
 32 30  1  0  0  0  0
 34 37  1  0  0  0  0
 36 34  1  0  0  0  0
 37 35  1  0  0  0  0
 37 39  2  0  0  0  0
 38 36  2  0  0  0  0
 40 39  1  0  0  0  0
 40 43  1  0  0  0  0
 41 45  1  0  0  0  0
 41 40  2  0  0  0  0
 43 42  2  0  0  0  0
 44 42  1  0  0  0  0
 45 44  2  0  0  0  0
M  END
>  <MODEL>
9

>  <REMARK>
 VINA RESULT:      -7.3      2.359      5.697
  Name = 
  12 active torsions:
  status: ('A' for Active; 'I' for Inactive)
    1  A    between atoms: C_3  and  N_43
    2  A    between atoms: C_12  and  C_17
    3  A    between atoms: C_13  and  C_14
    4  A    between atoms: C_13  and  C_24
    5  A    between atoms: C_14  and  C_38
    6  A    between atoms: C_16  and  O_28
    7  A    between atoms: C_17  and  N_34
    8  A    between atoms: C_21  and  C_27
    9  A    between atoms: C_24  and  C_26
   10  A    between atoms: C_26  and  C_44
   11  A    between atoms: O_28  and  C_38
   12  A    between atoms: C_32  and  C_35
                            x       y       z     vdW  Elec       q    Type
                         _______ _______ _______ _____ _____    ______ ____

>  <TORSDO>
F 12

$$$$
