=
 OpenBabel11072408463D

 36 40  0  0  1  0  0  0  0  0999 V2000
  185.8530  178.1710  143.8660 C   0  0  1  0  0  3  0  0  0  0  0  0
  186.5540  176.9290  146.0150 C   0  0  0  0  0  0  0  0  0  0  0  0
  185.4970  179.3210  144.8240 C   0  0  0  0  0  2  0  0  0  0  0  0
  188.5640  176.5260  144.0040 C   0  0  1  0  0  3  0  0  0  0  0  0
  188.9620  177.0090  145.3820 C   0  0  2  0  0  3  0  0  0  0  0  0
  190.6060  175.5460  144.5300 N   0  0  0  0  0  0  0  0  0  0  0  0
  186.9740  175.8540  142.3880 O   0  0  0  0  0  0  0  0  0  0  0  0
  186.0430  177.4820  148.2670 O   0  0  0  0  0  1  0  0  0  0  0  0
  189.3630  175.0130  142.3180 C   0  0  2  0  0  3  0  0  0  0  0  0
  184.2910  177.7730  146.5180 C   0  0  0  0  0  2  0  0  0  0  0  0
  189.3740  175.3040  143.8130 C   0  0  2  0  0  3  0  0  0  0  0  0
  186.1290  176.8120  144.5470 C   0  0  2  0  0  3  0  0  0  0  0  0
  184.2550  179.0670  145.6910 C   0  0  0  0  0  2  0  0  0  0  0  0
  190.3310  176.3980  145.4730 C   0  0  0  0  0  0  0  0  0  0  0  0
  187.1720  175.9930  143.7840 C   0  0  2  0  0  3  0  0  0  0  0  0
  187.8560  174.8330  141.8970 C   0  0  0  0  0  2  0  0  0  0  0  0
  187.9590  176.5250  146.4350 C   0  0  0  0  0  2  0  0  0  0  0  0
  185.6790  177.3710  146.9290 C   0  0  0  0  0  0  0  0  0  0  0  0
  191.2630  176.7840  146.4370 O   0  0  0  0  0  0  0  0  0  0  0  0
  192.3180  175.9260  146.8460 C   0  0  0  0  0  1  0  0  0  0  0  0
  184.8590  178.0240  142.8950 O   0  0  0  0  0  0  0  0  0  0  0  0
  185.3710  178.6540  141.7570 C   0  0  0  0  0  2  0  0  0  0  0  0
  184.5080  178.3250  140.5490 C   0  0  0  0  0  2  0  0  0  0  0  0
  183.1430  177.8080  140.9730 C   0  0  0  0  0  2  0  0  0  0  0  0
  182.0920  178.8970  140.8230 C   0  0  0  0  0  2  0  0  0  0  0  0
  180.7470  178.2900  140.4570 C   0  0  0  0  0  2  0  0  0  0  0  0
  178.7030  181.3020  140.3890 O   0  0  0  0  0  0  0  0  0  0  0  0
  179.6090  180.4610  140.1500 C   0  0  0  0  0  3  0  0  0  0  0  0
  178.7530  177.6420  142.3190 O   0  0  0  0  0  1  0  0  0  0  0  0
  179.6590  179.1930  140.8160 N   0  0  0  0  0  0  0  0  0  0  0  0
  178.6960  178.7930  141.8090 C   0  0  0  0  0  0  0  0  0  0  0  0
  177.6920  179.6610  142.2210 O   0  0  0  0  0  0  0  0  0  0  0  0
  190.1800  173.9180  141.9500 O   0  0  0  0  0  0  0  0  0  0  0  0
  189.7630  171.7810  142.9150 C   0  0  0  0  0  2  0  0  0  0  0  0
  190.2840  171.5800  141.5100 C   0  0  0  0  0  2  0  0  0  0  0  0
  189.3890  172.7620  141.8230 C   0  0  0  0  0  3  0  0  0  0  0  0
  1 21  1  6  0  0  0
  1 12  1  0  0  0  0
  1  3  1  0  0  0  0
  2 17  1  0  0  0  0
  2 18  2  0  0  0  0
  3 13  1  0  0  0  0
  4  5  1  0  0  0  0
  5 14  1  0  0  0  0
  5 17  1  0  0  0  0
  6 14  2  0  0  0  0
  7 15  1  0  0  0  0
  9 11  1  0  0  0  0
 10 18  1  0  0  0  0
 11  4  1  0  0  0  0
 11  6  1  0  0  0  0
 12  2  1  0  0  0  0
 13 10  1  0  0  0  0
 14 19  1  0  0  0  0
 15  4  1  0  0  0  0
 15 12  1  0  0  0  0
 16  9  1  0  0  0  0
 16  7  1  0  0  0  0
 18  8  1  0  0  0  0
 19 20  1  0  0  0  0
 22 21  1  0  0  0  0
 23 24  1  0  0  0  0
 23 22  1  0  0  0  0
 25 24  1  0  0  0  0
 26 30  1  0  0  0  0
 26 25  1  0  0  0  0
 28 27  2  0  0  0  0
 28 30  1  0  0  0  0
 30 31  1  0  0  0  0
 31 32  2  0  0  0  0
 31 29  1  0  0  0  0
 33  9  1  0  0  0  0
 35 36  1  0  0  0  0
 35 34  1  0  0  0  0
 36 33  1  0  0  0  0
 36 34  1  0  0  0  0
M  END
>  <MODEL>
1

>  <REMARK>
 VINA RESULT:      -7.7      0.000      0.000
  Name = 
  10 active torsions:
  status: ('A' for Active; 'I' for Inactive)
    1  A    between atoms: C_1  and  O_2
    2  A    between atoms: O_2  and  C_30
    3  A    between atoms: O_4  and  C_31
    4  A    between atoms: C_9  and  C_10
    5  A    between atoms: C_9  and  C_25
    6  A    between atoms: C_10  and  C_29
    7  A    between atoms: N_15  and  C_29
    8  A    between atoms: C_19  and  O_35
    9  A    between atoms: C_23  and  O_35
   10  A    between atoms: C_25  and  C_30
                            x       y       z     vdW  Elec       q    Type
                         _______ _______ _______ _____ _____    ______ ____

>  <TORSDO>
F 10

$$$$
=
 OpenBabel11072408463D

 36 40  0  0  1  0  0  0  0  0999 V2000
  191.0550  173.9470  143.8330 C   0  0  1  0  0  3  0  0  0  0  0  0
  188.9490  173.6580  142.3730 C   0  0  0  0  0  0  0  0  0  0  0  0
  191.7960  173.3630  142.6190 C   0  0  0  0  0  2  0  0  0  0  0  0
  188.8630  176.2340  143.6390 C   0  0  1  0  0  3  0  0  0  0  0  0
  188.6620  176.1210  142.1420 C   0  0  2  0  0  3  0  0  0  0  0  0
  187.2800  177.8210  143.0200 N   0  0  0  0  0  0  0  0  0  0  0  0
  189.2860  175.3250  145.7790 O   0  0  0  0  0  0  0  0  0  0  0  0
  188.7010  172.3810  140.3870 O   0  0  0  0  0  1  0  0  0  0  0  0
  187.9690  177.4700  145.4940 C   0  0  2  0  0  3  0  0  0  0  0  0
  190.0700  171.4640  142.2560 C   0  0  0  0  0  2  0  0  0  0  0  0
  187.6490  176.9380  144.1030 C   0  0  2  0  0  3  0  0  0  0  0  0
  189.5160  173.8150  143.7890 C   0  0  2  0  0  3  0  0  0  0  0  0
  191.5480  171.8660  142.3800 C   0  0  0  0  0  2  0  0  0  0  0  0
  187.7420  177.2890  141.9260 C   0  0  0  0  0  0  0  0  0  0  0  0
  188.8220  174.9880  144.4830 C   0  0  2  0  0  3  0  0  0  0  0  0
  188.3480  176.2280  146.3840 C   0  0  0  0  0  2  0  0  0  0  0  0
  188.0770  174.7520  141.7770 C   0  0  0  0  0  2  0  0  0  0  0  0
  189.2080  172.5450  141.6710 C   0  0  0  0  0  0  0  0  0  0  0  0
  187.4810  177.8150  140.6620 O   0  0  0  0  0  0  0  0  0  0  0  0
  186.1950  177.7320  140.0650 C   0  0  0  0  0  1  0  0  0  0  0  0
  191.5470  173.3890  145.0170 O   0  0  0  0  0  0  0  0  0  0  0  0
  192.7900  173.9970  145.2130 C   0  0  0  0  0  2  0  0  0  0  0  0
  192.7450  174.8860  146.4460 C   0  0  0  0  0  2  0  0  0  0  0  0
  192.7520  176.3570  146.0640 C   0  0  0  0  0  2  0  0  0  0  0  0
  193.5630  176.5730  144.7970 C   0  0  0  0  0  2  0  0  0  0  0  0
  195.0270  176.8020  145.1360 C   0  0  0  0  0  2  0  0  0  0  0  0
  196.8830  175.8220  142.1600 O   0  0  0  0  0  0  0  0  0  0  0  0
  196.1470  176.4580  142.9610 C   0  0  0  0  0  3  0  0  0  0  0  0
  196.2160  174.4120  145.9930 O   0  0  0  0  0  1  0  0  0  0  0  0
  195.8870  175.9830  144.2880 N   0  0  0  0  0  0  0  0  0  0  0  0
  196.4290  174.7510  144.7990 C   0  0  0  0  0  0  0  0  0  0  0  0
  197.1920  173.9160  143.9900 O   0  0  0  0  0  0  0  0  0  0  0  0
  186.9340  178.2590  146.0480 O   0  0  0  0  0  0  0  0  0  0  0  0
  184.8030  177.2570  146.4060 C   0  0  0  0  0  2  0  0  0  0  0  0
  185.0230  178.3090  147.4700 C   0  0  0  0  0  2  0  0  0  0  0  0
  186.1920  177.4890  146.9620 C   0  0  0  0  0  3  0  0  0  0  0  0
  1 21  1  1  0  0  0
  2 12  1  0  0  0  0
  3  1  1  0  0  0  0
  4 11  1  0  0  0  0
  4 15  1  0  0  0  0
  5  4  1  0  0  0  0
  6 11  1  0  0  0  0
  7 16  1  0  0  0  0
  8 18  1  0  0  0  0
  9 33  1  0  0  0  0
  9 16  1  0  0  0  0
 10 13  1  0  0  0  0
 11  9  1  0  0  0  0
 12  1  1  0  0  0  0
 12 15  1  0  0  0  0
 13  3  1  0  0  0  0
 14  5  1  0  0  0  0
 14  6  2  0  0  0  0
 15  7  1  0  0  0  0
 17  5  1  0  0  0  0
 17  2  1  0  0  0  0
 18 10  1  0  0  0  0
 18  2  2  0  0  0  0
 19 14  1  0  0  0  0
 20 19  1  0  0  0  0
 21 22  1  0  0  0  0
 22 23  1  0  0  0  0
 24 23  1  0  0  0  0
 25 26  1  0  0  0  0
 25 24  1  0  0  0  0
 27 28  2  0  0  0  0
 28 30  1  0  0  0  0
 30 31  1  0  0  0  0
 30 26  1  0  0  0  0
 31 29  1  0  0  0  0
 32 31  2  0  0  0  0
 33 36  1  0  0  0  0
 34 36  1  0  0  0  0
 34 35  1  0  0  0  0
 36 35  1  0  0  0  0
M  END
>  <MODEL>
2

>  <REMARK>
 VINA RESULT:      -7.3      4.095     10.418
  Name = 
  10 active torsions:
  status: ('A' for Active; 'I' for Inactive)
    1  A    between atoms: C_1  and  O_2
    2  A    between atoms: O_2  and  C_30
    3  A    between atoms: O_4  and  C_31
    4  A    between atoms: C_9  and  C_10
    5  A    between atoms: C_9  and  C_25
    6  A    between atoms: C_10  and  C_29
    7  A    between atoms: N_15  and  C_29
    8  A    between atoms: C_19  and  O_35
    9  A    between atoms: C_23  and  O_35
   10  A    between atoms: C_25  and  C_30
                            x       y       z     vdW  Elec       q    Type
                         _______ _______ _______ _____ _____    ______ ____

>  <TORSDO>
F 10

$$$$
=
 OpenBabel11072408463D

 36 40  0  0  1  0  0  0  0  0999 V2000
  191.4730  175.2740  144.4400 C   0  0  1  0  0  3  0  0  0  0  0  0
  190.7830  176.8970  146.3210 C   0  0  0  0  0  0  0  0  0  0  0  0
  192.0280  174.4140  145.5880 C   0  0  0  0  0  2  0  0  0  0  0  0
  188.6040  176.6300  144.4690 C   0  0  1  0  0  3  0  0  0  0  0  0
  188.3620  176.4370  145.9520 C   0  0  2  0  0  3  0  0  0  0  0  0
  186.5020  177.4970  144.9590 N   0  0  0  0  0  0  0  0  0  0  0  0
  189.9860  177.0710  142.6030 O   0  0  0  0  0  0  0  0  0  0  0  0
  191.5120  176.9250  148.5800 O   0  0  0  0  0  1  0  0  0  0  0  0
  187.5160  177.6330  142.5770 C   0  0  2  0  0  3  0  0  0  0  0  0
  193.1590  176.4190  146.7790 C   0  0  0  0  0  2  0  0  0  0  0  0
  187.6440  177.6900  144.0940 C   0  0  2  0  0  3  0  0  0  0  0  0
  191.0870  176.7180  144.8290 C   0  0  2  0  0  3  0  0  0  0  0  0
  193.2890  174.9800  146.2560 C   0  0  0  0  0  2  0  0  0  0  0  0
  186.9410  176.9140  146.0360 C   0  0  0  0  0  0  0  0  0  0  0  0
  189.9040  177.2340  144.0070 C   0  0  2  0  0  3  0  0  0  0  0  0
  188.9570  177.8600  141.9860 C   0  0  0  0  0  2  0  0  0  0  0  0
  189.3730  177.2450  146.7740 C   0  0  0  0  0  2  0  0  0  0  0  0
  191.7660  176.7640  147.2220 C   0  0  0  0  0  0  0  0  0  0  0  0
  186.1310  176.6680  147.1440 O   0  0  0  0  0  0  0  0  0  0  0  0
  185.7820  177.6940  148.0620 C   0  0  0  0  0  1  0  0  0  0  0  0
  192.3720  175.2930  143.3700 O   0  0  0  0  0  0  0  0  0  0  0  0
  192.2820  174.0200  142.8000 C   0  0  0  0  0  2  0  0  0  0  0  0
  191.3610  174.0560  141.5910 C   0  0  0  0  0  2  0  0  0  0  0  0
  190.0910  173.2600  141.8440 C   0  0  0  0  0  2  0  0  0  0  0  0
  188.8970  173.9440  141.1990 C   0  0  0  0  0  2  0  0  0  0  0  0
  188.1420  172.9690  140.3090 C   0  0  0  0  0  2  0  0  0  0  0  0
  188.4290  174.5290  137.0320 O   0  0  0  0  0  0  0  0  0  0  0  0
  188.1220  174.3070  138.2330 C   0  0  0  0  0  3  0  0  0  0  0  0
  189.7360  171.1040  138.9520 O   0  0  0  0  0  1  0  0  0  0  0  0
  188.5470  173.1220  138.9170 N   0  0  0  0  0  0  0  0  0  0  0  0
  189.3390  172.0970  138.2860 C   0  0  0  0  0  0  0  0  0  0  0  0
  189.6790  172.1830  136.9410 O   0  0  0  0  0  0  0  0  0  0  0  0
  186.5520  178.5280  142.0580 O   0  0  0  0  0  0  0  0  0  0  0  0
  185.7630  177.6280  139.9980 C   0  0  0  0  0  2  0  0  0  0  0  0
  184.7820  178.6770  140.4700 C   0  0  0  0  0  2  0  0  0  0  0  0
  185.4960  177.8000  141.4790 C   0  0  0  0  0  3  0  0  0  0  0  0
  1 21  1  6  0  0  0
  1 12  1  0  0  0  0
  1  3  1  0  0  0  0
  2 17  1  0  0  0  0
  2 18  2  0  0  0  0
  3 13  1  0  0  0  0
  4  5  1  0  0  0  0
  5 14  1  0  0  0  0
  5 17  1  0  0  0  0
  6 14  2  0  0  0  0
  7 15  1  0  0  0  0
  9 11  1  0  0  0  0
 10 18  1  0  0  0  0
 11  4  1  0  0  0  0
 11  6  1  0  0  0  0
 12  2  1  0  0  0  0
 13 10  1  0  0  0  0
 14 19  1  0  0  0  0
 15  4  1  0  0  0  0
 15 12  1  0  0  0  0
 16  9  1  0  0  0  0
 16  7  1  0  0  0  0
 18  8  1  0  0  0  0
 19 20  1  0  0  0  0
 22 21  1  0  0  0  0
 23 24  1  0  0  0  0
 23 22  1  0  0  0  0
 25 24  1  0  0  0  0
 26 25  1  0  0  0  0
 27 28  2  0  0  0  0
 28 30  1  0  0  0  0
 30 26  1  0  0  0  0
 31 30  1  0  0  0  0
 31 29  1  0  0  0  0
 32 31  2  0  0  0  0
 33  9  1  0  0  0  0
 34 35  1  0  0  0  0
 34 36  1  0  0  0  0
 35 36  1  0  0  0  0
 36 33  1  0  0  0  0
M  END
>  <MODEL>
3

>  <REMARK>
 VINA RESULT:      -7.2      3.640      7.737
  Name = 
  10 active torsions:
  status: ('A' for Active; 'I' for Inactive)
    1  A    between atoms: C_1  and  O_2
    2  A    between atoms: O_2  and  C_30
    3  A    between atoms: O_4  and  C_31
    4  A    between atoms: C_9  and  C_10
    5  A    between atoms: C_9  and  C_25
    6  A    between atoms: C_10  and  C_29
    7  A    between atoms: N_15  and  C_29
    8  A    between atoms: C_19  and  O_35
    9  A    between atoms: C_23  and  O_35
   10  A    between atoms: C_25  and  C_30
                            x       y       z     vdW  Elec       q    Type
                         _______ _______ _______ _____ _____    ______ ____

>  <TORSDO>
F 10

$$$$
=
 OpenBabel11072408463D

 36 40  0  0  1  0  0  0  0  0999 V2000
  191.6720  175.7420  143.5280 C   0  0  1  0  0  3  0  0  0  0  0  0
  190.0220  174.4490  142.0250 C   0  0  0  0  0  0  0  0  0  0  0  0
  192.5930  175.7040  142.2970 C   0  0  0  0  0  2  0  0  0  0  0  0
  188.5960  176.5170  143.4170 C   0  0  1  0  0  3  0  0  0  0  0  0
  188.4640  176.3890  141.9140 C   0  0  2  0  0  3  0  0  0  0  0  0
  186.4020  177.0460  142.8560 N   0  0  0  0  0  0  0  0  0  0  0  0
  189.4690  175.8650  145.5150 O   0  0  0  0  0  0  0  0  0  0  0  0
  190.4630  173.3390  139.9740 O   0  0  0  0  0  1  0  0  0  0  0  0
  187.2080  176.9910  145.3200 C   0  0  2  0  0  3  0  0  0  0  0  0
  192.1370  173.1980  141.8140 C   0  0  0  0  0  2  0  0  0  0  0  0
  187.2010  176.4410  143.8990 C   0  0  2  0  0  3  0  0  0  0  0  0
  190.4390  174.8130  143.4550 C   0  0  2  0  0  3  0  0  0  0  0  0
  193.1760  174.3180  141.9790 C   0  0  0  0  0  2  0  0  0  0  0  0
  187.0610  176.8970  141.7440 C   0  0  0  0  0  0  0  0  0  0  0  0
  189.2370  175.4000  144.1970 C   0  0  2  0  0  3  0  0  0  0  0  0
  188.2030  176.0990  146.1510 C   0  0  0  0  0  2  0  0  0  0  0  0
  188.6930  174.9390  141.4730 C   0  0  0  0  0  2  0  0  0  0  0  0
  190.8230  173.6820  141.2720 C   0  0  0  0  0  0  0  0  0  0  0  0
  186.5410  177.2660  140.5040 O   0  0  0  0  0  0  0  0  0  0  0  0
  185.3490  178.0290  140.3870 C   0  0  0  0  0  1  0  0  0  0  0  0
  192.4020  175.4720  144.6890 O   0  0  0  0  0  0  0  0  0  0  0  0
  192.8660  176.7180  145.1210 C   0  0  0  0  0  2  0  0  0  0  0  0
  194.3600  176.6500  145.3970 C   0  0  0  0  0  2  0  0  0  0  0  0
  194.7090  175.4310  146.2350 C   0  0  0  0  0  2  0  0  0  0  0  0
  195.9560  174.7520  145.6930 C   0  0  0  0  0  2  0  0  0  0  0  0
  195.5830  173.7010  144.6590 C   0  0  0  0  0  2  0  0  0  0  0  0
  196.9740  170.7000  146.1800 O   0  0  0  0  0  0  0  0  0  0  0  0
  196.8650  171.8390  145.6530 C   0  0  0  0  0  3  0  0  0  0  0  0
  193.2670  172.1800  145.0880 O   0  0  0  0  0  0  0  0  0  0  0  0
  195.5950  172.3690  145.2510 N   0  0  0  0  0  0  0  0  0  0  0  0
  194.3610  171.6420  145.4040 C   0  0  0  0  0  0  0  0  0  0  0  0
  194.3530  170.3430  145.8980 O   0  0  0  0  0  1  0  0  0  0  0  0
  185.9200  177.0790  145.8980 O   0  0  0  0  0  0  0  0  0  0  0  0
  184.7430  178.5430  147.3610 C   0  0  0  0  0  2  0  0  0  0  0  0
  184.0900  178.6000  145.9980 C   0  0  0  0  0  2  0  0  0  0  0  0
  185.5910  178.4300  146.1120 C   0  0  0  0  0  3  0  0  0  0  0  0
  1 21  1  1  0  0  0
  2 12  1  0  0  0  0
  3  1  1  0  0  0  0
  4 11  1  0  0  0  0
  4 15  1  0  0  0  0
  5  4  1  0  0  0  0
  6 11  1  0  0  0  0
  7 16  1  0  0  0  0
  8 18  1  0  0  0  0
  9 33  1  0  0  0  0
  9 16  1  0  0  0  0
 10 13  1  0  0  0  0
 11  9  1  0  0  0  0
 12  1  1  0  0  0  0
 12 15  1  0  0  0  0
 13  3  1  0  0  0  0
 14  5  1  0  0  0  0
 14  6  2  0  0  0  0
 15  7  1  0  0  0  0
 17  5  1  0  0  0  0
 17  2  1  0  0  0  0
 18 10  1  0  0  0  0
 18  2  2  0  0  0  0
 19 14  1  0  0  0  0
 20 19  1  0  0  0  0
 21 22  1  0  0  0  0
 22 23  1  0  0  0  0
 23 24  1  0  0  0  0
 25 24  1  0  0  0  0
 26 30  1  0  0  0  0
 26 25  1  0  0  0  0
 28 27  2  0  0  0  0
 29 31  2  0  0  0  0
 30 31  1  0  0  0  0
 30 28  1  0  0  0  0
 31 32  1  0  0  0  0
 33 36  1  0  0  0  0
 35 36  1  0  0  0  0
 35 34  1  0  0  0  0
 36 34  1  0  0  0  0
M  END
>  <MODEL>
4

>  <REMARK>
 VINA RESULT:      -7.2      3.739     10.847
  Name = 
  10 active torsions:
  status: ('A' for Active; 'I' for Inactive)
    1  A    between atoms: C_1  and  O_2
    2  A    between atoms: O_2  and  C_30
    3  A    between atoms: O_4  and  C_31
    4  A    between atoms: C_9  and  C_10
    5  A    between atoms: C_9  and  C_25
    6  A    between atoms: C_10  and  C_29
    7  A    between atoms: N_15  and  C_29
    8  A    between atoms: C_19  and  O_35
    9  A    between atoms: C_23  and  O_35
   10  A    between atoms: C_25  and  C_30
                            x       y       z     vdW  Elec       q    Type
                         _______ _______ _______ _____ _____    ______ ____

>  <TORSDO>
F 10

$$$$
=
 OpenBabel11072408463D

 36 40  0  0  1  0  0  0  0  0999 V2000
  191.5260  175.3000  144.4520 C   0  0  1  0  0  3  0  0  0  0  0  0
  190.8230  176.9080  146.3420 C   0  0  0  0  0  0  0  0  0  0  0  0
  192.0850  174.4370  145.5960 C   0  0  0  0  0  2  0  0  0  0  0  0
  188.6490  176.6400  144.4850 C   0  0  1  0  0  3  0  0  0  0  0  0
  188.4070  176.4360  145.9660 C   0  0  2  0  0  3  0  0  0  0  0  0
  186.5410  177.4910  144.9770 N   0  0  0  0  0  0  0  0  0  0  0  0
  190.0310  177.0990  142.6230 O   0  0  0  0  0  0  0  0  0  0  0  0
  191.5490  176.9270  148.6020 O   0  0  0  0  0  1  0  0  0  0  0  0
  187.5580  177.6460  142.5970 C   0  0  2  0  0  3  0  0  0  0  0  0
  193.2020  176.4420  146.8000 C   0  0  0  0  0  2  0  0  0  0  0  0
  187.6830  177.6960  144.1140 C   0  0  2  0  0  3  0  0  0  0  0  0
  191.1310  176.7400  144.8490 C   0  0  2  0  0  3  0  0  0  0  0  0
  193.3420  175.0070  146.2690 C   0  0  0  0  0  2  0  0  0  0  0  0
  186.9820  176.9040  146.0510 C   0  0  0  0  0  0  0  0  0  0  0  0
  189.9460  177.2540  144.0290 C   0  0  2  0  0  3  0  0  0  0  0  0
  188.9990  177.8860  142.0090 C   0  0  0  0  0  2  0  0  0  0  0  0
  189.4110  177.2450  146.7940 C   0  0  0  0  0  2  0  0  0  0  0  0
  191.8060  176.7760  147.2440 C   0  0  0  0  0  0  0  0  0  0  0  0
  186.1720  176.6460  147.1560 O   0  0  0  0  0  0  0  0  0  0  0  0
  185.7320  177.6820  148.0230 C   0  0  0  0  0  1  0  0  0  0  0  0
  192.4270  175.3320  143.3830 O   0  0  0  0  0  0  0  0  0  0  0  0
  191.9760  174.3450  142.5020 C   0  0  0  0  0  2  0  0  0  0  0  0
  193.0450  173.2780  142.3260 C   0  0  0  0  0  2  0  0  0  0  0  0
  192.4620  171.8840  142.4900 C   0  0  0  0  0  2  0  0  0  0  0  0
  191.0200  171.9630  142.9650 C   0  0  0  0  0  2  0  0  0  0  0  0
  190.0860  171.3620  141.9270 C   0  0  0  0  0  2  0  0  0  0  0  0
  187.8100  174.2030  141.8430 O   0  0  0  0  0  0  0  0  0  0  0  0
  188.5630  173.2800  142.2520 C   0  0  0  0  0  3  0  0  0  0  0  0
  189.7380  171.7050  139.1660 O   0  0  0  0  0  0  0  0  0  0  0  0
  189.2300  172.3900  141.3470 N   0  0  0  0  0  0  0  0  0  0  0  0
  189.0810  172.4740  139.9170 C   0  0  0  0  0  0  0  0  0  0  0  0
  188.2170  173.3980  139.3410 O   0  0  0  0  0  1  0  0  0  0  0  0
  186.5890  178.5390  142.0810 O   0  0  0  0  0  0  0  0  0  0  0  0
  185.8190  177.6180  140.0240 C   0  0  0  0  0  2  0  0  0  0  0  0
  184.8370  178.6760  140.4740 C   0  0  0  0  0  2  0  0  0  0  0  0
  185.5370  177.8090  141.5000 C   0  0  0  0  0  3  0  0  0  0  0  0
  1 21  1  6  0  0  0
  1 12  1  0  0  0  0
  1  3  1  0  0  0  0
  2 17  1  0  0  0  0
  2 18  2  0  0  0  0
  3 13  1  0  0  0  0
  4  5  1  0  0  0  0
  5 14  1  0  0  0  0
  5 17  1  0  0  0  0
  6 14  2  0  0  0  0
  7 15  1  0  0  0  0
  9 11  1  0  0  0  0
 10 18  1  0  0  0  0
 11  4  1  0  0  0  0
 11  6  1  0  0  0  0
 12  2  1  0  0  0  0
 13 10  1  0  0  0  0
 14 19  1  0  0  0  0
 15  4  1  0  0  0  0
 15 12  1  0  0  0  0
 16  9  1  0  0  0  0
 16  7  1  0  0  0  0
 18  8  1  0  0  0  0
 19 20  1  0  0  0  0
 22 21  1  0  0  0  0
 23 24  1  0  0  0  0
 23 22  1  0  0  0  0
 24 25  1  0  0  0  0
 26 25  1  0  0  0  0
 27 28  2  0  0  0  0
 29 31  2  0  0  0  0
 30 26  1  0  0  0  0
 30 28  1  0  0  0  0
 31 30  1  0  0  0  0
 32 31  1  0  0  0  0
 33  9  1  0  0  0  0
 34 35  1  0  0  0  0
 34 36  1  0  0  0  0
 35 36  1  0  0  0  0
 36 33  1  0  0  0  0
M  END
>  <MODEL>
5

>  <REMARK>
 VINA RESULT:      -7.2      3.621      7.965
  Name = 
  10 active torsions:
  status: ('A' for Active; 'I' for Inactive)
    1  A    between atoms: C_1  and  O_2
    2  A    between atoms: O_2  and  C_30
    3  A    between atoms: O_4  and  C_31
    4  A    between atoms: C_9  and  C_10
    5  A    between atoms: C_9  and  C_25
    6  A    between atoms: C_10  and  C_29
    7  A    between atoms: N_15  and  C_29
    8  A    between atoms: C_19  and  O_35
    9  A    between atoms: C_23  and  O_35
   10  A    between atoms: C_25  and  C_30
                            x       y       z     vdW  Elec       q    Type
                         _______ _______ _______ _____ _____    ______ ____

>  <TORSDO>
F 10

$$$$
=
 OpenBabel11072408463D

 36 40  0  0  1  0  0  0  0  0999 V2000
  191.6110  173.3000  143.6810 C   0  0  1  0  0  3  0  0  0  0  0  0
  189.4190  173.3630  142.3230 C   0  0  0  0  0  0  0  0  0  0  0  0
  192.2420  172.8330  142.3590 C   0  0  0  0  0  2  0  0  0  0  0  0
  189.6010  175.7450  143.9180 C   0  0  1  0  0  3  0  0  0  0  0  0
  189.3180  175.8500  142.4340 C   0  0  2  0  0  3  0  0  0  0  0  0
  188.1210  177.5110  143.6070 N   0  0  0  0  0  0  0  0  0  0  0  0
  190.0540  174.5260  145.8920 O   0  0  0  0  0  0  0  0  0  0  0  0
  188.9730  172.3890  140.2050 O   0  0  0  0  0  1  0  0  0  0  0  0
  188.9000  176.7800  145.9690 C   0  0  2  0  0  3  0  0  0  0  0  0
  190.3550  171.1300  141.8540 C   0  0  0  0  0  2  0  0  0  0  0  0
  188.4710  176.4650  144.5420 C   0  0  2  0  0  3  0  0  0  0  0  0
  190.0660  173.2860  143.7120 C   0  0  2  0  0  3  0  0  0  0  0  0
  191.8640  171.4040  141.9420 C   0  0  0  0  0  2  0  0  0  0  0  0
  188.4840  177.0990  142.4280 C   0  0  0  0  0  0  0  0  0  0  0  0
  189.5020  174.4020  144.5930 C   0  0  2  0  0  3  0  0  0  0  0  0
  189.2220  175.4040  146.6650 C   0  0  0  0  0  2  0  0  0  0  0  0
  188.6090  174.5880  141.9290 C   0  0  0  0  0  2  0  0  0  0  0  0
  189.5540  172.3400  141.4680 C   0  0  0  0  0  0  0  0  0  0  0  0
  188.2040  177.8090  141.2610 O   0  0  0  0  0  0  0  0  0  0  0  0
  186.9870  177.6360  140.5520 C   0  0  0  0  0  1  0  0  0  0  0  0
  192.1140  172.5530  144.7500 O   0  0  0  0  0  0  0  0  0  0  0  0
  193.1610  173.3210  145.2670 C   0  0  0  0  0  2  0  0  0  0  0  0
  194.4350  172.4940  145.3230 C   0  0  0  0  0  2  0  0  0  0  0  0
  195.6640  173.3820  145.4280 C   0  0  0  0  0  2  0  0  0  0  0  0
  195.9520  174.0510  144.0940 C   0  0  0  0  0  2  0  0  0  0  0  0
  195.9660  175.5630  144.2490 C   0  0  0  0  0  2  0  0  0  0  0  0
  192.9550  176.4130  142.3880 O   0  0  0  0  0  0  0  0  0  0  0  0
  194.0960  175.9720  142.6890 C   0  0  0  0  0  3  0  0  0  0  0  0
  194.4390  176.8360  146.2270 O   0  0  0  0  0  1  0  0  0  0  0  0
  194.6400  176.1190  144.0070 N   0  0  0  0  0  0  0  0  0  0  0  0
  193.9380  176.7880  145.0720 C   0  0  0  0  0  0  0  0  0  0  0  0
  192.7050  177.3890  144.8500 O   0  0  0  0  0  0  0  0  0  0  0  0
  187.9600  177.5590  146.6820 O   0  0  0  0  0  0  0  0  0  0  0  0
  185.5950  177.3640  146.4790 C   0  0  0  0  0  2  0  0  0  0  0  0
  185.9360  177.5590  147.9390 C   0  0  0  0  0  2  0  0  0  0  0  0
  186.8620  176.7590  147.0450 C   0  0  0  0  0  3  0  0  0  0  0  0
  1 12  1  0  0  0  0
  1 21  1  1  0  0  0
  2 12  1  0  0  0  0
  3  1  1  0  0  0  0
  4 11  1  0  0  0  0
  4 15  1  0  0  0  0
  5  4  1  0  0  0  0
  6 11  1  0  0  0  0
  7 16  1  0  0  0  0
  8 18  1  0  0  0  0
  9 16  1  0  0  0  0
  9 33  1  0  0  0  0
 10 13  1  0  0  0  0
 11  9  1  0  0  0  0
 12 15  1  0  0  0  0
 13  3  1  0  0  0  0
 14  5  1  0  0  0  0
 14  6  2  0  0  0  0
 15  7  1  0  0  0  0
 17  2  1  0  0  0  0
 17  5  1  0  0  0  0
 18 10  1  0  0  0  0
 18  2  2  0  0  0  0
 19 14  1  0  0  0  0
 20 19  1  0  0  0  0
 21 22  1  0  0  0  0
 22 23  1  0  0  0  0
 23 24  1  0  0  0  0
 25 26  1  0  0  0  0
 25 24  1  0  0  0  0
 27 28  2  0  0  0  0
 28 30  1  0  0  0  0
 30 26  1  0  0  0  0
 30 31  1  0  0  0  0
 31 29  1  0  0  0  0
 32 31  2  0  0  0  0
 33 36  1  0  0  0  0
 34 36  1  0  0  0  0
 34 35  1  0  0  0  0
 36 35  1  0  0  0  0
M  END
>  <MODEL>
6

>  <REMARK>
 VINA RESULT:      -7.1      4.442      9.980
  Name = 
  10 active torsions:
  status: ('A' for Active; 'I' for Inactive)
    1  A    between atoms: C_1  and  O_2
    2  A    between atoms: O_2  and  C_30
    3  A    between atoms: O_4  and  C_31
    4  A    between atoms: C_9  and  C_10
    5  A    between atoms: C_9  and  C_25
    6  A    between atoms: C_10  and  C_29
    7  A    between atoms: N_15  and  C_29
    8  A    between atoms: C_19  and  O_35
    9  A    between atoms: C_23  and  O_35
   10  A    between atoms: C_25  and  C_30
                            x       y       z     vdW  Elec       q    Type
                         _______ _______ _______ _____ _____    ______ ____

>  <TORSDO>
F 10

$$$$
=
 OpenBabel11072408463D

 36 40  0  0  1  0  0  0  0  0999 V2000
  189.5680  176.2900  145.3630 C   0  0  1  0  0  3  0  0  0  0  0  0
  192.0170  175.4900  145.4890 C   0  0  0  0  0  0  0  0  0  0  0  0
  190.0790  177.5020  146.1610 C   0  0  0  0  0  2  0  0  0  0  0  0
  191.0410  175.0970  142.8170 C   0  0  1  0  0  3  0  0  0  0  0  0
  192.3470  175.8290  143.0440 C   0  0  2  0  0  3  0  0  0  0  0  0
  192.4830  174.5140  141.0880 N   0  0  0  0  0  0  0  0  0  0  0  0
  189.1020  173.9720  143.5680 O   0  0  0  0  0  0  0  0  0  0  0  0
  193.7520  176.2830  146.9020 O   0  0  0  0  0  1  0  0  0  0  0  0
  190.1110  173.4890  141.2950 C   0  0  2  0  0  3  0  0  0  0  0  0
  191.4460  176.0560  147.8220 C   0  0  0  0  0  2  0  0  0  0  0  0
  191.4120  173.9930  141.9070 C   0  0  2  0  0  3  0  0  0  0  0  0
  190.5490  175.0990  145.2790 C   0  0  2  0  0  3  0  0  0  0  0  0
  190.4370  177.1980  147.6230 C   0  0  0  0  0  2  0  0  0  0  0  0
  193.0690  175.4450  141.7840 C   0  0  0  0  0  0  0  0  0  0  0  0
  190.4130  174.3400  143.9580 C   0  0  2  0  0  3  0  0  0  0  0  0
  189.1900  173.0310  142.4870 C   0  0  0  0  0  2  0  0  0  0  0  0
  193.0090  175.3620  144.3450 C   0  0  0  0  0  2  0  0  0  0  0  0
  192.4250  175.9270  146.6900 C   0  0  0  0  0  0  0  0  0  0  0  0
  194.2220  176.0990  141.3500 O   0  0  0  0  0  0  0  0  0  0  0  0
  195.5150  175.5470  141.5420 C   0  0  0  0  0  1  0  0  0  0  0  0
  188.3390  175.8590  145.8690 O   0  0  0  0  0  0  0  0  0  0  0  0
  187.5760  177.0230  146.0040 C   0  0  0  0  0  2  0  0  0  0  0  0
  186.1330  176.7470  145.6150 C   0  0  0  0  0  2  0  0  0  0  0  0
  185.3160  178.0280  145.5880 C   0  0  0  0  0  2  0  0  0  0  0  0
  185.9480  179.0420  144.6480 C   0  0  0  0  0  2  0  0  0  0  0  0
  185.1860  179.0970  143.3340 C   0  0  0  0  0  2  0  0  0  0  0  0
  188.1120  177.7540  141.6350 O   0  0  0  0  0  0  0  0  0  0  0  0
  187.3610  178.2770  142.5010 C   0  0  0  0  0  3  0  0  0  0  0  0
  184.0800  178.3050  140.8820 O   0  0  0  0  0  1  0  0  0  0  0  0
  185.9650  178.4940  142.2600 N   0  0  0  0  0  0  0  0  0  0  0  0
  185.3230  178.1470  141.0180 C   0  0  0  0  0  0  0  0  0  0  0  0
  186.0550  177.6370  139.9520 O   0  0  0  0  0  0  0  0  0  0  0  0
  190.3000  172.4850  140.3170 O   0  0  0  0  0  0  0  0  0  0  0  0
  188.5420  173.1280  138.8440 C   0  0  0  0  0  2  0  0  0  0  0  0
  189.3000  171.9820  138.2140 C   0  0  0  0  0  2  0  0  0  0  0  0
  190.0390  173.0150  139.0400 C   0  0  0  0  0  3  0  0  0  0  0  0
  1 21  1  1  0  0  0
  1  3  1  0  0  0  0
  2 18  2  0  0  0  0
  3 13  1  0  0  0  0
  4  5  1  0  0  0  0
  4 15  1  0  0  0  0
  5 17  1  0  0  0  0
  6 14  2  0  0  0  0
  6 11  1  0  0  0  0
  7 15  1  0  0  0  0
  9 11  1  0  0  0  0
  9 16  1  0  0  0  0
 11  4  1  0  0  0  0
 12  1  1  0  0  0  0
 12  2  1  0  0  0  0
 13 10  1  0  0  0  0
 14  5  1  0  0  0  0
 15 12  1  0  0  0  0
 16  7  1  0  0  0  0
 17  2  1  0  0  0  0
 18  8  1  0  0  0  0
 18 10  1  0  0  0  0
 19 20  1  0  0  0  0
 19 14  1  0  0  0  0
 21 22  1  0  0  0  0
 23 22  1  0  0  0  0
 24 23  1  0  0  0  0
 25 24  1  0  0  0  0
 26 25  1  0  0  0  0
 27 28  2  0  0  0  0
 29 31  1  0  0  0  0
 30 28  1  0  0  0  0
 30 26  1  0  0  0  0
 31 30  1  0  0  0  0
 32 31  2  0  0  0  0
 33  9  1  0  0  0  0
 34 36  1  0  0  0  0
 35 34  1  0  0  0  0
 35 36  1  0  0  0  0
 36 33  1  0  0  0  0
M  END
>  <MODEL>
7

>  <REMARK>
 VINA RESULT:      -6.9      3.185      5.544
  Name = 
  10 active torsions:
  status: ('A' for Active; 'I' for Inactive)
    1  A    between atoms: C_1  and  O_2
    2  A    between atoms: O_2  and  C_30
    3  A    between atoms: O_4  and  C_31
    4  A    between atoms: C_9  and  C_10
    5  A    between atoms: C_9  and  C_25
    6  A    between atoms: C_10  and  C_29
    7  A    between atoms: N_15  and  C_29
    8  A    between atoms: C_19  and  O_35
    9  A    between atoms: C_23  and  O_35
   10  A    between atoms: C_25  and  C_30
                            x       y       z     vdW  Elec       q    Type
                         _______ _______ _______ _____ _____    ______ ____

>  <TORSDO>
F 10

$$$$
=
 OpenBabel11072408463D

 36 40  0  0  1  0  0  0  0  0999 V2000
  190.9760  174.9940  144.4020 C   0  0  1  0  0  3  0  0  0  0  0  0
  190.4770  176.8100  146.1650 C   0  0  0  0  0  0  0  0  0  0  0  0
  191.5260  174.1960  145.5960 C   0  0  0  0  0  2  0  0  0  0  0  0
  188.2050  176.5400  144.4290 C   0  0  1  0  0  3  0  0  0  0  0  0
  188.0180  176.4860  145.9310 C   0  0  2  0  0  3  0  0  0  0  0  0
  186.1870  177.5850  144.9260 N   0  0  0  0  0  0  0  0  0  0  0  0
  189.5270  176.7310  142.4790 O   0  0  0  0  0  0  0  0  0  0  0  0
  191.3080  176.9730  148.3830 O   0  0  0  0  0  1  0  0  0  0  0  0
  187.0990  177.4550  142.5030 C   0  0  2  0  0  3  0  0  0  0  0  0
  192.8360  176.2110  146.5680 C   0  0  0  0  0  2  0  0  0  0  0  0
  187.2990  177.6290  144.0040 C   0  0  2  0  0  3  0  0  0  0  0  0
  190.7020  176.4890  144.6820 C   0  0  2  0  0  3  0  0  0  0  0  0
  192.8500  174.7290  146.1640 C   0  0  0  0  0  2  0  0  0  0  0  0
  186.6350  177.0640  146.0310 C   0  0  0  0  0  0  0  0  0  0  0  0
  189.5190  177.0150  143.8670 C   0  0  2  0  0  3  0  0  0  0  0  0
  188.5250  177.5350  141.8380 C   0  0  0  0  0  2  0  0  0  0  0  0
  189.1150  177.2880  146.6410 C   0  0  0  0  0  2  0  0  0  0  0  0
  191.4890  176.6850  147.0350 C   0  0  0  0  0  0  0  0  0  0  0  0
  185.8620  176.9650  147.1870 O   0  0  0  0  0  0  0  0  0  0  0  0
  185.5670  178.0960  147.9920 C   0  0  0  0  0  1  0  0  0  0  0  0
  191.8260  174.8650  143.3000 O   0  0  0  0  0  0  0  0  0  0  0  0
  191.4090  173.6960  142.6570 C   0  0  0  0  0  2  0  0  0  0  0  0
  192.5960  173.0130  141.9990 C   0  0  0  0  0  2  0  0  0  0  0  0
  193.3610  172.1580  142.9960 C   0  0  0  0  0  2  0  0  0  0  0  0
  194.8520  172.4410  142.9060 C   0  0  0  0  0  2  0  0  0  0  0  0
  195.1830  173.7620  143.5820 C   0  0  0  0  0  2  0  0  0  0  0  0
  196.6050  174.9290  140.4400 O   0  0  0  0  0  0  0  0  0  0  0  0
  196.1110  174.1910  141.3340 C   0  0  0  0  0  3  0  0  0  0  0  0
  195.5660  176.4840  144.1320 O   0  0  0  0  0  1  0  0  0  0  0  0
  195.7570  174.7010  142.6260 N   0  0  0  0  0  0  0  0  0  0  0  0
  195.9510  176.0780  143.0030 C   0  0  0  0  0  0  0  0  0  0  0  0
  196.5610  176.9770  142.1370 O   0  0  0  0  0  0  0  0  0  0  0  0
  186.1730  178.3690  141.9480 O   0  0  0  0  0  0  0  0  0  0  0  0
  184.2950  178.6010  140.5020 C   0  0  0  0  0  2  0  0  0  0  0  0
  183.7950  178.2390  141.8830 C   0  0  0  0  0  2  0  0  0  0  0  0
  185.1010  177.6620  141.3740 C   0  0  0  0  0  3  0  0  0  0  0  0
  1 21  1  6  0  0  0
  1 12  1  0  0  0  0
  1  3  1  0  0  0  0
  2 17  1  0  0  0  0
  2 18  2  0  0  0  0
  3 13  1  0  0  0  0
  4  5  1  0  0  0  0
  5 14  1  0  0  0  0
  5 17  1  0  0  0  0
  6 14  2  0  0  0  0
  7 15  1  0  0  0  0
  9 11  1  0  0  0  0
 10 18  1  0  0  0  0
 11  4  1  0  0  0  0
 11  6  1  0  0  0  0
 12  2  1  0  0  0  0
 13 10  1  0  0  0  0
 14 19  1  0  0  0  0
 15  4  1  0  0  0  0
 15 12  1  0  0  0  0
 16  7  1  0  0  0  0
 16  9  1  0  0  0  0
 18  8  1  0  0  0  0
 19 20  1  0  0  0  0
 22 21  1  0  0  0  0
 23 22  1  0  0  0  0
 23 24  1  0  0  0  0
 25 24  1  0  0  0  0
 25 26  1  0  0  0  0
 27 28  2  0  0  0  0
 28 30  1  0  0  0  0
 30 31  1  0  0  0  0
 30 26  1  0  0  0  0
 31 29  1  0  0  0  0
 32 31  2  0  0  0  0
 33  9  1  0  0  0  0
 34 36  1  0  0  0  0
 34 35  1  0  0  0  0
 36 35  1  0  0  0  0
 36 33  1  0  0  0  0
M  END
>  <MODEL>
8

>  <REMARK>
 VINA RESULT:      -6.9      3.492      9.857
  Name = 
  10 active torsions:
  status: ('A' for Active; 'I' for Inactive)
    1  A    between atoms: C_1  and  O_2
    2  A    between atoms: O_2  and  C_30
    3  A    between atoms: O_4  and  C_31
    4  A    between atoms: C_9  and  C_10
    5  A    between atoms: C_9  and  C_25
    6  A    between atoms: C_10  and  C_29
    7  A    between atoms: N_15  and  C_29
    8  A    between atoms: C_19  and  O_35
    9  A    between atoms: C_23  and  O_35
   10  A    between atoms: C_25  and  C_30
                            x       y       z     vdW  Elec       q    Type
                         _______ _______ _______ _____ _____    ______ ____

>  <TORSDO>
F 10

$$$$
=
 OpenBabel11072408463D

 36 40  0  0  1  0  0  0  0  0999 V2000
  190.4650  175.5270  143.9440 C   0  0  1  0  0  3  0  0  0  0  0  0
  191.6180  175.3380  146.2430 C   0  0  0  0  0  0  0  0  0  0  0  0
  190.5170  177.0420  144.2080 C   0  0  0  0  0  2  0  0  0  0  0  0
  192.9180  173.5650  144.3950 C   0  0  1  0  0  3  0  0  0  0  0  0
  193.7400  174.5390  145.2130 C   0  0  2  0  0  3  0  0  0  0  0  0
  194.9140  172.5080  144.9510 N   0  0  0  0  0  0  0  0  0  0  0  0
  190.8740  172.5960  143.7090 O   0  0  0  0  0  0  0  0  0  0  0  0
  191.8290  177.0010  147.9230 O   0  0  0  0  0  1  0  0  0  0  0  0
  193.0440  171.2910  143.6310 C   0  0  2  0  0  3  0  0  0  0  0  0
  189.6910  176.8220  146.6550 C   0  0  0  0  0  2  0  0  0  0  0  0
  193.5100  172.2490  144.7200 C   0  0  2  0  0  3  0  0  0  0  0  0
  190.7820  174.6360  145.1660 C   0  0  2  0  0  3  0  0  0  0  0  0
  189.5540  177.5320  145.2990 C   0  0  0  0  0  2  0  0  0  0  0  0
  195.0080  173.7440  145.3440 C   0  0  0  0  0  0  0  0  0  0  0  0
  191.4750  173.3340  144.7580 C   0  0  2  0  0  3  0  0  0  0  0  0
  191.4700  171.2900  143.6640 C   0  0  0  0  0  2  0  0  0  0  0  0
  193.0350  174.8680  146.5330 C   0  0  0  0  0  2  0  0  0  0  0  0
  191.0890  176.3540  146.9400 C   0  0  0  0  0  0  0  0  0  0  0  0
  196.2100  174.3130  145.7640 O   0  0  0  0  0  0  0  0  0  0  0  0
  197.3690  174.3090  144.9440 C   0  0  0  0  0  1  0  0  0  0  0  0
  189.2260  175.1710  143.4040 O   0  0  0  0  0  0  0  0  0  0  0  0
  189.3930  175.2700  142.0200 C   0  0  0  0  0  2  0  0  0  0  0  0
  188.0810  175.6730  141.3650 C   0  0  0  0  0  2  0  0  0  0  0  0
  187.5100  176.9280  142.0060 C   0  0  0  0  0  2  0  0  0  0  0  0
  186.2090  176.6120  142.7250 C   0  0  0  0  0  2  0  0  0  0  0  0
  186.3710  176.8010  144.2250 C   0  0  0  0  0  2  0  0  0  0  0  0
  184.9870  180.1680  144.1970 O   0  0  0  0  0  0  0  0  0  0  0  0
  185.6300  179.1310  143.8820 C   0  0  0  0  0  3  0  0  0  0  0  0
  184.8060  176.7680  146.5500 O   0  0  0  0  0  1  0  0  0  0  0  0
  185.5970  177.9460  144.6880 N   0  0  0  0  0  0  0  0  0  0  0  0
  184.8470  177.8550  145.9130 C   0  0  0  0  0  0  0  0  0  0  0  0
  184.1580  178.9530  146.4140 O   0  0  0  0  0  0  0  0  0  0  0  0
  193.6050  169.9970  143.7400 O   0  0  0  0  0  0  0  0  0  0  0  0
  194.8870  168.6890  145.2620 C   0  0  0  0  0  2  0  0  0  0  0  0
  193.4680  168.1660  145.2560 C   0  0  0  0  0  2  0  0  0  0  0  0
  193.7280  169.6500  145.0970 C   0  0  0  0  0  3  0  0  0  0  0  0
  1 21  1  1  0  0  0
  1  3  1  0  0  0  0
  1 12  1  0  0  0  0
  2 17  1  0  0  0  0
  2 18  2  0  0  0  0
  3 13  1  0  0  0  0
  4 11  1  0  0  0  0
  4 15  1  0  0  0  0
  4  5  1  0  0  0  0
  5 14  1  0  0  0  0
  5 17  1  0  0  0  0
  6 14  2  0  0  0  0
  7 15  1  0  0  0  0
  9 16  1  0  0  0  0
  9 33  1  0  0  0  0
  9 11  1  0  0  0  0
 10 18  1  0  0  0  0
 11  6  1  0  0  0  0
 12  2  1  0  0  0  0
 13 10  1  0  0  0  0
 14 19  1  0  0  0  0
 15 12  1  0  0  0  0
 16  7  1  0  0  0  0
 18  8  1  0  0  0  0
 20 19  1  0  0  0  0
 22 21  1  0  0  0  0
 23 24  1  0  0  0  0
 23 22  1  0  0  0  0
 24 25  1  0  0  0  0
 25 26  1  0  0  0  0
 26 30  1  0  0  0  0
 28 27  2  0  0  0  0
 28 30  1  0  0  0  0
 30 31  1  0  0  0  0
 31 32  2  0  0  0  0
 31 29  1  0  0  0  0
 33 36  1  0  0  0  0
 35 34  1  0  0  0  0
 36 35  1  0  0  0  0
 36 34  1  0  0  0  0
M  END
>  <MODEL>
9

>  <REMARK>
 VINA RESULT:      -6.6      3.718      5.845
  Name = 
  10 active torsions:
  status: ('A' for Active; 'I' for Inactive)
    1  A    between atoms: C_1  and  O_2
    2  A    between atoms: O_2  and  C_30
    3  A    between atoms: O_4  and  C_31
    4  A    between atoms: C_9  and  C_10
    5  A    between atoms: C_9  and  C_25
    6  A    between atoms: C_10  and  C_29
    7  A    between atoms: N_15  and  C_29
    8  A    between atoms: C_19  and  O_35
    9  A    between atoms: C_23  and  O_35
   10  A    between atoms: C_25  and  C_30
                            x       y       z     vdW  Elec       q    Type
                         _______ _______ _______ _____ _____    ______ ____

>  <TORSDO>
F 10

$$$$
