=
 OpenBabel11062419213D

 50 54  0  0  1  0  0  0  0  0999 V2000
  188.7980  177.0050  141.7980 C   0  0  0  0  0  0  0  0  0  0  0  0
  187.8130  176.7280  141.0890 N   0  0  0  0  0  0  0  0  0  0  0  0
  188.3870  174.2780  141.0860 C   0  0  1  0  0  3  0  0  0  0  0  0
  188.9620  178.2690  142.3860 N   0  0  0  0  0  1  0  0  0  0  0  0
  189.7380  175.9810  142.2320 N   0  0  0  0  0  0  0  0  0  0  0  0
  189.6200  174.7300  141.9950 C   0  0  0  0  0  0  0  0  0  0  0  0
  187.6450  175.4400  140.4120 C   0  0  0  0  0  2  0  0  0  0  0  0
  190.5260  173.7570  142.6400 N   0  0  0  0  0  0  0  0  0  0  0  0
  193.7690  170.2510  144.0390 N   0  0  0  0  0  2  0  0  0  0  0  0
  195.0940  169.8970  142.1420 O   0  0  0  0  0  0  0  0  0  0  0  0
  193.0990  171.1690  141.8330 N   0  0  0  0  0  0  0  0  0  0  0  0
  190.7170  170.4560  141.4280 C   0  0  0  0  0  2  0  0  0  0  0  0
  194.0140  170.4130  142.6810 C   0  0  0  0  0  0  0  0  0  0  0  0
  192.2050  170.3390  141.0040 C   0  0  0  0  0  2  0  0  0  0  0  0
  190.4220  171.4400  142.3650 O   0  0  0  0  0  0  0  0  0  0  0  0
  191.1630  172.6260  141.9610 C   0  0  2  0  0  3  0  0  0  0  0  0
  192.6150  172.4800  142.2670 C   0  0  0  0  0  2  0  0  0  0  0  0
  194.2120  168.6680  145.8690 C   0  0  0  0  0  3  0  0  0  0  0  0
  194.9560  168.1670  146.9600 C   0  0  0  0  0  3  0  0  0  0  0  0
  197.1800  168.2380  148.6110 Cl  0  0  0  0  0  0  0  0  0  0  0  0
  196.6090  169.8250  146.5210 C   0  0  0  0  0  3  0  0  0  0  0  0
  196.3680  171.4760  144.8320 O   0  0  0  0  0  1  0  0  0  0  0  0
  195.8790  170.3520  145.4490 C   0  0  0  0  0  0  0  0  0  0  0  0
  194.6500  169.7180  145.0940 C   0  0  0  0  0  0  0  0  0  0  0  0
  196.1820  168.7390  147.2580 C   0  0  0  0  0  0  0  0  0  0  0  0
  188.7630  173.3590  140.0540 O   0  0  0  0  0  0  0  0  0  0  0  0
  188.1370  173.7230  138.9820 O   0  0  0  0  0  1  0  0  0  0  0  0
  191.3860  174.4000  143.5130 O   0  0  0  0  0  0  0  0  0  0  0  0
  191.6410  173.2410  145.6030 C   0  0  0  0  0  1  0  0  0  0  0  0
  190.9430  174.3590  144.8520 C   0  0  1  0  0  3  0  0  0  0  0  0
  191.3440  175.5640  145.6360 C   0  0  2  0  0  3  0  0  0  0  0  0
  190.3990  176.9590  147.3670 O   0  0  0  0  0  0  0  0  0  0  0  0
  190.1630  176.3130  146.2890 C   0  0  0  0  0  0  0  0  0  0  0  0
  188.8740  176.5280  145.5850 N   0  0  0  0  0  2  0  0  0  0  0  0
  186.9120  176.5480  146.9200 C   0  0  0  0  0  2  0  0  0  0  0  0
  187.9170  177.3910  146.1790 C   0  0  2  0  0  3  0  0  0  0  0  0
  185.8210  178.5050  145.9430 C   0  0  1  0  0  3  0  0  0  0  0  0
  185.6830  177.4820  147.0220 C   0  0  0  0  0  2  0  0  0  0  0  0
  187.0520  178.2140  145.1760 C   0  0  0  0  0  2  0  0  0  0  0  0
  184.4880  179.0830  143.9270 C   0  0  0  0  0  1  0  0  0  0  0  0
  184.5060  178.7440  145.3370 C   0  0  0  0  0  0  0  0  0  0  0  0
  183.5380  178.7610  146.0190 O   0  0  0  0  0  0  0  0  0  0  0  0
  192.4780  176.4990  145.2330 C   0  0  2  0  0  3  0  0  0  0  0  0
  192.2860  177.3710  144.0920 C   0  0  0  0  0  1  0  0  0  0  0  0
  193.7960  175.8780  144.9930 N   0  0  0  0  0  0  0  0  0  0  0  0
  194.7610  175.9250  146.1030 C   0  0  0  0  0  2  0  0  0  0  0  0
  196.4070  174.9600  144.4510 C   0  0  0  0  0  2  0  0  0  0  0  0
  195.4170  175.2560  143.3840 C   0  0  0  0  0  2  0  0  0  0  0  0
  195.7660  174.7520  145.8140 C   0  0  0  0  0  2  0  0  0  0  0  0
  194.4580  176.3360  143.7580 C   0  0  0  0  0  2  0  0  0  0  0  0
  1  5  1  0  0  0  0
  1  4  1  0  0  0  0
  2  1  2  0  0  0  0
  3 26  1  6  0  0  0
  3  6  1  0  0  0  0
  6  5  2  0  0  0  0
  6  8  1  0  0  0  0
  7  3  1  0  0  0  0
  7  2  1  0  0  0  0
  8 28  1  0  0  0  0
  9 24  1  0  0  0  0
 10 13  2  0  0  0  0
 11 17  1  0  0  0  0
 11 13  1  0  0  0  0
 12 15  1  0  0  0  0
 13  9  1  0  0  0  0
 14 12  1  0  0  0  0
 14 11  1  0  0  0  0
 16 17  1  0  0  0  0
 16 15  1  0  0  0  0
 16  8  1  1  0  0  0
 18 19  1  0  0  0  0
 19 25  2  0  0  0  0
 21 25  1  0  0  0  0
 22 23  1  0  0  0  0
 23 21  2  0  0  0  0
 24 23  1  0  0  0  0
 24 18  2  0  0  0  0
 25 20  1  0  0  0  0
 27 26  1  0  0  0  0
 28 30  1  0  0  0  0
 30 29  1  1  0  0  0
 30 31  1  0  0  0  0
 31 33  1  6  0  0  0
 33 32  2  0  0  0  0
 34 33  1  0  0  0  0
 35 38  1  0  0  0  0
 36 34  1  6  0  0  0
 36 35  1  0  0  0  0
 37 41  1  6  0  0  0
 37 38  1  0  0  0  0
 39 37  1  0  0  0  0
 39 36  1  0  0  0  0
 40 41  1  0  0  0  0
 41 42  2  0  0  0  0
 43 44  1  6  0  0  0
 43 31  1  0  0  0  0
 45 43  1  0  0  0  0
 45 46  1  0  0  0  0
 47 49  1  0  0  0  0
 48 50  1  0  0  0  0
 48 47  1  0  0  0  0
 49 46  1  0  0  0  0
 50 45  1  0  0  0  0
M  END
>  <MODEL>
1

>  <REMARK>
 VINA RESULT:      -7.8      0.000      0.000
  Name = 
  11 active torsions:
  status: ('A' for Active; 'I' for Inactive)
    1  A    between atoms: N_1  and  C_42
    2  A    between atoms: O_2  and  C_18
    3  A    between atoms: C_10  and  C_31
    4  A    between atoms: N_11  and  C_14
    5  A    between atoms: C_14  and  C_44
    6  A    between atoms: O_17  and  C_49
    7  A    between atoms: O_17  and  N_50
    8  A    between atoms: C_24  and  N_40
    9  A    between atoms: C_25  and  C_44
   10  A    between atoms: C_44  and  C_49
   11  A    between atoms: C_46  and  N_50
                            x       y       z     vdW  Elec       q    Type
                         _______ _______ _______ _____ _____    ______ ____

>  <TORSDO>
F 11

$$$$
=
 OpenBabel11062419213D

 50 54  0  0  1  0  0  0  0  0999 V2000
  195.6850  175.1650  138.2250 C   0  0  0  0  0  0  0  0  0  0  0  0
  196.9140  175.3130  138.0980 N   0  0  0  0  0  0  0  0  0  0  0  0
  197.3470  174.5120  140.4430 C   0  0  1  0  0  3  0  0  0  0  0  0
  194.8070  175.2400  137.1320 N   0  0  0  0  0  1  0  0  0  0  0  0
  195.0970  174.7030  139.4750 N   0  0  0  0  0  0  0  0  0  0  0  0
  195.7600  174.3520  140.5100 C   0  0  0  0  0  0  0  0  0  0  0  0
  197.8480  175.3020  139.2260 C   0  0  0  0  0  2  0  0  0  0  0  0
  195.0760  173.7220  141.6590 N   0  0  0  0  0  0  0  0  0  0  0  0
  192.1850  175.2430  145.4140 N   0  0  0  0  0  2  0  0  0  0  0  0
  193.5430  176.7050  146.6350 O   0  0  0  0  0  0  0  0  0  0  0  0
  194.6260  175.3620  144.9870 N   0  0  0  0  0  0  0  0  0  0  0  0
  195.5090  173.0040  145.0790 C   0  0  0  0  0  2  0  0  0  0  0  0
  193.4300  175.7840  145.7070 C   0  0  0  0  0  0  0  0  0  0  0  0
  195.4830  174.4160  145.7250 C   0  0  0  0  0  2  0  0  0  0  0  0
  194.9020  172.8890  143.8330 O   0  0  0  0  0  0  0  0  0  0  0  0
  195.3180  174.0520  143.0650 C   0  0  2  0  0  3  0  0  0  0  0  0
  194.6080  175.2800  143.5260 C   0  0  0  0  0  2  0  0  0  0  0  0
  190.1220  174.8480  146.6950 C   0  0  0  0  0  3  0  0  0  0  0  0
  188.7980  175.1410  147.0890 C   0  0  0  0  0  3  0  0  0  0  0  0
  186.5530  176.7620  147.0160 Cl  0  0  0  0  0  0  0  0  0  0  0  0
  188.9000  177.1140  145.7590 C   0  0  0  0  0  3  0  0  0  0  0  0
  190.7740  177.6710  144.4130 O   0  0  0  0  0  1  0  0  0  0  0  0
  190.2060  176.8340  145.3390 C   0  0  0  0  0  0  0  0  0  0  0  0
  190.8460  175.6690  145.8610 C   0  0  0  0  0  0  0  0  0  0  0  0
  188.2040  176.3070  146.6350 C   0  0  0  0  0  0  0  0  0  0  0  0
  197.8940  175.1390  141.6100 O   0  0  0  0  0  0  0  0  0  0  0  0
  197.3930  176.3300  141.6640 O   0  0  0  0  0  1  0  0  0  0  0  0
  193.7310  173.5410  141.3840 O   0  0  0  0  0  0  0  0  0  0  0  0
  194.3110  171.2320  141.0610 C   0  0  0  0  0  1  0  0  0  0  0  0
  193.4800  172.4070  140.5840 C   0  0  1  0  0  3  0  0  0  0  0  0
  192.0880  171.8880  140.7280 C   0  0  2  0  0  3  0  0  0  0  0  0
  190.5150  171.0420  139.1000 O   0  0  0  0  0  0  0  0  0  0  0  0
  191.2220  172.0460  139.4590 C   0  0  0  0  0  0  0  0  0  0  0  0
  190.9800  173.3650  138.8230 N   0  0  0  0  0  2  0  0  0  0  0  0
  190.5620  174.3450  136.7020 C   0  0  0  0  0  2  0  0  0  0  0  0
  190.0190  173.4460  137.7820 C   0  0  2  0  0  3  0  0  0  0  0  0
  188.1400  174.6140  136.8920 C   0  0  1  0  0  3  0  0  0  0  0  0
  189.2870  174.7970  135.9530 C   0  0  0  0  0  2  0  0  0  0  0  0
  188.6650  174.1070  138.1790 C   0  0  0  0  0  2  0  0  0  0  0  0
  187.3030  176.5150  135.5280 C   0  0  0  0  0  1  0  0  0  0  0  0
  187.2270  175.7560  136.7620 C   0  0  0  0  0  0  0  0  0  0  0  0
  186.5540  176.0790  137.6810 O   0  0  0  0  0  0  0  0  0  0  0  0
  191.2710  171.9970  142.0100 C   0  0  2  0  0  3  0  0  0  0  0  0
  190.7570  170.7830  142.6100 C   0  0  0  0  0  1  0  0  0  0  0  0
  190.1050  172.9020  141.9780 N   0  0  0  0  0  0  0  0  0  0  0  0
  190.2800  174.2280  142.5930 C   0  0  0  0  0  2  0  0  0  0  0  0
  187.8080  174.5250  142.1850 C   0  0  0  0  0  2  0  0  0  0  0  0
  187.7470  173.0740  141.8730 C   0  0  0  0  0  2  0  0  0  0  0  0
  189.1790  175.1300  141.9280 C   0  0  0  0  0  2  0  0  0  0  0  0
  188.8620  172.2960  142.4860 C   0  0  0  0  0  2  0  0  0  0  0  0
  1  5  1  0  0  0  0
  2  1  2  0  0  0  0
  2  7  1  0  0  0  0
  3  6  1  0  0  0  0
  3 26  1  1  0  0  0
  4  1  1  0  0  0  0
  5  6  2  0  0  0  0
  6  8  1  0  0  0  0
  7  3  1  0  0  0  0
  9 13  1  0  0  0  0
  9 24  1  0  0  0  0
 11 13  1  0  0  0  0
 11 14  1  0  0  0  0
 12 14  1  0  0  0  0
 13 10  2  0  0  0  0
 15 12  1  0  0  0  0
 16  8  1  6  0  0  0
 16 17  1  0  0  0  0
 16 15  1  0  0  0  0
 17 11  1  0  0  0  0
 18 19  1  0  0  0  0
 21 25  1  0  0  0  0
 22 23  1  0  0  0  0
 23 21  2  0  0  0  0
 23 24  1  0  0  0  0
 24 18  2  0  0  0  0
 25 20  1  0  0  0  0
 25 19  2  0  0  0  0
 26 27  1  0  0  0  0
 28  8  1  0  0  0  0
 30 31  1  0  0  0  0
 30 29  1  1  0  0  0
 30 28  1  0  0  0  0
 31 33  1  6  0  0  0
 31 43  1  0  0  0  0
 32 33  2  0  0  0  0
 34 33  1  0  0  0  0
 35 36  1  0  0  0  0
 36 39  1  0  0  0  0
 36 34  1  1  0  0  0
 37 41  1  1  0  0  0
 37 39  1  0  0  0  0
 38 35  1  0  0  0  0
 38 37  1  0  0  0  0
 40 41  1  0  0  0  0
 41 42  2  0  0  0  0
 43 44  1  6  0  0  0
 45 43  1  0  0  0  0
 45 50  1  0  0  0  0
 45 46  1  0  0  0  0
 48 47  1  0  0  0  0
 48 50  1  0  0  0  0
 49 47  1  0  0  0  0
 49 46  1  0  0  0  0
M  END
>  <MODEL>
2

>  <REMARK>
 VINA RESULT:      -7.3      3.697      8.131
  Name = 
  11 active torsions:
  status: ('A' for Active; 'I' for Inactive)
    1  A    between atoms: N_1  and  C_42
    2  A    between atoms: O_2  and  C_18
    3  A    between atoms: C_10  and  C_31
    4  A    between atoms: N_11  and  C_14
    5  A    between atoms: C_14  and  C_44
    6  A    between atoms: O_17  and  C_49
    7  A    between atoms: O_17  and  N_50
    8  A    between atoms: C_24  and  N_40
    9  A    between atoms: C_25  and  C_44
   10  A    between atoms: C_44  and  C_49
   11  A    between atoms: C_46  and  N_50
                            x       y       z     vdW  Elec       q    Type
                         _______ _______ _______ _____ _____    ______ ____

>  <TORSDO>
F 11

$$$$
=
 OpenBabel11062419213D

 50 54  0  0  1  0  0  0  0  0999 V2000
  195.2260  174.8670  138.3170 C   0  0  0  0  0  0  0  0  0  0  0  0
  196.4060  175.2030  138.1050 N   0  0  0  0  0  0  0  0  0  0  0  0
  197.0970  174.5990  140.4480 C   0  0  1  0  0  3  0  0  0  0  0  0
  194.2870  174.7460  137.2810 N   0  0  0  0  0  1  0  0  0  0  0  0
  194.7940  174.3800  139.6200 N   0  0  0  0  0  0  0  0  0  0  0  0
  195.5630  174.1910  140.6230 C   0  0  0  0  0  0  0  0  0  0  0  0
  197.3920  175.3970  139.1700 C   0  0  0  0  0  2  0  0  0  0  0  0
  195.0570  173.5170  141.8370 N   0  0  0  0  0  0  0  0  0  0  0  0
  192.2140  175.2310  145.5450 N   0  0  0  0  0  2  0  0  0  0  0  0
  193.5630  176.8070  146.6280 O   0  0  0  0  0  0  0  0  0  0  0  0
  194.6420  175.3760  145.0530 N   0  0  0  0  0  0  0  0  0  0  0  0
  195.5850  173.0520  145.2880 C   0  0  0  0  0  2  0  0  0  0  0  0
  193.4510  175.8200  145.7700 C   0  0  0  0  0  0  0  0  0  0  0  0
  195.5380  174.5050  145.8340 C   0  0  0  0  0  2  0  0  0  0  0  0
  194.9520  172.8350  144.0680 O   0  0  0  0  0  0  0  0  0  0  0  0
  195.3220  173.9510  143.2100 C   0  0  2  0  0  3  0  0  0  0  0  0
  194.5930  175.1920  143.6010 C   0  0  0  0  0  2  0  0  0  0  0  0
  190.1200  174.8010  146.7620 C   0  0  0  0  0  3  0  0  0  0  0  0
  188.7950  175.0960  147.1490 C   0  0  0  0  0  3  0  0  0  0  0  0
  186.5830  176.7650  147.1360 Cl  0  0  0  0  0  0  0  0  0  0  0  0
  188.9600  177.1450  145.9450 C   0  0  0  0  0  3  0  0  0  0  0  0
  190.8700  177.7440  144.6700 O   0  0  0  0  0  1  0  0  0  0  0  0
  190.2680  176.8630  145.5320 C   0  0  0  0  0  0  0  0  0  0  0  0
  190.8760  175.6570  145.9940 C   0  0  0  0  0  0  0  0  0  0  0  0
  188.2320  176.3000  146.7580 C   0  0  0  0  0  0  0  0  0  0  0  0
  197.6000  175.3620  141.5510 O   0  0  0  0  0  0  0  0  0  0  0  0
  197.0160  176.5160  141.5050 O   0  0  0  0  0  1  0  0  0  0  0  0
  193.7470  173.1100  141.6570 O   0  0  0  0  0  0  0  0  0  0  0  0
  193.1860  170.8610  142.2900 C   0  0  0  0  0  1  0  0  0  0  0  0
  193.6410  171.7870  141.1780 C   0  0  1  0  0  3  0  0  0  0  0  0
  192.5600  171.6180  140.1640 C   0  0  2  0  0  3  0  0  0  0  0  0
  190.3100  171.3830  141.0120 O   0  0  0  0  0  0  0  0  0  0  0  0
  191.1970  172.2030  140.5920 C   0  0  0  0  0  0  0  0  0  0  0  0
  190.9850  173.6590  140.7860 N   0  0  0  0  0  2  0  0  0  0  0  0
  188.8180  174.4710  140.2570 C   0  0  0  0  0  2  0  0  0  0  0  0
  189.7640  174.0920  141.3670 C   0  0  2  0  0  3  0  0  0  0  0  0
  188.4910  175.9330  142.1890 C   0  0  1  0  0  3  0  0  0  0  0  0
  187.8130  175.4110  140.9640 C   0  0  0  0  0  2  0  0  0  0  0  0
  189.8620  175.3810  142.2360 C   0  0  0  0  0  2  0  0  0  0  0  0
  186.9400  177.6690  143.0610 C   0  0  0  0  0  1  0  0  0  0  0  0
  188.1640  177.3550  142.3480 C   0  0  0  0  0  0  0  0  0  0  0  0
  188.8290  178.1760  141.8120 O   0  0  0  0  0  0  0  0  0  0  0  0
  192.4150  170.3890  139.2750 C   0  0  2  0  0  3  0  0  0  0  0  0
  193.6040  169.6370  138.9310 C   0  0  0  0  0  1  0  0  0  0  0  0
  191.7260  170.5820  137.9830 N   0  0  0  0  0  0  0  0  0  0  0  0
  190.4850  169.8180  137.7750 C   0  0  0  0  0  2  0  0  0  0  0  0
  190.5620  170.7170  135.4180 C   0  0  0  0  0  2  0  0  0  0  0  0
  191.9460  171.1740  135.7020 C   0  0  0  0  0  2  0  0  0  0  0  0
  189.7030  170.6130  136.6690 C   0  0  0  0  0  2  0  0  0  0  0  0
  192.5980  170.4140  136.8080 C   0  0  0  0  0  2  0  0  0  0  0  0
  1  5  1  0  0  0  0
  2  1  2  0  0  0  0
  2  7  1  0  0  0  0
  3  6  1  0  0  0  0
  3 26  1  1  0  0  0
  4  1  1  0  0  0  0
  5  6  2  0  0  0  0
  6  8  1  0  0  0  0
  7  3  1  0  0  0  0
  9 13  1  0  0  0  0
  9 24  1  0  0  0  0
 11 13  1  0  0  0  0
 11 14  1  0  0  0  0
 12 14  1  0  0  0  0
 13 10  2  0  0  0  0
 15 12  1  0  0  0  0
 16  8  1  6  0  0  0
 16 17  1  0  0  0  0
 16 15  1  0  0  0  0
 17 11  1  0  0  0  0
 18 19  1  0  0  0  0
 21 25  1  0  0  0  0
 22 23  1  0  0  0  0
 23 21  2  0  0  0  0
 23 24  1  0  0  0  0
 24 18  2  0  0  0  0
 25 20  1  0  0  0  0
 25 19  2  0  0  0  0
 27 26  1  0  0  0  0
 28  8  1  0  0  0  0
 30 28  1  0  0  0  0
 30 29  1  1  0  0  0
 31 33  1  1  0  0  0
 31 30  1  0  0  0  0
 33 34  1  0  0  0  0
 33 32  2  0  0  0  0
 35 38  1  0  0  0  0
 35 36  1  0  0  0  0
 36 34  1  6  0  0  0
 36 39  1  0  0  0  0
 37 39  1  0  0  0  0
 37 41  1  6  0  0  0
 38 37  1  0  0  0  0
 41 40  1  0  0  0  0
 42 41  2  0  0  0  0
 43 44  1  6  0  0  0
 43 31  1  0  0  0  0
 45 43  1  0  0  0  0
 46 45  1  0  0  0  0
 47 48  1  0  0  0  0
 47 49  1  0  0  0  0
 48 50  1  0  0  0  0
 49 46  1  0  0  0  0
 50 45  1  0  0  0  0
M  END
>  <MODEL>
3

>  <REMARK>
 VINA RESULT:      -7.0      3.664      7.844
  Name = 
  11 active torsions:
  status: ('A' for Active; 'I' for Inactive)
    1  A    between atoms: N_1  and  C_42
    2  A    between atoms: O_2  and  C_18
    3  A    between atoms: C_10  and  C_31
    4  A    between atoms: N_11  and  C_14
    5  A    between atoms: C_14  and  C_44
    6  A    between atoms: O_17  and  C_49
    7  A    between atoms: O_17  and  N_50
    8  A    between atoms: C_24  and  N_40
    9  A    between atoms: C_25  and  C_44
   10  A    between atoms: C_44  and  C_49
   11  A    between atoms: C_46  and  N_50
                            x       y       z     vdW  Elec       q    Type
                         _______ _______ _______ _____ _____    ______ ____

>  <TORSDO>
F 11

$$$$
=
 OpenBabel11062419213D

 50 54  0  0  1  0  0  0  0  0999 V2000
  190.2340  175.2570  147.2390 C   0  0  0  0  0  0  0  0  0  0  0  0
  190.6020  176.1890  147.9770 N   0  0  0  0  0  0  0  0  0  0  0  0
  192.6660  176.5920  146.5960 C   0  0  1  0  0  3  0  0  0  0  0  0
  188.9530  174.6900  147.3350 N   0  0  0  0  0  1  0  0  0  0  0  0
  191.0290  174.8290  146.0960 N   0  0  0  0  0  0  0  0  0  0  0  0
  192.1120  175.3860  145.7080 C   0  0  0  0  0  0  0  0  0  0  0  0
  191.9500  176.7590  147.9430 C   0  0  0  0  0  2  0  0  0  0  0  0
  192.7380  174.9920  144.4290 N   0  0  0  0  0  0  0  0  0  0  0  0
  195.4720  173.0870  140.7310 N   0  0  0  0  0  2  0  0  0  0  0  0
  197.2050  171.9510  141.8180 O   0  0  0  0  0  0  0  0  0  0  0  0
  195.8790  173.4150  143.1570 N   0  0  0  0  0  0  0  0  0  0  0  0
  196.0270  175.8980  143.5530 C   0  0  0  0  0  2  0  0  0  0  0  0
  196.2070  172.8010  141.8750 C   0  0  0  0  0  0  0  0  0  0  0  0
  196.7620  174.5310  143.5440 C   0  0  0  0  0  2  0  0  0  0  0  0
  194.6460  175.8540  143.3930 O   0  0  0  0  0  0  0  0  0  0  0  0
  194.1710  174.7630  144.2310 C   0  0  2  0  0  3  0  0  0  0  0  0
  194.4920  173.4400  143.6220 C   0  0  0  0  0  2  0  0  0  0  0  0
  194.7370  171.3030  139.2050 C   0  0  0  0  0  3  0  0  0  0  0  0
  194.7820  170.5660  138.0020 C   0  0  0  0  0  3  0  0  0  0  0  0
  195.7860  170.1480  135.4540 Cl  0  0  0  0  0  0  0  0  0  0  0  0
  196.4130  172.0990  137.1890 C   0  0  0  0  0  3  0  0  0  0  0  0
  197.2930  173.8690  138.5040 O   0  0  0  0  0  1  0  0  0  0  0  0
  196.4000  172.8340  138.3810 C   0  0  0  0  0  0  0  0  0  0  0  0
  195.4970  172.4320  139.4110 C   0  0  0  0  0  0  0  0  0  0  0  0
  195.6080  170.9980  136.9780 C   0  0  0  0  0  0  0  0  0  0  0  0
  194.0680  176.4830  146.8710 O   0  0  0  0  0  0  0  0  0  0  0  0
  194.6300  177.5350  146.3690 O   0  0  0  0  0  1  0  0  0  0  0  0
  191.9600  174.0540  143.7750 O   0  0  0  0  0  0  0  0  0  0  0  0
  191.8170  174.4800  141.4150 C   0  0  0  0  0  1  0  0  0  0  0  0
  191.1470  174.6160  142.7680 C   0  0  1  0  0  3  0  0  0  0  0  0
  189.8700  173.8700  142.5650 C   0  0  2  0  0  3  0  0  0  0  0  0
  187.5390  174.3130  142.1090 O   0  0  0  0  0  0  0  0  0  0  0  0
  188.6050  174.7480  142.6670 C   0  0  0  0  0  0  0  0  0  0  0  0
  188.5150  175.9060  143.5910 N   0  0  0  0  0  2  0  0  0  0  0  0
  187.4370  178.0210  143.5910 C   0  0  0  0  0  2  0  0  0  0  0  0
  187.2540  176.5350  143.7640 C   0  0  2  0  0  3  0  0  0  0  0  0
  185.7350  177.5670  145.2850 C   0  0  1  0  0  3  0  0  0  0  0  0
  186.2120  178.6100  144.3270 C   0  0  0  0  0  2  0  0  0  0  0  0
  186.6310  176.3950  145.1860 C   0  0  0  0  0  2  0  0  0  0  0  0
  186.3560  178.2450  147.5940 C   0  0  0  0  0  1  0  0  0  0  0  0
  185.3530  178.2140  146.5460 C   0  0  0  0  0  0  0  0  0  0  0  0
  184.2390  178.5810  146.7060 O   0  0  0  0  0  0  0  0  0  0  0  0
  189.6330  172.4460  143.0510 C   0  0  2  0  0  3  0  0  0  0  0  0
  189.8770  172.1380  144.4450 C   0  0  0  0  0  1  0  0  0  0  0  0
  190.3330  171.3700  142.3200 N   0  0  0  0  0  0  0  0  0  0  0  0
  191.6610  170.9830  142.8240 C   0  0  0  0  0  2  0  0  0  0  0  0
  191.8000  169.5300  140.7650 C   0  0  0  0  0  2  0  0  0  0  0  0
  190.5980  170.2400  140.2570 C   0  0  0  0  0  2  0  0  0  0  0  0
  191.8890  169.5260  142.2830 C   0  0  0  0  0  2  0  0  0  0  0  0
  190.4150  171.5900  140.8650 C   0  0  0  0  0  2  0  0  0  0  0  0
  1  4  1  0  0  0  0
  1  2  2  0  0  0  0
  3 26  1  1  0  0  0
  3  7  1  0  0  0  0
  5  1  1  0  0  0  0
  6  5  2  0  0  0  0
  6  3  1  0  0  0  0
  7  2  1  0  0  0  0
  8  6  1  0  0  0  0
  9 13  1  0  0  0  0
 10 13  2  0  0  0  0
 11 14  1  0  0  0  0
 11 17  1  0  0  0  0
 13 11  1  0  0  0  0
 14 12  1  0  0  0  0
 15 12  1  0  0  0  0
 15 16  1  0  0  0  0
 16  8  1  6  0  0  0
 17 16  1  0  0  0  0
 18 24  1  0  0  0  0
 19 18  2  0  0  0  0
 20 25  1  0  0  0  0
 21 23  1  0  0  0  0
 23 22  1  0  0  0  0
 23 24  2  0  0  0  0
 24  9  1  0  0  0  0
 25 21  2  0  0  0  0
 25 19  1  0  0  0  0
 27 26  1  0  0  0  0
 28  8  1  0  0  0  0
 30 29  1  6  0  0  0
 30 28  1  0  0  0  0
 31 33  1  1  0  0  0
 31 30  1  0  0  0  0
 31 43  1  0  0  0  0
 32 33  2  0  0  0  0
 33 34  1  0  0  0  0
 35 36  1  0  0  0  0
 35 38  1  0  0  0  0
 36 34  1  1  0  0  0
 36 39  1  0  0  0  0
 37 41  1  1  0  0  0
 38 37  1  0  0  0  0
 39 37  1  0  0  0  0
 41 42  2  0  0  0  0
 41 40  1  0  0  0  0
 43 44  1  1  0  0  0
 45 46  1  0  0  0  0
 45 43  1  0  0  0  0
 47 49  1  0  0  0  0
 48 47  1  0  0  0  0
 48 50  1  0  0  0  0
 49 46  1  0  0  0  0
 50 45  1  0  0  0  0
M  END
>  <MODEL>
4

>  <REMARK>
 VINA RESULT:      -7.0      3.294      6.201
  Name = 
  11 active torsions:
  status: ('A' for Active; 'I' for Inactive)
    1  A    between atoms: N_1  and  C_42
    2  A    between atoms: O_2  and  C_18
    3  A    between atoms: C_10  and  C_31
    4  A    between atoms: N_11  and  C_14
    5  A    between atoms: C_14  and  C_44
    6  A    between atoms: O_17  and  C_49
    7  A    between atoms: O_17  and  N_50
    8  A    between atoms: C_24  and  N_40
    9  A    between atoms: C_25  and  C_44
   10  A    between atoms: C_44  and  C_49
   11  A    between atoms: C_46  and  N_50
                            x       y       z     vdW  Elec       q    Type
                         _______ _______ _______ _____ _____    ______ ____

>  <TORSDO>
F 11

$$$$
=
 OpenBabel11062419213D

 50 54  0  0  1  0  0  0  0  0999 V2000
  194.5820  175.1150  138.3740 C   0  0  0  0  0  0  0  0  0  0  0  0
  195.7860  174.7970  138.3520 N   0  0  0  0  0  0  0  0  0  0  0  0
  195.6850  173.9000  140.7010 C   0  0  1  0  0  3  0  0  0  0  0  0
  193.8940  175.5070  137.2150 N   0  0  0  0  0  1  0  0  0  0  0  0
  193.7590  174.9080  139.5570 N   0  0  0  0  0  0  0  0  0  0  0  0
  194.1520  174.3400  140.6320 C   0  0  0  0  0  0  0  0  0  0  0  0
  196.5460  174.4440  139.5530 C   0  0  0  0  0  2  0  0  0  0  0  0
  193.1860  174.0120  141.7010 N   0  0  0  0  0  0  0  0  0  0  0  0
  190.3490  175.6690  145.4400 N   0  0  0  0  0  2  0  0  0  0  0  0
  191.8230  176.8860  146.7900 O   0  0  0  0  0  0  0  0  0  0  0  0
  192.8030  175.5120  145.1030 N   0  0  0  0  0  0  0  0  0  0  0  0
  193.3910  173.0620  145.0860 C   0  0  0  0  0  2  0  0  0  0  0  0
  191.6370  176.0380  145.8060 C   0  0  0  0  0  0  0  0  0  0  0  0
  193.5090  174.4290  145.8120 C   0  0  0  0  0  2  0  0  0  0  0  0
  192.8240  173.0900  143.8160 O   0  0  0  0  0  0  0  0  0  0  0  0
  193.4080  174.2340  143.1310 C   0  0  2  0  0  3  0  0  0  0  0  0
  192.8340  175.5120  143.6400 C   0  0  0  0  0  2  0  0  0  0  0  0
  188.6280  177.4240  145.3260 C   0  0  0  0  0  3  0  0  0  0  0  0
  187.4490  178.0730  145.7530 C   0  0  0  0  0  3  0  0  0  0  0  0
  185.2190  178.2130  147.3920 Cl  0  0  0  0  0  0  0  0  0  0  0  0
  187.1220  176.3170  147.3300 C   0  0  0  0  0  3  0  0  0  0  0  0
  188.6740  174.5480  147.6360 O   0  0  0  0  0  1  0  0  0  0  0  0
  188.2970  175.6660  146.9360 C   0  0  0  0  0  0  0  0  0  0  0  0
  189.0550  176.2320  145.8670 C   0  0  0  0  0  0  0  0  0  0  0  0
  186.6790  177.4860  146.7440 C   0  0  0  0  0  0  0  0  0  0  0  0
  196.3210  174.2830  141.9260 O   0  0  0  0  0  0  0  0  0  0  0  0
  196.4500  175.5700  141.8940 O   0  0  0  0  0  1  0  0  0  0  0  0
  191.8990  174.3410  141.3110 O   0  0  0  0  0  0  0  0  0  0  0  0
  189.9630  173.2660  142.2420 C   0  0  0  0  0  1  0  0  0  0  0  0
  191.0540  173.2180  141.1910 C   0  0  1  0  0  3  0  0  0  0  0  0
  190.2710  173.2110  139.9210 C   0  0  2  0  0  3  0  0  0  0  0  0
  187.8580  173.1460  139.8140 O   0  0  0  0  0  0  0  0  0  0  0  0
  188.8830  173.8790  140.0330 C   0  0  0  0  0  0  0  0  0  0  0  0
  188.6970  175.2230  140.6330 N   0  0  0  0  0  2  0  0  0  0  0  0
  187.0660  176.7850  139.9030 C   0  0  0  0  0  2  0  0  0  0  0  0
  187.3730  175.6760  140.8750 C   0  0  2  0  0  3  0  0  0  0  0  0
  185.9760  177.2120  142.0480 C   0  0  1  0  0  3  0  0  0  0  0  0
  185.9070  177.5410  140.5930 C   0  0  0  0  0  2  0  0  0  0  0  0
  187.1380  176.3230  142.2730 C   0  0  0  0  0  2  0  0  0  0  0  0
  184.4340  178.4680  143.5390 C   0  0  0  0  0  1  0  0  0  0  0  0
  185.6980  178.4240  142.8280 C   0  0  0  0  0  0  0  0  0  0  0  0
  186.4390  179.3460  142.7680 O   0  0  0  0  0  0  0  0  0  0  0  0
  190.2870  172.0610  138.9200 C   0  0  2  0  0  3  0  0  0  0  0  0
  191.4400  171.1870  138.8860 C   0  0  0  0  0  1  0  0  0  0  0  0
  190.0610  172.4120  137.5030 N   0  0  0  0  0  0  0  0  0  0  0  0
  190.2030  171.3240  136.5220 C   0  0  0  0  0  2  0  0  0  0  0  0
  189.9210  173.1270  134.7790 C   0  0  0  0  0  2  0  0  0  0  0  0
  190.0960  174.1220  135.8680 C   0  0  0  0  0  2  0  0  0  0  0  0
  189.3750  171.7960  135.2730 C   0  0  0  0  0  2  0  0  0  0  0  0
  190.8340  173.5790  137.0440 C   0  0  0  0  0  2  0  0  0  0  0  0
  1  5  1  0  0  0  0
  2  1  2  0  0  0  0
  2  7  1  0  0  0  0
  3 26  1  1  0  0  0
  4  1  1  0  0  0  0
  5  6  2  0  0  0  0
  6  3  1  0  0  0  0
  6  8  1  0  0  0  0
  7  3  1  0  0  0  0
  9 13  1  0  0  0  0
  9 24  1  0  0  0  0
 11 13  1  0  0  0  0
 11 14  1  0  0  0  0
 12 14  1  0  0  0  0
 13 10  2  0  0  0  0
 15 12  1  0  0  0  0
 16  8  1  6  0  0  0
 16 17  1  0  0  0  0
 16 15  1  0  0  0  0
 17 11  1  0  0  0  0
 18 19  2  0  0  0  0
 18 24  1  0  0  0  0
 19 25  1  0  0  0  0
 23 21  1  0  0  0  0
 23 22  1  0  0  0  0
 24 23  2  0  0  0  0
 25 21  2  0  0  0  0
 25 20  1  0  0  0  0
 27 26  1  0  0  0  0
 28  8  1  0  0  0  0
 30 28  1  0  0  0  0
 30 29  1  1  0  0  0
 31 33  1  1  0  0  0
 31 30  1  0  0  0  0
 32 33  2  0  0  0  0
 33 34  1  0  0  0  0
 35 38  1  0  0  0  0
 35 36  1  0  0  0  0
 36 34  1  1  0  0  0
 36 39  1  0  0  0  0
 37 39  1  0  0  0  0
 37 41  1  1  0  0  0
 38 37  1  0  0  0  0
 41 40  1  0  0  0  0
 42 41  2  0  0  0  0
 43 44  1  6  0  0  0
 43 31  1  0  0  0  0
 45 43  1  0  0  0  0
 46 45  1  0  0  0  0
 47 49  1  0  0  0  0
 47 48  1  0  0  0  0
 48 50  1  0  0  0  0
 49 46  1  0  0  0  0
 50 45  1  0  0  0  0
M  END
>  <MODEL>
5

>  <REMARK>
 VINA RESULT:      -6.9      3.885      7.826
  Name = 
  11 active torsions:
  status: ('A' for Active; 'I' for Inactive)
    1  A    between atoms: N_1  and  C_42
    2  A    between atoms: O_2  and  C_18
    3  A    between atoms: C_10  and  C_31
    4  A    between atoms: N_11  and  C_14
    5  A    between atoms: C_14  and  C_44
    6  A    between atoms: O_17  and  C_49
    7  A    between atoms: O_17  and  N_50
    8  A    between atoms: C_24  and  N_40
    9  A    between atoms: C_25  and  C_44
   10  A    between atoms: C_44  and  C_49
   11  A    between atoms: C_46  and  N_50
                            x       y       z     vdW  Elec       q    Type
                         _______ _______ _______ _____ _____    ______ ____

>  <TORSDO>
F 11

$$$$
=
 OpenBabel11062419213D

 50 54  0  0  1  0  0  0  0  0999 V2000
  194.7680  170.3260  144.8170 C   0  0  0  0  0  0  0  0  0  0  0  0
  195.5980  169.6470  144.1840 N   0  0  0  0  0  0  0  0  0  0  0  0
  195.0310  170.8010  142.0210 C   0  0  1  0  0  3  0  0  0  0  0  0
  194.7220  170.3290  146.2200 N   0  0  0  0  0  1  0  0  0  0  0  0
  193.9280  171.3140  144.1560 N   0  0  0  0  0  0  0  0  0  0  0  0
  193.9960  171.6240  142.9170 C   0  0  0  0  0  0  0  0  0  0  0  0
  195.6310  169.5740  142.7220 C   0  0  0  0  0  2  0  0  0  0  0  0
  193.2290  172.7710  142.3890 N   0  0  0  0  0  0  0  0  0  0  0  0
  189.0130  174.9390  140.8760 N   0  0  0  0  0  2  0  0  0  0  0  0
  188.0270  173.3620  139.4570 O   0  0  0  0  0  0  0  0  0  0  0  0
  190.2960  172.9700  140.0810 N   0  0  0  0  0  0  0  0  0  0  0  0
  192.4590  173.8360  139.1210 C   0  0  0  0  0  2  0  0  0  0  0  0
  189.0780  173.7720  140.1270 C   0  0  0  0  0  0  0  0  0  0  0  0
  191.0960  173.1420  138.8540 C   0  0  0  0  0  2  0  0  0  0  0  0
  192.8050  174.0120  140.4570 O   0  0  0  0  0  0  0  0  0  0  0  0
  192.4720  172.7690  141.1350 C   0  0  2  0  0  3  0  0  0  0  0  0
  190.9980  172.6380  141.3210 C   0  0  0  0  0  2  0  0  0  0  0  0
  187.3500  176.6580  140.2980 C   0  0  0  0  0  3  0  0  0  0  0  0
  186.2970  177.5520  140.5890 C   0  0  0  0  0  3  0  0  0  0  0  0
  184.4380  178.6130  142.3480 Cl  0  0  0  0  0  0  0  0  0  0  0  0
  186.2400  176.6740  142.8030 C   0  0  0  0  0  3  0  0  0  0  0  0
  187.7740  175.0410  143.5860 O   0  0  0  0  0  1  0  0  0  0  0  0
  187.2970  175.7930  142.5430 C   0  0  0  0  0  0  0  0  0  0  0  0
  187.8430  175.7670  141.2240 C   0  0  0  0  0  0  0  0  0  0  0  0
  185.7210  177.5270  141.8490 C   0  0  0  0  0  0  0  0  0  0  0  0
  194.4620  170.3490  140.7860 O   0  0  0  0  0  0  0  0  0  0  0  0
  195.0390  171.0180  139.8410 O   0  0  0  0  0  1  0  0  0  0  0  0
  192.5540  173.4160  143.4110 O   0  0  0  0  0  0  0  0  0  0  0  0
  191.9960  175.7530  143.3890 C   0  0  0  0  0  1  0  0  0  0  0  0
  193.0570  174.7070  143.6740 C   0  0  1  0  0  3  0  0  0  0  0  0
  193.3460  174.9370  145.1210 C   0  0  2  0  0  3  0  0  0  0  0  0
  192.1660  175.0010  147.2280 O   0  0  0  0  0  0  0  0  0  0  0  0
  192.0940  175.2370  145.9730 C   0  0  0  0  0  0  0  0  0  0  0  0
  190.9470  176.0190  145.4500 N   0  0  0  0  0  2  0  0  0  0  0  0
  188.9870  175.2550  146.5500 C   0  0  0  0  0  2  0  0  0  0  0  0
  189.9300  176.4150  146.3580 C   0  0  2  0  0  3  0  0  0  0  0  0
  187.7610  177.3680  146.6270 C   0  0  1  0  0  3  0  0  0  0  0  0
  187.6950  175.9380  147.0550 C   0  0  0  0  0  2  0  0  0  0  0  0
  189.0100  177.5710  145.8620 C   0  0  0  0  0  2  0  0  0  0  0  0
  185.3130  176.9460  146.5390 C   0  0  0  0  0  1  0  0  0  0  0  0
  186.4320  177.7930  146.1710 C   0  0  0  0  0  0  0  0  0  0  0  0
  186.3280  178.7240  145.4480 O   0  0  0  0  0  0  0  0  0  0  0  0
  194.5880  175.6540  145.6340 C   0  0  2  0  0  3  0  0  0  0  0  0
  194.4780  177.0470  146.0130 C   0  0  0  0  0  1  0  0  0  0  0  0
  195.7840  175.6120  144.7670 N   0  0  0  0  0  0  0  0  0  0  0  0
  195.7070  176.3530  143.4980 C   0  0  0  0  0  2  0  0  0  0  0  0
  197.9410  175.3010  142.9780 C   0  0  0  0  0  2  0  0  0  0  0  0
  197.7240  174.4080  144.1450 C   0  0  0  0  0  2  0  0  0  0  0  0
  197.2010  176.6250  143.0980 C   0  0  0  0  0  2  0  0  0  0  0  0
  196.2840  174.2520  144.5030 C   0  0  0  0  0  2  0  0  0  0  0  0
  1  4  1  0  0  0  0
  2  1  2  0  0  0  0
  3 26  1  6  0  0  0
  3  7  1  0  0  0  0
  3  6  1  0  0  0  0
  5  1  1  0  0  0  0
  6  5  2  0  0  0  0
  7  2  1  0  0  0  0
  8  6  1  0  0  0  0
  8 28  1  0  0  0  0
  9 24  1  0  0  0  0
 10 13  2  0  0  0  0
 11 13  1  0  0  0  0
 11 17  1  0  0  0  0
 12 15  1  0  0  0  0
 13  9  1  0  0  0  0
 14 12  1  0  0  0  0
 14 11  1  0  0  0  0
 15 16  1  0  0  0  0
 16 17  1  0  0  0  0
 16  8  1  1  0  0  0
 18 19  2  0  0  0  0
 18 24  1  0  0  0  0
 19 25  1  0  0  0  0
 23 21  1  0  0  0  0
 23 22  1  0  0  0  0
 24 23  2  0  0  0  0
 25 20  1  0  0  0  0
 25 21  2  0  0  0  0
 27 26  1  0  0  0  0
 28 30  1  0  0  0  0
 30 29  1  1  0  0  0
 30 31  1  0  0  0  0
 31 43  1  0  0  0  0
 31 33  1  6  0  0  0
 33 32  2  0  0  0  0
 34 33  1  0  0  0  0
 35 38  1  0  0  0  0
 36 34  1  6  0  0  0
 36 35  1  0  0  0  0
 37 41  1  6  0  0  0
 37 38  1  0  0  0  0
 39 36  1  0  0  0  0
 39 37  1  0  0  0  0
 41 40  1  0  0  0  0
 42 41  2  0  0  0  0
 43 44  1  6  0  0  0
 45 43  1  0  0  0  0
 46 45  1  0  0  0  0
 47 49  1  0  0  0  0
 47 48  1  0  0  0  0
 48 50  1  0  0  0  0
 49 46  1  0  0  0  0
 50 45  1  0  0  0  0
M  END
>  <MODEL>
6

>  <REMARK>
 VINA RESULT:      -6.7      3.149      6.906
  Name = 
  11 active torsions:
  status: ('A' for Active; 'I' for Inactive)
    1  A    between atoms: N_1  and  C_42
    2  A    between atoms: O_2  and  C_18
    3  A    between atoms: C_10  and  C_31
    4  A    between atoms: N_11  and  C_14
    5  A    between atoms: C_14  and  C_44
    6  A    between atoms: O_17  and  C_49
    7  A    between atoms: O_17  and  N_50
    8  A    between atoms: C_24  and  N_40
    9  A    between atoms: C_25  and  C_44
   10  A    between atoms: C_44  and  C_49
   11  A    between atoms: C_46  and  N_50
                            x       y       z     vdW  Elec       q    Type
                         _______ _______ _______ _____ _____    ______ ____

>  <TORSDO>
F 11

$$$$
=
 OpenBabel11062419213D

 50 54  0  0  1  0  0  0  0  0999 V2000
  194.7820  175.5030  142.3610 C   0  0  0  0  0  0  0  0  0  0  0  0
  195.6300  176.0920  143.0570 N   0  0  0  0  0  0  0  0  0  0  0  0
  194.1980  175.9170  145.1180 C   0  0  1  0  0  3  0  0  0  0  0  0
  195.0640  175.0530  141.0620 N   0  0  0  0  0  1  0  0  0  0  0  0
  193.5110  175.0630  142.9190 N   0  0  0  0  0  0  0  0  0  0  0  0
  193.1730  175.1710  144.1470 C   0  0  0  0  0  0  0  0  0  0  0  0
  195.3480  176.6270  144.3900 C   0  0  0  0  0  2  0  0  0  0  0  0
  191.9410  174.5230  144.6440 N   0  0  0  0  0  0  0  0  0  0  0  0
  187.5220  176.7170  143.9930 N   0  0  0  0  0  2  0  0  0  0  0  0
  187.4920  178.4400  145.5760 O   0  0  0  0  0  0  0  0  0  0  0  0
  189.2210  176.8110  145.7990 N   0  0  0  0  0  0  0  0  0  0  0  0
  189.2450  174.5500  146.9090 C   0  0  0  0  0  2  0  0  0  0  0  0
  188.0450  177.3420  145.1180 C   0  0  0  0  0  0  0  0  0  0  0  0
  188.9270  176.0640  147.0360 C   0  0  0  0  0  2  0  0  0  0  0  0
  189.9220  174.1590  145.7580 O   0  0  0  0  0  0  0  0  0  0  0  0
  190.9690  175.1470  145.5430 C   0  0  2  0  0  3  0  0  0  0  0  0
  190.4010  176.4250  145.0240 C   0  0  0  0  0  2  0  0  0  0  0  0
  185.2540  177.5490  143.5270 C   0  0  0  0  0  3  0  0  0  0  0  0
  184.1890  177.9210  142.6780 C   0  0  0  0  0  3  0  0  0  0  0  0
  183.1460  178.3440  140.1460 Cl  0  0  0  0  0  0  0  0  0  0  0  0
  185.6200  177.5390  140.8120 C   0  0  0  0  0  3  0  0  0  0  0  0
  187.8300  176.7000  141.0270 O   0  0  0  0  0  1  0  0  0  0  0  0
  186.6840  177.1480  141.6340 C   0  0  0  0  0  0  0  0  0  0  0  0
  186.4940  177.1920  143.0480 C   0  0  0  0  0  0  0  0  0  0  0  0
  184.3970  177.9440  141.3080 C   0  0  0  0  0  0  0  0  0  0  0  0
  193.5630  176.8890  145.9570 O   0  0  0  0  0  0  0  0  0  0  0  0
  194.2220  176.9090  147.0700 O   0  0  0  0  0  1  0  0  0  0  0  0
  191.3350  173.7940  143.6350 O   0  0  0  0  0  0  0  0  0  0  0  0
  190.2460  171.6880  143.2460 C   0  0  0  0  0  1  0  0  0  0  0  0
  191.4610  172.4000  143.8100 C   0  0  1  0  0  3  0  0  0  0  0  0
  192.5730  171.8100  143.0080 C   0  0  2  0  0  3  0  0  0  0  0  0
  192.0280  170.5710  141.0070 O   0  0  0  0  0  0  0  0  0  0  0  0
  192.2830  171.7260  141.4940 C   0  0  0  0  0  0  0  0  0  0  0  0
  192.0280  172.9310  140.6670 N   0  0  0  0  0  2  0  0  0  0  0  0
  192.2840  173.7530  138.4550 C   0  0  0  0  0  2  0  0  0  0  0  0
  191.5780  172.7520  139.3330 C   0  0  2  0  0  3  0  0  0  0  0  0
  190.0020  173.3850  137.6600 C   0  0  1  0  0  3  0  0  0  0  0  0
  191.3530  173.8520  137.2240 C   0  0  0  0  0  2  0  0  0  0  0  0
  190.0660  173.0430  139.0970 C   0  0  0  0  0  2  0  0  0  0  0  0
  187.8170  174.5490  137.8730 C   0  0  0  0  0  1  0  0  0  0  0  0
  188.9800  174.2500  137.0590 C   0  0  0  0  0  0  0  0  0  0  0  0
  189.0770  174.5780  135.9250 O   0  0  0  0  0  0  0  0  0  0  0  0
  193.4600  170.6720  143.4980 C   0  0  2  0  0  3  0  0  0  0  0  0
  192.8810  169.6620  144.3590 C   0  0  0  0  0  1  0  0  0  0  0  0
  194.7100  171.0540  144.1850 N   0  0  0  0  0  0  0  0  0  0  0  0
  195.6220  169.9600  144.5550 C   0  0  0  0  0  2  0  0  0  0  0  0
  196.9540  171.7400  145.7500 C   0  0  0  0  0  2  0  0  0  0  0  0
  195.8000  172.6520  145.5490 C   0  0  0  0  0  2  0  0  0  0  0  0
  197.0300  170.6400  144.7020 C   0  0  0  0  0  2  0  0  0  0  0  0
  194.5090  171.9300  145.3520 C   0  0  0  0  0  2  0  0  0  0  0  0
  1  5  1  0  0  0  0
  1  2  2  0  0  0  0
  2  7  1  0  0  0  0
  3 26  1  6  0  0  0
  4  1  1  0  0  0  0
  5  6  2  0  0  0  0
  6  8  1  0  0  0  0
  6  3  1  0  0  0  0
  7  3  1  0  0  0  0
  9 13  1  0  0  0  0
 11 14  1  0  0  0  0
 12 14  1  0  0  0  0
 13 10  2  0  0  0  0
 13 11  1  0  0  0  0
 15 12  1  0  0  0  0
 16  8  1  6  0  0  0
 16 15  1  0  0  0  0
 17 16  1  0  0  0  0
 17 11  1  0  0  0  0
 19 18  2  0  0  0  0
 20 25  1  0  0  0  0
 21 25  2  0  0  0  0
 21 23  1  0  0  0  0
 22 23  1  0  0  0  0
 23 24  2  0  0  0  0
 24 18  1  0  0  0  0
 24  9  1  0  0  0  0
 25 19  1  0  0  0  0
 26 27  1  0  0  0  0
 28 30  1  0  0  0  0
 28  8  1  0  0  0  0
 30 29  1  6  0  0  0
 31 33  1  6  0  0  0
 31 43  1  0  0  0  0
 31 30  1  0  0  0  0
 32 33  2  0  0  0  0
 34 33  1  0  0  0  0
 35 36  1  0  0  0  0
 36 34  1  1  0  0  0
 37 41  1  1  0  0  0
 37 39  1  0  0  0  0
 38 37  1  0  0  0  0
 38 35  1  0  0  0  0
 39 36  1  0  0  0  0
 41 40  1  0  0  0  0
 42 41  2  0  0  0  0
 43 45  1  0  0  0  0
 43 44  1  1  0  0  0
 45 46  1  0  0  0  0
 45 50  1  0  0  0  0
 46 49  1  0  0  0  0
 48 47  1  0  0  0  0
 49 47  1  0  0  0  0
 50 48  1  0  0  0  0
M  END
>  <MODEL>
7

>  <REMARK>
 VINA RESULT:      -6.7      3.648      8.930
  Name = 
  11 active torsions:
  status: ('A' for Active; 'I' for Inactive)
    1  A    between atoms: N_1  and  C_42
    2  A    between atoms: O_2  and  C_18
    3  A    between atoms: C_10  and  C_31
    4  A    between atoms: N_11  and  C_14
    5  A    between atoms: C_14  and  C_44
    6  A    between atoms: O_17  and  C_49
    7  A    between atoms: O_17  and  N_50
    8  A    between atoms: C_24  and  N_40
    9  A    between atoms: C_25  and  C_44
   10  A    between atoms: C_44  and  C_49
   11  A    between atoms: C_46  and  N_50
                            x       y       z     vdW  Elec       q    Type
                         _______ _______ _______ _____ _____    ______ ____

>  <TORSDO>
F 11

$$$$
=
 OpenBabel11062419213D

 50 54  0  0  1  0  0  0  0  0999 V2000
  190.2820  177.5500  142.8220 C   0  0  0  0  0  0  0  0  0  0  0  0
  189.1260  177.8770  142.4920 N   0  0  0  0  0  0  0  0  0  0  0  0
  188.5150  175.5020  141.9310 C   0  0  1  0  0  3  0  0  0  0  0  0
  191.1470  178.4360  143.4830 N   0  0  0  0  0  1  0  0  0  0  0  0
  190.7400  176.1710  142.7310 N   0  0  0  0  0  0  0  0  0  0  0  0
  190.0140  175.1800  142.3780 C   0  0  0  0  0  0  0  0  0  0  0  0
  188.2220  176.9970  141.7490 C   0  0  0  0  0  2  0  0  0  0  0  0
  190.5240  173.7990  142.5000 N   0  0  0  0  0  0  0  0  0  0  0  0
  193.2720  172.3130  138.6250 N   0  0  0  0  0  2  0  0  0  0  0  0
  191.7020  171.6930  137.0050 O   0  0  0  0  0  0  0  0  0  0  0  0
  190.8760  172.0510  139.2150 N   0  0  0  0  0  0  0  0  0  0  0  0
  190.7710  170.5270  141.2190 C   0  0  0  0  0  2  0  0  0  0  0  0
  191.9700  172.0090  138.2500 C   0  0  0  0  0  0  0  0  0  0  0  0
  190.4490  170.7300  139.7140 C   0  0  0  0  0  2  0  0  0  0  0  0
  191.2200  171.6500  141.9070 O   0  0  0  0  0  0  0  0  0  0  0  0
  190.3760  172.7560  141.4820 C   0  0  2  0  0  3  0  0  0  0  0  0
  190.7310  173.2040  140.1050 C   0  0  0  0  0  2  0  0  0  0  0  0
  194.7890  173.8160  137.4040 C   0  0  0  0  0  3  0  0  0  0  0  0
  195.8560  174.1000  136.5230 C   0  0  0  0  0  3  0  0  0  0  0  0
  197.9410  173.2690  134.8990 Cl  0  0  0  0  0  0  0  0  0  0  0  0
  196.2720  171.7600  136.3660 C   0  0  0  0  0  3  0  0  0  0  0  0
  194.9120  170.1300  137.4280 O   0  0  0  0  0  1  0  0  0  0  0  0
  195.2070  171.4540  137.2210 C   0  0  0  0  0  0  0  0  0  0  0  0
  194.4640  172.5350  137.7850 C   0  0  0  0  0  0  0  0  0  0  0  0
  196.6190  173.0530  136.0320 C   0  0  0  0  0  0  0  0  0  0  0  0
  188.1440  174.8450  140.7140 O   0  0  0  0  0  0  0  0  0  0  0  0
  187.7870  175.7700  139.8830 O   0  0  0  0  0  1  0  0  0  0  0  0
  191.7820  173.7940  143.0790 O   0  0  0  0  0  0  0  0  0  0  0  0
  192.5950  172.1430  144.6230 C   0  0  0  0  0  1  0  0  0  0  0  0
  191.7640  173.3970  144.4320 C   0  0  1  0  0  3  0  0  0  0  0  0
  192.4480  174.3690  145.3340 C   0  0  2  0  0  3  0  0  0  0  0  0
  191.9910  176.2870  146.7320 O   0  0  0  0  0  0  0  0  0  0  0  0
  191.4840  175.2830  146.1220 C   0  0  0  0  0  0  0  0  0  0  0  0
  190.0100  175.1970  145.9730 N   0  0  0  0  0  2  0  0  0  0  0  0
  188.0840  175.5250  147.3200 C   0  0  0  0  0  2  0  0  0  0  0  0
  189.2110  176.2000  146.5810 C   0  0  2  0  0  3  0  0  0  0  0  0
  187.3270  177.6460  146.3700 C   0  0  1  0  0  3  0  0  0  0  0  0
  187.0270  176.6480  147.4390 C   0  0  0  0  0  2  0  0  0  0  0  0
  188.4900  177.1650  145.5930 C   0  0  0  0  0  2  0  0  0  0  0  0
  184.8610  177.4060  146.1780 C   0  0  0  0  0  1  0  0  0  0  0  0
  186.0660  178.1050  145.7750 C   0  0  0  0  0  0  0  0  0  0  0  0
  186.0810  178.9320  144.9270 O   0  0  0  0  0  0  0  0  0  0  0  0
  193.7630  175.0600  144.9960 C   0  0  2  0  0  3  0  0  0  0  0  0
  193.8210  175.9050  143.8200 C   0  0  0  0  0  1  0  0  0  0  0  0
  194.9540  174.1960  144.8750 N   0  0  0  0  0  0  0  0  0  0  0  0
  196.0610  174.4620  145.8080 C   0  0  0  0  0  2  0  0  0  0  0  0
  197.3410  172.7510  144.4640 C   0  0  0  0  0  2  0  0  0  0  0  0
  196.2560  172.8230  143.4530 C   0  0  0  0  0  2  0  0  0  0  0  0
  196.8730  173.1180  145.8640 C   0  0  0  0  0  2  0  0  0  0  0  0
  195.4900  174.1020  143.5050 C   0  0  0  0  0  2  0  0  0  0  0  0
  1  4  1  0  0  0  0
  2  1  2  0  0  0  0
  3 26  1  6  0  0  0
  3  6  1  0  0  0  0
  5  1  1  0  0  0  0
  6  8  1  0  0  0  0
  6  5  2  0  0  0  0
  7  3  1  0  0  0  0
  7  2  1  0  0  0  0
  8 28  1  0  0  0  0
 10 13  2  0  0  0  0
 11 14  1  0  0  0  0
 11 17  1  0  0  0  0
 12 15  1  0  0  0  0
 13  9  1  0  0  0  0
 13 11  1  0  0  0  0
 14 12  1  0  0  0  0
 16 15  1  0  0  0  0
 16  8  1  1  0  0  0
 17 16  1  0  0  0  0
 18 24  1  0  0  0  0
 19 18  2  0  0  0  0
 20 25  1  0  0  0  0
 21 23  1  0  0  0  0
 23 22  1  0  0  0  0
 23 24  2  0  0  0  0
 24  9  1  0  0  0  0
 25 21  2  0  0  0  0
 25 19  1  0  0  0  0
 27 26  1  0  0  0  0
 28 30  1  0  0  0  0
 30 29  1  6  0  0  0
 30 31  1  0  0  0  0
 31 33  1  6  0  0  0
 33 32  2  0  0  0  0
 34 33  1  0  0  0  0
 35 38  1  0  0  0  0
 36 34  1  6  0  0  0
 36 35  1  0  0  0  0
 37 41  1  6  0  0  0
 37 38  1  0  0  0  0
 39 37  1  0  0  0  0
 39 36  1  0  0  0  0
 41 40  1  0  0  0  0
 42 41  2  0  0  0  0
 43 44  1  6  0  0  0
 43 31  1  0  0  0  0
 45 43  1  0  0  0  0
 45 46  1  0  0  0  0
 46 49  1  0  0  0  0
 47 49  1  0  0  0  0
 48 50  1  0  0  0  0
 48 47  1  0  0  0  0
 50 45  1  0  0  0  0
M  END
>  <MODEL>
8

>  <REMARK>
 VINA RESULT:      -6.5      3.430      4.795
  Name = 
  11 active torsions:
  status: ('A' for Active; 'I' for Inactive)
    1  A    between atoms: N_1  and  C_42
    2  A    between atoms: O_2  and  C_18
    3  A    between atoms: C_10  and  C_31
    4  A    between atoms: N_11  and  C_14
    5  A    between atoms: C_14  and  C_44
    6  A    between atoms: O_17  and  C_49
    7  A    between atoms: O_17  and  N_50
    8  A    between atoms: C_24  and  N_40
    9  A    between atoms: C_25  and  C_44
   10  A    between atoms: C_44  and  C_49
   11  A    between atoms: C_46  and  N_50
                            x       y       z     vdW  Elec       q    Type
                         _______ _______ _______ _____ _____    ______ ____

>  <TORSDO>
F 11

$$$$
=
 OpenBabel11062419213D

 50 54  0  0  1  0  0  0  0  0999 V2000
  194.8880  176.1580  142.8650 C   0  0  0  0  0  0  0  0  0  0  0  0
  195.6640  176.0410  143.8310 N   0  0  0  0  0  0  0  0  0  0  0  0
  193.7640  175.6070  145.4230 C   0  0  1  0  0  3  0  0  0  0  0  0
  195.3490  176.2020  141.5400 N   0  0  0  0  0  1  0  0  0  0  0  0
  193.4450  176.0500  143.0270 N   0  0  0  0  0  0  0  0  0  0  0  0
  192.8500  175.7710  144.1230 C   0  0  0  0  0  0  0  0  0  0  0  0
  195.2190  176.0540  145.2260 C   0  0  0  0  0  2  0  0  0  0  0  0
  191.3970  175.5010  144.1380 N   0  0  0  0  0  0  0  0  0  0  0  0
  186.7750  177.3310  143.9080 N   0  0  0  0  0  2  0  0  0  0  0  0
  186.7370  179.0170  145.5300 O   0  0  0  0  0  0  0  0  0  0  0  0
  188.6070  177.5340  145.5690 N   0  0  0  0  0  0  0  0  0  0  0  0
  188.9080  175.2640  146.6190 C   0  0  0  0  0  2  0  0  0  0  0  0
  187.3380  177.9770  145.0010 C   0  0  0  0  0  0  0  0  0  0  0  0
  188.4800  176.7450  146.8080 C   0  0  0  0  0  2  0  0  0  0  0  0
  189.5150  174.9510  145.4070 O   0  0  0  0  0  0  0  0  0  0  0  0
  190.4560  176.0270  145.1300 C   0  0  2  0  0  3  0  0  0  0  0  0
  189.7450  177.2610  144.6900 C   0  0  0  0  0  2  0  0  0  0  0  0
  184.4520  178.1040  143.6610 C   0  0  0  0  0  3  0  0  0  0  0  0
  183.2890  178.4100  142.9210 C   0  0  0  0  0  3  0  0  0  0  0  0
  181.9520  178.6660  140.5080 Cl  0  0  0  0  0  0  0  0  0  0  0  0
  184.5020  177.9340  140.9270 C   0  0  0  0  0  3  0  0  0  0  0  0
  186.7380  177.1370  140.9330 O   0  0  0  0  0  1  0  0  0  0  0  0
  185.6610  177.6060  141.6420 C   0  0  0  0  0  0  0  0  0  0  0  0
  185.6350  177.7340  143.0630 C   0  0  0  0  0  0  0  0  0  0  0  0
  183.3370  178.3530  141.5380 C   0  0  0  0  0  0  0  0  0  0  0  0
  193.2520  176.3170  146.5570 O   0  0  0  0  0  0  0  0  0  0  0  0
  194.1400  177.2000  146.8790 O   0  0  0  0  0  1  0  0  0  0  0  0
  190.8830  175.5360  142.8540 O   0  0  0  0  0  0  0  0  0  0  0  0
  189.2570  174.6620  141.3160 C   0  0  0  0  0  1  0  0  0  0  0  0
  190.1170  174.3950  142.5350 C   0  0  1  0  0  3  0  0  0  0  0  0
  190.9500  173.2400  142.0870 C   0  0  2  0  0  3  0  0  0  0  0  0
  191.8830  173.7360  139.9140 O   0  0  0  0  0  0  0  0  0  0  0  0
  191.0060  173.0600  140.5550 C   0  0  0  0  0  0  0  0  0  0  0  0
  190.2870  171.9640  139.8590 N   0  0  0  0  0  2  0  0  0  0  0  0
  189.6160  170.6840  137.9760 C   0  0  0  0  0  2  0  0  0  0  0  0
  190.5490  171.7540  138.4800 C   0  0  2  0  0  3  0  0  0  0  0  0
  191.7790  170.5220  136.8500 C   0  0  1  0  0  3  0  0  0  0  0  0
  190.3360  170.1630  136.7100 C   0  0  0  0  0  2  0  0  0  0  0  0
  191.9690  171.2030  138.1490 C   0  0  0  0  0  2  0  0  0  0  0  0
  191.9150  168.3570  135.6380 C   0  0  0  0  0  1  0  0  0  0  0  0
  192.6000  169.4030  136.3740 C   0  0  0  0  0  0  0  0  0  0  0  0
  193.7400  169.3330  136.6880 O   0  0  0  0  0  0  0  0  0  0  0  0
  191.0350  171.9150  142.8350 C   0  0  2  0  0  3  0  0  0  0  0  0
  190.0440  171.6270  143.8510 C   0  0  0  0  0  1  0  0  0  0  0  0
  192.3210  171.6030  143.4890 N   0  0  0  0  0  0  0  0  0  0  0  0
  193.4980  172.3550  143.0250 C   0  0  0  0  0  2  0  0  0  0  0  0
  194.8250  170.8160  144.5220 C   0  0  0  0  0  2  0  0  0  0  0  0
  193.6000  169.9860  144.6510 C   0  0  0  0  0  2  0  0  0  0  0  0
  194.5240  172.2750  144.2120 C   0  0  0  0  0  2  0  0  0  0  0  0
  192.6470  170.1670  143.5180 C   0  0  0  0  0  2  0  0  0  0  0  0
  1  5  1  0  0  0  0
  1  2  2  0  0  0  0
  2  7  1  0  0  0  0
  3 26  1  1  0  0  0
  4  1  1  0  0  0  0
  5  6  2  0  0  0  0
  6  8  1  0  0  0  0
  6  3  1  0  0  0  0
  7  3  1  0  0  0  0
  9 13  1  0  0  0  0
 11 14  1  0  0  0  0
 12 14  1  0  0  0  0
 13 10  2  0  0  0  0
 13 11  1  0  0  0  0
 15 12  1  0  0  0  0
 16  8  1  6  0  0  0
 16 15  1  0  0  0  0
 17 16  1  0  0  0  0
 17 11  1  0  0  0  0
 19 18  2  0  0  0  0
 20 25  1  0  0  0  0
 21 25  2  0  0  0  0
 21 23  1  0  0  0  0
 22 23  1  0  0  0  0
 23 24  2  0  0  0  0
 24 18  1  0  0  0  0
 24  9  1  0  0  0  0
 25 19  1  0  0  0  0
 26 27  1  0  0  0  0
 28  8  1  0  0  0  0
 30 29  1  6  0  0  0
 30 28  1  0  0  0  0
 31 33  1  6  0  0  0
 31 30  1  0  0  0  0
 31 43  1  0  0  0  0
 32 33  2  0  0  0  0
 34 33  1  0  0  0  0
 35 36  1  0  0  0  0
 36 34  1  1  0  0  0
 37 41  1  1  0  0  0
 37 39  1  0  0  0  0
 38 37  1  0  0  0  0
 38 35  1  0  0  0  0
 39 36  1  0  0  0  0
 40 41  1  0  0  0  0
 41 42  2  0  0  0  0
 43 45  1  0  0  0  0
 43 44  1  1  0  0  0
 45 50  1  0  0  0  0
 46 45  1  0  0  0  0
 46 49  1  0  0  0  0
 47 48  1  0  0  0  0
 49 47  1  0  0  0  0
 50 48  1  0  0  0  0
M  END
>  <MODEL>
9

>  <REMARK>
 VINA RESULT:      -6.5      3.904      9.915
  Name = 
  11 active torsions:
  status: ('A' for Active; 'I' for Inactive)
    1  A    between atoms: N_1  and  C_42
    2  A    between atoms: O_2  and  C_18
    3  A    between atoms: C_10  and  C_31
    4  A    between atoms: N_11  and  C_14
    5  A    between atoms: C_14  and  C_44
    6  A    between atoms: O_17  and  C_49
    7  A    between atoms: O_17  and  N_50
    8  A    between atoms: C_24  and  N_40
    9  A    between atoms: C_25  and  C_44
   10  A    between atoms: C_44  and  C_49
   11  A    between atoms: C_46  and  N_50
                            x       y       z     vdW  Elec       q    Type
                         _______ _______ _______ _____ _____    ______ ____

>  <TORSDO>
F 11

$$$$
