=
 OpenBabel11062419553D

 28 30  0  0  1  0  0  0  0  0999 V2000
  188.1020  173.3320  141.8760 C   0  0  0  0  0  3  0  0  0  0  0  0
  187.6000  174.6340  141.9250 C   0  0  0  0  0  3  0  0  0  0  0  0
  189.4510  173.0960  142.1440 C   0  0  0  0  0  0  0  0  0  0  0  0
  189.7960  175.4720  142.5100 C   0  0  0  0  0  0  0  0  0  0  0  0
  190.2950  174.1610  142.4600 C   0  0  0  0  0  3  0  0  0  0  0  0
  190.0840  171.4650  142.0840 Cl  0  0  0  0  0  0  0  0  0  0  0  0
  188.4400  175.7160  142.2370 C   0  0  0  0  0  0  0  0  0  0  0  0
  187.9700  177.0400  142.3110 O   0  0  0  0  0  0  0  0  0  0  0  0
  184.3540  178.2730  145.3750 N   0  0  0  0  0  1  0  0  0  0  0  0
  186.1650  177.6610  143.8620 C   0  0  0  0  0  3  0  0  0  0  0  0
  183.5820  178.3720  140.6310 N   0  0  0  0  0  1  0  0  0  0  0  0
  184.4770  178.1270  141.7120 C   0  0  0  0  0  0  0  0  0  0  0  0
  186.6550  177.4740  142.5620 C   0  0  0  0  0  0  0  0  0  0  0  0
  185.7970  177.7050  141.4730 C   0  0  0  0  0  0  0  0  0  0  0  0
  184.0410  178.3020  142.9880 N   0  0  0  0  0  0  0  0  0  0  0  0
  184.8500  178.0800  144.0570 C   0  0  0  0  0  0  0  0  0  0  0  0
  186.6500  177.3490  139.0420 N   0  0  0  0  0  0  0  0  0  0  0  0
  186.2710  177.5080  140.1240 C   0  0  0  0  0  0  0  0  0  0  0  0
  190.6530  176.5690  142.8420 N   0  0  0  0  0  2  0  0  0  0  0  0
  190.8960  177.0260  144.2120 C   0  0  1  0  0  3  0  0  0  0  0  0
  190.4360  178.3360  144.3680 O   0  0  0  0  0  1  0  0  0  0  0  0
  190.5400  175.1600  147.4900 C   0  0  0  0  0  2  0  0  0  0  0  0
  191.2160  175.7620  146.2470 C   0  0  0  0  0  2  0  0  0  0  0  0
  188.2840  175.9250  146.6610 C   0  0  0  0  0  2  0  0  0  0  0  0
  189.1250  176.8650  145.7900 C   0  0  0  0  0  2  0  0  0  0  0  0
  188.5100  174.2550  148.3480 F   0  0  0  0  0  0  0  0  0  0  0  0
  190.2540  176.1470  145.1960 N   0  0  0  0  0  0  0  0  0  0  0  0
  189.1010  174.7470  147.1990 C   0  0  2  0  0  3  0  0  0  0  0  0
  1  2  2  0  0  0  0
  1  3  1  0  0  0  0
  2  7  1  0  0  0  0
  3  5  2  0  0  0  0
  4 19  1  0  0  0  0
  5  4  1  0  0  0  0
  6  3  1  0  0  0  0
  7  8  1  0  0  0  0
  7  4  2  0  0  0  0
  8 13  1  0  0  0  0
 10 16  1  0  0  0  0
 11 12  1  0  0  0  0
 12 15  1  0  0  0  0
 13 10  2  0  0  0  0
 14 12  2  0  0  0  0
 14 13  1  0  0  0  0
 15 16  2  0  0  0  0
 16  9  1  0  0  0  0
 17 18  3  0  0  0  0
 18 14  1  0  0  0  0
 19 20  1  0  0  0  0
 20 21  1  6  0  0  0
 20 27  1  0  0  0  0
 23 22  1  0  0  0  0
 24 28  1  0  0  0  0
 25 24  1  0  0  0  0
 27 25  1  0  0  0  0
 27 23  1  0  0  0  0
 28 22  1  0  0  0  0
 28 26  1  1  0  0  0
M  END
>  <MODEL>
1

>  <REMARK>
 VINA RESULT:      -7.2      0.000      0.000
  Name = 
  6 active torsions:
  status: ('A' for Active; 'I' for Inactive)
    1  A    between atoms: C_1  and  N_21
    2  A    between atoms: C_1  and  N_27
    3  A    between atoms: O_9  and  C_13
    4  A    between atoms: O_9  and  C_26
    5  A    between atoms: C_16  and  N_27
    6  A    between atoms: C_20  and  C_23
                            x       y       z     vdW  Elec       q    Type
                         _______ _______ _______ _____ _____    ______ ____

>  <TORSDO>
F 6

$$$$
=
 OpenBabel11062419553D

 28 30  0  0  1  0  0  0  0  0999 V2000
  187.8540  174.1170  142.0370 C   0  0  0  0  0  3  0  0  0  0  0  0
  187.3510  175.4100  142.1960 C   0  0  0  0  0  3  0  0  0  0  0  0
  189.1180  173.7960  142.5340 C   0  0  0  0  0  0  0  0  0  0  0  0
  189.3760  176.0690  143.3500 C   0  0  0  0  0  0  0  0  0  0  0  0
  189.8760  174.7680  143.1890 C   0  0  0  0  0  3  0  0  0  0  0  0
  189.7520  172.1770  142.3370 Cl  0  0  0  0  0  0  0  0  0  0  0  0
  188.1060  176.3990  142.8480 C   0  0  0  0  0  0  0  0  0  0  0  0
  187.6290  177.7080  143.0420 O   0  0  0  0  0  0  0  0  0  0  0  0
  185.4780  178.7690  147.3120 N   0  0  0  0  0  1  0  0  0  0  0  0
  186.5630  178.2420  145.1940 C   0  0  0  0  0  3  0  0  0  0  0  0
  182.9380  179.0530  143.2390 N   0  0  0  0  0  1  0  0  0  0  0  0
  184.1800  178.7750  143.8810 C   0  0  0  0  0  0  0  0  0  0  0  0
  186.5140  178.1160  143.7980 C   0  0  0  0  0  0  0  0  0  0  0  0
  185.3040  178.3800  143.1350 C   0  0  0  0  0  0  0  0  0  0  0  0
  184.2700  178.8920  145.2330 N   0  0  0  0  0  0  0  0  0  0  0  0
  185.4260  178.6370  145.8970 C   0  0  0  0  0  0  0  0  0  0  0  0
  185.1520  178.1350  140.5500 N   0  0  0  0  0  0  0  0  0  0  0  0
  185.2200  178.2450  141.7000 C   0  0  0  0  0  0  0  0  0  0  0  0
  190.1430  177.0690  144.0290 N   0  0  0  0  0  2  0  0  0  0  0  0
  190.3040  177.1240  145.4820 C   0  0  1  0  0  3  0  0  0  0  0  0
  189.3540  176.3080  146.1000 O   0  0  0  0  0  1  0  0  0  0  0  0
  193.0870  174.7180  146.3900 C   0  0  0  0  0  2  0  0  0  0  0  0
  191.6680  175.3060  146.3050 C   0  0  0  0  0  2  0  0  0  0  0  0
  194.0180  176.7320  145.1920 C   0  0  0  0  0  2  0  0  0  0  0  0
  192.5600  176.9230  144.7600 C   0  0  0  0  0  2  0  0  0  0  0  0
  195.4080  175.2500  146.4400 F   0  0  0  0  0  0  0  0  0  0  0  0
  191.6550  176.7220  145.8920 N   0  0  0  0  0  0  0  0  0  0  0  0
  194.1470  175.8140  146.4110 C   0  0  2  0  0  3  0  0  0  0  0  0
  1  2  2  0  0  0  0
  1  3  1  0  0  0  0
  2  7  1  0  0  0  0
  3  5  2  0  0  0  0
  4 19  1  0  0  0  0
  5  4  1  0  0  0  0
  6  3  1  0  0  0  0
  7  8  1  0  0  0  0
  7  4  2  0  0  0  0
  8 13  1  0  0  0  0
 10 16  1  0  0  0  0
 11 12  1  0  0  0  0
 12 15  1  0  0  0  0
 13 10  2  0  0  0  0
 14 13  1  0  0  0  0
 14 12  2  0  0  0  0
 15 16  2  0  0  0  0
 16  9  1  0  0  0  0
 17 18  3  0  0  0  0
 18 14  1  0  0  0  0
 19 20  1  0  0  0  0
 20 27  1  0  0  0  0
 20 21  1  1  0  0  0
 22 28  1  0  0  0  0
 23 22  1  0  0  0  0
 24 28  1  0  0  0  0
 25 24  1  0  0  0  0
 25 27  1  0  0  0  0
 27 23  1  0  0  0  0
 28 26  1  6  0  0  0
M  END
>  <MODEL>
2

>  <REMARK>
 VINA RESULT:      -6.9      2.066      2.693
  Name = 
  6 active torsions:
  status: ('A' for Active; 'I' for Inactive)
    1  A    between atoms: C_1  and  N_21
    2  A    between atoms: C_1  and  N_27
    3  A    between atoms: O_9  and  C_13
    4  A    between atoms: O_9  and  C_26
    5  A    between atoms: C_16  and  N_27
    6  A    between atoms: C_20  and  C_23
                            x       y       z     vdW  Elec       q    Type
                         _______ _______ _______ _____ _____    ______ ____

>  <TORSDO>
F 6

$$$$
=
 OpenBabel11062419553D

 28 30  0  0  1  0  0  0  0  0999 V2000
  188.1570  173.4820  142.0140 C   0  0  0  0  0  3  0  0  0  0  0  0
  187.6640  174.7880  141.9890 C   0  0  0  0  0  3  0  0  0  0  0  0
  189.2930  173.1800  142.7670 C   0  0  0  0  0  0  0  0  0  0  0  0
  189.4440  175.5000  143.4710 C   0  0  0  0  0  0  0  0  0  0  0  0
  189.9330  174.1850  143.4930 C   0  0  0  0  0  3  0  0  0  0  0  0
  189.9130  171.5440  142.8010 Cl  0  0  0  0  0  0  0  0  0  0  0  0
  188.3030  175.8090  142.7110 C   0  0  0  0  0  0  0  0  0  0  0  0
  187.8300  177.1340  142.7240 O   0  0  0  0  0  0  0  0  0  0  0  0
  183.5650  178.3290  140.6350 N   0  0  0  0  0  1  0  0  0  0  0  0
  185.6920  177.7260  141.6610 C   0  0  0  0  0  3  0  0  0  0  0  0
  184.0470  178.6660  145.4070 N   0  0  0  0  0  1  0  0  0  0  0  0
  184.6250  178.3390  144.1460 C   0  0  0  0  0  0  0  0  0  0  0  0
  186.4940  177.5710  142.8000 C   0  0  0  0  0  0  0  0  0  0  0  0
  185.9540  177.8890  144.0590 C   0  0  0  0  0  0  0  0  0  0  0  0
  183.8780  178.4700  143.0180 N   0  0  0  0  0  0  0  0  0  0  0  0
  184.3790  178.1760  141.7900 C   0  0  0  0  0  0  0  0  0  0  0  0
  187.4070  177.6390  146.2020 N   0  0  0  0  0  0  0  0  0  0  0  0
  186.7610  177.7510  145.2480 C   0  0  0  0  0  0  0  0  0  0  0  0
  190.0890  176.5340  144.2200 N   0  0  0  0  0  2  0  0  0  0  0  0
  191.2810  177.2490  143.7610 C   0  0  1  0  0  3  0  0  0  0  0  0
  191.0800  178.6280  143.8600 O   0  0  0  0  0  1  0  0  0  0  0  0
  193.2350  175.5110  146.5020 C   0  0  0  0  0  2  0  0  0  0  0  0
  192.0860  176.2720  145.8200 C   0  0  0  0  0  2  0  0  0  0  0  0
  194.5880  175.6010  144.3770 C   0  0  0  0  0  2  0  0  0  0  0  0
  193.2250  175.8810  143.7340 C   0  0  0  0  0  2  0  0  0  0  0  0
  195.5860  175.1290  146.4900 F   0  0  0  0  0  0  0  0  0  0  0  0
  192.4730  176.8590  144.5230 N   0  0  0  0  0  0  0  0  0  0  0  0
  194.5840  175.8640  145.8850 C   0  0  2  0  0  3  0  0  0  0  0  0
  1  3  1  0  0  0  0
  2  1  2  0  0  0  0
  2  7  1  0  0  0  0
  3  6  1  0  0  0  0
  3  5  2  0  0  0  0
  4  5  1  0  0  0  0
  4 19  1  0  0  0  0
  7  8  1  0  0  0  0
  7  4  2  0  0  0  0
  8 13  1  0  0  0  0
  9 16  1  0  0  0  0
 10 16  2  0  0  0  0
 10 13  1  0  0  0  0
 12 11  1  0  0  0  0
 13 14  2  0  0  0  0
 14 12  1  0  0  0  0
 14 18  1  0  0  0  0
 15 12  2  0  0  0  0
 16 15  1  0  0  0  0
 18 17  3  0  0  0  0
 20 21  1  1  0  0  0
 20 19  1  0  0  0  0
 20 27  1  0  0  0  0
 23 22  1  0  0  0  0
 24 28  1  0  0  0  0
 25 24  1  0  0  0  0
 25 27  1  0  0  0  0
 27 23  1  0  0  0  0
 28 26  1  1  0  0  0
 28 22  1  0  0  0  0
M  END
>  <MODEL>
3

>  <REMARK>
 VINA RESULT:      -6.9      2.056      3.407
  Name = 
  6 active torsions:
  status: ('A' for Active; 'I' for Inactive)
    1  A    between atoms: C_1  and  N_21
    2  A    between atoms: C_1  and  N_27
    3  A    between atoms: O_9  and  C_13
    4  A    between atoms: O_9  and  C_26
    5  A    between atoms: C_16  and  N_27
    6  A    between atoms: C_20  and  C_23
                            x       y       z     vdW  Elec       q    Type
                         _______ _______ _______ _____ _____    ______ ____

>  <TORSDO>
F 6

$$$$
=
 OpenBabel11062419553D

 28 30  0  0  1  0  0  0  0  0999 V2000
  185.5290  177.2480  145.2620 C   0  0  0  0  0  3  0  0  0  0  0  0
  186.4620  176.7810  144.3340 C   0  0  0  0  0  3  0  0  0  0  0  0
  185.9620  177.7890  146.4730 C   0  0  0  0  0  0  0  0  0  0  0  0
  188.2700  177.3930  145.8270 C   0  0  0  0  0  0  0  0  0  0  0  0
  187.3260  177.8620  146.7540 C   0  0  0  0  0  3  0  0  0  0  0  0
  184.7950  178.3750  147.6380 Cl  0  0  0  0  0  0  0  0  0  0  0  0
  187.8390  176.8430  144.6080 C   0  0  0  0  0  0  0  0  0  0  0  0
  188.8110  176.3980  143.6940 O   0  0  0  0  0  0  0  0  0  0  0  0
  190.5870  171.8790  144.3300 N   0  0  0  0  0  1  0  0  0  0  0  0
  189.7040  174.1300  144.0300 C   0  0  0  0  0  3  0  0  0  0  0  0
  188.3920  173.0070  140.2040 N   0  0  0  0  0  1  0  0  0  0  0  0
  188.8260  173.4100  141.5000 C   0  0  0  0  0  0  0  0  0  0  0  0
  189.0350  175.0820  143.2470 C   0  0  0  0  0  0  0  0  0  0  0  0
  188.5970  174.7180  141.9620 C   0  0  0  0  0  0  0  0  0  0  0  0
  189.4740  172.5140  142.2920 N   0  0  0  0  0  0  0  0  0  0  0  0
  189.9120  172.8440  143.5350 C   0  0  0  0  0  0  0  0  0  0  0  0
  187.3730  176.4520  140.4600 N   0  0  0  0  0  0  0  0  0  0  0  0
  187.9170  175.6810  141.1290 C   0  0  0  0  0  0  0  0  0  0  0  0
  189.6720  177.4730  146.1030 N   0  0  0  0  0  2  0  0  0  0  0  0
  190.3550  176.6380  147.0930 C   0  0  1  0  0  3  0  0  0  0  0  0
  189.6820  175.4230  147.2400 O   0  0  0  0  0  1  0  0  0  0  0  0
  193.3930  174.5780  146.1560 C   0  0  0  0  0  2  0  0  0  0  0  0
  192.0850  174.9660  146.8660 C   0  0  0  0  0  2  0  0  0  0  0  0
  193.4300  176.7980  144.9610 C   0  0  0  0  0  2  0  0  0  0  0  0
  191.9440  176.8190  145.3340 C   0  0  0  0  0  2  0  0  0  0  0  0
  195.3720  175.4240  145.1350 F   0  0  0  0  0  0  0  0  0  0  0  0
  191.7540  176.3970  146.7230 N   0  0  0  0  0  0  0  0  0  0  0  0
  194.2290  175.8060  145.8110 C   0  0  2  0  0  3  0  0  0  0  0  0
  1  3  1  0  0  0  0
  2  7  1  0  0  0  0
  2  1  2  0  0  0  0
  3  5  2  0  0  0  0
  3  6  1  0  0  0  0
  4 19  1  0  0  0  0
  4  5  1  0  0  0  0
  7  4  2  0  0  0  0
  8  7  1  0  0  0  0
 11 12  1  0  0  0  0
 12 14  2  0  0  0  0
 12 15  1  0  0  0  0
 13  8  1  0  0  0  0
 13 10  2  0  0  0  0
 14 13  1  0  0  0  0
 15 16  2  0  0  0  0
 16 10  1  0  0  0  0
 16  9  1  0  0  0  0
 17 18  3  0  0  0  0
 18 14  1  0  0  0  0
 19 20  1  0  0  0  0
 20 21  1  6  0  0  0
 22 23  1  0  0  0  0
 24 25  1  0  0  0  0
 24 28  1  0  0  0  0
 25 27  1  0  0  0  0
 27 23  1  0  0  0  0
 27 20  1  0  0  0  0
 28 26  1  6  0  0  0
 28 22  1  0  0  0  0
M  END
>  <MODEL>
4

>  <REMARK>
 VINA RESULT:      -6.8      3.388      5.377
  Name = 
  6 active torsions:
  status: ('A' for Active; 'I' for Inactive)
    1  A    between atoms: C_1  and  N_21
    2  A    between atoms: C_1  and  N_27
    3  A    between atoms: O_9  and  C_13
    4  A    between atoms: O_9  and  C_26
    5  A    between atoms: C_16  and  N_27
    6  A    between atoms: C_20  and  C_23
                            x       y       z     vdW  Elec       q    Type
                         _______ _______ _______ _____ _____    ______ ____

>  <TORSDO>
F 6

$$$$
=
 OpenBabel11062419553D

 28 30  0  0  1  0  0  0  0  0999 V2000
  192.8560  174.2540  145.1880 C   0  0  0  0  0  3  0  0  0  0  0  0
  191.5910  173.9870  144.6590 C   0  0  0  0  0  3  0  0  0  0  0  0
  193.0940  175.4600  145.8480 C   0  0  0  0  0  0  0  0  0  0  0  0
  190.7950  176.1350  145.4490 C   0  0  0  0  0  0  0  0  0  0  0  0
  192.0680  176.3970  145.9790 C   0  0  0  0  0  3  0  0  0  0  0  0
  194.6780  175.7980  146.5110 Cl  0  0  0  0  0  0  0  0  0  0  0  0
  190.5510  174.9240  144.7790 C   0  0  0  0  0  0  0  0  0  0  0  0
  189.2600  174.6870  144.2750 O   0  0  0  0  0  0  0  0  0  0  0  0
  187.3190  177.6670  140.9080 N   0  0  0  0  0  1  0  0  0  0  0  0
  188.2900  176.1970  142.5930 C   0  0  0  0  0  3  0  0  0  0  0  0
  188.2700  173.0950  139.7650 N   0  0  0  0  0  1  0  0  0  0  0  0
  188.2890  174.1340  140.7400 C   0  0  0  0  0  0  0  0  0  0  0  0
  188.7820  174.9420  142.9750 C   0  0  0  0  0  0  0  0  0  0  0  0
  188.7750  173.8950  142.0370 C   0  0  0  0  0  0  0  0  0  0  0  0
  187.8240  175.3670  140.4060 N   0  0  0  0  0  0  0  0  0  0  0  0
  187.8150  176.3930  141.2960 C   0  0  0  0  0  0  0  0  0  0  0  0
  189.6590  171.5410  142.7030 N   0  0  0  0  0  0  0  0  0  0  0  0
  189.2650  172.5880  142.4080 C   0  0  0  0  0  0  0  0  0  0  0  0
  189.7340  177.0860  145.5870 N   0  0  0  0  0  2  0  0  0  0  0  0
  188.8910  177.1970  146.7780 C   0  0  1  0  0  3  0  0  0  0  0  0
  189.4850  178.0550  147.7070 O   0  0  0  0  0  1  0  0  0  0  0  0
  185.1990  176.8920  145.9870 C   0  0  0  0  0  2  0  0  0  0  0  0
  186.6980  176.5490  145.9960 C   0  0  0  0  0  2  0  0  0  0  0  0
  185.6490  179.0000  147.2940 C   0  0  0  0  0  2  0  0  0  0  0  0
  186.9640  178.2910  147.6380 C   0  0  0  0  0  2  0  0  0  0  0  0
  183.6130  178.6660  146.0980 F   0  0  0  0  0  0  0  0  0  0  0  0
  187.5440  177.6710  146.4450 N   0  0  0  0  0  0  0  0  0  0  0  0
  184.9690  178.3980  146.0620 C   0  0  2  0  0  3  0  0  0  0  0  0
  1  3  1  0  0  0  0
  2  7  1  0  0  0  0
  2  1  2  0  0  0  0
  3  5  2  0  0  0  0
  3  6  1  0  0  0  0
  4 19  1  0  0  0  0
  4  5  1  0  0  0  0
  7  4  2  0  0  0  0
  8  7  1  0  0  0  0
  9 16  1  0  0  0  0
 10 13  1  0  0  0  0
 11 12  1  0  0  0  0
 12 14  1  0  0  0  0
 13  8  1  0  0  0  0
 14 18  1  0  0  0  0
 14 13  2  0  0  0  0
 15 12  2  0  0  0  0
 15 16  1  0  0  0  0
 16 10  2  0  0  0  0
 18 17  3  0  0  0  0
 19 20  1  0  0  0  0
 20 21  1  1  0  0  0
 22 23  1  0  0  0  0
 22 28  1  0  0  0  0
 23 27  1  0  0  0  0
 24 25  1  0  0  0  0
 27 20  1  0  0  0  0
 27 25  1  0  0  0  0
 28 26  1  1  0  0  0
 28 24  1  0  0  0  0
M  END
>  <MODEL>
5

>  <REMARK>
 VINA RESULT:      -6.8      3.072      5.020
  Name = 
  6 active torsions:
  status: ('A' for Active; 'I' for Inactive)
    1  A    between atoms: C_1  and  N_21
    2  A    between atoms: C_1  and  N_27
    3  A    between atoms: O_9  and  C_13
    4  A    between atoms: O_9  and  C_26
    5  A    between atoms: C_16  and  N_27
    6  A    between atoms: C_20  and  C_23
                            x       y       z     vdW  Elec       q    Type
                         _______ _______ _______ _____ _____    ______ ____

>  <TORSDO>
F 6

$$$$
=
 OpenBabel11062419553D

 28 30  0  0  1  0  0  0  0  0999 V2000
  188.3650  173.1790  141.3410 C   0  0  0  0  0  3  0  0  0  0  0  0
  187.6400  173.9110  142.2830 C   0  0  0  0  0  3  0  0  0  0  0  0
  189.5980  173.6530  140.8890 C   0  0  0  0  0  0  0  0  0  0  0  0
  189.3780  175.5990  142.3260 C   0  0  0  0  0  0  0  0  0  0  0  0
  190.1030  174.8570  141.3800 C   0  0  0  0  0  3  0  0  0  0  0  0
  190.5090  172.7370  139.7080 Cl  0  0  0  0  0  0  0  0  0  0  0  0
  188.1350  175.1280  142.7800 C   0  0  0  0  0  0  0  0  0  0  0  0
  187.4430  175.8880  143.7410 O   0  0  0  0  0  0  0  0  0  0  0  0
  184.4620  178.4000  140.7760 N   0  0  0  0  0  1  0  0  0  0  0  0
  185.9490  177.1400  142.2390 C   0  0  0  0  0  3  0  0  0  0  0  0
  184.0790  178.9390  145.5390 N   0  0  0  0  0  1  0  0  0  0  0  0
  184.7270  178.3140  144.4340 C   0  0  0  0  0  0  0  0  0  0  0  0
  186.3880  176.7950  143.5250 C   0  0  0  0  0  0  0  0  0  0  0  0
  185.7720  177.3960  144.6370 C   0  0  0  0  0  0  0  0  0  0  0  0
  184.3260  178.6170  143.1700 N   0  0  0  0  0  0  0  0  0  0  0  0
  184.9090  178.0550  142.0810 C   0  0  0  0  0  0  0  0  0  0  0  0
  186.5660  176.8070  147.0430 N   0  0  0  0  0  0  0  0  0  0  0  0
  186.2120  177.0700  145.9720 C   0  0  0  0  0  0  0  0  0  0  0  0
  189.8930  176.8310  142.8410 N   0  0  0  0  0  2  0  0  0  0  0  0
  191.1880  176.9530  143.5130 C   0  0  1  0  0  3  0  0  0  0  0  0
  191.5160  178.3010  143.6770 O   0  0  0  0  0  1  0  0  0  0  0  0
  192.5640  175.9100  146.8850 C   0  0  0  0  0  2  0  0  0  0  0  0
  192.5470  176.2630  145.3890 C   0  0  0  0  0  2  0  0  0  0  0  0
  190.0610  176.1980  147.0050 C   0  0  0  0  0  2  0  0  0  0  0  0
  190.2720  176.9850  145.7060 C   0  0  0  0  0  2  0  0  0  0  0  0
  191.2790  175.0220  148.6840 F   0  0  0  0  0  0  0  0  0  0  0  0
  191.1880  176.2740  144.8140 N   0  0  0  0  0  0  0  0  0  0  0  0
  191.2450  175.2820  147.3270 C   0  0  2  0  0  3  0  0  0  0  0  0
  1  2  1  0  0  0  0
  2  7  2  0  0  0  0
  3  1  2  0  0  0  0
  3  5  1  0  0  0  0
  4  7  1  0  0  0  0
  4 19  1  0  0  0  0
  5  4  2  0  0  0  0
  6  3  1  0  0  0  0
  7  8  1  0  0  0  0
  9 16  1  0  0  0  0
 10 13  1  0  0  0  0
 12 14  1  0  0  0  0
 12 11  1  0  0  0  0
 13  8  1  0  0  0  0
 13 14  2  0  0  0  0
 14 18  1  0  0  0  0
 15 12  2  0  0  0  0
 16 10  2  0  0  0  0
 16 15  1  0  0  0  0
 18 17  3  0  0  0  0
 19 20  1  0  0  0  0
 20 21  1  1  0  0  0
 20 27  1  0  0  0  0
 22 28  1  0  0  0  0
 23 22  1  0  0  0  0
 24 28  1  0  0  0  0
 25 24  1  0  0  0  0
 27 23  1  0  0  0  0
 27 25  1  0  0  0  0
 28 26  1  1  0  0  0
M  END
>  <MODEL>
6

>  <REMARK>
 VINA RESULT:      -6.7      1.424      2.784
  Name = 
  6 active torsions:
  status: ('A' for Active; 'I' for Inactive)
    1  A    between atoms: C_1  and  N_21
    2  A    between atoms: C_1  and  N_27
    3  A    between atoms: O_9  and  C_13
    4  A    between atoms: O_9  and  C_26
    5  A    between atoms: C_16  and  N_27
    6  A    between atoms: C_20  and  C_23
                            x       y       z     vdW  Elec       q    Type
                         _______ _______ _______ _____ _____    ______ ____

>  <TORSDO>
F 6

$$$$
=
 OpenBabel11062419553D

 28 30  0  0  1  0  0  0  0  0999 V2000
  184.7430  177.9140  141.1570 C   0  0  0  0  0  3  0  0  0  0  0  0
  186.1130  177.6460  141.1870 C   0  0  0  0  0  3  0  0  0  0  0  0
  184.0890  178.3250  142.3200 C   0  0  0  0  0  0  0  0  0  0  0  0
  186.1830  178.1970  143.5450 C   0  0  0  0  0  0  0  0  0  0  0  0
  184.8060  178.4670  143.5080 C   0  0  0  0  0  3  0  0  0  0  0  0
  182.3720  178.6620  142.2870 Cl  0  0  0  0  0  0  0  0  0  0  0  0
  186.8450  177.7790  142.3780 C   0  0  0  0  0  0  0  0  0  0  0  0
  188.2280  177.5340  142.4460 O   0  0  0  0  0  0  0  0  0  0  0  0
  188.2720  172.6480  142.1050 N   0  0  0  0  0  1  0  0  0  0  0  0
  188.2370  175.0800  142.2650 C   0  0  0  0  0  3  0  0  0  0  0  0
  192.2080  174.9570  143.6200 N   0  0  0  0  0  1  0  0  0  0  0  0
  190.8610  175.0230  143.1600 C   0  0  0  0  0  0  0  0  0  0  0  0
  188.8780  176.2900  142.5650 C   0  0  0  0  0  0  0  0  0  0  0  0
  190.2060  176.2600  143.0250 C   0  0  0  0  0  0  0  0  0  0  0  0
  190.2070  173.8720  142.8530 N   0  0  0  0  0  0  0  0  0  0  0  0
  188.9220  173.8750  142.4130 C   0  0  0  0  0  0  0  0  0  0  0  0
  191.4320  178.4770  143.6150 N   0  0  0  0  0  0  0  0  0  0  0  0
  190.8870  177.4900  143.3530 C   0  0  0  0  0  0  0  0  0  0  0  0
  186.9270  178.3490  144.7580 N   0  0  0  0  0  2  0  0  0  0  0  0
  186.8720  177.4010  145.8710 C   0  0  1  0  0  3  0  0  0  0  0  0
  185.8770  176.4480  145.6390 O   0  0  0  0  0  1  0  0  0  0  0  0
  190.4080  177.0190  147.1750 C   0  0  0  0  0  2  0  0  0  0  0  0
  189.1610  177.6990  146.5870 C   0  0  0  0  0  2  0  0  0  0  0  0
  189.2350  174.7870  147.1420 C   0  0  0  0  0  2  0  0  0  0  0  0
  187.9750  175.6550  147.0480 C   0  0  0  0  0  2  0  0  0  0  0  0
  191.6050  174.9650  147.3340 F   0  0  0  0  0  0  0  0  0  0  0  0
  188.1630  176.7370  146.0810 N   0  0  0  0  0  0  0  0  0  0  0  0
  190.5000  175.5560  146.7510 C   0  0  2  0  0  3  0  0  0  0  0  0
  1  2  2  0  0  0  0
  1  3  1  0  0  0  0
  2  7  1  0  0  0  0
  3  5  2  0  0  0  0
  4 19  1  0  0  0  0
  5  4  1  0  0  0  0
  6  3  1  0  0  0  0
  7  8  1  0  0  0  0
  7  4  2  0  0  0  0
  8 13  1  0  0  0  0
  9 16  1  0  0  0  0
 10 16  2  0  0  0  0
 10 13  1  0  0  0  0
 12 11  1  0  0  0  0
 13 14  2  0  0  0  0
 14 12  1  0  0  0  0
 14 18  1  0  0  0  0
 15 12  2  0  0  0  0
 16 15  1  0  0  0  0
 18 17  3  0  0  0  0
 19 20  1  0  0  0  0
 20 21  1  6  0  0  0
 20 27  1  0  0  0  0
 23 22  1  0  0  0  0
 25 24  1  0  0  0  0
 27 23  1  0  0  0  0
 27 25  1  0  0  0  0
 28 24  1  0  0  0  0
 28 22  1  0  0  0  0
 28 26  1  1  0  0  0
M  END
>  <MODEL>
7

>  <REMARK>
 VINA RESULT:      -6.7      2.901      5.394
  Name = 
  6 active torsions:
  status: ('A' for Active; 'I' for Inactive)
    1  A    between atoms: C_1  and  N_21
    2  A    between atoms: C_1  and  N_27
    3  A    between atoms: O_9  and  C_13
    4  A    between atoms: O_9  and  C_26
    5  A    between atoms: C_16  and  N_27
    6  A    between atoms: C_20  and  C_23
                            x       y       z     vdW  Elec       q    Type
                         _______ _______ _______ _____ _____    ______ ____

>  <TORSDO>
F 6

$$$$
=
 OpenBabel11062419553D

 28 30  0  0  1  0  0  0  0  0999 V2000
  185.2200  177.1780  142.9900 C   0  0  0  0  0  3  0  0  0  0  0  0
  186.3430  176.4260  142.6400 C   0  0  0  0  0  3  0  0  0  0  0  0
  185.3030  178.1160  144.0200 C   0  0  0  0  0  0  0  0  0  0  0  0
  187.6410  177.5480  144.3510 C   0  0  0  0  0  0  0  0  0  0  0  0
  186.5090  178.3020  144.6960 C   0  0  0  0  0  3  0  0  0  0  0  0
  183.8970  179.0610  144.4600 Cl  0  0  0  0  0  0  0  0  0  0  0  0
  187.5610  176.5990  143.3180 C   0  0  0  0  0  0  0  0  0  0  0  0
  188.7190  175.8730  142.9860 O   0  0  0  0  0  0  0  0  0  0  0  0
  188.2000  173.9100  138.5300 N   0  0  0  0  0  1  0  0  0  0  0  0
  188.4580  174.9020  140.7410 C   0  0  0  0  0  3  0  0  0  0  0  0
  189.9090  171.2150  142.1260 N   0  0  0  0  0  1  0  0  0  0  0  0
  189.4220  172.4760  141.6770 C   0  0  0  0  0  0  0  0  0  0  0  0
  188.8330  174.7950  142.0880 C   0  0  0  0  0  0  0  0  0  0  0  0
  189.3160  173.5630  142.5630 C   0  0  0  0  0  0  0  0  0  0  0  0
  189.0520  172.6220  140.3770 N   0  0  0  0  0  0  0  0  0  0  0  0
  188.5780  173.8000  139.8960 C   0  0  0  0  0  0  0  0  0  0  0  0
  190.0040  173.3090  145.0580 N   0  0  0  0  0  0  0  0  0  0  0  0
  189.6980  173.4210  143.9470 C   0  0  0  0  0  0  0  0  0  0  0  0
  188.8840  177.7390  145.0340 N   0  0  0  0  0  2  0  0  0  0  0  0
  189.1760  177.1920  146.3600 C   0  0  1  0  0  3  0  0  0  0  0  0
  188.4540  176.0130  146.5610 O   0  0  0  0  0  1  0  0  0  0  0  0
  192.2610  175.2210  147.3360 C   0  0  0  0  0  2  0  0  0  0  0  0
  190.8240  175.7650  147.4040 C   0  0  0  0  0  2  0  0  0  0  0  0
  192.7330  176.6530  145.3150 C   0  0  0  0  0  2  0  0  0  0  0  0
  191.2040  176.7040  145.2190 C   0  0  0  0  0  2  0  0  0  0  0  0
  194.4830  175.6920  146.6190 F   0  0  0  0  0  0  0  0  0  0  0  0
  190.6110  176.9390  146.5360 N   0  0  0  0  0  0  0  0  0  0  0  0
  193.2140  176.2320  146.7060 C   0  0  2  0  0  3  0  0  0  0  0  0
  1  3  1  0  0  0  0
  2  1  2  0  0  0  0
  2  7  1  0  0  0  0
  3  6  1  0  0  0  0
  3  5  2  0  0  0  0
  4  5  1  0  0  0  0
  4 19  1  0  0  0  0
  7  4  2  0  0  0  0
  8  7  1  0  0  0  0
  9 16  1  0  0  0  0
 10 13  1  0  0  0  0
 12 11  1  0  0  0  0
 12 14  1  0  0  0  0
 13 14  2  0  0  0  0
 13  8  1  0  0  0  0
 14 18  1  0  0  0  0
 15 12  2  0  0  0  0
 16 15  1  0  0  0  0
 16 10  2  0  0  0  0
 18 17  3  0  0  0  0
 19 20  1  0  0  0  0
 20 27  1  0  0  0  0
 20 21  1  6  0  0  0
 22 23  1  0  0  0  0
 24 28  1  0  0  0  0
 25 24  1  0  0  0  0
 25 27  1  0  0  0  0
 27 23  1  0  0  0  0
 28 26  1  6  0  0  0
 28 22  1  0  0  0  0
M  END
>  <MODEL>
8

>  <REMARK>
 VINA RESULT:      -6.6      3.330      5.583
  Name = 
  6 active torsions:
  status: ('A' for Active; 'I' for Inactive)
    1  A    between atoms: C_1  and  N_21
    2  A    between atoms: C_1  and  N_27
    3  A    between atoms: O_9  and  C_13
    4  A    between atoms: O_9  and  C_26
    5  A    between atoms: C_16  and  N_27
    6  A    between atoms: C_20  and  C_23
                            x       y       z     vdW  Elec       q    Type
                         _______ _______ _______ _____ _____    ______ ____

>  <TORSDO>
F 6

$$$$
=
 OpenBabel11062419553D

 28 30  0  0  1  0  0  0  0  0999 V2000
  190.1140  176.9220  146.4940 C   0  0  0  0  0  3  0  0  0  0  0  0
  189.2330  177.6330  145.6780 C   0  0  0  0  0  3  0  0  0  0  0  0
  190.7880  175.8090  145.9880 C   0  0  0  0  0  0  0  0  0  0  0  0
  189.6940  176.1200  143.8430 C   0  0  0  0  0  0  0  0  0  0  0  0
  190.5800  175.4110  144.6680 C   0  0  0  0  0  3  0  0  0  0  0  0
  191.8940  174.9160  147.0090 Cl  0  0  0  0  0  0  0  0  0  0  0  0
  189.0100  177.2380  144.3480 C   0  0  0  0  0  0  0  0  0  0  0  0
  188.1420  177.9360  143.4890 O   0  0  0  0  0  0  0  0  0  0  0  0
  184.0930  178.6540  146.1490 N   0  0  0  0  0  1  0  0  0  0  0  0
  186.1180  178.3030  144.8370 C   0  0  0  0  0  3  0  0  0  0  0  0
  183.7280  177.9990  141.4000 N   0  0  0  0  0  1  0  0  0  0  0  0
  184.5590  178.1010  142.5530 C   0  0  0  0  0  0  0  0  0  0  0  0
  186.7470  178.0800  143.6050 C   0  0  0  0  0  0  0  0  0  0  0  0
  185.9550  177.9710  142.4480 C   0  0  0  0  0  0  0  0  0  0  0  0
  183.9870  178.3220  143.7670 N   0  0  0  0  0  0  0  0  0  0  0  0
  184.7300  178.4250  144.8990 C   0  0  0  0  0  0  0  0  0  0  0  0
  187.0710  177.5380  140.1390 N   0  0  0  0  0  0  0  0  0  0  0  0
  186.5740  177.7300  141.1670 C   0  0  0  0  0  0  0  0  0  0  0  0
  189.4820  175.7230  142.4840 N   0  0  0  0  0  2  0  0  0  0  0  0
  188.8270  174.4730  142.0940 C   0  0  1  0  0  3  0  0  0  0  0  0
  187.4460  174.5810  142.2710 O   0  0  0  0  0  1  0  0  0  0  0  0
  190.8050  172.9260  139.2570 C   0  0  0  0  0  2  0  0  0  0  0  0
  190.5260  173.6580  140.5810 C   0  0  0  0  0  2  0  0  0  0  0  0
  188.3320  172.7860  138.7870 C   0  0  0  0  0  2  0  0  0  0  0  0
  188.2140  173.0490  140.2920 C   0  0  0  0  0  2  0  0  0  0  0  0
  189.9630  172.4720  137.0760 F   0  0  0  0  0  0  0  0  0  0  0  0
  189.1290  174.1150  140.7040 N   0  0  0  0  0  0  0  0  0  0  0  0
  189.7040  173.1810  138.2340 C   0  0  2  0  0  3  0  0  0  0  0  0
  2  1  2  0  0  0  0
  3  1  1  0  0  0  0
  3  6  1  0  0  0  0
  4  7  2  0  0  0  0
  4  5  1  0  0  0  0
  5  3  2  0  0  0  0
  7  2  1  0  0  0  0
  8 13  1  0  0  0  0
  8  7  1  0  0  0  0
 10 16  1  0  0  0  0
 11 12  1  0  0  0  0
 12 15  1  0  0  0  0
 13 10  2  0  0  0  0
 14 12  2  0  0  0  0
 14 13  1  0  0  0  0
 15 16  2  0  0  0  0
 16  9  1  0  0  0  0
 17 18  3  0  0  0  0
 18 14  1  0  0  0  0
 19  4  1  0  0  0  0
 20 21  1  6  0  0  0
 20 19  1  0  0  0  0
 22 23  1  0  0  0  0
 23 27  1  0  0  0  0
 24 25  1  0  0  0  0
 25 27  1  0  0  0  0
 27 20  1  0  0  0  0
 28 26  1  6  0  0  0
 28 24  1  0  0  0  0
 28 22  1  0  0  0  0
M  END
>  <MODEL>
9

>  <REMARK>
 VINA RESULT:      -6.5      3.031      4.888
  Name = 
  6 active torsions:
  status: ('A' for Active; 'I' for Inactive)
    1  A    between atoms: C_1  and  N_21
    2  A    between atoms: C_1  and  N_27
    3  A    between atoms: O_9  and  C_13
    4  A    between atoms: O_9  and  C_26
    5  A    between atoms: C_16  and  N_27
    6  A    between atoms: C_20  and  C_23
                            x       y       z     vdW  Elec       q    Type
                         _______ _______ _______ _____ _____    ______ ____

>  <TORSDO>
F 6

$$$$
