=
 OpenBabel11062418503D

 37 40  0  0  1  0  0  0  0  0999 V2000
  191.0450  176.9590  143.0800 C   0  0  0  0  0  2  0  0  0  0  0  0
  193.2370  173.3550  144.0580 C   0  0  1  0  0  3  0  0  0  0  0  0
  193.2020  174.3620  146.2240 O   0  0  0  0  0  0  0  0  0  0  0  0
  191.7740  175.3730  144.6690 N   0  0  0  0  0  0  0  0  0  0  0  0
  192.6100  173.4810  142.6570 C   0  0  2  0  0  3  0  0  0  0  0  0
  191.5800  176.5970  145.4320 C   0  0  1  0  0  3  0  0  0  0  0  0
  193.4900  172.9790  141.6990 O   0  0  0  0  0  1  0  0  0  0  0  0
  191.2460  175.4720  143.3150 C   0  0  2  0  0  0  0  0  0  0  0  0
  190.9860  177.6020  144.4590 C   0  0  0  0  0  2  0  0  0  0  0  0
  192.7250  174.3630  145.0570 C   0  0  0  0  0  0  0  0  0  0  0  0
  192.2530  174.9220  142.3070 C   0  0  0  0  0  2  0  0  0  0  0  0
  189.2000  174.9290  142.1820 O   0  0  0  0  0  0  0  0  0  0  0  0
  189.9210  174.7600  143.2000 C   0  0  0  0  0  0  0  0  0  0  0  0
  189.4880  173.9050  144.2070 O   0  0  0  0  0  1  0  0  0  0  0  0
  193.1350  171.9280  144.6140 C   0  0  1  0  0  3  0  0  0  0  0  0
  192.0110  171.1330  143.9600 C   0  0  0  0  0  1  0  0  0  0  0  0
  194.3490  171.2530  144.4580 O   0  0  0  0  0  0  0  0  0  0  0  0
  194.8710  171.1530  145.7490 C   0  0  0  0  0  2  0  0  0  0  0  0
  196.3680  171.3720  145.7060 C   0  0  0  0  0  2  0  0  0  0  0  0
  196.9920  174.5620  144.7430 C   0  0  0  0  0  2  0  0  0  0  0  0
  196.6700  173.9420  145.9510 N   0  0  0  0  0  0  0  0  0  0  0  0
  196.6560  172.7730  145.2950 C   0  0  0  0  0  0  0  0  0  0  0  0
  196.9750  173.4020  144.0000 N   0  0  0  0  0  2  0  0  0  0  0  0
  190.5800  176.3680  146.5590 C   0  0  0  0  0  2  0  0  0  0  0  0
  189.3470  177.2430  146.4000 C   0  0  0  0  0  2  0  0  0  0  0  0
  188.0880  176.4050  146.2290 C   0  0  0  0  0  2  0  0  0  0  0  0
  186.9220  177.2430  145.7260 C   0  0  1  0  0  3  0  0  0  0  0  0
  186.6820  176.9050  144.2640 C   0  0  0  0  0  2  0  0  0  0  0  0
  186.0680  177.6460  140.8730 C   0  0  0  0  0  2  0  0  0  0  0  0
  184.1410  178.5340  143.7480 O   0  0  0  0  0  0  0  0  0  0  0  0
  187.5080  178.0740  141.9160 S   0  0  0  0  0  0  0  0  0  0  0  0
  184.8650  178.0010  141.5970 N   0  0  0  0  0  2  0  0  0  0  0  0
  185.0900  178.2510  142.9710 C   0  0  0  0  0  0  0  0  0  0  0  0
  186.4930  178.1670  143.4330 C   0  0  1  0  0  3  0  0  0  0  0  0
  185.6650  176.9410  146.5280 C   0  0  0  0  0  2  0  0  0  0  0  0
  185.6520  177.6980  147.6990 O   0  0  0  0  0  0  0  0  0  0  0  0
  185.6120  179.0200  147.2600 C   0  0  0  0  0  1  0  0  0  0  0  0
  1  8  1  0  0  0  0
  1  9  1  0  0  0  0
  2 15  1  1  0  0  0
  2 10  1  0  0  0  0
  4 10  1  0  0  0  0
  4  6  1  0  0  0  0
  5  7  1  6  0  0  0
  5  2  1  0  0  0  0
  6 24  1  1  0  0  0
  8 13  1  6  0  0  0
  8  4  1  0  0  0  0
  9  6  1  0  0  0  0
 10  3  2  0  0  0  0
 11  5  1  0  0  0  0
 11  8  1  0  0  0  0
 12 13  2  0  0  0  0
 13 14  1  0  0  0  0
 15 16  1  6  0  0  0
 17 15  1  0  0  0  0
 17 18  1  0  0  0  0
 19 18  1  0  0  0  0
 20 21  1  0  0  0  0
 22 19  1  0  0  0  0
 22 21  2  0  0  0  0
 23 20  1  0  0  0  0
 23 22  1  0  0  0  0
 25 24  1  0  0  0  0
 26 25  1  0  0  0  0
 27 28  1  6  0  0  0
 27 26  1  0  0  0  0
 27 35  1  0  0  0  0
 29 32  1  0  0  0  0
 29 31  1  0  0  0  0
 31 34  1  0  0  0  0
 32 33  1  0  0  0  0
 33 34  1  0  0  0  0
 33 30  2  0  0  0  0
 34 28  1  1  0  0  0
 35 36  1  0  0  0  0
 37 36  1  0  0  0  0
M  END
>  <MODEL>
1

>  <REMARK>
 VINA RESULT:      -6.1      0.000      0.000
  Name = 
  14 active torsions:
  status: ('A' for Active; 'I' for Inactive)
    1  A    between atoms: O_2  and  C_20
    2  A    between atoms: C_10  and  C_11
    3  A    between atoms: C_10  and  O_13
    4  A    between atoms: O_13  and  C_28
    5  A    between atoms: C_14  and  C_22
    6  A    between atoms: C_16  and  C_35
    7  A    between atoms: C_16  and  C_36
    8  A    between atoms: C_17  and  C_30
    9  A    between atoms: C_18  and  C_21
   10  A    between atoms: C_18  and  C_37
   11  A    between atoms: C_20  and  C_35
   12  A    between atoms: C_21  and  C_35
   13  A    between atoms: C_22  and  C_28
   14  A    between atoms: C_25  and  C_37
                            x       y       z     vdW  Elec       q    Type
                         _______ _______ _______ _____ _____    ______ ____

>  <TORSDO>
F 14

$$$$
=
 OpenBabel11062418503D

 37 40  0  0  1  0  0  0  0  0999 V2000
  189.7060  173.7660  144.1040 C   0  0  0  0  0  2  0  0  0  0  0  0
  193.8250  175.1010  144.1700 C   0  0  1  0  0  3  0  0  0  0  0  0
  193.0440  176.4120  142.3330 O   0  0  0  0  0  0  0  0  0  0  0  0
  191.3450  175.3770  143.5670 N   0  0  0  0  0  0  0  0  0  0  0  0
  193.3180  174.2090  145.3190 C   0  0  2  0  0  3  0  0  0  0  0  0
  190.3110  175.5530  142.5590 C   0  0  1  0  0  3  0  0  0  0  0  0
  194.2960  173.2740  145.6580 O   0  0  0  0  0  1  0  0  0  0  0  0
  190.9260  174.4910  144.6450 C   0  0  2  0  0  0  0  0  0  0  0  0
  189.1820  174.6170  142.9550 C   0  0  0  0  0  2  0  0  0  0  0  0
  192.7280  175.6940  143.3200 C   0  0  0  0  0  0  0  0  0  0  0  0
  192.0260  173.4810  144.9650 C   0  0  0  0  0  2  0  0  0  0  0  0
  190.8070  176.5090  145.9400 O   0  0  0  0  0  0  0  0  0  0  0  0
  190.5410  175.2790  145.8720 C   0  0  0  0  0  0  0  0  0  0  0  0
  189.8830  174.6650  146.9300 O   0  0  0  0  0  1  0  0  0  0  0  0
  194.7910  176.1880  144.6610 C   0  0  1  0  0  3  0  0  0  0  0  0
  194.5750  176.5320  146.1300 C   0  0  0  0  0  1  0  0  0  0  0  0
  196.1160  175.7960  144.4530 O   0  0  0  0  0  0  0  0  0  0  0  0
  196.6210  176.7150  143.5320 C   0  0  0  0  0  2  0  0  0  0  0  0
  197.7710  176.0890  142.7730 C   0  0  0  0  0  2  0  0  0  0  0  0
  196.7180  175.1670  139.6850 C   0  0  0  0  0  2  0  0  0  0  0  0
  197.7930  174.8190  140.5050 N   0  0  0  0  0  0  0  0  0  0  0  0
  197.3080  175.6660  141.4240 C   0  0  0  0  0  0  0  0  0  0  0  0
  196.1730  176.0690  140.5720 N   0  0  0  0  0  2  0  0  0  0  0  0
  189.7840  176.9830  142.5820 C   0  0  0  0  0  2  0  0  0  0  0  0
  188.4360  177.0700  143.2800 C   0  0  0  0  0  2  0  0  0  0  0  0
  187.3280  177.4410  142.3040 C   0  0  0  0  0  2  0  0  0  0  0  0
  186.0030  177.6600  143.0190 C   0  0  1  0  0  3  0  0  0  0  0  0
  186.2910  178.1830  144.4160 C   0  0  0  0  0  2  0  0  0  0  0  0
  186.1740  178.0710  147.9380 C   0  0  0  0  0  2  0  0  0  0  0  0
  183.5530  178.8250  145.6280 O   0  0  0  0  0  0  0  0  0  0  0  0
  186.6170  176.7570  146.7450 S   0  0  0  0  0  0  0  0  0  0  0  0
  184.9310  178.6760  147.5020 N   0  0  0  0  0  2  0  0  0  0  0  0
  184.5850  178.3480  146.1700 C   0  0  0  0  0  0  0  0  0  0  0  0
  185.4930  177.4190  145.4640 C   0  0  1  0  0  3  0  0  0  0  0  0
  185.1520  178.6720  142.2650 C   0  0  0  0  0  2  0  0  0  0  0  0
  183.8650  178.1690  142.0790 O   0  0  0  0  0  0  0  0  0  0  0  0
  183.6680  178.2160  140.7000 C   0  0  0  0  0  1  0  0  0  0  0  0
  1  8  1  0  0  0  0
  2 15  1  1  0  0  0
  2  5  1  0  0  0  0
  3 10  2  0  0  0  0
  4  8  1  0  0  0  0
  5  7  1  6  0  0  0
  6 24  1  1  0  0  0
  6  9  1  0  0  0  0
  6  4  1  0  0  0  0
  8 11  1  0  0  0  0
  8 13  1  1  0  0  0
  9  1  1  0  0  0  0
 10  4  1  0  0  0  0
 10  2  1  0  0  0  0
 11  5  1  0  0  0  0
 13 12  2  0  0  0  0
 13 14  1  0  0  0  0
 15 16  1  1  0  0  0
 17 15  1  0  0  0  0
 18 17  1  0  0  0  0
 19 18  1  0  0  0  0
 20 21  1  0  0  0  0
 20 23  1  0  0  0  0
 21 22  2  0  0  0  0
 22 19  1  0  0  0  0
 23 22  1  0  0  0  0
 24 25  1  0  0  0  0
 26 27  1  0  0  0  0
 26 25  1  0  0  0  0
 27 35  1  6  0  0  0
 27 28  1  0  0  0  0
 30 33  2  0  0  0  0
 31 29  1  0  0  0  0
 32 29  1  0  0  0  0
 33 32  1  0  0  0  0
 34 28  1  6  0  0  0
 34 33  1  0  0  0  0
 34 31  1  0  0  0  0
 36 35  1  0  0  0  0
 37 36  1  0  0  0  0
M  END
>  <MODEL>
2

>  <REMARK>
 VINA RESULT:      -6.0      2.731      4.309
  Name = 
  14 active torsions:
  status: ('A' for Active; 'I' for Inactive)
    1  A    between atoms: O_2  and  C_20
    2  A    between atoms: C_10  and  C_11
    3  A    between atoms: C_10  and  O_13
    4  A    between atoms: O_13  and  C_28
    5  A    between atoms: C_14  and  C_22
    6  A    between atoms: C_16  and  C_35
    7  A    between atoms: C_16  and  C_36
    8  A    between atoms: C_17  and  C_30
    9  A    between atoms: C_18  and  C_21
   10  A    between atoms: C_18  and  C_37
   11  A    between atoms: C_20  and  C_35
   12  A    between atoms: C_21  and  C_35
   13  A    between atoms: C_22  and  C_28
   14  A    between atoms: C_25  and  C_37
                            x       y       z     vdW  Elec       q    Type
                         _______ _______ _______ _____ _____    ______ ____

>  <TORSDO>
F 14

$$$$
=
 OpenBabel11062418503D

 37 40  0  0  1  0  0  0  0  0999 V2000
  193.2500  175.7270  146.7690 C   0  0  0  0  0  2  0  0  0  0  0  0
  191.6850  173.1590  143.6530 C   0  0  1  0  0  3  0  0  0  0  0  0
  189.6240  174.0640  144.4520 O   0  0  0  0  0  0  0  0  0  0  0  0
  191.5310  175.1590  145.2550 N   0  0  0  0  0  0  0  0  0  0  0  0
  193.2100  173.3540  143.7540 C   0  0  2  0  0  3  0  0  0  0  0  0
  190.8520  175.8450  146.3430 C   0  0  1  0  0  3  0  0  0  0  0  0
  193.8570  172.1400  143.5310 O   0  0  0  0  0  1  0  0  0  0  0  0
  192.9810  175.2700  145.3460 C   0  0  2  0  0  0  0  0  0  0  0  0
  191.9490  176.3370  147.2720 C   0  0  0  0  0  2  0  0  0  0  0  0
  190.8810  174.1610  144.4450 C   0  0  0  0  0  0  0  0  0  0  0  0
  193.6370  173.9110  145.1070 C   0  0  0  0  0  2  0  0  0  0  0  0
  194.7080  176.6670  144.4340 O   0  0  0  0  0  1  0  0  0  0  0  0
  193.5040  176.3010  144.3780 C   0  0  0  0  0  0  0  0  0  0  0  0
  192.6710  176.8500  143.4100 O   0  0  0  0  0  0  0  0  0  0  0  0
  191.2030  173.0920  142.1970 C   0  0  1  0  0  3  0  0  0  0  0  0
  191.9190  174.0980  141.3050 C   0  0  0  0  0  1  0  0  0  0  0  0
  191.3660  171.8010  141.6860 O   0  0  0  0  0  0  0  0  0  0  0  0
  191.4480  171.9720  140.3030 C   0  0  0  0  0  2  0  0  0  0  0  0
  190.2970  171.2480  139.6370 C   0  0  0  0  0  2  0  0  0  0  0  0
  188.2740  173.5270  138.1500 C   0  0  0  0  0  2  0  0  0  0  0  0
  189.4470  172.8640  137.7870 N   0  0  0  0  0  0  0  0  0  0  0  0
  189.4060  172.2360  138.9700 C   0  0  0  0  0  0  0  0  0  0  0  0
  188.1780  172.9360  139.3900 N   0  0  0  0  0  2  0  0  0  0  0  0
  190.0890  177.0540  145.8150 C   0  0  0  0  0  2  0  0  0  0  0  0
  188.8940  177.3900  146.6930 C   0  0  0  0  0  2  0  0  0  0  0  0
  187.7230  176.4580  146.4200 C   0  0  0  0  0  2  0  0  0  0  0  0
  186.6070  177.1670  145.6680 C   0  0  1  0  0  3  0  0  0  0  0  0
  186.6640  176.7430  144.2100 C   0  0  0  0  0  2  0  0  0  0  0  0
  187.0270  177.3150  140.7500 C   0  0  0  0  0  2  0  0  0  0  0  0
  185.2690  179.2650  143.1740 O   0  0  0  0  0  0  0  0  0  0  0  0
  188.3080  177.1670  142.0470 S   0  0  0  0  0  0  0  0  0  0  0  0
  186.0160  178.2410  141.2180 N   0  0  0  0  0  2  0  0  0  0  0  0
  186.0990  178.5090  142.6040 C   0  0  0  0  0  0  0  0  0  0  0  0
  187.2110  177.8620  143.3340 C   0  0  1  0  0  3  0  0  0  0  0  0
  185.2510  176.7940  146.2510 C   0  0  0  0  0  2  0  0  0  0  0  0
  184.3820  177.8820  146.1710 O   0  0  0  0  0  0  0  0  0  0  0  0
  184.9800  178.8650  146.9590 C   0  0  0  0  0  1  0  0  0  0  0  0
  1  9  1  0  0  0  0
  2 15  1  6  0  0  0
  2  5  1  0  0  0  0
  2 10  1  0  0  0  0
  4  8  1  0  0  0  0
  4  6  1  0  0  0  0
  5  7  1  1  0  0  0
  5 11  1  0  0  0  0
  6 24  1  6  0  0  0
  6  9  1  0  0  0  0
  8 13  1  6  0  0  0
  8  1  1  0  0  0  0
 10  3  2  0  0  0  0
 10  4  1  0  0  0  0
 11  8  1  0  0  0  0
 13 12  1  0  0  0  0
 14 13  2  0  0  0  0
 15 16  1  6  0  0  0
 17 15  1  0  0  0  0
 18 17  1  0  0  0  0
 19 18  1  0  0  0  0
 20 23  1  0  0  0  0
 21 20  1  0  0  0  0
 21 22  2  0  0  0  0
 22 23  1  0  0  0  0
 22 19  1  0  0  0  0
 24 25  1  0  0  0  0
 26 25  1  0  0  0  0
 27 28  1  6  0  0  0
 27 35  1  0  0  0  0
 27 26  1  0  0  0  0
 29 32  1  0  0  0  0
 29 31  1  0  0  0  0
 31 34  1  0  0  0  0
 32 33  1  0  0  0  0
 33 30  2  0  0  0  0
 33 34  1  0  0  0  0
 34 28  1  1  0  0  0
 36 35  1  0  0  0  0
 36 37  1  0  0  0  0
M  END
>  <MODEL>
3

>  <REMARK>
 VINA RESULT:      -6.0      2.621      4.532
  Name = 
  14 active torsions:
  status: ('A' for Active; 'I' for Inactive)
    1  A    between atoms: O_2  and  C_20
    2  A    between atoms: C_10  and  C_11
    3  A    between atoms: C_10  and  O_13
    4  A    between atoms: O_13  and  C_28
    5  A    between atoms: C_14  and  C_22
    6  A    between atoms: C_16  and  C_35
    7  A    between atoms: C_16  and  C_36
    8  A    between atoms: C_17  and  C_30
    9  A    between atoms: C_18  and  C_21
   10  A    between atoms: C_18  and  C_37
   11  A    between atoms: C_20  and  C_35
   12  A    between atoms: C_21  and  C_35
   13  A    between atoms: C_22  and  C_28
   14  A    between atoms: C_25  and  C_37
                            x       y       z     vdW  Elec       q    Type
                         _______ _______ _______ _____ _____    ______ ____

>  <TORSDO>
F 14

$$$$
=
 OpenBabel11062418503D

 37 40  0  0  1  0  0  0  0  0999 V2000
  190.8860  175.1860  147.2500 C   0  0  0  0  0  2  0  0  0  0  0  0
  189.0800  177.3790  143.9820 C   0  0  1  0  0  3  0  0  0  0  0  0
  191.3180  178.1860  143.7730 O   0  0  0  0  0  0  0  0  0  0  0  0
  191.0880  176.3500  145.2080 N   0  0  0  0  0  0  0  0  0  0  0  0
  188.2480  176.2950  144.6940 C   0  0  2  0  0  3  0  0  0  0  0  0
  192.3810  176.5140  145.8540 C   0  0  1  0  0  3  0  0  0  0  0  0
  186.9370  176.7390  144.8590 O   0  0  0  0  0  1  0  0  0  0  0  0
  190.2450  175.3750  145.8860 C   0  0  2  0  0  0  0  0  0  0  0  0
  192.3240  175.6650  147.1140 C   0  0  0  0  0  2  0  0  0  0  0  0
  190.5580  177.3190  144.2830 C   0  0  0  0  0  0  0  0  0  0  0  0
  188.8270  175.9170  146.0530 C   0  0  0  0  0  2  0  0  0  0  0  0
  190.8590  173.9490  144.0540 O   0  0  0  0  0  0  0  0  0  0  0  0
  190.2400  174.0610  145.1450 C   0  0  0  0  0  0  0  0  0  0  0  0
  189.5650  172.9610  145.6610 O   0  0  0  0  0  1  0  0  0  0  0  0
  188.8270  177.4060  142.4680 C   0  0  1  0  0  3  0  0  0  0  0  0
  188.4590  176.0320  141.9200 C   0  0  0  0  0  1  0  0  0  0  0  0
  187.8240  178.3280  142.1560 O   0  0  0  0  0  0  0  0  0  0  0  0
  186.8860  177.6010  141.4200 C   0  0  0  0  0  2  0  0  0  0  0  0
  185.6130  178.4080  141.2890 C   0  0  0  0  0  2  0  0  0  0  0  0
  184.3610  179.1140  144.3600 C   0  0  0  0  0  2  0  0  0  0  0  0
  184.0280  178.2200  143.3410 N   0  0  0  0  0  0  0  0  0  0  0  0
  185.0660  178.7000  142.6420 C   0  0  0  0  0  0  0  0  0  0  0  0
  185.4300  179.6690  143.6930 N   0  0  0  0  0  2  0  0  0  0  0  0
  193.4930  175.9790  144.9610 C   0  0  0  0  0  2  0  0  0  0  0  0
  194.1520  174.7480  145.5640 C   0  0  0  0  0  2  0  0  0  0  0  0
  195.6280  174.9900  145.8480 C   0  0  0  0  0  2  0  0  0  0  0  0
  196.5120  174.0350  145.0600 C   0  0  1  0  0  3  0  0  0  0  0  0
  196.6990  172.7670  145.8770 C   0  0  0  0  0  2  0  0  0  0  0  0
  197.4100  169.3220  146.1110 C   0  0  0  0  0  2  0  0  0  0  0  0
  194.2360  170.9480  145.8730 O   0  0  0  0  0  0  0  0  0  0  0  0
  197.9360  170.5370  144.8490 S   0  0  0  0  0  0  0  0  0  0  0  0
  195.9810  169.4630  146.3050 N   0  0  0  0  0  2  0  0  0  0  0  0
  195.4550  170.6570  145.7560 C   0  0  0  0  0  0  0  0  0  0  0  0
  196.4120  171.5280  145.0400 C   0  0  1  0  0  3  0  0  0  0  0  0
  195.8650  173.6880  143.7270 C   0  0  0  0  0  2  0  0  0  0  0  0
  196.2560  174.6060  142.7530 O   0  0  0  0  0  0  0  0  0  0  0  0
  197.6400  174.4590  142.6710 C   0  0  0  0  0  1  0  0  0  0  0  0
  2 15  1  6  0  0  0
  2 10  1  0  0  0  0
  2  5  1  0  0  0  0
  3 10  2  0  0  0  0
  4  6  1  0  0  0  0
  4  8  1  0  0  0  0
  5  7  1  1  0  0  0
  5 11  1  0  0  0  0
  6 24  1  6  0  0  0
  6  9  1  0  0  0  0
  8 13  1  6  0  0  0
  8 11  1  0  0  0  0
  8  1  1  0  0  0  0
  9  1  1  0  0  0  0
 10  4  1  0  0  0  0
 12 13  2  0  0  0  0
 13 14  1  0  0  0  0
 15 16  1  1  0  0  0
 17 15  1  0  0  0  0
 18 17  1  0  0  0  0
 19 18  1  0  0  0  0
 19 22  1  0  0  0  0
 21 20  1  0  0  0  0
 22 21  2  0  0  0  0
 22 23  1  0  0  0  0
 23 20  1  0  0  0  0
 24 25  1  0  0  0  0
 25 26  1  0  0  0  0
 27 35  1  6  0  0  0
 27 26  1  0  0  0  0
 27 28  1  0  0  0  0
 29 32  1  0  0  0  0
 31 34  1  0  0  0  0
 31 29  1  0  0  0  0
 33 30  2  0  0  0  0
 33 32  1  0  0  0  0
 34 33  1  0  0  0  0
 34 28  1  1  0  0  0
 36 35  1  0  0  0  0
 37 36  1  0  0  0  0
M  END
>  <MODEL>
4

>  <REMARK>
 VINA RESULT:      -5.9      3.198      9.513
  Name = 
  14 active torsions:
  status: ('A' for Active; 'I' for Inactive)
    1  A    between atoms: O_2  and  C_20
    2  A    between atoms: C_10  and  C_11
    3  A    between atoms: C_10  and  O_13
    4  A    between atoms: O_13  and  C_28
    5  A    between atoms: C_14  and  C_22
    6  A    between atoms: C_16  and  C_35
    7  A    between atoms: C_16  and  C_36
    8  A    between atoms: C_17  and  C_30
    9  A    between atoms: C_18  and  C_21
   10  A    between atoms: C_18  and  C_37
   11  A    between atoms: C_20  and  C_35
   12  A    between atoms: C_21  and  C_35
   13  A    between atoms: C_22  and  C_28
   14  A    between atoms: C_25  and  C_37
                            x       y       z     vdW  Elec       q    Type
                         _______ _______ _______ _____ _____    ______ ____

>  <TORSDO>
F 14

$$$$
=
 OpenBabel11062418503D

 37 40  0  0  1  0  0  0  0  0999 V2000
  192.5530  175.9900  146.8660 C   0  0  0  0  0  2  0  0  0  0  0  0
  192.8180  172.4400  144.4000 C   0  0  1  0  0  3  0  0  0  0  0  0
  190.4460  172.5240  144.6690 O   0  0  0  0  0  0  0  0  0  0  0  0
  191.5620  174.4600  145.3670 N   0  0  0  0  0  0  0  0  0  0  0  0
  194.0900  173.2790  144.6280 C   0  0  2  0  0  3  0  0  0  0  0  0
  190.4490  174.9930  146.1380 C   0  0  1  0  0  3  0  0  0  0  0  0
  195.1830  172.4350  144.8230 O   0  0  0  0  0  1  0  0  0  0  0  0
  192.8010  175.1900  145.5990 C   0  0  2  0  0  0  0  0  0  0  0  0
  191.0410  176.0770  147.0230 C   0  0  0  0  0  2  0  0  0  0  0  0
  191.5390  173.1410  144.7870 C   0  0  0  0  0  0  0  0  0  0  0  0
  193.9610  174.2200  145.8200 C   0  0  0  0  0  2  0  0  0  0  0  0
  194.0350  176.9620  144.5490 O   0  0  0  0  0  1  0  0  0  0  0  0
  193.0930  176.1310  144.4580 C   0  0  0  0  0  0  0  0  0  0  0  0
  192.3360  176.0870  143.2930 O   0  0  0  0  0  0  0  0  0  0  0  0
  192.7330  171.8880  142.9710 C   0  0  1  0  0  3  0  0  0  0  0  0
  192.0080  170.5490  142.9110 C   0  0  0  0  0  1  0  0  0  0  0  0
  192.1060  172.8070  142.1260 O   0  0  0  0  0  0  0  0  0  0  0  0
  192.0580  172.1760  140.8820 C   0  0  0  0  0  2  0  0  0  0  0  0
  190.9750  172.8100  140.0360 C   0  0  0  0  0  2  0  0  0  0  0  0
  188.4600  173.9440  142.0070 C   0  0  0  0  0  2  0  0  0  0  0  0
  188.8050  172.7050  141.4630 N   0  0  0  0  0  0  0  0  0  0  0  0
  189.8760  173.2950  140.9150 C   0  0  0  0  0  0  0  0  0  0  0  0
  189.5270  174.6210  141.4590 N   0  0  0  0  0  2  0  0  0  0  0  0
  189.4220  175.6330  145.2130 C   0  0  0  0  0  2  0  0  0  0  0  0
  189.4760  177.1510  145.2810 C   0  0  0  0  0  2  0  0  0  0  0  0
  189.2140  177.7790  143.9190 C   0  0  0  0  0  2  0  0  0  0  0  0
  187.8080  177.4770  143.4240 C   0  0  1  0  0  3  0  0  0  0  0  0
  186.8260  178.3190  144.2220 C   0  0  0  0  0  2  0  0  0  0  0  0
  184.5670  178.3150  146.9280 C   0  0  0  0  0  2  0  0  0  0  0  0
  183.8860  178.6620  143.4370 O   0  0  0  0  0  0  0  0  0  0  0  0
  185.7490  177.0250  146.3960 S   0  0  0  0  0  0  0  0  0  0  0  0
  183.8180  178.7480  145.7660 N   0  0  0  0  0  2  0  0  0  0  0  0
  184.3940  178.3350  144.5420 C   0  0  0  0  0  0  0  0  0  0  0  0
  185.6110  177.5000  144.6360 C   0  0  1  0  0  3  0  0  0  0  0  0
  187.6800  177.8150  141.9460 C   0  0  0  0  0  2  0  0  0  0  0  0
  186.6260  177.0960  141.3820 O   0  0  0  0  0  0  0  0  0  0  0  0
  186.7820  177.2690  140.0070 C   0  0  0  0  0  1  0  0  0  0  0  0
  1  9  1  0  0  0  0
  2 15  1  6  0  0  0
  2  5  1  0  0  0  0
  2 10  1  0  0  0  0
  3 10  2  0  0  0  0
  4  8  1  0  0  0  0
  4  6  1  0  0  0  0
  5  7  1  1  0  0  0
  5 11  1  0  0  0  0
  6 24  1  6  0  0  0
  6  9  1  0  0  0  0
  8 13  1  6  0  0  0
  8 11  1  0  0  0  0
  8  1  1  0  0  0  0
 10  4  1  0  0  0  0
 13 12  1  0  0  0  0
 14 13  2  0  0  0  0
 15 16  1  1  0  0  0
 17 15  1  0  0  0  0
 18 17  1  0  0  0  0
 19 18  1  0  0  0  0
 19 22  1  0  0  0  0
 21 20  1  0  0  0  0
 22 23  1  0  0  0  0
 22 21  2  0  0  0  0
 23 20  1  0  0  0  0
 24 25  1  0  0  0  0
 26 25  1  0  0  0  0
 27 35  1  6  0  0  0
 27 26  1  0  0  0  0
 27 28  1  0  0  0  0
 30 33  2  0  0  0  0
 31 29  1  0  0  0  0
 32 29  1  0  0  0  0
 33 34  1  0  0  0  0
 33 32  1  0  0  0  0
 34 28  1  1  0  0  0
 34 31  1  0  0  0  0
 36 35  1  0  0  0  0
 37 36  1  0  0  0  0
M  END
>  <MODEL>
5

>  <REMARK>
 VINA RESULT:      -5.9      2.559      4.629
  Name = 
  14 active torsions:
  status: ('A' for Active; 'I' for Inactive)
    1  A    between atoms: O_2  and  C_20
    2  A    between atoms: C_10  and  C_11
    3  A    between atoms: C_10  and  O_13
    4  A    between atoms: O_13  and  C_28
    5  A    between atoms: C_14  and  C_22
    6  A    between atoms: C_16  and  C_35
    7  A    between atoms: C_16  and  C_36
    8  A    between atoms: C_17  and  C_30
    9  A    between atoms: C_18  and  C_21
   10  A    between atoms: C_18  and  C_37
   11  A    between atoms: C_20  and  C_35
   12  A    between atoms: C_21  and  C_35
   13  A    between atoms: C_22  and  C_28
   14  A    between atoms: C_25  and  C_37
                            x       y       z     vdW  Elec       q    Type
                         _______ _______ _______ _____ _____    ______ ____

>  <TORSDO>
F 14

$$$$
=
 OpenBabel11062418503D

 37 40  0  0  1  0  0  0  0  0999 V2000
  191.6150  176.3790  147.5180 C   0  0  0  0  0  2  0  0  0  0  0  0
  189.1890  177.6830  144.1760 C   0  0  1  0  0  3  0  0  0  0  0  0
  191.2790  177.4460  143.0440 O   0  0  0  0  0  0  0  0  0  0  0  0
  191.2400  176.5200  145.1930 N   0  0  0  0  0  0  0  0  0  0  0  0
  188.4930  177.3470  145.5090 C   0  0  2  0  0  3  0  0  0  0  0  0
  192.6850  176.4160  145.3270 C   0  0  1  0  0  3  0  0  0  0  0  0
  187.4870  178.2780  145.7640 O   0  0  0  0  0  1  0  0  0  0  0  0
  190.5440  176.2660  146.4480 C   0  0  2  0  0  0  0  0  0  0  0  0
  192.9480  176.1930  146.8070 C   0  0  0  0  0  2  0  0  0  0  0  0
  190.6130  177.1910  144.0830 C   0  0  0  0  0  0  0  0  0  0  0  0
  189.4650  177.3210  146.6830 C   0  0  0  0  0  2  0  0  0  0  0  0
  189.3160  174.4760  147.4730 O   0  0  0  0  0  1  0  0  0  0  0  0
  189.9570  174.8770  146.4660 C   0  0  0  0  0  0  0  0  0  0  0  0
  190.1060  174.0310  145.3730 O   0  0  0  0  0  0  0  0  0  0  0  0
  188.3690  177.2310  142.9610 C   0  0  1  0  0  3  0  0  0  0  0  0
  187.6030  175.9410  143.2290 C   0  0  0  0  0  1  0  0  0  0  0  0
  187.4830  178.2370  142.5660 O   0  0  0  0  0  0  0  0  0  0  0  0
  186.3560  177.5590  142.1000 C   0  0  0  0  0  2  0  0  0  0  0  0
  185.1580  178.4840  142.1400 C   0  0  0  0  0  2  0  0  0  0  0  0
  184.3100  179.0390  145.3760 C   0  0  0  0  0  2  0  0  0  0  0  0
  184.6100  179.8520  144.2810 N   0  0  0  0  0  0  0  0  0  0  0  0
  184.7710  178.7370  143.5540 C   0  0  0  0  0  0  0  0  0  0  0  0
  184.4790  177.8520  144.6970 N   0  0  0  0  0  2  0  0  0  0  0  0
  193.2040  175.2080  144.5580 C   0  0  0  0  0  2  0  0  0  0  0  0
  194.0140  174.2810  145.4510 C   0  0  0  0  0  2  0  0  0  0  0  0
  193.4310  172.8750  145.4670 C   0  0  0  0  0  2  0  0  0  0  0  0
  193.6290  172.1720  144.1320 C   0  0  1  0  0  3  0  0  0  0  0  0
  194.7650  171.1730  144.2780 C   0  0  0  0  0  2  0  0  0  0  0  0
  196.3570  168.5760  146.0510 C   0  0  0  0  0  2  0  0  0  0  0  0
  197.0310  172.0840  146.1230 O   0  0  0  0  0  0  0  0  0  0  0  0
  194.6010  169.0850  146.0600 S   0  0  0  0  0  0  0  0  0  0  0  0
  197.1720  169.7600  146.2330 N   0  0  0  0  0  2  0  0  0  0  0  0
  196.4590  170.9660  146.0390 C   0  0  0  0  0  0  0  0  0  0  0  0
  195.0160  170.8370  145.7410 C   0  0  1  0  0  3  0  0  0  0  0  0
  192.3590  171.4390  143.7230 C   0  0  0  0  0  2  0  0  0  0  0  0
  191.5440  172.2810  142.9680 O   0  0  0  0  0  0  0  0  0  0  0  0
  190.4150  171.5120  142.6860 C   0  0  0  0  0  1  0  0  0  0  0  0
  2 15  1  6  0  0  0
  2  5  1  0  0  0  0
  3 10  2  0  0  0  0
  4  6  1  0  0  0  0
  4  8  1  0  0  0  0
  5  7  1  1  0  0  0
  5 11  1  0  0  0  0
  6 24  1  6  0  0  0
  6  9  1  0  0  0  0
  8 13  1  6  0  0  0
  8 11  1  0  0  0  0
  8  1  1  0  0  0  0
  9  1  1  0  0  0  0
 10  2  1  0  0  0  0
 10  4  1  0  0  0  0
 13 12  1  0  0  0  0
 14 13  2  0  0  0  0
 15 16  1  1  0  0  0
 17 15  1  0  0  0  0
 18 19  1  0  0  0  0
 18 17  1  0  0  0  0
 19 22  1  0  0  0  0
 21 20  1  0  0  0  0
 22 21  2  0  0  0  0
 22 23  1  0  0  0  0
 23 20  1  0  0  0  0
 24 25  1  0  0  0  0
 25 26  1  0  0  0  0
 27 35  1  1  0  0  0
 27 28  1  0  0  0  0
 27 26  1  0  0  0  0
 29 31  1  0  0  0  0
 29 32  1  0  0  0  0
 33 30  2  0  0  0  0
 33 32  1  0  0  0  0
 34 28  1  6  0  0  0
 34 33  1  0  0  0  0
 34 31  1  0  0  0  0
 36 35  1  0  0  0  0
 37 36  1  0  0  0  0
M  END
>  <MODEL>
6

>  <REMARK>
 VINA RESULT:      -5.8      2.952      9.317
  Name = 
  14 active torsions:
  status: ('A' for Active; 'I' for Inactive)
    1  A    between atoms: O_2  and  C_20
    2  A    between atoms: C_10  and  C_11
    3  A    between atoms: C_10  and  O_13
    4  A    between atoms: O_13  and  C_28
    5  A    between atoms: C_14  and  C_22
    6  A    between atoms: C_16  and  C_35
    7  A    between atoms: C_16  and  C_36
    8  A    between atoms: C_17  and  C_30
    9  A    between atoms: C_18  and  C_21
   10  A    between atoms: C_18  and  C_37
   11  A    between atoms: C_20  and  C_35
   12  A    between atoms: C_21  and  C_35
   13  A    between atoms: C_22  and  C_28
   14  A    between atoms: C_25  and  C_37
                            x       y       z     vdW  Elec       q    Type
                         _______ _______ _______ _____ _____    ______ ____

>  <TORSDO>
F 14

$$$$
=
 OpenBabel11062418503D

 37 40  0  0  1  0  0  0  0  0999 V2000
  190.3770  173.2650  144.8190 C   0  0  0  0  0  2  0  0  0  0  0  0
  194.2010  175.1700  144.1150 C   0  0  1  0  0  3  0  0  0  0  0  0
  193.0090  176.0340  142.2340 O   0  0  0  0  0  0  0  0  0  0  0  0
  191.6570  174.9840  143.8300 N   0  0  0  0  0  0  0  0  0  0  0  0
  193.9830  174.4170  145.4410 C   0  0  2  0  0  3  0  0  0  0  0  0
  190.4990  174.8400  142.9610 C   0  0  1  0  0  3  0  0  0  0  0  0
  195.1330  173.7010  145.7720 O   0  0  0  0  0  1  0  0  0  0  0  0
  191.5160  174.2360  145.0730 C   0  0  2  0  0  0  0  0  0  0  0  0
  189.5920  173.8290  143.6430 C   0  0  0  0  0  2  0  0  0  0  0  0
  192.9310  175.4510  143.3490 C   0  0  0  0  0  0  0  0  0  0  0  0
  192.7960  173.4620  145.3800 C   0  0  0  0  0  2  0  0  0  0  0  0
  191.5820  176.3370  146.2350 O   0  0  0  0  0  0  0  0  0  0  0  0
  191.1510  175.1530  146.2140 C   0  0  0  0  0  0  0  0  0  0  0  0
  190.3300  174.7100  147.2440 O   0  0  0  0  0  1  0  0  0  0  0  0
  195.0260  176.4510  144.3030 C   0  0  1  0  0  3  0  0  0  0  0  0
  194.6830  177.1730  145.6000 C   0  0  0  0  0  1  0  0  0  0  0  0
  196.3930  176.1630  144.2650 O   0  0  0  0  0  0  0  0  0  0  0  0
  196.8630  176.8080  143.1190 C   0  0  0  0  0  2  0  0  0  0  0  0
  197.7660  175.8700  142.3480 C   0  0  0  0  0  2  0  0  0  0  0  0
  196.4620  175.2510  139.2800 C   0  0  0  0  0  2  0  0  0  0  0  0
  195.9430  175.6690  140.5060 N   0  0  0  0  0  0  0  0  0  0  0  0
  197.1870  175.6160  141.0000 C   0  0  0  0  0  0  0  0  0  0  0  0
  197.7620  175.1540  139.7230 N   0  0  0  0  0  2  0  0  0  0  0  0
  189.7510  176.1620  142.8500 C   0  0  0  0  0  2  0  0  0  0  0  0
  188.5140  176.1820  143.7350 C   0  0  0  0  0  2  0  0  0  0  0  0
  188.5790  177.3100  144.7550 C   0  0  0  0  0  2  0  0  0  0  0  0
  187.1950  177.6820  145.2660 C   0  0  1  0  0  3  0  0  0  0  0  0
  186.1740  177.3120  144.2020 C   0  0  0  0  0  2  0  0  0  0  0  0
  184.3510  177.9150  141.2460 C   0  0  0  0  0  2  0  0  0  0  0  0
  183.6840  179.0550  144.5660 O   0  0  0  0  0  0  0  0  0  0  0  0
  186.0930  178.3110  141.6420 S   0  0  0  0  0  0  0  0  0  0  0  0
  183.5230  178.3740  142.3420 N   0  0  0  0  0  2  0  0  0  0  0  0
  184.2590  178.6800  143.5110 C   0  0  0  0  0  0  0  0  0  0  0  0
  185.7290  178.5390  143.4190 C   0  0  1  0  0  3  0  0  0  0  0  0
  186.8820  176.9300  146.5510 C   0  0  0  0  0  2  0  0  0  0  0  0
  186.7880  177.8240  147.6170 O   0  0  0  0  0  0  0  0  0  0  0  0
  185.5470  178.4390  147.4480 C   0  0  0  0  0  1  0  0  0  0  0  0
  1  8  1  0  0  0  0
  2 15  1  1  0  0  0
  2  5  1  0  0  0  0
  3 10  2  0  0  0  0
  4  8  1  0  0  0  0
  5  7  1  6  0  0  0
  6 24  1  1  0  0  0
  6  9  1  0  0  0  0
  6  4  1  0  0  0  0
  8 11  1  0  0  0  0
  8 13  1  1  0  0  0
  9  1  1  0  0  0  0
 10  4  1  0  0  0  0
 10  2  1  0  0  0  0
 11  5  1  0  0  0  0
 13 12  2  0  0  0  0
 13 14  1  0  0  0  0
 15 16  1  1  0  0  0
 17 15  1  0  0  0  0
 18 17  1  0  0  0  0
 19 18  1  0  0  0  0
 20 23  1  0  0  0  0
 20 21  1  0  0  0  0
 21 22  2  0  0  0  0
 22 19  1  0  0  0  0
 23 22  1  0  0  0  0
 24 25  1  0  0  0  0
 25 26  1  0  0  0  0
 26 27  1  0  0  0  0
 27 28  1  6  0  0  0
 27 35  1  0  0  0  0
 29 31  1  0  0  0  0
 29 32  1  0  0  0  0
 31 34  1  0  0  0  0
 32 33  1  0  0  0  0
 33 30  2  0  0  0  0
 34 33  1  0  0  0  0
 34 28  1  1  0  0  0
 35 36  1  0  0  0  0
 37 36  1  0  0  0  0
M  END
>  <MODEL>
7

>  <REMARK>
 VINA RESULT:      -5.8      2.360      3.653
  Name = 
  14 active torsions:
  status: ('A' for Active; 'I' for Inactive)
    1  A    between atoms: O_2  and  C_20
    2  A    between atoms: C_10  and  C_11
    3  A    between atoms: C_10  and  O_13
    4  A    between atoms: O_13  and  C_28
    5  A    between atoms: C_14  and  C_22
    6  A    between atoms: C_16  and  C_35
    7  A    between atoms: C_16  and  C_36
    8  A    between atoms: C_17  and  C_30
    9  A    between atoms: C_18  and  C_21
   10  A    between atoms: C_18  and  C_37
   11  A    between atoms: C_20  and  C_35
   12  A    between atoms: C_21  and  C_35
   13  A    between atoms: C_22  and  C_28
   14  A    between atoms: C_25  and  C_37
                            x       y       z     vdW  Elec       q    Type
                         _______ _______ _______ _____ _____    ______ ____

>  <TORSDO>
F 14

$$$$
=
 OpenBabel11062418503D

 37 40  0  0  1  0  0  0  0  0999 V2000
  191.1320  176.4330  147.2710 C   0  0  0  0  0  2  0  0  0  0  0  0
  189.4050  177.5210  143.4520 C   0  0  1  0  0  3  0  0  0  0  0  0
  191.7160  177.6540  142.8610 O   0  0  0  0  0  0  0  0  0  0  0  0
  191.3090  176.6290  144.9260 N   0  0  0  0  0  0  0  0  0  0  0  0
  188.4710  177.0200  144.5700 C   0  0  2  0  0  3  0  0  0  0  0  0
  192.6770  176.7350  145.4080 C   0  0  1  0  0  3  0  0  0  0  0  0
  187.3010  177.7770  144.5810 O   0  0  0  0  0  1  0  0  0  0  0  0
  190.3810  176.2140  145.9700 C   0  0  2  0  0  0  0  0  0  0  0  0
  192.6090  176.4830  146.9050 C   0  0  0  0  0  2  0  0  0  0  0  0
  190.8690  177.2520  143.7040 C   0  0  0  0  0  0  0  0  0  0  0  0
  189.1250  177.0830  145.9460 C   0  0  0  0  0  2  0  0  0  0  0  0
  189.3000  174.1940  146.6890 O   0  0  0  0  0  1  0  0  0  0  0  0
  190.0320  174.7530  145.8300 C   0  0  0  0  0  0  0  0  0  0  0  0
  190.5010  174.0140  144.7510 O   0  0  0  0  0  0  0  0  0  0  0  0
  188.9810  177.0110  142.0680 C   0  0  1  0  0  3  0  0  0  0  0  0
  188.4230  175.5930  142.1210 C   0  0  0  0  0  1  0  0  0  0  0  0
  188.0410  177.8710  141.4950 O   0  0  0  0  0  0  0  0  0  0  0  0
  186.9630  177.0510  141.1580 C   0  0  0  0  0  2  0  0  0  0  0  0
  185.7960  177.9070  140.7160 C   0  0  0  0  0  2  0  0  0  0  0  0
  183.9090  178.7650  143.3990 C   0  0  0  0  0  2  0  0  0  0  0  0
  183.6930  178.0180  142.2390 N   0  0  0  0  0  0  0  0  0  0  0  0
  184.9650  178.2650  141.8970 C   0  0  0  0  0  0  0  0  0  0  0  0
  185.2170  179.0780  143.1020 N   0  0  0  0  0  2  0  0  0  0  0  0
  193.5480  175.6570  144.7760 C   0  0  0  0  0  2  0  0  0  0  0  0
  194.5480  175.0900  145.7710 C   0  0  0  0  0  2  0  0  0  0  0  0
  194.6820  173.5810  145.6270 C   0  0  0  0  0  2  0  0  0  0  0  0
  196.0180  173.1940  145.0100 C   0  0  1  0  0  3  0  0  0  0  0  0
  196.8970  174.4320  144.9520 C   0  0  0  0  0  2  0  0  0  0  0  0
  195.4950  174.4550  141.7170 C   0  0  0  0  0  2  0  0  0  0  0  0
  197.2220  177.0710  143.4330 O   0  0  0  0  0  0  0  0  0  0  0  0
  196.7910  173.3710  142.4170 S   0  0  0  0  0  0  0  0  0  0  0  0
  195.8380  175.8270  142.0280 N   0  0  0  0  0  2  0  0  0  0  0  0
  196.8390  175.9450  143.0220 C   0  0  0  0  0  0  0  0  0  0  0  0
  197.4040  174.6790  143.5370 C   0  0  1  0  0  3  0  0  0  0  0  0
  196.7030  172.1270  145.8510 C   0  0  0  0  0  2  0  0  0  0  0  0
  196.1640  170.8730  145.5620 O   0  0  0  0  0  0  0  0  0  0  0  0
  197.2670  170.0210  145.5150 C   0  0  0  0  0  1  0  0  0  0  0  0
  2 15  1  6  0  0  0
  2 10  1  0  0  0  0
  2  5  1  0  0  0  0
  3 10  2  0  0  0  0
  4  6  1  0  0  0  0
  4  8  1  0  0  0  0
  5  7  1  1  0  0  0
  5 11  1  0  0  0  0
  6 24  1  6  0  0  0
  6  9  1  0  0  0  0
  8 13  1  6  0  0  0
  8  1  1  0  0  0  0
  9  1  1  0  0  0  0
 10  4  1  0  0  0  0
 11  8  1  0  0  0  0
 13 12  1  0  0  0  0
 14 13  2  0  0  0  0
 15 16  1  1  0  0  0
 17 15  1  0  0  0  0
 18 17  1  0  0  0  0
 19 18  1  0  0  0  0
 19 22  1  0  0  0  0
 21 20  1  0  0  0  0
 22 21  2  0  0  0  0
 22 23  1  0  0  0  0
 23 20  1  0  0  0  0
 24 25  1  0  0  0  0
 26 25  1  0  0  0  0
 27 28  1  1  0  0  0
 27 26  1  0  0  0  0
 27 35  1  0  0  0  0
 29 32  1  0  0  0  0
 29 31  1  0  0  0  0
 31 34  1  0  0  0  0
 32 33  1  0  0  0  0
 33 30  2  0  0  0  0
 33 34  1  0  0  0  0
 34 28  1  1  0  0  0
 36 35  1  0  0  0  0
 37 36  1  0  0  0  0
M  END
>  <MODEL>
8

>  <REMARK>
 VINA RESULT:      -5.8      2.936      9.153
  Name = 
  14 active torsions:
  status: ('A' for Active; 'I' for Inactive)
    1  A    between atoms: O_2  and  C_20
    2  A    between atoms: C_10  and  C_11
    3  A    between atoms: C_10  and  O_13
    4  A    between atoms: O_13  and  C_28
    5  A    between atoms: C_14  and  C_22
    6  A    between atoms: C_16  and  C_35
    7  A    between atoms: C_16  and  C_36
    8  A    between atoms: C_17  and  C_30
    9  A    between atoms: C_18  and  C_21
   10  A    between atoms: C_18  and  C_37
   11  A    between atoms: C_20  and  C_35
   12  A    between atoms: C_21  and  C_35
   13  A    between atoms: C_22  and  C_28
   14  A    between atoms: C_25  and  C_37
                            x       y       z     vdW  Elec       q    Type
                         _______ _______ _______ _____ _____    ______ ____

>  <TORSDO>
F 14

$$$$
=
 OpenBabel11062418503D

 37 40  0  0  1  0  0  0  0  0999 V2000
  192.7230  175.2440  146.6040 C   0  0  0  0  0  2  0  0  0  0  0  0
  192.1380  173.0810  142.8980 C   0  0  1  0  0  3  0  0  0  0  0  0
  190.5160  174.8050  142.5770 O   0  0  0  0  0  0  0  0  0  0  0  0
  191.9790  175.1820  144.3650 N   0  0  0  0  0  0  0  0  0  0  0  0
  193.3190  172.6880  143.8050 C   0  0  2  0  0  3  0  0  0  0  0  0
  191.1700  176.2150  144.9940 C   0  0  1  0  0  3  0  0  0  0  0  0
  193.4470  171.3000  143.8390 O   0  0  0  0  0  1  0  0  0  0  0  0
  193.0760  174.7390  145.2160 C   0  0  2  0  0  0  0  0  0  0  0  0
  191.7160  176.3680  146.4040 C   0  0  0  0  0  2  0  0  0  0  0  0
  191.5120  174.4110  143.2420 C   0  0  0  0  0  0  0  0  0  0  0  0
  193.1610  173.2140  145.2280 C   0  0  0  0  0  2  0  0  0  0  0  0
  194.4660  175.9130  143.6500 O   0  0  0  0  0  0  0  0  0  0  0  0
  194.3810  175.3510  144.7740 C   0  0  0  0  0  0  0  0  0  0  0  0
  195.4970  175.3140  145.6020 O   0  0  0  0  0  1  0  0  0  0  0  0
  192.4990  173.0100  141.4090 C   0  0  1  0  0  3  0  0  0  0  0  0
  193.9490  173.4000  141.1470 C   0  0  0  0  0  1  0  0  0  0  0  0
  192.2520  171.7300  140.9050 O   0  0  0  0  0  0  0  0  0  0  0  0
  190.8640  171.5910  140.9470 C   0  0  0  0  0  2  0  0  0  0  0  0
  190.3400  171.3240  139.5530 C   0  0  0  0  0  2  0  0  0  0  0  0
  188.4610  173.9370  138.4880 C   0  0  0  0  0  2  0  0  0  0  0  0
  188.1920  172.7200  139.1170 N   0  0  0  0  0  0  0  0  0  0  0  0
  189.5090  172.4730  139.1030 C   0  0  0  0  0  0  0  0  0  0  0  0
  189.8220  173.7430  138.4200 N   0  0  0  0  0  2  0  0  0  0  0  0
  191.3420  177.5420  144.2640 C   0  0  0  0  0  2  0  0  0  0  0  0
  190.0450  177.9950  143.6130 C   0  0  0  0  0  2  0  0  0  0  0  0
  188.8320  177.4250  144.3340 C   0  0  0  0  0  2  0  0  0  0  0  0
  187.8110  176.8640  143.3560 C   0  0  1  0  0  3  0  0  0  0  0  0
  186.4290  176.9970  143.9720 C   0  0  0  0  0  2  0  0  0  0  0  0
  183.9490  179.0270  145.4420 C   0  0  0  0  0  2  0  0  0  0  0  0
  186.2650  176.8120  147.0240 O   0  0  0  0  0  0  0  0  0  0  0  0
  185.3750  179.5010  144.3990 S   0  0  0  0  0  0  0  0  0  0  0  0
  184.4260  178.1380  146.4820 N   0  0  0  0  0  2  0  0  0  0  0  0
  185.7220  177.6280  146.2340 C   0  0  0  0  0  0  0  0  0  0  0  0
  186.3950  178.1120  145.0090 C   0  0  1  0  0  3  0  0  0  0  0  0
  187.8560  177.6320  142.0420 C   0  0  0  0  0  2  0  0  0  0  0  0
  187.5300  176.7850  140.9830 O   0  0  0  0  0  0  0  0  0  0  0  0
  186.6670  177.5380  140.1870 C   0  0  0  0  0  1  0  0  0  0  0  0
  2 15  1  6  0  0  0
  2 10  1  0  0  0  0
  2  5  1  0  0  0  0
  3 10  2  0  0  0  0
  4  6  1  0  0  0  0
  4  8  1  0  0  0  0
  5  7  1  1  0  0  0
  5 11  1  0  0  0  0
  6 24  1  6  0  0  0
  6  9  1  0  0  0  0
  8 13  1  6  0  0  0
  8 11  1  0  0  0  0
  8  1  1  0  0  0  0
  9  1  1  0  0  0  0
 10  4  1  0  0  0  0
 12 13  2  0  0  0  0
 13 14  1  0  0  0  0
 15 16  1  1  0  0  0
 17 18  1  0  0  0  0
 17 15  1  0  0  0  0
 19 18  1  0  0  0  0
 20 21  1  0  0  0  0
 22 21  2  0  0  0  0
 22 19  1  0  0  0  0
 23 20  1  0  0  0  0
 23 22  1  0  0  0  0
 25 24  1  0  0  0  0
 25 26  1  0  0  0  0
 27 35  1  6  0  0  0
 27 28  1  0  0  0  0
 27 26  1  0  0  0  0
 29 32  1  0  0  0  0
 31 34  1  0  0  0  0
 31 29  1  0  0  0  0
 33 32  1  0  0  0  0
 33 30  2  0  0  0  0
 34 28  1  6  0  0  0
 34 33  1  0  0  0  0
 36 35  1  0  0  0  0
 37 36  1  0  0  0  0
M  END
>  <MODEL>
9

>  <REMARK>
 VINA RESULT:      -5.8      2.737      5.178
  Name = 
  14 active torsions:
  status: ('A' for Active; 'I' for Inactive)
    1  A    between atoms: O_2  and  C_20
    2  A    between atoms: C_10  and  C_11
    3  A    between atoms: C_10  and  O_13
    4  A    between atoms: O_13  and  C_28
    5  A    between atoms: C_14  and  C_22
    6  A    between atoms: C_16  and  C_35
    7  A    between atoms: C_16  and  C_36
    8  A    between atoms: C_17  and  C_30
    9  A    between atoms: C_18  and  C_21
   10  A    between atoms: C_18  and  C_37
   11  A    between atoms: C_20  and  C_35
   12  A    between atoms: C_21  and  C_35
   13  A    between atoms: C_22  and  C_28
   14  A    between atoms: C_25  and  C_37
                            x       y       z     vdW  Elec       q    Type
                         _______ _______ _______ _____ _____    ______ ____

>  <TORSDO>
F 14

$$$$
