=
 OpenBabel11062422053D

 34 37  0  0  1  0  0  0  0  0999 V2000
  184.0940  178.6400  145.7390 N   0  0  0  0  0  0  0  0  0  0  0  0
  185.9340  177.7280  146.9560 C   0  0  0  0  0  3  0  0  0  0  0  0
  184.7620  178.4970  144.5640 C   0  0  0  0  0  3  0  0  0  0  0  0
  186.0650  177.9820  144.5450 C   0  0  0  0  0  0  0  0  0  0  0  0
  186.6500  177.5740  145.7620 C   0  0  0  0  0  0  0  0  0  0  0  0
  188.7530  177.0220  144.6560 C   0  0  0  0  0  3  0  0  0  0  0  0
  188.0040  176.9720  145.7590 C   0  0  0  0  0  0  0  0  0  0  0  0
  184.6500  178.2730  146.9240 C   0  0  0  0  0  3  0  0  0  0  0  0
  188.3120  177.8060  143.4520 C   0  0  0  0  0  2  0  0  0  0  0  0
  186.7950  177.7170  143.2440 C   0  0  2  0  0  3  0  0  0  0  0  0
  188.5130  176.2140  146.9400 C   0  0  0  0  0  2  0  0  0  0  0  0
  189.6530  175.4930  146.5800 O   0  0  0  0  0  0  0  0  0  0  0  0
  192.0160  175.5430  146.7620 C   0  0  2  0  0  3  0  0  0  0  0  0
  190.7060  176.1740  147.1900 C   0  0  2  0  0  3  0  0  0  0  0  0
  191.4360  175.2350  148.1260 C   0  0  0  0  0  2  0  0  0  0  0  0
  193.0800  176.5200  146.9010 N   0  0  0  0  0  2  0  0  0  0  0  0
  193.6230  176.7420  145.5740 C   0  0  2  0  0  3  0  0  0  0  0  0
  195.0600  176.3920  145.5600 C   0  0  2  0  0  3  0  0  0  0  0  0
  194.6230  177.7270  145.6410 O   0  0  0  0  0  0  0  0  0  0  0  0
  196.4740  176.8860  143.5640 O   0  0  0  0  0  1  0  0  0  0  0  0
  194.9830  175.1470  143.5260 O   0  0  0  0  0  0  0  0  0  0  0  0
  195.5050  176.0950  144.1680 C   0  0  0  0  0  0  0  0  0  0  0  0
  186.3750  178.6830  142.1350 C   0  0  0  0  0  2  0  0  0  0  0  0
  184.8100  178.0540  140.2150 N   0  0  0  0  0  2  0  0  0  0  0  0
  186.0890  177.9620  140.8510 C   0  0  0  0  0  0  0  0  0  0  0  0
  187.0180  177.3480  140.2640 O   0  0  0  0  0  0  0  0  0  0  0  0
  183.6320  178.4930  140.8450 N   0  0  0  0  0  2  0  0  0  0  0  0
  182.3290  177.9690  140.5630 C   0  0  0  0  0  0  0  0  0  0  0  0
  182.1300  177.2600  139.5420 O   0  0  0  0  0  0  0  0  0  0  0  0
  181.1700  178.3570  141.4190 C   0  0  0  0  0  2  0  0  0  0  0  0
  180.1600  180.3800  140.5150 N   0  0  0  0  0  1  0  0  0  0  0  0
  180.0320  178.9350  140.5890 C   0  0  2  0  0  3  0  0  0  0  0  0
  178.8670  177.5570  142.1510 O   0  0  0  0  0  1  0  0  0  0  0  0
  178.6990  178.5840  141.2220 C   0  0  0  0  0  2  0  0  0  0  0  0
  1  8  1  0  0  0  0
  3  1  2  0  0  0  0
  4  3  1  0  0  0  0
  4  5  2  0  0  0  0
  5  2  1  0  0  0  0
  6  7  2  0  0  0  0
  7  5  1  0  0  0  0
  7 11  1  0  0  0  0
  8  2  2  0  0  0  0
  9  6  1  0  0  0  0
 10 23  1  6  0  0  0
 10  9  1  0  0  0  0
 10  4  1  0  0  0  0
 12 11  1  0  0  0  0
 13 16  1  1  0  0  0
 13 14  1  0  0  0  0
 13 15  1  0  0  0  0
 14 12  1  6  0  0  0
 14 15  1  0  0  0  0
 17 19  1  0  0  0  0
 17 16  1  1  0  0  0
 18 22  1  6  0  0  0
 18 17  1  0  0  0  0
 18 19  1  0  0  0  0
 20 22  1  0  0  0  0
 21 22  2  0  0  0  0
 24 27  1  0  0  0  0
 24 25  1  0  0  0  0
 25 23  1  0  0  0  0
 26 25  2  0  0  0  0
 28 27  1  0  0  0  0
 28 30  1  0  0  0  0
 29 28  2  0  0  0  0
 32 31  1  1  0  0  0
 32 34  1  0  0  0  0
 32 30  1  0  0  0  0
 34 33  1  0  0  0  0
M  END
>  <MODEL>
1

>  <REMARK>
 VINA RESULT:      -7.5      0.000      0.000
  Name = 
  12 active torsions:
  status: ('A' for Active; 'I' for Inactive)
    1  A    between atoms: O_2  and  C_17
    2  A    between atoms: O_2  and  C_22
    3  A    between atoms: N_8  and  N_19
    4  A    between atoms: C_10  and  C_14
    5  A    between atoms: C_10  and  C_28
    6  A    between atoms: C_12  and  C_14
    7  A    between atoms: C_13  and  N_27
    8  A    between atoms: C_15  and  N_27
    9  A    between atoms: C_17  and  C_31
   10  A    between atoms: C_18  and  C_26
   11  A    between atoms: C_18  and  C_34
   12  A    between atoms: C_20  and  C_21
                            x       y       z     vdW  Elec       q    Type
                         _______ _______ _______ _____ _____    ______ ____

>  <TORSDO>
F 12

$$$$
=
 OpenBabel11062422053D

 34 37  0  0  1  0  0  0  0  0999 V2000
  188.9720  172.5970  141.6770 N   0  0  0  0  0  0  0  0  0  0  0  0
  188.3950  174.6930  140.6910 C   0  0  0  0  0  3  0  0  0  0  0  0
  189.1120  173.1770  142.8990 C   0  0  0  0  0  3  0  0  0  0  0  0
  188.9220  174.5570  143.0570 C   0  0  0  0  0  0  0  0  0  0  0  0
  188.5390  175.3200  141.9340 C   0  0  0  0  0  0  0  0  0  0  0  0
  188.6140  177.3920  143.2220 C   0  0  0  0  0  3  0  0  0  0  0  0
  188.2750  176.7700  142.0900 C   0  0  0  0  0  0  0  0  0  0  0  0
  188.6240  173.3210  140.5800 C   0  0  0  0  0  3  0  0  0  0  0  0
  189.3930  176.6840  144.2930 C   0  0  0  0  0  2  0  0  0  0  0  0
  188.9740  175.2140  144.4210 C   0  0  2  0  0  3  0  0  0  0  0  0
  187.5390  177.5360  141.0420 C   0  0  0  0  0  2  0  0  0  0  0  0
  186.1840  177.2010  141.0790 O   0  0  0  0  0  0  0  0  0  0  0  0
  184.6860  177.8030  142.8150 C   0  0  2  0  0  3  0  0  0  0  0  0
  185.5690  178.2960  141.6850 C   0  0  2  0  0  3  0  0  0  0  0  0
  184.0700  178.2000  141.4900 C   0  0  0  0  0  2  0  0  0  0  0  0
  184.5010  178.8770  143.7740 N   0  0  0  0  0  2  0  0  0  0  0  0
  184.6200  178.2870  145.0940 C   0  0  2  0  0  3  0  0  0  0  0  0
  185.9870  178.5070  145.6150 C   0  0  2  0  0  3  0  0  0  0  0  0
  185.5920  177.2730  145.0630 O   0  0  0  0  0  0  0  0  0  0  0  0
  185.9870  179.5630  147.8770 O   0  0  0  0  0  1  0  0  0  0  0  0
  186.0340  177.2810  147.6630 O   0  0  0  0  0  0  0  0  0  0  0  0
  185.9930  178.4090  147.1040 C   0  0  0  0  0  0  0  0  0  0  0  0
  189.9240  174.4920  145.3780 C   0  0  0  0  0  2  0  0  0  0  0  0
  190.8810  175.4150  147.5610 N   0  0  0  0  0  2  0  0  0  0  0  0
  189.7590  174.9730  146.7890 C   0  0  0  0  0  0  0  0  0  0  0  0
  188.6030  175.0900  147.2740 O   0  0  0  0  0  0  0  0  0  0  0  0
  192.2240  175.1330  147.2550 N   0  0  0  0  0  2  0  0  0  0  0  0
  193.0450  175.9540  146.4160 C   0  0  0  0  0  0  0  0  0  0  0  0
  192.5300  176.8440  145.6900 O   0  0  0  0  0  0  0  0  0  0  0  0
  194.5080  175.6810  146.3090 C   0  0  0  0  0  2  0  0  0  0  0  0
  195.6870  173.6530  145.6530 N   0  0  0  0  0  1  0  0  0  0  0  0
  194.8140  174.7110  145.1760 C   0  0  2  0  0  3  0  0  0  0  0  0
  195.6800  176.7850  144.3740 O   0  0  0  0  0  1  0  0  0  0  0  0
  195.4960  175.4440  144.0360 C   0  0  0  0  0  2  0  0  0  0  0  0
  1  3  1  0  0  0  0
  2  5  2  0  0  0  0
  3  4  2  0  0  0  0
  4 10  1  0  0  0  0
  5  7  1  0  0  0  0
  5  4  1  0  0  0  0
  6  9  1  0  0  0  0
  7  6  2  0  0  0  0
  8  2  1  0  0  0  0
  8  1  2  0  0  0  0
  9 10  1  0  0  0  0
 10 23  1  1  0  0  0
 11 12  1  0  0  0  0
 11  7  1  0  0  0  0
 13 16  1  1  0  0  0
 14 12  1  6  0  0  0
 14 13  1  0  0  0  0
 15 14  1  0  0  0  0
 15 13  1  0  0  0  0
 17 16  1  6  0  0  0
 17 18  1  0  0  0  0
 18 22  1  1  0  0  0
 19 17  1  0  0  0  0
 19 18  1  0  0  0  0
 22 21  2  0  0  0  0
 22 20  1  0  0  0  0
 23 25  1  0  0  0  0
 25 26  2  0  0  0  0
 25 24  1  0  0  0  0
 27 24  1  0  0  0  0
 28 27  1  0  0  0  0
 29 28  2  0  0  0  0
 30 28  1  0  0  0  0
 32 31  1  1  0  0  0
 32 30  1  0  0  0  0
 34 33  1  0  0  0  0
 34 32  1  0  0  0  0
M  END
>  <MODEL>
2

>  <REMARK>
 VINA RESULT:      -7.3      2.843      9.990
  Name = 
  12 active torsions:
  status: ('A' for Active; 'I' for Inactive)
    1  A    between atoms: O_2  and  C_17
    2  A    between atoms: O_2  and  C_22
    3  A    between atoms: N_8  and  N_19
    4  A    between atoms: C_10  and  C_14
    5  A    between atoms: C_10  and  C_28
    6  A    between atoms: C_12  and  C_14
    7  A    between atoms: C_13  and  N_27
    8  A    between atoms: C_15  and  N_27
    9  A    between atoms: C_17  and  C_31
   10  A    between atoms: C_18  and  C_26
   11  A    between atoms: C_18  and  C_34
   12  A    between atoms: C_20  and  C_21
                            x       y       z     vdW  Elec       q    Type
                         _______ _______ _______ _____ _____    ______ ____

>  <TORSDO>
F 12

$$$$
=
 OpenBabel11062422053D

 34 37  0  0  1  0  0  0  0  0999 V2000
  189.0220  177.3290  145.7130 N   0  0  0  0  0  0  0  0  0  0  0  0
  189.7040  175.0700  145.3530 C   0  0  0  0  0  3  0  0  0  0  0  0
  188.4030  177.3660  144.5030 C   0  0  0  0  0  3  0  0  0  0  0  0
  188.4360  176.2520  143.6530 C   0  0  0  0  0  0  0  0  0  0  0  0
  189.0820  175.0800  144.0990 C   0  0  0  0  0  0  0  0  0  0  0  0
  188.6700  173.9530  141.9730 C   0  0  0  0  0  3  0  0  0  0  0  0
  189.0790  173.8710  143.2420 C   0  0  0  0  0  0  0  0  0  0  0  0
  189.6680  176.2150  146.1490 C   0  0  0  0  0  3  0  0  0  0  0  0
  188.3480  175.2800  141.3460 C   0  0  0  0  0  2  0  0  0  0  0  0
  187.6730  176.2290  142.3440 C   0  0  2  0  0  3  0  0  0  0  0  0
  189.4270  172.5300  143.7990 C   0  0  0  0  0  2  0  0  0  0  0  0
  190.6640  172.1210  143.2990 O   0  0  0  0  0  0  0  0  0  0  0  0
  192.7100  173.0080  144.1040 C   0  0  2  0  0  3  0  0  0  0  0  0
  191.5100  172.1310  144.4070 C   0  0  2  0  0  3  0  0  0  0  0  0
  192.8350  171.5010  144.0330 C   0  0  0  0  0  2  0  0  0  0  0  0
  193.2790  173.4800  145.3540 N   0  0  0  0  0  2  0  0  0  0  0  0
  193.4150  174.9200  145.2360 C   0  0  2  0  0  3  0  0  0  0  0  0
  194.7260  175.3400  145.7770 C   0  0  2  0  0  3  0  0  0  0  0  0
  193.5380  175.4800  146.5190 O   0  0  0  0  0  0  0  0  0  0  0  0
  195.8770  176.7220  144.0460 O   0  0  0  0  0  0  0  0  0  0  0  0
  194.7890  177.7260  145.7950 O   0  0  0  0  0  1  0  0  0  0  0  0
  195.1190  176.6620  145.2080 C   0  0  0  0  0  0  0  0  0  0  0  0
  187.5460  177.6200  141.7210 C   0  0  0  0  0  2  0  0  0  0  0  0
  185.0350  178.0050  141.4410 N   0  0  0  0  0  2  0  0  0  0  0  0
  186.3190  177.7350  140.8670 C   0  0  0  0  0  0  0  0  0  0  0  0
  186.4300  177.6980  139.6130 O   0  0  0  0  0  0  0  0  0  0  0  0
  184.7160  177.8430  142.8000 N   0  0  0  0  0  2  0  0  0  0  0  0
  184.8990  178.8580  143.7930 C   0  0  0  0  0  0  0  0  0  0  0  0
  185.6020  179.8730  143.5500 O   0  0  0  0  0  0  0  0  0  0  0  0
  184.3490  178.6630  145.1670 C   0  0  0  0  0  2  0  0  0  0  0  0
  185.0400  176.6890  146.4160 N   0  0  0  0  0  1  0  0  0  0  0  0
  185.3890  178.0640  146.1040 C   0  0  2  0  0  3  0  0  0  0  0  0
  186.7160  178.7540  147.9650 O   0  0  0  0  0  1  0  0  0  0  0  0
  185.4500  178.8670  147.3900 C   0  0  0  0  0  2  0  0  0  0  0  0
  1  8  1  0  0  0  0
  2  8  2  0  0  0  0
  3  1  2  0  0  0  0
  4  5  2  0  0  0  0
  4  3  1  0  0  0  0
  5  2  1  0  0  0  0
  6  7  2  0  0  0  0
  7 11  1  0  0  0  0
  7  5  1  0  0  0  0
  9  6  1  0  0  0  0
  9 10  1  0  0  0  0
 10 23  1  6  0  0  0
 10  4  1  0  0  0  0
 12 11  1  0  0  0  0
 13 14  1  0  0  0  0
 13 16  1  1  0  0  0
 14 12  1  6  0  0  0
 15 13  1  0  0  0  0
 15 14  1  0  0  0  0
 17 16  1  1  0  0  0
 17 18  1  0  0  0  0
 17 19  1  0  0  0  0
 18 22  1  6  0  0  0
 18 19  1  0  0  0  0
 20 22  2  0  0  0  0
 22 21  1  0  0  0  0
 24 27  1  0  0  0  0
 25 24  1  0  0  0  0
 25 23  1  0  0  0  0
 26 25  2  0  0  0  0
 27 28  1  0  0  0  0
 28 30  1  0  0  0  0
 29 28  2  0  0  0  0
 30 32  1  0  0  0  0
 32 31  1  1  0  0  0
 32 34  1  0  0  0  0
 34 33  1  0  0  0  0
M  END
>  <MODEL>
3

>  <REMARK>
 VINA RESULT:      -7.2      2.946      4.613
  Name = 
  12 active torsions:
  status: ('A' for Active; 'I' for Inactive)
    1  A    between atoms: O_2  and  C_17
    2  A    between atoms: O_2  and  C_22
    3  A    between atoms: N_8  and  N_19
    4  A    between atoms: C_10  and  C_14
    5  A    between atoms: C_10  and  C_28
    6  A    between atoms: C_12  and  C_14
    7  A    between atoms: C_13  and  N_27
    8  A    between atoms: C_15  and  N_27
    9  A    between atoms: C_17  and  C_31
   10  A    between atoms: C_18  and  C_26
   11  A    between atoms: C_18  and  C_34
   12  A    between atoms: C_20  and  C_21
                            x       y       z     vdW  Elec       q    Type
                         _______ _______ _______ _____ _____    ______ ____

>  <TORSDO>
F 12

$$$$
=
 OpenBabel11062422053D

 34 37  0  0  1  0  0  0  0  0999 V2000
  185.1530  177.3160  145.8600 N   0  0  0  0  0  0  0  0  0  0  0  0
  187.3450  176.9350  146.7280 C   0  0  0  0  0  3  0  0  0  0  0  0
  185.6470  177.4720  144.6030 C   0  0  0  0  0  3  0  0  0  0  0  0
  187.0260  177.3910  144.3650 C   0  0  0  0  0  0  0  0  0  0  0  0
  187.8830  177.0990  145.4460 C   0  0  0  0  0  0  0  0  0  0  0  0
  189.8610  177.3110  144.0340 C   0  0  0  0  0  3  0  0  0  0  0  0
  189.3380  176.9500  145.2080 C   0  0  0  0  0  0  0  0  0  0  0  0
  185.9670  177.0550  146.9170 C   0  0  0  0  0  3  0  0  0  0  0  0
  189.0300  178.0030  142.9920 C   0  0  0  0  0  2  0  0  0  0  0  0
  187.5950  177.4620  142.9620 C   0  0  2  0  0  3  0  0  0  0  0  0
  190.2230  176.3050  146.2220 C   0  0  0  0  0  2  0  0  0  0  0  0
  191.5080  176.8440  146.1350 O   0  0  0  0  0  0  0  0  0  0  0  0
  193.5460  175.7210  145.6800 C   0  0  2  0  0  3  0  0  0  0  0  0
  192.3450  175.8310  146.6000 C   0  0  2  0  0  3  0  0  0  0  0  0
  192.4120  174.7230  145.5700 C   0  0  0  0  0  2  0  0  0  0  0  0
  194.6470  175.1200  146.4100 N   0  0  0  0  0  2  0  0  0  0  0  0
  195.3210  174.2230  145.4900 C   0  0  2  0  0  3  0  0  0  0  0  0
  196.6340  173.8330  146.0500 C   0  0  2  0  0  3  0  0  0  0  0  0
  196.5160  174.8200  145.0520 O   0  0  0  0  0  0  0  0  0  0  0  0
  196.8830  171.3500  146.0920 O   0  0  0  0  0  1  0  0  0  0  0  0
  197.7080  172.5680  144.3350 O   0  0  0  0  0  0  0  0  0  0  0  0
  197.0970  172.5550  145.4350 C   0  0  0  0  0  0  0  0  0  0  0  0
  186.7420  178.3270  142.0330 C   0  0  0  0  0  2  0  0  0  0  0  0
  185.0440  177.8040  140.1950 N   0  0  0  0  0  2  0  0  0  0  0  0
  186.3160  177.5720  140.8090 C   0  0  0  0  0  0  0  0  0  0  0  0
  187.1300  176.7930  140.2460 O   0  0  0  0  0  0  0  0  0  0  0  0
  183.9610  178.4490  140.8180 N   0  0  0  0  0  2  0  0  0  0  0  0
  182.5890  178.0980  140.6050 C   0  0  0  0  0  0  0  0  0  0  0  0
  182.2590  177.3540  139.6440 O   0  0  0  0  0  0  0  0  0  0  0  0
  181.5250  178.7050  141.4570 C   0  0  0  0  0  2  0  0  0  0  0  0
  180.0490  180.4130  140.5420 N   0  0  0  0  0  1  0  0  0  0  0  0
  180.2590  178.9800  140.6560 C   0  0  2  0  0  3  0  0  0  0  0  0
  178.0710  179.3160  141.5500 O   0  0  0  0  0  1  0  0  0  0  0  0
  179.0630  178.3550  141.3480 C   0  0  0  0  0  2  0  0  0  0  0  0
  1  8  1  0  0  0  0
  2  8  2  0  0  0  0
  3  1  2  0  0  0  0
  4  3  1  0  0  0  0
  4  5  2  0  0  0  0
  5  2  1  0  0  0  0
  6  7  2  0  0  0  0
  7  5  1  0  0  0  0
  7 11  1  0  0  0  0
  9  6  1  0  0  0  0
 10 23  1  6  0  0  0
 10  9  1  0  0  0  0
 10  4  1  0  0  0  0
 12 11  1  0  0  0  0
 13 16  1  1  0  0  0
 13 14  1  0  0  0  0
 14 12  1  6  0  0  0
 15 13  1  0  0  0  0
 15 14  1  0  0  0  0
 17 18  1  0  0  0  0
 17 16  1  1  0  0  0
 18 22  1  6  0  0  0
 19 17  1  0  0  0  0
 19 18  1  0  0  0  0
 21 22  2  0  0  0  0
 22 20  1  0  0  0  0
 24 25  1  0  0  0  0
 24 27  1  0  0  0  0
 25 23  1  0  0  0  0
 26 25  2  0  0  0  0
 28 27  1  0  0  0  0
 28 30  1  0  0  0  0
 29 28  2  0  0  0  0
 32 31  1  1  0  0  0
 32 34  1  0  0  0  0
 32 30  1  0  0  0  0
 34 33  1  0  0  0  0
M  END
>  <MODEL>
4

>  <REMARK>
 VINA RESULT:      -7.1      1.765      2.117
  Name = 
  12 active torsions:
  status: ('A' for Active; 'I' for Inactive)
    1  A    between atoms: O_2  and  C_17
    2  A    between atoms: O_2  and  C_22
    3  A    between atoms: N_8  and  N_19
    4  A    between atoms: C_10  and  C_14
    5  A    between atoms: C_10  and  C_28
    6  A    between atoms: C_12  and  C_14
    7  A    between atoms: C_13  and  N_27
    8  A    between atoms: C_15  and  N_27
    9  A    between atoms: C_17  and  C_31
   10  A    between atoms: C_18  and  C_26
   11  A    between atoms: C_18  and  C_34
   12  A    between atoms: C_20  and  C_21
                            x       y       z     vdW  Elec       q    Type
                         _______ _______ _______ _____ _____    ______ ____

>  <TORSDO>
F 12

$$$$
=
 OpenBabel11062422053D

 34 37  0  0  1  0  0  0  0  0999 V2000
  189.5650  172.5560  142.5130 N   0  0  0  0  0  0  0  0  0  0  0  0
  190.5160  173.1240  144.6270 C   0  0  0  0  0  3  0  0  0  0  0  0
  188.8500  173.7130  142.4900 C   0  0  0  0  0  3  0  0  0  0  0  0
  188.9240  174.6150  143.5610 C   0  0  0  0  0  0  0  0  0  0  0  0
  189.7880  174.3190  144.6360 C   0  0  0  0  0  0  0  0  0  0  0  0
  189.0790  176.3130  145.8520 C   0  0  0  0  0  3  0  0  0  0  0  0
  189.9260  175.2860  145.7510 C   0  0  0  0  0  0  0  0  0  0  0  0
  190.3850  172.2460  143.5510 C   0  0  0  0  0  3  0  0  0  0  0  0
  187.8920  176.4330  144.9400 C   0  0  0  0  0  2  0  0  0  0  0  0
  188.2190  175.9550  143.5190 C   0  0  2  0  0  3  0  0  0  0  0  0
  191.0640  175.1950  146.7130 C   0  0  0  0  0  2  0  0  0  0  0  0
  191.9340  176.2690  146.5140 O   0  0  0  0  0  0  0  0  0  0  0  0
  194.0030  176.8210  145.4960 C   0  0  2  0  0  3  0  0  0  0  0  0
  192.9370  175.7590  145.6920 C   0  0  2  0  0  3  0  0  0  0  0  0
  192.9860  176.5580  144.4060 C   0  0  0  0  0  2  0  0  0  0  0  0
  195.2560  176.1750  145.1520 N   0  0  0  0  0  2  0  0  0  0  0  0
  195.4340  176.3380  143.7210 C   0  0  2  0  0  3  0  0  0  0  0  0
  196.6330  175.5910  143.2810 C   0  0  2  0  0  3  0  0  0  0  0  0
  196.6580  176.9850  143.4770 O   0  0  0  0  0  0  0  0  0  0  0  0
  196.8250  176.2870  140.8920 O   0  0  0  0  0  0  0  0  0  0  0  0
  196.1970  174.1490  141.4300 O   0  0  0  0  0  1  0  0  0  0  0  0
  196.5480  175.2930  141.8220 C   0  0  0  0  0  0  0  0  0  0  0  0
  186.9360  175.9110  142.6880 C   0  0  0  0  0  2  0  0  0  0  0  0
  186.7630  178.2690  141.7180 N   0  0  0  0  0  2  0  0  0  0  0  0
  186.9900  176.8680  141.5340 C   0  0  0  0  0  0  0  0  0  0  0  0
  187.3440  176.4520  140.3990 O   0  0  0  0  0  0  0  0  0  0  0  0
  186.1440  178.8390  142.8440 N   0  0  0  0  0  2  0  0  0  0  0  0
  184.7750  178.6240  143.2020 C   0  0  0  0  0  0  0  0  0  0  0  0
  183.9700  178.1130  142.3790 O   0  0  0  0  0  0  0  0  0  0  0  0
  184.2640  179.1090  144.5170 C   0  0  0  0  0  2  0  0  0  0  0  0
  183.8850  177.9390  146.6190 N   0  0  0  0  0  1  0  0  0  0  0  0
  184.9060  178.3590  145.6770 C   0  0  2  0  0  3  0  0  0  0  0  0
  186.3470  178.6440  147.5580 O   0  0  0  0  0  1  0  0  0  0  0  0
  185.9010  179.2580  146.3870 C   0  0  0  0  0  2  0  0  0  0  0  0
  1  8  1  0  0  0  0
  2  5  1  0  0  0  0
  3  1  2  0  0  0  0
  3  4  1  0  0  0  0
  4  5  2  0  0  0  0
  5  7  1  0  0  0  0
  7  6  2  0  0  0  0
  7 11  1  0  0  0  0
  8  2  2  0  0  0  0
  9  6  1  0  0  0  0
 10 23  1  6  0  0  0
 10  4  1  0  0  0  0
 10  9  1  0  0  0  0
 12 11  1  0  0  0  0
 13 16  1  6  0  0  0
 13 14  1  0  0  0  0
 14 12  1  1  0  0  0
 15 13  1  0  0  0  0
 15 14  1  0  0  0  0
 17 16  1  1  0  0  0
 18 22  1  6  0  0  0
 18 19  1  0  0  0  0
 18 17  1  0  0  0  0
 19 17  1  0  0  0  0
 20 22  2  0  0  0  0
 21 22  1  0  0  0  0
 24 27  1  0  0  0  0
 25 24  1  0  0  0  0
 25 23  1  0  0  0  0
 26 25  2  0  0  0  0
 27 28  1  0  0  0  0
 28 30  1  0  0  0  0
 29 28  2  0  0  0  0
 30 32  1  0  0  0  0
 32 34  1  0  0  0  0
 32 31  1  1  0  0  0
 34 33  1  0  0  0  0
M  END
>  <MODEL>
5

>  <REMARK>
 VINA RESULT:      -7.0      2.789      4.715
  Name = 
  12 active torsions:
  status: ('A' for Active; 'I' for Inactive)
    1  A    between atoms: O_2  and  C_17
    2  A    between atoms: O_2  and  C_22
    3  A    between atoms: N_8  and  N_19
    4  A    between atoms: C_10  and  C_14
    5  A    between atoms: C_10  and  C_28
    6  A    between atoms: C_12  and  C_14
    7  A    between atoms: C_13  and  N_27
    8  A    between atoms: C_15  and  N_27
    9  A    between atoms: C_17  and  C_31
   10  A    between atoms: C_18  and  C_26
   11  A    between atoms: C_18  and  C_34
   12  A    between atoms: C_20  and  C_21
                            x       y       z     vdW  Elec       q    Type
                         _______ _______ _______ _____ _____    ______ ____

>  <TORSDO>
F 12

$$$$
=
 OpenBabel11062422053D

 34 37  0  0  1  0  0  0  0  0999 V2000
  189.3280  172.7440  141.9180 N   0  0  0  0  0  0  0  0  0  0  0  0
  191.5060  173.5690  142.4440 C   0  0  0  0  0  3  0  0  0  0  0  0
  188.8080  173.9990  141.9710 C   0  0  0  0  0  3  0  0  0  0  0  0
  189.6230  175.0930  142.2920 C   0  0  0  0  0  0  0  0  0  0  0  0
  190.9980  174.8710  142.5130 C   0  0  0  0  0  0  0  0  0  0  0  0
  191.3660  177.2200  143.0650 C   0  0  0  0  0  3  0  0  0  0  0  0
  191.8890  176.0210  142.7970 C   0  0  0  0  0  0  0  0  0  0  0  0
  190.6470  172.5090  142.1490 C   0  0  0  0  0  3  0  0  0  0  0  0
  189.8840  177.4010  143.2300 C   0  0  0  0  0  2  0  0  0  0  0  0
  189.0940  176.5130  142.2620 C   0  0  2  0  0  3  0  0  0  0  0  0
  193.3720  175.8920  142.6860 C   0  0  0  0  0  2  0  0  0  0  0  0
  193.9760  176.4250  143.8270 O   0  0  0  0  0  0  0  0  0  0  0  0
  193.4220  175.9750  146.0880 C   0  0  2  0  0  3  0  0  0  0  0  0
  193.9070  175.4010  144.7700 C   0  0  2  0  0  3  0  0  0  0  0  0
  194.8930  175.6800  145.8860 C   0  0  0  0  0  2  0  0  0  0  0  0
  192.8210  174.9130  146.8730 N   0  0  0  0  0  2  0  0  0  0  0  0
  191.5180  175.3900  147.2980 C   0  0  2  0  0  3  0  0  0  0  0  0
  190.5410  175.2100  146.2010 C   0  0  2  0  0  3  0  0  0  0  0  0
  191.1260  176.4610  146.4760 O   0  0  0  0  0  0  0  0  0  0  0  0
  188.2110  176.0970  146.3070 O   0  0  0  0  0  0  0  0  0  0  0  0
  188.8410  174.3330  147.6290 O   0  0  0  0  0  1  0  0  0  0  0  0
  189.1530  175.1760  146.7470 C   0  0  0  0  0  0  0  0  0  0  0  0
  187.6040  176.5850  142.6020 C   0  0  0  0  0  2  0  0  0  0  0  0
  186.2050  178.6310  141.9780 N   0  0  0  0  0  2  0  0  0  0  0  0
  186.8470  177.4070  141.6020 C   0  0  0  0  0  0  0  0  0  0  0  0
  186.8590  177.0740  140.3880 O   0  0  0  0  0  0  0  0  0  0  0  0
  185.9090  179.0070  143.2990 N   0  0  0  0  0  2  0  0  0  0  0  0
  184.6350  178.8070  143.9230 C   0  0  0  0  0  0  0  0  0  0  0  0
  183.6230  178.5150  143.2340 O   0  0  0  0  0  0  0  0  0  0  0  0
  184.4760  179.0570  145.3850 C   0  0  0  0  0  2  0  0  0  0  0  0
  184.8460  176.7940  146.2070 N   0  0  0  0  0  1  0  0  0  0  0  0
  185.3760  178.1460  146.2090 C   0  0  2  0  0  3  0  0  0  0  0  0
  186.7860  178.7300  148.0450 O   0  0  0  0  0  1  0  0  0  0  0  0
  185.4540  178.6490  147.6380 C   0  0  0  0  0  2  0  0  0  0  0  0
  1  3  2  0  0  0  0
  1  8  1  0  0  0  0
  2  5  1  0  0  0  0
  3  4  1  0  0  0  0
  4  5  2  0  0  0  0
  5  7  1  0  0  0  0
  6  9  1  0  0  0  0
  7  6  2  0  0  0  0
  8  2  2  0  0  0  0
 10  4  1  0  0  0  0
 10 23  1  1  0  0  0
 10  9  1  0  0  0  0
 11  7  1  0  0  0  0
 11 12  1  0  0  0  0
 13 16  1  1  0  0  0
 14 12  1  6  0  0  0
 14 15  1  0  0  0  0
 14 13  1  0  0  0  0
 15 13  1  0  0  0  0
 17 16  1  6  0  0  0
 18 19  1  0  0  0  0
 18 22  1  1  0  0  0
 18 17  1  0  0  0  0
 19 17  1  0  0  0  0
 20 22  2  0  0  0  0
 22 21  1  0  0  0  0
 24 27  1  0  0  0  0
 25 24  1  0  0  0  0
 25 23  1  0  0  0  0
 26 25  2  0  0  0  0
 27 28  1  0  0  0  0
 28 30  1  0  0  0  0
 29 28  2  0  0  0  0
 30 32  1  0  0  0  0
 32 31  1  1  0  0  0
 32 34  1  0  0  0  0
 34 33  1  0  0  0  0
M  END
>  <MODEL>
6

>  <REMARK>
 VINA RESULT:      -6.9      2.800      5.744
  Name = 
  12 active torsions:
  status: ('A' for Active; 'I' for Inactive)
    1  A    between atoms: O_2  and  C_17
    2  A    between atoms: O_2  and  C_22
    3  A    between atoms: N_8  and  N_19
    4  A    between atoms: C_10  and  C_14
    5  A    between atoms: C_10  and  C_28
    6  A    between atoms: C_12  and  C_14
    7  A    between atoms: C_13  and  N_27
    8  A    between atoms: C_15  and  N_27
    9  A    between atoms: C_17  and  C_31
   10  A    between atoms: C_18  and  C_26
   11  A    between atoms: C_18  and  C_34
   12  A    between atoms: C_20  and  C_21
                            x       y       z     vdW  Elec       q    Type
                         _______ _______ _______ _____ _____    ______ ____

>  <TORSDO>
F 12

$$$$
=
 OpenBabel11062422053D

 34 37  0  0  1  0  0  0  0  0999 V2000
  188.2520  175.6200  142.4380 N   0  0  0  0  0  0  0  0  0  0  0  0
  190.1930  174.6000  143.3830 C   0  0  0  0  0  3  0  0  0  0  0  0
  187.8350  176.0310  143.6650 C   0  0  0  0  0  3  0  0  0  0  0  0
  188.5770  175.7140  144.8110 C   0  0  0  0  0  0  0  0  0  0  0  0
  189.7860  175.0030  144.6600 C   0  0  0  0  0  0  0  0  0  0  0  0
  190.1220  174.9100  147.0750 C   0  0  0  0  0  3  0  0  0  0  0  0
  190.6160  174.7080  145.8510 C   0  0  0  0  0  0  0  0  0  0  0  0
  189.4030  174.9150  142.2760 C   0  0  0  0  0  3  0  0  0  0  0  0
  188.6840  175.2950  147.2780 C   0  0  0  0  0  2  0  0  0  0  0  0
  188.1910  176.2420  146.1780 C   0  0  2  0  0  3  0  0  0  0  0  0
  192.0410  174.2840  145.7120 C   0  0  0  0  0  2  0  0  0  0  0  0
  192.8340  175.0010  146.6100 O   0  0  0  0  0  0  0  0  0  0  0  0
  194.7970  176.0270  145.7630 C   0  0  2  0  0  3  0  0  0  0  0  0
  193.2860  176.0980  145.8780 C   0  0  2  0  0  3  0  0  0  0  0  0
  194.1560  176.9670  146.7620 C   0  0  0  0  0  2  0  0  0  0  0  0
  195.2190  176.7790  144.5960 N   0  0  0  0  0  2  0  0  0  0  0  0
  196.1770  175.9520  143.8870 C   0  0  2  0  0  3  0  0  0  0  0  0
  195.6090  175.5370  142.5860 C   0  0  2  0  0  3  0  0  0  0  0  0
  195.6320  174.6710  143.6960 O   0  0  0  0  0  0  0  0  0  0  0  0
  197.2480  173.8900  141.6750 O   0  0  0  0  0  1  0  0  0  0  0  0
  197.1500  176.0180  140.8280 O   0  0  0  0  0  0  0  0  0  0  0  0
  196.7010  175.1660  141.6400 C   0  0  0  0  0  0  0  0  0  0  0  0
  186.6810  176.4450  146.3170 C   0  0  0  0  0  2  0  0  0  0  0  0
  186.0130  178.9080  146.1830 N   0  0  0  0  0  2  0  0  0  0  0  0
  186.3550  177.7580  146.9640 C   0  0  0  0  0  0  0  0  0  0  0  0
  186.2790  177.8300  148.2190 O   0  0  0  0  0  0  0  0  0  0  0  0
  186.2750  179.0500  144.8090 N   0  0  0  0  0  2  0  0  0  0  0  0
  185.3660  178.6570  143.7740 C   0  0  0  0  0  0  0  0  0  0  0  0
  184.3790  177.9190  144.0340 O   0  0  0  0  0  0  0  0  0  0  0  0
  185.6480  179.0270  142.3560 C   0  0  0  0  0  2  0  0  0  0  0  0
  186.4460  177.5960  140.5550 N   0  0  0  0  0  1  0  0  0  0  0  0
  185.3050  177.8890  141.4040 C   0  0  2  0  0  3  0  0  0  0  0  0
  182.9650  178.3510  141.3090 O   0  0  0  0  0  1  0  0  0  0  0  0
  184.1240  178.2780  140.5350 C   0  0  0  0  0  2  0  0  0  0  0  0
  1  3  1  0  0  0  0
  2  5  2  0  0  0  0
  3  4  2  0  0  0  0
  4 10  1  0  0  0  0
  5  4  1  0  0  0  0
  5  7  1  0  0  0  0
  6  9  1  0  0  0  0
  7  6  2  0  0  0  0
  8  1  2  0  0  0  0
  8  2  1  0  0  0  0
 10 23  1  6  0  0  0
 10  9  1  0  0  0  0
 11  7  1  0  0  0  0
 11 12  1  0  0  0  0
 13 16  1  6  0  0  0
 13 14  1  0  0  0  0
 13 15  1  0  0  0  0
 14 12  1  1  0  0  0
 14 15  1  0  0  0  0
 17 16  1  1  0  0  0
 18 22  1  6  0  0  0
 18 19  1  0  0  0  0
 18 17  1  0  0  0  0
 19 17  1  0  0  0  0
 21 22  2  0  0  0  0
 22 20  1  0  0  0  0
 23 25  1  0  0  0  0
 24 25  1  0  0  0  0
 25 26  2  0  0  0  0
 27 24  1  0  0  0  0
 28 29  2  0  0  0  0
 28 27  1  0  0  0  0
 30 28  1  0  0  0  0
 32 31  1  6  0  0  0
 32 30  1  0  0  0  0
 34 33  1  0  0  0  0
 34 32  1  0  0  0  0
M  END
>  <MODEL>
7

>  <REMARK>
 VINA RESULT:      -6.9      2.606      4.697
  Name = 
  12 active torsions:
  status: ('A' for Active; 'I' for Inactive)
    1  A    between atoms: O_2  and  C_17
    2  A    between atoms: O_2  and  C_22
    3  A    between atoms: N_8  and  N_19
    4  A    between atoms: C_10  and  C_14
    5  A    between atoms: C_10  and  C_28
    6  A    between atoms: C_12  and  C_14
    7  A    between atoms: C_13  and  N_27
    8  A    between atoms: C_15  and  N_27
    9  A    between atoms: C_17  and  C_31
   10  A    between atoms: C_18  and  C_26
   11  A    between atoms: C_18  and  C_34
   12  A    between atoms: C_20  and  C_21
                            x       y       z     vdW  Elec       q    Type
                         _______ _______ _______ _____ _____    ______ ____

>  <TORSDO>
F 12

$$$$
=
 OpenBabel11062422053D

 34 37  0  0  1  0  0  0  0  0999 V2000
  189.0080  172.9230  142.6140 N   0  0  0  0  0  0  0  0  0  0  0  0
  190.8870  174.1750  143.3870 C   0  0  0  0  0  3  0  0  0  0  0  0
  188.3410  174.0640  142.2950 C   0  0  0  0  0  3  0  0  0  0  0  0
  188.9210  175.3170  142.5390 C   0  0  0  0  0  0  0  0  0  0  0  0
  190.2240  175.3680  143.0760 C   0  0  0  0  0  0  0  0  0  0  0  0
  190.1660  177.8050  143.1850 C   0  0  0  0  0  3  0  0  0  0  0  0
  190.8790  176.6800  143.2870 C   0  0  0  0  0  0  0  0  0  0  0  0
  190.2550  172.9540  143.1530 C   0  0  0  0  0  3  0  0  0  0  0  0
  188.6760  177.7670  143.0040 C   0  0  0  0  0  2  0  0  0  0  0  0
  188.2450  176.6020  142.1030 C   0  0  2  0  0  3  0  0  0  0  0  0
  192.3510  176.7790  143.5110 C   0  0  0  0  0  2  0  0  0  0  0  0
  192.6040  177.0910  144.8480 O   0  0  0  0  0  0  0  0  0  0  0  0
  194.0690  175.7230  146.1140 C   0  0  2  0  0  3  0  0  0  0  0  0
  193.9500  176.7790  145.0320 C   0  0  2  0  0  3  0  0  0  0  0  0
  194.3690  177.1720  146.4330 C   0  0  0  0  0  2  0  0  0  0  0  0
  195.3150  175.0010  145.9350 N   0  0  0  0  0  2  0  0  0  0  0  0
  194.9660  173.6170  145.6760 C   0  0  2  0  0  3  0  0  0  0  0  0
  196.1790  172.8600  145.2970 C   0  0  2  0  0  3  0  0  0  0  0  0
  195.2530  173.3090  144.3360 O   0  0  0  0  0  0  0  0  0  0  0  0
  194.8430  170.7660  145.0550 O   0  0  0  0  0  0  0  0  0  0  0  0
  196.8170  170.7540  146.2200 O   0  0  0  0  0  1  0  0  0  0  0  0
  195.9770  171.4030  145.5440 C   0  0  0  0  0  0  0  0  0  0  0  0
  186.7200  176.4880  142.1100 C   0  0  0  0  0  2  0  0  0  0  0  0
  185.2050  178.5460  142.1230 N   0  0  0  0  0  2  0  0  0  0  0  0
  186.0740  177.6520  141.4200 C   0  0  0  0  0  0  0  0  0  0  0  0
  186.3790  177.9130  140.2260 O   0  0  0  0  0  0  0  0  0  0  0  0
  184.5970  178.2650  143.3590 N   0  0  0  0  0  2  0  0  0  0  0  0
  184.9010  178.9530  144.5770 C   0  0  0  0  0  0  0  0  0  0  0  0
  185.9250  179.6810  144.6640 O   0  0  0  0  0  0  0  0  0  0  0  0
  184.0660  178.7210  145.7920 C   0  0  0  0  0  2  0  0  0  0  0  0
  185.7180  178.7160  147.5810 N   0  0  0  0  0  1  0  0  0  0  0  0
  184.8040  177.8790  146.8240 C   0  0  2  0  0  3  0  0  0  0  0  0
  186.9180  176.8020  146.5600 O   0  0  0  0  0  1  0  0  0  0  0  0
  185.5900  176.7820  146.1310 C   0  0  0  0  0  2  0  0  0  0  0  0
  1  8  1  0  0  0  0
  3  4  1  0  0  0  0
  3  1  2  0  0  0  0
  4  5  2  0  0  0  0
  5  7  1  0  0  0  0
  5  2  1  0  0  0  0
  6  7  2  0  0  0  0
  7 11  1  0  0  0  0
  8  2  2  0  0  0  0
  9  6  1  0  0  0  0
 10 23  1  1  0  0  0
 10  4  1  0  0  0  0
 10  9  1  0  0  0  0
 11 12  1  0  0  0  0
 13 16  1  6  0  0  0
 13 15  1  0  0  0  0
 14 12  1  1  0  0  0
 14 13  1  0  0  0  0
 14 15  1  0  0  0  0
 17 16  1  6  0  0  0
 18 22  1  1  0  0  0
 18 17  1  0  0  0  0
 19 18  1  0  0  0  0
 19 17  1  0  0  0  0
 20 22  2  0  0  0  0
 22 21  1  0  0  0  0
 24 27  1  0  0  0  0
 25 23  1  0  0  0  0
 25 24  1  0  0  0  0
 26 25  2  0  0  0  0
 27 28  1  0  0  0  0
 28 29  2  0  0  0  0
 28 30  1  0  0  0  0
 30 32  1  0  0  0  0
 32 31  1  6  0  0  0
 34 33  1  0  0  0  0
 34 32  1  0  0  0  0
M  END
>  <MODEL>
8

>  <REMARK>
 VINA RESULT:      -6.7      3.249      5.274
  Name = 
  12 active torsions:
  status: ('A' for Active; 'I' for Inactive)
    1  A    between atoms: O_2  and  C_17
    2  A    between atoms: O_2  and  C_22
    3  A    between atoms: N_8  and  N_19
    4  A    between atoms: C_10  and  C_14
    5  A    between atoms: C_10  and  C_28
    6  A    between atoms: C_12  and  C_14
    7  A    between atoms: C_13  and  N_27
    8  A    between atoms: C_15  and  N_27
    9  A    between atoms: C_17  and  C_31
   10  A    between atoms: C_18  and  C_26
   11  A    between atoms: C_18  and  C_34
   12  A    between atoms: C_20  and  C_21
                            x       y       z     vdW  Elec       q    Type
                         _______ _______ _______ _____ _____    ______ ____

>  <TORSDO>
F 12

$$$$
=
 OpenBabel11062422053D

 34 37  0  0  1  0  0  0  0  0999 V2000
  189.3020  176.3340  146.8980 N   0  0  0  0  0  0  0  0  0  0  0  0
  188.4150  177.4700  144.9950 C   0  0  0  0  0  3  0  0  0  0  0  0
  189.7310  175.3050  146.1210 C   0  0  0  0  0  3  0  0  0  0  0  0
  189.4910  175.3090  144.7400 C   0  0  0  0  0  0  0  0  0  0  0  0
  188.8380  176.4220  144.1700 C   0  0  0  0  0  0  0  0  0  0  0  0
  188.8430  175.3880  141.9590 C   0  0  0  0  0  3  0  0  0  0  0  0
  188.6260  176.4750  142.7040 C   0  0  0  0  0  0  0  0  0  0  0  0
  188.6520  177.4040  146.3690 C   0  0  0  0  0  3  0  0  0  0  0  0
  189.1600  174.0630  142.5920 C   0  0  0  0  0  2  0  0  0  0  0  0
  190.0440  174.2260  143.8350 C   0  0  2  0  0  3  0  0  0  0  0  0
  188.2720  177.7550  142.0220 C   0  0  0  0  0  2  0  0  0  0  0  0
  187.1950  177.5450  141.1590 O   0  0  0  0  0  0  0  0  0  0  0  0
  185.0090  177.5670  142.0770 C   0  0  2  0  0  3  0  0  0  0  0  0
  186.1970  178.3970  141.6310 C   0  0  2  0  0  3  0  0  0  0  0  0
  184.9770  178.2800  140.7420 C   0  0  0  0  0  2  0  0  0  0  0  0
  184.2410  178.3250  143.0480 N   0  0  0  0  0  2  0  0  0  0  0  0
  185.0900  178.5030  144.2110 C   0  0  2  0  0  3  0  0  0  0  0  0
  184.2520  178.6930  145.4140 C   0  0  2  0  0  3  0  0  0  0  0  0
  184.8650  179.7780  144.7580 O   0  0  0  0  0  0  0  0  0  0  0  0
  185.1600  177.0230  147.0300 O   0  0  0  0  0  0  0  0  0  0  0  0
  185.5340  179.2620  147.3450 O   0  0  0  0  0  1  0  0  0  0  0  0
  185.0260  178.3500  146.6420 C   0  0  0  0  0  0  0  0  0  0  0  0
  190.1720  172.8810  144.5500 C   0  0  0  0  0  2  0  0  0  0  0  0
  192.6950  172.4830  144.6520 N   0  0  0  0  0  0  0  0  0  0  0  0
  191.4080  172.1440  144.1260 C   0  0  0  0  0  0  0  0  0  0  0  0
  191.3030  171.1390  143.3740 O   0  0  0  0  0  0  0  0  0  0  0  0
  193.0020  173.6930  145.3000 N   0  0  0  0  0  0  0  0  0  0  0  0
  194.3330  174.1290  145.5940 C   0  0  0  0  0  0  0  0  0  0  0  0
  195.3020  173.3280  145.5200 O   0  0  0  0  0  0  0  0  0  0  0  0
  194.5680  175.5120  146.1040 C   0  0  0  0  0  2  0  0  0  0  0  0
  192.9370  176.7060  144.7450 N   0  0  0  0  0  1  0  0  0  0  0  0
  194.3560  176.5520  145.0120 C   0  0  2  0  0  3  0  0  0  0  0  0
  196.4370  176.2890  143.8710 O   0  0  0  0  0  1  0  0  0  0  0  0
  195.0580  176.1170  143.7390 C   0  0  0  0  0  2  0  0  0  0  0  0
  2  8  2  0  0  0  0
  3  1  2  0  0  0  0
  4  3  1  0  0  0  0
  5  4  2  0  0  0  0
  5  2  1  0  0  0  0
  6  9  1  0  0  0  0
  6  7  2  0  0  0  0
  7  5  1  0  0  0  0
  8  1  1  0  0  0  0
  9 10  1  0  0  0  0
 10 23  1  1  0  0  0
 10  4  1  0  0  0  0
 11  7  1  0  0  0  0
 12 11  1  0  0  0  0
 13 16  1  1  0  0  0
 14 12  1  6  0  0  0
 14 13  1  0  0  0  0
 15 14  1  0  0  0  0
 15 13  1  0  0  0  0
 17 16  1  6  0  0  0
 17 19  1  0  0  0  0
 17 18  1  0  0  0  0
 18 22  1  1  0  0  0
 19 18  1  0  0  0  0
 22 20  2  0  0  0  0
 22 21  1  0  0  0  0
 24 27  2  0  0  0  0
 25 23  1  0  0  0  0
 25 24  1  0  0  0  0
 26 25  2  0  0  0  0
 27 28  1  0  0  0  0
 28 30  1  0  0  0  0
 29 28  2  0  0  0  0
 32 31  1  6  0  0  0
 32 30  1  0  0  0  0
 34 33  1  0  0  0  0
 34 32  1  0  0  0  0
M  END
>  <MODEL>
9

>  <REMARK>
 VINA RESULT:      -6.6      2.901      9.910
  Name = 
  12 active torsions:
  status: ('A' for Active; 'I' for Inactive)
    1  A    between atoms: O_2  and  C_17
    2  A    between atoms: O_2  and  C_22
    3  A    between atoms: N_8  and  N_19
    4  A    between atoms: C_10  and  C_14
    5  A    between atoms: C_10  and  C_28
    6  A    between atoms: C_12  and  C_14
    7  A    between atoms: C_13  and  N_27
    8  A    between atoms: C_15  and  N_27
    9  A    between atoms: C_17  and  C_31
   10  A    between atoms: C_18  and  C_26
   11  A    between atoms: C_18  and  C_34
   12  A    between atoms: C_20  and  C_21
                            x       y       z     vdW  Elec       q    Type
                         _______ _______ _______ _____ _____    ______ ____

>  <TORSDO>
F 12

$$$$
