=
 OpenBabel11062421443D

 41 45  0  0  1  0  0  0  0  0999 V2000
  190.8940  176.5580  144.6690 C   0  0  0  0  0  2  0  0  0  0  0  0
  191.6420  176.4830  146.9850 N   0  0  0  0  0  0  0  0  0  0  0  0
  192.9220  176.7430  147.5120 N   0  0  0  0  0  2  0  0  0  0  0  0
  191.0330  175.4760  147.8370 C   0  0  0  0  0  1  0  0  0  0  0  0
  191.8220  175.8760  145.6690 C   0  0  2  0  0  3  0  0  0  0  0  0
  193.2650  176.0600  145.2710 C   0  0  1  0  0  3  0  0  0  0  0  0
  193.8140  176.9150  146.3790 C   0  0  0  0  0  2  0  0  0  0  0  0
  193.9500  174.7000  145.2790 C   0  0  0  0  0  2  0  0  0  0  0  0
  194.6010  175.3330  142.9850 C   0  0  0  0  0  3  0  0  0  0  0  0
  188.0270  173.6400  141.5470 C   0  0  0  0  0  2  0  0  0  0  0  0
  194.1780  174.1860  143.8660 C   0  0  2  0  0  3  0  0  0  0  0  0
  192.9800  173.4960  143.3750 N   0  0  0  0  0  0  0  0  0  0  0  0
  190.4330  173.5000  140.7000 C   0  0  0  0  0  2  0  0  0  0  0  0
  188.2520  172.3000  142.2550 C   0  0  0  0  0  2  0  0  0  0  0  0
  192.8380  174.8980  141.4880 N   0  0  0  0  0  2  0  0  0  0  0  0
  191.1900  173.0780  141.8740 N   0  0  0  0  0  0  0  0  0  0  0  0
  189.3370  172.3580  143.3210 C   0  0  0  0  0  2  0  0  0  0  0  0
  193.9640  175.6300  141.8950 N   0  0  0  0  0  0  0  0  0  0  0  0
  189.2910  174.4070  141.1370 C   0  0  0  0  0  2  0  0  0  0  0  0
  192.3550  173.8110  142.2810 C   0  0  0  0  0  0  0  0  0  0  0  0
  190.6790  171.9880  142.7010 C   0  0  0  0  0  2  0  0  0  0  0  0
  189.5980  175.7800  144.4600 C   0  0  0  0  0  2  0  0  0  0  0  0
  186.3220  177.4390  147.5950 C   0  0  0  0  0  3  0  0  0  0  0  0
  185.1490  178.1390  147.8890 C   0  0  0  0  0  3  0  0  0  0  0  0
  187.7260  177.3140  143.6510 C   0  0  0  0  0  0  0  0  0  0  0  0
  184.4600  178.7650  146.8970 N   0  0  0  0  0  0  0  0  0  0  0  0
  188.3940  176.6370  144.7030 C   0  0  0  0  0  0  0  0  0  0  0  0
  186.7760  177.3940  146.2760 C   0  0  0  0  0  0  0  0  0  0  0  0
  184.8830  178.7350  145.6050 C   0  0  0  0  0  3  0  0  0  0  0  0
  187.9060  176.7080  145.9730 N   0  0  0  0  0  0  0  0  0  0  0  0
  186.0550  178.0480  145.2610 C   0  0  0  0  0  0  0  0  0  0  0  0
  186.5290  177.9940  143.9390 C   0  0  0  0  0  0  0  0  0  0  0  0
  188.1910  177.3290  142.3250 O   0  0  0  0  0  0  0  0  0  0  0  0
  189.0840  178.2990  141.7970 C   0  0  0  0  0  1  0  0  0  0  0  0
  185.8040  178.7110  142.8400 C   0  0  0  0  0  2  0  0  0  0  0  0
  184.9590  177.8130  142.1670 O   0  0  0  0  0  0  0  0  0  0  0  0
  184.7890  178.2570  140.8380 C   0  0  1  0  0  3  0  0  0  0  0  0
  185.8010  177.7770  139.9960 O   0  0  0  0  0  1  0  0  0  0  0  0
  183.4010  177.9300  140.2880 C   0  0  0  0  0  2  0  0  0  0  0  0
  181.2360  178.8450  140.6320 O   0  0  0  0  0  1  0  0  0  0  0  0
  182.3350  178.3060  141.2980 C   0  0  0  0  0  2  0  0  0  0  0  0
  2  3  1  0  0  0  0
  2  4  1  0  0  0  0
  5  1  1  6  0  0  0
  5  2  1  0  0  0  0
  6  8  1  1  0  0  0
  6  5  1  0  0  0  0
  6  7  1  0  0  0  0
  7  3  1  0  0  0  0
  9 11  1  0  0  0  0
 10 14  1  0  0  0  0
 11  8  1  1  0  0  0
 12 11  1  0  0  0  0
 13 19  1  0  0  0  0
 13 16  1  0  0  0  0
 14 17  1  0  0  0  0
 15 18  1  0  0  0  0
 15 20  1  0  0  0  0
 16 20  1  0  0  0  0
 16 21  1  0  0  0  0
 18  9  2  0  0  0  0
 19 10  1  0  0  0  0
 20 12  2  0  0  0  0
 21 17  1  0  0  0  0
 22  1  1  0  0  0  0
 22 27  1  0  0  0  0
 23 24  1  0  0  0  0
 25 32  2  0  0  0  0
 25 27  1  0  0  0  0
 26 24  2  0  0  0  0
 27 30  2  0  0  0  0
 28 23  2  0  0  0  0
 29 26  1  0  0  0  0
 30 28  1  0  0  0  0
 31 29  2  0  0  0  0
 31 28  1  0  0  0  0
 32 31  1  0  0  0  0
 33 25  1  0  0  0  0
 34 33  1  0  0  0  0
 35 32  1  0  0  0  0
 36 35  1  0  0  0  0
 37 38  1  6  0  0  0
 37 36  1  0  0  0  0
 39 37  1  0  0  0  0
 39 41  1  0  0  0  0
 40 41  1  0  0  0  0
M  END
>  <MODEL>
1

>  <REMARK>
 VINA RESULT:      -7.3      0.000      0.000
  Name = 
  11 active torsions:
  status: ('A' for Active; 'I' for Inactive)
    1  A    between atoms: C_1  and  O_7
    2  A    between atoms: C_1  and  C_39
    3  A    between atoms: C_6  and  C_23
    4  A    between atoms: C_6  and  C_41
    5  A    between atoms: O_7  and  C_38
    6  A    between atoms: O_8  and  C_12
    7  A    between atoms: C_9  and  C_36
    8  A    between atoms: C_18  and  C_41
    9  A    between atoms: C_34  and  C_36
   10  A    between atoms: C_35  and  C_39
   11  A    between atoms: C_38  and  C_40
                            x       y       z     vdW  Elec       q    Type
                         _______ _______ _______ _____ _____    ______ ____

>  <TORSDO>
F 11

$$$$
=
 OpenBabel11062421443D

 41 45  0  0  1  0  0  0  0  0999 V2000
  192.5400  176.0860  143.5490 C   0  0  0  0  0  2  0  0  0  0  0  0
  194.6540  176.6300  144.6260 N   0  0  0  0  0  0  0  0  0  0  0  0
  195.8710  175.9210  144.6010 N   0  0  0  0  0  2  0  0  0  0  0  0
  194.5790  177.2900  145.9190 C   0  0  0  0  0  1  0  0  0  0  0  0
  193.5720  175.6520  144.5840 C   0  0  2  0  0  3  0  0  0  0  0  0
  194.1720  174.3180  144.2140 C   0  0  1  0  0  3  0  0  0  0  0  0
  195.6070  174.6620  143.9270 C   0  0  0  0  0  2  0  0  0  0  0  0
  194.0920  173.3950  145.4220 C   0  0  0  0  0  2  0  0  0  0  0  0
  194.5480  171.3650  144.0970 C   0  0  0  0  0  3  0  0  0  0  0  0
  188.9870  173.4640  140.5160 C   0  0  0  0  0  2  0  0  0  0  0  0
  193.5690  172.0200  145.0370 C   0  0  2  0  0  3  0  0  0  0  0  0
  192.2180  172.1280  144.4750 N   0  0  0  0  0  0  0  0  0  0  0  0
  190.1790  171.4190  141.4780 C   0  0  0  0  0  2  0  0  0  0  0  0
  188.2190  173.5750  141.8380 C   0  0  0  0  0  2  0  0  0  0  0  0
  192.8640  171.0500  142.4840 N   0  0  0  0  0  2  0  0  0  0  0  0
  190.5300  171.8290  142.8340 N   0  0  0  0  0  0  0  0  0  0  0  0
  189.1210  173.8330  143.0370 C   0  0  0  0  0  2  0  0  0  0  0  0
  194.1880  170.9250  142.9310 N   0  0  0  0  0  0  0  0  0  0  0  0
  190.2690  172.6230  140.5500 C   0  0  0  0  0  2  0  0  0  0  0  0
  191.8790  171.6830  143.3040 C   0  0  0  0  0  0  0  0  0  0  0  0
  189.5320  172.5040  143.6590 C   0  0  0  0  0  2  0  0  0  0  0  0
  191.8250  177.3730  143.9510 C   0  0  0  0  0  2  0  0  0  0  0  0
  187.8920  177.6170  141.1610 C   0  0  0  0  0  3  0  0  0  0  0  0
  186.5060  177.6010  140.9900 C   0  0  0  0  0  3  0  0  0  0  0  0
  189.5180  176.9710  144.9650 C   0  0  0  0  0  0  0  0  0  0  0  0
  185.6890  177.3910  142.0560 N   0  0  0  0  0  0  0  0  0  0  0  0
  190.3380  177.2370  143.8390 C   0  0  0  0  0  0  0  0  0  0  0  0
  188.4250  177.4110  142.4340 C   0  0  0  0  0  0  0  0  0  0  0  0
  186.1840  177.1880  143.3070 C   0  0  0  0  0  3  0  0  0  0  0  0
  189.7680  177.4360  142.6180 N   0  0  0  0  0  0  0  0  0  0  0  0
  187.5680  177.1920  143.5280 C   0  0  0  0  0  0  0  0  0  0  0  0
  188.1220  176.9840  144.8030 C   0  0  0  0  0  0  0  0  0  0  0  0
  190.0310  176.7080  146.2470 O   0  0  0  0  0  0  0  0  0  0  0  0
  190.4570  175.4300  146.6960 C   0  0  0  0  0  1  0  0  0  0  0  0
  187.2380  176.7110  145.9820 C   0  0  0  0  0  2  0  0  0  0  0  0
  187.2420  177.8220  146.8430 O   0  0  0  0  0  0  0  0  0  0  0  0
  185.9610  177.9540  147.4220 C   0  0  1  0  0  3  0  0  0  0  0  0
  185.7280  179.2580  147.8780 O   0  0  0  0  0  1  0  0  0  0  0  0
  184.8480  177.4780  146.4910 C   0  0  0  0  0  2  0  0  0  0  0  0
  184.4220  179.3090  145.0370 O   0  0  0  0  0  1  0  0  0  0  0  0
  183.9240  178.6300  146.1470 C   0  0  0  0  0  2  0  0  0  0  0  0
  1 22  1  0  0  0  0
  2  4  1  0  0  0  0
  3  2  1  0  0  0  0
  5  1  1  6  0  0  0
  5  2  1  0  0  0  0
  6  5  1  0  0  0  0
  6  8  1  1  0  0  0
  7  6  1  0  0  0  0
  7  3  1  0  0  0  0
  9 11  1  0  0  0  0
 10 19  1  0  0  0  0
 10 14  1  0  0  0  0
 11  8  1  6  0  0  0
 12 11  1  0  0  0  0
 13 16  1  0  0  0  0
 14 17  1  0  0  0  0
 15 18  1  0  0  0  0
 15 20  1  0  0  0  0
 16 20  1  0  0  0  0
 16 21  1  0  0  0  0
 17 21  1  0  0  0  0
 18  9  2  0  0  0  0
 19 13  1  0  0  0  0
 20 12  2  0  0  0  0
 23 28  1  0  0  0  0
 24 23  2  0  0  0  0
 24 26  1  0  0  0  0
 25 33  1  0  0  0  0
 26 29  2  0  0  0  0
 27 22  1  0  0  0  0
 27 25  2  0  0  0  0
 28 30  2  0  0  0  0
 28 31  1  0  0  0  0
 29 31  1  0  0  0  0
 30 27  1  0  0  0  0
 31 32  2  0  0  0  0
 32 25  1  0  0  0  0
 32 35  1  0  0  0  0
 33 34  1  0  0  0  0
 35 36  1  0  0  0  0
 36 37  1  0  0  0  0
 37 38  1  6  0  0  0
 39 37  1  0  0  0  0
 40 41  1  0  0  0  0
 41 39  1  0  0  0  0
M  END
>  <MODEL>
2

>  <REMARK>
 VINA RESULT:      -7.3      2.509      4.034
  Name = 
  11 active torsions:
  status: ('A' for Active; 'I' for Inactive)
    1  A    between atoms: C_1  and  O_7
    2  A    between atoms: C_1  and  C_39
    3  A    between atoms: C_6  and  C_23
    4  A    between atoms: C_6  and  C_41
    5  A    between atoms: O_7  and  C_38
    6  A    between atoms: O_8  and  C_12
    7  A    between atoms: C_9  and  C_36
    8  A    between atoms: C_18  and  C_41
    9  A    between atoms: C_34  and  C_36
   10  A    between atoms: C_35  and  C_39
   11  A    between atoms: C_38  and  C_40
                            x       y       z     vdW  Elec       q    Type
                         _______ _______ _______ _____ _____    ______ ____

>  <TORSDO>
F 11

$$$$
=
 OpenBabel11062421443D

 41 45  0  0  1  0  0  0  0  0999 V2000
  192.1950  173.0150  144.6590 C   0  0  0  0  0  2  0  0  0  0  0  0
  191.9920  170.7800  143.7170 N   0  0  0  0  0  0  0  0  0  0  0  0
  192.7100  169.6130  144.0410 N   0  0  0  0  0  2  0  0  0  0  0  0
  191.6620  170.6930  142.3050 C   0  0  0  0  0  1  0  0  0  0  0  0
  192.8980  171.9140  143.8740 C   0  0  2  0  0  3  0  0  0  0  0  0
  194.1200  171.4260  144.6130 C   0  0  1  0  0  3  0  0  0  0  0  0
  193.7600  170.0100  144.9620 C   0  0  0  0  0  2  0  0  0  0  0  0
  195.3040  171.4390  143.6560 C   0  0  0  0  0  2  0  0  0  0  0  0
  196.6660  172.7040  145.2780 C   0  0  0  0  0  3  0  0  0  0  0  0
  191.6620  177.4510  144.5120 C   0  0  0  0  0  2  0  0  0  0  0  0
  196.1670  172.6760  143.8570 C   0  0  2  0  0  3  0  0  0  0  0  0
  195.4190  173.8840  143.4860 N   0  0  0  0  0  0  0  0  0  0  0  0
  194.1840  177.1230  144.7600 C   0  0  0  0  0  2  0  0  0  0  0  0
  191.8500  177.3560  142.9940 C   0  0  0  0  0  2  0  0  0  0  0  0
  195.7570  174.8500  145.6070 N   0  0  0  0  0  2  0  0  0  0  0  0
  194.4850  176.0370  143.8320 N   0  0  0  0  0  0  0  0  0  0  0  0
  192.3940  176.0090  142.5390 C   0  0  0  0  0  2  0  0  0  0  0  0
  196.4640  173.7240  146.0540 N   0  0  0  0  0  0  0  0  0  0  0  0
  192.8070  176.8960  145.3690 C   0  0  0  0  0  2  0  0  0  0  0  0
  195.2270  174.8920  144.2800 C   0  0  0  0  0  0  0  0  0  0  0  0
  193.9160  176.0660  142.4880 C   0  0  0  0  0  2  0  0  0  0  0  0
  190.7330  172.6810  144.9410 C   0  0  0  0  0  2  0  0  0  0  0  0
  188.4100  175.3320  141.6420 C   0  0  0  0  0  3  0  0  0  0  0  0
  187.6530  176.4470  141.2760 C   0  0  0  0  0  3  0  0  0  0  0  0
  189.3950  174.7290  145.6670 C   0  0  0  0  0  0  0  0  0  0  0  0
  187.2500  177.3400  142.2190 N   0  0  0  0  0  0  0  0  0  0  0  0
  189.8340  173.8420  144.6500 C   0  0  0  0  0  0  0  0  0  0  0  0
  188.7420  175.1440  142.9840 C   0  0  0  0  0  0  0  0  0  0  0  0
  187.5610  177.1790  143.5330 C   0  0  0  0  0  3  0  0  0  0  0  0
  189.4860  174.0730  143.3540 N   0  0  0  0  0  0  0  0  0  0  0  0
  188.3160  176.0740  143.9500 C   0  0  0  0  0  0  0  0  0  0  0  0
  188.6580  175.8680  145.2980 C   0  0  0  0  0  0  0  0  0  0  0  0
  189.6700  174.5340  147.0320 O   0  0  0  0  0  0  0  0  0  0  0  0
  190.7360  175.1550  147.7340 C   0  0  0  0  0  1  0  0  0  0  0  0
  188.1890  176.8200  146.3570 C   0  0  0  0  0  2  0  0  0  0  0  0
  187.0020  176.3370  146.9340 O   0  0  0  0  0  0  0  0  0  0  0  0
  186.1100  177.4170  147.1140 C   0  0  1  0  0  3  0  0  0  0  0  0
  186.6780  178.6320  146.7100 O   0  0  0  0  0  1  0  0  0  0  0  0
  184.7610  177.1770  146.4400 C   0  0  0  0  0  2  0  0  0  0  0  0
  184.2980  178.3470  144.4240 O   0  0  0  0  0  1  0  0  0  0  0  0
  184.2520  178.4600  145.8120 C   0  0  0  0  0  2  0  0  0  0  0  0
  1 22  1  0  0  0  0
  2  5  1  0  0  0  0
  2  3  1  0  0  0  0
  3  7  1  0  0  0  0
  4  2  1  0  0  0  0
  5  6  1  0  0  0  0
  5  1  1  1  0  0  0
  6  8  1  6  0  0  0
  6  7  1  0  0  0  0
  9 18  2  0  0  0  0
 10 19  1  0  0  0  0
 11  8  1  1  0  0  0
 11  9  1  0  0  0  0
 12 11  1  0  0  0  0
 12 20  2  0  0  0  0
 13 19  1  0  0  0  0
 14 10  1  0  0  0  0
 15 18  1  0  0  0  0
 16 20  1  0  0  0  0
 16 13  1  0  0  0  0
 17 14  1  0  0  0  0
 20 15  1  0  0  0  0
 21 17  1  0  0  0  0
 21 16  1  0  0  0  0
 23 28  1  0  0  0  0
 24 23  2  0  0  0  0
 24 26  1  0  0  0  0
 25 33  1  0  0  0  0
 26 29  2  0  0  0  0
 27 22  1  0  0  0  0
 27 25  2  0  0  0  0
 28 30  2  0  0  0  0
 28 31  1  0  0  0  0
 29 31  1  0  0  0  0
 30 27  1  0  0  0  0
 31 32  2  0  0  0  0
 32 25  1  0  0  0  0
 32 35  1  0  0  0  0
 33 34  1  0  0  0  0
 35 36  1  0  0  0  0
 36 37  1  0  0  0  0
 37 38  1  6  0  0  0
 39 37  1  0  0  0  0
 40 41  1  0  0  0  0
 41 39  1  0  0  0  0
M  END
>  <MODEL>
3

>  <REMARK>
 VINA RESULT:      -7.0      2.731      5.293
  Name = 
  11 active torsions:
  status: ('A' for Active; 'I' for Inactive)
    1  A    between atoms: C_1  and  O_7
    2  A    between atoms: C_1  and  C_39
    3  A    between atoms: C_6  and  C_23
    4  A    between atoms: C_6  and  C_41
    5  A    between atoms: O_7  and  C_38
    6  A    between atoms: O_8  and  C_12
    7  A    between atoms: C_9  and  C_36
    8  A    between atoms: C_18  and  C_41
    9  A    between atoms: C_34  and  C_36
   10  A    between atoms: C_35  and  C_39
   11  A    between atoms: C_38  and  C_40
                            x       y       z     vdW  Elec       q    Type
                         _______ _______ _______ _____ _____    ______ ____

>  <TORSDO>
F 11

$$$$
=
 OpenBabel11062421443D

 41 45  0  0  1  0  0  0  0  0999 V2000
  192.8220  175.9100  143.3570 C   0  0  0  0  0  2  0  0  0  0  0  0
  194.9870  176.2560  144.4130 N   0  0  0  0  0  0  0  0  0  0  0  0
  196.2310  176.5340  143.8150 N   0  0  0  0  0  2  0  0  0  0  0  0
  195.2620  175.4810  145.6120 C   0  0  0  0  0  1  0  0  0  0  0  0
  194.2460  175.3860  143.5050 C   0  0  2  0  0  3  0  0  0  0  0  0
  194.9600  175.3930  142.1760 C   0  0  1  0  0  3  0  0  0  0  0  0
  196.0400  176.4180  142.3800 C   0  0  0  0  0  2  0  0  0  0  0  0
  195.5810  174.0220  141.9490 C   0  0  0  0  0  2  0  0  0  0  0  0
  194.8860  174.2570  139.5940 C   0  0  0  0  0  3  0  0  0  0  0  0
  188.5230  173.5520  142.2730 C   0  0  0  0  0  2  0  0  0  0  0  0
  194.9410  173.3120  140.7660 C   0  0  2  0  0  3  0  0  0  0  0  0
  193.6240  172.7830  141.1410 N   0  0  0  0  0  0  0  0  0  0  0  0
  190.0270  172.9040  140.3120 C   0  0  0  0  0  2  0  0  0  0  0  0
  189.0020  172.2870  142.9920 C   0  0  0  0  0  2  0  0  0  0  0  0
  192.5600  173.9550  139.3960 N   0  0  0  0  0  2  0  0  0  0  0  0
  191.2760  172.5010  140.9510 N   0  0  0  0  0  0  0  0  0  0  0  0
  190.4990  172.2860  143.2730 C   0  0  0  0  0  2  0  0  0  0  0  0
  193.7730  174.5260  138.9840 N   0  0  0  0  0  0  0  0  0  0  0  0
  189.3970  174.0370  141.1090 C   0  0  0  0  0  2  0  0  0  0  0  0
  192.5220  173.0680  140.5170 C   0  0  0  0  0  0  0  0  0  0  0  0
  191.2320  171.6210  142.1150 C   0  0  0  0  0  2  0  0  0  0  0  0
  191.9110  175.4350  144.4850 C   0  0  0  0  0  2  0  0  0  0  0  0
  188.7530  177.9480  141.8350 C   0  0  0  0  0  3  0  0  0  0  0  0
  187.5140  178.5710  141.6670 C   0  0  0  0  0  3  0  0  0  0  0  0
  189.5600  175.8660  145.3780 C   0  0  0  0  0  0  0  0  0  0  0  0
  186.5810  178.5140  142.6540 N   0  0  0  0  0  0  0  0  0  0  0  0
  190.5250  175.9840  144.3450 C   0  0  0  0  0  0  0  0  0  0  0  0
  189.0170  177.2650  143.0230 C   0  0  0  0  0  0  0  0  0  0  0  0
  186.8140  177.8550  143.8210 C   0  0  0  0  0  3  0  0  0  0  0  0
  190.2190  176.6650  143.2070 N   0  0  0  0  0  0  0  0  0  0  0  0
  188.0410  177.2120  144.0350 C   0  0  0  0  0  0  0  0  0  0  0  0
  188.3230  176.5170  145.2240 C   0  0  0  0  0  0  0  0  0  0  0  0
  189.7800  175.1390  146.5610 O   0  0  0  0  0  0  0  0  0  0  0  0
  190.5500  175.6050  147.6600 C   0  0  0  0  0  1  0  0  0  0  0  0
  187.2910  176.4100  146.3060 C   0  0  0  0  0  2  0  0  0  0  0  0
  187.4670  177.4530  147.2320 O   0  0  0  0  0  0  0  0  0  0  0  0
  186.2000  177.8700  147.6930 C   0  0  1  0  0  3  0  0  0  0  0  0
  186.1610  179.2510  147.9300 O   0  0  0  0  0  1  0  0  0  0  0  0
  185.0680  177.4290  146.7670 C   0  0  0  0  0  2  0  0  0  0  0  0
  183.8190  178.6460  145.1540 O   0  0  0  0  0  1  0  0  0  0  0  0
  184.1180  178.5840  146.5130 C   0  0  0  0  0  2  0  0  0  0  0  0
  1 22  1  0  0  0  0
  2  4  1  0  0  0  0
  3  2  1  0  0  0  0
  5  1  1  6  0  0  0
  5  2  1  0  0  0  0
  6  8  1  1  0  0  0
  6  7  1  0  0  0  0
  6  5  1  0  0  0  0
  7  3  1  0  0  0  0
  9 11  1  0  0  0  0
 10 14  1  0  0  0  0
 11 12  1  0  0  0  0
 11  8  1  1  0  0  0
 13 16  1  0  0  0  0
 13 19  1  0  0  0  0
 14 17  1  0  0  0  0
 15 20  1  0  0  0  0
 16 21  1  0  0  0  0
 18 15  1  0  0  0  0
 18  9  2  0  0  0  0
 19 10  1  0  0  0  0
 20 16  1  0  0  0  0
 20 12  2  0  0  0  0
 21 17  1  0  0  0  0
 23 28  1  0  0  0  0
 24 23  2  0  0  0  0
 24 26  1  0  0  0  0
 25 33  1  0  0  0  0
 26 29  2  0  0  0  0
 27 22  1  0  0  0  0
 27 25  2  0  0  0  0
 28 30  2  0  0  0  0
 28 31  1  0  0  0  0
 29 31  1  0  0  0  0
 30 27  1  0  0  0  0
 31 32  2  0  0  0  0
 32 25  1  0  0  0  0
 32 35  1  0  0  0  0
 33 34  1  0  0  0  0
 35 36  1  0  0  0  0
 36 37  1  0  0  0  0
 37 38  1  6  0  0  0
 39 37  1  0  0  0  0
 40 41  1  0  0  0  0
 41 39  1  0  0  0  0
M  END
>  <MODEL>
4

>  <REMARK>
 VINA RESULT:      -6.9      2.552      4.124
  Name = 
  11 active torsions:
  status: ('A' for Active; 'I' for Inactive)
    1  A    between atoms: C_1  and  O_7
    2  A    between atoms: C_1  and  C_39
    3  A    between atoms: C_6  and  C_23
    4  A    between atoms: C_6  and  C_41
    5  A    between atoms: O_7  and  C_38
    6  A    between atoms: O_8  and  C_12
    7  A    between atoms: C_9  and  C_36
    8  A    between atoms: C_18  and  C_41
    9  A    between atoms: C_34  and  C_36
   10  A    between atoms: C_35  and  C_39
   11  A    between atoms: C_38  and  C_40
                            x       y       z     vdW  Elec       q    Type
                         _______ _______ _______ _____ _____    ______ ____

>  <TORSDO>
F 11

$$$$
=
 OpenBabel11062421443D

 41 45  0  0  1  0  0  0  0  0999 V2000
  191.8330  176.4470  144.1480 C   0  0  0  0  0  2  0  0  0  0  0  0
  192.7150  176.4070  146.4160 N   0  0  0  0  0  0  0  0  0  0  0  0
  193.9740  176.8270  146.8860 N   0  0  0  0  0  2  0  0  0  0  0  0
  192.3010  175.2990  147.2600 C   0  0  0  0  0  1  0  0  0  0  0  0
  192.9010  175.8720  145.0710 C   0  0  2  0  0  3  0  0  0  0  0  0
  194.2810  176.2680  144.6060 C   0  0  1  0  0  3  0  0  0  0  0  0
  194.7680  177.1580  145.7150 C   0  0  0  0  0  2  0  0  0  0  0  0
  195.1460  175.0180  144.5260 C   0  0  0  0  0  2  0  0  0  0  0  0
  195.2630  175.4330  142.0970 C   0  0  0  0  0  3  0  0  0  0  0  0
  188.5630  173.6380  142.3120 C   0  0  0  0  0  2  0  0  0  0  0  0
  195.0650  174.3740  143.1500 C   0  0  2  0  0  3  0  0  0  0  0  0
  193.8000  173.6460  143.0020 N   0  0  0  0  0  0  0  0  0  0  0  0
  190.7250  173.4120  140.9690 C   0  0  0  0  0  2  0  0  0  0  0  0
  188.9620  172.3680  143.0710 C   0  0  0  0  0  2  0  0  0  0  0  0
  193.2200  174.8680  141.0740 N   0  0  0  0  0  2  0  0  0  0  0  0
  191.7300  173.0970  141.9800 N   0  0  0  0  0  0  0  0  0  0  0  0
  190.2550  172.5210  143.8600 C   0  0  0  0  0  2  0  0  0  0  0  0
  194.3960  175.6300  141.1530 N   0  0  0  0  0  0  0  0  0  0  0  0
  189.6920  174.3590  141.5640 C   0  0  0  0  0  2  0  0  0  0  0  0
  192.9440  173.8610  142.0500 C   0  0  0  0  0  0  0  0  0  0  0  0
  191.4330  172.0900  142.9950 C   0  0  0  0  0  2  0  0  0  0  0  0
  190.8670  177.3700  144.8860 C   0  0  0  0  0  2  0  0  0  0  0  0
  187.7470  177.9150  141.2430 C   0  0  0  0  0  3  0  0  0  0  0  0
  186.4500  177.8930  140.7240 C   0  0  0  0  0  3  0  0  0  0  0  0
  188.4070  176.7820  145.2200 C   0  0  0  0  0  0  0  0  0  0  0  0
  185.4050  177.5200  141.5110 N   0  0  0  0  0  0  0  0  0  0  0  0
  189.4650  177.2190  144.3830 C   0  0  0  0  0  0  0  0  0  0  0  0
  187.9560  177.5450  142.5720 C   0  0  0  0  0  0  0  0  0  0  0  0
  185.5840  177.1560  142.8100 C   0  0  0  0  0  3  0  0  0  0  0  0
  189.2070  177.5730  143.0940 N   0  0  0  0  0  0  0  0  0  0  0  0
  186.8670  177.1590  143.3740 C   0  0  0  0  0  0  0  0  0  0  0  0
  187.0960  176.7880  144.7100 C   0  0  0  0  0  0  0  0  0  0  0  0
  188.5980  176.3540  146.5450 O   0  0  0  0  0  0  0  0  0  0  0  0
  188.9420  175.0290  146.9210 C   0  0  0  0  0  1  0  0  0  0  0  0
  185.9630  176.3360  145.5800 C   0  0  0  0  0  2  0  0  0  0  0  0
  185.8780  177.1620  146.7140 O   0  0  0  0  0  0  0  0  0  0  0  0
  184.8730  178.1290  146.4990 C   0  0  1  0  0  3  0  0  0  0  0  0
  184.0650  178.3010  147.6310 O   0  0  0  0  0  1  0  0  0  0  0  0
  185.4400  179.4600  146.0090 C   0  0  0  0  0  2  0  0  0  0  0  0
  185.7550  180.4400  143.8680 O   0  0  0  0  0  1  0  0  0  0  0  0
  184.7980  179.8510  144.6920 C   0  0  0  0  0  2  0  0  0  0  0  0
  1 22  1  0  0  0  0
  2  3  1  0  0  0  0
  2  4  1  0  0  0  0
  5  1  1  6  0  0  0
  5  2  1  0  0  0  0
  6  8  1  1  0  0  0
  6  5  1  0  0  0  0
  6  7  1  0  0  0  0
  7  3  1  0  0  0  0
  9 11  1  0  0  0  0
 10 14  1  0  0  0  0
 11  8  1  1  0  0  0
 12 11  1  0  0  0  0
 13 19  1  0  0  0  0
 13 16  1  0  0  0  0
 14 17  1  0  0  0  0
 15 18  1  0  0  0  0
 15 20  1  0  0  0  0
 16 20  1  0  0  0  0
 16 21  1  0  0  0  0
 18  9  2  0  0  0  0
 19 10  1  0  0  0  0
 20 12  2  0  0  0  0
 21 17  1  0  0  0  0
 23 28  1  0  0  0  0
 24 23  2  0  0  0  0
 24 26  1  0  0  0  0
 25 33  1  0  0  0  0
 26 29  2  0  0  0  0
 27 22  1  0  0  0  0
 27 25  2  0  0  0  0
 28 30  2  0  0  0  0
 28 31  1  0  0  0  0
 29 31  1  0  0  0  0
 30 27  1  0  0  0  0
 31 32  2  0  0  0  0
 32 25  1  0  0  0  0
 32 35  1  0  0  0  0
 33 34  1  0  0  0  0
 35 36  1  0  0  0  0
 37 36  1  0  0  0  0
 37 38  1  1  0  0  0
 39 37  1  0  0  0  0
 40 41  1  0  0  0  0
 41 39  1  0  0  0  0
M  END
>  <MODEL>
5

>  <REMARK>
 VINA RESULT:      -6.9      2.170      3.421
  Name = 
  11 active torsions:
  status: ('A' for Active; 'I' for Inactive)
    1  A    between atoms: C_1  and  O_7
    2  A    between atoms: C_1  and  C_39
    3  A    between atoms: C_6  and  C_23
    4  A    between atoms: C_6  and  C_41
    5  A    between atoms: O_7  and  C_38
    6  A    between atoms: O_8  and  C_12
    7  A    between atoms: C_9  and  C_36
    8  A    between atoms: C_18  and  C_41
    9  A    between atoms: C_34  and  C_36
   10  A    between atoms: C_35  and  C_39
   11  A    between atoms: C_38  and  C_40
                            x       y       z     vdW  Elec       q    Type
                         _______ _______ _______ _____ _____    ______ ____

>  <TORSDO>
F 11

$$$$
=
 OpenBabel11062421443D

 41 45  0  0  1  0  0  0  0  0999 V2000
  188.8210  174.9340  142.2940 C   0  0  0  0  0  2  0  0  0  0  0  0
  188.9060  172.8210  141.0880 N   0  0  0  0  0  0  0  0  0  0  0  0
  189.8420  171.7750  141.1960 N   0  0  0  0  0  2  0  0  0  0  0  0
  188.4510  172.8370  139.7080 C   0  0  0  0  0  1  0  0  0  0  0  0
  189.6170  174.0760  141.3160 C   0  0  2  0  0  3  0  0  0  0  0  0
  190.9740  173.7380  141.8820 C   0  0  1  0  0  3  0  0  0  0  0  0
  190.8990  172.2490  142.0720 C   0  0  0  0  0  2  0  0  0  0  0  0
  192.0330  174.0760  140.8410 C   0  0  0  0  0  2  0  0  0  0  0  0
  194.3330  174.1270  141.7330 C   0  0  0  0  0  3  0  0  0  0  0  0
  191.1070  175.7620  147.6560 C   0  0  0  0  0  2  0  0  0  0  0  0
  193.1200  174.9660  141.4240 C   0  0  2  0  0  3  0  0  0  0  0  0
  192.6110  175.6920  142.5930 N   0  0  0  0  0  0  0  0  0  0  0  0
  193.1470  176.2650  146.2020 C   0  0  0  0  0  2  0  0  0  0  0  0
  190.3620  176.8710  146.9050 C   0  0  0  0  0  2  0  0  0  0  0  0
  194.3220  174.8480  143.9740 N   0  0  0  0  0  2  0  0  0  0  0  0
  192.5910  176.3970  144.8590 N   0  0  0  0  0  0  0  0  0  0  0  0
  190.2050  176.5890  145.4170 C   0  0  0  0  0  2  0  0  0  0  0  0
  194.8630  174.1000  142.9170 N   0  0  0  0  0  0  0  0  0  0  0  0
  192.3630  175.2100  146.9700 C   0  0  0  0  0  2  0  0  0  0  0  0
  193.1560  175.6500  143.7710 C   0  0  0  0  0  0  0  0  0  0  0  0
  191.3820  177.1900  144.6590 C   0  0  0  0  0  2  0  0  0  0  0  0
  188.1110  176.0930  141.6000 C   0  0  0  0  0  2  0  0  0  0  0  0
  186.4190  176.6830  146.0830 C   0  0  0  0  0  3  0  0  0  0  0  0
  185.4750  177.1840  146.9820 C   0  0  0  0  0  3  0  0  0  0  0  0
  186.0810  177.5840  142.0080 C   0  0  0  0  0  0  0  0  0  0  0  0
  184.4440  177.9500  146.5340 N   0  0  0  0  0  0  0  0  0  0  0  0
  187.1180  176.7540  142.5050 C   0  0  0  0  0  0  0  0  0  0  0  0
  186.2930  176.9800  144.7260 C   0  0  0  0  0  0  0  0  0  0  0  0
  184.2990  178.2530  145.2160 C   0  0  0  0  0  3  0  0  0  0  0  0
  187.1940  176.4910  143.8390 N   0  0  0  0  0  0  0  0  0  0  0  0
  185.2230  177.7750  144.2760 C   0  0  0  0  0  0  0  0  0  0  0  0
  185.1120  178.0660  142.9060 C   0  0  0  0  0  0  0  0  0  0  0  0
  185.9630  177.9430  140.6540 O   0  0  0  0  0  0  0  0  0  0  0  0
  186.3050  177.0980  139.5650 C   0  0  0  0  0  1  0  0  0  0  0  0
  184.0060  178.9410  142.4000 C   0  0  0  0  0  2  0  0  0  0  0  0
  182.9020  178.1480  142.0430 O   0  0  0  0  0  0  0  0  0  0  0  0
  182.4890  178.5010  140.7400 C   0  0  1  0  0  3  0  0  0  0  0  0
  182.6470  177.4390  139.8390 O   0  0  0  0  0  1  0  0  0  0  0  0
  181.0660  179.0540  140.7100 C   0  0  0  0  0  2  0  0  0  0  0  0
  179.3140  177.6150  141.4200 O   0  0  0  0  0  1  0  0  0  0  0  0
  180.2690  178.5180  141.8830 C   0  0  0  0  0  2  0  0  0  0  0  0
  2  3  1  0  0  0  0
  2  5  1  0  0  0  0
  3  7  1  0  0  0  0
  4  2  1  0  0  0  0
  5  6  1  0  0  0  0
  5  1  1  1  0  0  0
  6  8  1  6  0  0  0
  6  7  1  0  0  0  0
  9 18  2  0  0  0  0
 11  8  1  1  0  0  0
 11  9  1  0  0  0  0
 11 12  1  0  0  0  0
 12 20  2  0  0  0  0
 13 19  1  0  0  0  0
 14 10  1  0  0  0  0
 16 13  1  0  0  0  0
 17 14  1  0  0  0  0
 18 15  1  0  0  0  0
 19 10  1  0  0  0  0
 20 15  1  0  0  0  0
 20 16  1  0  0  0  0
 21 16  1  0  0  0  0
 21 17  1  0  0  0  0
 22  1  1  0  0  0  0
 22 27  1  0  0  0  0
 23 24  1  0  0  0  0
 25 27  1  0  0  0  0
 25 32  2  0  0  0  0
 26 24  2  0  0  0  0
 27 30  2  0  0  0  0
 28 23  2  0  0  0  0
 29 26  1  0  0  0  0
 30 28  1  0  0  0  0
 31 28  1  0  0  0  0
 31 29  2  0  0  0  0
 32 31  1  0  0  0  0
 33 25  1  0  0  0  0
 34 33  1  0  0  0  0
 35 32  1  0  0  0  0
 36 35  1  0  0  0  0
 37 38  1  6  0  0  0
 37 36  1  0  0  0  0
 39 37  1  0  0  0  0
 39 41  1  0  0  0  0
 40 41  1  0  0  0  0
M  END
>  <MODEL>
6

>  <REMARK>
 VINA RESULT:      -6.8      1.608      4.269
  Name = 
  11 active torsions:
  status: ('A' for Active; 'I' for Inactive)
    1  A    between atoms: C_1  and  O_7
    2  A    between atoms: C_1  and  C_39
    3  A    between atoms: C_6  and  C_23
    4  A    between atoms: C_6  and  C_41
    5  A    between atoms: O_7  and  C_38
    6  A    between atoms: O_8  and  C_12
    7  A    between atoms: C_9  and  C_36
    8  A    between atoms: C_18  and  C_41
    9  A    between atoms: C_34  and  C_36
   10  A    between atoms: C_35  and  C_39
   11  A    between atoms: C_38  and  C_40
                            x       y       z     vdW  Elec       q    Type
                         _______ _______ _______ _____ _____    ______ ____

>  <TORSDO>
F 11

$$$$
=
 OpenBabel11062421443D

 41 45  0  0  1  0  0  0  0  0999 V2000
  190.7360  172.4000  144.0790 C   0  0  0  0  0  2  0  0  0  0  0  0
  190.1170  171.7620  141.8130 N   0  0  0  0  0  0  0  0  0  0  0  0
  190.3390  170.5440  141.1430 N   0  0  0  0  0  2  0  0  0  0  0  0
  190.1540  172.8090  140.8050 C   0  0  0  0  0  1  0  0  0  0  0  0
  191.2510  171.9890  142.7040 C   0  0  2  0  0  3  0  0  0  0  0  0
  192.0330  170.7020  142.7890 C   0  0  1  0  0  3  0  0  0  0  0  0
  191.1840  169.7390  142.0080 C   0  0  0  0  0  2  0  0  0  0  0  0
  193.3710  170.8990  142.0890 C   0  0  0  0  0  2  0  0  0  0  0  0
  194.0750  170.1100  144.3180 C   0  0  0  0  0  3  0  0  0  0  0  0
  194.5590  176.9040  145.6480 C   0  0  0  0  0  2  0  0  0  0  0  0
  194.5280  170.8300  143.0750 C   0  0  2  0  0  3  0  0  0  0  0  0
  195.0470  172.1760  143.3460 N   0  0  0  0  0  0  0  0  0  0  0  0
  195.6710  174.6350  146.0290 C   0  0  0  0  0  2  0  0  0  0  0  0
  195.4170  177.0560  144.3880 C   0  0  0  0  0  2  0  0  0  0  0  0
  194.7110  171.9330  145.6650 N   0  0  0  0  0  2  0  0  0  0  0  0
  195.6640  174.0190  144.7060 N   0  0  0  0  0  0  0  0  0  0  0  0
  195.1340  175.9910  143.3370 C   0  0  0  0  0  2  0  0  0  0  0  0
  194.1790  170.6460  145.4950 N   0  0  0  0  0  0  0  0  0  0  0  0
  194.4150  175.4790  146.1980 C   0  0  0  0  0  2  0  0  0  0  0  0
  195.1400  172.6940  144.5330 C   0  0  0  0  0  0  0  0  0  0  0  0
  196.0720  174.8080  143.5470 C   0  0  0  0  0  2  0  0  0  0  0  0
  191.2570  173.7700  144.5060 C   0  0  0  0  0  2  0  0  0  0  0  0
  188.5050  176.6490  141.7780 C   0  0  0  0  0  3  0  0  0  0  0  0
  187.5790  177.6860  141.6340 C   0  0  0  0  0  3  0  0  0  0  0  0
  189.6290  175.3940  145.6110 C   0  0  0  0  0  0  0  0  0  0  0  0
  187.0570  178.2930  142.7330 N   0  0  0  0  0  0  0  0  0  0  0  0
  190.1850  174.8130  144.4430 C   0  0  0  0  0  0  0  0  0  0  0  0
  188.8810  176.2440  143.0590 C   0  0  0  0  0  0  0  0  0  0  0  0
  187.4080  177.9170  143.9920 C   0  0  0  0  0  3  0  0  0  0  0  0
  189.7880  175.2480  143.2150 N   0  0  0  0  0  0  0  0  0  0  0  0
  188.3310  176.8800  144.1880 C   0  0  0  0  0  0  0  0  0  0  0  0
  188.7200  176.4570  145.4710 C   0  0  0  0  0  0  0  0  0  0  0  0
  189.9510  174.9680  146.9120 O   0  0  0  0  0  0  0  0  0  0  0  0
  191.0410  175.4650  147.6750 C   0  0  0  0  0  1  0  0  0  0  0  0
  188.1250  177.0880  146.6930 C   0  0  0  0  0  2  0  0  0  0  0  0
  187.0180  176.3350  147.1220 O   0  0  0  0  0  0  0  0  0  0  0  0
  185.9870  177.2180  147.5060 C   0  0  1  0  0  3  0  0  0  0  0  0
  186.4720  178.5100  147.7480 O   0  0  0  0  0  1  0  0  0  0  0  0
  184.8300  177.2320  146.5080 C   0  0  0  0  0  2  0  0  0  0  0  0
  184.0640  178.7840  144.8810 O   0  0  0  0  0  1  0  0  0  0  0  0
  184.3960  178.6570  146.2280 C   0  0  0  0  0  2  0  0  0  0  0  0
  1 22  1  0  0  0  0
  2  5  1  0  0  0  0
  3  2  1  0  0  0  0
  3  7  1  0  0  0  0
  4  2  1  0  0  0  0
  5  6  1  0  0  0  0
  5  1  1  1  0  0  0
  6  8  1  6  0  0  0
  7  6  1  0  0  0  0
  9 18  2  0  0  0  0
 10 19  1  0  0  0  0
 11  8  1  6  0  0  0
 11 12  1  0  0  0  0
 11  9  1  0  0  0  0
 12 20  2  0  0  0  0
 13 19  1  0  0  0  0
 14 10  1  0  0  0  0
 16 13  1  0  0  0  0
 17 21  1  0  0  0  0
 17 14  1  0  0  0  0
 18 15  1  0  0  0  0
 20 16  1  0  0  0  0
 20 15  1  0  0  0  0
 21 16  1  0  0  0  0
 23 28  1  0  0  0  0
 24 23  2  0  0  0  0
 24 26  1  0  0  0  0
 25 33  1  0  0  0  0
 26 29  2  0  0  0  0
 27 22  1  0  0  0  0
 27 25  2  0  0  0  0
 28 30  2  0  0  0  0
 28 31  1  0  0  0  0
 29 31  1  0  0  0  0
 30 27  1  0  0  0  0
 31 32  2  0  0  0  0
 32 25  1  0  0  0  0
 32 35  1  0  0  0  0
 33 34  1  0  0  0  0
 35 36  1  0  0  0  0
 36 37  1  0  0  0  0
 37 38  1  6  0  0  0
 39 37  1  0  0  0  0
 40 41  1  0  0  0  0
 41 39  1  0  0  0  0
M  END
>  <MODEL>
7

>  <REMARK>
 VINA RESULT:      -6.8      2.787      5.843
  Name = 
  11 active torsions:
  status: ('A' for Active; 'I' for Inactive)
    1  A    between atoms: C_1  and  O_7
    2  A    between atoms: C_1  and  C_39
    3  A    between atoms: C_6  and  C_23
    4  A    between atoms: C_6  and  C_41
    5  A    between atoms: O_7  and  C_38
    6  A    between atoms: O_8  and  C_12
    7  A    between atoms: C_9  and  C_36
    8  A    between atoms: C_18  and  C_41
    9  A    between atoms: C_34  and  C_36
   10  A    between atoms: C_35  and  C_39
   11  A    between atoms: C_38  and  C_40
                            x       y       z     vdW  Elec       q    Type
                         _______ _______ _______ _____ _____    ______ ____

>  <TORSDO>
F 11

$$$$
=
 OpenBabel11062421443D

 41 45  0  0  1  0  0  0  0  0999 V2000
  192.1790  172.1270  141.8960 C   0  0  0  0  0  2  0  0  0  0  0  0
  192.3500  169.8880  142.8360 N   0  0  0  0  0  0  0  0  0  0  0  0
  192.9020  169.4820  144.0660 N   0  0  0  0  0  2  0  0  0  0  0  0
  192.5700  168.8000  141.8980 C   0  0  0  0  0  1  0  0  0  0  0  0
  193.1280  171.0270  142.3570 C   0  0  2  0  0  3  0  0  0  0  0  0
  193.9910  171.5070  143.4980 C   0  0  1  0  0  3  0  0  0  0  0  0
  193.5330  170.6550  144.6480 C   0  0  0  0  0  2  0  0  0  0  0  0
  195.4460  171.1990  143.1720 C   0  0  0  0  0  2  0  0  0  0  0  0
  196.9310  171.9010  145.0120 C   0  0  0  0  0  3  0  0  0  0  0  0
  192.1180  176.8200  145.9050 C   0  0  0  0  0  2  0  0  0  0  0  0
  196.3710  172.2990  143.6710 C   0  0  2  0  0  3  0  0  0  0  0  0
  195.6640  173.5840  143.7020 N   0  0  0  0  0  0  0  0  0  0  0  0
  194.6300  176.3570  145.9130 C   0  0  0  0  0  2  0  0  0  0  0  0
  192.2370  177.1600  144.4150 C   0  0  0  0  0  2  0  0  0  0  0  0
  196.1340  173.8890  145.9900 N   0  0  0  0  0  2  0  0  0  0  0  0
  194.8420  175.5750  144.6990 N   0  0  0  0  0  0  0  0  0  0  0  0
  192.7000  175.9840  143.5660 C   0  0  0  0  0  2  0  0  0  0  0  0
  196.8080  172.6600  146.0580 N   0  0  0  0  0  0  0  0  0  0  0  0
  193.2720  176.0070  146.5050 C   0  0  0  0  0  2  0  0  0  0  0  0
  195.5510  174.3270  144.7600 C   0  0  0  0  0  0  0  0  0  0  0  0
  194.2190  176.0070  143.4510 C   0  0  0  0  0  2  0  0  0  0  0  0
  190.7550  171.9090  142.3990 C   0  0  0  0  0  2  0  0  0  0  0  0
  189.6130  174.1810  146.5030 C   0  0  0  0  0  3  0  0  0  0  0  0
  189.0330  175.2470  147.1950 C   0  0  0  0  0  3  0  0  0  0  0  0
  189.6820  174.2230  142.3170 C   0  0  0  0  0  0  0  0  0  0  0  0
  188.4820  176.2860  146.5130 N   0  0  0  0  0  0  0  0  0  0  0  0
  190.2080  173.1360  143.0610 C   0  0  0  0  0  0  0  0  0  0  0  0
  189.6220  174.1990  145.1080 C   0  0  0  0  0  0  0  0  0  0  0  0
  188.4780  176.3260  145.1530 C   0  0  0  0  0  3  0  0  0  0  0  0
  190.1700  173.1660  144.4220 N   0  0  0  0  0  0  0  0  0  0  0  0
  189.0510  175.2810  144.4150 C   0  0  0  0  0  0  0  0  0  0  0  0
  189.0710  175.2830  143.0090 C   0  0  0  0  0  0  0  0  0  0  0  0
  189.7270  174.2900  140.9130 O   0  0  0  0  0  0  0  0  0  0  0  0
  188.8720  173.5610  140.0450 C   0  0  0  0  0  1  0  0  0  0  0  0
  188.5040  176.4380  142.2410 C   0  0  0  0  0  2  0  0  0  0  0  0
  187.1910  176.1400  141.8390 O   0  0  0  0  0  0  0  0  0  0  0  0
  186.3920  177.2930  141.9990 C   0  0  1  0  0  3  0  0  0  0  0  0
  185.6360  177.5650  140.8510 O   0  0  0  0  0  1  0  0  0  0  0  0
  185.5120  177.2240  143.2460 C   0  0  0  0  0  2  0  0  0  0  0  0
  185.5760  179.5760  143.5740 O   0  0  0  0  0  1  0  0  0  0  0  0
  184.7080  178.5010  143.3930 C   0  0  0  0  0  2  0  0  0  0  0  0
  1 22  1  0  0  0  0
  2  3  1  0  0  0  0
  3  7  1  0  0  0  0
  4  2  1  0  0  0  0
  5  1  1  1  0  0  0
  5  2  1  0  0  0  0
  5  6  1  0  0  0  0
  6  8  1  6  0  0  0
  6  7  1  0  0  0  0
  9 18  2  0  0  0  0
 10 19  1  0  0  0  0
 11  8  1  1  0  0  0
 11 12  1  0  0  0  0
 11  9  1  0  0  0  0
 12 20  2  0  0  0  0
 13 19  1  0  0  0  0
 14 10  1  0  0  0  0
 15 18  1  0  0  0  0
 16 20  1  0  0  0  0
 16 13  1  0  0  0  0
 17 14  1  0  0  0  0
 20 15  1  0  0  0  0
 21 17  1  0  0  0  0
 21 16  1  0  0  0  0
 22 27  1  0  0  0  0
 23 24  1  0  0  0  0
 25 32  2  0  0  0  0
 25 27  1  0  0  0  0
 26 24  2  0  0  0  0
 27 30  2  0  0  0  0
 28 23  2  0  0  0  0
 29 26  1  0  0  0  0
 30 28  1  0  0  0  0
 31 28  1  0  0  0  0
 31 29  2  0  0  0  0
 32 31  1  0  0  0  0
 33 25  1  0  0  0  0
 34 33  1  0  0  0  0
 35 32  1  0  0  0  0
 36 37  1  0  0  0  0
 36 35  1  0  0  0  0
 37 38  1  6  0  0  0
 37 39  1  0  0  0  0
 39 41  1  0  0  0  0
 41 40  1  0  0  0  0
M  END
>  <MODEL>
8

>  <REMARK>
 VINA RESULT:      -6.8      2.409      5.136
  Name = 
  11 active torsions:
  status: ('A' for Active; 'I' for Inactive)
    1  A    between atoms: C_1  and  O_7
    2  A    between atoms: C_1  and  C_39
    3  A    between atoms: C_6  and  C_23
    4  A    between atoms: C_6  and  C_41
    5  A    between atoms: O_7  and  C_38
    6  A    between atoms: O_8  and  C_12
    7  A    between atoms: C_9  and  C_36
    8  A    between atoms: C_18  and  C_41
    9  A    between atoms: C_34  and  C_36
   10  A    between atoms: C_35  and  C_39
   11  A    between atoms: C_38  and  C_40
                            x       y       z     vdW  Elec       q    Type
                         _______ _______ _______ _____ _____    ______ ____

>  <TORSDO>
F 11

$$$$
=
 OpenBabel11062421443D

 41 45  0  0  1  0  0  0  0  0999 V2000
  190.7360  174.9040  142.3400 C   0  0  0  0  0  2  0  0  0  0  0  0
  189.8610  172.6760  142.7780 N   0  0  0  0  0  0  0  0  0  0  0  0
  189.5600  172.0680  144.0120 N   0  0  0  0  0  2  0  0  0  0  0  0
  190.2920  171.6160  141.8830 C   0  0  0  0  0  1  0  0  0  0  0  0
  191.0110  173.5510  142.9860 C   0  0  2  0  0  3  0  0  0  0  0  0
  191.2120  173.7000  144.4740 C   0  0  1  0  0  3  0  0  0  0  0  0
  190.0300  172.9710  145.0490 C   0  0  0  0  0  2  0  0  0  0  0  0
  192.5000  172.9880  144.8650 C   0  0  0  0  0  2  0  0  0  0  0  0
  192.7820  175.2460  145.8170 C   0  0  0  0  0  3  0  0  0  0  0  0
  197.1440  176.0440  140.4800 C   0  0  0  0  0  2  0  0  0  0  0  0
  193.4760  173.9370  145.5420 C   0  0  2  0  0  3  0  0  0  0  0  0
  194.6870  174.0900  144.7270 N   0  0  0  0  0  0  0  0  0  0  0  0
  196.7870  176.5590  142.9570 C   0  0  0  0  0  2  0  0  0  0  0  0
  197.8450  174.7490  140.9020 C   0  0  0  0  0  2  0  0  0  0  0  0
  194.4350  176.4300  144.6330 N   0  0  0  0  0  2  0  0  0  0  0  0
  196.3380  175.2870  143.5140 N   0  0  0  0  0  0  0  0  0  0  0  0
  196.9340  173.7910  141.6560 C   0  0  0  0  0  2  0  0  0  0  0  0
  193.2540  176.3750  145.3880 N   0  0  0  0  0  0  0  0  0  0  0  0
  196.2520  176.7050  141.5390 C   0  0  0  0  0  2  0  0  0  0  0  0
  195.1410  175.2310  144.3050 C   0  0  0  0  0  0  0  0  0  0  0  0
  197.0410  174.0590  143.1520 C   0  0  0  0  0  2  0  0  0  0  0  0
  190.2840  175.9490  143.3560 C   0  0  0  0  0  2  0  0  0  0  0  0
  187.0750  176.9410  139.8880 C   0  0  0  0  0  3  0  0  0  0  0  0
  185.9040  177.5560  139.4390 C   0  0  0  0  0  3  0  0  0  0  0  0
  188.1540  177.2360  143.9230 C   0  0  0  0  0  0  0  0  0  0  0  0
  185.1260  178.2580  140.3060 N   0  0  0  0  0  0  0  0  0  0  0  0
  188.9640  176.5480  142.9820 C   0  0  0  0  0  0  0  0  0  0  0  0
  187.4320  177.0530  141.2320 C   0  0  0  0  0  0  0  0  0  0  0  0
  185.4530  178.3820  141.6200 C   0  0  0  0  0  3  0  0  0  0  0  0
  188.5720  176.4720  141.6800 N   0  0  0  0  0  0  0  0  0  0  0  0
  186.6170  177.7800  142.1180 C   0  0  0  0  0  0  0  0  0  0  0  0
  186.9900  177.8810  143.4690 C   0  0  0  0  0  0  0  0  0  0  0  0
  188.4630  177.3180  145.2920 O   0  0  0  0  0  0  0  0  0  0  0  0
  188.2390  176.2770  146.2310 C   0  0  0  0  0  1  0  0  0  0  0  0
  186.1240  178.6170  144.4460 C   0  0  0  0  0  2  0  0  0  0  0  0
  185.0060  177.8310  144.7730 O   0  0  0  0  0  0  0  0  0  0  0  0
  184.7080  178.0090  146.1410 C   0  0  1  0  0  3  0  0  0  0  0  0
  184.7660  176.8010  146.8480 O   0  0  0  0  0  1  0  0  0  0  0  0
  185.5790  179.0810  146.7920 C   0  0  0  0  0  2  0  0  0  0  0  0
  187.4380  179.0370  148.2700 O   0  0  0  0  0  1  0  0  0  0  0  0
  186.1320  178.5790  148.1110 C   0  0  0  0  0  2  0  0  0  0  0  0
  1 22  1  0  0  0  0
  2  5  1  0  0  0  0
  2  3  1  0  0  0  0
  3  7  1  0  0  0  0
  4  2  1  0  0  0  0
  5  1  1  1  0  0  0
  5  6  1  0  0  0  0
  6  8  1  1  0  0  0
  6  7  1  0  0  0  0
 10 14  1  0  0  0  0
 10 19  1  0  0  0  0
 11  8  1  6  0  0  0
 11  9  1  0  0  0  0
 12 11  1  0  0  0  0
 13 16  1  0  0  0  0
 14 17  1  0  0  0  0
 15 18  1  0  0  0  0
 16 20  1  0  0  0  0
 17 21  1  0  0  0  0
 18  9  2  0  0  0  0
 19 13  1  0  0  0  0
 20 15  1  0  0  0  0
 20 12  2  0  0  0  0
 21 16  1  0  0  0  0
 23 28  1  0  0  0  0
 24 23  2  0  0  0  0
 24 26  1  0  0  0  0
 25 33  1  0  0  0  0
 26 29  2  0  0  0  0
 27 22  1  0  0  0  0
 27 25  2  0  0  0  0
 28 30  2  0  0  0  0
 28 31  1  0  0  0  0
 29 31  1  0  0  0  0
 30 27  1  0  0  0  0
 31 32  2  0  0  0  0
 32 25  1  0  0  0  0
 32 35  1  0  0  0  0
 33 34  1  0  0  0  0
 35 36  1  0  0  0  0
 36 37  1  0  0  0  0
 37 39  1  0  0  0  0
 37 38  1  1  0  0  0
 39 41  1  0  0  0  0
 41 40  1  0  0  0  0
M  END
>  <MODEL>
9

>  <REMARK>
 VINA RESULT:      -6.7      2.670      5.592
  Name = 
  11 active torsions:
  status: ('A' for Active; 'I' for Inactive)
    1  A    between atoms: C_1  and  O_7
    2  A    between atoms: C_1  and  C_39
    3  A    between atoms: C_6  and  C_23
    4  A    between atoms: C_6  and  C_41
    5  A    between atoms: O_7  and  C_38
    6  A    between atoms: O_8  and  C_12
    7  A    between atoms: C_9  and  C_36
    8  A    between atoms: C_18  and  C_41
    9  A    between atoms: C_34  and  C_36
   10  A    between atoms: C_35  and  C_39
   11  A    between atoms: C_38  and  C_40
                            x       y       z     vdW  Elec       q    Type
                         _______ _______ _______ _____ _____    ______ ____

>  <TORSDO>
F 11

$$$$
