=
 OpenBabel11062422153D

 44 49  0  0  1  0  0  0  0  0999 V2000
  188.7430  176.7240  146.1160 C   0  0  0  0  0  2  0  0  0  0  0  0
  191.4370  173.5370  144.2360 C   0  0  2  0  0  3  0  0  0  0  0  0
  193.9600  174.1190  144.3720 N   0  0  0  0  0  2  0  0  0  0  0  0
  187.2520  175.4040  144.8130 O   0  0  0  0  0  1  0  0  0  0  0  0
  190.4660  172.3660  144.1650 C   0  0  0  0  0  2  0  0  0  0  0  0
  191.3460  176.6120  146.4930 C   0  0  0  0  0  2  0  0  0  0  0  0
  193.9110  175.5500  144.0690 C   0  0  2  0  0  3  0  0  0  0  0  0
  190.0960  176.2610  145.7090 C   0  0  2  0  0  3  0  0  0  0  0  0
  191.1360  174.6390  143.2580 C   0  0  0  0  0  0  0  0  0  0  0  0
  192.4150  175.8540  145.9570 O   0  0  0  0  0  0  0  0  0  0  0  0
  188.0000  176.5830  144.7720 C   0  0  2  0  0  0  0  0  0  0  0  0
  189.3700  173.5540  140.1040 N   0  0  0  0  0  1  0  0  0  0  0  0
  193.2160  171.9350  144.4540 O   0  0  0  0  0  0  0  0  0  0  0  0
  191.4100  176.0610  143.6710 C   0  0  1  0  0  3  0  0  0  0  0  0
  190.5740  174.4850  142.0490 C   0  0  0  0  0  3  0  0  0  0  0  0
  192.9040  173.1500  144.3130 C   0  0  0  0  0  0  0  0  0  0  0  0
  190.2060  176.7670  144.3090 C   0  0  1  0  0  0  0  0  0  0  0  0
  192.6530  176.2380  144.6060 C   0  0  2  0  0  3  0  0  0  0  0  0
  190.0950  172.0720  141.7530 N   0  0  0  0  0  0  0  0  0  0  0  0
  188.9610  176.4800  143.7210 O   0  0  0  0  0  0  0  0  0  0  0  0
  190.4430  178.2830  144.2320 C   0  0  0  0  0  1  0  0  0  0  0  0
  190.7670  171.5450  142.9280 C   0  0  0  0  0  2  0  0  0  0  0  0
  190.0470  173.3010  141.3290 C   0  0  0  0  0  0  0  0  0  0  0  0
  187.0660  177.7480  144.4940 C   0  0  0  0  0  0  0  0  0  0  0  0
  186.7240  178.1040  143.1710 C   0  0  0  0  0  0  0  0  0  0  0  0
  185.6610  179.5690  145.2820 C   0  0  0  0  0  3  0  0  0  0  0  0
  185.3520  179.8830  143.9610 C   0  0  0  0  0  3  0  0  0  0  0  0
  186.5180  178.5020  145.5440 C   0  0  0  0  0  3  0  0  0  0  0  0
  185.8820  179.1520  142.9460 N   0  0  0  0  0  0  0  0  0  0  0  0
  187.2580  177.3740  142.0630 N   0  0  0  0  0  2  0  0  0  0  0  0
  186.6220  177.5410  140.4260 S   0  0  0  0  0  1  0  0  0  0  0  0
  194.1410  175.8040  142.5840 C   0  0  0  0  0  2  0  0  0  0  0  0
  195.9060  176.0510  142.2200 P   0  0  2  0  0  0  0  0  0  0  0  0
  196.7090  176.5630  143.6180 O   0  0  0  0  0  1  0  0  0  0  0  0
  196.0280  177.1260  141.1650 O   0  0  0  0  0  0  0  0  0  0  0  0
  196.7960  174.2770  141.4800 S   0  0  0  0  0  0  0  0  0  0  0  0
  197.9410  174.1430  142.8880 C   0  0  0  0  0  2  0  0  0  0  0  0
  196.8800  172.6270  146.1620 C   0  0  0  0  0  3  0  0  0  0  0  0
  196.0080  169.6320  144.1770 C   0  0  0  0  0  1  0  0  0  0  0  0
  197.4230  173.1690  143.8850 C   0  0  0  0  0  0  0  0  0  0  0  0
  197.3580  173.5090  145.1400 N   0  0  0  0  0  0  0  0  0  0  0  0
  196.4810  170.9660  144.4920 N   0  0  0  0  0  0  0  0  0  0  0  0
  197.0400  171.7890  143.4170 C   0  0  0  0  0  2  0  0  0  0  0  0
  196.4570  171.4060  145.8530 C   0  0  0  0  0  3  0  0  0  0  0  0
  2  5  1  6  0  0  0
  2 16  1  0  0  0  0
  7 32  1  6  0  0  0
  7  3  1  0  0  0  0
  7 18  1  0  0  0  0
  8  1  1  1  0  0  0
  8  6  1  0  0  0  0
  9  2  1  0  0  0  0
 10  6  1  0  0  0  0
 11  4  1  1  0  0  0
 11  1  1  0  0  0  0
 12 23  1  0  0  0  0
 14  9  1  1  0  0  0
 14 17  1  0  0  0  0
 14 18  1  0  0  0  0
 15  9  2  0  0  0  0
 16  3  1  0  0  0  0
 16 13  2  0  0  0  0
 17 21  1  1  0  0  0
 17  8  1  0  0  0  0
 18 10  1  1  0  0  0
 19 22  1  0  0  0  0
 20 17  1  0  0  0  0
 20 11  1  0  0  0  0
 22  5  1  0  0  0  0
 23 19  2  0  0  0  0
 23 15  1  0  0  0  0
 24 11  1  0  0  0  0
 24 28  2  0  0  0  0
 25 24  1  0  0  0  0
 26 28  1  0  0  0  0
 27 26  2  0  0  0  0
 29 25  2  0  0  0  0
 29 27  1  0  0  0  0
 30 25  1  0  0  0  0
 31 30  1  0  0  0  0
 33 35  2  6  0  0  0
 33 32  1  0  0  0  0
 33 34  1  0  0  0  0
 36 33  1  0  0  0  0
 36 37  1  0  0  0  0
 37 40  1  0  0  0  0
 39 42  1  0  0  0  0
 40 41  2  0  0  0  0
 41 38  1  0  0  0  0
 42 44  1  0  0  0  0
 43 40  1  0  0  0  0
 43 42  1  0  0  0  0
 44 38  2  0  0  0  0
M  END
>  <MODEL>
1

>  <REMARK>
 VINA RESULT:      -7.8      0.000      0.000
  Name = 
  7 active torsions:
  status: ('A' for Active; 'I' for Inactive)
    1  A    between atoms: C_1  and  S_9
    2  A    between atoms: C_1  and  C_11
    3  A    between atoms: P_6  and  S_9
    4  A    between atoms: P_6  and  C_41
    5  A    between atoms: C_8  and  C_23
    6  A    between atoms: N_10  and  C_16
    7  A    between atoms: C_18  and  C_41
                            x       y       z     vdW  Elec       q    Type
                         _______ _______ _______ _____ _____    ______ ____

>  <TORSDO>
F 7

$$$$
=
 OpenBabel11062422153D

 44 49  0  0  1  0  0  0  0  0999 V2000
  187.8630  176.1860  146.1690 C   0  0  0  0  0  2  0  0  0  0  0  0
  190.5460  173.0460  144.1970 C   0  0  2  0  0  3  0  0  0  0  0  0
  193.0240  173.2000  144.9470 N   0  0  0  0  0  2  0  0  0  0  0  0
  186.5640  175.3830  144.3440 O   0  0  0  0  0  1  0  0  0  0  0  0
  189.4950  172.0710  143.6830 C   0  0  0  0  0  2  0  0  0  0  0  0
  190.2900  175.6090  147.0120 C   0  0  0  0  0  2  0  0  0  0  0  0
  193.1980  174.6530  144.9610 C   0  0  2  0  0  3  0  0  0  0  0  0
  189.2140  175.6090  145.9420 C   0  0  2  0  0  3  0  0  0  0  0  0
  190.5910  174.3480  143.4450 C   0  0  0  0  0  0  0  0  0  0  0  0
  191.3620  174.8140  146.5420 O   0  0  0  0  0  0  0  0  0  0  0  0
  187.4260  176.4190  144.7100 C   0  0  2  0  0  0  0  0  0  0  0  0
  189.4630  174.1680  139.8490 N   0  0  0  0  0  1  0  0  0  0  0  0
  192.0480  171.1800  144.4010 O   0  0  0  0  0  0  0  0  0  0  0  0
  190.9190  175.6050  144.2060 C   0  0  1  0  0  3  0  0  0  0  0  0
  190.2990  174.5160  142.1460 C   0  0  0  0  0  3  0  0  0  0  0  0
  191.9080  172.4320  144.4720 C   0  0  0  0  0  0  0  0  0  0  0  0
  189.6860  176.3510  144.7360 C   0  0  1  0  0  0  0  0  0  0  0  0
  191.9340  175.4090  145.3800 C   0  0  2  0  0  3  0  0  0  0  0  0
  189.6380  172.3050  141.2410 N   0  0  0  0  0  0  0  0  0  0  0  0
  188.5800  176.3750  143.8690 O   0  0  0  0  0  0  0  0  0  0  0  0
  190.0980  177.8000  145.0420 C   0  0  0  0  0  1  0  0  0  0  0  0
  189.9720  171.4670  142.3800 C   0  0  0  0  0  2  0  0  0  0  0  0
  189.8200  173.5860  141.0960 C   0  0  0  0  0  0  0  0  0  0  0  0
  186.7090  177.7450  144.5170 C   0  0  0  0  0  0  0  0  0  0  0  0
  186.5870  178.3250  143.2350 C   0  0  0  0  0  0  0  0  0  0  0  0
  185.4910  179.6430  145.4250 C   0  0  0  0  0  3  0  0  0  0  0  0
  185.3950  180.1760  144.1420 C   0  0  0  0  0  3  0  0  0  0  0  0
  186.1480  178.4280  145.6070 C   0  0  0  0  0  3  0  0  0  0  0  0
  185.9370  179.5130  143.0870 N   0  0  0  0  0  0  0  0  0  0  0  0
  187.1450  177.6750  142.0900 N   0  0  0  0  0  2  0  0  0  0  0  0
  186.3010  177.6000  140.5420 S   0  0  0  0  0  1  0  0  0  0  0  0
  193.7780  175.1480  143.6420 C   0  0  0  0  0  2  0  0  0  0  0  0
  195.4480  175.8340  143.8690 P   0  0  2  0  0  0  0  0  0  0  0  0
  196.4210  174.7100  144.6760 O   0  0  0  0  0  0  0  0  0  0  0  0
  195.3380  177.0810  144.7150 O   0  0  0  0  0  1  0  0  0  0  0  0
  196.3260  176.3550  142.0130 S   0  0  0  0  0  0  0  0  0  0  0  0
  194.7270  176.3790  141.1460 C   0  0  0  0  0  2  0  0  0  0  0  0
  195.7930  174.2750  138.2170 C   0  0  0  0  0  3  0  0  0  0  0  0
  192.5230  172.5910  138.5880 C   0  0  0  0  0  1  0  0  0  0  0  0
  194.7070  175.3530  140.0680 C   0  0  0  0  0  0  0  0  0  0  0  0
  195.7370  175.2300  139.2820 N   0  0  0  0  0  0  0  0  0  0  0  0
  193.6170  173.5100  138.8360 N   0  0  0  0  0  0  0  0  0  0  0  0
  193.4650  174.5220  139.8840 C   0  0  0  0  0  2  0  0  0  0  0  0
  194.7770  173.4470  138.0020 C   0  0  0  0  0  3  0  0  0  0  0  0
  2  5  1  6  0  0  0
  2 16  1  0  0  0  0
  3  7  1  0  0  0  0
  7 32  1  6  0  0  0
  7 18  1  0  0  0  0
  8  1  1  1  0  0  0
  8  6  1  0  0  0  0
  9  2  1  0  0  0  0
 10  6  1  0  0  0  0
 11  4  1  6  0  0  0
 11  1  1  0  0  0  0
 12 23  1  0  0  0  0
 13 16  2  0  0  0  0
 14  9  1  1  0  0  0
 14 17  1  0  0  0  0
 14 18  1  0  0  0  0
 15  9  2  0  0  0  0
 16  3  1  0  0  0  0
 17 21  1  1  0  0  0
 17  8  1  0  0  0  0
 18 10  1  1  0  0  0
 19 22  1  0  0  0  0
 20 11  1  0  0  0  0
 20 17  1  0  0  0  0
 22  5  1  0  0  0  0
 23 19  2  0  0  0  0
 23 15  1  0  0  0  0
 24 11  1  0  0  0  0
 24 28  2  0  0  0  0
 25 24  1  0  0  0  0
 26 28  1  0  0  0  0
 27 26  2  0  0  0  0
 29 25  2  0  0  0  0
 29 27  1  0  0  0  0
 30 25  1  0  0  0  0
 31 30  1  0  0  0  0
 32 33  1  0  0  0  0
 33 34  2  1  0  0  0
 33 35  1  0  0  0  0
 36 33  1  0  0  0  0
 37 36  1  0  0  0  0
 38 41  1  0  0  0  0
 39 42  1  0  0  0  0
 40 37  1  0  0  0  0
 41 40  2  0  0  0  0
 42 43  1  0  0  0  0
 43 40  1  0  0  0  0
 44 38  2  0  0  0  0
 44 42  1  0  0  0  0
M  END
>  <MODEL>
2

>  <REMARK>
 VINA RESULT:      -7.7      2.178      3.036
  Name = 
  7 active torsions:
  status: ('A' for Active; 'I' for Inactive)
    1  A    between atoms: C_1  and  S_9
    2  A    between atoms: C_1  and  C_11
    3  A    between atoms: P_6  and  S_9
    4  A    between atoms: P_6  and  C_41
    5  A    between atoms: C_8  and  C_23
    6  A    between atoms: N_10  and  C_16
    7  A    between atoms: C_18  and  C_41
                            x       y       z     vdW  Elec       q    Type
                         _______ _______ _______ _____ _____    ______ ____

>  <TORSDO>
F 7

$$$$
=
 OpenBabel11062422153D

 44 49  0  0  1  0  0  0  0  0999 V2000
  193.8310  176.2320  142.6790 C   0  0  0  0  0  2  0  0  0  0  0  0
  189.3590  175.3280  142.3140 C   0  0  2  0  0  3  0  0  0  0  0  0
  187.8520  177.2430  143.2000 N   0  0  0  0  0  2  0  0  0  0  0  0
  193.7470  173.8850  142.2940 O   0  0  0  0  0  1  0  0  0  0  0  0
  189.3940  174.1750  141.3190 C   0  0  0  0  0  2  0  0  0  0  0  0
  191.9520  178.0580  142.9330 C   0  0  0  0  0  2  0  0  0  0  0  0
  188.5980  177.6240  144.3990 C   0  0  2  0  0  3  0  0  0  0  0  0
  192.4170  176.6140  142.9330 C   0  0  2  0  0  3  0  0  0  0  0  0
  189.8750  174.9700  143.6800 C   0  0  0  0  0  0  0  0  0  0  0  0
  190.5380  178.0530  143.0020 O   0  0  0  0  0  0  0  0  0  0  0  0
  193.8450  174.8290  143.3190 C   0  0  2  0  0  0  0  0  0  0  0  0
  189.4950  171.3420  144.6460 N   0  0  0  0  0  1  0  0  0  0  0  0
  187.1930  175.8990  141.4410 O   0  0  0  0  0  0  0  0  0  0  0  0
  190.6210  176.0190  144.4630 C   0  0  1  0  0  3  0  0  0  0  0  0
  189.7920  173.7630  144.2610 C   0  0  0  0  0  3  0  0  0  0  0  0
  188.0690  176.1300  142.3200 C   0  0  0  0  0  0  0  0  0  0  0  0
  192.1420  175.9830  144.2580 C   0  0  1  0  0  0  0  0  0  0  0  0
  190.1140  177.4810  144.2370 C   0  0  2  0  0  3  0  0  0  0  0  0
  188.6760  172.2410  142.6550 N   0  0  0  0  0  0  0  0  0  0  0  0
  192.7070  174.6990  144.1720 O   0  0  0  0  0  0  0  0  0  0  0  0
  192.8010  176.7280  145.4290 C   0  0  0  0  0  1  0  0  0  0  0  0
  188.2780  173.2050  141.6440 C   0  0  0  0  0  2  0  0  0  0  0  0
  189.2660  172.4580  143.7950 C   0  0  0  0  0  0  0  0  0  0  0  0
  195.1100  174.5600  144.1150 C   0  0  0  0  0  0  0  0  0  0  0  0
  196.3820  174.8700  143.5840 C   0  0  0  0  0  0  0  0  0  0  0  0
  196.2140  173.7550  146.1260 C   0  0  0  0  0  3  0  0  0  0  0  0
  197.4460  174.0780  145.5610 C   0  0  0  0  0  3  0  0  0  0  0  0
  195.0500  173.9990  145.4000 C   0  0  0  0  0  3  0  0  0  0  0  0
  197.5020  174.6230  144.3180 N   0  0  0  0  0  0  0  0  0  0  0  0
  196.5020  175.4400  142.2780 N   0  0  0  0  0  2  0  0  0  0  0  0
  197.5110  174.7210  141.0220 S   0  0  0  0  0  1  0  0  0  0  0  0
  188.0610  176.9050  145.6310 C   0  0  0  0  0  2  0  0  0  0  0  0
  186.4520  177.5820  146.1430 P   0  0  2  0  0  0  0  0  0  0  0  0
  186.5150  178.0290  147.7730 O   0  0  0  0  0  1  0  0  0  0  0  0
  185.4070  176.5040  145.9720 O   0  0  0  0  0  0  0  0  0  0  0  0
  185.9020  179.2460  144.9540 S   0  0  0  0  0  0  0  0  0  0  0  0
  184.2330  178.5980  144.6360 C   0  0  0  0  0  2  0  0  0  0  0  0
  184.8450  178.2790  140.9390 C   0  0  0  0  0  3  0  0  0  0  0  0
  181.1660  178.4180  140.5960 C   0  0  0  0  0  1  0  0  0  0  0  0
  183.9870  178.4970  143.1720 C   0  0  0  0  0  0  0  0  0  0  0  0
  184.9960  178.3730  142.3590 N   0  0  0  0  0  0  0  0  0  0  0  0
  182.4760  178.4110  141.2180 N   0  0  0  0  0  0  0  0  0  0  0  0
  182.5710  178.5980  142.6680 C   0  0  0  0  0  2  0  0  0  0  0  0
  183.6360  178.2950  140.3890 C   0  0  0  0  0  3  0  0  0  0  0  0
  1 11  1  0  0  0  0
  2  5  1  6  0  0  0
  2 16  1  0  0  0  0
  2  9  1  0  0  0  0
  3  7  1  0  0  0  0
  5 22  1  0  0  0  0
  6  8  1  0  0  0  0
  6 10  1  0  0  0  0
  7 32  1  1  0  0  0
  8  1  1  1  0  0  0
  8 17  1  0  0  0  0
  9 15  2  0  0  0  0
 11  4  1  6  0  0  0
 11 24  1  0  0  0  0
 11 20  1  0  0  0  0
 13 16  2  0  0  0  0
 14  9  1  6  0  0  0
 16  3  1  0  0  0  0
 17 14  1  0  0  0  0
 17 21  1  1  0  0  0
 18 10  1  6  0  0  0
 18  7  1  0  0  0  0
 18 14  1  0  0  0  0
 19 23  2  0  0  0  0
 20 17  1  0  0  0  0
 22 19  1  0  0  0  0
 23 15  1  0  0  0  0
 23 12  1  0  0  0  0
 24 28  2  0  0  0  0
 25 24  1  0  0  0  0
 25 29  2  0  0  0  0
 27 26  2  0  0  0  0
 28 26  1  0  0  0  0
 29 27  1  0  0  0  0
 30 25  1  0  0  0  0
 31 30  1  0  0  0  0
 32 33  1  0  0  0  0
 33 35  2  6  0  0  0
 33 34  1  0  0  0  0
 36 33  1  0  0  0  0
 37 36  1  0  0  0  0
 38 41  1  0  0  0  0
 39 42  1  0  0  0  0
 40 37  1  0  0  0  0
 41 40  2  0  0  0  0
 42 43  1  0  0  0  0
 43 40  1  0  0  0  0
 44 38  2  0  0  0  0
 44 42  1  0  0  0  0
M  END
>  <MODEL>
3

>  <REMARK>
 VINA RESULT:      -7.7      2.818      9.406
  Name = 
  7 active torsions:
  status: ('A' for Active; 'I' for Inactive)
    1  A    between atoms: C_1  and  S_9
    2  A    between atoms: C_1  and  C_11
    3  A    between atoms: P_6  and  S_9
    4  A    between atoms: P_6  and  C_41
    5  A    between atoms: C_8  and  C_23
    6  A    between atoms: N_10  and  C_16
    7  A    between atoms: C_18  and  C_41
                            x       y       z     vdW  Elec       q    Type
                         _______ _______ _______ _____ _____    ______ ____

>  <TORSDO>
F 7

$$$$
=
 OpenBabel11062422153D

 44 49  0  0  1  0  0  0  0  0999 V2000
  187.6890  177.0160  144.3030 C   0  0  0  0  0  2  0  0  0  0  0  0
  191.1470  174.0180  144.3210 C   0  0  2  0  0  3  0  0  0  0  0  0
  193.4640  175.1300  144.6690 N   0  0  0  0  0  2  0  0  0  0  0  0
  186.7440  175.0410  143.3700 O   0  0  0  0  0  1  0  0  0  0  0  0
  190.3820  172.7190  144.5380 C   0  0  0  0  0  2  0  0  0  0  0  0
  190.1130  177.5960  145.1530 C   0  0  0  0  0  2  0  0  0  0  0  0
  193.3080  176.3190  143.8310 C   0  0  2  0  0  3  0  0  0  0  0  0
  189.1480  176.7370  144.3570 C   0  0  2  0  0  3  0  0  0  0  0  0
  190.9560  174.6180  142.9550 C   0  0  0  0  0  0  0  0  0  0  0  0
  191.3680  176.9420  145.1530 O   0  0  0  0  0  0  0  0  0  0  0  0
  187.3220  176.2610  143.0100 C   0  0  2  0  0  0  0  0  0  0  0  0
  190.1700  172.1520  140.2090 N   0  0  0  0  0  1  0  0  0  0  0  0
  193.0090  173.0070  145.4570 O   0  0  0  0  0  0  0  0  0  0  0  0
  190.9360  176.1190  142.8270 C   0  0  1  0  0  3  0  0  0  0  0  0
  190.7320  173.9360  141.8210 C   0  0  0  0  0  3  0  0  0  0  0  0
  192.5870  174.0010  144.8030 C   0  0  0  0  0  0  0  0  0  0  0  0
  189.5320  176.7310  142.9140 C   0  0  1  0  0  0  0  0  0  0  0  0
  191.8780  176.8690  143.8250 C   0  0  2  0  0  3  0  0  0  0  0  0
  190.6530  171.5290  142.4040 N   0  0  0  0  0  0  0  0  0  0  0  0
  188.5170  176.0020  142.2710 O   0  0  0  0  0  0  0  0  0  0  0  0
  189.5840  178.1390  142.2990 C   0  0  0  0  0  1  0  0  0  0  0  0
  191.0790  171.6010  143.7920 C   0  0  0  0  0  2  0  0  0  0  0  0
  190.5530  172.4930  141.5360 C   0  0  0  0  0  0  0  0  0  0  0  0
  186.3430  177.0300  142.1400 C   0  0  0  0  0  0  0  0  0  0  0  0
  185.1870  177.6210  142.6950 C   0  0  0  0  0  0  0  0  0  0  0  0
  185.6610  177.8840  139.9680 C   0  0  0  0  0  3  0  0  0  0  0  0
  184.5340  178.4490  140.5600 C   0  0  0  0  0  3  0  0  0  0  0  0
  186.5620  177.1770  140.7610 C   0  0  0  0  0  3  0  0  0  0  0  0
  184.3240  178.3080  141.8950 N   0  0  0  0  0  0  0  0  0  0  0  0
  184.9110  177.4990  144.0930 N   0  0  0  0  0  2  0  0  0  0  0  0
  184.3480  178.8580  145.0680 S   0  0  0  0  0  1  0  0  0  0  0  0
  193.8590  176.0790  142.4310 C   0  0  0  0  0  2  0  0  0  0  0  0
  195.6770  176.1540  142.4140 P   0  0  2  0  0  0  0  0  0  0  0  0
  196.2300  176.8970  143.8300 O   0  0  0  0  0  1  0  0  0  0  0  0
  196.1080  176.9830  141.2270 O   0  0  0  0  0  0  0  0  0  0  0  0
  196.5260  174.2230  142.2300 S   0  0  0  0  0  0  0  0  0  0  0  0
  196.7930  174.0570  144.0220 C   0  0  0  0  0  2  0  0  0  0  0  0
  196.6880  170.9080  146.0760 C   0  0  0  0  0  3  0  0  0  0  0  0
  194.3800  169.6240  143.4880 C   0  0  0  0  0  1  0  0  0  0  0  0
  196.4530  172.6790  144.4700 C   0  0  0  0  0  0  0  0  0  0  0  0
  196.9580  172.2240  145.5800 N   0  0  0  0  0  0  0  0  0  0  0  0
  195.2690  170.5290  144.1920 N   0  0  0  0  0  0  0  0  0  0  0  0
  195.5750  171.8290  143.5910 C   0  0  0  0  0  2  0  0  0  0  0  0
  195.8760  170.0930  145.4120 C   0  0  0  0  0  3  0  0  0  0  0  0
  2  5  1  6  0  0  0
  2 16  1  0  0  0  0
  3 16  1  0  0  0  0
  7 32  1  6  0  0  0
  7  3  1  0  0  0  0
  8  1  1  6  0  0  0
  8  6  1  0  0  0  0
  9  2  1  0  0  0  0
 10  6  1  0  0  0  0
 11  4  1  1  0  0  0
 11  1  1  0  0  0  0
 12 23  1  0  0  0  0
 14 17  1  0  0  0  0
 14  9  1  1  0  0  0
 14 18  1  0  0  0  0
 15  9  2  0  0  0  0
 16 13  2  0  0  0  0
 17 21  1  6  0  0  0
 17  8  1  0  0  0  0
 18  7  1  0  0  0  0
 18 10  1  1  0  0  0
 19 22  1  0  0  0  0
 20 17  1  0  0  0  0
 20 11  1  0  0  0  0
 22  5  1  0  0  0  0
 23 15  1  0  0  0  0
 23 19  2  0  0  0  0
 24 25  1  0  0  0  0
 24 11  1  0  0  0  0
 25 30  1  0  0  0  0
 26 27  2  0  0  0  0
 26 28  1  0  0  0  0
 27 29  1  0  0  0  0
 28 24  2  0  0  0  0
 29 25  2  0  0  0  0
 30 31  1  0  0  0  0
 33 35  2  6  0  0  0
 33 32  1  0  0  0  0
 33 34  1  0  0  0  0
 36 33  1  0  0  0  0
 36 37  1  0  0  0  0
 37 40  1  0  0  0  0
 39 42  1  0  0  0  0
 40 41  2  0  0  0  0
 41 38  1  0  0  0  0
 42 44  1  0  0  0  0
 43 42  1  0  0  0  0
 43 40  1  0  0  0  0
 44 38  2  0  0  0  0
M  END
>  <MODEL>
4

>  <REMARK>
 VINA RESULT:      -7.7      1.674      2.059
  Name = 
  7 active torsions:
  status: ('A' for Active; 'I' for Inactive)
    1  A    between atoms: C_1  and  S_9
    2  A    between atoms: C_1  and  C_11
    3  A    between atoms: P_6  and  S_9
    4  A    between atoms: P_6  and  C_41
    5  A    between atoms: C_8  and  C_23
    6  A    between atoms: N_10  and  C_16
    7  A    between atoms: C_18  and  C_41
                            x       y       z     vdW  Elec       q    Type
                         _______ _______ _______ _____ _____    ______ ____

>  <TORSDO>
F 7

$$$$
=
 OpenBabel11062422153D

 44 49  0  0  1  0  0  0  0  0999 V2000
  187.6540  176.6640  144.1970 C   0  0  0  0  0  2  0  0  0  0  0  0
  191.2410  173.8340  143.9530 C   0  0  2  0  0  3  0  0  0  0  0  0
  193.4890  174.9740  144.5630 N   0  0  0  0  0  2  0  0  0  0  0  0
  186.8380  174.8070  142.9520 O   0  0  0  0  0  1  0  0  0  0  0  0
  190.5280  172.4880  143.9480 C   0  0  0  0  0  2  0  0  0  0  0  0
  190.0110  177.2120  145.2320 C   0  0  0  0  0  2  0  0  0  0  0  0
  193.3120  176.2640  143.8950 C   0  0  2  0  0  3  0  0  0  0  0  0
  189.1200  176.4380  144.2790 C   0  0  2  0  0  3  0  0  0  0  0  0
  191.0790  174.6150  142.6780 C   0  0  0  0  0  0  0  0  0  0  0  0
  191.2940  176.6140  145.1990 O   0  0  0  0  0  0  0  0  0  0  0  0
  187.3740  176.0880  142.7950 C   0  0  2  0  0  0  0  0  0  0  0  0
  190.5190  172.5370  139.5780 N   0  0  0  0  0  1  0  0  0  0  0  0
  193.1000  172.7450  145.0220 O   0  0  0  0  0  0  0  0  0  0  0  0
  190.9950  176.1160  142.7620 C   0  0  1  0  0  3  0  0  0  0  0  0
  190.9330  174.0940  141.4500 C   0  0  0  0  0  3  0  0  0  0  0  0
  192.6600  173.8050  144.4950 C   0  0  0  0  0  0  0  0  0  0  0  0
  189.5620  176.6540  142.8690 C   0  0  1  0  0  0  0  0  0  0  0  0
  191.8610  176.7530  143.8990 C   0  0  2  0  0  3  0  0  0  0  0  0
  190.9400  171.6260  141.6840 N   0  0  0  0  0  0  0  0  0  0  0  0
  188.6080  175.9850  142.0830 O   0  0  0  0  0  0  0  0  0  0  0  0
  189.5750  178.1360  142.4620 C   0  0  0  0  0  1  0  0  0  0  0  0
  191.3050  171.5160  143.0860 C   0  0  0  0  0  2  0  0  0  0  0  0
  190.8320  172.7000  140.9560 C   0  0  0  0  0  0  0  0  0  0  0  0
  186.3980  176.9340  141.9960 C   0  0  0  0  0  0  0  0  0  0  0  0
  185.2850  177.5410  142.6200 C   0  0  0  0  0  0  0  0  0  0  0  0
  185.6760  177.9160  139.8930 C   0  0  0  0  0  3  0  0  0  0  0  0
  184.5930  178.4950  140.5510 C   0  0  0  0  0  3  0  0  0  0  0  0
  186.5750  177.1380  140.6190 C   0  0  0  0  0  3  0  0  0  0  0  0
  184.4240  178.2980  141.8840 N   0  0  0  0  0  0  0  0  0  0  0  0
  185.0530  177.3630  144.0200 N   0  0  0  0  0  2  0  0  0  0  0  0
  184.4490  178.6620  145.0510 S   0  0  0  0  0  1  0  0  0  0  0  0
  193.9310  176.2490  142.5020 C   0  0  0  0  0  2  0  0  0  0  0  0
  195.7260  175.9620  142.5790 P   0  0  2  0  0  0  0  0  0  0  0  0
  196.3180  176.4540  144.0850 O   0  0  0  0  0  1  0  0  0  0  0  0
  196.3860  176.7900  141.5010 O   0  0  0  0  0  0  0  0  0  0  0  0
  196.1960  173.9240  142.2450 S   0  0  0  0  0  0  0  0  0  0  0  0
  194.7420  173.6560  141.1850 C   0  0  0  0  0  2  0  0  0  0  0  0
  196.5720  174.4410  137.9950 C   0  0  0  0  0  3  0  0  0  0  0  0
  193.3140  175.6640  136.7490 C   0  0  0  0  0  1  0  0  0  0  0  0
  195.0190  174.1200  139.7990 C   0  0  0  0  0  0  0  0  0  0  0  0
  196.2220  174.0110  139.3150 N   0  0  0  0  0  0  0  0  0  0  0  0
  194.3030  175.0990  137.6460 N   0  0  0  0  0  0  0  0  0  0  0  0
  193.9030  174.7580  139.0130 C   0  0  0  0  0  2  0  0  0  0  0  0
  195.6520  174.9620  137.1910 C   0  0  0  0  0  3  0  0  0  0  0  0
  2  5  1  6  0  0  0
  2 16  1  0  0  0  0
  7 32  1  6  0  0  0
  7 18  1  0  0  0  0
  7  3  1  0  0  0  0
  8  1  1  6  0  0  0
  8  6  1  0  0  0  0
  9  2  1  0  0  0  0
 10  6  1  0  0  0  0
 11  4  1  1  0  0  0
 11  1  1  0  0  0  0
 12 23  1  0  0  0  0
 14  9  1  1  0  0  0
 14 17  1  0  0  0  0
 14 18  1  0  0  0  0
 15  9  2  0  0  0  0
 16  3  1  0  0  0  0
 16 13  2  0  0  0  0
 17 21  1  6  0  0  0
 17  8  1  0  0  0  0
 18 10  1  1  0  0  0
 19 22  1  0  0  0  0
 20 11  1  0  0  0  0
 20 17  1  0  0  0  0
 22  5  1  0  0  0  0
 23 15  1  0  0  0  0
 23 19  2  0  0  0  0
 24 25  1  0  0  0  0
 24 11  1  0  0  0  0
 25 30  1  0  0  0  0
 26 27  2  0  0  0  0
 26 28  1  0  0  0  0
 27 29  1  0  0  0  0
 28 24  2  0  0  0  0
 29 25  2  0  0  0  0
 30 31  1  0  0  0  0
 32 33  1  0  0  0  0
 33 35  2  6  0  0  0
 33 34  1  0  0  0  0
 36 33  1  0  0  0  0
 37 36  1  0  0  0  0
 38 41  1  0  0  0  0
 39 42  1  0  0  0  0
 40 37  1  0  0  0  0
 41 40  2  0  0  0  0
 42 43  1  0  0  0  0
 43 40  1  0  0  0  0
 44 42  1  0  0  0  0
 44 38  2  0  0  0  0
M  END
>  <MODEL>
5

>  <REMARK>
 VINA RESULT:      -7.5      2.603      3.707
  Name = 
  7 active torsions:
  status: ('A' for Active; 'I' for Inactive)
    1  A    between atoms: C_1  and  S_9
    2  A    between atoms: C_1  and  C_11
    3  A    between atoms: P_6  and  S_9
    4  A    between atoms: P_6  and  C_41
    5  A    between atoms: C_8  and  C_23
    6  A    between atoms: N_10  and  C_16
    7  A    between atoms: C_18  and  C_41
                            x       y       z     vdW  Elec       q    Type
                         _______ _______ _______ _____ _____    ______ ____

>  <TORSDO>
F 7

$$$$
=
 OpenBabel11062422153D

 44 49  0  0  1  0  0  0  0  0999 V2000
  188.7540  176.5800  146.0830 C   0  0  0  0  0  2  0  0  0  0  0  0
  191.6710  173.5910  144.2110 C   0  0  2  0  0  3  0  0  0  0  0  0
  194.1590  174.2390  144.5510 N   0  0  0  0  0  2  0  0  0  0  0  0
  187.3960  175.2960  144.6090 O   0  0  0  0  0  1  0  0  0  0  0  0
  190.7470  172.3970  144.0080 C   0  0  0  0  0  2  0  0  0  0  0  0
  191.3290  176.5240  146.6280 C   0  0  0  0  0  2  0  0  0  0  0  0
  194.0820  175.6820  144.3270 C   0  0  2  0  0  3  0  0  0  0  0  0
  190.1450  176.1820  145.7430 C   0  0  2  0  0  3  0  0  0  0  0  0
  191.3980  174.7390  143.2790 C   0  0  0  0  0  0  0  0  0  0  0  0
  192.4550  175.8300  146.1240 O   0  0  0  0  0  0  0  0  0  0  0  0
  188.1060  176.4970  144.6860 C   0  0  2  0  0  0  0  0  0  0  0  0
  189.8810  173.7910  139.9570 N   0  0  0  0  0  1  0  0  0  0  0  0
  193.4850  172.0320  144.4570 O   0  0  0  0  0  0  0  0  0  0  0  0
  191.5970  176.1420  143.7910 C   0  0  1  0  0  3  0  0  0  0  0  0
  190.9230  174.6410  142.0280 C   0  0  0  0  0  3  0  0  0  0  0  0
  193.1410  173.2430  144.3650 C   0  0  0  0  0  0  0  0  0  0  0  0
  190.3300  176.7720  144.3840 C   0  0  1  0  0  0  0  0  0  0  0  0
  192.7680  176.3000  144.8160 C   0  0  2  0  0  3  0  0  0  0  0  0
  190.5450  172.2360  141.5640 N   0  0  0  0  0  0  0  0  0  0  0  0
  189.1370  176.4850  143.6980 O   0  0  0  0  0  0  0  0  0  0  0  0
  190.5210  178.2970  144.4110 C   0  0  0  0  0  1  0  0  0  0  0  0
  191.1560  171.6610  142.7500 C   0  0  0  0  0  2  0  0  0  0  0  0
  190.4840  173.4860  141.2080 C   0  0  0  0  0  0  0  0  0  0  0  0
  187.1540  177.6480  144.4120 C   0  0  0  0  0  0  0  0  0  0  0  0
  186.8590  178.0470  143.0900 C   0  0  0  0  0  0  0  0  0  0  0  0
  185.6680  179.4010  145.2070 C   0  0  0  0  0  3  0  0  0  0  0  0
  185.4070  179.7580  143.8870 C   0  0  0  0  0  3  0  0  0  0  0  0
  186.5410  178.3460  145.4650 C   0  0  0  0  0  3  0  0  0  0  0  0
  186.0000  179.0810  142.8690 N   0  0  0  0  0  0  0  0  0  0  0  0
  187.4590  177.3750  141.9800 N   0  0  0  0  0  2  0  0  0  0  0  0
  186.6880  177.2930  140.3950 S   0  0  0  0  0  1  0  0  0  0  0  0
  194.4000  176.0300  142.8780 C   0  0  0  0  0  2  0  0  0  0  0  0
  196.1350  175.6620  142.4740 P   0  0  2  0  0  0  0  0  0  0  0  0
  197.0620  175.6670  143.8890 O   0  0  0  0  0  1  0  0  0  0  0  0
  196.6480  176.7420  141.5510 O   0  0  0  0  0  0  0  0  0  0  0  0
  196.3190  173.7940  141.4930 S   0  0  0  0  0  0  0  0  0  0  0  0
  194.6080  173.8340  140.8750 C   0  0  0  0  0  2  0  0  0  0  0  0
  193.3170  174.9250  137.5160 C   0  0  0  0  0  3  0  0  0  0  0  0
  196.8520  175.6240  136.6900 C   0  0  0  0  0  1  0  0  0  0  0  0
  194.5750  174.3410  139.4770 C   0  0  0  0  0  0  0  0  0  0  0  0
  193.4330  174.4540  138.8630 N   0  0  0  0  0  0  0  0  0  0  0  0
  195.6870  175.2120  137.4490 N   0  0  0  0  0  0  0  0  0  0  0  0
  195.8780  174.6570  138.7910 C   0  0  0  0  0  2  0  0  0  0  0  0
  194.3970  175.2910  136.8350 C   0  0  0  0  0  3  0  0  0  0  0  0
  2  5  1  6  0  0  0
  2 16  1  0  0  0  0
  7 32  1  6  0  0  0
  7  3  1  0  0  0  0
  7 18  1  0  0  0  0
  8  1  1  1  0  0  0
  8  6  1  0  0  0  0
  9  2  1  0  0  0  0
 10  6  1  0  0  0  0
 11  4  1  6  0  0  0
 11  1  1  0  0  0  0
 12 23  1  0  0  0  0
 14  9  1  1  0  0  0
 14 17  1  0  0  0  0
 14 18  1  0  0  0  0
 15  9  2  0  0  0  0
 16 13  2  0  0  0  0
 16  3  1  0  0  0  0
 17 21  1  1  0  0  0
 17  8  1  0  0  0  0
 18 10  1  1  0  0  0
 19 22  1  0  0  0  0
 20 17  1  0  0  0  0
 20 11  1  0  0  0  0
 22  5  1  0  0  0  0
 23 19  2  0  0  0  0
 23 15  1  0  0  0  0
 24 11  1  0  0  0  0
 24 28  2  0  0  0  0
 25 24  1  0  0  0  0
 26 28  1  0  0  0  0
 27 26  2  0  0  0  0
 29 25  2  0  0  0  0
 29 27  1  0  0  0  0
 30 25  1  0  0  0  0
 31 30  1  0  0  0  0
 33 35  2  6  0  0  0
 33 32  1  0  0  0  0
 33 34  1  0  0  0  0
 36 33  1  0  0  0  0
 37 36  1  0  0  0  0
 38 41  1  0  0  0  0
 39 42  1  0  0  0  0
 40 37  1  0  0  0  0
 41 40  2  0  0  0  0
 42 43  1  0  0  0  0
 43 40  1  0  0  0  0
 44 42  1  0  0  0  0
 44 38  2  0  0  0  0
M  END
>  <MODEL>
6

>  <REMARK>
 VINA RESULT:      -7.4      2.204      3.338
  Name = 
  7 active torsions:
  status: ('A' for Active; 'I' for Inactive)
    1  A    between atoms: C_1  and  S_9
    2  A    between atoms: C_1  and  C_11
    3  A    between atoms: P_6  and  S_9
    4  A    between atoms: P_6  and  C_41
    5  A    between atoms: C_8  and  C_23
    6  A    between atoms: N_10  and  C_16
    7  A    between atoms: C_18  and  C_41
                            x       y       z     vdW  Elec       q    Type
                         _______ _______ _______ _____ _____    ______ ____

>  <TORSDO>
F 7

$$$$
=
 OpenBabel11062422153D

 44 49  0  0  1  0  0  0  0  0999 V2000
  187.7080  176.7180  144.2900 C   0  0  0  0  0  2  0  0  0  0  0  0
  191.2050  173.7750  144.0560 C   0  0  2  0  0  3  0  0  0  0  0  0
  193.5000  174.8700  144.5640 N   0  0  0  0  0  2  0  0  0  0  0  0
  186.8060  174.8420  143.1370 O   0  0  0  0  0  1  0  0  0  0  0  0
  190.4540  172.4520  144.1200 C   0  0  0  0  0  2  0  0  0  0  0  0
  190.1080  177.2320  145.2420 C   0  0  0  0  0  2  0  0  0  0  0  0
  193.3420  176.1400  143.8530 C   0  0  2  0  0  3  0  0  0  0  0  0
  189.1690  176.4510  144.3420 C   0  0  2  0  0  3  0  0  0  0  0  0
  191.0300  174.5140  142.7580 C   0  0  0  0  0  0  0  0  0  0  0  0
  191.3720  176.5960  145.1970 O   0  0  0  0  0  0  0  0  0  0  0  0
  187.3740  176.0990  142.9180 C   0  0  2  0  0  0  0  0  0  0  0  0
  190.3260  172.3440  139.7530 N   0  0  0  0  0  1  0  0  0  0  0  0
  193.0600  172.6710  145.1140 O   0  0  0  0  0  0  0  0  0  0  0  0
  190.9920  176.0190  142.7890 C   0  0  1  0  0  3  0  0  0  0  0  0
  190.8350  173.9540  141.5550 C   0  0  0  0  0  3  0  0  0  0  0  0
  192.6370  173.7240  144.5610 C   0  0  0  0  0  0  0  0  0  0  0  0
  189.5780  176.6030  142.9140 C   0  0  1  0  0  0  0  0  0  0  0  0
  191.9060  176.6710  143.8780 C   0  0  2  0  0  3  0  0  0  0  0  0
  190.7780  171.4970  141.8790 N   0  0  0  0  0  0  0  0  0  0  0  0
  188.5840  175.9340  142.1780 O   0  0  0  0  0  0  0  0  0  0  0  0
  189.6220  178.0690  142.4520 C   0  0  0  0  0  1  0  0  0  0  0  0
  191.1790  171.4270  143.2740 C   0  0  0  0  0  2  0  0  0  0  0  0
  190.6810  172.5460  141.1150 C   0  0  0  0  0  0  0  0  0  0  0  0
  186.4000  176.9450  142.1160 C   0  0  0  0  0  0  0  0  0  0  0  0
  185.2900  177.5600  142.7360 C   0  0  0  0  0  0  0  0  0  0  0  0
  185.6800  177.9170  140.0070 C   0  0  0  0  0  3  0  0  0  0  0  0
  184.6010  178.5040  140.6620 C   0  0  0  0  0  3  0  0  0  0  0  0
  186.5770  177.1400  140.7370 C   0  0  0  0  0  3  0  0  0  0  0  0
  184.4310  178.3160  141.9970 N   0  0  0  0  0  0  0  0  0  0  0  0
  185.0580  177.3910  144.1370 N   0  0  0  0  0  2  0  0  0  0  0  0
  184.4350  178.6910  145.1560 S   0  0  0  0  0  1  0  0  0  0  0  0
  193.9220  176.0560  142.4460 C   0  0  0  0  0  2  0  0  0  0  0  0
  195.7400  176.0300  142.4800 P   0  0  2  0  0  0  0  0  0  0  0  0
  196.2950  176.7950  143.8830 O   0  0  0  0  0  1  0  0  0  0  0  0
  196.2490  176.7880  141.2770 O   0  0  0  0  0  0  0  0  0  0  0  0
  196.4840  174.0480  142.3920 S   0  0  0  0  0  0  0  0  0  0  0  0
  195.1440  173.4850  141.2980 C   0  0  0  0  0  2  0  0  0  0  0  0
  194.8340  170.2010  143.1060 C   0  0  0  0  0  3  0  0  0  0  0  0
  193.0200  169.0330  140.1050 C   0  0  0  0  0  1  0  0  0  0  0  0
  194.7900  172.0710  141.5990 C   0  0  0  0  0  0  0  0  0  0  0  0
  195.1290  171.5550  142.7450 N   0  0  0  0  0  0  0  0  0  0  0  0
  193.7490  169.9120  140.9980 N   0  0  0  0  0  0  0  0  0  0  0  0
  194.0970  171.2580  140.5370 C   0  0  0  0  0  2  0  0  0  0  0  0
  194.1710  169.4110  142.2700 C   0  0  0  0  0  3  0  0  0  0  0  0
  2  5  1  6  0  0  0
  2 16  1  0  0  0  0
  7 32  1  6  0  0  0
  7 18  1  0  0  0  0
  7  3  1  0  0  0  0
  8  1  1  6  0  0  0
  8  6  1  0  0  0  0
  9  2  1  0  0  0  0
 10  6  1  0  0  0  0
 11  4  1  1  0  0  0
 11  1  1  0  0  0  0
 12 23  1  0  0  0  0
 14  9  1  1  0  0  0
 14 17  1  0  0  0  0
 14 18  1  0  0  0  0
 15  9  2  0  0  0  0
 16  3  1  0  0  0  0
 16 13  2  0  0  0  0
 17 21  1  6  0  0  0
 17  8  1  0  0  0  0
 18 10  1  1  0  0  0
 19 22  1  0  0  0  0
 20 17  1  0  0  0  0
 20 11  1  0  0  0  0
 22  5  1  0  0  0  0
 23 15  1  0  0  0  0
 23 19  2  0  0  0  0
 24 25  1  0  0  0  0
 24 11  1  0  0  0  0
 25 30  1  0  0  0  0
 26 27  2  0  0  0  0
 26 28  1  0  0  0  0
 27 29  1  0  0  0  0
 28 24  2  0  0  0  0
 29 25  2  0  0  0  0
 30 31  1  0  0  0  0
 32 33  1  0  0  0  0
 33 35  2  6  0  0  0
 33 34  1  0  0  0  0
 36 33  1  0  0  0  0
 37 40  1  0  0  0  0
 37 36  1  0  0  0  0
 39 42  1  0  0  0  0
 40 41  2  0  0  0  0
 41 38  1  0  0  0  0
 42 44  1  0  0  0  0
 43 42  1  0  0  0  0
 43 40  1  0  0  0  0
 44 38  2  0  0  0  0
M  END
>  <MODEL>
7

>  <REMARK>
 VINA RESULT:      -7.3      2.084      2.635
  Name = 
  7 active torsions:
  status: ('A' for Active; 'I' for Inactive)
    1  A    between atoms: C_1  and  S_9
    2  A    between atoms: C_1  and  C_11
    3  A    between atoms: P_6  and  S_9
    4  A    between atoms: P_6  and  C_41
    5  A    between atoms: C_8  and  C_23
    6  A    between atoms: N_10  and  C_16
    7  A    between atoms: C_18  and  C_41
                            x       y       z     vdW  Elec       q    Type
                         _______ _______ _______ _____ _____    ______ ____

>  <TORSDO>
F 7

$$$$
=
 OpenBabel11062422153D

 44 49  0  0  1  0  0  0  0  0999 V2000
  194.4670  175.0220  143.9960 C   0  0  0  0  0  2  0  0  0  0  0  0
  190.1310  175.8930  142.8180 C   0  0  2  0  0  3  0  0  0  0  0  0
  189.0250  177.7310  144.2740 N   0  0  0  0  0  2  0  0  0  0  0  0
  193.8540  173.1640  142.6400 O   0  0  0  0  0  1  0  0  0  0  0  0
  190.0890  175.2540  141.4360 C   0  0  0  0  0  2  0  0  0  0  0  0
  193.1380  177.1440  144.8080 C   0  0  0  0  0  2  0  0  0  0  0  0
  189.5430  177.3630  145.5920 C   0  0  2  0  0  3  0  0  0  0  0  0
  193.1880  175.7380  144.2400 C   0  0  2  0  0  3  0  0  0  0  0  0
  190.1990  174.9020  143.9470 C   0  0  0  0  0  0  0  0  0  0  0  0
  191.7980  177.5930  144.7210 O   0  0  0  0  0  0  0  0  0  0  0  0
  193.9570  173.5670  143.9740 C   0  0  2  0  0  0  0  0  0  0  0  0
  188.6500  171.5370  143.2290 N   0  0  0  0  0  1  0  0  0  0  0  0
  188.4630  177.4460  142.0530 O   0  0  0  0  0  0  0  0  0  0  0  0
  190.9920  175.2650  145.1750 C   0  0  1  0  0  3  0  0  0  0  0  0
  189.6630  173.6710  143.9460 C   0  0  0  0  0  3  0  0  0  0  0  0
  189.1380  177.0220  143.0320 C   0  0  0  0  0  0  0  0  0  0  0  0
  192.4520  174.7940  145.1330 C   0  0  1  0  0  0  0  0  0  0  0  0
  190.9610  176.7850  145.5430 C   0  0  2  0  0  3  0  0  0  0  0  0
  188.5900  173.3300  141.7380 N   0  0  0  0  0  0  0  0  0  0  0  0
  192.6580  173.5240  144.5670 O   0  0  0  0  0  0  0  0  0  0  0  0
  192.9920  174.7810  146.5720 C   0  0  0  0  0  1  0  0  0  0  0  0
  188.7120  174.6740  141.1990 C   0  0  0  0  0  2  0  0  0  0  0  0
  188.9320  172.8950  142.9160 C   0  0  0  0  0  0  0  0  0  0  0  0
  194.8820  172.6100  144.7060 C   0  0  0  0  0  0  0  0  0  0  0  0
  194.4820  171.2840  144.9840 C   0  0  0  0  0  0  0  0  0  0  0  0
  197.0010  172.1340  145.7960 C   0  0  0  0  0  3  0  0  0  0  0  0
  196.5640  170.8360  146.0470 C   0  0  0  0  0  3  0  0  0  0  0  0
  196.1580  173.0170  145.1250 C   0  0  0  0  0  3  0  0  0  0  0  0
  195.3290  170.4430  145.6400 N   0  0  0  0  0  0  0  0  0  0  0  0
  193.1900  170.8180  144.5840 N   0  0  0  0  0  2  0  0  0  0  0  0
  192.9660  169.6760  143.2580 S   0  0  0  0  0  1  0  0  0  0  0  0
  188.5610  176.4670  146.3370 C   0  0  0  0  0  2  0  0  0  0  0  0
  186.8880  177.1810  146.3430 P   0  0  2  0  0  0  0  0  0  0  0  0
  186.9890  178.8690  146.3490 O   0  0  0  0  0  0  0  0  0  0  0  0
  186.1830  176.7290  147.6000 O   0  0  0  0  0  1  0  0  0  0  0  0
  185.7650  176.5270  144.6700 S   0  0  0  0  0  0  0  0  0  0  0  0
  185.2070  178.2090  144.2590 C   0  0  0  0  0  2  0  0  0  0  0  0
  184.8940  178.2540  140.5110 C   0  0  0  0  0  3  0  0  0  0  0  0
  181.2430  178.3130  141.0910 C   0  0  0  0  0  1  0  0  0  0  0  0
  184.6100  178.2370  142.8960 C   0  0  0  0  0  0  0  0  0  0  0  0
  185.3890  178.2200  141.8540 N   0  0  0  0  0  0  0  0  0  0  0  0
  182.6660  178.2870  141.3710 N   0  0  0  0  0  0  0  0  0  0  0  0
  183.1120  178.3420  142.7650 C   0  0  0  0  0  2  0  0  0  0  0  0
  183.5870  178.2850  140.2760 C   0  0  0  0  0  3  0  0  0  0  0  0
  2  5  1  6  0  0  0
  2 16  1  0  0  0  0
  2  9  1  0  0  0  0
  3  7  1  0  0  0  0
  7 32  1  6  0  0  0
  8  1  1  1  0  0  0
  8  6  1  0  0  0  0
  8 17  1  0  0  0  0
 10  6  1  0  0  0  0
 11  4  1  6  0  0  0
 11  1  1  0  0  0  0
 11 20  1  0  0  0  0
 11 24  1  0  0  0  0
 13 16  2  0  0  0  0
 14  9  1  6  0  0  0
 14 18  1  0  0  0  0
 15  9  2  0  0  0  0
 16  3  1  0  0  0  0
 17 14  1  0  0  0  0
 17 21  1  1  0  0  0
 18 10  1  6  0  0  0
 18  7  1  0  0  0  0
 19 23  2  0  0  0  0
 20 17  1  0  0  0  0
 22  5  1  0  0  0  0
 22 19  1  0  0  0  0
 23 12  1  0  0  0  0
 23 15  1  0  0  0  0
 24 25  1  0  0  0  0
 24 28  2  0  0  0  0
 25 29  2  0  0  0  0
 26 27  2  0  0  0  0
 28 26  1  0  0  0  0
 29 27  1  0  0  0  0
 30 25  1  0  0  0  0
 31 30  1  0  0  0  0
 32 33  1  0  0  0  0
 33 34  2  6  0  0  0
 33 35  1  0  0  0  0
 36 33  1  0  0  0  0
 37 36  1  0  0  0  0
 38 41  1  0  0  0  0
 39 42  1  0  0  0  0
 40 37  1  0  0  0  0
 41 40  2  0  0  0  0
 42 43  1  0  0  0  0
 43 40  1  0  0  0  0
 44 38  2  0  0  0  0
 44 42  1  0  0  0  0
M  END
>  <MODEL>
8

>  <REMARK>
 VINA RESULT:      -7.2      2.879      9.359
  Name = 
  7 active torsions:
  status: ('A' for Active; 'I' for Inactive)
    1  A    between atoms: C_1  and  S_9
    2  A    between atoms: C_1  and  C_11
    3  A    between atoms: P_6  and  S_9
    4  A    between atoms: P_6  and  C_41
    5  A    between atoms: C_8  and  C_23
    6  A    between atoms: N_10  and  C_16
    7  A    between atoms: C_18  and  C_41
                            x       y       z     vdW  Elec       q    Type
                         _______ _______ _______ _____ _____    ______ ____

>  <TORSDO>
F 7

$$$$
=
 OpenBabel11062422153D

 44 49  0  0  1  0  0  0  0  0999 V2000
  189.4280  174.6720  144.3280 C   0  0  0  0  0  2  0  0  0  0  0  0
  191.7360  172.0750  141.3500 C   0  0  2  0  0  3  0  0  0  0  0  0
  194.3080  172.3400  141.5400 N   0  0  0  0  0  2  0  0  0  0  0  0
  187.7810  174.0160  142.7400 O   0  0  0  0  0  1  0  0  0  0  0  0
  190.6470  171.0920  140.9420 C   0  0  0  0  0  2  0  0  0  0  0  0
  192.0110  174.1990  144.5080 C   0  0  0  0  0  2  0  0  0  0  0  0
  194.4040  173.7870  141.7360 C   0  0  2  0  0  3  0  0  0  0  0  0
  190.7160  174.2510  143.7190 C   0  0  2  0  0  3  0  0  0  0  0  0
  191.5340  173.4660  140.8150 C   0  0  0  0  0  0  0  0  0  0  0  0
  192.9840  173.5710  143.6940 O   0  0  0  0  0  0  0  0  0  0  0  0
  188.6490  175.0640  143.0570 C   0  0  2  0  0  0  0  0  0  0  0  0
  189.6050  173.6810  137.5780 N   0  0  0  0  0  1  0  0  0  0  0  0
  193.3410  170.3360  140.9250 O   0  0  0  0  0  0  0  0  0  0  0  0
  191.9640  174.6320  141.6650 C   0  0  1  0  0  3  0  0  0  0  0  0
  190.9370  173.7830  139.6560 C   0  0  0  0  0  3  0  0  0  0  0  0
  193.1550  171.5500  141.2160 C   0  0  0  0  0  0  0  0  0  0  0  0
  190.8520  175.1880  142.5650 C   0  0  1  0  0  0  0  0  0  0  0  0
  193.2350  174.3660  142.5380 C   0  0  2  0  0  3  0  0  0  0  0  0
  190.2010  171.6680  138.5950 N   0  0  0  0  0  0  0  0  0  0  0  0
  189.5740  175.2350  141.9820 O   0  0  0  0  0  0  0  0  0  0  0  0
  191.2470  176.6120  142.9880 C   0  0  0  0  0  1  0  0  0  0  0  0
  190.8360  170.7140  139.4890 C   0  0  0  0  0  2  0  0  0  0  0  0
  190.2750  172.9670  138.6100 C   0  0  0  0  0  0  0  0  0  0  0  0
  187.8370  176.3360  143.2350 C   0  0  0  0  0  0  0  0  0  0  0  0
  187.1700  176.9300  142.1410 C   0  0  0  0  0  0  0  0  0  0  0  0
  186.9820  178.1200  144.6470 C   0  0  0  0  0  3  0  0  0  0  0  0
  186.3410  178.6690  143.5390 C   0  0  0  0  0  3  0  0  0  0  0  0
  187.7280  176.9540  144.4900 C   0  0  0  0  0  3  0  0  0  0  0  0
  186.4460  178.0690  142.3250 N   0  0  0  0  0  0  0  0  0  0  0  0
  187.2510  176.3450  140.8380 N   0  0  0  0  0  2  0  0  0  0  0  0
  186.6910  177.1830  139.3890 S   0  0  0  0  0  1  0  0  0  0  0  0
  194.6320  174.5060  140.4120 C   0  0  0  0  0  2  0  0  0  0  0  0
  196.2710  175.2910  140.3580 P   0  0  2  0  0  0  0  0  0  0  0  0
  196.1540  176.8930  140.8890 O   0  0  0  0  0  1  0  0  0  0  0  0
  196.7550  175.2860  138.9270 O   0  0  0  0  0  0  0  0  0  0  0  0
  197.6720  174.2350  141.5450 S   0  0  0  0  0  0  0  0  0  0  0  0
  197.8550  175.6030  142.7290 C   0  0  0  0  0  2  0  0  0  0  0  0
  196.2560  174.0530  145.7600 C   0  0  0  0  0  3  0  0  0  0  0  0
  194.1040  177.0580  145.8220 C   0  0  0  0  0  1  0  0  0  0  0  0
  196.9580  175.3990  143.8990 C   0  0  0  0  0  0  0  0  0  0  0  0
  197.0850  174.3270  144.6250 N   0  0  0  0  0  0  0  0  0  0  0  0
  195.1300  176.1260  145.3930 N   0  0  0  0  0  0  0  0  0  0  0  0
  195.8860  176.4210  144.1740 C   0  0  0  0  0  2  0  0  0  0  0  0
  195.3180  174.9160  146.1310 C   0  0  0  0  0  3  0  0  0  0  0  0
  2  5  1  6  0  0  0
  3  7  1  0  0  0  0
  7 32  1  6  0  0  0
  7 18  1  0  0  0  0
  8  1  1  1  0  0  0
  8  6  1  0  0  0  0
  9  2  1  0  0  0  0
 10  6  1  0  0  0  0
 11  4  1  6  0  0  0
 11 24  1  0  0  0  0
 11  1  1  0  0  0  0
 12 23  1  0  0  0  0
 13 16  2  0  0  0  0
 14  9  1  1  0  0  0
 14 18  1  0  0  0  0
 14 17  1  0  0  0  0
 15  9  2  0  0  0  0
 16  2  1  0  0  0  0
 16  3  1  0  0  0  0
 17 21  1  1  0  0  0
 17  8  1  0  0  0  0
 18 10  1  1  0  0  0
 19 23  2  0  0  0  0
 19 22  1  0  0  0  0
 20 17  1  0  0  0  0
 20 11  1  0  0  0  0
 22  5  1  0  0  0  0
 23 15  1  0  0  0  0
 24 28  2  0  0  0  0
 25 29  2  0  0  0  0
 25 24  1  0  0  0  0
 27 26  2  0  0  0  0
 28 26  1  0  0  0  0
 29 27  1  0  0  0  0
 30 25  1  0  0  0  0
 31 30  1  0  0  0  0
 33 35  2  6  0  0  0
 33 32  1  0  0  0  0
 33 34  1  0  0  0  0
 33 36  1  0  0  0  0
 36 37  1  0  0  0  0
 37 40  1  0  0  0  0
 38 44  2  0  0  0  0
 40 43  1  0  0  0  0
 40 41  2  0  0  0  0
 41 38  1  0  0  0  0
 42 39  1  0  0  0  0
 42 44  1  0  0  0  0
 43 42  1  0  0  0  0
M  END
>  <MODEL>
9

>  <REMARK>
 VINA RESULT:      -7.2      2.063      2.983
  Name = 
  7 active torsions:
  status: ('A' for Active; 'I' for Inactive)
    1  A    between atoms: C_1  and  S_9
    2  A    between atoms: C_1  and  C_11
    3  A    between atoms: P_6  and  S_9
    4  A    between atoms: P_6  and  C_41
    5  A    between atoms: C_8  and  C_23
    6  A    between atoms: N_10  and  C_16
    7  A    between atoms: C_18  and  C_41
                            x       y       z     vdW  Elec       q    Type
                         _______ _______ _______ _____ _____    ______ ____

>  <TORSDO>
F 7

$$$$
