=
 OpenBabel11062421453D

 70 77  0  0  1  0  0  0  0  0999 V2000
  190.4910  171.9720  141.2520 N   0  0  0  0  0  0  0  0  0  0  0  0
  191.3690  169.8550  140.2300 C   0  0  0  0  0  2  0  0  0  0  0  0
  190.3890  170.5020  141.2270 C   0  0  0  0  0  2  0  0  0  0  0  0
  191.8860  172.3930  141.3220 C   0  0  0  0  0  2  0  0  0  0  0  0
  191.9590  170.8770  139.2530 C   0  0  2  0  0  3  0  0  0  0  0  0
  192.6340  172.0310  140.0270 C   0  0  2  0  0  3  0  0  0  0  0  0
  190.8410  171.4520  136.1100 C   0  0  0  0  0  0  0  0  0  0  0  0
  190.0620  171.0840  134.8740 C   0  0  0  0  0  2  0  0  0  0  0  0
  190.1760  173.7610  138.4860 C   0  0  0  0  0  1  0  0  0  0  0  0
  190.7930  170.5530  137.1740 O   0  0  0  0  0  0  0  0  0  0  0  0
  191.1270  172.7930  137.8080 C   0  0  2  0  0  3  0  0  0  0  0  0
  190.9170  172.8080  136.4290 O   0  0  0  0  0  0  0  0  0  0  0  0
  191.5910  171.0020  134.8830 C   0  0  0  0  0  2  0  0  0  0  0  0
  190.8660  171.3800  138.2990 C   0  0  2  0  0  3  0  0  0  0  0  0
  195.2190  172.1730  139.4110 C   0  0  2  0  0  3  0  0  0  0  0  0
  194.1000  171.6970  140.3400 C   0  0  1  0  0  0  0  0  0  0  0  0
  194.9890  172.8600  140.7570 C   0  0  0  0  0  2  0  0  0  0  0  0
  195.3000  174.4690  138.3810 C   0  0  1  0  0  3  0  0  0  0  0  0
  196.5400  172.6170  136.4940 C   0  0  0  0  0  2  0  0  0  0  0  0
  195.8350  175.0470  137.0700 C   0  0  0  0  0  2  0  0  0  0  0  0
  194.3260  175.3190  138.9060 O   0  0  0  0  0  1  0  0  0  0  0  0
  197.9410  174.5890  135.7260 S   0  0  0  0  0  0  0  0  0  0  0  0
  196.8130  174.0900  136.4570 C   0  0  0  0  0  0  0  0  0  0  0  0
  195.0970  172.3510  136.9240 C   0  0  0  0  0  2  0  0  0  0  0  0
  194.7340  173.0380  138.2520 C   0  0  1  0  0  3  0  0  0  0  0  0
  194.3900  170.4420  140.9010 O   0  0  0  0  0  0  0  0  0  0  0  0
  195.3060  170.6460  141.8340 O   0  0  0  0  0  0  0  0  0  0  0  0
  193.2080  168.5920  144.8270 C   0  0  0  0  0  2  0  0  0  0  0  0
  195.1880  169.6010  142.7710 C   0  0  2  0  0  3  0  0  0  0  0  0
  197.1400  169.6100  145.6360 O   0  0  0  0  0  0  0  0  0  0  0  0
  194.9390  169.2070  146.6040 C   0  0  0  0  0  2  0  0  0  0  0  0
  196.3550  169.7690  146.7980 C   0  0  0  0  0  2  0  0  0  0  0  0
  194.6700  168.9430  145.1230 C   0  0  2  0  0  3  0  0  0  0  0  0
  194.0800  168.5810  142.4230 C   0  0  0  0  0  2  0  0  0  0  0  0
  194.3640  171.1910  144.3760 F   0  0  0  0  0  0  0  0  0  0  0  0
  195.1900  170.0870  144.2330 C   0  0  2  0  0  0  0  0  0  0  0  0
  196.6140  170.4890  144.6640 C   0  0  0  0  0  2  0  0  0  0  0  0
  192.8570  168.7380  143.3390 C   0  0  0  0  0  2  0  0  0  0  0  0
  189.7540  172.5930  142.3650 C   0  0  0  0  0  2  0  0  0  0  0  0
  188.7620  173.7010  141.9730 C   0  0  0  0  0  2  0  0  0  0  0  0
  190.6010  175.1360  142.4310 O   0  0  0  0  0  1  0  0  0  0  0  0
  188.2350  176.7220  143.4900 C   0  0  1  0  0  0  0  0  0  0  0  0
  189.2050  175.1010  142.3910 C   0  0  2  0  0  0  0  0  0  0  0  0
  188.6990  175.4160  143.6480 O   0  0  0  0  0  0  0  0  0  0  0  0
  188.6140  177.1550  142.2070 O   0  0  0  0  0  0  0  0  0  0  0  0
  188.7470  176.0550  141.4880 O   0  0  0  0  0  0  0  0  0  0  0  0
  186.1640  175.4750  143.4100 O   0  0  0  0  0  1  0  0  0  0  0  0
  186.6870  176.7570  143.6100 C   0  0  2  0  0  3  0  0  0  0  0  0
  185.8870  177.8240  142.7900 C   0  0  2  0  0  0  0  0  0  0  0  0
  186.6980  178.9390  142.5020 O   0  0  0  0  0  1  0  0  0  0  0  0
  184.6420  178.2970  143.5840 C   0  0  2  0  0  3  0  0  0  0  0  0
  183.5820  178.5800  142.7160 O   0  0  0  0  0  1  0  0  0  0  0  0
  184.9020  179.5250  144.4600 C   0  0  0  0  0  2  0  0  0  0  0  0
  185.1350  179.1200  145.9100 C   0  0  0  0  0  2  0  0  0  0  0  0
  184.0980  178.2910  146.3440 O   0  0  0  0  0  1  0  0  0  0  0  0
  185.4060  177.2110  141.5940 O   0  0  0  0  0  0  0  0  0  0  0  0
  185.8270  177.9230  140.4540 C   0  0  0  0  0  1  0  0  0  0  0  0
  188.9190  177.6070  144.5420 C   0  0  0  0  0  2  0  0  0  0  0  0
  188.8050  177.0470  145.9540 C   0  0  1  0  0  3  0  0  0  0  0  0
  188.2870  175.7640  145.8850 F   0  0  0  0  0  0  0  0  0  0  0  0
  190.1880  177.0200  146.5960 C   0  0  0  0  0  2  0  0  0  0  0  0
  190.7680  175.6150  146.5910 C   0  0  0  0  0  2  0  0  0  0  0  0
  192.0260  175.6110  147.1980 O   0  0  0  0  0  0  0  0  0  0  0  0
  192.9370  175.8380  146.1630 C   0  0  1  0  0  3  0  0  0  0  0  0
  194.0740  176.7240  146.6600 C   0  0  0  0  0  2  0  0  0  0  0  0
  194.4510  177.6390  145.6740 O   0  0  0  0  0  1  0  0  0  0  0  0
  193.4940  174.5170  145.6580 C   0  0  0  0  0  2  0  0  0  0  0  0
  194.0350  174.6810  144.3160 N   0  0  0  0  0  2  0  0  0  0  0  0
  195.4410  174.3190  144.3680 C   0  0  0  0  0  2  0  0  0  0  0  0
  195.7360  173.7450  145.6070 O   0  0  0  0  0  1  0  0  0  0  0  0
  1  4  1  0  0  0  0
  1 39  1  0  0  0  0
  2  3  1  0  0  0  0
  3  1  1  0  0  0  0
  5  6  1  0  0  0  0
  5  2  1  1  0  0  0
  6 16  1  0  0  0  0
  6  4  1  1  0  0  0
  7 12  1  0  0  0  0
  7 10  1  0  0  0  0
  8 13  1  0  0  0  0
  8  7  1  0  0  0  0
 11 14  1  0  0  0  0
 11  9  1  1  0  0  0
 12 11  1  0  0  0  0
 13  7  1  0  0  0  0
 14 10  1  6  0  0  0
 14  5  1  0  0  0  0
 15 16  1  0  0  0  0
 15 17  1  1  0  0  0
 16 17  1  0  0  0  0
 16 26  1  1  0  0  0
 18 21  1  6  0  0  0
 19 24  1  0  0  0  0
 20 18  1  0  0  0  0
 22 23  2  0  0  0  0
 23 19  1  0  0  0  0
 23 20  1  0  0  0  0
 25 24  1  6  0  0  0
 25 18  1  0  0  0  0
 25 15  1  0  0  0  0
 26 27  1  0  0  0  0
 29 27  1  6  0  0  0
 29 36  1  0  0  0  0
 30 32  1  0  0  0  0
 31 32  1  0  0  0  0
 33 28  1  1  0  0  0
 33 31  1  0  0  0  0
 34 29  1  0  0  0  0
 34 38  1  0  0  0  0
 36 35  1  1  0  0  0
 36 37  1  0  0  0  0
 36 33  1  0  0  0  0
 37 30  1  0  0  0  0
 38 28  1  0  0  0  0
 40 39  1  0  0  0  0
 40 43  1  0  0  0  0
 42 48  1  0  0  0  0
 42 44  1  0  0  0  0
 42 58  1  1  0  0  0
 43 41  1  1  0  0  0
 43 44  1  0  0  0  0
 45 42  1  0  0  0  0
 46 45  1  0  0  0  0
 46 43  1  0  0  0  0
 48 47  1  6  0  0  0
 49 50  1  6  0  0  0
 49 51  1  0  0  0  0
 49 48  1  0  0  0  0
 51 52  1  6  0  0  0
 51 53  1  0  0  0  0
 53 54  1  0  0  0  0
 54 55  1  0  0  0  0
 56 49  1  0  0  0  0
 57 56  1  0  0  0  0
 58 59  1  0  0  0  0
 59 60  1  6  0  0  0
 59 61  1  0  0  0  0
 62 61  1  0  0  0  0
 62 63  1  0  0  0  0
 64 67  1  1  0  0  0
 64 65  1  0  0  0  0
 64 63  1  0  0  0  0
 66 65  1  0  0  0  0
 68 69  1  0  0  0  0
 68 67  1  0  0  0  0
 69 70  1  0  0  0  0
M  END
>  <MODEL>
1

>  <REMARK>
 VINA RESULT:      -6.2      0.000      0.000
  Name = 
  25 active torsions:
  status: ('A' for Active; 'I' for Inactive)
    1  A    between atoms: N_2  and  C_20
    2  A    between atoms: C_3  and  C_44
    3  A    between atoms: C_4  and  C_30
    4  A    between atoms: C_4  and  C_34
    5  A    between atoms: O_6  and  C_38
    6  A    between atoms: C_10  and  O_39
    7  A    between atoms: C_11  and  O_53
    8  A    between atoms: C_11  and  C_59
    9  A    between atoms: C_12  and  C_67
   10  A    between atoms: C_14  and  C_30
   11  A    between atoms: C_14  and  C_40
   12  A    between atoms: C_20  and  C_50
   13  A    between atoms: C_21  and  C_23
   14  A    between atoms: C_21  and  C_60
   15  A    between atoms: C_25  and  C_50
   16  A    between atoms: C_26  and  N_55
   17  A    between atoms: C_34  and  C_58
   18  A    between atoms: C_38  and  C_40
   19  A    between atoms: C_38  and  C_60
   20  A    between atoms: O_39  and  O_53
   21  A    between atoms: O_47  and  C_58
   22  A    between atoms: O_47  and  C_67
   23  A    between atoms: C_49  and  N_55
   24  A    between atoms: C_49  and  C_67
   25  A    between atoms: C_57  and  C_66
                            x       y       z     vdW  Elec       q    Type
                         _______ _______ _______ _____ _____    ______ ____

>  <TORSDO>
F 25

$$$$
=
 OpenBabel11062421453D

 70 77  0  0  1  0  0  0  0  0999 V2000
  193.1080  172.1500  141.8520 N   0  0  0  0  0  0  0  0  0  0  0  0
  193.1700  171.7070  144.3220 C   0  0  0  0  0  2  0  0  0  0  0  0
  193.4670  171.1820  142.9040 C   0  0  0  0  0  2  0  0  0  0  0  0
  191.7810  172.7060  142.0910 C   0  0  0  0  0  2  0  0  0  0  0  0
  192.9130  173.2170  144.3360 C   0  0  2  0  0  3  0  0  0  0  0  0
  191.7710  173.5760  143.3590 C   0  0  2  0  0  3  0  0  0  0  0  0
  196.1000  174.0470  145.1200 C   0  0  0  0  0  0  0  0  0  0  0  0
  197.5940  173.8810  145.0180 C   0  0  0  0  0  2  0  0  0  0  0  0
  194.0940  176.4510  143.8480 C   0  0  0  0  0  1  0  0  0  0  0  0
  195.3180  173.1880  144.3490 O   0  0  0  0  0  0  0  0  0  0  0  0
  194.3300  175.2780  144.7810 C   0  0  2  0  0  3  0  0  0  0  0  0
  195.6200  175.3430  145.3080 O   0  0  0  0  0  0  0  0  0  0  0  0
  196.8440  173.4260  146.2730 C   0  0  0  0  0  2  0  0  0  0  0  0
  194.2110  173.9720  144.0150 C   0  0  2  0  0  3  0  0  0  0  0  0
  189.1850  174.1940  143.4670 C   0  0  2  0  0  3  0  0  0  0  0  0
  190.4050  173.4810  144.0540 C   0  0  1  0  0  0  0  0  0  0  0  0
  189.3300  172.6780  143.3350 C   0  0  0  0  0  2  0  0  0  0  0  0
  188.3750  174.5290  141.1070 C   0  0  1  0  0  3  0  0  0  0  0  0
  188.2220  177.1120  142.4620 C   0  0  0  0  0  2  0  0  0  0  0  0
  187.8500  175.7200  140.3030 C   0  0  0  0  0  2  0  0  0  0  0  0
  188.8620  173.5540  140.2370 O   0  0  0  0  0  1  0  0  0  0  0  0
  186.2950  177.6390  140.8960 S   0  0  0  0  0  0  0  0  0  0  0  0
  187.4120  176.8080  141.2380 C   0  0  0  0  0  0  0  0  0  0  0  0
  189.5800  176.4120  142.3910 C   0  0  0  0  0  2  0  0  0  0  0  0
  189.4590  174.8990  142.1420 C   0  0  1  0  0  3  0  0  0  0  0  0
  190.3740  173.4710  145.4590 O   0  0  0  0  0  0  0  0  0  0  0  0
  190.9980  174.5660  145.8600 O   0  0  0  0  0  0  0  0  0  0  0  0
  188.1600  177.4320  147.0030 C   0  0  0  0  0  2  0  0  0  0  0  0
  190.1790  175.1840  146.8250 C   0  0  2  0  0  3  0  0  0  0  0  0
  191.5980  177.1600  149.2960 O   0  0  0  0  0  0  0  0  0  0  0  0
  189.8400  178.6480  148.4970 C   0  0  0  0  0  2  0  0  0  0  0  0
  191.2180  178.5120  149.1600 C   0  0  0  0  0  2  0  0  0  0  0  0
  189.4170  177.3190  147.8700 C   0  0  2  0  0  3  0  0  0  0  0  0
  188.6680  174.9600  146.5880 C   0  0  0  0  0  2  0  0  0  0  0  0
  190.8390  177.3250  145.9510 F   0  0  0  0  0  0  0  0  0  0  0  0
  190.5820  176.6400  147.1280 C   0  0  2  0  0  0  0  0  0  0  0  0
  191.8570  176.6750  147.9950 C   0  0  0  0  0  2  0  0  0  0  0  0
  187.9830  176.2300  146.0620 C   0  0  0  0  0  2  0  0  0  0  0  0
  193.1450  171.5810  140.4950 C   0  0  0  0  0  2  0  0  0  0  0  0
  194.5430  171.4310  139.8710 C   0  0  0  0  0  2  0  0  0  0  0  0
  195.6780  169.9060  138.4450 O   0  0  0  0  0  1  0  0  0  0  0  0
  193.6120  171.1460  136.5910 C   0  0  1  0  0  0  0  0  0  0  0  0
  194.5430  170.7170  138.5220 C   0  0  2  0  0  0  0  0  0  0  0  0
  194.5630  171.6420  137.4830 O   0  0  0  0  0  0  0  0  0  0  0  0
  193.1880  169.8960  137.0760 O   0  0  0  0  0  0  0  0  0  0  0  0
  193.4050  169.9290  138.3790 O   0  0  0  0  0  0  0  0  0  0  0  0
  192.4870  173.0700  137.5290 O   0  0  0  0  0  1  0  0  0  0  0  0
  192.3970  172.1090  136.5150 C   0  0  2  0  0  3  0  0  0  0  0  0
  190.9550  171.5060  136.4400 C   0  0  2  0  0  0  0  0  0  0  0  0
  190.9820  170.2280  135.8480 O   0  0  0  0  0  1  0  0  0  0  0  0
  190.0250  172.4280  135.6070 C   0  0  2  0  0  3  0  0  0  0  0  0
  189.0820  171.6700  134.9050 O   0  0  0  0  0  1  0  0  0  0  0  0
  190.7750  173.3220  134.6160 C   0  0  0  0  0  2  0  0  0  0  0  0
  190.3060  174.7670  134.7270 C   0  0  0  0  0  2  0  0  0  0  0  0
  191.0460  175.4320  135.7080 O   0  0  0  0  0  1  0  0  0  0  0  0
  190.4130  171.4560  137.7590 O   0  0  0  0  0  0  0  0  0  0  0  0
  189.8130  170.2070  138.0130 C   0  0  0  0  0  1  0  0  0  0  0  0
  194.2870  170.9530  135.2250 C   0  0  0  0  0  2  0  0  0  0  0  0
  195.0010  172.2050  134.7340 C   0  0  1  0  0  3  0  0  0  0  0  0
  194.2080  173.3080  135.0060 F   0  0  0  0  0  0  0  0  0  0  0  0
  196.3410  172.3320  135.4520 C   0  0  0  0  0  2  0  0  0  0  0  0
  196.9380  173.7160  135.2580 C   0  0  0  0  0  2  0  0  0  0  0  0
  197.5060  174.1670  136.4500 O   0  0  0  0  0  0  0  0  0  0  0  0
  196.8020  175.3290  136.7810 C   0  0  1  0  0  3  0  0  0  0  0  0
  196.1830  175.9330  135.5250 C   0  0  0  0  0  2  0  0  0  0  0  0
  196.6180  177.2490  135.3480 O   0  0  0  0  0  1  0  0  0  0  0  0
  195.7130  175.0090  137.7920 C   0  0  0  0  0  2  0  0  0  0  0  0
  196.3020  174.4460  139.0000 N   0  0  0  0  0  2  0  0  0  0  0  0
  197.0530  175.5050  139.6520 C   0  0  0  0  0  2  0  0  0  0  0  0
  196.2340  176.1710  140.5660 O   0  0  0  0  0  1  0  0  0  0  0  0
  1  4  1  0  0  0  0
  1  3  1  0  0  0  0
  3  2  1  0  0  0  0
  5  2  1  6  0  0  0
  6  4  1  6  0  0  0
  6 16  1  0  0  0  0
  6  5  1  0  0  0  0
  7 12  1  0  0  0  0
  7 13  1  0  0  0  0
  8  7  1  0  0  0  0
  8 13  1  0  0  0  0
 10  7  1  0  0  0  0
 11  9  1  6  0  0  0
 11 12  1  0  0  0  0
 14  5  1  0  0  0  0
 14 10  1  1  0  0  0
 14 11  1  0  0  0  0
 15 17  1  6  0  0  0
 15 16  1  0  0  0  0
 16 26  1  1  0  0  0
 17 16  1  0  0  0  0
 18 21  1  6  0  0  0
 18 25  1  0  0  0  0
 20 18  1  0  0  0  0
 20 23  1  0  0  0  0
 22 23  2  0  0  0  0
 23 19  1  0  0  0  0
 24 19  1  0  0  0  0
 25 24  1  1  0  0  0
 25 15  1  0  0  0  0
 26 27  1  0  0  0  0
 29 27  1  6  0  0  0
 29 36  1  0  0  0  0
 31 32  1  0  0  0  0
 32 30  1  0  0  0  0
 33 28  1  6  0  0  0
 33 31  1  0  0  0  0
 34 29  1  0  0  0  0
 36 35  1  6  0  0  0
 36 33  1  0  0  0  0
 36 37  1  0  0  0  0
 37 30  1  0  0  0  0
 38 34  1  0  0  0  0
 38 28  1  0  0  0  0
 39  1  1  0  0  0  0
 40 39  1  0  0  0  0
 42 58  1  6  0  0  0
 42 45  1  0  0  0  0
 42 44  1  0  0  0  0
 43 41  1  6  0  0  0
 43 40  1  0  0  0  0
 44 43  1  0  0  0  0
 45 46  1  0  0  0  0
 46 43  1  0  0  0  0
 48 42  1  0  0  0  0
 48 47  1  1  0  0  0
 49 50  1  6  0  0  0
 49 48  1  0  0  0  0
 49 56  1  0  0  0  0
 51 52  1  6  0  0  0
 51 49  1  0  0  0  0
 53 54  1  0  0  0  0
 53 51  1  0  0  0  0
 54 55  1  0  0  0  0
 56 57  1  0  0  0  0
 59 60  1  1  0  0  0
 59 58  1  0  0  0  0
 59 61  1  0  0  0  0
 62 61  1  0  0  0  0
 62 63  1  0  0  0  0
 63 64  1  0  0  0  0
 64 65  1  6  0  0  0
 64 67  1  0  0  0  0
 66 65  1  0  0  0  0
 67 68  1  0  0  0  0
 68 69  1  0  0  0  0
 69 70  1  0  0  0  0
M  END
>  <MODEL>
2

>  <REMARK>
 VINA RESULT:      -4.9      3.382      9.432
  Name = 
  25 active torsions:
  status: ('A' for Active; 'I' for Inactive)
    1  A    between atoms: N_2  and  C_20
    2  A    between atoms: C_3  and  C_44
    3  A    between atoms: C_4  and  C_30
    4  A    between atoms: C_4  and  C_34
    5  A    between atoms: O_6  and  C_38
    6  A    between atoms: C_10  and  O_39
    7  A    between atoms: C_11  and  O_53
    8  A    between atoms: C_11  and  C_59
    9  A    between atoms: C_12  and  C_67
   10  A    between atoms: C_14  and  C_30
   11  A    between atoms: C_14  and  C_40
   12  A    between atoms: C_20  and  C_50
   13  A    between atoms: C_21  and  C_23
   14  A    between atoms: C_21  and  C_60
   15  A    between atoms: C_25  and  C_50
   16  A    between atoms: C_26  and  N_55
   17  A    between atoms: C_34  and  C_58
   18  A    between atoms: C_38  and  C_40
   19  A    between atoms: C_38  and  C_60
   20  A    between atoms: O_39  and  O_53
   21  A    between atoms: O_47  and  C_58
   22  A    between atoms: O_47  and  C_67
   23  A    between atoms: C_49  and  N_55
   24  A    between atoms: C_49  and  C_67
   25  A    between atoms: C_57  and  C_66
                            x       y       z     vdW  Elec       q    Type
                         _______ _______ _______ _____ _____    ______ ____

>  <TORSDO>
F 25

$$$$
=
 OpenBabel11062421453D

 70 77  0  0  1  0  0  0  0  0999 V2000
  191.8700  173.6080  142.2980 N   0  0  0  0  0  0  0  0  0  0  0  0
  193.9380  173.6860  140.8780 C   0  0  0  0  0  2  0  0  0  0  0  0
  192.4520  174.0680  141.0250 C   0  0  0  0  0  2  0  0  0  0  0  0
  192.2290  172.2190  142.5600 C   0  0  0  0  0  2  0  0  0  0  0  0
  194.5550  173.2430  142.2080 C   0  0  2  0  0  3  0  0  0  0  0  0
  193.7390  172.0810  142.8170 C   0  0  2  0  0  3  0  0  0  0  0  0
  196.3350  175.8030  143.5270 C   0  0  0  0  0  0  0  0  0  0  0  0
  196.7540  177.2480  143.6020 C   0  0  0  0  0  2  0  0  0  0  0  0
  194.3450  174.0140  145.5920 C   0  0  0  0  0  1  0  0  0  0  0  0
  195.3860  175.4730  142.5610 O   0  0  0  0  0  0  0  0  0  0  0  0
  195.3580  174.0910  144.4640 C   0  0  2  0  0  3  0  0  0  0  0  0
  196.2880  175.0960  144.7290 O   0  0  0  0  0  0  0  0  0  0  0  0
  197.7010  176.1910  143.0230 C   0  0  0  0  0  2  0  0  0  0  0  0
  194.6580  174.4420  143.1620 C   0  0  2  0  0  3  0  0  0  0  0  0
  194.6790  169.6340  143.2740 C   0  0  2  0  0  3  0  0  0  0  0  0
  194.2420  170.7270  142.2960 C   0  0  1  0  0  0  0  0  0  0  0  0
  193.3410  169.5250  142.5440 C   0  0  0  0  0  2  0  0  0  0  0  0
  194.1870  168.7390  145.5760 C   0  0  1  0  0  3  0  0  0  0  0  0
  196.8770  169.8750  145.6330 C   0  0  0  0  0  2  0  0  0  0  0  0
  194.9580  168.6680  146.8950 C   0  0  0  0  0  2  0  0  0  0  0  0
  192.8180  168.6470  145.8270 O   0  0  0  0  0  1  0  0  0  0  0  0
  197.3890  168.1660  147.4380 S   0  0  0  0  0  0  0  0  0  0  0  0
  196.4230  168.8590  146.6360 C   0  0  0  0  0  0  0  0  0  0  0  0
  195.7170  170.7860  145.2310 C   0  0  0  0  0  2  0  0  0  0  0  0
  194.4860  170.0030  144.7420 C   0  0  1  0  0  3  0  0  0  0  0  0
  195.0140  170.7110  141.1230 O   0  0  0  0  0  0  0  0  0  0  0  0
  194.1920  170.4120  140.1310 O   0  0  0  0  0  0  0  0  0  0  0  0
  197.8990  169.6250  138.3380 C   0  0  0  0  0  2  0  0  0  0  0  0
  194.9770  169.9100  139.0750 C   0  0  2  0  0  3  0  0  0  0  0  0
  195.0630  171.5750  136.0350 O   0  0  0  0  0  0  0  0  0  0  0  0
  197.4480  171.2800  136.4440 C   0  0  0  0  0  2  0  0  0  0  0  0
  196.3430  172.1080  135.7720 C   0  0  0  0  0  2  0  0  0  0  0  0
  196.8460  170.3240  137.4730 C   0  0  2  0  0  3  0  0  0  0  0  0
  195.8100  168.6670  139.4600 C   0  0  0  0  0  2  0  0  0  0  0  0
  196.3410  171.8870  139.2070 F   0  0  0  0  0  0  0  0  0  0  0  0
  195.7520  171.0040  138.3150 C   0  0  2  0  0  0  0  0  0  0  0  0
  194.7990  171.8030  137.4030 C   0  0  0  0  0  2  0  0  0  0  0  0
  197.3000  169.0090  139.6120 C   0  0  0  0  0  2  0  0  0  0  0  0
  190.4050  173.7360  142.3540 C   0  0  0  0  0  2  0  0  0  0  0  0
  189.8110  174.9390  141.6000 C   0  0  0  0  0  2  0  0  0  0  0  0
  187.7750  174.0980  140.7080 O   0  0  0  0  0  1  0  0  0  0  0  0
  186.8600  176.5240  142.2950 C   0  0  1  0  0  0  0  0  0  0  0  0
  188.2870  175.0010  141.6430 C   0  0  2  0  0  0  0  0  0  0  0  0
  187.8440  176.2840  141.3360 O   0  0  0  0  0  0  0  0  0  0  0  0
  186.6750  175.3340  143.0190 O   0  0  0  0  0  0  0  0  0  0  0  0
  187.8130  174.6720  142.9090 O   0  0  0  0  0  0  0  0  0  0  0  0
  188.6810  177.9080  143.0800 O   0  0  0  0  0  1  0  0  0  0  0  0
  187.3180  177.6500  143.2610 C   0  0  2  0  0  3  0  0  0  0  0  0
  186.9660  177.5340  144.7810 C   0  0  2  0  0  0  0  0  0  0  0  0
  186.9700  178.8040  145.3910 O   0  0  0  0  0  1  0  0  0  0  0  0
  187.9910  176.6230  145.5060 C   0  0  2  0  0  3  0  0  0  0  0  0
  187.4160  176.0420  146.6420 O   0  0  0  0  0  1  0  0  0  0  0  0
  189.2730  177.3490  145.9200 C   0  0  0  0  0  2  0  0  0  0  0  0
  190.0160  176.5680  146.9970 C   0  0  0  0  0  2  0  0  0  0  0  0
  190.7420  177.4470  147.8060 O   0  0  0  0  0  1  0  0  0  0  0  0
  185.6920  176.9030  144.9060 O   0  0  0  0  0  0  0  0  0  0  0  0
  184.8110  177.6880  145.6760 C   0  0  0  0  0  1  0  0  0  0  0  0
  185.5550  176.8790  141.5670 C   0  0  0  0  0  2  0  0  0  0  0  0
  185.1170  178.3190  141.8010 C   0  0  1  0  0  3  0  0  0  0  0  0
  185.1560  178.9990  140.5940 F   0  0  0  0  0  0  0  0  0  0  0  0
  183.6980  178.3260  142.3610 C   0  0  0  0  0  2  0  0  0  0  0  0
  182.6840  177.9540  141.2910 C   0  0  0  0  0  2  0  0  0  0  0  0
  182.1330  179.1070  140.7290 O   0  0  0  0  0  0  0  0  0  0  0  0
  180.7650  178.8430  140.6080 C   0  0  1  0  0  3  0  0  0  0  0  0
  180.2750  178.0840  141.8350 C   0  0  0  0  0  2  0  0  0  0  0  0
  178.9180  177.7730  141.7100 O   0  0  0  0  0  1  0  0  0  0  0  0
  179.9940  180.1450  140.4610 C   0  0  0  0  0  2  0  0  0  0  0  0
  178.8380  179.9480  139.5970 N   0  0  0  0  0  2  0  0  0  0  0  0
  178.7410  181.1100  138.7310 C   0  0  0  0  0  2  0  0  0  0  0  0
  178.4360  182.2420  139.4910 O   0  0  0  0  0  1  0  0  0  0  0  0
  1 39  1  0  0  0  0
  1  4  1  0  0  0  0
  2  3  1  0  0  0  0
  3  1  1  0  0  0  0
  5  2  1  6  0  0  0
  5  6  1  0  0  0  0
  5 14  1  0  0  0  0
  6  4  1  6  0  0  0
  7  8  1  0  0  0  0
  7 12  1  0  0  0  0
 10  7  1  0  0  0  0
 11 12  1  0  0  0  0
 11  9  1  1  0  0  0
 13  7  1  0  0  0  0
 13  8  1  0  0  0  0
 14 10  1  6  0  0  0
 14 11  1  0  0  0  0
 15 17  1  6  0  0  0
 15 25  1  0  0  0  0
 16 26  1  6  0  0  0
 16 17  1  0  0  0  0
 16  6  1  0  0  0  0
 16 15  1  0  0  0  0
 18 21  1  1  0  0  0
 18 20  1  0  0  0  0
 19 23  1  0  0  0  0
 23 20  1  0  0  0  0
 23 22  2  0  0  0  0
 24 19  1  0  0  0  0
 25 24  1  1  0  0  0
 25 18  1  0  0  0  0
 27 26  1  0  0  0  0
 28 38  1  0  0  0  0
 29 34  1  0  0  0  0
 29 27  1  1  0  0  0
 30 37  1  0  0  0  0
 32 30  1  0  0  0  0
 32 31  1  0  0  0  0
 33 31  1  1  0  0  0
 33 36  1  0  0  0  0
 33 28  1  0  0  0  0
 34 38  1  0  0  0  0
 36 29  1  0  0  0  0
 36 35  1  1  0  0  0
 37 36  1  0  0  0  0
 40 43  1  0  0  0  0
 40 39  1  0  0  0  0
 42 58  1  6  0  0  0
 42 45  1  0  0  0  0
 42 48  1  0  0  0  0
 43 41  1  6  0  0  0
 43 46  1  0  0  0  0
 44 43  1  0  0  0  0
 44 42  1  0  0  0  0
 46 45  1  0  0  0  0
 48 47  1  1  0  0  0
 48 49  1  0  0  0  0
 49 56  1  0  0  0  0
 49 50  1  1  0  0  0
 49 51  1  0  0  0  0
 51 53  1  0  0  0  0
 51 52  1  1  0  0  0
 53 54  1  0  0  0  0
 54 55  1  0  0  0  0
 56 57  1  0  0  0  0
 58 59  1  0  0  0  0
 59 60  1  6  0  0  0
 59 61  1  0  0  0  0
 62 61  1  0  0  0  0
 63 62  1  0  0  0  0
 64 67  1  1  0  0  0
 64 63  1  0  0  0  0
 64 65  1  0  0  0  0
 66 65  1  0  0  0  0
 68 67  1  0  0  0  0
 69 70  1  0  0  0  0
 69 68  1  0  0  0  0
M  END
>  <MODEL>
3

>  <REMARK>
 VINA RESULT:      -4.9      3.635      8.453
  Name = 
  25 active torsions:
  status: ('A' for Active; 'I' for Inactive)
    1  A    between atoms: N_2  and  C_20
    2  A    between atoms: C_3  and  C_44
    3  A    between atoms: C_4  and  C_30
    4  A    between atoms: C_4  and  C_34
    5  A    between atoms: O_6  and  C_38
    6  A    between atoms: C_10  and  O_39
    7  A    between atoms: C_11  and  O_53
    8  A    between atoms: C_11  and  C_59
    9  A    between atoms: C_12  and  C_67
   10  A    between atoms: C_14  and  C_30
   11  A    between atoms: C_14  and  C_40
   12  A    between atoms: C_20  and  C_50
   13  A    between atoms: C_21  and  C_23
   14  A    between atoms: C_21  and  C_60
   15  A    between atoms: C_25  and  C_50
   16  A    between atoms: C_26  and  N_55
   17  A    between atoms: C_34  and  C_58
   18  A    between atoms: C_38  and  C_40
   19  A    between atoms: C_38  and  C_60
   20  A    between atoms: O_39  and  O_53
   21  A    between atoms: O_47  and  C_58
   22  A    between atoms: O_47  and  C_67
   23  A    between atoms: C_49  and  N_55
   24  A    between atoms: C_49  and  C_67
   25  A    between atoms: C_57  and  C_66
                            x       y       z     vdW  Elec       q    Type
                         _______ _______ _______ _____ _____    ______ ____

>  <TORSDO>
F 25

$$$$
=
 OpenBabel11062421453D

 70 77  0  0  1  0  0  0  0  0999 V2000
  191.7600  174.0270  142.0800 N   0  0  0  0  0  0  0  0  0  0  0  0
  194.1270  174.7230  141.6170 C   0  0  0  0  0  2  0  0  0  0  0  0
  192.6350  174.8920  141.2700 C   0  0  0  0  0  2  0  0  0  0  0  0
  192.2810  172.6650  142.1290 C   0  0  0  0  0  2  0  0  0  0  0  0
  194.3310  173.9780  142.9410 C   0  0  2  0  0  3  0  0  0  0  0  0
  193.6090  172.6130  142.9040 C   0  0  2  0  0  3  0  0  0  0  0  0
  194.8620  176.5290  145.1010 C   0  0  0  0  0  0  0  0  0  0  0  0
  194.7170  177.9590  145.5520 C   0  0  0  0  0  2  0  0  0  0  0  0
  193.3840  173.7260  146.2760 C   0  0  0  0  0  1  0  0  0  0  0  0
  194.2420  176.1810  143.9030 O   0  0  0  0  0  0  0  0  0  0  0  0
  194.4480  174.4130  145.4400 C   0  0  2  0  0  3  0  0  0  0  0  0
  194.9060  175.5550  146.0990 O   0  0  0  0  0  0  0  0  0  0  0  0
  196.0520  177.4480  145.0010 C   0  0  0  0  0  2  0  0  0  0  0  0
  193.8590  174.8530  144.1110 C   0  0  2  0  0  3  0  0  0  0  0  0
  195.0640  170.4060  143.2070 C   0  0  2  0  0  3  0  0  0  0  0  0
  194.5210  171.5260  142.3170 C   0  0  1  0  0  0  0  0  0  0  0  0
  193.9340  170.1250  142.2170 C   0  0  0  0  0  2  0  0  0  0  0  0
  194.1800  169.0330  145.1230 C   0  0  1  0  0  3  0  0  0  0  0  0
  196.7150  170.2030  145.9790 C   0  0  0  0  0  2  0  0  0  0  0  0
  194.6690  168.7050  146.5350 C   0  0  0  0  0  2  0  0  0  0  0  0
  192.7980  168.8540  145.0520 O   0  0  0  0  0  1  0  0  0  0  0  0
  196.9680  168.1660  147.4710 S   0  0  0  0  0  0  0  0  0  0  0  0
  196.1390  168.9870  146.6380 C   0  0  0  0  0  0  0  0  0  0  0  0
  195.5990  171.1470  145.5300 C   0  0  0  0  0  2  0  0  0  0  0  0
  194.5520  170.4520  144.6420 C   0  0  1  0  0  3  0  0  0  0  0  0
  195.4470  171.8990  141.3290 O   0  0  0  0  0  0  0  0  0  0  0  0
  194.7920  171.9090  140.1800 O   0  0  0  0  0  0  0  0  0  0  0  0
  196.7700  174.6380  137.6860 C   0  0  0  0  0  2  0  0  0  0  0  0
  195.7260  172.2150  139.1700 C   0  0  2  0  0  3  0  0  0  0  0  0
  195.0870  171.3100  135.8840 O   0  0  0  0  0  0  0  0  0  0  0  0
  195.6970  173.6520  135.5860 C   0  0  0  0  0  2  0  0  0  0  0  0
  194.9110  172.4420  135.0600 C   0  0  0  0  0  2  0  0  0  0  0  0
  196.1720  173.3970  137.0160 C   0  0  2  0  0  3  0  0  0  0  0  0
  196.9340  173.0370  139.6730 C   0  0  0  0  0  2  0  0  0  0  0  0
  194.0980  173.6760  138.1690 F   0  0  0  0  0  0  0  0  0  0  0  0
  195.0760  172.7380  137.8740 C   0  0  2  0  0  0  0  0  0  0  0  0
  194.4170  171.5810  137.0970 C   0  0  0  0  0  2  0  0  0  0  0  0
  196.8540  174.5000  139.2130 C   0  0  0  0  0  2  0  0  0  0  0  0
  190.3700  173.9840  141.5990 C   0  0  0  0  0  2  0  0  0  0  0  0
  189.7250  175.3470  141.2990 C   0  0  0  0  0  2  0  0  0  0  0  0
  187.7370  174.6550  140.1950 O   0  0  0  0  0  1  0  0  0  0  0  0
  186.6950  176.5800  142.3040 C   0  0  1  0  0  0  0  0  0  0  0  0
  188.1990  175.3280  141.3290 C   0  0  2  0  0  0  0  0  0  0  0  0
  187.6960  176.6250  141.3340 O   0  0  0  0  0  0  0  0  0  0  0  0
  186.5640  175.2420  142.7160 O   0  0  0  0  0  0  0  0  0  0  0  0
  187.7340  174.6800  142.4690 O   0  0  0  0  0  0  0  0  0  0  0  0
  188.3300  178.0670  143.2870 O   0  0  0  0  0  1  0  0  0  0  0  0
  187.0920  177.4580  143.5220 C   0  0  2  0  0  3  0  0  0  0  0  0
  187.0380  176.8340  144.9560 C   0  0  2  0  0  0  0  0  0  0  0  0
  185.8470  176.1020  145.1340 O   0  0  0  0  0  1  0  0  0  0  0  0
  187.1110  177.9470  146.0350 C   0  0  2  0  0  3  0  0  0  0  0  0
  186.8960  177.4120  147.3100 O   0  0  0  0  0  1  0  0  0  0  0  0
  186.1170  179.0890  145.8070 C   0  0  0  0  0  2  0  0  0  0  0  0
  184.8510  178.8790  146.6280 C   0  0  0  0  0  2  0  0  0  0  0  0
  183.7440  178.7900  145.7810 O   0  0  0  0  0  1  0  0  0  0  0  0
  188.1870  176.0080  145.1370 O   0  0  0  0  0  0  0  0  0  0  0  0
  189.3340  176.7840  145.3960 C   0  0  0  0  0  1  0  0  0  0  0  0
  185.3790  177.0400  141.6610 C   0  0  0  0  0  2  0  0  0  0  0  0
  185.5270  178.3270  140.8600 C   0  0  1  0  0  3  0  0  0  0  0  0
  186.2750  178.0620  139.7240 F   0  0  0  0  0  0  0  0  0  0  0  0
  184.1440  178.8370  140.4710 C   0  0  0  0  0  2  0  0  0  0  0  0
  183.0500  177.9750  141.0810 C   0  0  0  0  0  2  0  0  0  0  0  0
  182.1040  177.6410  140.1100 O   0  0  0  0  0  0  0  0  0  0  0  0
  180.9540  178.3590  140.4510 C   0  0  1  0  0  3  0  0  0  0  0  0
  179.7780  177.8850  139.6030 C   0  0  0  0  0  2  0  0  0  0  0  0
  178.8430  178.9110  139.4450 O   0  0  0  0  0  1  0  0  0  0  0  0
  180.6390  178.1710  141.9260 C   0  0  0  0  0  2  0  0  0  0  0  0
  180.0400  179.3830  142.4690 N   0  0  0  0  0  2  0  0  0  0  0  0
  180.1190  179.2950  143.9170 C   0  0  0  0  0  2  0  0  0  0  0  0
  178.8530  179.0350  144.4450 O   0  0  0  0  0  1  0  0  0  0  0  0
  1  4  1  0  0  0  0
  3  2  1  0  0  0  0
  3  1  1  0  0  0  0
  5  2  1  6  0  0  0
  5 14  1  0  0  0  0
  6  4  1  6  0  0  0
  6  5  1  0  0  0  0
  7  8  1  0  0  0  0
  7 12  1  0  0  0  0
 10  7  1  0  0  0  0
 11 12  1  0  0  0  0
 11  9  1  1  0  0  0
 13  7  1  0  0  0  0
 13  8  1  0  0  0  0
 14 10  1  6  0  0  0
 14 11  1  0  0  0  0
 15 17  1  6  0  0  0
 15 25  1  0  0  0  0
 16 26  1  6  0  0  0
 16  6  1  0  0  0  0
 16 15  1  0  0  0  0
 17 16  1  0  0  0  0
 18 21  1  1  0  0  0
 18 20  1  0  0  0  0
 19 23  1  0  0  0  0
 20 23  1  0  0  0  0
 23 22  2  0  0  0  0
 24 19  1  0  0  0  0
 25 18  1  0  0  0  0
 25 24  1  1  0  0  0
 27 26  1  0  0  0  0
 28 38  1  0  0  0  0
 29 34  1  0  0  0  0
 29 27  1  1  0  0  0
 30 37  1  0  0  0  0
 32 31  1  0  0  0  0
 32 30  1  0  0  0  0
 33 31  1  6  0  0  0
 33 28  1  0  0  0  0
 33 36  1  0  0  0  0
 36 35  1  1  0  0  0
 36 29  1  0  0  0  0
 37 36  1  0  0  0  0
 38 34  1  0  0  0  0
 39  1  1  0  0  0  0
 40 43  1  0  0  0  0
 40 39  1  0  0  0  0
 42 58  1  6  0  0  0
 42 45  1  0  0  0  0
 42 48  1  0  0  0  0
 43 41  1  6  0  0  0
 43 44  1  0  0  0  0
 43 46  1  0  0  0  0
 44 42  1  0  0  0  0
 46 45  1  0  0  0  0
 48 47  1  6  0  0  0
 48 49  1  0  0  0  0
 49 50  1  1  0  0  0
 49 56  1  0  0  0  0
 49 51  1  0  0  0  0
 51 52  1  1  0  0  0
 53 51  1  0  0  0  0
 53 54  1  0  0  0  0
 55 54  1  0  0  0  0
 56 57  1  0  0  0  0
 59 60  1  6  0  0  0
 59 58  1  0  0  0  0
 61 59  1  0  0  0  0
 61 62  1  0  0  0  0
 63 64  1  0  0  0  0
 63 62  1  0  0  0  0
 64 65  1  6  0  0  0
 64 67  1  0  0  0  0
 66 65  1  0  0  0  0
 67 68  1  0  0  0  0
 68 69  1  0  0  0  0
 69 70  1  0  0  0  0
M  END
>  <MODEL>
4

>  <REMARK>
 VINA RESULT:      -4.5      3.373      8.473
  Name = 
  25 active torsions:
  status: ('A' for Active; 'I' for Inactive)
    1  A    between atoms: N_2  and  C_20
    2  A    between atoms: C_3  and  C_44
    3  A    between atoms: C_4  and  C_30
    4  A    between atoms: C_4  and  C_34
    5  A    between atoms: O_6  and  C_38
    6  A    between atoms: C_10  and  O_39
    7  A    between atoms: C_11  and  O_53
    8  A    between atoms: C_11  and  C_59
    9  A    between atoms: C_12  and  C_67
   10  A    between atoms: C_14  and  C_30
   11  A    between atoms: C_14  and  C_40
   12  A    between atoms: C_20  and  C_50
   13  A    between atoms: C_21  and  C_23
   14  A    between atoms: C_21  and  C_60
   15  A    between atoms: C_25  and  C_50
   16  A    between atoms: C_26  and  N_55
   17  A    between atoms: C_34  and  C_58
   18  A    between atoms: C_38  and  C_40
   19  A    between atoms: C_38  and  C_60
   20  A    between atoms: O_39  and  O_53
   21  A    between atoms: O_47  and  C_58
   22  A    between atoms: O_47  and  C_67
   23  A    between atoms: C_49  and  N_55
   24  A    between atoms: C_49  and  C_67
   25  A    between atoms: C_57  and  C_66
                            x       y       z     vdW  Elec       q    Type
                         _______ _______ _______ _____ _____    ______ ____

>  <TORSDO>
F 25

$$$$
=
 OpenBabel11062421453D

 70 77  0  0  1  0  0  0  0  0999 V2000
  191.8260  173.5120  142.1910 N   0  0  0  0  0  0  0  0  0  0  0  0
  193.9910  173.6380  140.9270 C   0  0  0  0  0  2  0  0  0  0  0  0
  192.5070  174.0470  140.9980 C   0  0  0  0  0  2  0  0  0  0  0  0
  192.1360  172.0990  142.3740 C   0  0  0  0  0  2  0  0  0  0  0  0
  194.5030  173.0850  142.2610 C   0  0  2  0  0  3  0  0  0  0  0  0
  193.6210  171.9040  142.7240 C   0  0  2  0  0  3  0  0  0  0  0  0
  196.0560  175.7860  143.5830 C   0  0  0  0  0  0  0  0  0  0  0  0
  196.2660  177.2700  143.7430 C   0  0  0  0  0  2  0  0  0  0  0  0
  194.6620  173.5540  145.7020 C   0  0  0  0  0  1  0  0  0  0  0  0
  195.0390  175.3850  142.7190 O   0  0  0  0  0  0  0  0  0  0  0  0
  195.4820  173.8750  144.4670 C   0  0  2  0  0  3  0  0  0  0  0  0
  196.2830  174.9920  144.7070 O   0  0  0  0  0  0  0  0  0  0  0  0
  197.2650  176.4230  142.9480 C   0  0  0  0  0  2  0  0  0  0  0  0
  194.5620  174.2090  143.3060 C   0  0  2  0  0  3  0  0  0  0  0  0
  194.5690  169.4410  143.0680 C   0  0  2  0  0  3  0  0  0  0  0  0
  194.1310  170.5780  142.1420 C   0  0  1  0  0  0  0  0  0  0  0  0
  193.2340  169.3620  142.3280 C   0  0  0  0  0  2  0  0  0  0  0  0
  194.2370  168.4230  145.3480 C   0  0  1  0  0  3  0  0  0  0  0  0
  196.7800  169.8610  145.3900 C   0  0  0  0  0  2  0  0  0  0  0  0
  195.0410  168.4000  146.6490 C   0  0  0  0  0  2  0  0  0  0  0  0
  192.8940  168.1670  145.6220 O   0  0  0  0  0  1  0  0  0  0  0  0
  197.5260  168.1660  147.1260 S   0  0  0  0  0  0  0  0  0  0  0  0
  196.4680  168.7680  146.3670 C   0  0  0  0  0  0  0  0  0  0  0  0
  195.5130  170.6440  145.0420 C   0  0  0  0  0  2  0  0  0  0  0  0
  194.3690  169.7400  144.5510 C   0  0  1  0  0  3  0  0  0  0  0  0
  194.9080  170.6210  140.9720 O   0  0  0  0  0  0  0  0  0  0  0  0
  194.3310  169.8060  140.1040 O   0  0  0  0  0  0  0  0  0  0  0  0
  193.6390  169.8790  135.9690 C   0  0  0  0  0  2  0  0  0  0  0  0
  194.2980  170.4740  138.8630 C   0  0  2  0  0  3  0  0  0  0  0  0
  197.2580  171.3850  137.3040 O   0  0  0  0  0  0  0  0  0  0  0  0
  196.1110  170.2780  135.4600 C   0  0  0  0  0  2  0  0  0  0  0  0
  197.4490  170.6760  136.0990 C   0  0  0  0  0  2  0  0  0  0  0  0
  194.9680  170.4600  136.4590 C   0  0  2  0  0  3  0  0  0  0  0  0
  192.8730  170.6390  138.2890 C   0  0  0  0  0  2  0  0  0  0  0  0
  195.3720  168.5690  137.8600 F   0  0  0  0  0  0  0  0  0  0  0  0
  195.3490  169.9550  137.8620 C   0  0  2  0  0  0  0  0  0  0  0  0
  196.7530  170.4620  138.2460 C   0  0  0  0  0  2  0  0  0  0  0  0
  192.6250  169.6880  137.1080 C   0  0  0  0  0  2  0  0  0  0  0  0
  190.3640  173.6750  142.1530 C   0  0  0  0  0  2  0  0  0  0  0  0
  189.8430  174.8470  141.3040 C   0  0  0  0  0  2  0  0  0  0  0  0
  187.7960  174.0710  140.3780 O   0  0  0  0  0  1  0  0  0  0  0  0
  186.9490  176.5830  141.8660 C   0  0  1  0  0  0  0  0  0  0  0  0
  188.3230  174.9780  141.3000 C   0  0  2  0  0  0  0  0  0  0  0  0
  187.9480  176.2700  140.9440 O   0  0  0  0  0  0  0  0  0  0  0  0
  186.6900  175.4240  142.6190 O   0  0  0  0  0  0  0  0  0  0  0  0
  187.7990  174.7090  142.5610 O   0  0  0  0  0  0  0  0  0  0  0  0
  188.4340  178.4650  142.1870 O   0  0  0  0  0  1  0  0  0  0  0  0
  187.4310  177.7160  142.8120 C   0  0  2  0  0  3  0  0  0  0  0  0
  187.8330  177.3560  144.2810 C   0  0  2  0  0  0  0  0  0  0  0  0
  188.2340  176.0090  144.3710 O   0  0  0  0  0  1  0  0  0  0  0  0
  186.6380  177.5920  145.2430 C   0  0  2  0  0  3  0  0  0  0  0  0
  185.6610  176.6070  145.0650 O   0  0  0  0  0  1  0  0  0  0  0  0
  185.9850  178.9670  145.0850 C   0  0  0  0  0  2  0  0  0  0  0  0
  184.4740  178.8740  145.2600 C   0  0  0  0  0  2  0  0  0  0  0  0
  184.1430  179.0120  146.6100 O   0  0  0  0  0  1  0  0  0  0  0  0
  188.8760  178.2370  144.6960 O   0  0  0  0  0  0  0  0  0  0  0  0
  190.1200  177.5760  144.7140 C   0  0  0  0  0  1  0  0  0  0  0  0
  185.6830  176.9730  141.0910 C   0  0  0  0  0  2  0  0  0  0  0  0
  185.1310  178.3330  141.4990 C   0  0  1  0  0  3  0  0  0  0  0  0
  185.2690  179.2080  140.4350 F   0  0  0  0  0  0  0  0  0  0  0  0
  183.6590  178.1850  141.8700 C   0  0  0  0  0  2  0  0  0  0  0  0
  182.7640  178.3980  140.6600 C   0  0  0  0  0  2  0  0  0  0  0  0
  181.5660  177.7000  140.8190 O   0  0  0  0  0  0  0  0  0  0  0  0
  180.5600  178.6680  140.7340 C   0  0  1  0  0  3  0  0  0  0  0  0
  179.3670  178.1070  139.9680 C   0  0  0  0  0  2  0  0  0  0  0  0
  179.7980  177.3450  138.8780 O   0  0  0  0  0  1  0  0  0  0  0  0
  180.1270  179.0940  142.1270 C   0  0  0  0  0  2  0  0  0  0  0  0
  178.9790  178.3070  142.5580 N   0  0  0  0  0  2  0  0  0  0  0  0
  178.1780  179.1490  143.4300 C   0  0  0  0  0  2  0  0  0  0  0  0
  178.6680  179.0770  144.7360 O   0  0  0  0  0  1  0  0  0  0  0  0
  1  4  1  0  0  0  0
  2  3  1  0  0  0  0
  3  1  1  0  0  0  0
  5  2  1  6  0  0  0
  5  6  1  0  0  0  0
  5 14  1  0  0  0  0
  6  4  1  6  0  0  0
  7  8  1  0  0  0  0
  7 12  1  0  0  0  0
 10  7  1  0  0  0  0
 11 12  1  0  0  0  0
 11  9  1  1  0  0  0
 13  7  1  0  0  0  0
 13  8  1  0  0  0  0
 14 10  1  6  0  0  0
 14 11  1  0  0  0  0
 15 17  1  6  0  0  0
 15 25  1  0  0  0  0
 16 26  1  6  0  0  0
 16 17  1  0  0  0  0
 16  6  1  0  0  0  0
 16 15  1  0  0  0  0
 18 21  1  1  0  0  0
 18 20  1  0  0  0  0
 19 23  1  0  0  0  0
 23 20  1  0  0  0  0
 23 22  2  0  0  0  0
 24 19  1  0  0  0  0
 25 24  1  1  0  0  0
 25 18  1  0  0  0  0
 27 26  1  0  0  0  0
 28 33  1  0  0  0  0
 28 38  1  0  0  0  0
 29 27  1  1  0  0  0
 30 37  1  0  0  0  0
 31 32  1  0  0  0  0
 32 30  1  0  0  0  0
 33 31  1  6  0  0  0
 33 36  1  0  0  0  0
 34 29  1  0  0  0  0
 36 35  1  1  0  0  0
 36 37  1  0  0  0  0
 36 29  1  0  0  0  0
 38 34  1  0  0  0  0
 39  1  1  0  0  0  0
 40 39  1  0  0  0  0
 42 58  1  6  0  0  0
 42 45  1  0  0  0  0
 42 48  1  0  0  0  0
 43 41  1  6  0  0  0
 43 40  1  0  0  0  0
 43 46  1  0  0  0  0
 44 43  1  0  0  0  0
 44 42  1  0  0  0  0
 46 45  1  0  0  0  0
 48 47  1  6  0  0  0
 48 49  1  0  0  0  0
 49 50  1  1  0  0  0
 49 56  1  0  0  0  0
 49 51  1  0  0  0  0
 51 52  1  6  0  0  0
 53 51  1  0  0  0  0
 53 54  1  0  0  0  0
 54 55  1  0  0  0  0
 56 57  1  0  0  0  0
 58 59  1  0  0  0  0
 59 60  1  6  0  0  0
 59 61  1  0  0  0  0
 62 63  1  0  0  0  0
 62 61  1  0  0  0  0
 64 65  1  1  0  0  0
 64 63  1  0  0  0  0
 64 67  1  0  0  0  0
 66 65  1  0  0  0  0
 67 68  1  0  0  0  0
 68 69  1  0  0  0  0
 69 70  1  0  0  0  0
M  END
>  <MODEL>
5

>  <REMARK>
 VINA RESULT:      -4.5      3.520      8.271
  Name = 
  25 active torsions:
  status: ('A' for Active; 'I' for Inactive)
    1  A    between atoms: N_2  and  C_20
    2  A    between atoms: C_3  and  C_44
    3  A    between atoms: C_4  and  C_30
    4  A    between atoms: C_4  and  C_34
    5  A    between atoms: O_6  and  C_38
    6  A    between atoms: C_10  and  O_39
    7  A    between atoms: C_11  and  O_53
    8  A    between atoms: C_11  and  C_59
    9  A    between atoms: C_12  and  C_67
   10  A    between atoms: C_14  and  C_30
   11  A    between atoms: C_14  and  C_40
   12  A    between atoms: C_20  and  C_50
   13  A    between atoms: C_21  and  C_23
   14  A    between atoms: C_21  and  C_60
   15  A    between atoms: C_25  and  C_50
   16  A    between atoms: C_26  and  N_55
   17  A    between atoms: C_34  and  C_58
   18  A    between atoms: C_38  and  C_40
   19  A    between atoms: C_38  and  C_60
   20  A    between atoms: O_39  and  O_53
   21  A    between atoms: O_47  and  C_58
   22  A    between atoms: O_47  and  C_67
   23  A    between atoms: C_49  and  N_55
   24  A    between atoms: C_49  and  C_67
   25  A    between atoms: C_57  and  C_66
                            x       y       z     vdW  Elec       q    Type
                         _______ _______ _______ _____ _____    ______ ____

>  <TORSDO>
F 25

$$$$
=
 OpenBabel11062421453D

 70 77  0  0  1  0  0  0  0  0999 V2000
  190.8110  172.0770  142.2890 N   0  0  0  0  0  0  0  0  0  0  0  0
  190.4840  172.7590  144.6820 C   0  0  0  0  0  2  0  0  0  0  0  0
  190.1780  171.7320  143.5740 C   0  0  0  0  0  2  0  0  0  0  0  0
  190.5990  173.4840  141.9690 C   0  0  0  0  0  2  0  0  0  0  0  0
  191.6410  173.6890  144.3050 C   0  0  2  0  0  3  0  0  0  0  0  0
  191.3470  174.3910  142.9600 C   0  0  2  0  0  3  0  0  0  0  0  0
  194.8880  173.3520  145.2020 C   0  0  0  0  0  0  0  0  0  0  0  0
  195.9900  172.8130  146.0770 C   0  0  0  0  0  2  0  0  0  0  0  0
  194.0070  172.4980  142.0530 C   0  0  0  0  0  1  0  0  0  0  0  0
  193.5870  172.9620  145.5180 O   0  0  0  0  0  0  0  0  0  0  0  0
  193.9340  173.4390  143.2410 C   0  0  2  0  0  3  0  0  0  0  0  0
  195.1850  173.5320  143.8510 O   0  0  0  0  0  0  0  0  0  0  0  0
  195.5650  174.2820  146.1740 C   0  0  0  0  0  2  0  0  0  0  0  0
  192.9580  172.8990  144.2710 C   0  0  2  0  0  3  0  0  0  0  0  0
  190.7290  176.4870  144.4790 C   0  0  2  0  0  3  0  0  0  0  0  0
  190.5620  175.6920  143.1820 C   0  0  1  0  0  0  0  0  0  0  0  0
  191.3700  176.9830  143.1830 C   0  0  0  0  0  2  0  0  0  0  0  0
  192.7750  177.0010  145.8540 C   0  0  1  0  0  3  0  0  0  0  0  0
  190.6450  176.2350  147.7010 C   0  0  0  0  0  2  0  0  0  0  0  0
  193.1000  177.0010  147.3490 C   0  0  0  0  0  2  0  0  0  0  0  0
  193.9530  176.8760  145.1180 O   0  0  0  0  0  1  0  0  0  0  0  0
  191.7850  177.7480  149.3900 S   0  0  0  0  0  0  0  0  0  0  0  0
  191.8280  177.0420  148.1430 C   0  0  0  0  0  0  0  0  0  0  0  0
  191.0540  175.2380  146.6160 C   0  0  0  0  0  2  0  0  0  0  0  0
  191.7700  175.9070  145.4300 C   0  0  1  0  0  3  0  0  0  0  0  0
  189.2470  175.7650  142.6940 O   0  0  0  0  0  0  0  0  0  0  0  0
  188.4550  175.3810  143.6820 O   0  0  0  0  0  0  0  0  0  0  0  0
  186.0800  178.6830  142.6630 C   0  0  0  0  0  2  0  0  0  0  0  0
  187.2020  175.9900  143.4730 C   0  0  2  0  0  3  0  0  0  0  0  0
  185.1440  176.6940  146.1740 O   0  0  0  0  0  0  0  0  0  0  0  0
  185.1130  178.8440  145.0240 C   0  0  0  0  0  2  0  0  0  0  0  0
  184.9800  178.0850  146.3520 C   0  0  0  0  0  2  0  0  0  0  0  0
  185.7130  177.9360  143.9500 C   0  0  2  0  0  3  0  0  0  0  0  0
  186.9350  176.3660  141.9980 C   0  0  0  0  0  2  0  0  0  0  0  0
  187.9860  177.9160  144.6820 F   0  0  0  0  0  0  0  0  0  0  0  0
  186.8830  177.0980  144.4960 C   0  0  2  0  0  0  0  0  0  0  0  0
  186.5030  176.4810  145.8570 C   0  0  0  0  0  2  0  0  0  0  0  0
  187.0410  177.8810  141.7720 C   0  0  0  0  0  2  0  0  0  0  0  0
  190.3330  171.2590  141.1630 C   0  0  0  0  0  2  0  0  0  0  0  0
  190.1630  171.9980  139.8250 C   0  0  0  0  0  2  0  0  0  0  0  0
  191.3720  170.1310  138.9890 O   0  0  0  0  0  1  0  0  0  0  0  0
  190.4470  171.5210  136.4490 C   0  0  1  0  0  0  0  0  0  0  0  0
  190.4950  171.1470  138.6020 C   0  0  2  0  0  0  0  0  0  0  0  0
  191.0940  171.9250  137.6170 O   0  0  0  0  0  0  0  0  0  0  0  0
  189.6110  170.4400  136.7800 O   0  0  0  0  0  0  0  0  0  0  0  0
  189.3420  170.5810  138.0660 O   0  0  0  0  0  0  0  0  0  0  0  0
  189.3760  172.5000  134.5140 O   0  0  0  0  0  1  0  0  0  0  0  0
  189.5870  172.6850  135.8850 C   0  0  2  0  0  3  0  0  0  0  0  0
  190.0120  174.1590  136.1930 C   0  0  2  0  0  0  0  0  0  0  0  0
  191.0760  174.1870  137.1150 O   0  0  0  0  0  1  0  0  0  0  0  0
  188.8160  174.9560  136.7790 C   0  0  2  0  0  3  0  0  0  0  0  0
  188.1940  174.2300  137.8010 O   0  0  0  0  0  1  0  0  0  0  0  0
  187.7630  175.3380  135.7360 C   0  0  0  0  0  2  0  0  0  0  0  0
  186.8640  176.4530  136.2560 C   0  0  0  0  0  2  0  0  0  0  0  0
  185.7820  176.6330  135.3900 O   0  0  0  0  0  1  0  0  0  0  0  0
  190.3710  174.7950  134.9670 O   0  0  0  0  0  0  0  0  0  0  0  0
  190.9880  176.0390  135.2030 C   0  0  0  0  0  1  0  0  0  0  0  0
  191.5100  171.0470  135.4480 C   0  0  0  0  0  2  0  0  0  0  0  0
  192.7200  170.4120  136.1230 C   0  0  1  0  0  3  0  0  0  0  0  0
  192.4320  169.0840  136.3960 F   0  0  0  0  0  0  0  0  0  0  0  0
  193.9210  170.5070  135.1880 C   0  0  0  0  0  2  0  0  0  0  0  0
  195.2260  170.3620  135.9560 C   0  0  0  0  0  2  0  0  0  0  0  0
  195.6700  171.6130  136.3890 O   0  0  0  0  0  0  0  0  0  0  0  0
  195.6680  171.5440  137.7850 C   0  0  1  0  0  3  0  0  0  0  0  0
  196.5670  170.4030  138.2480 C   0  0  0  0  0  2  0  0  0  0  0  0
  197.1670  170.7150  139.4700 O   0  0  0  0  0  1  0  0  0  0  0  0
  196.1550  172.8580  138.3740 C   0  0  0  0  0  2  0  0  0  0  0  0
  195.2170  173.9270  138.0550 N   0  0  0  0  0  2  0  0  0  0  0  0
  195.8420  175.1810  138.4420 C   0  0  0  0  0  2  0  0  0  0  0  0
  195.4330  175.5360  139.7290 O   0  0  0  0  0  1  0  0  0  0  0  0
  1  3  1  0  0  0  0
  3  2  1  0  0  0  0
  4  1  1  0  0  0  0
  5  2  1  6  0  0  0
  6  4  1  6  0  0  0
  6 16  1  0  0  0  0
  6  5  1  0  0  0  0
  7 10  1  0  0  0  0
  7  8  1  0  0  0  0
  7 13  1  0  0  0  0
  8 13  1  0  0  0  0
 11  9  1  6  0  0  0
 11 12  1  0  0  0  0
 11 14  1  0  0  0  0
 12  7  1  0  0  0  0
 14  5  1  0  0  0  0
 14 10  1  1  0  0  0
 15 17  1  6  0  0  0
 15 25  1  0  0  0  0
 16 26  1  6  0  0  0
 16 17  1  0  0  0  0
 16 15  1  0  0  0  0
 18 21  1  6  0  0  0
 18 20  1  0  0  0  0
 19 23  1  0  0  0  0
 20 23  1  0  0  0  0
 23 22  2  0  0  0  0
 24 19  1  0  0  0  0
 25 18  1  0  0  0  0
 25 24  1  1  0  0  0
 26 27  1  0  0  0  0
 29 27  1  6  0  0  0
 29 36  1  0  0  0  0
 30 32  1  0  0  0  0
 31 32  1  0  0  0  0
 33 28  1  6  0  0  0
 33 36  1  0  0  0  0
 33 31  1  0  0  0  0
 34 29  1  0  0  0  0
 36 35  1  1  0  0  0
 36 37  1  0  0  0  0
 37 30  1  0  0  0  0
 38 34  1  0  0  0  0
 38 28  1  0  0  0  0
 39  1  1  0  0  0  0
 40 39  1  0  0  0  0
 42 58  1  6  0  0  0
 42 45  1  0  0  0  0
 42 44  1  0  0  0  0
 43 41  1  1  0  0  0
 43 40  1  0  0  0  0
 44 43  1  0  0  0  0
 45 46  1  0  0  0  0
 46 43  1  0  0  0  0
 48 47  1  6  0  0  0
 48 49  1  0  0  0  0
 48 42  1  0  0  0  0
 49 51  1  0  0  0  0
 49 50  1  1  0  0  0
 51 52  1  1  0  0  0
 53 54  1  0  0  0  0
 53 51  1  0  0  0  0
 55 54  1  0  0  0  0
 56 57  1  0  0  0  0
 56 49  1  0  0  0  0
 58 59  1  0  0  0  0
 59 60  1  6  0  0  0
 61 62  1  0  0  0  0
 61 59  1  0  0  0  0
 62 63  1  0  0  0  0
 63 64  1  0  0  0  0
 64 65  1  6  0  0  0
 64 67  1  0  0  0  0
 65 66  1  0  0  0  0
 68 67  1  0  0  0  0
 68 69  1  0  0  0  0
 69 70  1  0  0  0  0
M  END
>  <MODEL>
6

>  <REMARK>
 VINA RESULT:      -4.3      3.110      9.491
  Name = 
  25 active torsions:
  status: ('A' for Active; 'I' for Inactive)
    1  A    between atoms: N_2  and  C_20
    2  A    between atoms: C_3  and  C_44
    3  A    between atoms: C_4  and  C_30
    4  A    between atoms: C_4  and  C_34
    5  A    between atoms: O_6  and  C_38
    6  A    between atoms: C_10  and  O_39
    7  A    between atoms: C_11  and  O_53
    8  A    between atoms: C_11  and  C_59
    9  A    between atoms: C_12  and  C_67
   10  A    between atoms: C_14  and  C_30
   11  A    between atoms: C_14  and  C_40
   12  A    between atoms: C_20  and  C_50
   13  A    between atoms: C_21  and  C_23
   14  A    between atoms: C_21  and  C_60
   15  A    between atoms: C_25  and  C_50
   16  A    between atoms: C_26  and  N_55
   17  A    between atoms: C_34  and  C_58
   18  A    between atoms: C_38  and  C_40
   19  A    between atoms: C_38  and  C_60
   20  A    between atoms: O_39  and  O_53
   21  A    between atoms: O_47  and  C_58
   22  A    between atoms: O_47  and  C_67
   23  A    between atoms: C_49  and  N_55
   24  A    between atoms: C_49  and  C_67
   25  A    between atoms: C_57  and  C_66
                            x       y       z     vdW  Elec       q    Type
                         _______ _______ _______ _____ _____    ______ ____

>  <TORSDO>
F 25

$$$$
=
 OpenBabel11062421453D

 70 77  0  0  1  0  0  0  0  0999 V2000
  193.9300  174.8090  142.4930 N   0  0  0  0  0  0  0  0  0  0  0  0
  194.3540  173.7720  140.2470 C   0  0  0  0  0  2  0  0  0  0  0  0
  193.5310  174.7780  141.0750 C   0  0  0  0  0  2  0  0  0  0  0  0
  194.0550  173.4560  143.0250 C   0  0  0  0  0  2  0  0  0  0  0  0
  195.6100  173.3040  140.9890 C   0  0  2  0  0  3  0  0  0  0  0  0
  195.2310  172.7150  142.3660 C   0  0  2  0  0  3  0  0  0  0  0  0
  196.6110  176.1770  142.4730 C   0  0  0  0  0  0  0  0  0  0  0  0
  197.4300  176.9600  143.4650 C   0  0  0  0  0  2  0  0  0  0  0  0
  196.9330  175.9190  139.1190 C   0  0  0  0  0  1  0  0  0  0  0  0
  196.8000  174.7960  142.4530 O   0  0  0  0  0  0  0  0  0  0  0  0
  196.1350  175.7160  140.3940 C   0  0  2  0  0  3  0  0  0  0  0  0
  196.3330  176.7960  141.2540 O   0  0  0  0  0  0  0  0  0  0  0  0
  195.9300  176.7450  143.6910 C   0  0  0  0  0  2  0  0  0  0  0  0
  196.6090  174.4640  141.1090 C   0  0  2  0  0  3  0  0  0  0  0  0
  195.5390  170.2160  143.2270 C   0  0  2  0  0  3  0  0  0  0  0  0
  194.9130  171.2170  142.2520 C   0  0  1  0  0  0  0  0  0  0  0  0
  194.0700  170.6130  143.3670 C   0  0  0  0  0  2  0  0  0  0  0  0
  195.6510  170.8470  145.6610 C   0  0  1  0  0  3  0  0  0  0  0  0
  197.7390  168.8630  145.1720 C   0  0  0  0  0  2  0  0  0  0  0  0
  196.5210  170.4270  146.8480 C   0  0  0  0  0  2  0  0  0  0  0  0
  195.0950  172.1020  145.9090 O   0  0  0  0  0  1  0  0  0  0  0  0
  197.4310  168.1770  147.5960 S   0  0  0  0  0  0  0  0  0  0  0  0
  197.1940  169.1220  146.5440 C   0  0  0  0  0  0  0  0  0  0  0  0
  197.7650  170.1560  144.3550 C   0  0  0  0  0  2  0  0  0  0  0  0
  196.3980  170.8600  144.3100 C   0  0  1  0  0  3  0  0  0  0  0  0
  194.7610  170.6650  140.9700 O   0  0  0  0  0  0  0  0  0  0  0  0
  193.4730  170.4040  140.8200 O   0  0  0  0  0  0  0  0  0  0  0  0
  193.5780  170.7790  136.6450 C   0  0  0  0  0  2  0  0  0  0  0  0
  193.3000  169.8810  139.5230 C   0  0  2  0  0  3  0  0  0  0  0  0
  190.1120  169.2490  138.3170 O   0  0  0  0  0  0  0  0  0  0  0  0
  191.0420  170.5200  136.4570 C   0  0  0  0  0  2  0  0  0  0  0  0
  189.7890  170.0960  137.2360 C   0  0  0  0  0  2  0  0  0  0  0  0
  192.3030  170.1890  137.2550 C   0  0  2  0  0  3  0  0  0  0  0  0
  194.6220  169.7360  138.7350 C   0  0  0  0  0  2  0  0  0  0  0  0
  192.1900  171.9210  138.8960 F   0  0  0  0  0  0  0  0  0  0  0  0
  192.1470  170.5430  138.7450 C   0  0  2  0  0  0  0  0  0  0  0  0
  190.7870  170.0420  139.2700 C   0  0  0  0  0  2  0  0  0  0  0  0
  194.7480  170.8070  137.6400 C   0  0  0  0  0  2  0  0  0  0  0  0
  193.0010  175.5680  143.3470 C   0  0  0  0  0  2  0  0  0  0  0  0
  192.4340  176.8590  142.7330 C   0  0  0  0  0  2  0  0  0  0  0  0
  190.9890  177.7210  144.4110 O   0  0  0  0  0  1  0  0  0  0  0  0
  189.0590  176.3390  142.5120 C   0  0  1  0  0  0  0  0  0  0  0  0
  190.9910  177.1510  143.1360 C   0  0  2  0  0  0  0  0  0  0  0  0
  190.2440  175.9770  143.1530 O   0  0  0  0  0  0  0  0  0  0  0  0
  189.1100  177.7250  142.2800 O   0  0  0  0  0  0  0  0  0  0  0  0
  190.3940  178.0300  142.2380 O   0  0  0  0  0  0  0  0  0  0  0  0
  187.7960  176.0310  140.4730 O   0  0  0  0  0  1  0  0  0  0  0  0
  188.9350  175.5930  141.1560 C   0  0  2  0  0  3  0  0  0  0  0  0
  189.0330  174.0310  141.1400 C   0  0  2  0  0  0  0  0  0  0  0  0
  187.8410  173.4540  141.6200 O   0  0  0  0  0  1  0  0  0  0  0  0
  190.2160  173.5520  142.0220 C   0  0  2  0  0  3  0  0  0  0  0  0
  191.0880  172.7460  141.2820 O   0  0  0  0  0  1  0  0  0  0  0  0
  189.7780  172.7840  143.2720 C   0  0  0  0  0  2  0  0  0  0  0  0
  190.4250  171.4060  143.3180 C   0  0  0  0  0  2  0  0  0  0  0  0
  190.8690  171.1320  144.6140 O   0  0  0  0  0  1  0  0  0  0  0  0
  189.3140  173.6070  139.8070 O   0  0  0  0  0  0  0  0  0  0  0  0
  188.2200  172.9110  139.2550 C   0  0  0  0  0  1  0  0  0  0  0  0
  187.8880  176.0290  143.4550 C   0  0  0  0  0  2  0  0  0  0  0  0
  187.3210  177.2740  144.1270 C   0  0  1  0  0  3  0  0  0  0  0  0
  186.3020  177.7820  143.3380 F   0  0  0  0  0  0  0  0  0  0  0  0
  186.7820  176.8980  145.5030 C   0  0  0  0  0  2  0  0  0  0  0  0
  185.3100  176.5220  145.4320 C   0  0  0  0  0  2  0  0  0  0  0  0
  184.6150  177.1000  146.4960 O   0  0  0  0  0  0  0  0  0  0  0  0
  184.8160  178.4770  146.3660 C   0  0  1  0  0  3  0  0  0  0  0  0
  183.7200  179.0800  145.4940 C   0  0  0  0  0  2  0  0  0  0  0  0
  184.1130  179.0940  144.1530 O   0  0  0  0  0  1  0  0  0  0  0  0
  184.8100  179.1360  147.7360 C   0  0  0  0  0  2  0  0  0  0  0  0
  186.1170  179.7120  148.0210 N   0  0  0  0  0  2  0  0  0  0  0  0
  187.0380  178.6100  148.2390 C   0  0  0  0  0  2  0  0  0  0  0  0
  188.3250  179.1060  148.4620 O   0  0  0  0  0  1  0  0  0  0  0  0
  1  4  1  0  0  0  0
  1 39  1  0  0  0  0
  2  3  1  0  0  0  0
  3  1  1  0  0  0  0
  5  2  1  1  0  0  0
  5 14  1  0  0  0  0
  5  6  1  0  0  0  0
  6  4  1  6  0  0  0
  7  8  1  0  0  0  0
  7 13  1  0  0  0  0
  8 13  1  0  0  0  0
 10  7  1  0  0  0  0
 11  9  1  6  0  0  0
 11 14  1  0  0  0  0
 11 12  1  0  0  0  0
 12  7  1  0  0  0  0
 14 10  1  1  0  0  0
 15 17  1  1  0  0  0
 15 25  1  0  0  0  0
 16 26  1  6  0  0  0
 16  6  1  0  0  0  0
 16 15  1  0  0  0  0
 16 17  1  0  0  0  0
 18 21  1  1  0  0  0
 18 20  1  0  0  0  0
 19 23  1  0  0  0  0
 23 20  1  0  0  0  0
 23 22  2  0  0  0  0
 24 19  1  0  0  0  0
 25 24  1  1  0  0  0
 25 18  1  0  0  0  0
 27 26  1  0  0  0  0
 28 33  1  0  0  0  0
 28 38  1  0  0  0  0
 29 27  1  1  0  0  0
 30 37  1  0  0  0  0
 31 32  1  0  0  0  0
 32 30  1  0  0  0  0
 33 31  1  6  0  0  0
 33 36  1  0  0  0  0
 34 29  1  0  0  0  0
 36 35  1  1  0  0  0
 36 37  1  0  0  0  0
 36 29  1  0  0  0  0
 38 34  1  0  0  0  0
 40 43  1  0  0  0  0
 40 39  1  0  0  0  0
 42 44  1  0  0  0  0
 42 58  1  1  0  0  0
 43 44  1  0  0  0  0
 43 41  1  1  0  0  0
 45 42  1  0  0  0  0
 46 45  1  0  0  0  0
 46 43  1  0  0  0  0
 48 47  1  1  0  0  0
 48 42  1  0  0  0  0
 49 48  1  0  0  0  0
 49 50  1  1  0  0  0
 49 51  1  0  0  0  0
 51 52  1  6  0  0  0
 51 53  1  0  0  0  0
 53 54  1  0  0  0  0
 54 55  1  0  0  0  0
 56 49  1  0  0  0  0
 57 56  1  0  0  0  0
 58 59  1  0  0  0  0
 59 60  1  6  0  0  0
 59 61  1  0  0  0  0
 62 61  1  0  0  0  0
 62 63  1  0  0  0  0
 64 65  1  6  0  0  0
 64 63  1  0  0  0  0
 64 67  1  0  0  0  0
 66 65  1  0  0  0  0
 67 68  1  0  0  0  0
 68 69  1  0  0  0  0
 69 70  1  0  0  0  0
M  END
>  <MODEL>
7

>  <REMARK>
 VINA RESULT:      -4.2      2.998      7.328
  Name = 
  25 active torsions:
  status: ('A' for Active; 'I' for Inactive)
    1  A    between atoms: N_2  and  C_20
    2  A    between atoms: C_3  and  C_44
    3  A    between atoms: C_4  and  C_30
    4  A    between atoms: C_4  and  C_34
    5  A    between atoms: O_6  and  C_38
    6  A    between atoms: C_10  and  O_39
    7  A    between atoms: C_11  and  O_53
    8  A    between atoms: C_11  and  C_59
    9  A    between atoms: C_12  and  C_67
   10  A    between atoms: C_14  and  C_30
   11  A    between atoms: C_14  and  C_40
   12  A    between atoms: C_20  and  C_50
   13  A    between atoms: C_21  and  C_23
   14  A    between atoms: C_21  and  C_60
   15  A    between atoms: C_25  and  C_50
   16  A    between atoms: C_26  and  N_55
   17  A    between atoms: C_34  and  C_58
   18  A    between atoms: C_38  and  C_40
   19  A    between atoms: C_38  and  C_60
   20  A    between atoms: O_39  and  O_53
   21  A    between atoms: O_47  and  C_58
   22  A    between atoms: O_47  and  C_67
   23  A    between atoms: C_49  and  N_55
   24  A    between atoms: C_49  and  C_67
   25  A    between atoms: C_57  and  C_66
                            x       y       z     vdW  Elec       q    Type
                         _______ _______ _______ _____ _____    ______ ____

>  <TORSDO>
F 25

$$$$
=
 OpenBabel11062421453D

 70 77  0  0  1  0  0  0  0  0999 V2000
  193.8040  174.9990  142.4000 N   0  0  0  0  0  0  0  0  0  0  0  0
  194.1760  173.8460  140.2020 C   0  0  0  0  0  2  0  0  0  0  0  0
  193.4220  174.9430  140.9780 C   0  0  0  0  0  2  0  0  0  0  0  0
  193.8200  173.6630  142.9840 C   0  0  0  0  0  2  0  0  0  0  0  0
  195.3840  173.3140  140.9800 C   0  0  2  0  0  3  0  0  0  0  0  0
  194.9440  172.8100  142.3720 C   0  0  2  0  0  3  0  0  0  0  0  0
  196.5960  176.1420  142.3900 C   0  0  0  0  0  0  0  0  0  0  0  0
  197.4720  176.8890  143.3620 C   0  0  0  0  0  2  0  0  0  0  0  0
  196.8970  175.7740  139.0440 C   0  0  0  0  0  1  0  0  0  0  0  0
  196.6820  174.7510  142.4060 O   0  0  0  0  0  0  0  0  0  0  0  0
  196.0870  175.6640  140.3220 C   0  0  2  0  0  3  0  0  0  0  0  0
  196.3650  176.7490  141.1550 O   0  0  0  0  0  0  0  0  0  0  0  0
  195.9610  176.7910  143.5920 C   0  0  0  0  0  2  0  0  0  0  0  0
  196.4670  174.3990  141.0710 C   0  0  2  0  0  3  0  0  0  0  0  0
  195.2500  170.2800  143.1390 C   0  0  2  0  0  3  0  0  0  0  0  0
  194.5150  171.3360  142.3110 C   0  0  1  0  0  0  0  0  0  0  0  0
  193.8640  170.7640  143.5630 C   0  0  0  0  0  2  0  0  0  0  0  0
  195.8240  170.9740  145.4900 C   0  0  1  0  0  3  0  0  0  0  0  0
  197.5590  168.7310  144.7900 C   0  0  0  0  0  2  0  0  0  0  0  0
  196.8160  170.4900  146.5490 C   0  0  0  0  0  2  0  0  0  0  0  0
  195.4650  172.2960  145.7540 O   0  0  0  0  0  1  0  0  0  0  0  0
  197.5640  168.1700  147.2650 S   0  0  0  0  0  0  0  0  0  0  0  0
  197.2740  169.1010  146.2140 C   0  0  0  0  0  0  0  0  0  0  0  0
  197.6060  169.9820  143.9120 C   0  0  0  0  0  2  0  0  0  0  0  0
  196.3410  170.8490  144.0410 C   0  0  1  0  0  3  0  0  0  0  0  0
  194.0840  170.8210  141.0770 O   0  0  0  0  0  0  0  0  0  0  0  0
  193.5470  169.6380  141.3280 O   0  0  0  0  0  0  0  0  0  0  0  0
  193.6860  169.5890  137.1370 C   0  0  0  0  0  2  0  0  0  0  0  0
  193.3070  169.0170  140.0860 C   0  0  2  0  0  3  0  0  0  0  0  0
  190.0610  168.6710  138.9180 O   0  0  0  0  0  0  0  0  0  0  0  0
  191.1370  169.6300  136.9520 C   0  0  0  0  0  2  0  0  0  0  0  0
  189.8430  169.4430  137.7560 C   0  0  0  0  0  2  0  0  0  0  0  0
  192.3490  169.2240  137.7900 C   0  0  2  0  0  3  0  0  0  0  0  0
  194.5980  168.6330  139.3280 C   0  0  0  0  0  2  0  0  0  0  0  0
  192.4570  171.1080  139.2540 F   0  0  0  0  0  0  0  0  0  0  0  0
  192.2430  169.7390  139.2370 C   0  0  2  0  0  0  0  0  0  0  0  0
  190.8320  169.4640  139.7960 C   0  0  0  0  0  2  0  0  0  0  0  0
  194.8540  169.5680  138.1360 C   0  0  0  0  0  2  0  0  0  0  0  0
  192.9260  175.8590  143.2100 C   0  0  0  0  0  2  0  0  0  0  0  0
  192.2140  176.9910  142.4500 C   0  0  0  0  0  2  0  0  0  0  0  0
  190.8710  177.8810  144.1970 O   0  0  0  0  0  1  0  0  0  0  0  0
  188.8440  176.4010  142.4830 C   0  0  1  0  0  0  0  0  0  0  0  0
  190.7970  177.2690  142.9440 C   0  0  2  0  0  0  0  0  0  0  0  0
  190.0780  176.0830  143.0510 O   0  0  0  0  0  0  0  0  0  0  0  0
  188.8490  177.7790  142.2040 O   0  0  0  0  0  0  0  0  0  0  0  0
  190.1210  178.1070  142.0620 O   0  0  0  0  0  0  0  0  0  0  0  0
  187.4240  175.9650  140.5750 O   0  0  0  0  0  1  0  0  0  0  0  0
  188.6420  175.6080  141.1640 C   0  0  2  0  0  3  0  0  0  0  0  0
  188.8240  174.0530  141.1790 C   0  0  2  0  0  0  0  0  0  0  0  0
  187.6630  173.4220  141.6660 O   0  0  0  0  0  1  0  0  0  0  0  0
  190.0270  173.6570  142.0750 C   0  0  2  0  0  3  0  0  0  0  0  0
  190.9230  172.8490  141.3670 O   0  0  0  0  0  1  0  0  0  0  0  0
  189.6220  172.9330  143.3610 C   0  0  0  0  0  2  0  0  0  0  0  0
  190.2340  171.5390  143.4160 C   0  0  0  0  0  2  0  0  0  0  0  0
  190.9540  171.3820  144.6030 O   0  0  0  0  0  1  0  0  0  0  0  0
  189.1340  173.6190  139.8550 O   0  0  0  0  0  0  0  0  0  0  0  0
  188.1890  172.6810  139.3950 C   0  0  0  0  0  1  0  0  0  0  0  0
  187.7470  176.1010  143.5150 C   0  0  0  0  0  2  0  0  0  0  0  0
  186.9660  177.3410  143.9290 C   0  0  1  0  0  3  0  0  0  0  0  0
  185.6500  176.9800  144.1710 F   0  0  0  0  0  0  0  0  0  0  0  0
  187.5890  177.9280  145.1910 C   0  0  0  0  0  2  0  0  0  0  0  0
  186.8600  177.4500  146.4360 C   0  0  0  0  0  2  0  0  0  0  0  0
  187.7200  176.6970  147.2380 O   0  0  0  0  0  0  0  0  0  0  0  0
  189.0050  177.1590  146.9380 C   0  0  1  0  0  3  0  0  0  0  0  0
  189.4990  178.0730  148.0540 C   0  0  0  0  0  2  0  0  0  0  0  0
  188.5280  179.0240  148.3760 O   0  0  0  0  0  1  0  0  0  0  0  0
  189.9560  175.9850  146.7710 C   0  0  0  0  0  2  0  0  0  0  0  0
  191.3300  176.4170  146.9900 N   0  0  0  0  0  2  0  0  0  0  0  0
  192.1760  175.2410  146.8870 C   0  0  0  0  0  2  0  0  0  0  0  0
  191.6860  174.3900  145.8940 O   0  0  0  0  0  1  0  0  0  0  0  0
  1  4  1  0  0  0  0
  1 39  1  0  0  0  0
  2  3  1  0  0  0  0
  3  1  1  0  0  0  0
  5  2  1  1  0  0  0
  5 14  1  0  0  0  0
  5  6  1  0  0  0  0
  6  4  1  6  0  0  0
  7 10  1  0  0  0  0
  7  8  1  0  0  0  0
  7 13  1  0  0  0  0
  8 13  1  0  0  0  0
 11  9  1  6  0  0  0
 11 14  1  0  0  0  0
 11 12  1  0  0  0  0
 12  7  1  0  0  0  0
 14 10  1  1  0  0  0
 15 17  1  1  0  0  0
 15 25  1  0  0  0  0
 16 26  1  6  0  0  0
 16  6  1  0  0  0  0
 16 15  1  0  0  0  0
 16 17  1  0  0  0  0
 18 21  1  1  0  0  0
 18 20  1  0  0  0  0
 19 23  1  0  0  0  0
 23 20  1  0  0  0  0
 23 22  2  0  0  0  0
 24 19  1  0  0  0  0
 25 24  1  1  0  0  0
 25 18  1  0  0  0  0
 26 27  1  0  0  0  0
 28 33  1  0  0  0  0
 28 38  1  0  0  0  0
 29 27  1  1  0  0  0
 30 37  1  0  0  0  0
 31 32  1  0  0  0  0
 32 30  1  0  0  0  0
 33 31  1  6  0  0  0
 33 36  1  0  0  0  0
 34 29  1  0  0  0  0
 36 35  1  1  0  0  0
 36 37  1  0  0  0  0
 36 29  1  0  0  0  0
 38 34  1  0  0  0  0
 40 43  1  0  0  0  0
 40 39  1  0  0  0  0
 42 44  1  0  0  0  0
 42 58  1  1  0  0  0
 43 44  1  0  0  0  0
 43 41  1  1  0  0  0
 45 42  1  0  0  0  0
 46 45  1  0  0  0  0
 46 43  1  0  0  0  0
 48 47  1  1  0  0  0
 48 49  1  0  0  0  0
 48 42  1  0  0  0  0
 49 50  1  1  0  0  0
 49 51  1  0  0  0  0
 51 52  1  6  0  0  0
 51 53  1  0  0  0  0
 53 54  1  0  0  0  0
 54 55  1  0  0  0  0
 56 49  1  0  0  0  0
 57 56  1  0  0  0  0
 58 59  1  0  0  0  0
 59 60  1  1  0  0  0
 59 61  1  0  0  0  0
 61 62  1  0  0  0  0
 62 63  1  0  0  0  0
 64 67  1  1  0  0  0
 64 63  1  0  0  0  0
 64 65  1  0  0  0  0
 65 66  1  0  0  0  0
 67 68  1  0  0  0  0
 69 68  1  0  0  0  0
 70 69  1  0  0  0  0
M  END
>  <MODEL>
8

>  <REMARK>
 VINA RESULT:      -4.1      2.900      6.542
  Name = 
  25 active torsions:
  status: ('A' for Active; 'I' for Inactive)
    1  A    between atoms: N_2  and  C_20
    2  A    between atoms: C_3  and  C_44
    3  A    between atoms: C_4  and  C_30
    4  A    between atoms: C_4  and  C_34
    5  A    between atoms: O_6  and  C_38
    6  A    between atoms: C_10  and  O_39
    7  A    between atoms: C_11  and  O_53
    8  A    between atoms: C_11  and  C_59
    9  A    between atoms: C_12  and  C_67
   10  A    between atoms: C_14  and  C_30
   11  A    between atoms: C_14  and  C_40
   12  A    between atoms: C_20  and  C_50
   13  A    between atoms: C_21  and  C_23
   14  A    between atoms: C_21  and  C_60
   15  A    between atoms: C_25  and  C_50
   16  A    between atoms: C_26  and  N_55
   17  A    between atoms: C_34  and  C_58
   18  A    between atoms: C_38  and  C_40
   19  A    between atoms: C_38  and  C_60
   20  A    between atoms: O_39  and  O_53
   21  A    between atoms: O_47  and  C_58
   22  A    between atoms: O_47  and  C_67
   23  A    between atoms: C_49  and  N_55
   24  A    between atoms: C_49  and  C_67
   25  A    between atoms: C_57  and  C_66
                            x       y       z     vdW  Elec       q    Type
                         _______ _______ _______ _____ _____    ______ ____

>  <TORSDO>
F 25

$$$$
=
 OpenBabel11062421453D

 70 77  0  0  1  0  0  0  0  0999 V2000
  190.8690  171.2960  141.4710 N   0  0  0  0  0  0  0  0  0  0  0  0
  190.4500  171.4980  143.9380 C   0  0  0  0  0  2  0  0  0  0  0  0
  190.1060  170.7760  142.6200 C   0  0  0  0  0  2  0  0  0  0  0  0
  190.8490  172.7550  141.4550 C   0  0  0  0  0  2  0  0  0  0  0  0
  191.7330  172.3260  143.8260 C   0  0  2  0  0  3  0  0  0  0  0  0
  191.6240  173.3270  142.6540 C   0  0  2  0  0  3  0  0  0  0  0  0
  194.0210  170.7600  141.8830 C   0  0  0  0  0  0  0  0  0  0  0  0
  195.3760  170.6410  141.2360 C   0  0  0  0  0  2  0  0  0  0  0  0
  192.7060  169.0550  144.4880 C   0  0  0  0  0  1  0  0  0  0  0  0
  193.8060  171.8750  142.6910 O   0  0  0  0  0  0  0  0  0  0  0  0
  192.5510  169.9800  143.2960 C   0  0  2  0  0  3  0  0  0  0  0  0
  193.3970  169.5720  142.2650 O   0  0  0  0  0  0  0  0  0  0  0  0
  194.1450  171.0150  140.4040 C   0  0  0  0  0  2  0  0  0  0  0  0
  192.9460  171.3950  143.6830 C   0  0  2  0  0  3  0  0  0  0  0  0
  191.7750  175.6280  143.9830 C   0  0  2  0  0  3  0  0  0  0  0  0
  190.9850  174.6440  143.1170 C   0  0  1  0  0  0  0  0  0  0  0  0
  191.5380  175.9230  142.5020 C   0  0  0  0  0  2  0  0  0  0  0  0
  194.1830  176.0210  143.3630 C   0  0  1  0  0  3  0  0  0  0  0  0
  193.8730  176.7390  146.1780 C   0  0  0  0  0  2  0  0  0  0  0  0
  195.4210  176.5300  144.1050 C   0  0  0  0  0  2  0  0  0  0  0  0
  194.5760  175.2650  142.2590 O   0  0  0  0  0  1  0  0  0  0  0  0
  195.7610  178.3920  145.7990 S   0  0  0  0  0  0  0  0  0  0  0  0
  195.0020  177.2650  145.3430 C   0  0  0  0  0  0  0  0  0  0  0  0
  193.5100  175.3160  145.7510 C   0  0  0  0  0  2  0  0  0  0  0  0
  193.2160  175.2020  144.2450 C   0  0  1  0  0  3  0  0  0  0  0  0
  189.6200  174.6380  143.4510 O   0  0  0  0  0  0  0  0  0  0  0  0
  189.3840  175.7670  144.1000 O   0  0  0  0  0  0  0  0  0  0  0  0
  186.6210  178.3410  142.2780 C   0  0  0  0  0  2  0  0  0  0  0  0
  188.0650  176.1550  143.7970 C   0  0  2  0  0  3  0  0  0  0  0  0
  186.0240  177.4550  146.2800 O   0  0  0  0  0  0  0  0  0  0  0  0
  185.7150  179.1290  144.5340 C   0  0  0  0  0  2  0  0  0  0  0  0
  185.7090  178.8090  146.0360 C   0  0  0  0  0  2  0  0  0  0  0  0
  186.3800  177.9970  143.7520 C   0  0  2  0  0  3  0  0  0  0  0  0
  187.7130  176.0270  142.2970 C   0  0  0  0  0  2  0  0  0  0  0  0
  188.6620  178.4280  144.3090 F   0  0  0  0  0  0  0  0  0  0  0  0
  187.6530  177.4880  144.4510 C   0  0  2  0  0  0  0  0  0  0  0  0
  187.3880  177.2880  145.9570 C   0  0  0  0  0  2  0  0  0  0  0  0
  187.6390  177.4010  141.6140 C   0  0  0  0  0  2  0  0  0  0  0  0
  190.3820  170.8030  140.1730 C   0  0  0  0  0  2  0  0  0  0  0  0
  191.1210  169.5790  139.6040 C   0  0  0  0  0  2  0  0  0  0  0  0
  191.1390  168.1660  137.6940 O   0  0  0  0  0  1  0  0  0  0  0  0
  191.6950  170.9070  136.5030 C   0  0  1  0  0  0  0  0  0  0  0  0
  191.1130  169.5080  138.0800 C   0  0  2  0  0  0  0  0  0  0  0  0
  192.2240  170.1610  137.5570 O   0  0  0  0  0  0  0  0  0  0  0  0
  190.3410  170.5510  136.3710 O   0  0  0  0  0  0  0  0  0  0  0  0
  189.9720  170.1140  137.5620 O   0  0  0  0  0  0  0  0  0  0  0  0
  192.2420  172.6090  138.1320 O   0  0  0  0  0  1  0  0  0  0  0  0
  191.8010  172.4240  136.8160 C   0  0  2  0  0  3  0  0  0  0  0  0
  190.5820  173.3510  136.4970 C   0  0  2  0  0  0  0  0  0  0  0  0
  189.7570  172.7660  135.5150 O   0  0  0  0  0  1  0  0  0  0  0  0
  191.0700  174.7330  135.9870 C   0  0  2  0  0  3  0  0  0  0  0  0
  190.2930  175.1610  134.9050 O   0  0  0  0  0  1  0  0  0  0  0  0
  192.5430  174.7480  135.5710 C   0  0  0  0  0  2  0  0  0  0  0  0
  193.3430  175.7090  136.4410 C   0  0  0  0  0  2  0  0  0  0  0  0
  194.6740  175.7380  136.0180 O   0  0  0  0  0  1  0  0  0  0  0  0
  189.8610  173.5880  137.7060 O   0  0  0  0  0  0  0  0  0  0  0  0
  188.5990  174.1540  137.4410 C   0  0  0  0  0  1  0  0  0  0  0  0
  192.4430  170.5250  135.2180 C   0  0  0  0  0  2  0  0  0  0  0  0
  193.8200  169.9290  135.4870 C   0  0  1  0  0  3  0  0  0  0  0  0
  194.0840  168.9660  134.5280 F   0  0  0  0  0  0  0  0  0  0  0  0
  194.8660  171.0370  135.4210 C   0  0  0  0  0  2  0  0  0  0  0  0
  196.2740  170.4620  135.4230 C   0  0  0  0  0  2  0  0  0  0  0  0
  197.1650  171.3750  135.9910 O   0  0  0  0  0  0  0  0  0  0  0  0
  196.7760  171.4910  137.3280 C   0  0  1  0  0  3  0  0  0  0  0  0
  197.4790  170.4280  138.1650 C   0  0  0  0  0  2  0  0  0  0  0  0
  196.5830  169.4220  138.5340 O   0  0  0  0  0  1  0  0  0  0  0  0
  197.1190  172.8750  137.8530 C   0  0  0  0  0  2  0  0  0  0  0  0
  196.0100  173.4030  138.6370 N   0  0  0  0  0  2  0  0  0  0  0  0
  196.5630  173.9200  139.8780 C   0  0  0  0  0  2  0  0  0  0  0  0
  197.9010  173.5380  139.9940 O   0  0  0  0  0  1  0  0  0  0  0  0
  1  3  1  0  0  0  0
  3  2  1  0  0  0  0
  4  1  1  0  0  0  0
  5  2  1  6  0  0  0
  6  4  1  6  0  0  0
  6 16  1  0  0  0  0
  6  5  1  0  0  0  0
  7 12  1  0  0  0  0
  7 10  1  0  0  0  0
  8  7  1  0  0  0  0
 11 14  1  0  0  0  0
 11  9  1  1  0  0  0
 12 11  1  0  0  0  0
 13  8  1  0  0  0  0
 13  7  1  0  0  0  0
 14 10  1  6  0  0  0
 14  5  1  0  0  0  0
 15 17  1  6  0  0  0
 15 25  1  0  0  0  0
 16 26  1  1  0  0  0
 16 15  1  0  0  0  0
 17 16  1  0  0  0  0
 18 21  1  6  0  0  0
 18 20  1  0  0  0  0
 18 25  1  0  0  0  0
 20 23  1  0  0  0  0
 23 22  2  0  0  0  0
 23 19  1  0  0  0  0
 24 19  1  0  0  0  0
 25 24  1  1  0  0  0
 26 27  1  0  0  0  0
 29 27  1  6  0  0  0
 29 36  1  0  0  0  0
 31 32  1  0  0  0  0
 32 30  1  0  0  0  0
 33 28  1  6  0  0  0
 33 36  1  0  0  0  0
 33 31  1  0  0  0  0
 34 29  1  0  0  0  0
 36 35  1  6  0  0  0
 36 37  1  0  0  0  0
 37 30  1  0  0  0  0
 38 28  1  0  0  0  0
 38 34  1  0  0  0  0
 39  1  1  0  0  0  0
 40 39  1  0  0  0  0
 42 58  1  6  0  0  0
 42 48  1  0  0  0  0
 42 44  1  0  0  0  0
 43 41  1  6  0  0  0
 43 40  1  0  0  0  0
 44 43  1  0  0  0  0
 45 42  1  0  0  0  0
 45 46  1  0  0  0  0
 46 43  1  0  0  0  0
 48 47  1  1  0  0  0
 49 50  1  6  0  0  0
 49 48  1  0  0  0  0
 49 56  1  0  0  0  0
 51 52  1  6  0  0  0
 51 49  1  0  0  0  0
 53 51  1  0  0  0  0
 53 54  1  0  0  0  0
 55 54  1  0  0  0  0
 57 56  1  0  0  0  0
 58 59  1  0  0  0  0
 59 60  1  6  0  0  0
 61 62  1  0  0  0  0
 61 59  1  0  0  0  0
 62 63  1  0  0  0  0
 63 64  1  0  0  0  0
 64 67  1  1  0  0  0
 64 65  1  0  0  0  0
 65 66  1  0  0  0  0
 67 68  1  0  0  0  0
 68 69  1  0  0  0  0
 69 70  1  0  0  0  0
M  END
>  <MODEL>
9

>  <REMARK>
 VINA RESULT:      -3.9      2.931      9.233
  Name = 
  25 active torsions:
  status: ('A' for Active; 'I' for Inactive)
    1  A    between atoms: N_2  and  C_20
    2  A    between atoms: C_3  and  C_44
    3  A    between atoms: C_4  and  C_30
    4  A    between atoms: C_4  and  C_34
    5  A    between atoms: O_6  and  C_38
    6  A    between atoms: C_10  and  O_39
    7  A    between atoms: C_11  and  O_53
    8  A    between atoms: C_11  and  C_59
    9  A    between atoms: C_12  and  C_67
   10  A    between atoms: C_14  and  C_30
   11  A    between atoms: C_14  and  C_40
   12  A    between atoms: C_20  and  C_50
   13  A    between atoms: C_21  and  C_23
   14  A    between atoms: C_21  and  C_60
   15  A    between atoms: C_25  and  C_50
   16  A    between atoms: C_26  and  N_55
   17  A    between atoms: C_34  and  C_58
   18  A    between atoms: C_38  and  C_40
   19  A    between atoms: C_38  and  C_60
   20  A    between atoms: O_39  and  O_53
   21  A    between atoms: O_47  and  C_58
   22  A    between atoms: O_47  and  C_67
   23  A    between atoms: C_49  and  N_55
   24  A    between atoms: C_49  and  C_67
   25  A    between atoms: C_57  and  C_66
                            x       y       z     vdW  Elec       q    Type
                         _______ _______ _______ _____ _____    ______ ____

>  <TORSDO>
F 25

$$$$
