=
 OpenBabel11072409143D

 39 43  0  0  1  0  0  0  0  0999 V2000
  195.6150  174.7560  144.3370 C   0  0  1  0  0  3  0  0  0  0  0  0
  194.7820  175.9090  144.6600 N   0  0  0  0  0  2  0  0  0  0  0  0
  193.0910  175.0530  146.1900 C   0  0  0  0  0  0  0  0  0  0  0  0
  194.1850  172.9530  145.3430 C   0  0  2  0  0  3  0  0  0  0  0  0
  193.0150  173.7580  145.8420 C   0  0  0  0  0  3  0  0  0  0  0  0
  194.7490  173.5330  144.0500 C   0  0  0  0  0  2  0  0  0  0  0  0
  196.4160  175.0590  143.1650 N   0  0  0  0  0  1  0  0  0  0  0  0
  194.3970  175.8130  146.0630 C   0  0  2  0  0  3  0  0  0  0  0  0
  194.3410  177.2070  146.6660 C   0  0  0  0  0  1  0  0  0  0  0  0
  191.8410  175.7160  146.6940 C   0  0  0  0  0  2  0  0  0  0  0  0
  191.3020  177.1830  144.7310 C   0  0  0  0  0  1  0  0  0  0  0  0
  190.8620  175.9850  145.5570 C   0  0  2  0  0  3  0  0  0  0  0  0
  188.9040  175.2010  146.7780 C   0  0  0  0  0  2  0  0  0  0  0  0
  189.4780  176.1890  146.0920 C   0  0  0  0  0  0  0  0  0  0  0  0
  188.8400  177.5520  146.0590 C   0  0  0  0  0  2  0  0  0  0  0  0
  187.6840  177.5940  145.1110 C   0  0  0  0  0  0  0  0  0  0  0  0
  185.3560  177.9930  144.6290 C   0  0  0  0  0  0  0  0  0  0  0  0
  186.7890  177.2680  142.8910 N   0  0  0  0  0  0  0  0  0  0  0  0
  186.6420  178.4440  147.9760 C   0  0  0  0  0  1  0  0  0  0  0  0
  187.8520  177.2410  143.7550 C   0  0  0  0  0  3  0  0  0  0  0  0
  184.6100  178.5800  146.5310 C   0  0  0  0  0  3  0  0  0  0  0  0
  184.2220  178.3730  145.2420 N   0  0  0  0  0  0  0  0  0  0  0  0
  186.3950  177.9720  145.5080 C   0  0  0  0  0  0  0  0  0  0  0  0
  185.9300  178.3510  146.7120 N   0  0  0  0  0  0  0  0  0  0  0  0
  185.5340  177.6340  143.2960 C   0  0  0  0  0  0  0  0  0  0  0  0
  184.5620  178.2240  141.1140 C   0  0  0  0  0  1  0  0  0  0  0  0
  184.4570  177.6500  142.4080 O   0  0  0  0  0  0  0  0  0  0  0  0
  193.7740  171.6410  145.1180 O   0  0  0  0  0  0  0  0  0  0  0  0
  193.4690  171.5870  143.7550 C   0  0  0  0  0  2  0  0  0  0  0  0
  192.1990  170.7780  143.5410 C   0  0  0  0  0  2  0  0  0  0  0  0
  189.6730  171.9300  143.3560 P   0  0  2  0  0  0  0  0  0  0  0  0
  189.4950  172.1140  145.0280 O   0  0  0  0  0  1  0  0  0  0  0  0
  188.4810  172.3170  142.5080 O   0  0  0  0  0  0  0  0  0  0  0  0
  191.2270  171.4770  142.5960 C   0  0  1  0  0  0  0  0  0  0  0  0
  191.1450  172.8770  142.8380 N   0  0  1  0  0  0  0  0  0  0  0  0
  191.1110  170.9730  141.1540 C   0  0  0  0  0  1  0  0  0  0  0  0
  190.7890  173.6620  141.6550 C   0  0  0  0  0  3  0  0  0  0  0  0
  191.9610  174.5450  141.2670 C   0  0  0  0  0  2  0  0  0  0  0  0
  190.7860  175.1360  142.0160 C   0  0  0  0  0  2  0  0  0  0  0  0
  1  7  1  6  0  0  0
  1  2  1  0  0  0  0
  2  8  1  0  0  0  0
  3 10  1  0  0  0  0
  4 28  1  6  0  0  0
  4  5  1  0  0  0  0
  5  3  2  0  0  0  0
  6  1  1  0  0  0  0
  6  4  1  0  0  0  0
  8  3  1  0  0  0  0
  8  9  1  6  0  0  0
 12 11  1  1  0  0  0
 12 14  1  0  0  0  0
 12 10  1  0  0  0  0
 14 13  2  0  0  0  0
 15 14  1  0  0  0  0
 16 23  1  0  0  0  0
 16 15  1  0  0  0  0
 17 22  1  0  0  0  0
 17 23  2  0  0  0  0
 18 25  2  0  0  0  0
 18 20  1  0  0  0  0
 20 16  2  0  0  0  0
 21 24  1  0  0  0  0
 22 21  2  0  0  0  0
 23 24  1  0  0  0  0
 24 19  1  0  0  0  0
 25 17  1  0  0  0  0
 26 27  1  0  0  0  0
 27 25  1  0  0  0  0
 29 28  1  0  0  0  0
 30 29  1  0  0  0  0
 31 33  2  6  0  0  0
 31 32  1  0  0  0  0
 34 36  1  6  0  0  0
 34 35  1  0  0  0  0
 34 31  1  0  0  0  0
 34 30  1  0  0  0  0
 35 37  1  6  0  0  0
 35 31  1  0  0  0  0
 37 39  1  0  0  0  0
 38 37  1  0  0  0  0
 38 39  1  0  0  0  0
M  END
>  <MODEL>
1

>  <REMARK>
 VINA RESULT:      -7.3      0.000      0.000
  Name = 
  11 active torsions:
  status: ('A' for Active; 'I' for Inactive)
    1  A    between atoms: C_3  and  C_11
    2  A    between atoms: C_5  and  C_7
    3  A    between atoms: C_7  and  C_34
    4  A    between atoms: C_10  and  O_26
    5  A    between atoms: C_11  and  C_37
    6  A    between atoms: O_16  and  C_38
    7  A    between atoms: C_22  and  O_26
    8  A    between atoms: C_22  and  C_27
    9  A    between atoms: C_27  and  C_30
   10  A    between atoms: N_31  and  C_32
   11  A    between atoms: C_34  and  C_37
                            x       y       z     vdW  Elec       q    Type
                         _______ _______ _______ _____ _____    ______ ____

>  <TORSDO>
F 11

$$$$
=
 OpenBabel11072409143D

 39 43  0  0  1  0  0  0  0  0999 V2000
  195.9110  174.6910  144.7720 C   0  0  1  0  0  3  0  0  0  0  0  0
  195.1720  175.9430  144.8910 N   0  0  0  0  0  2  0  0  0  0  0  0
  193.1290  175.3550  146.0790 C   0  0  0  0  0  0  0  0  0  0  0  0
  194.1130  173.1080  145.5250 C   0  0  2  0  0  3  0  0  0  0  0  0
  192.9710  174.0590  145.7600 C   0  0  0  0  0  3  0  0  0  0  0  0
  194.9810  173.5570  144.3530 C   0  0  0  0  0  2  0  0  0  0  0  0
  196.9540  174.8460  143.7740 N   0  0  0  0  0  1  0  0  0  0  0  0
  194.5150  175.9600  146.1910 C   0  0  2  0  0  3  0  0  0  0  0  0
  194.5050  177.3810  146.7320 C   0  0  0  0  0  1  0  0  0  0  0  0
  191.8910  176.1740  146.3060 C   0  0  0  0  0  2  0  0  0  0  0  0
  191.3030  177.2030  144.0940 C   0  0  0  0  0  1  0  0  0  0  0  0
  190.9610  176.1150  145.0990 C   0  0  2  0  0  3  0  0  0  0  0  0
  188.9230  175.1400  146.0130 C   0  0  0  0  0  2  0  0  0  0  0  0
  189.5310  176.2250  145.5330 C   0  0  0  0  0  0  0  0  0  0  0  0
  188.8670  177.5710  145.6410 C   0  0  0  0  0  2  0  0  0  0  0  0
  187.6760  177.6700  144.7420 C   0  0  0  0  0  0  0  0  0  0  0  0
  185.3330  178.1010  144.3730 C   0  0  0  0  0  0  0  0  0  0  0  0
  186.6960  177.4740  142.5420 N   0  0  0  0  0  0  0  0  0  0  0  0
  186.7470  178.3560  147.6890 C   0  0  0  0  0  1  0  0  0  0  0  0
  187.7910  177.3950  143.3630 C   0  0  0  0  0  3  0  0  0  0  0  0
  184.6620  178.5790  146.3320 C   0  0  0  0  0  3  0  0  0  0  0  0
  184.2240  178.4470  145.0490 N   0  0  0  0  0  0  0  0  0  0  0  0
  186.4040  178.0270  145.2090 C   0  0  0  0  0  0  0  0  0  0  0  0
  185.9870  178.3370  146.4500 N   0  0  0  0  0  0  0  0  0  0  0  0
  185.4580  177.8180  143.0150 C   0  0  0  0  0  0  0  0  0  0  0  0
  184.4690  178.2560  140.8060 C   0  0  0  0  0  1  0  0  0  0  0  0
  184.3500  177.8880  142.1710 O   0  0  0  0  0  0  0  0  0  0  0  0
  193.6040  171.8390  145.2590 O   0  0  0  0  0  0  0  0  0  0  0  0
  193.4850  171.7810  143.8680 C   0  0  0  0  0  2  0  0  0  0  0  0
  192.0700  171.3750  143.4860 C   0  0  0  0  0  2  0  0  0  0  0  0
  191.1210  171.2190  140.8750 P   0  0  2  0  0  0  0  0  0  0  0  0
  190.7910  169.5630  140.9590 O   0  0  0  0  0  1  0  0  0  0  0  0
  190.9030  171.8800  139.5310 O   0  0  0  0  0  0  0  0  0  0  0  0
  191.5350  172.1940  142.3160 C   0  0  1  0  0  0  0  0  0  0  0  0
  190.1270  172.0580  142.1560 N   0  0  1  0  0  0  0  0  0  0  0  0
  192.1820  173.5480  142.0080 C   0  0  0  0  0  1  0  0  0  0  0  0
  189.4860  173.2230  141.5450 C   0  0  0  0  0  3  0  0  0  0  0  0
  188.5990  173.9040  142.5710 C   0  0  0  0  0  2  0  0  0  0  0  0
  187.9850  173.0090  141.5170 C   0  0  0  0  0  2  0  0  0  0  0  0
  1  7  1  6  0  0  0
  1  2  1  0  0  0  0
  2  8  1  0  0  0  0
  3  8  1  0  0  0  0
  3 10  1  0  0  0  0
  4 28  1  6  0  0  0
  4  5  1  0  0  0  0
  5  3  2  0  0  0  0
  6  1  1  0  0  0  0
  6  4  1  0  0  0  0
  8  9  1  6  0  0  0
 12 11  1  6  0  0  0
 12 14  1  0  0  0  0
 12 10  1  0  0  0  0
 14 15  1  0  0  0  0
 14 13  2  0  0  0  0
 16 23  1  0  0  0  0
 16 15  1  0  0  0  0
 17 22  1  0  0  0  0
 17 23  2  0  0  0  0
 18 25  2  0  0  0  0
 18 20  1  0  0  0  0
 20 16  2  0  0  0  0
 21 24  1  0  0  0  0
 22 21  2  0  0  0  0
 23 24  1  0  0  0  0
 24 19  1  0  0  0  0
 25 17  1  0  0  0  0
 26 27  1  0  0  0  0
 27 25  1  0  0  0  0
 29 28  1  0  0  0  0
 30 29  1  0  0  0  0
 31 33  2  6  0  0  0
 31 32  1  0  0  0  0
 31 35  1  0  0  0  0
 31 34  1  0  0  0  0
 34 36  1  6  0  0  0
 34 30  1  0  0  0  0
 35 37  1  6  0  0  0
 35 34  1  0  0  0  0
 37 38  1  0  0  0  0
 39 37  1  0  0  0  0
 39 38  1  0  0  0  0
M  END
>  <MODEL>
2

>  <REMARK>
 VINA RESULT:      -7.1      1.291      1.547
  Name = 
  11 active torsions:
  status: ('A' for Active; 'I' for Inactive)
    1  A    between atoms: C_3  and  C_11
    2  A    between atoms: C_5  and  C_7
    3  A    between atoms: C_7  and  C_34
    4  A    between atoms: C_10  and  O_26
    5  A    between atoms: C_11  and  C_37
    6  A    between atoms: O_16  and  C_38
    7  A    between atoms: C_22  and  O_26
    8  A    between atoms: C_22  and  C_27
    9  A    between atoms: C_27  and  C_30
   10  A    between atoms: N_31  and  C_32
   11  A    between atoms: C_34  and  C_37
                            x       y       z     vdW  Elec       q    Type
                         _______ _______ _______ _____ _____    ______ ____

>  <TORSDO>
F 11

$$$$
=
 OpenBabel11072409143D

 39 43  0  0  1  0  0  0  0  0999 V2000
  196.2770  174.1690  145.4650 C   0  0  1  0  0  3  0  0  0  0  0  0
  195.6470  175.4510  145.1720 N   0  0  0  0  0  2  0  0  0  0  0  0
  193.2730  175.0910  145.5760 C   0  0  0  0  0  0  0  0  0  0  0  0
  194.2090  172.7590  145.6610 C   0  0  2  0  0  3  0  0  0  0  0  0
  193.1380  173.7720  145.3580 C   0  0  0  0  0  3  0  0  0  0  0  0
  195.4740  173.0250  144.8530 C   0  0  0  0  0  2  0  0  0  0  0  0
  197.6190  174.1600  144.9120 N   0  0  0  0  0  1  0  0  0  0  0  0
  194.5670  175.6560  146.1290 C   0  0  2  0  0  3  0  0  0  0  0  0
  194.4750  177.1330  146.4770 C   0  0  0  0  0  1  0  0  0  0  0  0
  192.1060  175.9770  145.2450 C   0  0  0  0  0  2  0  0  0  0  0  0
  192.9920  176.3240  142.9220 C   0  0  0  0  0  1  0  0  0  0  0  0
  191.7830  175.9290  143.7550 C   0  0  2  0  0  3  0  0  0  0  0  0
  190.7810  178.1320  143.4680 C   0  0  0  0  0  2  0  0  0  0  0  0
  190.6120  176.8100  143.4430 C   0  0  0  0  0  0  0  0  0  0  0  0
  189.3420  176.2240  142.8890 C   0  0  0  0  0  2  0  0  0  0  0  0
  188.1840  176.4540  143.8080 C   0  0  0  0  0  0  0  0  0  0  0  0
  185.9110  177.1420  144.2160 C   0  0  0  0  0  0  0  0  0  0  0  0
  187.2450  176.4220  146.0330 N   0  0  0  0  0  0  0  0  0  0  0  0
  187.2910  177.2530  140.8780 C   0  0  0  0  0  1  0  0  0  0  0  0
  188.3020  176.1990  145.1910 C   0  0  0  0  0  3  0  0  0  0  0  0
  185.2590  177.6820  142.2650 C   0  0  0  0  0  3  0  0  0  0  0  0
  184.8360  177.6120  143.5590 N   0  0  0  0  0  0  0  0  0  0  0  0
  186.9460  176.9310  143.3590 C   0  0  0  0  0  0  0  0  0  0  0  0
  186.5380  177.2630  142.1210 N   0  0  0  0  0  0  0  0  0  0  0  0
  186.0430  176.8950  145.5800 C   0  0  0  0  0  0  0  0  0  0  0  0
  184.7860  178.3790  147.0860 C   0  0  0  0  0  1  0  0  0  0  0  0
  184.9760  177.1250  146.4480 O   0  0  0  0  0  0  0  0  0  0  0  0
  193.7300  171.4850  145.3600 O   0  0  0  0  0  0  0  0  0  0  0  0
  194.3750  171.1290  144.1720 C   0  0  0  0  0  2  0  0  0  0  0  0
  193.4290  170.3300  143.2900 C   0  0  0  0  0  2  0  0  0  0  0  0
  191.3450  170.3440  141.4460 P   0  0  2  0  0  0  0  0  0  0  0  0
  190.9920  168.7020  141.6410 O   0  0  0  0  0  1  0  0  0  0  0  0
  190.5550  171.0780  140.3850 O   0  0  0  0  0  0  0  0  0  0  0  0
  192.4530  171.2280  142.5350 C   0  0  1  0  0  0  0  0  0  0  0  0
  191.1340  171.1630  143.0650 N   0  0  1  0  0  0  0  0  0  0  0  0
  192.9590  172.5660  141.9860 C   0  0  0  0  0  1  0  0  0  0  0  0
  190.3530  172.3830  142.8600 C   0  0  0  0  0  3  0  0  0  0  0  0
  189.8060  172.8590  144.1930 C   0  0  0  0  0  2  0  0  0  0  0  0
  188.9050  172.1180  143.2290 C   0  0  0  0  0  2  0  0  0  0  0  0
  1  7  1  6  0  0  0
  2  1  1  0  0  0  0
  2  8  1  0  0  0  0
  3  8  1  0  0  0  0
  4 28  1  6  0  0  0
  5  3  2  0  0  0  0
  5  4  1  0  0  0  0
  6  1  1  0  0  0  0
  6  4  1  0  0  0  0
  8  9  1  6  0  0  0
 10  3  1  0  0  0  0
 12 11  1  6  0  0  0
 12 10  1  0  0  0  0
 14 13  2  0  0  0  0
 14 12  1  0  0  0  0
 15 14  1  0  0  0  0
 15 16  1  0  0  0  0
 16 20  2  0  0  0  0
 17 25  1  0  0  0  0
 19 24  1  0  0  0  0
 20 18  1  0  0  0  0
 21 22  2  0  0  0  0
 22 17  1  0  0  0  0
 23 16  1  0  0  0  0
 23 17  2  0  0  0  0
 24 21  1  0  0  0  0
 24 23  1  0  0  0  0
 25 18  2  0  0  0  0
 25 27  1  0  0  0  0
 27 26  1  0  0  0  0
 29 28  1  0  0  0  0
 30 29  1  0  0  0  0
 31 33  2  6  0  0  0
 31 32  1  0  0  0  0
 31 34  1  0  0  0  0
 31 35  1  0  0  0  0
 34 36  1  6  0  0  0
 34 35  1  0  0  0  0
 34 30  1  0  0  0  0
 35 37  1  6  0  0  0
 37 39  1  0  0  0  0
 37 38  1  0  0  0  0
 39 38  1  0  0  0  0
M  END
>  <MODEL>
3

>  <REMARK>
 VINA RESULT:      -7.0      1.897      2.960
  Name = 
  11 active torsions:
  status: ('A' for Active; 'I' for Inactive)
    1  A    between atoms: C_3  and  C_11
    2  A    between atoms: C_5  and  C_7
    3  A    between atoms: C_7  and  C_34
    4  A    between atoms: C_10  and  O_26
    5  A    between atoms: C_11  and  C_37
    6  A    between atoms: O_16  and  C_38
    7  A    between atoms: C_22  and  O_26
    8  A    between atoms: C_22  and  C_27
    9  A    between atoms: C_27  and  C_30
   10  A    between atoms: N_31  and  C_32
   11  A    between atoms: C_34  and  C_37
                            x       y       z     vdW  Elec       q    Type
                         _______ _______ _______ _____ _____    ______ ____

>  <TORSDO>
F 11

$$$$
=
 OpenBabel11072409143D

 39 43  0  0  1  0  0  0  0  0999 V2000
  191.1630  171.2350  142.4250 C   0  0  1  0  0  3  0  0  0  0  0  0
  189.9110  171.9350  142.6870 N   0  0  0  0  0  2  0  0  0  0  0  0
  190.5040  173.7290  144.2230 C   0  0  0  0  0  0  0  0  0  0  0  0
  192.5880  172.3230  144.1830 C   0  0  2  0  0  3  0  0  0  0  0  0
  191.5880  173.2330  144.8430 C   0  0  0  0  0  3  0  0  0  0  0  0
  191.9390  171.0220  143.7220 C   0  0  0  0  0  2  0  0  0  0  0  0
  190.8720  169.9440  141.8270 N   0  0  0  0  0  1  0  0  0  0  0  0
  190.1990  173.3600  142.7840 C   0  0  2  0  0  3  0  0  0  0  0  0
  189.0410  174.1500  142.1960 C   0  0  0  0  0  1  0  0  0  0  0  0
  189.6090  174.6450  145.0070 C   0  0  0  0  0  2  0  0  0  0  0  0
  188.9440  174.2750  147.3980 C   0  0  0  0  0  1  0  0  0  0  0  0
  190.0510  174.7360  146.4640 C   0  0  2  0  0  3  0  0  0  0  0  0
  191.1920  176.3350  147.9050 C   0  0  0  0  0  2  0  0  0  0  0  0
  190.4800  176.1320  146.7970 C   0  0  0  0  0  0  0  0  0  0  0  0
  190.3130  177.2410  145.7940 C   0  0  0  0  0  2  0  0  0  0  0  0
  188.8700  177.4940  145.4900 C   0  0  0  0  0  0  0  0  0  0  0  0
  187.0800  177.9310  143.9370 C   0  0  0  0  0  0  0  0  0  0  0  0
  186.5960  177.7930  146.2500 N   0  0  0  0  0  0  0  0  0  0  0  0
  190.4750  177.5400  142.7620 C   0  0  0  0  0  1  0  0  0  0  0  0
  187.9160  177.5490  146.5280 C   0  0  0  0  0  3  0  0  0  0  0  0
  188.1100  177.9610  142.0780 C   0  0  0  0  0  3  0  0  0  0  0  0
  186.8690  178.1030  142.6210 N   0  0  0  0  0  0  0  0  0  0  0  0
  188.3960  177.6930  144.1870 C   0  0  0  0  0  0  0  0  0  0  0  0
  189.0520  177.7030  143.0130 N   0  0  0  0  0  0  0  0  0  0  0  0
  186.1490  177.9920  144.9710 C   0  0  0  0  0  0  0  0  0  0  0  0
  184.0040  179.0390  145.5650 C   0  0  0  0  0  1  0  0  0  0  0  0
  184.8050  178.2470  144.7010 O   0  0  0  0  0  0  0  0  0  0  0  0
  193.6080  172.0330  145.0870 O   0  0  0  0  0  0  0  0  0  0  0  0
  194.7180  172.7400  144.6190 C   0  0  0  0  0  2  0  0  0  0  0  0
  194.8920  174.0200  145.4230 C   0  0  0  0  0  2  0  0  0  0  0  0
  196.4140  175.7760  143.8920 P   0  0  2  0  0  0  0  0  0  0  0  0
  197.7290  174.7210  143.7590 O   0  0  0  0  0  1  0  0  0  0  0  0
  196.5940  177.1520  143.2900 O   0  0  0  0  0  0  0  0  0  0  0  0
  194.8290  175.2630  144.5410 C   0  0  1  0  0  0  0  0  0  0  0  0
  194.9570  174.9560  143.1580 N   0  0  1  0  0  0  0  0  0  0  0  0
  193.9050  176.4130  144.9570 C   0  0  0  0  0  1  0  0  0  0  0  0
  194.2910  175.9140  142.2750 C   0  0  0  0  0  3  0  0  0  0  0  0
  193.1700  175.2150  141.5280 C   0  0  0  0  0  2  0  0  0  0  0  0
  194.4870  175.4860  140.8330 C   0  0  0  0  0  2  0  0  0  0  0  0
  1  7  1  1  0  0  0
  1  2  1  0  0  0  0
  1  6  1  0  0  0  0
  2  8  1  0  0  0  0
  3  5  2  0  0  0  0
  3 10  1  0  0  0  0
  4  5  1  0  0  0  0
  4 28  1  1  0  0  0
  6  4  1  0  0  0  0
  8  9  1  1  0  0  0
  8  3  1  0  0  0  0
 10 12  1  0  0  0  0
 12 14  1  0  0  0  0
 12 11  1  1  0  0  0
 14 13  2  0  0  0  0
 15 14  1  0  0  0  0
 16 15  1  0  0  0  0
 16 20  2  0  0  0  0
 17 23  2  0  0  0  0
 17 25  1  0  0  0  0
 18 20  1  0  0  0  0
 19 24  1  0  0  0  0
 21 22  2  0  0  0  0
 21 24  1  0  0  0  0
 22 17  1  0  0  0  0
 23 16  1  0  0  0  0
 24 23  1  0  0  0  0
 25 18  2  0  0  0  0
 27 25  1  0  0  0  0
 27 26  1  0  0  0  0
 29 28  1  0  0  0  0
 29 30  1  0  0  0  0
 31 33  2  6  0  0  0
 31 34  1  0  0  0  0
 32 31  1  0  0  0  0
 34 36  1  1  0  0  0
 34 30  1  0  0  0  0
 35 37  1  6  0  0  0
 35 31  1  0  0  0  0
 35 34  1  0  0  0  0
 38 37  1  0  0  0  0
 39 38  1  0  0  0  0
 39 37  1  0  0  0  0
M  END
>  <MODEL>
4

>  <REMARK>
 VINA RESULT:      -6.9      2.379      4.724
  Name = 
  11 active torsions:
  status: ('A' for Active; 'I' for Inactive)
    1  A    between atoms: C_3  and  C_11
    2  A    between atoms: C_5  and  C_7
    3  A    between atoms: C_7  and  C_34
    4  A    between atoms: C_10  and  O_26
    5  A    between atoms: C_11  and  C_37
    6  A    between atoms: O_16  and  C_38
    7  A    between atoms: C_22  and  O_26
    8  A    between atoms: C_22  and  C_27
    9  A    between atoms: C_27  and  C_30
   10  A    between atoms: N_31  and  C_32
   11  A    between atoms: C_34  and  C_37
                            x       y       z     vdW  Elec       q    Type
                         _______ _______ _______ _____ _____    ______ ____

>  <TORSDO>
F 11

$$$$
=
 OpenBabel11072409143D

 39 43  0  0  1  0  0  0  0  0999 V2000
  191.7710  173.9010  140.8730 C   0  0  1  0  0  3  0  0  0  0  0  0
  191.1660  173.1650  141.9780 N   0  0  0  0  0  2  0  0  0  0  0  0
  191.5370  174.5600  143.9390 C   0  0  0  0  0  0  0  0  0  0  0  0
  192.9800  175.6590  142.1980 C   0  0  2  0  0  3  0  0  0  0  0  0
  192.6450  175.2420  143.6040 C   0  0  0  0  0  3  0  0  0  0  0  0
  193.1350  174.4510  141.2800 C   0  0  0  0  0  2  0  0  0  0  0  0
  191.9350  173.0100  139.7390 N   0  0  0  0  0  1  0  0  0  0  0  0
  190.5440  174.1280  142.8780 C   0  0  2  0  0  3  0  0  0  0  0  0
  189.2720  173.5290  143.4560 C   0  0  0  0  0  1  0  0  0  0  0  0
  191.3290  174.2350  145.3910 C   0  0  0  0  0  2  0  0  0  0  0  0
  191.9310  175.3430  147.5610 C   0  0  0  0  0  1  0  0  0  0  0  0
  191.2150  175.5040  146.2290 C   0  0  2  0  0  3  0  0  0  0  0  0
  188.9500  174.9470  146.9330 C   0  0  0  0  0  2  0  0  0  0  0  0
  189.7780  175.8680  146.4400 C   0  0  0  0  0  0  0  0  0  0  0  0
  189.3270  177.2990  146.3190 C   0  0  0  0  0  2  0  0  0  0  0  0
  188.6760  177.5600  144.9980 C   0  0  0  0  0  0  0  0  0  0  0  0
  186.7290  178.0020  143.6490 C   0  0  0  0  0  0  0  0  0  0  0  0
  188.8430  177.8200  142.6020 N   0  0  0  0  0  0  0  0  0  0  0  0
  186.4260  177.5690  147.2240 C   0  0  0  0  0  1  0  0  0  0  0  0
  189.4420  177.5930  143.8130 C   0  0  0  0  0  3  0  0  0  0  0  0
  185.1820  178.0280  145.1080 C   0  0  0  0  0  3  0  0  0  0  0  0
  185.4000  178.1660  143.7700 N   0  0  0  0  0  0  0  0  0  0  0  0
  187.2990  177.7760  144.8630 C   0  0  0  0  0  0  0  0  0  0  0  0
  186.3260  177.7990  145.7920 N   0  0  0  0  0  0  0  0  0  0  0  0
  187.4940  178.0230  142.4870 C   0  0  0  0  0  0  0  0  0  0  0  0
  186.7460  177.2090  140.2890 C   0  0  0  0  0  1  0  0  0  0  0  0
  186.8940  178.2460  141.2470 O   0  0  0  0  0  0  0  0  0  0  0  0
  194.1700  176.3840  142.2070 O   0  0  0  0  0  0  0  0  0  0  0  0
  195.1690  175.4430  141.9450 C   0  0  0  0  0  2  0  0  0  0  0  0
  196.2560  175.5340  143.0040 C   0  0  0  0  0  2  0  0  0  0  0  0
  196.2620  174.1970  145.4450 P   0  0  2  0  0  0  0  0  0  0  0  0
  195.2960  175.3480  146.2220 O   0  0  0  0  0  0  0  0  0  0  0  0
  196.7890  173.0710  146.3070 O   0  0  0  0  0  1  0  0  0  0  0  0
  196.5170  174.1890  143.6750 C   0  0  1  0  0  0  0  0  0  0  0  0
  195.3140  173.5210  144.0390 N   0  0  1  0  0  0  0  0  0  0  0  0
  197.7100  173.3510  143.2040 C   0  0  0  0  0  1  0  0  0  0  0  0
  195.4330  172.0630  144.0690 C   0  0  0  0  0  3  0  0  0  0  0  0
  194.4780  171.4600  143.0550 C   0  0  0  0  0  2  0  0  0  0  0  0
  194.1170  171.4630  144.5250 C   0  0  0  0  0  2  0  0  0  0  0  0
  1  7  1  6  0  0  0
  1  6  1  0  0  0  0
  1  2  1  0  0  0  0
  2  8  1  0  0  0  0
  3 10  1  0  0  0  0
  4 28  1  1  0  0  0
  4  5  1  0  0  0  0
  5  3  2  0  0  0  0
  6  4  1  0  0  0  0
  8  9  1  1  0  0  0
  8  3  1  0  0  0  0
 10 12  1  0  0  0  0
 12 14  1  0  0  0  0
 12 11  1  1  0  0  0
 14 13  2  0  0  0  0
 15 14  1  0  0  0  0
 16 15  1  0  0  0  0
 17 22  1  0  0  0  0
 17 23  2  0  0  0  0
 18 20  1  0  0  0  0
 20 16  2  0  0  0  0
 21 24  1  0  0  0  0
 22 21  2  0  0  0  0
 23 16  1  0  0  0  0
 23 24  1  0  0  0  0
 24 19  1  0  0  0  0
 25 18  2  0  0  0  0
 25 17  1  0  0  0  0
 26 27  1  0  0  0  0
 27 25  1  0  0  0  0
 29 28  1  0  0  0  0
 29 30  1  0  0  0  0
 30 34  1  0  0  0  0
 31 32  2  1  0  0  0
 31 33  1  0  0  0  0
 34 36  1  6  0  0  0
 34 35  1  0  0  0  0
 34 31  1  0  0  0  0
 35 37  1  1  0  0  0
 35 31  1  0  0  0  0
 37 39  1  0  0  0  0
 38 37  1  0  0  0  0
 38 39  1  0  0  0  0
M  END
>  <MODEL>
5

>  <REMARK>
 VINA RESULT:      -6.9      2.580      4.339
  Name = 
  11 active torsions:
  status: ('A' for Active; 'I' for Inactive)
    1  A    between atoms: C_3  and  C_11
    2  A    between atoms: C_5  and  C_7
    3  A    between atoms: C_7  and  C_34
    4  A    between atoms: C_10  and  O_26
    5  A    between atoms: C_11  and  C_37
    6  A    between atoms: O_16  and  C_38
    7  A    between atoms: C_22  and  O_26
    8  A    between atoms: C_22  and  C_27
    9  A    between atoms: C_27  and  C_30
   10  A    between atoms: N_31  and  C_32
   11  A    between atoms: C_34  and  C_37
                            x       y       z     vdW  Elec       q    Type
                         _______ _______ _______ _____ _____    ______ ____

>  <TORSDO>
F 11

$$$$
=
 OpenBabel11072409143D

 39 43  0  0  1  0  0  0  0  0999 V2000
  190.7860  171.5880  141.3870 C   0  0  1  0  0  3  0  0  0  0  0  0
  189.5840  172.3810  141.6170 N   0  0  0  0  0  2  0  0  0  0  0  0
  190.0530  173.6640  143.6330 C   0  0  0  0  0  0  0  0  0  0  0  0
  191.9560  172.0220  143.5670 C   0  0  2  0  0  3  0  0  0  0  0  0
  190.9460  172.8870  144.2700 C   0  0  0  0  0  3  0  0  0  0  0  0
  191.2790  170.9710  142.6930 C   0  0  0  0  0  2  0  0  0  0  0  0
  190.4860  170.5280  140.4420 N   0  0  0  0  0  1  0  0  0  0  0  0
  189.9900  173.6880  142.1180 C   0  0  2  0  0  3  0  0  0  0  0  0
  189.0480  174.7500  141.5750 C   0  0  0  0  0  1  0  0  0  0  0  0
  189.1220  174.4910  144.4730 C   0  0  0  0  0  2  0  0  0  0  0  0
  189.3920  174.8160  146.9470 C   0  0  0  0  0  1  0  0  0  0  0  0
  189.8800  175.2330  145.5680 C   0  0  2  0  0  3  0  0  0  0  0  0
  190.5780  177.3310  144.5420 C   0  0  0  0  0  2  0  0  0  0  0  0
  189.7500  176.7150  145.3860 C   0  0  0  0  0  0  0  0  0  0  0  0
  188.5720  177.4530  145.9600 C   0  0  0  0  0  2  0  0  0  0  0  0
  187.5580  177.7720  144.9070 C   0  0  0  0  0  0  0  0  0  0  0  0
  185.3380  178.4290  144.2370 C   0  0  0  0  0  0  0  0  0  0  0  0
  186.9600  177.9750  142.5750 N   0  0  0  0  0  0  0  0  0  0  0  0
  186.1740  178.0890  147.7360 C   0  0  0  0  0  1  0  0  0  0  0  0
  187.8930  177.6950  143.5390 C   0  0  0  0  0  3  0  0  0  0  0  0
  184.3660  178.6650  146.1130 C   0  0  0  0  0  3  0  0  0  0  0  0
  184.1480  178.7550  144.7710 N   0  0  0  0  0  0  0  0  0  0  0  0
  186.2450  178.1530  145.2130 C   0  0  0  0  0  0  0  0  0  0  0  0
  185.6380  178.3080  146.4040 N   0  0  0  0  0  0  0  0  0  0  0  0
  185.6790  178.3390  142.8910 C   0  0  0  0  0  0  0  0  0  0  0  0
  184.9630  178.2900  140.5370 C   0  0  0  0  0  1  0  0  0  0  0  0
  184.7350  178.6150  141.9000 O   0  0  0  0  0  0  0  0  0  0  0  0
  192.7520  171.3850  144.5170 O   0  0  0  0  0  0  0  0  0  0  0  0
  193.4440  172.4170  145.1580 C   0  0  0  0  0  2  0  0  0  0  0  0
  194.8970  172.4210  144.7100 C   0  0  0  0  0  2  0  0  0  0  0  0
  196.0070  174.7020  143.5670 P   0  0  2  0  0  0  0  0  0  0  0  0
  195.2330  174.4880  142.0790 O   0  0  0  0  0  0  0  0  0  0  0  0
  196.9800  175.8580  143.6570 O   0  0  0  0  0  1  0  0  0  0  0  0
  195.5890  173.7450  145.0180 C   0  0  1  0  0  0  0  0  0  0  0  0
  194.7220  174.8620  144.8540 N   0  0  1  0  0  0  0  0  0  0  0  0
  196.6360  173.7850  146.1360 C   0  0  0  0  0  1  0  0  0  0  0  0
  195.0640  176.0050  145.7000 C   0  0  0  0  0  3  0  0  0  0  0  0
  193.8950  176.3200  146.6160 C   0  0  0  0  0  2  0  0  0  0  0  0
  194.1340  177.1600  145.3800 C   0  0  0  0  0  2  0  0  0  0  0  0
  1  7  1  6  0  0  0
  1  2  1  0  0  0  0
  1  6  1  0  0  0  0
  2  8  1  0  0  0  0
  3  5  2  0  0  0  0
  3 10  1  0  0  0  0
  4  5  1  0  0  0  0
  4 28  1  1  0  0  0
  6  4  1  0  0  0  0
  8  9  1  1  0  0  0
  8  3  1  0  0  0  0
 10 12  1  0  0  0  0
 12 11  1  1  0  0  0
 13 14  2  0  0  0  0
 14 12  1  0  0  0  0
 14 15  1  0  0  0  0
 16 23  1  0  0  0  0
 16 15  1  0  0  0  0
 17 22  1  0  0  0  0
 17 23  2  0  0  0  0
 18 25  2  0  0  0  0
 18 20  1  0  0  0  0
 20 16  2  0  0  0  0
 21 24  1  0  0  0  0
 22 21  2  0  0  0  0
 23 24  1  0  0  0  0
 24 19  1  0  0  0  0
 25 17  1  0  0  0  0
 26 27  1  0  0  0  0
 27 25  1  0  0  0  0
 28 29  1  0  0  0  0
 30 34  1  0  0  0  0
 30 29  1  0  0  0  0
 31 32  2  6  0  0  0
 31 33  1  0  0  0  0
 31 35  1  0  0  0  0
 31 34  1  0  0  0  0
 34 36  1  1  0  0  0
 35 34  1  0  0  0  0
 35 37  1  1  0  0  0
 37 38  1  0  0  0  0
 39 37  1  0  0  0  0
 39 38  1  0  0  0  0
M  END
>  <MODEL>
6

>  <REMARK>
 VINA RESULT:      -6.9      2.012      4.440
  Name = 
  11 active torsions:
  status: ('A' for Active; 'I' for Inactive)
    1  A    between atoms: C_3  and  C_11
    2  A    between atoms: C_5  and  C_7
    3  A    between atoms: C_7  and  C_34
    4  A    between atoms: C_10  and  O_26
    5  A    between atoms: C_11  and  C_37
    6  A    between atoms: O_16  and  C_38
    7  A    between atoms: C_22  and  O_26
    8  A    between atoms: C_22  and  C_27
    9  A    between atoms: C_27  and  C_30
   10  A    between atoms: N_31  and  C_32
   11  A    between atoms: C_34  and  C_37
                            x       y       z     vdW  Elec       q    Type
                         _______ _______ _______ _____ _____    ______ ____

>  <TORSDO>
F 11

$$$$
=
 OpenBabel11072409143D

 39 43  0  0  1  0  0  0  0  0999 V2000
  189.5780  173.3140  139.6690 C   0  0  1  0  0  3  0  0  0  0  0  0
  188.7210  173.0790  140.8250 N   0  0  0  0  0  2  0  0  0  0  0  0
  189.9000  174.0940  142.6980 C   0  0  0  0  0  0  0  0  0  0  0  0
  191.6240  174.1420  140.8680 C   0  0  2  0  0  3  0  0  0  0  0  0
  191.1820  174.0300  142.3020 C   0  0  0  0  0  3  0  0  0  0  0  0
  191.0360  173.0230  140.0150 C   0  0  0  0  0  2  0  0  0  0  0  0
  189.1630  172.4450  138.5820 N   0  0  0  0  0  1  0  0  0  0  0  0
  188.7850  174.2550  141.6840 C   0  0  2  0  0  3  0  0  0  0  0  0
  187.4240  174.4870  142.3220 C   0  0  0  0  0  1  0  0  0  0  0  0
  189.6170  173.9900  144.1700 C   0  0  0  0  0  2  0  0  0  0  0  0
  191.6970  173.7790  145.5580 C   0  0  0  0  0  1  0  0  0  0  0  0
  190.6650  174.7380  144.9870 C   0  0  2  0  0  3  0  0  0  0  0  0
  189.8660  174.9610  147.2790 C   0  0  0  0  0  2  0  0  0  0  0  0
  190.0130  175.5270  146.0810 C   0  0  0  0  0  0  0  0  0  0  0  0
  189.7400  176.9960  145.9040 C   0  0  0  0  0  2  0  0  0  0  0  0
  188.4130  177.2340  145.2550 C   0  0  0  0  0  0  0  0  0  0  0  0
  187.0690  177.8590  143.3550 C   0  0  0  0  0  0  0  0  0  0  0  0
  186.0020  177.2900  145.3900 N   0  0  0  0  0  0  0  0  0  0  0  0
  190.6750  177.8370  143.1240 C   0  0  0  0  0  1  0  0  0  0  0  0
  187.2160  177.0600  145.9810 C   0  0  0  0  0  3  0  0  0  0  0  0
  188.5490  178.2670  141.8850 C   0  0  0  0  0  3  0  0  0  0  0  0
  187.2010  178.2530  142.0770 N   0  0  0  0  0  0  0  0  0  0  0  0
  188.2870  177.6400  143.9200 C   0  0  0  0  0  0  0  0  0  0  0  0
  189.2280  177.8880  142.9920 N   0  0  0  0  0  0  0  0  0  0  0  0
  185.8950  177.6930  144.0850 C   0  0  0  0  0  0  0  0  0  0  0  0
  183.8480  179.0400  143.8670 C   0  0  0  0  0  1  0  0  0  0  0  0
  184.6530  177.9320  143.4960 O   0  0  0  0  0  0  0  0  0  0  0  0
  193.0150  174.0800  140.8120 O   0  0  0  0  0  0  0  0  0  0  0  0
  193.4400  174.3190  142.1220 C   0  0  0  0  0  2  0  0  0  0  0  0
  194.8730  173.8410  142.2950 C   0  0  0  0  0  2  0  0  0  0  0  0
  196.1370  176.3080  142.5310 P   0  0  2  0  0  0  0  0  0  0  0  0
  195.3300  176.9910  141.2110 O   0  0  0  0  0  0  0  0  0  0  0  0
  197.1950  177.1680  143.1880 O   0  0  0  0  0  1  0  0  0  0  0  0
  195.6660  174.7360  143.2420 C   0  0  1  0  0  0  0  0  0  0  0  0
  194.8840  175.8060  143.7610 N   0  0  1  0  0  0  0  0  0  0  0  0
  196.7280  174.0980  144.1440 C   0  0  0  0  0  1  0  0  0  0  0  0
  195.3210  176.2760  145.0750 C   0  0  0  0  0  3  0  0  0  0  0  0
  194.4020  175.7100  146.1420 C   0  0  0  0  0  2  0  0  0  0  0  0
  194.2350  177.1420  145.6840 C   0  0  0  0  0  2  0  0  0  0  0  0
  1  7  1  6  0  0  0
  1  6  1  0  0  0  0
  1  2  1  0  0  0  0
  2  8  1  0  0  0  0
  3 10  1  0  0  0  0
  4 28  1  1  0  0  0
  4  5  1  0  0  0  0
  5  3  2  0  0  0  0
  6  4  1  0  0  0  0
  8  9  1  1  0  0  0
  8  3  1  0  0  0  0
 10 12  1  0  0  0  0
 12 11  1  1  0  0  0
 12 14  1  0  0  0  0
 14 13  2  0  0  0  0
 15 14  1  0  0  0  0
 16 15  1  0  0  0  0
 16 20  2  0  0  0  0
 17 23  2  0  0  0  0
 17 25  1  0  0  0  0
 18 20  1  0  0  0  0
 21 22  2  0  0  0  0
 21 24  1  0  0  0  0
 22 17  1  0  0  0  0
 23 16  1  0  0  0  0
 24 19  1  0  0  0  0
 24 23  1  0  0  0  0
 25 18  2  0  0  0  0
 27 26  1  0  0  0  0
 27 25  1  0  0  0  0
 28 29  1  0  0  0  0
 29 30  1  0  0  0  0
 30 34  1  0  0  0  0
 31 32  2  6  0  0  0
 31 33  1  0  0  0  0
 31 34  1  0  0  0  0
 31 35  1  0  0  0  0
 34 35  1  0  0  0  0
 34 36  1  1  0  0  0
 35 37  1  1  0  0  0
 37 39  1  0  0  0  0
 37 38  1  0  0  0  0
 39 38  1  0  0  0  0
M  END
>  <MODEL>
7

>  <REMARK>
 VINA RESULT:      -6.8      2.740      5.320
  Name = 
  11 active torsions:
  status: ('A' for Active; 'I' for Inactive)
    1  A    between atoms: C_3  and  C_11
    2  A    between atoms: C_5  and  C_7
    3  A    between atoms: C_7  and  C_34
    4  A    between atoms: C_10  and  O_26
    5  A    between atoms: C_11  and  C_37
    6  A    between atoms: O_16  and  C_38
    7  A    between atoms: C_22  and  O_26
    8  A    between atoms: C_22  and  C_27
    9  A    between atoms: C_27  and  C_30
   10  A    between atoms: N_31  and  C_32
   11  A    between atoms: C_34  and  C_37
                            x       y       z     vdW  Elec       q    Type
                         _______ _______ _______ _____ _____    ______ ____

>  <TORSDO>
F 11

$$$$
=
 OpenBabel11072409143D

 39 43  0  0  1  0  0  0  0  0999 V2000
  186.5980  178.5620  147.9300 C   0  0  1  0  0  3  0  0  0  0  0  0
  185.8820  179.0920  146.7760 N   0  0  0  0  0  2  0  0  0  0  0  0
  185.7480  177.2320  145.2100 C   0  0  0  0  0  0  0  0  0  0  0  0
  187.3610  176.3830  146.9420 C   0  0  2  0  0  3  0  0  0  0  0  0
  186.8220  176.4970  145.5420 C   0  0  0  0  0  3  0  0  0  0  0  0
  187.8030  177.7390  147.4820 C   0  0  0  0  0  2  0  0  0  0  0  0
  187.0550  179.6640  148.7570 N   0  0  0  0  0  1  0  0  0  0  0  0
  185.0120  178.0430  146.2590 C   0  0  2  0  0  3  0  0  0  0  0  0
  183.7250  178.6650  145.7420 C   0  0  0  0  0  1  0  0  0  0  0  0
  185.3150  177.2280  143.7720 C   0  0  0  0  0  2  0  0  0  0  0  0
  186.3060  179.4400  143.1200 C   0  0  0  0  0  1  0  0  0  0  0  0
  186.3340  177.9370  142.8870 C   0  0  2  0  0  3  0  0  0  0  0  0
  184.8800  177.8560  140.9330 C   0  0  0  0  0  2  0  0  0  0  0  0
  186.0880  177.6200  141.4440 C   0  0  0  0  0  0  0  0  0  0  0  0
  187.2330  177.2630  140.5360 C   0  0  0  0  0  2  0  0  0  0  0  0
  187.8180  175.9310  140.8860 C   0  0  0  0  0  0  0  0  0  0  0  0
  188.5580  173.7190  140.2800 C   0  0  0  0  0  0  0  0  0  0  0  0
  188.6980  174.4060  142.5400 N   0  0  0  0  0  0  0  0  0  0  0  0
  187.2010  175.9500  137.7820 C   0  0  0  0  0  1  0  0  0  0  0  0
  188.1750  175.6300  142.2180 C   0  0  0  0  0  3  0  0  0  0  0  0
  188.1720  173.6850  138.1890 C   0  0  0  0  0  3  0  0  0  0  0  0
  188.6590  172.9180  139.2050 N   0  0  0  0  0  0  0  0  0  0  0  0
  188.0340  174.9260  139.9340 C   0  0  0  0  0  0  0  0  0  0  0  0
  187.7950  174.9140  138.6110 N   0  0  0  0  0  0  0  0  0  0  0  0
  188.8980  173.4320  141.5990 C   0  0  0  0  0  0  0  0  0  0  0  0
  190.8150  171.9110  141.8540 C   0  0  0  0  0  1  0  0  0  0  0  0
  189.4250  172.1860  141.9400 O   0  0  0  0  0  0  0  0  0  0  0  0
  188.4490  175.5120  146.9440 O   0  0  0  0  0  0  0  0  0  0  0  0
  189.5740  176.3390  147.0100 C   0  0  0  0  0  2  0  0  0  0  0  0
  190.8010  175.5140  147.3670 C   0  0  0  0  0  2  0  0  0  0  0  0
  191.8480  174.1300  145.1920 P   0  0  2  0  0  0  0  0  0  0  0  0
  190.4920  173.1350  145.0110 O   0  0  0  0  0  1  0  0  0  0  0  0
  193.0180  173.8420  144.2770 O   0  0  0  0  0  0  0  0  0  0  0  0
  191.8590  175.5570  146.2690 C   0  0  1  0  0  0  0  0  0  0  0  0
  191.3070  175.8620  144.9930 N   0  0  1  0  0  0  0  0  0  0  0  0
  193.2550  176.0890  146.6120 C   0  0  0  0  0  1  0  0  0  0  0  0
  192.2420  176.5300  144.0880 C   0  0  0  0  0  3  0  0  0  0  0  0
  191.7230  177.9200  143.7650 C   0  0  0  0  0  2  0  0  0  0  0  0
  191.5520  176.7980  142.7640 C   0  0  0  0  0  2  0  0  0  0  0  0
  1  7  1  1  0  0  0
  2  1  1  0  0  0  0
  3  5  2  0  0  0  0
  3  8  1  0  0  0  0
  4 28  1  6  0  0  0
  4  6  1  0  0  0  0
  5  4  1  0  0  0  0
  6  1  1  0  0  0  0
  8  9  1  6  0  0  0
  8  2  1  0  0  0  0
 10  3  1  0  0  0  0
 12 11  1  6  0  0  0
 12 10  1  0  0  0  0
 13 14  2  0  0  0  0
 14 12  1  0  0  0  0
 15 16  1  0  0  0  0
 15 14  1  0  0  0  0
 16 20  2  0  0  0  0
 17 25  1  0  0  0  0
 19 24  1  0  0  0  0
 20 18  1  0  0  0  0
 21 24  1  0  0  0  0
 21 22  2  0  0  0  0
 22 17  1  0  0  0  0
 23 17  2  0  0  0  0
 23 16  1  0  0  0  0
 24 23  1  0  0  0  0
 25 27  1  0  0  0  0
 25 18  2  0  0  0  0
 26 27  1  0  0  0  0
 28 29  1  0  0  0  0
 29 30  1  0  0  0  0
 31 33  2  6  0  0  0
 31 34  1  0  0  0  0
 32 31  1  0  0  0  0
 34 36  1  1  0  0  0
 34 30  1  0  0  0  0
 35 37  1  6  0  0  0
 35 31  1  0  0  0  0
 35 34  1  0  0  0  0
 38 37  1  0  0  0  0
 39 38  1  0  0  0  0
 39 37  1  0  0  0  0
M  END
>  <MODEL>
8

>  <REMARK>
 VINA RESULT:      -6.8      2.451      7.222
  Name = 
  11 active torsions:
  status: ('A' for Active; 'I' for Inactive)
    1  A    between atoms: C_3  and  C_11
    2  A    between atoms: C_5  and  C_7
    3  A    between atoms: C_7  and  C_34
    4  A    between atoms: C_10  and  O_26
    5  A    between atoms: C_11  and  C_37
    6  A    between atoms: O_16  and  C_38
    7  A    between atoms: C_22  and  O_26
    8  A    between atoms: C_22  and  C_27
    9  A    between atoms: C_27  and  C_30
   10  A    between atoms: N_31  and  C_32
   11  A    between atoms: C_34  and  C_37
                            x       y       z     vdW  Elec       q    Type
                         _______ _______ _______ _____ _____    ______ ____

>  <TORSDO>
F 11

$$$$
=
 OpenBabel11072409143D

 39 43  0  0  1  0  0  0  0  0999 V2000
  190.9150  175.0390  146.5320 C   0  0  1  0  0  3  0  0  0  0  0  0
  189.8630  174.2780  145.8680 N   0  0  0  0  0  2  0  0  0  0  0  0
  190.6240  174.0310  143.5680 C   0  0  0  0  0  0  0  0  0  0  0  0
  192.2420  175.7100  144.5080 C   0  0  2  0  0  3  0  0  0  0  0  0
  191.4130  175.1060  143.4070 C   0  0  0  0  0  3  0  0  0  0  0  0
  191.3670  176.2040  145.6570 C   0  0  0  0  0  2  0  0  0  0  0  0
  190.4070  175.5570  147.7900 N   0  0  0  0  0  1  0  0  0  0  0  0
  190.4920  173.3640  144.9230 C   0  0  2  0  0  3  0  0  0  0  0  0
  189.7020  172.0650  144.8770 C   0  0  0  0  0  1  0  0  0  0  0  0
  189.8750  173.5280  142.3670 C   0  0  0  0  0  2  0  0  0  0  0  0
  187.4370  173.0500  142.0120 C   0  0  0  0  0  1  0  0  0  0  0  0
  188.4730  174.1250  142.3010 C   0  0  2  0  0  3  0  0  0  0  0  0
  188.1810  174.8790  140.0020 C   0  0  0  0  0  2  0  0  0  0  0  0
  188.4120  175.2120  141.2720 C   0  0  0  0  0  0  0  0  0  0  0  0
  188.3800  176.6570  141.6900 C   0  0  0  0  0  2  0  0  0  0  0  0
  187.4270  176.8810  142.8210 C   0  0  0  0  0  0  0  0  0  0  0  0
  185.2930  177.5990  143.6790 C   0  0  0  0  0  0  0  0  0  0  0  0
  186.9340  176.7980  145.1850 N   0  0  0  0  0  0  0  0  0  0  0  0
  186.0070  177.7870  140.1420 C   0  0  0  0  0  1  0  0  0  0  0  0
  187.8030  176.5810  144.1480 C   0  0  0  0  0  3  0  0  0  0  0  0
  184.2910  178.2120  141.9070 C   0  0  0  0  0  3  0  0  0  0  0  0
  184.1240  178.1100  143.2550 N   0  0  0  0  0  0  0  0  0  0  0  0
  186.1380  177.3950  142.6330 C   0  0  0  0  0  0  0  0  0  0  0  0
  185.5070  177.7730  141.5070 N   0  0  0  0  0  0  0  0  0  0  0  0
  185.6790  177.3080  144.9850 C   0  0  0  0  0  0  0  0  0  0  0  0
  185.0610  178.5250  147.0320 C   0  0  0  0  0  1  0  0  0  0  0  0
  184.8060  177.5320  146.0490 O   0  0  0  0  0  0  0  0  0  0  0  0
  192.9740  176.7790  143.9960 O   0  0  0  0  0  0  0  0  0  0  0  0
  194.3110  176.3860  144.1040 C   0  0  0  0  0  2  0  0  0  0  0  0
  194.8260  175.9320  142.7470 C   0  0  0  0  0  2  0  0  0  0  0  0
  196.8160  173.9950  142.9270 P   0  0  2  0  0  0  0  0  0  0  0  0
  197.9320  175.0290  143.6660 O   0  0  0  0  0  1  0  0  0  0  0  0
  197.3110  172.6060  142.5860 O   0  0  0  0  0  0  0  0  0  0  0  0
  195.0960  174.4310  142.7100 C   0  0  1  0  0  0  0  0  0  0  0  0
  195.3450  173.8910  144.0030 N   0  0  1  0  0  0  0  0  0  0  0  0
  194.3420  173.5720  141.6880 C   0  0  0  0  0  1  0  0  0  0  0  0
  194.9770  172.4810  144.1370 C   0  0  0  0  0  3  0  0  0  0  0  0
  193.9120  172.3390  145.2090 C   0  0  0  0  0  2  0  0  0  0  0  0
  195.3520  171.9960  145.5240 C   0  0  0  0  0  2  0  0  0  0  0  0
  1  7  1  1  0  0  0
  2  1  1  0  0  0  0
  3  8  1  0  0  0  0
  4 28  1  6  0  0  0
  4  6  1  0  0  0  0
  5  3  2  0  0  0  0
  5  4  1  0  0  0  0
  6  1  1  0  0  0  0
  8  9  1  6  0  0  0
  8  2  1  0  0  0  0
 10  3  1  0  0  0  0
 12 11  1  6  0  0  0
 12 10  1  0  0  0  0
 13 14  2  0  0  0  0
 14 15  1  0  0  0  0
 14 12  1  0  0  0  0
 15 16  1  0  0  0  0
 16 20  2  0  0  0  0
 17 25  1  0  0  0  0
 19 24  1  0  0  0  0
 20 18  1  0  0  0  0
 21 22  2  0  0  0  0
 22 17  1  0  0  0  0
 23 16  1  0  0  0  0
 23 17  2  0  0  0  0
 24 21  1  0  0  0  0
 24 23  1  0  0  0  0
 25 18  2  0  0  0  0
 25 27  1  0  0  0  0
 27 26  1  0  0  0  0
 28 29  1  0  0  0  0
 30 29  1  0  0  0  0
 31 33  2  6  0  0  0
 31 32  1  0  0  0  0
 31 35  1  0  0  0  0
 34 36  1  6  0  0  0
 34 30  1  0  0  0  0
 34 31  1  0  0  0  0
 34 35  1  0  0  0  0
 35 37  1  6  0  0  0
 37 38  1  0  0  0  0
 37 39  1  0  0  0  0
 38 39  1  0  0  0  0
M  END
>  <MODEL>
9

>  <REMARK>
 VINA RESULT:      -6.6      2.784      5.229
  Name = 
  11 active torsions:
  status: ('A' for Active; 'I' for Inactive)
    1  A    between atoms: C_3  and  C_11
    2  A    between atoms: C_5  and  C_7
    3  A    between atoms: C_7  and  C_34
    4  A    between atoms: C_10  and  O_26
    5  A    between atoms: C_11  and  C_37
    6  A    between atoms: O_16  and  C_38
    7  A    between atoms: C_22  and  O_26
    8  A    between atoms: C_22  and  C_27
    9  A    between atoms: C_27  and  C_30
   10  A    between atoms: N_31  and  C_32
   11  A    between atoms: C_34  and  C_37
                            x       y       z     vdW  Elec       q    Type
                         _______ _______ _______ _____ _____    ______ ____

>  <TORSDO>
F 11

$$$$
