=
 OpenBabel11072408243D

 34 36  0  0  1  0  0  0  0  0999 V2000
  189.9250  175.3130  142.5160 C   0  0  2  0  0  3  0  0  0  0  0  0
  187.8320  173.3730  141.9530 C   0  0  0  0  0  3  0  0  0  0  0  0
  190.4740  174.1380  143.3000 C   0  0  2  0  0  3  0  0  0  0  0  0
  191.2200  175.4590  143.2700 C   0  0  1  0  0  3  0  0  0  0  0  0
  188.5540  175.3990  143.1420 C   0  0  2  0  0  3  0  0  0  0  0  0
  187.6530  174.6100  142.3160 N   0  0  0  0  0  0  0  0  0  0  0  0
  190.3900  173.0750  142.2280 C   0  0  2  0  0  3  0  0  0  0  0  0
  188.9850  172.4610  142.3580 C   0  0  0  0  0  2  0  0  0  0  0  0
  190.9620  170.7320  142.1830 O   0  0  0  0  0  1  0  0  0  0  0  0
  191.4650  172.0130  142.4280 C   0  0  0  0  0  2  0  0  0  0  0  0
  188.0640  176.8500  143.2100 C   0  0  2  0  0  3  0  0  0  0  0  0
  188.0780  178.1760  141.4300 C   0  0  0  0  0  1  0  0  0  0  0  0
  188.8930  177.6900  142.4550 O   0  0  0  0  0  0  0  0  0  0  0  0
  187.9720  177.3380  144.6640 C   0  0  1  0  0  3  0  0  0  0  0  0
  186.5990  177.8250  145.0420 C   0  0  0  0  0  0  0  0  0  0  0  0
  184.0520  178.7090  145.8060 C   0  0  0  0  0  3  0  0  0  0  0  0
  184.6080  177.5740  146.4040 C   0  0  0  0  0  3  0  0  0  0  0  0
  185.8790  177.1350  146.0230 C   0  0  0  0  0  3  0  0  0  0  0  0
  184.7680  179.4050  144.8270 C   0  0  0  0  0  3  0  0  0  0  0  0
  186.0390  178.9660  144.4470 C   0  0  0  0  0  3  0  0  0  0  0  0
  188.4990  176.2850  145.6320 C   0  0  0  0  0  2  0  0  0  0  0  0
  190.5550  176.1260  147.0770 C   0  0  0  0  0  0  0  0  0  0  0  0
  191.4790  176.7550  147.9560 N   0  0  0  0  0  1  0  0  0  0  0  0
  189.4720  176.8790  146.5340 N   0  0  0  0  0  2  0  0  0  0  0  0
  190.7000  174.9090  146.7860 O   0  0  0  0  0  0  0  0  0  0  0  0
  192.3930  175.4020  142.3060 C   0  0  0  0  0  2  0  0  0  0  0  0
  193.6520  175.9200  142.9780 C   0  0  0  0  0  2  0  0  0  0  0  0
  194.5680  174.7660  143.3430 C   0  0  0  0  0  2  0  0  0  0  0  0
  195.7540  175.2740  144.1670 C   0  0  2  0  0  3  0  0  0  0  0  0
  195.4400  173.4400  145.7180 O   0  0  0  0  0  1  0  0  0  0  0  0
  194.7770  175.5320  146.3480 O   0  0  0  0  0  1  0  0  0  0  0  0
  195.7240  174.8040  145.6260 C   0  0  0  0  0  3  0  0  0  0  0  0
  197.1360  176.8030  143.1420 C   0  0  0  0  0  1  0  0  0  0  0  0
  196.0360  176.6510  144.0010 O   0  0  0  0  0  0  0  0  0  0  0  0
  1  5  1  0  0  0  0
  1  4  1  0  0  0  0
  1  3  1  0  0  0  0
  2  6  2  0  0  0  0
  2  8  1  0  0  0  0
  4  3  1  0  0  0  0
  5 11  1  0  0  0  0
  6  5  1  0  0  0  0
  7  8  1  0  0  0  0
  7 10  1  0  0  0  0
  7  3  1  0  0  0  0
  9 10  1  0  0  0  0
 11 14  1  0  0  0  0
 12 13  1  0  0  0  0
 13 11  1  0  0  0  0
 14 15  1  0  0  0  0
 14 21  1  0  0  0  0
 15 18  1  0  0  0  0
 16 17  1  0  0  0  0
 18 17  2  0  0  0  0
 19 16  2  0  0  0  0
 20 19  1  0  0  0  0
 20 15  2  0  0  0  0
 21 24  1  0  0  0  0
 22 23  1  0  0  0  0
 24 22  1  0  0  0  0
 25 22  2  0  0  0  0
 26 27  1  0  0  0  0
 26  4  1  0  0  0  0
 27 28  1  0  0  0  0
 28 29  1  0  0  0  0
 29 32  1  0  0  0  0
 32 30  1  0  0  0  0
 32 31  1  0  0  0  0
 33 34  1  0  0  0  0
 34 29  1  0  0  0  0
M  END
>  <MODEL>
1

>  <REMARK>
 VINA RESULT:      -6.5      0.000      0.000
  Name = 
  13 active torsions:
  status: ('A' for Active; 'I' for Inactive)
    1  A    between atoms: C_4  and  C_26
    2  A    between atoms: C_7  and  C_17
    3  A    between atoms: C_7  and  C_27
    4  A    between atoms: C_10  and  N_14
    5  A    between atoms: C_10  and  C_26
    6  A    between atoms: C_11  and  C_27
    7  A    between atoms: C_12  and  C_15
    8  A    between atoms: C_15  and  C_26
    9  A    between atoms: C_15  and  O_30
   10  A    between atoms: C_17  and  C_19
   11  A    between atoms: C_19  and  O_31
   12  A    between atoms: C_19  and  C_34
   13  A    between atoms: C_28  and  C_29
                            x       y       z     vdW  Elec       q    Type
                         _______ _______ _______ _____ _____    ______ ____

>  <TORSDO>
F 13

$$$$
=
 OpenBabel11072408243D

 34 36  0  0  1  0  0  0  0  0999 V2000
  191.1860  174.9700  144.6110 C   0  0  2  0  0  3  0  0  0  0  0  0
  192.9920  176.5790  146.2280 C   0  0  0  0  0  3  0  0  0  0  0  0
  191.9910  175.6120  143.5000 C   0  0  2  0  0  3  0  0  0  0  0  0
  190.8660  174.6460  143.1760 C   0  0  1  0  0  3  0  0  0  0  0  0
  190.7320  176.2180  145.3300 C   0  0  2  0  0  3  0  0  0  0  0  0
  191.7030  176.4860  146.3810 N   0  0  0  0  0  0  0  0  0  0  0  0
  193.3830  175.3080  144.0060 C   0  0  2  0  0  3  0  0  0  0  0  0
  193.7640  176.4880  144.9160 C   0  0  0  0  0  2  0  0  0  0  0  0
  195.2890  176.2260  142.8490 O   0  0  0  0  0  1  0  0  0  0  0  0
  194.3670  175.1770  142.8490 C   0  0  0  0  0  2  0  0  0  0  0  0
  189.3390  176.0330  145.9420 C   0  0  2  0  0  3  0  0  0  0  0  0
  189.0080  174.5510  147.5600 C   0  0  0  0  0  1  0  0  0  0  0  0
  189.0740  174.6770  146.1710 O   0  0  0  0  0  0  0  0  0  0  0  0
  188.2540  176.6580  145.0510 C   0  0  1  0  0  3  0  0  0  0  0  0
  187.0870  177.2010  145.8290 C   0  0  0  0  0  0  0  0  0  0  0  0
  184.9520  178.2600  147.3040 C   0  0  0  0  0  3  0  0  0  0  0  0
  186.2610  178.3890  147.7770 C   0  0  0  0  0  3  0  0  0  0  0  0
  187.3260  177.8620  147.0400 C   0  0  0  0  0  3  0  0  0  0  0  0
  184.7060  177.6030  146.0940 C   0  0  0  0  0  3  0  0  0  0  0  0
  185.7710  177.0760  145.3570 C   0  0  0  0  0  3  0  0  0  0  0  0
  188.8490  177.6920  144.1030 C   0  0  0  0  0  2  0  0  0  0  0  0
  187.4870  177.9920  142.0060 C   0  0  0  0  0  0  0  0  0  0  0  0
  187.2200  177.6150  140.6610 N   0  0  0  0  0  1  0  0  0  0  0  0
  188.5350  177.3450  142.7260 N   0  0  0  0  0  2  0  0  0  0  0  0
  186.7960  178.8940  142.5510 O   0  0  0  0  0  0  0  0  0  0  0  0
  191.4100  173.2740  142.8190 C   0  0  0  0  0  2  0  0  0  0  0  0
  190.3580  172.2090  143.0720 C   0  0  0  0  0  2  0  0  0  0  0  0
  189.2280  172.3330  142.0660 C   0  0  0  0  0  2  0  0  0  0  0  0
  189.7930  172.4350  140.6480 C   0  0  2  0  0  3  0  0  0  0  0  0
  188.3910  174.4050  140.4980 O   0  0  0  0  0  1  0  0  0  0  0  0
  188.0510  172.7030  139.0140 O   0  0  0  0  0  1  0  0  0  0  0  0
  189.0100  173.4000  139.7510 C   0  0  0  0  0  3  0  0  0  0  0  0
  191.4180  171.2040  139.5780 C   0  0  0  0  0  1  0  0  0  0  0  0
  190.0940  171.1890  140.0460 O   0  0  0  0  0  0  0  0  0  0  0  0
  1  5  1  0  0  0  0
  2  6  2  0  0  0  0
  3  7  1  0  0  0  0
  3  1  1  0  0  0  0
  4  3  1  0  0  0  0
  4  1  1  0  0  0  0
  5 11  1  0  0  0  0
  5  6  1  0  0  0  0
  7  8  1  0  0  0  0
  8  2  1  0  0  0  0
 10  9  1  0  0  0  0
 10  7  1  0  0  0  0
 11 13  1  0  0  0  0
 13 12  1  0  0  0  0
 14 15  1  0  0  0  0
 14 11  1  0  0  0  0
 15 18  1  0  0  0  0
 16 17  1  0  0  0  0
 18 17  2  0  0  0  0
 19 16  2  0  0  0  0
 20 15  2  0  0  0  0
 20 19  1  0  0  0  0
 21 14  1  0  0  0  0
 22 25  2  0  0  0  0
 22 24  1  0  0  0  0
 23 22  1  0  0  0  0
 24 21  1  0  0  0  0
 26 27  1  0  0  0  0
 26  4  1  0  0  0  0
 28 27  1  0  0  0  0
 29 28  1  0  0  0  0
 31 32  1  0  0  0  0
 32 30  1  0  0  0  0
 32 29  1  0  0  0  0
 33 34  1  0  0  0  0
 34 29  1  0  0  0  0
M  END
>  <MODEL>
2

>  <REMARK>
 VINA RESULT:      -6.5      2.010      5.630
  Name = 
  13 active torsions:
  status: ('A' for Active; 'I' for Inactive)
    1  A    between atoms: C_4  and  C_26
    2  A    between atoms: C_7  and  C_17
    3  A    between atoms: C_7  and  C_27
    4  A    between atoms: C_10  and  N_14
    5  A    between atoms: C_10  and  C_26
    6  A    between atoms: C_11  and  C_27
    7  A    between atoms: C_12  and  C_15
    8  A    between atoms: C_15  and  C_26
    9  A    between atoms: C_15  and  O_30
   10  A    between atoms: C_17  and  C_19
   11  A    between atoms: C_19  and  O_31
   12  A    between atoms: C_19  and  C_34
   13  A    between atoms: C_28  and  C_29
                            x       y       z     vdW  Elec       q    Type
                         _______ _______ _______ _____ _____    ______ ____

>  <TORSDO>
F 13

$$$$
=
 OpenBabel11072408243D

 34 36  0  0  1  0  0  0  0  0999 V2000
  189.8280  175.0950  142.3410 C   0  0  2  0  0  3  0  0  0  0  0  0
  187.5990  173.2680  141.9480 C   0  0  0  0  0  3  0  0  0  0  0  0
  190.3600  173.9030  143.1110 C   0  0  2  0  0  3  0  0  0  0  0  0
  191.1750  175.1780  143.0100 C   0  0  1  0  0  3  0  0  0  0  0  0
  188.5070  175.2680  143.0510 C   0  0  2  0  0  3  0  0  0  0  0  0
  187.5130  174.5180  142.2980 N   0  0  0  0  0  0  0  0  0  0  0  0
  190.1480  172.8300  142.0670 C   0  0  2  0  0  3  0  0  0  0  0  0
  188.7240  172.2990  142.2960 C   0  0  0  0  0  2  0  0  0  0  0  0
  190.5790  170.4570  142.0670 O   0  0  0  0  0  1  0  0  0  0  0  0
  191.1740  171.7120  142.2180 C   0  0  0  0  0  2  0  0  0  0  0  0
  188.1030  176.7450  143.1220 C   0  0  2  0  0  3  0  0  0  0  0  0
  188.1220  178.2130  141.4580 C   0  0  0  0  0  1  0  0  0  0  0  0
  188.9610  177.5320  142.3430 O   0  0  0  0  0  0  0  0  0  0  0  0
  188.0750  177.2430  144.5760 C   0  0  1  0  0  3  0  0  0  0  0  0
  186.7110  177.6920  145.0230 C   0  0  0  0  0  0  0  0  0  0  0  0
  184.1800  178.5000  145.9170 C   0  0  0  0  0  3  0  0  0  0  0  0
  184.7630  177.3360  146.4260 C   0  0  0  0  0  3  0  0  0  0  0  0
  186.0260  176.9340  145.9810 C   0  0  0  0  0  3  0  0  0  0  0  0
  184.8600  179.2640  144.9630 C   0  0  0  0  0  3  0  0  0  0  0  0
  186.1230  178.8620  144.5180 C   0  0  0  0  0  3  0  0  0  0  0  0
  188.6850  176.2160  145.5210 C   0  0  0  0  0  2  0  0  0  0  0  0
  190.3980  176.1360  147.3650 C   0  0  0  0  0  0  0  0  0  0  0  0
  191.4440  176.7760  148.0870 N   0  0  0  0  0  1  0  0  0  0  0  0
  189.7600  176.8230  146.2910 N   0  0  0  0  0  2  0  0  0  0  0  0
  190.0450  174.9690  147.6820 O   0  0  0  0  0  0  0  0  0  0  0  0
  192.2790  175.0410  141.9750 C   0  0  0  0  0  2  0  0  0  0  0  0
  193.5300  175.7650  142.4410 C   0  0  0  0  0  2  0  0  0  0  0  0
  193.3600  176.2430  143.8730 C   0  0  0  0  0  2  0  0  0  0  0  0
  194.6220  175.9380  144.6830 C   0  0  2  0  0  3  0  0  0  0  0  0
  195.2140  173.6690  145.2900 O   0  0  0  0  0  1  0  0  0  0  0  0
  193.1010  174.4060  145.7400 O   0  0  0  0  0  1  0  0  0  0  0  0
  194.4450  174.7730  145.6640 C   0  0  0  0  0  3  0  0  0  0  0  0
  194.5500  177.4930  146.3790 C   0  0  0  0  0  1  0  0  0  0  0  0
  195.2530  177.0780  145.2370 O   0  0  0  0  0  0  0  0  0  0  0  0
  1  4  1  0  0  0  0
  1  5  1  0  0  0  0
  1  3  1  0  0  0  0
  2  8  1  0  0  0  0
  2  6  2  0  0  0  0
  4  3  1  0  0  0  0
  5 11  1  0  0  0  0
  6  5  1  0  0  0  0
  7 10  1  0  0  0  0
  7  8  1  0  0  0  0
  7  3  1  0  0  0  0
  9 10  1  0  0  0  0
 11 14  1  0  0  0  0
 12 13  1  0  0  0  0
 13 11  1  0  0  0  0
 14 15  1  0  0  0  0
 14 21  1  0  0  0  0
 15 18  1  0  0  0  0
 16 17  1  0  0  0  0
 18 17  2  0  0  0  0
 19 16  2  0  0  0  0
 20 19  1  0  0  0  0
 20 15  2  0  0  0  0
 21 24  1  0  0  0  0
 22 25  2  0  0  0  0
 22 23  1  0  0  0  0
 24 22  1  0  0  0  0
 26 27  1  0  0  0  0
 26  4  1  0  0  0  0
 27 28  1  0  0  0  0
 28 29  1  0  0  0  0
 29 34  1  0  0  0  0
 29 32  1  0  0  0  0
 30 32  1  0  0  0  0
 32 31  1  0  0  0  0
 34 33  1  0  0  0  0
M  END
>  <MODEL>
3

>  <REMARK>
 VINA RESULT:      -6.4      0.877      1.028
  Name = 
  13 active torsions:
  status: ('A' for Active; 'I' for Inactive)
    1  A    between atoms: C_4  and  C_26
    2  A    between atoms: C_7  and  C_17
    3  A    between atoms: C_7  and  C_27
    4  A    between atoms: C_10  and  N_14
    5  A    between atoms: C_10  and  C_26
    6  A    between atoms: C_11  and  C_27
    7  A    between atoms: C_12  and  C_15
    8  A    between atoms: C_15  and  C_26
    9  A    between atoms: C_15  and  O_30
   10  A    between atoms: C_17  and  C_19
   11  A    between atoms: C_19  and  O_31
   12  A    between atoms: C_19  and  C_34
   13  A    between atoms: C_28  and  C_29
                            x       y       z     vdW  Elec       q    Type
                         _______ _______ _______ _____ _____    ______ ____

>  <TORSDO>
F 13

$$$$
=
 OpenBabel11072408243D

 34 36  0  0  1  0  0  0  0  0999 V2000
  189.9630  174.8810  142.6080 C   0  0  2  0  0  3  0  0  0  0  0  0
  187.8820  173.0310  141.7620 C   0  0  0  0  0  3  0  0  0  0  0  0
  190.4370  173.6400  143.3370 C   0  0  2  0  0  3  0  0  0  0  0  0
  191.2050  174.9440  143.4560 C   0  0  1  0  0  3  0  0  0  0  0  0
  188.5530  174.9490  143.1460 C   0  0  2  0  0  3  0  0  0  0  0  0
  187.6990  174.2410  142.2040 N   0  0  0  0  0  0  0  0  0  0  0  0
  190.4100  172.6610  142.1860 C   0  0  2  0  0  3  0  0  0  0  0  0
  188.9910  172.0690  142.1750 C   0  0  0  0  0  2  0  0  0  0  0  0
  192.3850  171.5670  141.3360 O   0  0  0  0  0  1  0  0  0  0  0  0
  191.4530  171.5650  142.3770 C   0  0  0  0  0  2  0  0  0  0  0  0
  188.0820  176.4010  143.2890 C   0  0  2  0  0  3  0  0  0  0  0  0
  188.4550  177.9500  141.7440 C   0  0  0  0  0  1  0  0  0  0  0  0
  189.0580  177.2880  142.8160 O   0  0  0  0  0  0  0  0  0  0  0  0
  187.7120  176.7230  144.7450 C   0  0  1  0  0  3  0  0  0  0  0  0
  188.7980  176.3710  145.7260 C   0  0  0  0  0  0  0  0  0  0  0  0
  190.8060  175.6500  147.5430 C   0  0  0  0  0  3  0  0  0  0  0  0
  189.6860  174.8310  147.3770 C   0  0  0  0  0  3  0  0  0  0  0  0
  188.6850  175.1900  146.4700 C   0  0  0  0  0  3  0  0  0  0  0  0
  190.9270  176.8280  146.8000 C   0  0  0  0  0  3  0  0  0  0  0  0
  189.9270  177.1880  145.8930 C   0  0  0  0  0  3  0  0  0  0  0  0
  187.2500  178.1680  144.8880 C   0  0  0  0  0  2  0  0  0  0  0  0
  184.8420  178.2050  145.6250 C   0  0  0  0  0  0  0  0  0  0  0  0
  183.8900  178.3070  146.6770 N   0  0  0  0  0  1  0  0  0  0  0  0
  186.2360  178.2660  145.9250 N   0  0  0  0  0  2  0  0  0  0  0  0
  184.4470  178.0630  144.4370 O   0  0  0  0  0  0  0  0  0  0  0  0
  192.4400  174.9340  142.5720 C   0  0  0  0  0  2  0  0  0  0  0  0
  193.1760  176.2580  142.6810 C   0  0  0  0  0  2  0  0  0  0  0  0
  193.4500  176.5900  144.1380 C   0  0  0  0  0  2  0  0  0  0  0  0
  194.8310  176.0730  144.5460 C   0  0  2  0  0  3  0  0  0  0  0  0
  196.0090  174.5930  146.0590 O   0  0  0  0  0  1  0  0  0  0  0  0
  193.7360  174.4330  145.9200 O   0  0  0  0  0  1  0  0  0  0  0  0
  194.8230  175.3070  145.8730 C   0  0  0  0  0  3  0  0  0  0  0  0
  196.6900  176.6890  143.3360 C   0  0  0  0  0  1  0  0  0  0  0  0
  195.8720  177.0260  144.4260 O   0  0  0  0  0  0  0  0  0  0  0  0
  1  5  1  0  0  0  0
  1  3  1  0  0  0  0
  1  4  1  0  0  0  0
  2  8  1  0  0  0  0
  2  6  2  0  0  0  0
  3  4  1  0  0  0  0
  5 11  1  0  0  0  0
  6  5  1  0  0  0  0
  7 10  1  0  0  0  0
  7  3  1  0  0  0  0
  8  7  1  0  0  0  0
  9 10  1  0  0  0  0
 11 14  1  0  0  0  0
 12 13  1  0  0  0  0
 13 11  1  0  0  0  0
 14 21  1  0  0  0  0
 14 15  1  0  0  0  0
 15 20  2  0  0  0  0
 15 18  1  0  0  0  0
 17 16  1  0  0  0  0
 18 17  2  0  0  0  0
 19 16  2  0  0  0  0
 20 19  1  0  0  0  0
 21 24  1  0  0  0  0
 22 24  1  0  0  0  0
 22 23  1  0  0  0  0
 25 22  2  0  0  0  0
 26 27  1  0  0  0  0
 26  4  1  0  0  0  0
 27 28  1  0  0  0  0
 28 29  1  0  0  0  0
 29 32  1  0  0  0  0
 32 31  1  0  0  0  0
 32 30  1  0  0  0  0
 33 34  1  0  0  0  0
 34 29  1  0  0  0  0
M  END
>  <MODEL>
4

>  <REMARK>
 VINA RESULT:      -6.4      1.686      3.317
  Name = 
  13 active torsions:
  status: ('A' for Active; 'I' for Inactive)
    1  A    between atoms: C_4  and  C_26
    2  A    between atoms: C_7  and  C_17
    3  A    between atoms: C_7  and  C_27
    4  A    between atoms: C_10  and  N_14
    5  A    between atoms: C_10  and  C_26
    6  A    between atoms: C_11  and  C_27
    7  A    between atoms: C_12  and  C_15
    8  A    between atoms: C_15  and  C_26
    9  A    between atoms: C_15  and  O_30
   10  A    between atoms: C_17  and  C_19
   11  A    between atoms: C_19  and  O_31
   12  A    between atoms: C_19  and  C_34
   13  A    between atoms: C_28  and  C_29
                            x       y       z     vdW  Elec       q    Type
                         _______ _______ _______ _____ _____    ______ ____

>  <TORSDO>
F 13

$$$$
=
 OpenBabel11072408243D

 34 36  0  0  1  0  0  0  0  0999 V2000
  190.2210  174.2130  143.2390 C   0  0  2  0  0  3  0  0  0  0  0  0
  188.6710  174.3970  140.7830 C   0  0  0  0  0  3  0  0  0  0  0  0
  189.7350  172.7800  143.1570 C   0  0  2  0  0  3  0  0  0  0  0  0
  190.6160  173.2290  144.3080 C   0  0  1  0  0  3  0  0  0  0  0  0
  188.8890  174.9210  143.1750 C   0  0  2  0  0  3  0  0  0  0  0  0
  188.6350  175.2360  141.7770 N   0  0  0  0  0  0  0  0  0  0  0  0
  190.1280  172.4750  141.7280 C   0  0  2  0  0  3  0  0  0  0  0  0
  188.9250  172.8950  140.8660 C   0  0  0  0  0  2  0  0  0  0  0  0
  190.7320  170.6940  140.2190 O   0  0  0  0  0  1  0  0  0  0  0  0
  190.4300  170.9920  141.5500 C   0  0  0  0  0  2  0  0  0  0  0  0
  188.9020  176.2080  144.0070 C   0  0  2  0  0  3  0  0  0  0  0  0
  190.0780  177.9240  143.2340 C   0  0  0  0  0  1  0  0  0  0  0  0
  190.1830  176.7760  144.0220 O   0  0  0  0  0  0  0  0  0  0  0  0
  188.4030  175.9500  145.4370 C   0  0  1  0  0  3  0  0  0  0  0  0
  189.4390  176.2420  146.4890 C   0  0  0  0  0  0  0  0  0  0  0  0
  191.4060  176.7370  148.4230 C   0  0  0  0  0  3  0  0  0  0  0  0
  191.2370  175.4470  147.9110 C   0  0  0  0  0  3  0  0  0  0  0  0
  190.2560  175.2010  146.9460 C   0  0  0  0  0  3  0  0  0  0  0  0
  190.5960  177.7820  147.9680 C   0  0  0  0  0  3  0  0  0  0  0  0
  189.6160  177.5360  147.0030 C   0  0  0  0  0  3  0  0  0  0  0  0
  187.0900  176.6770  145.7010 C   0  0  0  0  0  2  0  0  0  0  0  0
  186.0900  178.7730  144.7290 C   0  0  0  0  0  0  0  0  0  0  0  0
  185.7790  179.5600  143.5850 N   0  0  0  0  0  1  0  0  0  0  0  0
  186.7510  177.5200  144.5660 N   0  0  0  0  0  2  0  0  0  0  0  0
  185.7780  179.1900  145.8760 O   0  0  0  0  0  0  0  0  0  0  0  0
  192.0540  172.7860  144.1010 C   0  0  0  0  0  2  0  0  0  0  0  0
  192.9480  173.3840  145.1730 C   0  0  0  0  0  2  0  0  0  0  0  0
  193.7320  174.5570  144.6120 C   0  0  0  0  0  2  0  0  0  0  0  0
  194.5030  175.2600  145.7320 C   0  0  2  0  0  3  0  0  0  0  0  0
  194.3660  177.3410  146.9630 O   0  0  0  0  0  1  0  0  0  0  0  0
  193.2340  177.1610  144.9890 O   0  0  0  0  0  1  0  0  0  0  0  0
  194.3860  176.7870  145.6810 C   0  0  0  0  0  3  0  0  0  0  0  0
  196.4830  174.7160  144.6910 C   0  0  0  0  0  1  0  0  0  0  0  0
  195.8210  174.7790  145.9270 O   0  0  0  0  0  0  0  0  0  0  0  0
  1  4  1  0  0  0  0
  2  8  1  0  0  0  0
  2  6  2  0  0  0  0
  3  1  1  0  0  0  0
  3  4  1  0  0  0  0
  5  1  1  0  0  0  0
  5 11  1  0  0  0  0
  6  5  1  0  0  0  0
  7  3  1  0  0  0  0
  8  7  1  0  0  0  0
  9 10  1  0  0  0  0
 10  7  1  0  0  0  0
 11 13  1  0  0  0  0
 11 14  1  0  0  0  0
 12 13  1  0  0  0  0
 14 21  1  0  0  0  0
 14 15  1  0  0  0  0
 15 18  2  0  0  0  0
 15 20  1  0  0  0  0
 17 16  2  0  0  0  0
 18 17  1  0  0  0  0
 19 16  1  0  0  0  0
 20 19  2  0  0  0  0
 22 25  2  0  0  0  0
 23 22  1  0  0  0  0
 24 22  1  0  0  0  0
 24 21  1  0  0  0  0
 26  4  1  0  0  0  0
 26 27  1  0  0  0  0
 28 27  1  0  0  0  0
 28 29  1  0  0  0  0
 29 34  1  0  0  0  0
 31 32  1  0  0  0  0
 32 29  1  0  0  0  0
 32 30  1  0  0  0  0
 33 34  1  0  0  0  0
M  END
>  <MODEL>
5

>  <REMARK>
 VINA RESULT:      -6.3      2.068      3.775
  Name = 
  13 active torsions:
  status: ('A' for Active; 'I' for Inactive)
    1  A    between atoms: C_4  and  C_26
    2  A    between atoms: C_7  and  C_17
    3  A    between atoms: C_7  and  C_27
    4  A    between atoms: C_10  and  N_14
    5  A    between atoms: C_10  and  C_26
    6  A    between atoms: C_11  and  C_27
    7  A    between atoms: C_12  and  C_15
    8  A    between atoms: C_15  and  C_26
    9  A    between atoms: C_15  and  O_30
   10  A    between atoms: C_17  and  C_19
   11  A    between atoms: C_19  and  O_31
   12  A    between atoms: C_19  and  C_34
   13  A    between atoms: C_28  and  C_29
                            x       y       z     vdW  Elec       q    Type
                         _______ _______ _______ _____ _____    ______ ____

>  <TORSDO>
F 13

$$$$
=
 OpenBabel11072408243D

 34 36  0  0  1  0  0  0  0  0999 V2000
  190.1830  174.8260  143.4610 C   0  0  2  0  0  3  0  0  0  0  0  0
  188.1760  173.7290  141.6630 C   0  0  0  0  0  3  0  0  0  0  0  0
  190.0620  173.4390  144.0590 C   0  0  2  0  0  3  0  0  0  0  0  0
  191.0170  174.4550  144.6590 C   0  0  1  0  0  3  0  0  0  0  0  0
  188.7320  175.2400  143.5210 C   0  0  2  0  0  3  0  0  0  0  0  0
  188.1330  174.8940  142.2400 N   0  0  0  0  0  0  0  0  0  0  0  0
  190.2230  172.6200  142.7980 C   0  0  2  0  0  3  0  0  0  0  0  0
  188.8060  172.4570  142.2220 C   0  0  0  0  0  2  0  0  0  0  0  0
  190.5420  170.3320  142.1060 O   0  0  0  0  0  1  0  0  0  0  0  0
  190.8420  171.2610  143.1050 C   0  0  0  0  0  2  0  0  0  0  0  0
  188.5930  176.7440  143.7740 C   0  0  2  0  0  3  0  0  0  0  0  0
  189.9300  177.9180  145.1000 C   0  0  0  0  0  1  0  0  0  0  0  0
  188.8390  177.0470  145.1190 O   0  0  0  0  0  0  0  0  0  0  0  0
  187.2070  177.2540  143.3460 C   0  0  1  0  0  3  0  0  0  0  0  0
  186.3340  177.6470  144.5070 C   0  0  0  0  0  0  0  0  0  0  0  0
  184.7340  178.3300  146.7040 C   0  0  0  0  0  3  0  0  0  0  0  0
  185.1140  177.0000  146.5010 C   0  0  0  0  0  3  0  0  0  0  0  0
  185.9130  176.6600  145.4060 C   0  0  0  0  0  3  0  0  0  0  0  0
  185.1550  179.3210  145.8120 C   0  0  0  0  0  3  0  0  0  0  0  0
  185.9540  178.9820  144.7160 C   0  0  0  0  0  3  0  0  0  0  0  0
  187.3260  178.3630  142.3080 C   0  0  0  0  0  2  0  0  0  0  0  0
  186.3320  177.5810  140.1300 C   0  0  0  0  0  0  0  0  0  0  0  0
  186.5180  177.0150  138.8390 N   0  0  0  0  0  1  0  0  0  0  0  0
  187.4600  177.7890  140.9790 N   0  0  0  0  0  2  0  0  0  0  0  0
  185.1730  177.8910  140.5150 O   0  0  0  0  0  0  0  0  0  0  0  0
  192.4480  174.1800  144.2310 C   0  0  0  0  0  2  0  0  0  0  0  0
  193.3250  173.9440  145.4490 C   0  0  0  0  0  2  0  0  0  0  0  0
  194.5840  174.7880  145.3630 C   0  0  0  0  0  2  0  0  0  0  0  0
  194.3230  176.0390  144.5210 C   0  0  2  0  0  3  0  0  0  0  0  0
  195.1360  176.1930  142.2440 O   0  0  0  0  0  1  0  0  0  0  0  0
  196.6060  175.6210  143.8940 O   0  0  0  0  0  1  0  0  0  0  0  0
  195.4830  176.3890  143.5820 C   0  0  0  0  0  3  0  0  0  0  0  0
  194.4830  177.2480  146.4740 C   0  0  0  0  0  1  0  0  0  0  0  0
  193.8070  177.1390  145.2480 O   0  0  0  0  0  0  0  0  0  0  0  0
  1  5  1  0  0  0  0
  1  3  1  0  0  0  0
  1  4  1  0  0  0  0
  2  8  1  0  0  0  0
  2  6  2  0  0  0  0
  3  4  1  0  0  0  0
  5 11  1  0  0  0  0
  6  5  1  0  0  0  0
  7 10  1  0  0  0  0
  7  3  1  0  0  0  0
  8  7  1  0  0  0  0
  9 10  1  0  0  0  0
 11 13  1  0  0  0  0
 12 13  1  0  0  0  0
 14 11  1  0  0  0  0
 14 15  1  0  0  0  0
 15 20  2  0  0  0  0
 15 18  1  0  0  0  0
 17 16  1  0  0  0  0
 18 17  2  0  0  0  0
 19 16  2  0  0  0  0
 20 19  1  0  0  0  0
 21 14  1  0  0  0  0
 22 25  2  0  0  0  0
 22 24  1  0  0  0  0
 23 22  1  0  0  0  0
 24 21  1  0  0  0  0
 26  4  1  0  0  0  0
 26 27  1  0  0  0  0
 28 27  1  0  0  0  0
 29 34  1  0  0  0  0
 29 28  1  0  0  0  0
 30 32  1  0  0  0  0
 32 31  1  0  0  0  0
 32 29  1  0  0  0  0
 34 33  1  0  0  0  0
M  END
>  <MODEL>
6

>  <REMARK>
 VINA RESULT:      -6.2      2.087      3.559
  Name = 
  13 active torsions:
  status: ('A' for Active; 'I' for Inactive)
    1  A    between atoms: C_4  and  C_26
    2  A    between atoms: C_7  and  C_17
    3  A    between atoms: C_7  and  C_27
    4  A    between atoms: C_10  and  N_14
    5  A    between atoms: C_10  and  C_26
    6  A    between atoms: C_11  and  C_27
    7  A    between atoms: C_12  and  C_15
    8  A    between atoms: C_15  and  C_26
    9  A    between atoms: C_15  and  O_30
   10  A    between atoms: C_17  and  C_19
   11  A    between atoms: C_19  and  O_31
   12  A    between atoms: C_19  and  C_34
   13  A    between atoms: C_28  and  C_29
                            x       y       z     vdW  Elec       q    Type
                         _______ _______ _______ _____ _____    ______ ____

>  <TORSDO>
F 13

$$$$
=
 OpenBabel11072408243D

 34 36  0  0  1  0  0  0  0  0999 V2000
  189.6610  175.8330  144.4640 C   0  0  2  0  0  3  0  0  0  0  0  0
  189.5950  174.9260  147.2270 C   0  0  0  0  0  3  0  0  0  0  0  0
  188.1670  175.9120  144.7030 C   0  0  2  0  0  3  0  0  0  0  0  0
  188.7510  176.2910  143.3550 C   0  0  1  0  0  3  0  0  0  0  0  0
  189.8890  174.3900  144.8460 C   0  0  2  0  0  3  0  0  0  0  0  0
  190.2570  174.3710  146.2540 N   0  0  0  0  0  0  0  0  0  0  0  0
  188.1730  176.7040  145.9920 C   0  0  2  0  0  3  0  0  0  0  0  0
  188.2640  175.6630  147.1210 C   0  0  0  0  0  2  0  0  0  0  0  0
  185.8700  176.7960  146.6990 O   0  0  0  0  0  1  0  0  0  0  0  0
  186.9050  177.5380  146.1260 C   0  0  0  0  0  2  0  0  0  0  0  0
  191.0050  173.7610  144.0060 C   0  0  2  0  0  3  0  0  0  0  0  0
  191.4600  171.5890  143.9740 C   0  0  0  0  0  1  0  0  0  0  0  0
  191.6580  172.7510  144.7240 O   0  0  0  0  0  0  0  0  0  0  0  0
  192.0070  174.8240  143.5270 C   0  0  1  0  0  3  0  0  0  0  0  0
  193.3020  174.8060  144.2930 C   0  0  0  0  0  0  0  0  0  0  0  0
  195.6810  174.7820  145.7740 C   0  0  0  0  0  3  0  0  0  0  0  0
  194.5930  175.5450  146.2090 C   0  0  0  0  0  3  0  0  0  0  0  0
  193.4060  175.5550  145.4700 C   0  0  0  0  0  3  0  0  0  0  0  0
  195.5820  174.0290  144.6000 C   0  0  0  0  0  3  0  0  0  0  0  0
  194.3960  174.0390  143.8620 C   0  0  0  0  0  3  0  0  0  0  0  0
  192.2230  174.7380  142.0220 C   0  0  0  0  0  2  0  0  0  0  0  0
  191.1650  173.0880  140.4400 C   0  0  0  0  0  0  0  0  0  0  0  0
  189.9910  172.5510  139.8430 N   0  0  0  0  0  1  0  0  0  0  0  0
  191.0540  174.1520  141.3830 N   0  0  0  0  0  2  0  0  0  0  0  0
  192.2930  172.6200  140.1300 O   0  0  0  0  0  0  0  0  0  0  0  0
  188.8380  177.7990  143.2000 C   0  0  0  0  0  2  0  0  0  0  0  0
  188.3710  178.2140  141.8160 C   0  0  0  0  0  2  0  0  0  0  0  0
  187.1880  177.3670  141.3830 C   0  0  0  0  0  2  0  0  0  0  0  0
  185.9290  178.2320  141.2820 C   0  0  2  0  0  3  0  0  0  0  0  0
  185.5260  179.3120  143.4120 O   0  0  0  0  0  1  0  0  0  0  0  0
  185.2270  177.0540  143.2560 O   0  0  0  0  0  1  0  0  0  0  0  0
  185.1140  178.2700  142.5790 C   0  0  0  0  0  3  0  0  0  0  0  0
  183.8160  178.3250  140.3730 C   0  0  0  0  0  1  0  0  0  0  0  0
  185.1600  178.0130  140.1130 O   0  0  0  0  0  0  0  0  0  0  0  0
  1  3  1  0  0  0  0
  1  5  1  0  0  0  0
  3  7  1  0  0  0  0
  4  1  1  0  0  0  0
  4  3  1  0  0  0  0
  5  6  1  0  0  0  0
  6  2  2  0  0  0  0
  7 10  1  0  0  0  0
  7  8  1  0  0  0  0
  8  2  1  0  0  0  0
 10  9  1  0  0  0  0
 11 13  1  0  0  0  0
 11  5  1  0  0  0  0
 12 13  1  0  0  0  0
 14 11  1  0  0  0  0
 14 15  1  0  0  0  0
 15 18  1  0  0  0  0
 16 17  1  0  0  0  0
 18 17  2  0  0  0  0
 19 16  2  0  0  0  0
 20 15  2  0  0  0  0
 20 19  1  0  0  0  0
 21 14  1  0  0  0  0
 22 24  1  0  0  0  0
 23 22  1  0  0  0  0
 24 21  1  0  0  0  0
 25 22  2  0  0  0  0
 26  4  1  0  0  0  0
 27 26  1  0  0  0  0
 28 27  1  0  0  0  0
 29 28  1  0  0  0  0
 29 32  1  0  0  0  0
 32 31  1  0  0  0  0
 32 30  1  0  0  0  0
 34 33  1  0  0  0  0
 34 29  1  0  0  0  0
M  END
>  <MODEL>
7

>  <REMARK>
 VINA RESULT:      -6.2      2.542      8.106
  Name = 
  13 active torsions:
  status: ('A' for Active; 'I' for Inactive)
    1  A    between atoms: C_4  and  C_26
    2  A    between atoms: C_7  and  C_17
    3  A    between atoms: C_7  and  C_27
    4  A    between atoms: C_10  and  N_14
    5  A    between atoms: C_10  and  C_26
    6  A    between atoms: C_11  and  C_27
    7  A    between atoms: C_12  and  C_15
    8  A    between atoms: C_15  and  C_26
    9  A    between atoms: C_15  and  O_30
   10  A    between atoms: C_17  and  C_19
   11  A    between atoms: C_19  and  O_31
   12  A    between atoms: C_19  and  C_34
   13  A    between atoms: C_28  and  C_29
                            x       y       z     vdW  Elec       q    Type
                         _______ _______ _______ _____ _____    ______ ____

>  <TORSDO>
F 13

$$$$
=
 OpenBabel11072408243D

 34 36  0  0  1  0  0  0  0  0999 V2000
  190.8850  176.3940  145.0080 C   0  0  2  0  0  3  0  0  0  0  0  0
  191.4200  175.3290  147.6620 C   0  0  0  0  0  3  0  0  0  0  0  0
  189.5750  175.6690  145.2420 C   0  0  2  0  0  3  0  0  0  0  0  0
  189.8200  176.4170  143.9440 C   0  0  1  0  0  3  0  0  0  0  0  0
  191.8380  175.2470  145.2410 C   0  0  2  0  0  3  0  0  0  0  0  0
  192.2280  175.2890  146.6430 N   0  0  0  0  0  0  0  0  0  0  0  0
  189.2330  176.2260  146.6050 C   0  0  2  0  0  3  0  0  0  0  0  0
  189.8970  175.2810  147.6210 C   0  0  0  0  0  2  0  0  0  0  0  0
  187.2750  177.5820  146.9810 O   0  0  0  0  0  1  0  0  0  0  0  0
  187.7230  176.2700  146.8130 C   0  0  0  0  0  2  0  0  0  0  0  0
  193.0800  175.3650  144.3500 C   0  0  2  0  0  3  0  0  0  0  0  0
  193.9140  176.0130  142.3990 C   0  0  0  0  0  1  0  0  0  0  0  0
  192.8280  176.2020  143.2560 O   0  0  0  0  0  0  0  0  0  0  0  0
  193.5590  173.9820  143.8800 C   0  0  1  0  0  3  0  0  0  0  0  0
  194.6950  173.4360  144.7030 C   0  0  0  0  0  0  0  0  0  0  0  0
  196.8110  172.3650  146.1960 C   0  0  0  0  0  3  0  0  0  0  0  0
  195.9070  171.5140  145.5530 C   0  0  0  0  0  3  0  0  0  0  0  0
  194.8530  172.0490  144.8070 C   0  0  0  0  0  3  0  0  0  0  0  0
  196.6610  173.7510  146.0920 C   0  0  0  0  0  3  0  0  0  0  0  0
  195.6070  174.2860  145.3470 C   0  0  0  0  0  3  0  0  0  0  0  0
  192.3970  173.0030  143.7760 C   0  0  0  0  0  2  0  0  0  0  0  0
  190.3780  173.0070  142.2710 C   0  0  0  0  0  0  0  0  0  0  0  0
  189.8350  173.0960  140.9590 N   0  0  0  0  0  1  0  0  0  0  0  0
  191.7900  173.0890  142.4570 N   0  0  0  0  0  2  0  0  0  0  0  0
  189.6080  172.8560  143.2560 O   0  0  0  0  0  0  0  0  0  0  0  0
  189.1120  177.7610  143.9470 C   0  0  0  0  0  2  0  0  0  0  0  0
  188.0390  177.7930  142.8730 C   0  0  0  0  0  2  0  0  0  0  0  0
  186.6970  177.3870  143.4560 C   0  0  0  0  0  2  0  0  0  0  0  0
  185.5810  178.2470  142.8580 C   0  0  2  0  0  3  0  0  0  0  0  0
  185.4750  180.1890  144.3020 O   0  0  0  0  0  1  0  0  0  0  0  0
  184.5450  178.2350  145.0270 O   0  0  0  0  0  1  0  0  0  0  0  0
  184.7930  179.0350  143.9110 C   0  0  0  0  0  3  0  0  0  0  0  0
  184.8200  178.2790  140.6860 C   0  0  0  0  0  1  0  0  0  0  0  0
  184.7760  177.5800  141.9030 O   0  0  0  0  0  0  0  0  0  0  0  0
  1  5  1  0  0  0  0
  1  3  1  0  0  0  0
  3  7  1  0  0  0  0
  4 26  1  0  0  0  0
  4  1  1  0  0  0  0
  4  3  1  0  0  0  0
  5  6  1  0  0  0  0
  6  2  2  0  0  0  0
  7 10  1  0  0  0  0
  7  8  1  0  0  0  0
  8  2  1  0  0  0  0
 10  9  1  0  0  0  0
 11  5  1  0  0  0  0
 12 13  1  0  0  0  0
 13 11  1  0  0  0  0
 14 11  1  0  0  0  0
 14 15  1  0  0  0  0
 15 18  2  0  0  0  0
 15 20  1  0  0  0  0
 17 16  2  0  0  0  0
 18 17  1  0  0  0  0
 19 16  1  0  0  0  0
 20 19  2  0  0  0  0
 21 14  1  0  0  0  0
 22 24  1  0  0  0  0
 22 25  2  0  0  0  0
 23 22  1  0  0  0  0
 24 21  1  0  0  0  0
 27 28  1  0  0  0  0
 27 26  1  0  0  0  0
 29 28  1  0  0  0  0
 29 32  1  0  0  0  0
 32 30  1  0  0  0  0
 32 31  1  0  0  0  0
 33 34  1  0  0  0  0
 34 29  1  0  0  0  0
M  END
>  <MODEL>
8

>  <REMARK>
 VINA RESULT:      -6.1      2.528      8.430
  Name = 
  13 active torsions:
  status: ('A' for Active; 'I' for Inactive)
    1  A    between atoms: C_4  and  C_26
    2  A    between atoms: C_7  and  C_17
    3  A    between atoms: C_7  and  C_27
    4  A    between atoms: C_10  and  N_14
    5  A    between atoms: C_10  and  C_26
    6  A    between atoms: C_11  and  C_27
    7  A    between atoms: C_12  and  C_15
    8  A    between atoms: C_15  and  C_26
    9  A    between atoms: C_15  and  O_30
   10  A    between atoms: C_17  and  C_19
   11  A    between atoms: C_19  and  O_31
   12  A    between atoms: C_19  and  C_34
   13  A    between atoms: C_28  and  C_29
                            x       y       z     vdW  Elec       q    Type
                         _______ _______ _______ _____ _____    ______ ____

>  <TORSDO>
F 13

$$$$
=
 OpenBabel11072408243D

 34 36  0  0  1  0  0  0  0  0999 V2000
  191.0090  176.0730  144.2000 C   0  0  2  0  0  3  0  0  0  0  0  0
  189.9250  175.3180  146.7930 C   0  0  0  0  0  3  0  0  0  0  0  0
  192.0040  176.7880  145.0910 C   0  0  2  0  0  3  0  0  0  0  0  0
  192.1250  176.8710  143.5810 C   0  0  1  0  0  3  0  0  0  0  0  0
  189.7320  176.6650  144.7450 C   0  0  2  0  0  3  0  0  0  0  0  0
  189.2440  175.7610  145.7760 N   0  0  0  0  0  0  0  0  0  0  0  0
  192.3710  175.6430  146.0080 C   0  0  2  0  0  3  0  0  0  0  0  0
  191.3560  175.6910  147.1630 C   0  0  0  0  0  2  0  0  0  0  0  0
  194.1800  177.1410  146.5570 O   0  0  0  0  0  1  0  0  0  0  0  0
  193.7950  175.7990  146.5320 C   0  0  0  0  0  2  0  0  0  0  0  0
  188.6770  176.8200  143.6440 C   0  0  2  0  0  3  0  0  0  0  0  0
  188.9320  178.2920  142.0040 C   0  0  0  0  0  1  0  0  0  0  0  0
  188.4890  178.1700  143.3230 O   0  0  0  0  0  0  0  0  0  0  0  0
  187.3470  176.1680  144.0540 C   0  0  1  0  0  3  0  0  0  0  0  0
  186.3150  177.1620  144.5160 C   0  0  0  0  0  0  0  0  0  0  0  0
  184.4390  179.0360  145.4210 C   0  0  0  0  0  3  0  0  0  0  0  0
  185.4190  178.5510  146.2920 C   0  0  0  0  0  3  0  0  0  0  0  0
  186.3560  177.6170  145.8390 C   0  0  0  0  0  3  0  0  0  0  0  0
  184.3960  178.5890  144.0970 C   0  0  0  0  0  3  0  0  0  0  0  0
  185.3320  177.6540  143.6450 C   0  0  0  0  0  3  0  0  0  0  0  0
  186.8190  175.2560  142.9530 C   0  0  0  0  0  2  0  0  0  0  0  0
  188.1770  173.6700  141.5460 C   0  0  0  0  0  0  0  0  0  0  0  0
  189.2120  173.4660  140.5920 N   0  0  0  0  0  1  0  0  0  0  0  0
  187.8670  174.9930  141.9800 N   0  0  0  0  0  2  0  0  0  0  0  0
  187.5440  172.6800  142.0000 O   0  0  0  0  0  0  0  0  0  0  0  0
  193.2090  175.9380  143.0670 C   0  0  0  0  0  2  0  0  0  0  0  0
  192.5860  174.7480  142.3590 C   0  0  0  0  0  2  0  0  0  0  0  0
  193.4570  173.5160  142.5340 C   0  0  0  0  0  2  0  0  0  0  0  0
  192.7910  172.5330  143.4990 C   0  0  2  0  0  3  0  0  0  0  0  0
  190.6660  172.6530  144.6550 O   0  0  0  0  0  1  0  0  0  0  0  0
  190.8220  171.3530  142.7850 O   0  0  0  0  0  1  0  0  0  0  0  0
  191.2620  172.5270  143.3990 C   0  0  0  0  0  3  0  0  0  0  0  0
  194.0940  171.4540  145.0600 C   0  0  0  0  0  1  0  0  0  0  0  0
  193.2910  172.5820  144.8220 O   0  0  0  0  0  0  0  0  0  0  0  0
  1  5  1  0  0  0  0
  1  3  1  0  0  0  0
  2  8  1  0  0  0  0
  3  7  1  0  0  0  0
  4  1  1  0  0  0  0
  4  3  1  0  0  0  0
  5  6  1  0  0  0  0
  6  2  2  0  0  0  0
  7 10  1  0  0  0  0
  7  8  1  0  0  0  0
 10  9  1  0  0  0  0
 11 14  1  0  0  0  0
 11  5  1  0  0  0  0
 12 13  1  0  0  0  0
 13 11  1  0  0  0  0
 14 15  1  0  0  0  0
 15 18  1  0  0  0  0
 16 17  1  0  0  0  0
 18 17  2  0  0  0  0
 19 16  2  0  0  0  0
 20 19  1  0  0  0  0
 20 15  2  0  0  0  0
 21 14  1  0  0  0  0
 22 24  1  0  0  0  0
 22 25  2  0  0  0  0
 23 22  1  0  0  0  0
 24 21  1  0  0  0  0
 26  4  1  0  0  0  0
 27 28  1  0  0  0  0
 27 26  1  0  0  0  0
 28 29  1  0  0  0  0
 29 34  1  0  0  0  0
 31 32  1  0  0  0  0
 32 29  1  0  0  0  0
 32 30  1  0  0  0  0
 34 33  1  0  0  0  0
M  END
>  <MODEL>
9

>  <REMARK>
 VINA RESULT:      -6.0      1.793      4.325
  Name = 
  13 active torsions:
  status: ('A' for Active; 'I' for Inactive)
    1  A    between atoms: C_4  and  C_26
    2  A    between atoms: C_7  and  C_17
    3  A    between atoms: C_7  and  C_27
    4  A    between atoms: C_10  and  N_14
    5  A    between atoms: C_10  and  C_26
    6  A    between atoms: C_11  and  C_27
    7  A    between atoms: C_12  and  C_15
    8  A    between atoms: C_15  and  C_26
    9  A    between atoms: C_15  and  O_30
   10  A    between atoms: C_17  and  C_19
   11  A    between atoms: C_19  and  O_31
   12  A    between atoms: C_19  and  C_34
   13  A    between atoms: C_28  and  C_29
                            x       y       z     vdW  Elec       q    Type
                         _______ _______ _______ _____ _____    ______ ____

>  <TORSDO>
F 13

$$$$
