=
 OpenBabel11062421353D

 55 60  0  0  1  0  0  0  0  0999 V2000
  186.5560  178.1500  146.1030 C   0  0  2  0  0  3  0  0  0  0  0  0
  186.4820  178.3830  144.6180 C   0  0  0  0  0  2  0  0  0  0  0  0
  186.9910  176.8330  146.3310 O   0  0  0  0  0  0  0  0  0  0  0  0
  187.7710  176.4710  145.2200 C   0  0  1  0  0  3  0  0  0  0  0  0
  187.4690  177.4140  144.0570 C   0  0  1  0  0  3  0  0  0  0  0  0
  187.4540  175.6690  140.8750 C   0  0  2  0  0  3  0  0  0  0  0  0
  186.9890  178.0090  141.1240 O   0  0  0  0  0  0  0  0  0  0  0  0
  187.1240  176.9930  140.1580 C   0  0  0  0  0  2  0  0  0  0  0  0
  186.8580  176.6550  142.8790 C   0  0  1  0  0  3  0  0  0  0  0  0
  186.1370  177.5400  142.0280 O   0  0  0  0  0  0  0  0  0  0  0  0
  187.8720  175.9290  142.1960 O   0  0  0  0  0  0  0  0  0  0  0  0
  188.1540  173.3490  140.2770 C   0  0  2  0  0  3  0  0  0  0  0  0
  188.4970  174.7870  140.1670 C   0  0  2  0  0  3  0  0  0  0  0  0
  189.1670  173.9280  141.0630 O   0  0  0  0  0  0  0  0  0  0  0  0
  188.7810  172.5780  139.1340 C   0  0  0  0  0  2  0  0  0  0  0  0
  189.6790  171.6200  139.6450 O   0  0  0  0  0  0  0  0  0  0  0  0
  190.8050  171.5070  138.7860 C   0  0  2  0  0  0  0  0  0  0  0  0
  190.9020  172.6850  138.0260 O   0  0  0  0  0  1  0  0  0  0  0  0
  190.0670  170.7800  136.4650 C   0  0  0  0  0  1  0  0  0  0  0  0
  190.6160  170.3270  137.8100 C   0  0  2  0  0  3  0  0  0  0  0  0
  189.7620  169.3680  138.3620 O   0  0  0  0  0  1  0  0  0  0  0  0
  192.0030  171.3080  139.5200 O   0  0  0  0  0  0  0  0  0  0  0  0
  192.0130  172.1690  140.6330 C   0  0  0  0  0  2  0  0  0  0  0  0
  194.1080  174.9470  139.4340 C   0  0  0  0  0  3  0  0  0  0  0  0
  193.1500  174.3240  140.1330 C   0  0  0  0  0  3  0  0  0  0  0  0
  195.6710  173.0020  139.8610 C   0  0  0  0  0  2  0  0  0  0  0  0
  193.3260  172.9270  140.6780 C   0  0  2  0  0  3  0  0  0  0  0  0
  194.4080  172.1530  139.9310 C   0  0  0  0  0  2  0  0  0  0  0  0
  195.3940  174.2580  139.0390 C   0  0  2  0  0  3  0  0  0  0  0  0
  196.7830  175.8260  140.1810 O   0  0  0  0  0  1  0  0  0  0  0  0
  196.5490  175.2020  139.1090 C   0  0  0  0  0  0  0  0  0  0  0  0
  197.3640  175.4060  137.9970 O   0  0  0  0  0  0  0  0  0  0  0  0
  185.2210  178.3670  146.7440 C   0  0  0  0  0  0  0  0  0  0  0  0
  185.1170  178.3640  148.0040 O   0  0  0  0  0  1  0  0  0  0  0  0
  184.0920  178.5890  145.9580 O   0  0  0  0  0  0  0  0  0  0  0  0
  189.9150  177.6530  144.9630 C   0  0  0  0  0  1  0  0  0  0  0  0
  189.2830  176.3820  145.5530 C   0  0  1  0  0  0  0  0  0  0  0  0
  189.4600  176.3160  146.9670 O   0  0  0  0  0  0  0  0  0  0  0  0
  189.7140  174.9850  147.3670 C   0  0  0  0  0  1  0  0  0  0  0  0
  190.0600  174.9630  144.6400 S   0  0  0  0  0  0  0  0  0  0  0  0
  194.9550  176.4960  145.4180 C   0  0  0  0  0  2  0  0  0  0  0  0
  194.1670  174.6840  143.8070 C   0  0  0  0  0  2  0  0  0  0  0  0
  191.7980  175.4540  144.2280 C   0  0  1  0  0  0  0  0  0  0  0  0
  192.9130  174.6250  144.7080 C   0  0  2  0  0  3  0  0  0  0  0  0
  196.2060  175.8610  143.4980 O   0  0  0  0  0  1  0  0  0  0  0  0
  191.9520  176.2710  142.9340 C   0  0  0  0  0  1  0  0  0  0  0  0
  192.5830  175.9100  145.4040 N   0  0  1  0  0  0  0  0  0  0  0  0
  195.3780  175.3370  144.4970 C   0  0  1  0  0  0  0  0  0  0  0  0
  193.5480  176.9790  145.0990 C   0  0  0  0  0  2  0  0  0  0  0  0
  196.1650  174.2830  145.2990 C   0  0  0  0  0  0  0  0  0  0  0  0
  196.1370  174.6090  146.6510 F   0  0  0  0  0  0  0  0  0  0  0  0
  195.5590  173.0480  145.1170 F   0  0  0  0  0  0  0  0  0  0  0  0
  197.4940  174.2400  144.8390 O   0  0  0  0  0  0  0  0  0  0  0  0
  197.9370  172.8710  142.9300 C   0  0  0  0  0  1  0  0  0  0  0  0
  197.7720  172.9290  144.4300 C   0  0  0  0  0  2  0  0  0  0  0  0
  1  3  1  0  0  0  0
  1 33  1  6  0  0  0
  2  1  1  0  0  0  0
  4 37  1  1  0  0  0
  4  3  1  0  0  0  0
  5  2  1  1  0  0  0
  5  4  1  0  0  0  0
  6  8  1  6  0  0  0
  6 11  1  0  0  0  0
  7 10  1  0  0  0  0
  8  7  1  0  0  0  0
  9 10  1  6  0  0  0
  9  5  1  0  0  0  0
 11  9  1  0  0  0  0
 12 15  1  6  0  0  0
 12 14  1  0  0  0  0
 13 12  1  0  0  0  0
 13  6  1  0  0  0  0
 13 14  1  1  0  0  0
 15 16  1  0  0  0  0
 17 18  1  6  0  0  0
 17 22  1  0  0  0  0
 17 16  1  0  0  0  0
 20 19  1  6  0  0  0
 20 21  1  0  0  0  0
 20 17  1  0  0  0  0
 22 23  1  0  0  0  0
 24 25  2  0  0  0  0
 25 27  1  0  0  0  0
 26 28  1  0  0  0  0
 27 23  1  6  0  0  0
 28 27  1  0  0  0  0
 29 31  1  1  0  0  0
 29 24  1  0  0  0  0
 29 26  1  0  0  0  0
 31 30  1  0  0  0  0
 32 31  2  0  0  0  0
 33 34  1  0  0  0  0
 35 33  2  0  0  0  0
 37 36  1  6  0  0  0
 37 38  1  0  0  0  0
 38 39  1  0  0  0  0
 40 37  1  0  0  0  0
 42 48  1  0  0  0  0
 43 46  1  6  0  0  0
 43 40  1  0  0  0  0
 43 44  1  0  0  0  0
 43 47  1  0  0  0  0
 44 42  1  6  0  0  0
 44 47  1  0  0  0  0
 47 49  1  6  0  0  0
 48 45  1  6  0  0  0
 48 50  1  0  0  0  0
 48 41  1  0  0  0  0
 49 41  1  0  0  0  0
 50 51  1  0  0  0  0
 52 50  1  0  0  0  0
 53 50  1  0  0  0  0
 54 55  1  0  0  0  0
 55 53  1  0  0  0  0
M  END
>  <MODEL>
1

>  <REMARK>
 VINA RESULT:      -6.8      0.000      0.000
  Name = 
  18 active torsions:
  status: ('A' for Active; 'I' for Inactive)
    1  A    between atoms: C_1  and  C_29
    2  A    between atoms: O_2  and  C_11
    3  A    between atoms: O_2  and  C_51
    4  A    between atoms: C_7  and  S_12
    5  A    between atoms: C_11  and  O_13
    6  A    between atoms: C_11  and  C_35
    7  A    between atoms: S_12  and  C_28
    8  A    between atoms: O_13  and  C_34
    9  A    between atoms: C_15  and  O_38
   10  A    between atoms: C_17  and  C_26
   11  A    between atoms: C_20  and  C_34
   12  A    between atoms: C_21  and  C_27
   13  A    between atoms: O_22  and  C_28
   14  A    between atoms: C_27  and  O_38
   15  A    between atoms: C_28  and  C_46
   16  A    between atoms: C_32  and  C_51
   17  A    between atoms: C_44  and  C_52
   18  A    between atoms: C_45  and  C_49
                            x       y       z     vdW  Elec       q    Type
                         _______ _______ _______ _____ _____    ______ ____

>  <TORSDO>
F 18

$$$$
=
 OpenBabel11062421353D

 55 60  0  0  1  0  0  0  0  0999 V2000
  188.0240  177.4700  146.7300 C   0  0  2  0  0  3  0  0  0  0  0  0
  187.8410  177.7530  145.2620 C   0  0  0  0  0  2  0  0  0  0  0  0
  188.2620  176.0950  146.8960 O   0  0  0  0  0  0  0  0  0  0  0  0
  188.8600  175.6450  145.7070 C   0  0  1  0  0  3  0  0  0  0  0  0
  188.5990  176.6550  144.5920 C   0  0  1  0  0  3  0  0  0  0  0  0
  187.9590  175.2220  141.3200 C   0  0  2  0  0  3  0  0  0  0  0  0
  187.6710  177.5440  141.8470 O   0  0  0  0  0  0  0  0  0  0  0  0
  187.5870  176.6200  140.7870 C   0  0  0  0  0  2  0  0  0  0  0  0
  187.7600  176.0360  143.4740 C   0  0  1  0  0  3  0  0  0  0  0  0
  186.9570  177.0260  142.8390 O   0  0  0  0  0  0  0  0  0  0  0  0
  188.6040  175.3390  142.5680 O   0  0  0  0  0  0  0  0  0  0  0  0
  188.4150  172.9450  140.4050 C   0  0  2  0  0  3  0  0  0  0  0  0
  188.8200  174.3710  140.3700 C   0  0  2  0  0  3  0  0  0  0  0  0
  189.5750  173.4000  141.0600 O   0  0  0  0  0  0  0  0  0  0  0  0
  188.8030  172.2650  139.1080 C   0  0  0  0  0  2  0  0  0  0  0  0
  189.7890  171.2910  139.3590 O   0  0  0  0  0  0  0  0  0  0  0  0
  190.7590  171.3070  138.3200 C   0  0  2  0  0  0  0  0  0  0  0  0
  190.8170  172.6060  137.7890 O   0  0  0  0  0  1  0  0  0  0  0  0
  190.4170  168.8900  137.6140 C   0  0  0  0  0  1  0  0  0  0  0  0
  190.3420  170.3490  137.1860 C   0  0  2  0  0  3  0  0  0  0  0  0
  191.1440  170.5450  136.0600 O   0  0  0  0  0  1  0  0  0  0  0  0
  192.0390  170.9240  138.7970 O   0  0  0  0  0  0  0  0  0  0  0  0
  192.3280  171.6380  139.9750 C   0  0  0  0  0  2  0  0  0  0  0  0
  192.7290  170.8510  143.5480 C   0  0  0  0  0  3  0  0  0  0  0  0
  192.1090  171.0010  142.3700 C   0  0  0  0  0  3  0  0  0  0  0  0
  194.7190  169.8320  142.3610 C   0  0  0  0  0  2  0  0  0  0  0  0
  192.7800  170.6750  141.0570 C   0  0  2  0  0  3  0  0  0  0  0  0
  194.3020  170.6880  141.1720 C   0  0  0  0  0  2  0  0  0  0  0  0
  194.1830  170.4540  143.6480 C   0  0  2  0  0  3  0  0  0  0  0  0
  194.4480  168.2950  144.6280 O   0  0  0  0  0  0  0  0  0  0  0  0
  194.4100  169.5430  144.8100 C   0  0  0  0  0  0  0  0  0  0  0  0
  194.5690  170.0610  146.0940 O   0  0  0  0  0  1  0  0  0  0  0  0
  186.8120  177.8780  147.5070 C   0  0  0  0  0  0  0  0  0  0  0  0
  186.8480  178.9090  148.2370 O   0  0  0  0  0  1  0  0  0  0  0  0
  185.6360  177.1340  147.4170 O   0  0  0  0  0  0  0  0  0  0  0  0
  190.5730  175.1100  147.3920 C   0  0  0  0  0  1  0  0  0  0  0  0
  190.3630  175.3070  145.8810 C   0  0  1  0  0  0  0  0  0  0  0  0
  190.6770  174.1220  145.1510 O   0  0  0  0  0  0  0  0  0  0  0  0
  189.7420  173.1040  145.4430 C   0  0  0  0  0  1  0  0  0  0  0  0
  191.4090  176.7680  145.4130 S   0  0  0  0  0  0  0  0  0  0  0  0
  195.3340  174.0240  143.4170 C   0  0  0  0  0  2  0  0  0  0  0  0
  195.3670  176.4980  144.0350 C   0  0  0  0  0  2  0  0  0  0  0  0
  193.1430  176.1570  145.1830 C   0  0  1  0  0  0  0  0  0  0  0  0
  193.8300  176.4060  143.9070 C   0  0  2  0  0  3  0  0  0  0  0  0
  197.3430  175.1830  143.9420 O   0  0  0  0  0  1  0  0  0  0  0  0
  193.9600  176.0180  146.4780 C   0  0  0  0  0  1  0  0  0  0  0  0
  193.2590  175.0510  144.1980 N   0  0  1  0  0  0  0  0  0  0  0  0
  196.1030  175.3540  143.3140 C   0  0  1  0  0  0  0  0  0  0  0  0
  194.2970  174.0620  144.5300 C   0  0  0  0  0  2  0  0  0  0  0  0
  196.3360  175.7190  141.8350 C   0  0  0  0  0  0  0  0  0  0  0  0
  196.2790  177.1010  141.6830 F   0  0  0  0  0  0  0  0  0  0  0  0
  197.5950  175.2710  141.4640 F   0  0  0  0  0  0  0  0  0  0  0  0
  195.3510  175.1040  141.0400 O   0  0  0  0  0  0  0  0  0  0  0  0
  195.7600  173.6680  139.1730 C   0  0  0  0  0  1  0  0  0  0  0  0
  195.8130  175.0760  139.7180 C   0  0  0  0  0  2  0  0  0  0  0  0
  1  3  1  0  0  0  0
  1 33  1  1  0  0  0
  2  1  1  0  0  0  0
  4 37  1  1  0  0  0
  4  3  1  0  0  0  0
  5  2  1  1  0  0  0
  5  4  1  0  0  0  0
  6  8  1  6  0  0  0
  6 11  1  0  0  0  0
  7 10  1  0  0  0  0
  8  7  1  0  0  0  0
  9 11  1  6  0  0  0
  9  5  1  0  0  0  0
 10  9  1  0  0  0  0
 12 15  1  6  0  0  0
 12 14  1  0  0  0  0
 13 12  1  0  0  0  0
 13 14  1  1  0  0  0
 13  6  1  0  0  0  0
 15 16  1  0  0  0  0
 17 18  1  6  0  0  0
 17 22  1  0  0  0  0
 17 16  1  0  0  0  0
 20 19  1  1  0  0  0
 20 17  1  0  0  0  0
 21 20  1  0  0  0  0
 22 23  1  0  0  0  0
 24 29  1  0  0  0  0
 25 24  2  0  0  0  0
 26 29  1  0  0  0  0
 27 23  1  6  0  0  0
 27 28  1  0  0  0  0
 27 25  1  0  0  0  0
 28 26  1  0  0  0  0
 29 31  1  1  0  0  0
 30 31  2  0  0  0  0
 31 32  1  0  0  0  0
 33 34  1  0  0  0  0
 35 33  2  0  0  0  0
 37 36  1  1  0  0  0
 38 39  1  0  0  0  0
 38 37  1  0  0  0  0
 40 37  1  0  0  0  0
 41 49  1  0  0  0  0
 43 40  1  0  0  0  0
 43 46  1  1  0  0  0
 44 42  1  1  0  0  0
 44 47  1  0  0  0  0
 44 43  1  0  0  0  0
 47 49  1  1  0  0  0
 47 43  1  0  0  0  0
 48 41  1  0  0  0  0
 48 45  1  1  0  0  0
 48 42  1  0  0  0  0
 50 48  1  0  0  0  0
 51 50  1  0  0  0  0
 52 50  1  0  0  0  0
 53 50  1  0  0  0  0
 54 55  1  0  0  0  0
 55 53  1  0  0  0  0
M  END
>  <MODEL>
2

>  <REMARK>
 VINA RESULT:      -6.6      2.265      3.437
  Name = 
  18 active torsions:
  status: ('A' for Active; 'I' for Inactive)
    1  A    between atoms: C_1  and  C_29
    2  A    between atoms: O_2  and  C_11
    3  A    between atoms: O_2  and  C_51
    4  A    between atoms: C_7  and  S_12
    5  A    between atoms: C_11  and  O_13
    6  A    between atoms: C_11  and  C_35
    7  A    between atoms: S_12  and  C_28
    8  A    between atoms: O_13  and  C_34
    9  A    between atoms: C_15  and  O_38
   10  A    between atoms: C_17  and  C_26
   11  A    between atoms: C_20  and  C_34
   12  A    between atoms: C_21  and  C_27
   13  A    between atoms: O_22  and  C_28
   14  A    between atoms: C_27  and  O_38
   15  A    between atoms: C_28  and  C_46
   16  A    between atoms: C_32  and  C_51
   17  A    between atoms: C_44  and  C_52
   18  A    between atoms: C_45  and  C_49
                            x       y       z     vdW  Elec       q    Type
                         _______ _______ _______ _____ _____    ______ ____

>  <TORSDO>
F 18

$$$$
=
 OpenBabel11062421353D

 55 60  0  0  1  0  0  0  0  0999 V2000
  185.5130  177.4900  144.5520 C   0  0  2  0  0  3  0  0  0  0  0  0
  186.3090  176.6850  145.5450 C   0  0  0  0  0  2  0  0  0  0  0  0
  186.4070  178.1650  143.7020 O   0  0  0  0  0  0  0  0  0  0  0  0
  187.5780  177.3900  143.6560 C   0  0  1  0  0  3  0  0  0  0  0  0
  187.6000  176.4290  144.8420 C   0  0  1  0  0  3  0  0  0  0  0  0
  190.8500  175.8920  146.3640 C   0  0  2  0  0  3  0  0  0  0  0  0
  188.7830  175.1290  147.3120 O   0  0  0  0  0  0  0  0  0  0  0  0
  190.1760  175.1170  147.5140 C   0  0  0  0  0  2  0  0  0  0  0  0
  188.7780  176.7260  145.7690 C   0  0  1  0  0  3  0  0  0  0  0  0
  188.4540  176.4010  147.1170 O   0  0  0  0  0  0  0  0  0  0  0  0
  189.9410  176.0570  145.2990 O   0  0  0  0  0  0  0  0  0  0  0  0
  193.2900  176.2190  145.9510 C   0  0  2  0  0  3  0  0  0  0  0  0
  192.1560  175.2710  145.8380 C   0  0  2  0  0  3  0  0  0  0  0  0
  192.6620  175.9620  144.7180 O   0  0  0  0  0  0  0  0  0  0  0  0
  194.5970  175.4570  146.0200 C   0  0  0  0  0  2  0  0  0  0  0  0
  195.2360  175.4970  144.7660 O   0  0  0  0  0  0  0  0  0  0  0  0
  195.5440  174.1780  144.3380 C   0  0  2  0  0  0  0  0  0  0  0  0
  194.6950  173.2840  145.0110 O   0  0  0  0  0  1  0  0  0  0  0  0
  197.1490  173.5090  146.1910 C   0  0  0  0  0  1  0  0  0  0  0  0
  196.9990  173.8220  144.7090 C   0  0  2  0  0  3  0  0  0  0  0  0
  197.8610  174.8650  144.3650 O   0  0  0  0  0  1  0  0  0  0  0  0
  195.3810  174.0330  142.9350 O   0  0  0  0  0  0  0  0  0  0  0  0
  194.6080  175.1020  142.4460 C   0  0  0  0  0  2  0  0  0  0  0  0
  194.7130  174.9020  138.7720 C   0  0  0  0  0  3  0  0  0  0  0  0
  194.2580  175.2390  139.9870 C   0  0  0  0  0  3  0  0  0  0  0  0
  197.0780  175.3920  139.5330 C   0  0  0  0  0  2  0  0  0  0  0  0
  195.1840  175.5860  141.1290 C   0  0  2  0  0  3  0  0  0  0  0  0
  196.5840  175.0160  140.9250 C   0  0  0  0  0  2  0  0  0  0  0  0
  196.1860  174.7330  138.4830 C   0  0  2  0  0  3  0  0  0  0  0  0
  195.6300  175.2640  136.2250 O   0  0  0  0  0  0  0  0  0  0  0  0
  196.5230  175.2300  137.1150 C   0  0  0  0  0  0  0  0  0  0  0  0
  197.8180  175.6470  136.8130 O   0  0  0  0  0  1  0  0  0  0  0  0
  184.6280  178.4740  145.2500 C   0  0  0  0  0  0  0  0  0  0  0  0
  184.0840  178.1660  146.3490 O   0  0  0  0  0  1  0  0  0  0  0  0
  184.4110  179.7370  144.7000 O   0  0  0  0  0  0  0  0  0  0  0  0
  186.6760  177.2370  141.3700 C   0  0  0  0  0  1  0  0  0  0  0  0
  187.7720  176.6770  142.2920 C   0  0  1  0  0  0  0  0  0  0  0  0
  189.0760  176.9570  141.7860 O   0  0  0  0  0  0  0  0  0  0  0  0
  189.6310  178.0720  142.4520 C   0  0  0  0  0  1  0  0  0  0  0  0
  187.4130  174.8630  142.4570 S   0  0  0  0  0  0  0  0  0  0  0  0
  190.5370  171.2000  140.5220 C   0  0  0  0  0  2  0  0  0  0  0  0
  190.9890  173.7090  140.5820 C   0  0  0  0  0  2  0  0  0  0  0  0
  188.9850  173.9520  142.1020 C   0  0  1  0  0  0  0  0  0  0  0  0
  189.4550  173.8400  140.7130 C   0  0  2  0  0  3  0  0  0  0  0  0
  192.7360  172.1040  140.4740 O   0  0  0  0  0  1  0  0  0  0  0  0
  190.0010  173.9340  143.2570 C   0  0  0  0  0  1  0  0  0  0  0  0
  188.7820  172.6740  141.3710 N   0  0  1  0  0  0  0  0  0  0  0  0
  191.4330  172.3470  140.0200 C   0  0  1  0  0  0  0  0  0  0  0  0
  189.7320  171.6150  141.7460 C   0  0  0  0  0  2  0  0  0  0  0  0
  191.4370  172.3820  138.4800 C   0  0  0  0  0  0  0  0  0  0  0  0
  192.5870  171.7630  138.0020 F   0  0  0  0  0  0  0  0  0  0  0  0
  190.3250  171.6910  138.0210 F   0  0  0  0  0  0  0  0  0  0  0  0
  191.3880  173.7190  138.0410 O   0  0  0  0  0  0  0  0  0  0  0  0
  189.5750  174.4150  136.6490 C   0  0  0  0  0  1  0  0  0  0  0  0
  190.9180  173.7280  136.7220 C   0  0  0  0  0  2  0  0  0  0  0  0
  1 33  1  1  0  0  0
  1  2  1  0  0  0  0
  3  1  1  0  0  0  0
  4 37  1  6  0  0  0
  4  3  1  0  0  0  0
  4  5  1  0  0  0  0
  5  2  1  1  0  0  0
  5  9  1  0  0  0  0
  6  8  1  1  0  0  0
  7  8  1  0  0  0  0
  9 11  1  6  0  0  0
  9 10  1  0  0  0  0
 10  7  1  0  0  0  0
 11  6  1  0  0  0  0
 12 15  1  6  0  0  0
 13 14  1  6  0  0  0
 13 12  1  0  0  0  0
 13  6  1  0  0  0  0
 14 12  1  0  0  0  0
 16 15  1  0  0  0  0
 17 20  1  0  0  0  0
 17 16  1  0  0  0  0
 17 18  1  1  0  0  0
 20 19  1  1  0  0  0
 21 20  1  0  0  0  0
 22 17  1  0  0  0  0
 23 22  1  0  0  0  0
 24 25  2  0  0  0  0
 25 27  1  0  0  0  0
 26 28  1  0  0  0  0
 27 23  1  1  0  0  0
 28 27  1  0  0  0  0
 29 31  1  6  0  0  0
 29 24  1  0  0  0  0
 29 26  1  0  0  0  0
 30 31  2  0  0  0  0
 32 31  1  0  0  0  0
 33 34  1  0  0  0  0
 35 33  2  0  0  0  0
 37 36  1  6  0  0  0
 37 40  1  0  0  0  0
 38 37  1  0  0  0  0
 38 39  1  0  0  0  0
 41 49  1  0  0  0  0
 43 40  1  0  0  0  0
 43 46  1  1  0  0  0
 44 42  1  1  0  0  0
 44 47  1  0  0  0  0
 44 43  1  0  0  0  0
 47 49  1  1  0  0  0
 47 43  1  0  0  0  0
 48 45  1  1  0  0  0
 48 41  1  0  0  0  0
 48 42  1  0  0  0  0
 50 48  1  0  0  0  0
 51 50  1  0  0  0  0
 52 50  1  0  0  0  0
 53 50  1  0  0  0  0
 54 55  1  0  0  0  0
 55 53  1  0  0  0  0
M  END
>  <MODEL>
3

>  <REMARK>
 VINA RESULT:      -6.5      2.637      6.252
  Name = 
  18 active torsions:
  status: ('A' for Active; 'I' for Inactive)
    1  A    between atoms: C_1  and  C_29
    2  A    between atoms: O_2  and  C_11
    3  A    between atoms: O_2  and  C_51
    4  A    between atoms: C_7  and  S_12
    5  A    between atoms: C_11  and  O_13
    6  A    between atoms: C_11  and  C_35
    7  A    between atoms: S_12  and  C_28
    8  A    between atoms: O_13  and  C_34
    9  A    between atoms: C_15  and  O_38
   10  A    between atoms: C_17  and  C_26
   11  A    between atoms: C_20  and  C_34
   12  A    between atoms: C_21  and  C_27
   13  A    between atoms: O_22  and  C_28
   14  A    between atoms: C_27  and  O_38
   15  A    between atoms: C_28  and  C_46
   16  A    between atoms: C_32  and  C_51
   17  A    between atoms: C_44  and  C_52
   18  A    between atoms: C_45  and  C_49
                            x       y       z     vdW  Elec       q    Type
                         _______ _______ _______ _____ _____    ______ ____

>  <TORSDO>
F 18

$$$$
=
 OpenBabel11062421353D

 55 60  0  0  1  0  0  0  0  0999 V2000
  186.4440  178.1670  145.9150 C   0  0  2  0  0  3  0  0  0  0  0  0
  186.4820  178.2590  144.4120 C   0  0  0  0  0  2  0  0  0  0  0  0
  186.8630  176.8810  146.2960 O   0  0  0  0  0  0  0  0  0  0  0  0
  187.7260  176.4240  145.2850 C   0  0  1  0  0  3  0  0  0  0  0  0
  187.5100  177.2510  144.0200 C   0  0  1  0  0  3  0  0  0  0  0  0
  187.7260  175.2750  140.9830 C   0  0  2  0  0  3  0  0  0  0  0  0
  187.1540  177.6040  141.0300 O   0  0  0  0  0  0  0  0  0  0  0  0
  187.3790  176.5260  140.1520 C   0  0  0  0  0  2  0  0  0  0  0  0
  186.9910  176.3790  142.8770 C   0  0  1  0  0  3  0  0  0  0  0  0
  186.2770  177.1660  141.9270 O   0  0  0  0  0  0  0  0  0  0  0  0
  188.0660  175.6510  142.2990 O   0  0  0  0  0  0  0  0  0  0  0  0
  188.2890  173.1390  139.8220 C   0  0  2  0  0  3  0  0  0  0  0  0
  188.8390  174.3900  140.3950 C   0  0  2  0  0  3  0  0  0  0  0  0
  188.9490  173.1540  141.0650 O   0  0  0  0  0  0  0  0  0  0  0  0
  189.2260  172.5990  138.7610 C   0  0  0  0  0  2  0  0  0  0  0  0
  189.5870  171.2750  139.0750 O   0  0  0  0  0  0  0  0  0  0  0  0
  190.9620  171.0670  138.7850 C   0  0  2  0  0  0  0  0  0  0  0  0
  191.5690  172.3200  138.5950 O   0  0  0  0  0  1  0  0  0  0  0  0
  192.2200  169.2190  137.5760 C   0  0  0  0  0  1  0  0  0  0  0  0
  191.1160  170.2630  137.4780 C   0  0  2  0  0  3  0  0  0  0  0  0
  191.3780  171.1180  136.4050 O   0  0  0  0  0  1  0  0  0  0  0  0
  191.6160  170.3690  139.8330 O   0  0  0  0  0  0  0  0  0  0  0  0
  190.6910  170.1000  140.8590 C   0  0  0  0  0  2  0  0  0  0  0  0
  193.4630  171.4320  142.8810 C   0  0  0  0  0  3  0  0  0  0  0  0
  192.3080  171.4310  142.2010 C   0  0  0  0  0  3  0  0  0  0  0  0
  192.8740  169.1760  143.8680 C   0  0  0  0  0  2  0  0  0  0  0  0
  191.3680  170.2490  142.2080 C   0  0  2  0  0  3  0  0  0  0  0  0
  192.0800  168.9530  142.5870 C   0  0  0  0  0  2  0  0  0  0  0  0
  193.9680  170.2110  143.6130 C   0  0  2  0  0  3  0  0  0  0  0  0
  194.1420  171.4990  145.6130 O   0  0  0  0  0  1  0  0  0  0  0  0
  194.6410  170.5930  144.8900 C   0  0  0  0  0  0  0  0  0  0  0  0
  195.8220  169.9660  145.2830 O   0  0  0  0  0  0  0  0  0  0  0  0
  185.0640  178.4310  146.4310 C   0  0  0  0  0  0  0  0  0  0  0  0
  184.8250  178.3370  147.6680 O   0  0  0  0  0  1  0  0  0  0  0  0
  184.0440  178.7950  145.5540 O   0  0  0  0  0  0  0  0  0  0  0  0
  189.8570  177.6500  145.1630 C   0  0  0  0  0  1  0  0  0  0  0  0
  189.2090  176.3790  145.7370 C   0  0  1  0  0  0  0  0  0  0  0  0
  189.2760  176.3550  147.1620 O   0  0  0  0  0  0  0  0  0  0  0  0
  190.0790  175.2770  147.5960 C   0  0  0  0  0  1  0  0  0  0  0  0
  190.0850  174.9560  144.9280 S   0  0  0  0  0  0  0  0  0  0  0  0
  194.9610  176.7250  145.0350 C   0  0  0  0  0  2  0  0  0  0  0  0
  193.9980  175.0190  143.4030 C   0  0  0  0  0  2  0  0  0  0  0  0
  191.7010  175.5940  144.2850 C   0  0  1  0  0  0  0  0  0  0  0  0
  192.9210  174.7980  144.4890 C   0  0  2  0  0  3  0  0  0  0  0  0
  195.8940  176.3490  142.8800 O   0  0  0  0  0  1  0  0  0  0  0  0
  191.5930  176.5320  143.0720 C   0  0  0  0  0  1  0  0  0  0  0  0
  192.6530  175.9910  145.3540 N   0  0  1  0  0  0  0  0  0  0  0  0
  195.2760  175.6840  143.9450 C   0  0  1  0  0  0  0  0  0  0  0  0
  193.4990  177.1430  145.0030 C   0  0  0  0  0  2  0  0  0  0  0  0
  196.2390  174.6140  144.4960 C   0  0  0  0  0  0  0  0  0  0  0  0
  197.5430  175.0940  144.4500 F   0  0  0  0  0  0  0  0  0  0  0  0
  195.8970  174.3510  145.8140 F   0  0  0  0  0  0  0  0  0  0  0  0
  196.1270  173.4410  143.7260 O   0  0  0  0  0  0  0  0  0  0  0  0
  197.3960  171.7710  142.5800 C   0  0  0  0  0  1  0  0  0  0  0  0
  197.4000  172.8670  143.6200 C   0  0  0  0  0  2  0  0  0  0  0  0
  1  3  1  0  0  0  0
  1 33  1  6  0  0  0
  2  1  1  0  0  0  0
  4 37  1  1  0  0  0
  4  3  1  0  0  0  0
  5  2  1  1  0  0  0
  5  4  1  0  0  0  0
  6  8  1  6  0  0  0
  6 11  1  0  0  0  0
  7 10  1  0  0  0  0
  8  7  1  0  0  0  0
  9 10  1  6  0  0  0
  9  5  1  0  0  0  0
 11  9  1  0  0  0  0
 12 15  1  6  0  0  0
 12 13  1  0  0  0  0
 12 14  1  0  0  0  0
 13  6  1  0  0  0  0
 13 14  1  1  0  0  0
 15 16  1  0  0  0  0
 17 18  1  6  0  0  0
 17 16  1  0  0  0  0
 17 22  1  0  0  0  0
 20 19  1  1  0  0  0
 20 17  1  0  0  0  0
 21 20  1  0  0  0  0
 22 23  1  0  0  0  0
 24 29  1  0  0  0  0
 25 27  1  0  0  0  0
 25 24  2  0  0  0  0
 27 23  1  6  0  0  0
 27 28  1  0  0  0  0
 28 26  1  0  0  0  0
 29 26  1  0  0  0  0
 29 31  1  1  0  0  0
 31 32  2  0  0  0  0
 31 30  1  0  0  0  0
 33 34  1  0  0  0  0
 35 33  2  0  0  0  0
 37 36  1  6  0  0  0
 37 38  1  0  0  0  0
 38 39  1  0  0  0  0
 40 37  1  0  0  0  0
 42 48  1  0  0  0  0
 43 46  1  6  0  0  0
 43 44  1  0  0  0  0
 43 40  1  0  0  0  0
 43 47  1  0  0  0  0
 44 42  1  6  0  0  0
 44 47  1  0  0  0  0
 47 49  1  6  0  0  0
 48 45  1  6  0  0  0
 48 50  1  0  0  0  0
 48 41  1  0  0  0  0
 49 41  1  0  0  0  0
 50 52  1  0  0  0  0
 51 50  1  0  0  0  0
 53 50  1  0  0  0  0
 54 55  1  0  0  0  0
 55 53  1  0  0  0  0
M  END
>  <MODEL>
4

>  <REMARK>
 VINA RESULT:      -6.4      1.729      2.696
  Name = 
  18 active torsions:
  status: ('A' for Active; 'I' for Inactive)
    1  A    between atoms: C_1  and  C_29
    2  A    between atoms: O_2  and  C_11
    3  A    between atoms: O_2  and  C_51
    4  A    between atoms: C_7  and  S_12
    5  A    between atoms: C_11  and  O_13
    6  A    between atoms: C_11  and  C_35
    7  A    between atoms: S_12  and  C_28
    8  A    between atoms: O_13  and  C_34
    9  A    between atoms: C_15  and  O_38
   10  A    between atoms: C_17  and  C_26
   11  A    between atoms: C_20  and  C_34
   12  A    between atoms: C_21  and  C_27
   13  A    between atoms: O_22  and  C_28
   14  A    between atoms: C_27  and  O_38
   15  A    between atoms: C_28  and  C_46
   16  A    between atoms: C_32  and  C_51
   17  A    between atoms: C_44  and  C_52
   18  A    between atoms: C_45  and  C_49
                            x       y       z     vdW  Elec       q    Type
                         _______ _______ _______ _____ _____    ______ ____

>  <TORSDO>
F 18

$$$$
=
 OpenBabel11062421353D

 55 60  0  0  1  0  0  0  0  0999 V2000
  186.3450  178.0120  145.5670 C   0  0  2  0  0  3  0  0  0  0  0  0
  186.5440  177.9900  144.0750 C   0  0  0  0  0  2  0  0  0  0  0  0
  186.6850  176.7510  146.0850 O   0  0  0  0  0  0  0  0  0  0  0  0
  187.6370  176.2020  145.2100 C   0  0  1  0  0  3  0  0  0  0  0  0
  187.5790  176.9350  143.8710 C   0  0  1  0  0  3  0  0  0  0  0  0
  188.0350  174.8750  140.9180 C   0  0  2  0  0  3  0  0  0  0  0  0
  187.2980  177.1580  140.8610 O   0  0  0  0  0  0  0  0  0  0  0  0
  187.6280  176.0690  140.0310 C   0  0  0  0  0  2  0  0  0  0  0  0
  187.1610  175.9890  142.7460 C   0  0  1  0  0  3  0  0  0  0  0  0
  186.4260  176.6900  141.7470 O   0  0  0  0  0  0  0  0  0  0  0  0
  188.3040  175.3200  142.2290 O   0  0  0  0  0  0  0  0  0  0  0  0
  188.7990  172.7030  139.9560 C   0  0  2  0  0  3  0  0  0  0  0  0
  189.2250  174.0520  140.3960 C   0  0  2  0  0  3  0  0  0  0  0  0
  189.4650  172.9040  141.1790 O   0  0  0  0  0  0  0  0  0  0  0  0
  189.7760  172.1590  138.9340 C   0  0  0  0  0  2  0  0  0  0  0  0
  190.0030  170.7900  139.1770 O   0  0  0  0  0  0  0  0  0  0  0  0
  191.3970  170.5170  139.1340 C   0  0  2  0  0  0  0  0  0  0  0  0
  192.0850  171.7390  139.0410 O   0  0  0  0  0  1  0  0  0  0  0  0
  190.5290  168.9280  137.3510 C   0  0  0  0  0  1  0  0  0  0  0  0
  191.7390  169.6840  137.8820 C   0  0  2  0  0  3  0  0  0  0  0  0
  192.7670  168.7800  138.1610 O   0  0  0  0  0  1  0  0  0  0  0  0
  191.8260  169.8090  140.2870 O   0  0  0  0  0  0  0  0  0  0  0  0
  192.7350  170.6050  141.0080 C   0  0  0  0  0  2  0  0  0  0  0  0
  193.1190  169.4860  144.4930 C   0  0  0  0  0  3  0  0  0  0  0  0
  192.6000  169.5560  143.2590 C   0  0  0  0  0  3  0  0  0  0  0  0
  195.4500  169.5820  143.5090 C   0  0  0  0  0  2  0  0  0  0  0  0
  193.4590  169.7520  142.0320 C   0  0  2  0  0  3  0  0  0  0  0  0
  194.8120  170.3710  142.3720 C   0  0  0  0  0  2  0  0  0  0  0  0
  194.5880  169.7110  144.7630 C   0  0  2  0  0  3  0  0  0  0  0  0
  196.2860  168.4280  145.8400 O   0  0  0  0  0  0  0  0  0  0  0  0
  195.0800  168.7990  145.8390 C   0  0  0  0  0  0  0  0  0  0  0  0
  194.2150  168.3480  146.8330 O   0  0  0  0  0  1  0  0  0  0  0  0
  184.9260  178.3420  145.9110 C   0  0  0  0  0  0  0  0  0  0  0  0
  184.3530  177.7450  146.8670 O   0  0  0  0  0  1  0  0  0  0  0  0
  184.2370  179.3160  145.1910 O   0  0  0  0  0  0  0  0  0  0  0  0
  189.9150  177.1000  144.9490 C   0  0  0  0  0  1  0  0  0  0  0  0
  189.0620  176.1630  145.8210 C   0  0  1  0  0  0  0  0  0  0  0  0
  189.0150  176.6060  147.1760 O   0  0  0  0  0  0  0  0  0  0  0  0
  189.8040  177.7680  147.3390 C   0  0  0  0  0  1  0  0  0  0  0  0
  189.8030  174.4720  145.6180 S   0  0  0  0  0  0  0  0  0  0  0  0
  194.7600  173.4530  144.4760 C   0  0  0  0  0  2  0  0  0  0  0  0
  193.6450  175.7460  144.4980 C   0  0  0  0  0  2  0  0  0  0  0  0
  191.6440  174.6720  145.6060 C   0  0  1  0  0  0  0  0  0  0  0  0
  192.3300  174.9520  144.3350 C   0  0  2  0  0  3  0  0  0  0  0  0
  195.9850  175.4670  144.7940 O   0  0  0  0  0  1  0  0  0  0  0  0
  192.2530  175.1660  146.9290 C   0  0  0  0  0  1  0  0  0  0  0  0
  192.3590  173.5700  144.9120 N   0  0  1  0  0  0  0  0  0  0  0  0
  194.8920  174.9390  144.0950 C   0  0  1  0  0  0  0  0  0  0  0  0
  193.6630  173.2360  145.5070 C   0  0  0  0  0  2  0  0  0  0  0  0
  195.1500  175.0780  142.5820 C   0  0  0  0  0  0  0  0  0  0  0  0
  194.8290  176.3680  142.1720 F   0  0  0  0  0  0  0  0  0  0  0  0
  196.4960  174.8460  142.3410 F   0  0  0  0  0  0  0  0  0  0  0  0
  194.3660  174.1390  141.8850 O   0  0  0  0  0  0  0  0  0  0  0  0
  194.3460  174.4770  139.5200 C   0  0  0  0  0  1  0  0  0  0  0  0
  195.0290  173.8170  140.6940 C   0  0  0  0  0  2  0  0  0  0  0  0
  1 33  1  6  0  0  0
  1  3  1  0  0  0  0
  2  1  1  0  0  0  0
  4 37  1  1  0  0  0
  4  3  1  0  0  0  0
  5  2  1  1  0  0  0
  5  4  1  0  0  0  0
  6  8  1  6  0  0  0
  6 11  1  0  0  0  0
  7 10  1  0  0  0  0
  8  7  1  0  0  0  0
  9 10  1  6  0  0  0
  9  5  1  0  0  0  0
 11  9  1  0  0  0  0
 12 15  1  6  0  0  0
 12 13  1  0  0  0  0
 12 14  1  0  0  0  0
 13  6  1  0  0  0  0
 13 14  1  1  0  0  0
 15 16  1  0  0  0  0
 17 18  1  6  0  0  0
 17 16  1  0  0  0  0
 17 22  1  0  0  0  0
 20 19  1  1  0  0  0
 20 21  1  0  0  0  0
 20 17  1  0  0  0  0
 22 23  1  0  0  0  0
 24 29  1  0  0  0  0
 25 24  2  0  0  0  0
 26 29  1  0  0  0  0
 27 23  1  6  0  0  0
 27 28  1  0  0  0  0
 27 25  1  0  0  0  0
 28 26  1  0  0  0  0
 29 31  1  1  0  0  0
 31 30  2  0  0  0  0
 31 32  1  0  0  0  0
 33 34  1  0  0  0  0
 35 33  2  0  0  0  0
 37 36  1  6  0  0  0
 37 38  1  0  0  0  0
 38 39  1  0  0  0  0
 40 37  1  0  0  0  0
 41 49  1  0  0  0  0
 43 40  1  0  0  0  0
 43 46  1  1  0  0  0
 44 42  1  1  0  0  0
 44 47  1  0  0  0  0
 44 43  1  0  0  0  0
 47 49  1  1  0  0  0
 47 43  1  0  0  0  0
 48 41  1  0  0  0  0
 48 42  1  0  0  0  0
 48 45  1  1  0  0  0
 50 48  1  0  0  0  0
 51 50  1  0  0  0  0
 52 50  1  0  0  0  0
 53 50  1  0  0  0  0
 54 55  1  0  0  0  0
 55 53  1  0  0  0  0
M  END
>  <MODEL>
5

>  <REMARK>
 VINA RESULT:      -6.3      2.408      3.627
  Name = 
  18 active torsions:
  status: ('A' for Active; 'I' for Inactive)
    1  A    between atoms: C_1  and  C_29
    2  A    between atoms: O_2  and  C_11
    3  A    between atoms: O_2  and  C_51
    4  A    between atoms: C_7  and  S_12
    5  A    between atoms: C_11  and  O_13
    6  A    between atoms: C_11  and  C_35
    7  A    between atoms: S_12  and  C_28
    8  A    between atoms: O_13  and  C_34
    9  A    between atoms: C_15  and  O_38
   10  A    between atoms: C_17  and  C_26
   11  A    between atoms: C_20  and  C_34
   12  A    between atoms: C_21  and  C_27
   13  A    between atoms: O_22  and  C_28
   14  A    between atoms: C_27  and  O_38
   15  A    between atoms: C_28  and  C_46
   16  A    between atoms: C_32  and  C_51
   17  A    between atoms: C_44  and  C_52
   18  A    between atoms: C_45  and  C_49
                            x       y       z     vdW  Elec       q    Type
                         _______ _______ _______ _____ _____    ______ ____

>  <TORSDO>
F 18

$$$$
=
 OpenBabel11062421353D

 55 60  0  0  1  0  0  0  0  0999 V2000
  187.0220  177.4350  144.1010 C   0  0  2  0  0  3  0  0  0  0  0  0
  187.3600  176.9710  145.4940 C   0  0  0  0  0  2  0  0  0  0  0  0
  188.2180  177.5940  143.3790 O   0  0  0  0  0  0  0  0  0  0  0  0
  189.1470  176.7030  143.9410 C   0  0  1  0  0  3  0  0  0  0  0  0
  188.6730  176.2820  145.3300 C   0  0  1  0  0  3  0  0  0  0  0  0
  191.8930  176.6190  146.9700 C   0  0  2  0  0  3  0  0  0  0  0  0
  190.2880  174.9160  147.5010 O   0  0  0  0  0  0  0  0  0  0  0  0
  191.5800  175.3730  147.8240 C   0  0  0  0  0  2  0  0  0  0  0  0
  189.6540  176.7420  146.4080 C   0  0  1  0  0  3  0  0  0  0  0  0
  189.4930  175.9750  147.5970 O   0  0  0  0  0  0  0  0  0  0  0  0
  190.9800  176.7070  145.8990 O   0  0  0  0  0  0  0  0  0  0  0  0
  193.5200  175.8050  145.2620 C   0  0  2  0  0  3  0  0  0  0  0  0
  193.3320  176.6950  146.4320 C   0  0  2  0  0  3  0  0  0  0  0  0
  194.0070  175.4610  146.5360 O   0  0  0  0  0  0  0  0  0  0  0  0
  194.6620  176.3100  144.4050 C   0  0  0  0  0  2  0  0  0  0  0  0
  194.9850  175.3470  143.4290 O   0  0  0  0  0  0  0  0  0  0  0  0
  196.1450  175.7530  142.7150 C   0  0  2  0  0  0  0  0  0  0  0  0
  196.7700  176.7850  143.4360 O   0  0  0  0  0  1  0  0  0  0  0  0
  194.7050  175.4460  140.6430 C   0  0  0  0  0  1  0  0  0  0  0  0
  195.7520  176.3110  141.3320 C   0  0  2  0  0  3  0  0  0  0  0  0
  196.8770  176.4220  140.5110 O   0  0  0  0  0  1  0  0  0  0  0  0
  197.0500  174.6750  142.5350 O   0  0  0  0  0  0  0  0  0  0  0  0
  197.8490  174.5440  143.6860 C   0  0  0  0  0  2  0  0  0  0  0  0
  195.9740  171.3800  143.8170 C   0  0  0  0  0  3  0  0  0  0  0  0
  196.8390  172.2950  143.3590 C   0  0  0  0  0  3  0  0  0  0  0  0
  196.7290  171.8660  146.1850 C   0  0  0  0  0  2  0  0  0  0  0  0
  197.6630  173.1620  144.2810 C   0  0  2  0  0  3  0  0  0  0  0  0
  197.0450  173.2660  145.6730 C   0  0  0  0  0  2  0  0  0  0  0  0
  195.6710  171.2240  145.2890 C   0  0  2  0  0  3  0  0  0  0  0  0
  194.6570  169.4740  146.5530 O   0  0  0  0  0  1  0  0  0  0  0  0
  195.4770  169.7880  145.6460 C   0  0  0  0  0  0  0  0  0  0  0  0
  196.2010  168.7920  144.9930 O   0  0  0  0  0  0  0  0  0  0  0  0
  186.2690  178.7280  144.1370 C   0  0  0  0  0  0  0  0  0  0  0  0
  185.9160  179.2830  143.0580 O   0  0  0  0  0  0  0  0  0  0  0  0
  185.9410  179.3160  145.3580 O   0  0  0  0  0  1  0  0  0  0  0  0
  190.9040  175.7100  142.5300 C   0  0  0  0  0  1  0  0  0  0  0  0
  189.4590  175.4990  143.0140 C   0  0  1  0  0  0  0  0  0  0  0  0
  189.3250  174.2820  143.7460 O   0  0  0  0  0  0  0  0  0  0  0  0
  190.5630  173.6020  143.7970 C   0  0  0  0  0  1  0  0  0  0  0  0
  188.4020  175.5690  141.4900 S   0  0  0  0  0  0  0  0  0  0  0  0
  189.3390  172.2160  137.6430 C   0  0  0  0  0  2  0  0  0  0  0  0
  190.0600  171.9790  140.0770 C   0  0  0  0  0  2  0  0  0  0  0  0
  188.5630  173.9380  140.6270 C   0  0  1  0  0  0  0  0  0  0  0  0
  189.8820  173.5120  140.1330 C   0  0  2  0  0  3  0  0  0  0  0  0
  189.7900  170.1060  138.6420 O   0  0  0  0  0  1  0  0  0  0  0  0
  187.5210  172.8830  141.0320 C   0  0  0  0  0  1  0  0  0  0  0  0
  188.8640  174.0570  139.1770 N   0  0  1  0  0  0  0  0  0  0  0  0
  190.2150  171.4400  138.6430 C   0  0  1  0  0  0  0  0  0  0  0  0
  188.2480  173.0070  138.3510 C   0  0  0  0  0  2  0  0  0  0  0  0
  191.6920  171.4970  138.2100 C   0  0  0  0  0  0  0  0  0  0  0  0
  191.8320  170.9150  136.9540 F   0  0  0  0  0  0  0  0  0  0  0  0
  192.0800  172.8270  138.1410 F   0  0  0  0  0  0  0  0  0  0  0  0
  192.4840  170.8120  139.1510 O   0  0  0  0  0  0  0  0  0  0  0  0
  193.5520  171.9270  140.9750 C   0  0  0  0  0  1  0  0  0  0  0  0
  193.5640  171.6350  139.4930 C   0  0  0  0  0  2  0  0  0  0  0  0
  1 33  1  1  0  0  0
  1  2  1  0  0  0  0
  3  4  1  0  0  0  0
  3  1  1  0  0  0  0
  4 37  1  6  0  0  0
  4  5  1  0  0  0  0
  5  2  1  1  0  0  0
  5  9  1  0  0  0  0
  6  8  1  6  0  0  0
  7 10  1  0  0  0  0
  7  8  1  0  0  0  0
  9 11  1  6  0  0  0
  9 10  1  0  0  0  0
 11  6  1  0  0  0  0
 12 15  1  6  0  0  0
 12 13  1  0  0  0  0
 12 14  1  0  0  0  0
 13 14  1  1  0  0  0
 13  6  1  0  0  0  0
 16 15  1  0  0  0  0
 17 16  1  0  0  0  0
 17 18  1  1  0  0  0
 20 19  1  6  0  0  0
 20 17  1  0  0  0  0
 21 20  1  0  0  0  0
 22 17  1  0  0  0  0
 22 23  1  0  0  0  0
 24 29  1  0  0  0  0
 25 24  2  0  0  0  0
 25 27  1  0  0  0  0
 27 23  1  6  0  0  0
 27 28  1  0  0  0  0
 28 26  1  0  0  0  0
 29 31  1  1  0  0  0
 29 26  1  0  0  0  0
 31 30  1  0  0  0  0
 32 31  2  0  0  0  0
 33 35  1  0  0  0  0
 34 33  2  0  0  0  0
 37 36  1  6  0  0  0
 37 38  1  0  0  0  0
 38 39  1  0  0  0  0
 40 37  1  0  0  0  0
 41 49  1  0  0  0  0
 41 48  1  0  0  0  0
 43 46  1  1  0  0  0
 43 40  1  0  0  0  0
 44 42  1  6  0  0  0
 44 43  1  0  0  0  0
 47 49  1  6  0  0  0
 47 44  1  0  0  0  0
 47 43  1  0  0  0  0
 48 45  1  6  0  0  0
 48 42  1  0  0  0  0
 50 48  1  0  0  0  0
 50 53  1  0  0  0  0
 51 50  1  0  0  0  0
 52 50  1  0  0  0  0
 53 55  1  0  0  0  0
 55 54  1  0  0  0  0
M  END
>  <MODEL>
6

>  <REMARK>
 VINA RESULT:      -6.3      2.805      6.940
  Name = 
  18 active torsions:
  status: ('A' for Active; 'I' for Inactive)
    1  A    between atoms: C_1  and  C_29
    2  A    between atoms: O_2  and  C_11
    3  A    between atoms: O_2  and  C_51
    4  A    between atoms: C_7  and  S_12
    5  A    between atoms: C_11  and  O_13
    6  A    between atoms: C_11  and  C_35
    7  A    between atoms: S_12  and  C_28
    8  A    between atoms: O_13  and  C_34
    9  A    between atoms: C_15  and  O_38
   10  A    between atoms: C_17  and  C_26
   11  A    between atoms: C_20  and  C_34
   12  A    between atoms: C_21  and  C_27
   13  A    between atoms: O_22  and  C_28
   14  A    between atoms: C_27  and  O_38
   15  A    between atoms: C_28  and  C_46
   16  A    between atoms: C_32  and  C_51
   17  A    between atoms: C_44  and  C_52
   18  A    between atoms: C_45  and  C_49
                            x       y       z     vdW  Elec       q    Type
                         _______ _______ _______ _____ _____    ______ ____

>  <TORSDO>
F 18

$$$$
=
 OpenBabel11062421353D

 55 60  0  0  1  0  0  0  0  0999 V2000
  192.7010  172.9630  144.2770 C   0  0  2  0  0  3  0  0  0  0  0  0
  193.1060  173.7640  143.0680 C   0  0  0  0  0  2  0  0  0  0  0  0
  192.5700  173.8370  145.3700 O   0  0  0  0  0  0  0  0  0  0  0  0
  192.2320  175.0940  144.8410 C   0  0  1  0  0  3  0  0  0  0  0  0
  192.5840  175.1320  143.3560 C   0  0  1  0  0  3  0  0  0  0  0  0
  195.7630  176.3920  142.1410 C   0  0  2  0  0  3  0  0  0  0  0  0
  195.3690  175.7040  144.4050 O   0  0  0  0  0  0  0  0  0  0  0  0
  196.3730  176.1840  143.5420 C   0  0  0  0  0  2  0  0  0  0  0  0
  193.6580  176.1820  143.0730 C   0  0  1  0  0  3  0  0  0  0  0  0
  194.3430  176.5360  144.2690 O   0  0  0  0  0  0  0  0  0  0  0  0
  194.5280  175.7170  142.0500 O   0  0  0  0  0  0  0  0  0  0  0  0
  195.9480  175.0990  140.0140 C   0  0  2  0  0  3  0  0  0  0  0  0
  196.6680  175.9760  140.9680 C   0  0  2  0  0  3  0  0  0  0  0  0
  196.8840  174.5830  140.9290 O   0  0  0  0  0  0  0  0  0  0  0  0
  196.5830  175.1950  138.6420 C   0  0  0  0  0  2  0  0  0  0  0  0
  195.5810  175.3470  137.6650 O   0  0  0  0  0  0  0  0  0  0  0  0
  195.5970  174.2350  136.7800 C   0  0  2  0  0  0  0  0  0  0  0  0
  196.5590  173.3190  137.2370 O   0  0  0  0  0  1  0  0  0  0  0  0
  197.4950  174.9980  135.2710 C   0  0  0  0  0  1  0  0  0  0  0  0
  196.0070  174.6870  135.3630 C   0  0  2  0  0  3  0  0  0  0  0  0
  195.2730  175.8110  134.9760 O   0  0  0  0  0  1  0  0  0  0  0  0
  194.3270  173.6060  136.7100 O   0  0  0  0  0  0  0  0  0  0  0  0
  194.2210  172.6590  137.7460 C   0  0  0  0  0  2  0  0  0  0  0  0
  190.6680  173.3030  137.0400 C   0  0  0  0  0  3  0  0  0  0  0  0
  191.8780  172.7420  136.9170 C   0  0  0  0  0  3  0  0  0  0  0  0
  190.8950  173.2170  139.5610 C   0  0  0  0  0  2  0  0  0  0  0  0
  192.7620  172.4580  138.1080 C   0  0  2  0  0  3  0  0  0  0  0  0
  192.3950  173.3200  139.3120 C   0  0  0  0  0  2  0  0  0  0  0  0
  190.1420  173.8000  138.3670 C   0  0  2  0  0  3  0  0  0  0  0  0
  187.8530  174.4050  138.0720 O   0  0  0  0  0  0  0  0  0  0  0  0
  188.6760  173.5440  138.4910 C   0  0  0  0  0  0  0  0  0  0  0  0
  188.2100  172.3680  139.0750 O   0  0  0  0  0  1  0  0  0  0  0  0
  193.7170  171.9080  144.5830 C   0  0  0  0  0  0  0  0  0  0  0  0
  194.1680  171.7870  145.7570 O   0  0  0  0  0  1  0  0  0  0  0  0
  194.1570  171.0450  143.5800 O   0  0  0  0  0  0  0  0  0  0  0  0
  190.2680  174.5080  146.2060 C   0  0  0  0  0  1  0  0  0  0  0  0
  190.7600  175.4890  145.1280 C   0  0  1  0  0  0  0  0  0  0  0  0
  190.7060  176.8390  145.5850 O   0  0  0  0  0  0  0  0  0  0  0  0
  190.1570  176.8950  146.8860 C   0  0  0  0  0  1  0  0  0  0  0  0
  189.7050  175.1670  143.6340 S   0  0  0  0  0  0  0  0  0  0  0  0
  185.1830  177.6660  143.1580 C   0  0  0  0  0  2  0  0  0  0  0  0
  187.1370  178.3300  144.6550 C   0  0  0  0  0  2  0  0  0  0  0  0
  188.5330  176.5910  143.4660 C   0  0  1  0  0  0  0  0  0  0  0  0
  187.5520  176.8470  144.5320 C   0  0  2  0  0  3  0  0  0  0  0  0
  185.5340  179.9030  143.8830 O   0  0  0  0  0  1  0  0  0  0  0  0
  189.0460  177.7560  142.6030 C   0  0  0  0  0  1  0  0  0  0  0  0
  187.1200  176.1800  143.2620 N   0  0  1  0  0  0  0  0  0  0  0  0
  185.6580  178.5740  144.3060 C   0  0  1  0  0  0  0  0  0  0  0  0
  186.3560  177.0820  142.3850 C   0  0  0  0  0  2  0  0  0  0  0  0
  184.7750  178.3600  145.5510 C   0  0  0  0  0  0  0  0  0  0  0  0
  183.4500  178.6430  145.2370 F   0  0  0  0  0  0  0  0  0  0  0  0
  184.8770  177.0330  145.9400 F   0  0  0  0  0  0  0  0  0  0  0  0
  185.2170  179.2020  146.5890 O   0  0  0  0  0  0  0  0  0  0  0  0
  186.7700  179.1360  148.4040 C   0  0  0  0  0  1  0  0  0  0  0  0
  185.7100  178.3960  147.6240 C   0  0  0  0  0  2  0  0  0  0  0  0
  1 33  1  1  0  0  0
  1  3  1  0  0  0  0
  2  1  1  0  0  0  0
  4 37  1  6  0  0  0
  4  3  1  0  0  0  0
  5  2  1  1  0  0  0
  5  4  1  0  0  0  0
  6  8  1  1  0  0  0
  8  7  1  0  0  0  0
  9 11  1  6  0  0  0
  9  5  1  0  0  0  0
  9 10  1  0  0  0  0
 10  7  1  0  0  0  0
 11  6  1  0  0  0  0
 12 15  1  6  0  0  0
 12 14  1  0  0  0  0
 12 13  1  0  0  0  0
 13 14  1  1  0  0  0
 13  6  1  0  0  0  0
 16 15  1  0  0  0  0
 17 18  1  1  0  0  0
 17 16  1  0  0  0  0
 20 19  1  1  0  0  0
 20 17  1  0  0  0  0
 21 20  1  0  0  0  0
 22 17  1  0  0  0  0
 22 23  1  0  0  0  0
 24 29  1  0  0  0  0
 25 24  2  0  0  0  0
 25 27  1  0  0  0  0
 27 23  1  6  0  0  0
 27 28  1  0  0  0  0
 28 26  1  0  0  0  0
 29 31  1  1  0  0  0
 29 26  1  0  0  0  0
 30 31  2  0  0  0  0
 31 32  1  0  0  0  0
 33 34  1  0  0  0  0
 35 33  2  0  0  0  0
 37 38  1  0  0  0  0
 37 36  1  1  0  0  0
 38 39  1  0  0  0  0
 40 37  1  0  0  0  0
 41 48  1  0  0  0  0
 43 46  1  6  0  0  0
 43 40  1  0  0  0  0
 43 44  1  0  0  0  0
 44 42  1  6  0  0  0
 47 49  1  6  0  0  0
 47 43  1  0  0  0  0
 47 44  1  0  0  0  0
 48 45  1  6  0  0  0
 48 42  1  0  0  0  0
 48 50  1  0  0  0  0
 49 41  1  0  0  0  0
 50 52  1  0  0  0  0
 50 53  1  0  0  0  0
 51 50  1  0  0  0  0
 53 55  1  0  0  0  0
 55 54  1  0  0  0  0
M  END
>  <MODEL>
7

>  <REMARK>
 VINA RESULT:      -6.2      3.330      8.114
  Name = 
  18 active torsions:
  status: ('A' for Active; 'I' for Inactive)
    1  A    between atoms: C_1  and  C_29
    2  A    between atoms: O_2  and  C_11
    3  A    between atoms: O_2  and  C_51
    4  A    between atoms: C_7  and  S_12
    5  A    between atoms: C_11  and  O_13
    6  A    between atoms: C_11  and  C_35
    7  A    between atoms: S_12  and  C_28
    8  A    between atoms: O_13  and  C_34
    9  A    between atoms: C_15  and  O_38
   10  A    between atoms: C_17  and  C_26
   11  A    between atoms: C_20  and  C_34
   12  A    between atoms: C_21  and  C_27
   13  A    between atoms: O_22  and  C_28
   14  A    between atoms: C_27  and  O_38
   15  A    between atoms: C_28  and  C_46
   16  A    between atoms: C_32  and  C_51
   17  A    between atoms: C_44  and  C_52
   18  A    between atoms: C_45  and  C_49
                            x       y       z     vdW  Elec       q    Type
                         _______ _______ _______ _____ _____    ______ ____

>  <TORSDO>
F 18

$$$$
=
 OpenBabel11062421353D

 55 60  0  0  1  0  0  0  0  0999 V2000
  196.2080  172.2960  144.9070 C   0  0  2  0  0  3  0  0  0  0  0  0
  196.3480  173.4230  145.8950 C   0  0  0  0  0  2  0  0  0  0  0  0
  195.1110  172.5660  144.0700 O   0  0  0  0  0  0  0  0  0  0  0  0
  194.9790  173.9640  144.0210 C   0  0  1  0  0  3  0  0  0  0  0  0
  195.7280  174.5870  145.1970 C   0  0  1  0  0  3  0  0  0  0  0  0
  192.5200  175.7890  146.3930 C   0  0  2  0  0  3  0  0  0  0  0  0
  193.9960  177.0660  144.9980 O   0  0  0  0  0  0  0  0  0  0  0  0
  192.7340  177.1080  145.6230 C   0  0  0  0  0  2  0  0  0  0  0  0
  194.7690  175.3210  146.1330 C   0  0  1  0  0  3  0  0  0  0  0  0
  194.8610  176.7300  145.9470 O   0  0  0  0  0  0  0  0  0  0  0  0
  193.4500  174.8220  145.9580 O   0  0  0  0  0  0  0  0  0  0  0  0
  190.1010  176.1430  146.8930 C   0  0  2  0  0  3  0  0  0  0  0  0
  191.0960  175.2120  146.3120 C   0  0  2  0  0  3  0  0  0  0  0  0
  190.5330  174.9970  147.5870 O   0  0  0  0  0  0  0  0  0  0  0  0
  188.7350  175.8820  146.2920 C   0  0  0  0  0  2  0  0  0  0  0  0
  188.1950  177.0870  145.8010 O   0  0  0  0  0  0  0  0  0  0  0  0
  188.2900  177.1160  144.3840 C   0  0  2  0  0  0  0  0  0  0  0  0
  189.3830  177.9260  144.0300 O   0  0  0  0  0  1  0  0  0  0  0  0
  185.9400  176.7040  143.5080 C   0  0  0  0  0  1  0  0  0  0  0  0
  187.0180  177.7440  143.7770 C   0  0  2  0  0  3  0  0  0  0  0  0
  187.3220  178.4170  142.5910 O   0  0  0  0  0  1  0  0  0  0  0  0
  188.4610  175.8140  143.8450 O   0  0  0  0  0  0  0  0  0  0  0  0
  189.4740  175.8460  142.8690 C   0  0  0  0  0  2  0  0  0  0  0  0
  190.4890  172.8500  140.9880 C   0  0  0  0  0  3  0  0  0  0  0  0
  190.5150  174.1210  141.4090 C   0  0  0  0  0  3  0  0  0  0  0  0
  190.0140  172.0850  143.3550 C   0  0  0  0  0  2  0  0  0  0  0  0
  190.1870  174.5080  142.8320 C   0  0  2  0  0  3  0  0  0  0  0  0
  189.3500  173.4440  143.5370 C   0  0  0  0  0  2  0  0  0  0  0  0
  190.0210  171.7180  141.8720 C   0  0  2  0  0  3  0  0  0  0  0  0
  191.5220  170.0030  142.5750 O   0  0  0  0  0  1  0  0  0  0  0  0
  190.8300  170.4850  141.6360 C   0  0  0  0  0  0  0  0  0  0  0  0
  190.8360  169.8710  140.3860 O   0  0  0  0  0  0  0  0  0  0  0  0
  196.0070  170.9910  145.6110 C   0  0  0  0  0  0  0  0  0  0  0  0
  194.8510  170.4850  145.6850 O   0  0  0  0  0  0  0  0  0  0  0  0
  197.0930  170.3210  146.1730 O   0  0  0  0  0  1  0  0  0  0  0  0
  194.1550  175.3020  142.1260 C   0  0  0  0  0  1  0  0  0  0  0  0
  195.3950  174.5580  142.6500 C   0  0  1  0  0  0  0  0  0  0  0  0
  196.5010  175.4420  142.8260 O   0  0  0  0  0  0  0  0  0  0  0  0
  197.6730  174.8750  142.2760 C   0  0  0  0  0  1  0  0  0  0  0  0
  195.7180  173.1960  141.4310 S   0  0  0  0  0  0  0  0  0  0  0  0
  193.8610  172.8550  136.5980 C   0  0  0  0  0  2  0  0  0  0  0  0
  193.0630  174.4440  138.4250 C   0  0  0  0  0  2  0  0  0  0  0  0
  195.0790  173.7610  139.7860 C   0  0  1  0  0  0  0  0  0  0  0  0
  193.7020  173.4250  139.3950 C   0  0  2  0  0  3  0  0  0  0  0  0
  192.7700  174.9120  136.1160 O   0  0  0  0  0  1  0  0  0  0  0  0
  195.7430  175.0340  139.2350 C   0  0  0  0  0  1  0  0  0  0  0  0
  194.8520  172.6540  138.8220 N   0  0  1  0  0  0  0  0  0  0  0  0
  192.7740  173.8540  137.0330 C   0  0  1  0  0  0  0  0  0  0  0  0
  195.1300  173.0150  137.4230 C   0  0  0  0  0  2  0  0  0  0  0  0
  191.3920  173.1740  137.0200 C   0  0  0  0  0  0  0  0  0  0  0  0
  191.0870  172.7630  135.7260 F   0  0  0  0  0  0  0  0  0  0  0  0
  191.4410  172.0630  137.8500 F   0  0  0  0  0  0  0  0  0  0  0  0
  190.4190  174.0790  137.4830 O   0  0  0  0  0  0  0  0  0  0  0  0
  188.2120  174.1660  138.3950 C   0  0  0  0  0  1  0  0  0  0  0  0
  189.1880  173.4140  137.5210 C   0  0  0  0  0  2  0  0  0  0  0  0
  1 33  1  1  0  0  0
  1  2  1  0  0  0  0
  3  1  1  0  0  0  0
  4 37  1  6  0  0  0
  4  3  1  0  0  0  0
  4  5  1  0  0  0  0
  5  2  1  1  0  0  0
  5  9  1  0  0  0  0
  6  8  1  6  0  0  0
  7  8  1  0  0  0  0
  7 10  1  0  0  0  0
  9 10  1  6  0  0  0
 11  9  1  0  0  0  0
 11  6  1  0  0  0  0
 12 15  1  6  0  0  0
 12 14  1  0  0  0  0
 13  6  1  0  0  0  0
 13 12  1  0  0  0  0
 13 14  1  1  0  0  0
 16 15  1  0  0  0  0
 17 18  1  6  0  0  0
 17 16  1  0  0  0  0
 20 19  1  6  0  0  0
 20 17  1  0  0  0  0
 21 20  1  0  0  0  0
 22 17  1  0  0  0  0
 23 22  1  0  0  0  0
 24 25  2  0  0  0  0
 24 29  1  0  0  0  0
 25 27  1  0  0  0  0
 26 28  1  0  0  0  0
 27 23  1  6  0  0  0
 27 28  1  0  0  0  0
 29 31  1  1  0  0  0
 29 26  1  0  0  0  0
 31 30  1  0  0  0  0
 32 31  2  0  0  0  0
 33 34  2  0  0  0  0
 33 35  1  0  0  0  0
 37 36  1  6  0  0  0
 37 38  1  0  0  0  0
 39 38  1  0  0  0  0
 40 37  1  0  0  0  0
 41 48  1  0  0  0  0
 41 49  1  0  0  0  0
 43 46  1  6  0  0  0
 43 40  1  0  0  0  0
 44 42  1  6  0  0  0
 44 43  1  0  0  0  0
 47 49  1  6  0  0  0
 47 44  1  0  0  0  0
 47 43  1  0  0  0  0
 48 45  1  6  0  0  0
 48 42  1  0  0  0  0
 50 48  1  0  0  0  0
 50 53  1  0  0  0  0
 50 52  1  0  0  0  0
 51 50  1  0  0  0  0
 53 55  1  0  0  0  0
 55 54  1  0  0  0  0
M  END
>  <MODEL>
8

>  <REMARK>
 VINA RESULT:      -6.2      3.162      8.581
  Name = 
  18 active torsions:
  status: ('A' for Active; 'I' for Inactive)
    1  A    between atoms: C_1  and  C_29
    2  A    between atoms: O_2  and  C_11
    3  A    between atoms: O_2  and  C_51
    4  A    between atoms: C_7  and  S_12
    5  A    between atoms: C_11  and  O_13
    6  A    between atoms: C_11  and  C_35
    7  A    between atoms: S_12  and  C_28
    8  A    between atoms: O_13  and  C_34
    9  A    between atoms: C_15  and  O_38
   10  A    between atoms: C_17  and  C_26
   11  A    between atoms: C_20  and  C_34
   12  A    between atoms: C_21  and  C_27
   13  A    between atoms: O_22  and  C_28
   14  A    between atoms: C_27  and  O_38
   15  A    between atoms: C_28  and  C_46
   16  A    between atoms: C_32  and  C_51
   17  A    between atoms: C_44  and  C_52
   18  A    between atoms: C_45  and  C_49
                            x       y       z     vdW  Elec       q    Type
                         _______ _______ _______ _____ _____    ______ ____

>  <TORSDO>
F 18

$$$$
=
 OpenBabel11062421353D

 55 60  0  0  1  0  0  0  0  0999 V2000
  190.3760  176.1320  146.1890 C   0  0  2  0  0  3  0  0  0  0  0  0
  189.5420  174.8870  146.0390 C   0  0  0  0  0  2  0  0  0  0  0  0
  191.5120  176.0120  145.3700 O   0  0  0  0  0  0  0  0  0  0  0  0
  191.1520  175.1690  144.3050 C   0  0  1  0  0  3  0  0  0  0  0  0
  189.8990  174.3810  144.6810 C   0  0  1  0  0  3  0  0  0  0  0  0
  191.7660  171.3330  144.0550 C   0  0  2  0  0  3  0  0  0  0  0  0
  189.9960  172.1350  142.6480 O   0  0  0  0  0  0  0  0  0  0  0  0
  190.9500  171.1050  142.7670 C   0  0  0  0  0  2  0  0  0  0  0  0
  190.1890  172.8810  144.7320 C   0  0  1  0  0  3  0  0  0  0  0  0
  189.3590  172.1770  143.8130 O   0  0  0  0  0  0  0  0  0  0  0  0
  191.5750  172.6510  144.5190 O   0  0  0  0  0  0  0  0  0  0  0  0
  193.7760  171.3660  142.5770 C   0  0  2  0  0  3  0  0  0  0  0  0
  193.2720  171.0410  143.9320 C   0  0  2  0  0  3  0  0  0  0  0  0
  193.5450  170.0380  142.9790 O   0  0  0  0  0  0  0  0  0  0  0  0
  195.2620  171.6590  142.6330 C   0  0  0  0  0  2  0  0  0  0  0  0
  195.4660  173.0270  142.9000 O   0  0  0  0  0  0  0  0  0  0  0  0
  196.8400  173.3500  142.7420 C   0  0  2  0  0  0  0  0  0  0  0  0
  197.5490  172.1620  142.4970 O   0  0  0  0  0  1  0  0  0  0  0  0
  196.9350  173.2170  145.2790 C   0  0  0  0  0  1  0  0  0  0  0  0
  197.3940  173.9730  144.0400 C   0  0  2  0  0  3  0  0  0  0  0  0
  197.0090  175.3120  144.1430 O   0  0  0  0  0  1  0  0  0  0  0  0
  197.0420  174.2610  141.6730 O   0  0  0  0  0  0  0  0  0  0  0  0
  197.5490  173.5650  140.5600 C   0  0  0  0  0  2  0  0  0  0  0  0
  194.6420  175.2540  139.0640 C   0  0  0  0  0  3  0  0  0  0  0  0
  195.8760  175.1140  139.5670 C   0  0  0  0  0  3  0  0  0  0  0  0
  194.9010  173.0520  137.8410 C   0  0  0  0  0  2  0  0  0  0  0  0
  196.7060  173.8740  139.3380 C   0  0  2  0  0  3  0  0  0  0  0  0
  195.8440  172.6670  138.9740 C   0  0  0  0  0  2  0  0  0  0  0  0
  193.9410  174.1370  138.3270 C   0  0  2  0  0  3  0  0  0  0  0  0
  192.3260  173.9110  136.5870 O   0  0  0  0  0  0  0  0  0  0  0  0
  193.1300  174.6720  137.1930 C   0  0  0  0  0  0  0  0  0  0  0  0
  193.2630  175.9990  136.7920 O   0  0  0  0  0  1  0  0  0  0  0  0
  190.7890  176.3290  147.6130 C   0  0  0  0  0  0  0  0  0  0  0  0
  191.3150  175.3760  148.2560 O   0  0  0  0  0  1  0  0  0  0  0  0
  190.6100  177.5650  148.2320 O   0  0  0  0  0  0  0  0  0  0  0  0
  190.9610  177.4210  143.3280 C   0  0  0  0  0  1  0  0  0  0  0  0
  191.0110  175.9290  142.9600 C   0  0  1  0  0  0  0  0  0  0  0  0
  192.1290  175.6330  142.1230 O   0  0  0  0  0  0  0  0  0  0  0  0
  191.9380  174.3930  141.4720 C   0  0  0  0  0  1  0  0  0  0  0  0
  189.3730  175.5470  142.1740 S   0  0  0  0  0  0  0  0  0  0  0  0
  184.9060  177.9060  143.3570 C   0  0  0  0  0  2  0  0  0  0  0  0
  187.1740  178.3080  144.4500 C   0  0  0  0  0  2  0  0  0  0  0  0
  188.2150  176.9260  142.6090 C   0  0  1  0  0  0  0  0  0  0  0  0
  187.5270  176.9050  143.9080 C   0  0  2  0  0  3  0  0  0  0  0  0
  185.4540  179.9450  144.4500 O   0  0  0  0  0  1  0  0  0  0  0  0
  188.5200  178.2700  141.9260 C   0  0  0  0  0  1  0  0  0  0  0  0
  186.7900  176.5120  142.6640 N   0  0  1  0  0  0  0  0  0  0  0  0
  185.6580  178.5620  144.5290 C   0  0  1  0  0  0  0  0  0  0  0  0
  185.8490  177.5510  142.2160 C   0  0  0  0  0  2  0  0  0  0  0  0
  185.1020  178.0490  145.8710 C   0  0  0  0  0  0  0  0  0  0  0  0
  183.9570  178.7660  146.2050 F   0  0  0  0  0  0  0  0  0  0  0  0
  184.7730  176.7090  145.7270 F   0  0  0  0  0  0  0  0  0  0  0  0
  186.0780  178.2000  146.8720 O   0  0  0  0  0  0  0  0  0  0  0  0
  186.4290  180.1680  148.1820 C   0  0  0  0  0  1  0  0  0  0  0  0
  185.5340  178.9850  147.8960 C   0  0  0  0  0  2  0  0  0  0  0  0
  1 33  1  1  0  0  0
  2  1  1  0  0  0  0
  3  1  1  0  0  0  0
  4 37  1  6  0  0  0
  4  5  1  0  0  0  0
  4  3  1  0  0  0  0
  5  9  1  0  0  0  0
  5  2  1  1  0  0  0
  6  8  1  6  0  0  0
  6 11  1  0  0  0  0
  7  8  1  0  0  0  0
  7 10  1  0  0  0  0
  9 10  1  6  0  0  0
 11  9  1  0  0  0  0
 12 15  1  1  0  0  0
 12 14  1  0  0  0  0
 12 13  1  0  0  0  0
 13 14  1  6  0  0  0
 13  6  1  0  0  0  0
 15 16  1  0  0  0  0
 17 18  1  6  0  0  0
 17 16  1  0  0  0  0
 17 20  1  0  0  0  0
 20 21  1  0  0  0  0
 20 19  1  1  0  0  0
 22 17  1  0  0  0  0
 23 22  1  0  0  0  0
 24 25  2  0  0  0  0
 26 29  1  0  0  0  0
 26 28  1  0  0  0  0
 27 25  1  0  0  0  0
 27 23  1  1  0  0  0
 28 27  1  0  0  0  0
 29 31  1  6  0  0  0
 29 24  1  0  0  0  0
 30 31  2  0  0  0  0
 32 31  1  0  0  0  0
 33 35  2  0  0  0  0
 33 34  1  0  0  0  0
 37 36  1  1  0  0  0
 38 37  1  0  0  0  0
 39 38  1  0  0  0  0
 40 43  1  0  0  0  0
 40 37  1  0  0  0  0
 41 48  1  0  0  0  0
 42 48  1  0  0  0  0
 43 46  1  6  0  0  0
 43 47  1  0  0  0  0
 43 44  1  0  0  0  0
 44 42  1  6  0  0  0
 47 49  1  6  0  0  0
 47 44  1  0  0  0  0
 48 45  1  6  0  0  0
 48 50  1  0  0  0  0
 49 41  1  0  0  0  0
 50 51  1  0  0  0  0
 50 53  1  0  0  0  0
 52 50  1  0  0  0  0
 53 55  1  0  0  0  0
 55 54  1  0  0  0  0
M  END
>  <MODEL>
9

>  <REMARK>
 VINA RESULT:      -6.1      3.485      7.417
  Name = 
  18 active torsions:
  status: ('A' for Active; 'I' for Inactive)
    1  A    between atoms: C_1  and  C_29
    2  A    between atoms: O_2  and  C_11
    3  A    between atoms: O_2  and  C_51
    4  A    between atoms: C_7  and  S_12
    5  A    between atoms: C_11  and  O_13
    6  A    between atoms: C_11  and  C_35
    7  A    between atoms: S_12  and  C_28
    8  A    between atoms: O_13  and  C_34
    9  A    between atoms: C_15  and  O_38
   10  A    between atoms: C_17  and  C_26
   11  A    between atoms: C_20  and  C_34
   12  A    between atoms: C_21  and  C_27
   13  A    between atoms: O_22  and  C_28
   14  A    between atoms: C_27  and  O_38
   15  A    between atoms: C_28  and  C_46
   16  A    between atoms: C_32  and  C_51
   17  A    between atoms: C_44  and  C_52
   18  A    between atoms: C_45  and  C_49
                            x       y       z     vdW  Elec       q    Type
                         _______ _______ _______ _____ _____    ______ ____

>  <TORSDO>
F 18

$$$$
