=
 OpenBabel11062423093D

 28 32  0  0  1  0  0  0  0  0999 V2000
  187.4180  176.7820  141.1940 C   0  0  0  0  0  2  0  0  0  0  0  0
  187.2700  178.2950  143.0810 N   0  0  0  0  0  0  0  0  0  0  0  0
  188.2990  177.2850  143.3590 C   0  0  1  0  0  3  0  0  0  0  0  0
  188.6040  176.5260  142.0820 C   0  0  1  0  0  3  0  0  0  0  0  0
  186.8930  178.1160  141.6750 C   0  0  0  0  0  2  0  0  0  0  0  0
  188.8660  175.0420  142.3460 C   0  0  0  0  0  3  0  0  0  0  0  0
  187.7130  174.1400  141.8890 C   0  0  0  0  0  2  0  0  0  0  0  0
  189.2990  172.3390  141.4060 N   0  0  0  0  0  2  0  0  0  0  0  0
  188.0780  172.6790  142.1360 C   0  0  0  0  0  2  0  0  0  0  0  0
  190.1820  174.6040  141.7060 C   0  0  0  0  0  2  0  0  0  0  0  0
  190.4050  173.1160  141.9640 C   0  0  0  0  0  2  0  0  0  0  0  0
  186.0960  178.0210  143.9280 C   0  0  2  0  0  3  0  0  0  0  0  0
  185.8800  179.1230  144.9630 C   0  0  0  0  0  1  0  0  0  0  0  0
  186.2030  176.6690  144.6450 C   0  0  0  0  0  2  0  0  0  0  0  0
  185.9220  176.7840  146.1370 C   0  0  0  0  0  1  0  0  0  0  0  0
  189.5570  177.9210  143.9540 C   0  0  0  0  0  2  0  0  0  0  0  0
  192.5770  175.1460  145.7140 C   0  0  0  0  0  0  0  0  0  0  0  0
  190.9210  176.8550  145.5980 C   0  0  0  0  0  0  0  0  0  0  0  0
  189.6620  176.2020  145.6040 C   0  0  0  0  0  0  0  0  0  0  0  0
  192.1800  172.8330  145.0840 F   0  0  0  0  0  0  0  0  0  0  0  0
  189.7430  177.5850  145.4270 C   0  0  2  0  0  3  0  0  0  0  0  0
  192.2930  176.4660  145.7780 C   0  0  0  0  0  3  0  0  0  0  0  0
  190.1470  173.9020  145.6870 C   0  0  0  0  0  3  0  0  0  0  0  0
  189.2040  174.8550  145.7930 C   0  0  0  0  0  3  0  0  0  0  0  0
  191.5860  174.0800  145.1660 C   0  0  1  0  0  3  0  0  0  0  0  0
  194.8220  174.7600  144.8350 N   0  0  0  0  0  2  0  0  0  0  0  0
  193.9840  174.7190  146.0480 C   0  0  1  0  0  3  0  0  0  0  0  0
  194.9540  175.8040  145.8570 C   0  0  0  0  0  2  0  0  0  0  0  0
  1  5  1  0  0  0  0
  1  4  1  0  0  0  0
  2  3  1  0  0  0  0
  2 12  1  0  0  0  0
  3 16  1  6  0  0  0
  4  6  1  1  0  0  0
  4  3  1  0  0  0  0
  5  2  1  0  0  0  0
  7  9  1  0  0  0  0
  7  6  1  0  0  0  0
  8 11  1  0  0  0  0
  8  9  1  0  0  0  0
 10 11  1  0  0  0  0
 10  6  1  0  0  0  0
 12 14  1  0  0  0  0
 12 13  1  1  0  0  0
 14 15  1  0  0  0  0
 17 22  2  0  0  0  0
 18 19  2  0  0  0  0
 18 22  1  0  0  0  0
 19 24  1  0  0  0  0
 21 16  1  6  0  0  0
 21 18  1  0  0  0  0
 21 19  1  0  0  0  0
 23 24  2  0  0  0  0
 25 20  1  1  0  0  0
 25 23  1  0  0  0  0
 25 17  1  0  0  0  0
 26 28  1  0  0  0  0
 26 27  1  0  0  0  0
 27 17  1  6  0  0  0
 28 27  1  0  0  0  0
M  END
>  <MODEL>
1

>  <REMARK>
 VINA RESULT:      -6.9      0.000      0.000
  Name = 
  6 active torsions:
  status: ('A' for Active; 'I' for Inactive)
    1  A    between atoms: C_1  and  C_5
    2  A    between atoms: C_1  and  N_7
    3  A    between atoms: C_3  and  C_13
    4  A    between atoms: C_8  and  C_18
    5  A    between atoms: C_9  and  C_15
    6  A    between atoms: C_18  and  C_20
                            x       y       z     vdW  Elec       q    Type
                         _______ _______ _______ _____ _____    ______ ____

>  <TORSDO>
F 6

$$$$
=
 OpenBabel11062423093D

 28 32  0  0  1  0  0  0  0  0999 V2000
  192.4310  172.9900  144.1920 C   0  0  0  0  0  2  0  0  0  0  0  0
  192.7620  174.6550  145.9220 N   0  0  0  0  0  0  0  0  0  0  0  0
  191.4400  174.8550  145.3130 C   0  0  1  0  0  3  0  0  0  0  0  0
  191.1060  173.6530  144.4500 C   0  0  1  0  0  3  0  0  0  0  0  0
  193.2670  173.3850  145.3880 C   0  0  0  0  0  2  0  0  0  0  0  0
  190.3590  174.0520  143.1760 C   0  0  0  0  0  3  0  0  0  0  0  0
  190.9250  173.3860  141.9170 C   0  0  0  0  0  2  0  0  0  0  0  0
  188.6980  173.3920  140.9010 N   0  0  0  0  0  2  0  0  0  0  0  0
  190.0910  173.7910  140.7050 C   0  0  0  0  0  2  0  0  0  0  0  0
  188.8650  173.7680  143.3160 C   0  0  0  0  0  2  0  0  0  0  0  0
  188.1490  174.1520  142.0230 C   0  0  0  0  0  2  0  0  0  0  0  0
  193.6530  175.7430  145.4870 C   0  0  2  0  0  3  0  0  0  0  0  0
  194.0000  176.6820  146.6410 C   0  0  0  0  0  1  0  0  0  0  0  0
  193.0510  176.5600  144.3360 C   0  0  0  0  0  2  0  0  0  0  0  0
  193.7210  176.2600  143.0030 C   0  0  0  0  0  1  0  0  0  0  0  0
  190.3700  175.1030  146.3780 C   0  0  0  0  0  2  0  0  0  0  0  0
  186.3530  176.9850  145.8800 C   0  0  0  0  0  0  0  0  0  0  0  0
  188.6380  176.7410  146.5120 C   0  0  0  0  0  0  0  0  0  0  0  0
  189.4110  177.0360  145.3600 C   0  0  0  0  0  0  0  0  0  0  0  0
  185.5670  176.8830  143.5840 F   0  0  0  0  0  0  0  0  0  0  0  0
  190.0240  176.5780  146.5300 C   0  0  2  0  0  3  0  0  0  0  0  0
  187.2500  176.8200  146.8790 C   0  0  0  0  0  3  0  0  0  0  0  0
  187.8550  177.5130  143.6630 C   0  0  0  0  0  3  0  0  0  0  0  0
  189.1430  177.5450  144.0460 C   0  0  0  0  0  3  0  0  0  0  0  0
  186.6970  176.7900  144.3760 C   0  0  1  0  0  3  0  0  0  0  0  0
  184.8330  178.3030  147.2630 N   0  0  0  0  0  2  0  0  0  0  0  0
  184.9140  177.2170  146.2680 C   0  0  1  0  0  3  0  0  0  0  0  0
  184.4390  178.5470  145.8710 C   0  0  0  0  0  2  0  0  0  0  0  0
  1  4  1  0  0  0  0
  1  5  1  0  0  0  0
  3  2  1  0  0  0  0
  3 16  1  1  0  0  0
  4  6  1  6  0  0  0
  4  3  1  0  0  0  0
  5  2  1  0  0  0  0
  6 10  1  0  0  0  0
  7  6  1  0  0  0  0
  8 11  1  0  0  0  0
  9  8  1  0  0  0  0
  9  7  1  0  0  0  0
 11 10  1  0  0  0  0
 12  2  1  0  0  0  0
 12 13  1  1  0  0  0
 14 12  1  0  0  0  0
 15 14  1  0  0  0  0
 17 22  2  0  0  0  0
 18 21  1  0  0  0  0
 18 22  1  0  0  0  0
 19 18  2  0  0  0  0
 19 21  1  0  0  0  0
 21 16  1  6  0  0  0
 23 24  2  0  0  0  0
 23 25  1  0  0  0  0
 24 19  1  0  0  0  0
 25 20  1  6  0  0  0
 25 17  1  0  0  0  0
 27 17  1  6  0  0  0
 27 26  1  0  0  0  0
 28 27  1  0  0  0  0
 28 26  1  0  0  0  0
M  END
>  <MODEL>
2

>  <REMARK>
 VINA RESULT:      -6.8      2.212      6.133
  Name = 
  6 active torsions:
  status: ('A' for Active; 'I' for Inactive)
    1  A    between atoms: C_1  and  C_5
    2  A    between atoms: C_1  and  N_7
    3  A    between atoms: C_3  and  C_13
    4  A    between atoms: C_8  and  C_18
    5  A    between atoms: C_9  and  C_15
    6  A    between atoms: C_18  and  C_20
                            x       y       z     vdW  Elec       q    Type
                         _______ _______ _______ _____ _____    ______ ____

>  <TORSDO>
F 6

$$$$
=
 OpenBabel11062423093D

 28 32  0  0  1  0  0  0  0  0999 V2000
  191.5060  172.7370  144.0950 C   0  0  0  0  0  2  0  0  0  0  0  0
  192.3120  174.6960  145.2720 N   0  0  0  0  0  0  0  0  0  0  0  0
  190.9150  174.9170  144.8780 C   0  0  1  0  0  3  0  0  0  0  0  0
  190.3180  173.6030  144.4120 C   0  0  1  0  0  3  0  0  0  0  0  0
  192.5960  173.2850  144.9870 C   0  0  0  0  0  2  0  0  0  0  0  0
  189.3630  173.7930  143.2320 C   0  0  0  0  0  3  0  0  0  0  0  0
  190.0450  174.4030  142.0020 C   0  0  0  0  0  2  0  0  0  0  0  0
  188.5150  173.1790  140.5350 N   0  0  0  0  0  2  0  0  0  0  0  0
  189.0400  174.5040  140.8580 C   0  0  0  0  0  2  0  0  0  0  0  0
  188.6770  172.4750  142.8760 C   0  0  0  0  0  2  0  0  0  0  0  0
  187.7500  172.6890  141.6820 C   0  0  0  0  0  2  0  0  0  0  0  0
  193.1810  175.5370  144.4310 C   0  0  2  0  0  3  0  0  0  0  0  0
  194.4120  174.7710  143.9510 C   0  0  0  0  0  1  0  0  0  0  0  0
  193.6300  176.8120  145.1550 C   0  0  0  0  0  2  0  0  0  0  0  0
  194.1090  176.5320  146.5730 C   0  0  0  0  0  1  0  0  0  0  0  0
  190.1060  175.5330  146.0210 C   0  0  0  0  0  2  0  0  0  0  0  0
  187.1770  178.0510  143.7830 C   0  0  0  0  0  0  0  0  0  0  0  0
  188.8830  177.4680  145.3420 C   0  0  0  0  0  0  0  0  0  0  0  0
  190.1060  177.4660  144.6240 C   0  0  0  0  0  0  0  0  0  0  0  0
  187.4050  177.8090  141.3770 F   0  0  0  0  0  0  0  0  0  0  0  0
  190.0650  177.0540  145.9580 C   0  0  2  0  0  3  0  0  0  0  0  0
  187.5230  177.8490  145.0750 C   0  0  0  0  0  3  0  0  0  0  0  0
  189.5350  178.0070  142.4080 C   0  0  0  0  0  3  0  0  0  0  0  0
  190.5230  177.8470  143.3050 C   0  0  0  0  0  3  0  0  0  0  0  0
  188.0570  177.6080  142.5800 C   0  0  1  0  0  3  0  0  0  0  0  0
  184.8680  177.4820  143.2320 N   0  0  0  0  0  2  0  0  0  0  0  0
  185.7970  178.5940  143.5080 C   0  0  1  0  0  3  0  0  0  0  0  0
  184.8240  178.1770  144.5230 C   0  0  0  0  0  2  0  0  0  0  0  0
  1  4  1  0  0  0  0
  1  5  1  0  0  0  0
  3  2  1  0  0  0  0
  3 16  1  1  0  0  0
  4  6  1  6  0  0  0
  4  3  1  0  0  0  0
  5  2  1  0  0  0  0
  7  6  1  0  0  0  0
  8  9  1  0  0  0  0
  8 11  1  0  0  0  0
  9  7  1  0  0  0  0
 10  6  1  0  0  0  0
 11 10  1  0  0  0  0
 12 13  1  1  0  0  0
 12 14  1  0  0  0  0
 12  2  1  0  0  0  0
 14 15  1  0  0  0  0
 17 22  2  0  0  0  0
 18 21  1  0  0  0  0
 19 18  2  0  0  0  0
 19 21  1  0  0  0  0
 21 16  1  6  0  0  0
 22 18  1  0  0  0  0
 23 25  1  0  0  0  0
 23 24  2  0  0  0  0
 24 19  1  0  0  0  0
 25 20  1  6  0  0  0
 25 17  1  0  0  0  0
 26 27  1  0  0  0  0
 26 28  1  0  0  0  0
 27 17  1  1  0  0  0
 27 28  1  0  0  0  0
M  END
>  <MODEL>
3

>  <REMARK>
 VINA RESULT:      -6.7      2.061      6.027
  Name = 
  6 active torsions:
  status: ('A' for Active; 'I' for Inactive)
    1  A    between atoms: C_1  and  C_5
    2  A    between atoms: C_1  and  N_7
    3  A    between atoms: C_3  and  C_13
    4  A    between atoms: C_8  and  C_18
    5  A    between atoms: C_9  and  C_15
    6  A    between atoms: C_18  and  C_20
                            x       y       z     vdW  Elec       q    Type
                         _______ _______ _______ _____ _____    ______ ____

>  <TORSDO>
F 6

$$$$
=
 OpenBabel11062423093D

 28 32  0  0  1  0  0  0  0  0999 V2000
  186.4830  176.9370  146.4910 C   0  0  0  0  0  2  0  0  0  0  0  0
  185.8380  177.3480  144.1920 N   0  0  0  0  0  0  0  0  0  0  0  0
  187.1210  176.6320  144.2080 C   0  0  1  0  0  3  0  0  0  0  0  0
  187.3810  176.1140  145.6090 C   0  0  1  0  0  3  0  0  0  0  0  0
  185.3490  177.3350  145.5750 C   0  0  0  0  0  2  0  0  0  0  0  0
  188.8610  176.2010  145.9860 C   0  0  0  0  0  3  0  0  0  0  0  0
  189.1590  177.3230  146.9880 C   0  0  0  0  0  2  0  0  0  0  0  0
  190.9960  176.0080  147.9300 N   0  0  0  0  0  2  0  0  0  0  0  0
  190.6410  177.3030  147.3530 C   0  0  0  0  0  2  0  0  0  0  0  0
  189.3630  174.8570  146.5120 C   0  0  0  0  0  2  0  0  0  0  0  0
  190.8340  174.9800  146.9030 C   0  0  0  0  0  2  0  0  0  0  0  0
  186.0790  178.7420  143.7840 C   0  0  2  0  0  3  0  0  0  0  0  0
  185.1070  179.7040  144.4650 C   0  0  0  0  0  1  0  0  0  0  0  0
  185.9870  178.9250  142.2640 C   0  0  0  0  0  2  0  0  0  0  0  0
  184.8710  178.0920  141.6490 C   0  0  0  0  0  1  0  0  0  0  0  0
  187.1410  175.5040  143.1740 C   0  0  0  0  0  2  0  0  0  0  0  0
  191.5950  175.2790  142.9870 C   0  0  0  0  0  0  0  0  0  0  0  0
  189.3370  175.4250  142.2400 C   0  0  0  0  0  0  0  0  0  0  0  0
  188.9650  176.7910  142.3340 C   0  0  0  0  0  0  0  0  0  0  0  0
  192.6610  176.9410  144.4020 F   0  0  0  0  0  0  0  0  0  0  0  0
  188.0250  175.8220  141.9750 C   0  0  2  0  0  3  0  0  0  0  0  0
  190.5480  174.6670  142.3880 C   0  0  0  0  0  3  0  0  0  0  0  0
  190.8520  177.8980  143.1970 C   0  0  0  0  0  3  0  0  0  0  0  0
  189.6430  178.0220  142.6220 C   0  0  0  0  0  3  0  0  0  0  0  0
  191.4710  176.6130  143.7780 C   0  0  1  0  0  3  0  0  0  0  0  0
  192.9810  173.6840  144.2080 N   0  0  0  0  0  2  0  0  0  0  0  0
  192.9110  174.5440  143.0120 C   0  0  1  0  0  3  0  0  0  0  0  0
  192.7390  173.0920  142.8880 C   0  0  0  0  0  2  0  0  0  0  0  0
  2  3  1  0  0  0  0
  2  5  1  0  0  0  0
  3 16  1  6  0  0  0
  3  4  1  0  0  0  0
  4  6  1  1  0  0  0
  4  1  1  0  0  0  0
  5  1  1  0  0  0  0
  6 10  1  0  0  0  0
  6  7  1  0  0  0  0
  7  9  1  0  0  0  0
  9  8  1  0  0  0  0
 10 11  1  0  0  0  0
 11  8  1  0  0  0  0
 12  2  1  0  0  0  0
 12 13  1  1  0  0  0
 14 12  1  0  0  0  0
 15 14  1  0  0  0  0
 17 25  1  0  0  0  0
 18 19  2  0  0  0  0
 18 22  1  0  0  0  0
 19 24  1  0  0  0  0
 21 18  1  0  0  0  0
 21 19  1  0  0  0  0
 21 16  1  1  0  0  0
 22 17  2  0  0  0  0
 23 25  1  0  0  0  0
 24 23  2  0  0  0  0
 25 20  1  6  0  0  0
 27 17  1  1  0  0  0
 27 26  1  0  0  0  0
 28 27  1  0  0  0  0
 28 26  1  0  0  0  0
M  END
>  <MODEL>
4

>  <REMARK>
 VINA RESULT:      -6.7      2.103      4.273
  Name = 
  6 active torsions:
  status: ('A' for Active; 'I' for Inactive)
    1  A    between atoms: C_1  and  C_5
    2  A    between atoms: C_1  and  N_7
    3  A    between atoms: C_3  and  C_13
    4  A    between atoms: C_8  and  C_18
    5  A    between atoms: C_9  and  C_15
    6  A    between atoms: C_18  and  C_20
                            x       y       z     vdW  Elec       q    Type
                         _______ _______ _______ _____ _____    ______ ____

>  <TORSDO>
F 6

$$$$
=
 OpenBabel11062423093D

 28 32  0  0  1  0  0  0  0  0999 V2000
  191.8720  175.6410  143.2440 C   0  0  0  0  0  2  0  0  0  0  0  0
  190.4340  174.3700  141.7650 N   0  0  0  0  0  0  0  0  0  0  0  0
  189.6190  174.9500  142.8410 C   0  0  1  0  0  3  0  0  0  0  0  0
  190.4480  175.9770  143.5890 C   0  0  1  0  0  3  0  0  0  0  0  0
  191.7640  174.9740  141.8920 C   0  0  0  0  0  2  0  0  0  0  0  0
  190.1590  175.9620  145.0910 C   0  0  0  0  0  3  0  0  0  0  0  0
  191.2330  175.2250  145.9000 C   0  0  0  0  0  2  0  0  0  0  0  0
  190.8260  176.7050  147.8070 N   0  0  0  0  0  2  0  0  0  0  0  0
  190.8990  175.3070  147.3870 C   0  0  0  0  0  2  0  0  0  0  0  0
  189.9630  177.3830  145.6170 C   0  0  0  0  0  2  0  0  0  0  0  0
  189.7010  177.3390  147.1210 C   0  0  0  0  0  2  0  0  0  0  0  0
  190.5460  172.9180  141.9870 C   0  0  2  0  0  3  0  0  0  0  0  0
  189.8510  172.1240  140.8820 C   0  0  0  0  0  1  0  0  0  0  0  0
  189.9750  172.4950  143.3470 C   0  0  0  0  0  2  0  0  0  0  0  0
  191.0320  171.8690  144.2460 C   0  0  0  0  0  1  0  0  0  0  0  0
  188.3260  175.5570  142.2930 C   0  0  0  0  0  2  0  0  0  0  0  0
  185.4870  178.6270  143.8550 C   0  0  0  0  0  0  0  0  0  0  0  0
  187.4730  177.6960  142.9240 C   0  0  0  0  0  0  0  0  0  0  0  0
  187.2350  177.5380  141.5340 C   0  0  0  0  0  0  0  0  0  0  0  0
  183.3030  178.4820  142.8020 F   0  0  0  0  0  0  0  0  0  0  0  0
  188.4170  177.0670  142.1100 C   0  0  2  0  0  3  0  0  0  0  0  0
  186.7880  178.3040  144.0320 C   0  0  0  0  0  3  0  0  0  0  0  0
  185.0310  178.2820  141.1860 C   0  0  0  0  0  3  0  0  0  0  0  0
  186.1960  177.9180  140.6210 C   0  0  0  0  0  3  0  0  0  0  0  0
  184.6290  178.1150  142.6630 C   0  0  1  0  0  3  0  0  0  0  0  0
  184.0440  178.4730  145.8170 N   0  0  0  0  0  2  0  0  0  0  0  0
  184.8050  179.3980  144.9580 C   0  0  1  0  0  3  0  0  0  0  0  0
  185.3150  179.0360  146.2850 C   0  0  0  0  0  2  0  0  0  0  0  0
  1  4  1  0  0  0  0
  2  5  1  0  0  0  0
  2 12  1  0  0  0  0
  2  3  1  0  0  0  0
  3 16  1  6  0  0  0
  3  4  1  0  0  0  0
  4  6  1  1  0  0  0
  5  1  1  0  0  0  0
  6 10  1  0  0  0  0
  6  7  1  0  0  0  0
  7  9  1  0  0  0  0
  9  8  1  0  0  0  0
 10 11  1  0  0  0  0
 11  8  1  0  0  0  0
 12 13  1  6  0  0  0
 12 14  1  0  0  0  0
 14 15  1  0  0  0  0
 17 22  2  0  0  0  0
 18 22  1  0  0  0  0
 19 21  1  0  0  0  0
 19 18  2  0  0  0  0
 21 16  1  1  0  0  0
 21 18  1  0  0  0  0
 23 25  1  0  0  0  0
 24 23  2  0  0  0  0
 24 19  1  0  0  0  0
 25 20  1  6  0  0  0
 25 17  1  0  0  0  0
 26 28  1  0  0  0  0
 27 17  1  6  0  0  0
 27 26  1  0  0  0  0
 27 28  1  0  0  0  0
M  END
>  <MODEL>
5

>  <REMARK>
 VINA RESULT:      -6.6      2.868      6.916
  Name = 
  6 active torsions:
  status: ('A' for Active; 'I' for Inactive)
    1  A    between atoms: C_1  and  C_5
    2  A    between atoms: C_1  and  N_7
    3  A    between atoms: C_3  and  C_13
    4  A    between atoms: C_8  and  C_18
    5  A    between atoms: C_9  and  C_15
    6  A    between atoms: C_18  and  C_20
                            x       y       z     vdW  Elec       q    Type
                         _______ _______ _______ _____ _____    ______ ____

>  <TORSDO>
F 6

$$$$
=
 OpenBabel11062423093D

 28 32  0  0  1  0  0  0  0  0999 V2000
  187.8160  177.1460  141.3900 C   0  0  0  0  0  2  0  0  0  0  0  0
  186.6850  177.8130  143.4260 N   0  0  0  0  0  0  0  0  0  0  0  0
  187.2860  176.4870  143.6250 C   0  0  1  0  0  3  0  0  0  0  0  0
  188.2340  176.1960  142.4780 C   0  0  1  0  0  3  0  0  0  0  0  0
  187.1980  178.3020  142.1420 C   0  0  0  0  0  2  0  0  0  0  0  0
  188.1930  174.7250  142.0600 C   0  0  0  0  0  3  0  0  0  0  0  0
  188.4890  174.5180  140.5700 C   0  0  0  0  0  2  0  0  0  0  0  0
  189.4880  172.3380  141.0620 N   0  0  0  0  0  2  0  0  0  0  0  0
  188.4840  173.0250  140.2510 C   0  0  0  0  0  2  0  0  0  0  0  0
  189.1400  173.8930  142.9220 C   0  0  0  0  0  2  0  0  0  0  0  0
  189.0980  172.4360  142.4670 C   0  0  0  0  0  2  0  0  0  0  0  0
  185.2240  177.6610  143.3300 C   0  0  2  0  0  3  0  0  0  0  0  0
  184.6790  178.2640  142.0370 C   0  0  0  0  0  1  0  0  0  0  0  0
  184.4960  178.2900  144.5250 C   0  0  0  0  0  2  0  0  0  0  0  0
  185.4230  179.1370  145.3850 C   0  0  0  0  0  1  0  0  0  0  0  0
  187.9910  176.3940  144.9800 C   0  0  0  0  0  2  0  0  0  0  0  0
  192.4530  176.3280  145.0310 C   0  0  0  0  0  0  0  0  0  0  0  0
  190.2380  177.2020  144.9560 C   0  0  0  0  0  0  0  0  0  0  0  0
  189.7790  177.2630  146.2980 C   0  0  0  0  0  0  0  0  0  0  0  0
  193.3340  175.0320  146.8870 F   0  0  0  0  0  0  0  0  0  0  0  0
  188.9220  177.5720  145.2390 C   0  0  2  0  0  3  0  0  0  0  0  0
  191.4820  176.9160  144.2960 C   0  0  0  0  0  3  0  0  0  0  0  0
  191.5430  176.4180  147.6030 C   0  0  0  0  0  3  0  0  0  0  0  0
  190.3640  177.0640  147.5920 C   0  0  0  0  0  3  0  0  0  0  0  0
  192.2040  175.6810  146.4230 C   0  0  1  0  0  3  0  0  0  0  0  0
  193.8990  174.8370  143.7480 N   0  0  0  0  0  2  0  0  0  0  0  0
  193.8080  176.1620  144.3890 C   0  0  1  0  0  3  0  0  0  0  0  0
  193.7200  176.0400  142.9290 C   0  0  0  0  0  2  0  0  0  0  0  0
  1  5  1  0  0  0  0
  1  4  1  0  0  0  0
  2  3  1  0  0  0  0
  3 16  1  1  0  0  0
  4  6  1  6  0  0  0
  4  3  1  0  0  0  0
  5  2  1  0  0  0  0
  6 10  1  0  0  0  0
  7  6  1  0  0  0  0
  8 11  1  0  0  0  0
  9  7  1  0  0  0  0
  9  8  1  0  0  0  0
 11 10  1  0  0  0  0
 12 13  1  6  0  0  0
 12  2  1  0  0  0  0
 12 14  1  0  0  0  0
 14 15  1  0  0  0  0
 17 25  1  0  0  0  0
 18 21  1  0  0  0  0
 18 19  2  0  0  0  0
 19 24  1  0  0  0  0
 21 16  1  6  0  0  0
 21 19  1  0  0  0  0
 22 18  1  0  0  0  0
 22 17  2  0  0  0  0
 24 23  2  0  0  0  0
 25 20  1  1  0  0  0
 25 23  1  0  0  0  0
 26 27  1  0  0  0  0
 27 17  1  1  0  0  0
 28 26  1  0  0  0  0
 28 27  1  0  0  0  0
M  END
>  <MODEL>
6

>  <REMARK>
 VINA RESULT:      -6.5      1.525      1.951
  Name = 
  6 active torsions:
  status: ('A' for Active; 'I' for Inactive)
    1  A    between atoms: C_1  and  C_5
    2  A    between atoms: C_1  and  N_7
    3  A    between atoms: C_3  and  C_13
    4  A    between atoms: C_8  and  C_18
    5  A    between atoms: C_9  and  C_15
    6  A    between atoms: C_18  and  C_20
                            x       y       z     vdW  Elec       q    Type
                         _______ _______ _______ _____ _____    ______ ____

>  <TORSDO>
F 6

$$$$
=
 OpenBabel11062423093D

 28 32  0  0  1  0  0  0  0  0999 V2000
  191.2110  174.0010  145.5660 C   0  0  0  0  0  2  0  0  0  0  0  0
  189.0330  175.0630  145.5120 N   0  0  0  0  0  0  0  0  0  0  0  0
  189.9040  175.7070  144.5200 C   0  0  1  0  0  3  0  0  0  0  0  0
  191.1540  174.8680  144.3390 C   0  0  1  0  0  3  0  0  0  0  0  0
  189.7640  173.8830  145.9890 C   0  0  0  0  0  2  0  0  0  0  0  0
  192.4010  175.7310  144.1370 C   0  0  0  0  0  3  0  0  0  0  0  0
  193.2350  175.8850  145.4140 C   0  0  0  0  0  2  0  0  0  0  0  0
  195.2750  176.0540  144.0710 N   0  0  0  0  0  2  0  0  0  0  0  0
  194.4840  176.7090  145.1120 C   0  0  0  0  0  2  0  0  0  0  0  0
  193.2540  175.1870  142.9930 C   0  0  0  0  0  2  0  0  0  0  0  0
  194.5020  176.0520  142.8300 C   0  0  0  0  0  2  0  0  0  0  0  0
  188.8340  175.9890  146.6400 C   0  0  2  0  0  3  0  0  0  0  0  0
  187.3790  176.4410  146.7470 C   0  0  0  0  0  1  0  0  0  0  0  0
  189.7400  177.2230  146.5430 C   0  0  0  0  0  2  0  0  0  0  0  0
  190.7590  177.2810  147.6730 C   0  0  0  0  0  1  0  0  0  0  0  0
  189.1710  175.9250  143.1950 C   0  0  0  0  0  2  0  0  0  0  0  0
  185.6250  178.5630  143.8190 C   0  0  0  0  0  0  0  0  0  0  0  0
  187.8770  177.9240  143.3750 C   0  0  0  0  0  0  0  0  0  0  0  0
  187.9380  177.5810  142.0000 C   0  0  0  0  0  0  0  0  0  0  0  0
  183.7360  177.9090  142.4390 F   0  0  0  0  0  0  0  0  0  0  0  0
  189.0490  177.3990  142.8280 C   0  0  2  0  0  3  0  0  0  0  0  0
  186.9030  178.5060  144.2570 C   0  0  0  0  0  3  0  0  0  0  0  0
  185.7510  177.8650  141.1830 C   0  0  0  0  0  3  0  0  0  0  0  0
  187.0460  177.6660  140.8800 C   0  0  0  0  0  3  0  0  0  0  0  0
  185.1060  177.7810  142.5790 C   0  0  1  0  0  3  0  0  0  0  0  0
  184.0530  178.3910  145.6790 N   0  0  0  0  0  2  0  0  0  0  0  0
  184.6280  179.3050  144.6740 C   0  0  1  0  0  3  0  0  0  0  0  0
  185.0520  179.3870  146.0770 C   0  0  0  0  0  2  0  0  0  0  0  0
  1  5  1  0  0  0  0
  2  5  1  0  0  0  0
  2 12  1  0  0  0  0
  3 16  1  6  0  0  0
  3  2  1  0  0  0  0
  4  6  1  1  0  0  0
  4  3  1  0  0  0  0
  4  1  1  0  0  0  0
  6  7  1  0  0  0  0
  8  9  1  0  0  0  0
  9  7  1  0  0  0  0
 10  6  1  0  0  0  0
 11 10  1  0  0  0  0
 11  8  1  0  0  0  0
 12 13  1  6  0  0  0
 14 12  1  0  0  0  0
 14 15  1  0  0  0  0
 17 22  2  0  0  0  0
 18 22  1  0  0  0  0
 19 21  1  0  0  0  0
 19 18  2  0  0  0  0
 21 16  1  1  0  0  0
 21 18  1  0  0  0  0
 23 25  1  0  0  0  0
 24 23  2  0  0  0  0
 24 19  1  0  0  0  0
 25 20  1  6  0  0  0
 25 17  1  0  0  0  0
 26 28  1  0  0  0  0
 27 17  1  6  0  0  0
 27 26  1  0  0  0  0
 27 28  1  0  0  0  0
M  END
>  <MODEL>
7

>  <REMARK>
 VINA RESULT:      -6.5      2.750      6.483
  Name = 
  6 active torsions:
  status: ('A' for Active; 'I' for Inactive)
    1  A    between atoms: C_1  and  C_5
    2  A    between atoms: C_1  and  N_7
    3  A    between atoms: C_3  and  C_13
    4  A    between atoms: C_8  and  C_18
    5  A    between atoms: C_9  and  C_15
    6  A    between atoms: C_18  and  C_20
                            x       y       z     vdW  Elec       q    Type
                         _______ _______ _______ _____ _____    ______ ____

>  <TORSDO>
F 6

$$$$
=
 OpenBabel11062423093D

 28 32  0  0  1  0  0  0  0  0999 V2000
  192.0580  174.9970  144.5170 C   0  0  0  0  0  2  0  0  0  0  0  0
  191.2540  177.2290  145.0130 N   0  0  0  0  0  0  0  0  0  0  0  0
  190.1590  176.2710  145.2130 C   0  0  1  0  0  3  0  0  0  0  0  0
  190.7230  174.8630  145.1960 C   0  0  1  0  0  3  0  0  0  0  0  0
  192.4640  176.4250  144.8040 C   0  0  0  0  0  2  0  0  0  0  0  0
  189.7800  173.8750  144.5080 C   0  0  0  0  0  3  0  0  0  0  0  0
  189.2680  174.3810  143.1540 C   0  0  0  0  0  2  0  0  0  0  0  0
  189.1410  172.0790  142.3310 N   0  0  0  0  0  2  0  0  0  0  0  0
  188.3830  173.3160  142.5110 C   0  0  0  0  0  2  0  0  0  0  0  0
  190.4440  172.5080  144.3610 C   0  0  0  0  0  2  0  0  0  0  0  0
  189.4910  171.5510  143.6490 C   0  0  0  0  0  2  0  0  0  0  0  0
  190.9830  178.0100  143.7950 C   0  0  2  0  0  3  0  0  0  0  0  0
  191.5670  179.4180  143.8880 C   0  0  0  0  0  1  0  0  0  0  0  0
  189.4830  178.1050  143.4890 C   0  0  0  0  0  2  0  0  0  0  0  0
  189.1810  177.9050  142.0110 C   0  0  0  0  0  1  0  0  0  0  0  0
  189.3980  176.5590  146.5090 C   0  0  0  0  0  2  0  0  0  0  0  0
  185.7020  177.7470  144.3050 C   0  0  0  0  0  0  0  0  0  0  0  0
  187.2070  176.4020  145.5720 C   0  0  0  0  0  0  0  0  0  0  0  0
  187.0610  176.7960  146.9270 C   0  0  0  0  0  0  0  0  0  0  0  0
  184.8160  179.8750  145.0720 F   0  0  0  0  0  0  0  0  0  0  0  0
  188.0400  175.8700  146.5580 C   0  0  2  0  0  3  0  0  0  0  0  0
  186.5390  176.6850  144.3310 C   0  0  0  0  0  3  0  0  0  0  0  0
  185.4600  178.5190  146.9120 C   0  0  0  0  0  3  0  0  0  0  0  0
  186.1750  177.6570  147.6570 C   0  0  0  0  0  3  0  0  0  0  0  0
  185.6580  178.8330  145.4180 C   0  0  1  0  0  3  0  0  0  0  0  0
  185.6050  178.8630  142.1360 N   0  0  0  0  0  2  0  0  0  0  0  0
  184.8870  177.9600  143.0540 C   0  0  1  0  0  3  0  0  0  0  0  0
  185.5490  177.4230  141.8600 C   0  0  0  0  0  2  0  0  0  0  0  0
  1  5  1  0  0  0  0
  1  4  1  0  0  0  0
  2  3  1  0  0  0  0
  3 16  1  1  0  0  0
  4  6  1  6  0  0  0
  4  3  1  0  0  0  0
  5  2  1  0  0  0  0
  7  6  1  0  0  0  0
  8  9  1  0  0  0  0
  8 11  1  0  0  0  0
  9  7  1  0  0  0  0
 10  6  1  0  0  0  0
 11 10  1  0  0  0  0
 12 13  1  1  0  0  0
 12  2  1  0  0  0  0
 14 12  1  0  0  0  0
 15 14  1  0  0  0  0
 17 22  2  0  0  0  0
 17 25  1  0  0  0  0
 18 21  1  0  0  0  0
 18 19  2  0  0  0  0
 19 24  1  0  0  0  0
 21 16  1  6  0  0  0
 21 19  1  0  0  0  0
 22 18  1  0  0  0  0
 23 24  2  0  0  0  0
 25 20  1  6  0  0  0
 25 23  1  0  0  0  0
 26 27  1  0  0  0  0
 27 17  1  1  0  0  0
 28 26  1  0  0  0  0
 28 27  1  0  0  0  0
M  END
>  <MODEL>
8

>  <REMARK>
 VINA RESULT:      -6.2      2.520      5.765
  Name = 
  6 active torsions:
  status: ('A' for Active; 'I' for Inactive)
    1  A    between atoms: C_1  and  C_5
    2  A    between atoms: C_1  and  N_7
    3  A    between atoms: C_3  and  C_13
    4  A    between atoms: C_8  and  C_18
    5  A    between atoms: C_9  and  C_15
    6  A    between atoms: C_18  and  C_20
                            x       y       z     vdW  Elec       q    Type
                         _______ _______ _______ _____ _____    ______ ____

>  <TORSDO>
F 6

$$$$
=
 OpenBabel11062423093D

 28 32  0  0  1  0  0  0  0  0999 V2000
  187.3140  177.5820  146.5840 C   0  0  0  0  0  2  0  0  0  0  0  0
  189.4790  176.4990  146.4780 N   0  0  0  0  0  0  0  0  0  0  0  0
  189.2140  177.1640  145.1960 C   0  0  1  0  0  3  0  0  0  0  0  0
  188.0170  178.0810  145.3510 C   0  0  1  0  0  3  0  0  0  0  0  0
  188.4200  176.9420  147.3910 C   0  0  0  0  0  2  0  0  0  0  0  0
  187.1350  178.0890  144.1020 C   0  0  0  0  0  3  0  0  0  0  0  0
  186.6780  176.6870  143.6820 C   0  0  0  0  0  2  0  0  0  0  0  0
  184.6000  177.6220  142.7860 N   0  0  0  0  0  2  0  0  0  0  0  0
  185.7600  176.7910  142.4670 C   0  0  0  0  0  2  0  0  0  0  0  0
  185.9350  179.0160  144.2950 C   0  0  0  0  0  2  0  0  0  0  0  0
  185.0600  178.9850  143.0430 C   0  0  0  0  0  2  0  0  0  0  0  0
  189.3670  175.0430  146.2890 C   0  0  2  0  0  3  0  0  0  0  0  0
  188.9330  174.3390  147.5730 C   0  0  0  0  0  1  0  0  0  0  0  0
  190.6790  174.4210  145.7920 C   0  0  0  0  0  2  0  0  0  0  0  0
  191.8990  175.0390  146.4590 C   0  0  0  0  0  1  0  0  0  0  0  0
  190.4470  177.9220  144.6980 C   0  0  0  0  0  2  0  0  0  0  0  0
  190.3470  174.2550  142.1540 C   0  0  0  0  0  0  0  0  0  0  0  0
  190.3000  176.5650  142.7380 C   0  0  0  0  0  0  0  0  0  0  0  0
  191.6510  176.9790  142.8670 C   0  0  0  0  0  0  0  0  0  0  0  0
  192.2410  172.7930  142.5710 F   0  0  0  0  0  0  0  0  0  0  0  0
  190.6070  177.8510  143.1850 C   0  0  2  0  0  3  0  0  0  0  0  0
  189.6150  175.3840  142.2900 C   0  0  0  0  0  3  0  0  0  0  0  0
  192.9400  175.0590  142.4410 C   0  0  0  0  0  3  0  0  0  0  0  0
  192.9340  176.3930  142.6030 C   0  0  0  0  0  3  0  0  0  0  0  0
  191.7810  174.0870  142.7320 C   0  0  1  0  0  3  0  0  0  0  0  0
  188.9430  172.3060  142.5860 N   0  0  0  0  0  2  0  0  0  0  0  0
  189.6690  173.0540  141.5430 C   0  0  1  0  0  3  0  0  0  0  0  0
  188.2070  173.1390  141.6290 C   0  0  0  0  0  2  0  0  0  0  0  0
  1  5  1  0  0  0  0
  2  5  1  0  0  0  0
  3 16  1  1  0  0  0
  3  4  1  0  0  0  0
  3  2  1  0  0  0  0
  4  6  1  6  0  0  0
  4  1  1  0  0  0  0
  6 10  1  0  0  0  0
  7  6  1  0  0  0  0
  8 11  1  0  0  0  0
  9  8  1  0  0  0  0
  9  7  1  0  0  0  0
 11 10  1  0  0  0  0
 12  2  1  0  0  0  0
 12 13  1  1  0  0  0
 14 12  1  0  0  0  0
 14 15  1  0  0  0  0
 17 22  2  0  0  0  0
 17 25  1  0  0  0  0
 18 19  2  0  0  0  0
 18 21  1  0  0  0  0
 19 21  1  0  0  0  0
 21 16  1  1  0  0  0
 22 18  1  0  0  0  0
 23 24  2  0  0  0  0
 23 25  1  0  0  0  0
 24 19  1  0  0  0  0
 25 20  1  6  0  0  0
 27 28  1  0  0  0  0
 27 17  1  1  0  0  0
 27 26  1  0  0  0  0
 28 26  1  0  0  0  0
M  END
>  <MODEL>
9

>  <REMARK>
 VINA RESULT:      -6.1      1.877      5.088
  Name = 
  6 active torsions:
  status: ('A' for Active; 'I' for Inactive)
    1  A    between atoms: C_1  and  C_5
    2  A    between atoms: C_1  and  N_7
    3  A    between atoms: C_3  and  C_13
    4  A    between atoms: C_8  and  C_18
    5  A    between atoms: C_9  and  C_15
    6  A    between atoms: C_18  and  C_20
                            x       y       z     vdW  Elec       q    Type
                         _______ _______ _______ _____ _____    ______ ____

>  <TORSDO>
F 6

$$$$
