=
 OpenBabel11062419053D

 32 37  0  0  1  0  0  0  0  0999 V2000
  194.1440  175.9170  142.6010 C   0  0  0  0  0  0  0  0  0  0  0  0
  190.1650  176.3580  144.6130 C   0  0  2  0  0  3  0  0  0  0  0  0
  196.3960  176.3430  141.0080 N   0  0  0  0  0  0  0  0  0  0  0  0
  192.5420  176.7420  146.9160 O   0  0  0  0  0  1  0  0  0  0  0  0
  196.7160  174.2170  143.5560 C   0  0  0  0  0  3  0  0  0  0  0  0
  195.8980  173.9920  146.1890 C   0  0  0  0  0  3  0  0  0  0  0  0
  196.4400  176.7900  142.2310 C   0  0  0  0  0  3  0  0  0  0  0  0
  192.9550  175.9120  143.2340 C   0  0  1  0  0  3  0  0  0  0  0  0
  197.9410  172.0540  143.7500 C   0  0  0  0  0  1  0  0  0  0  0  0
  194.2440  175.2960  141.2660 C   0  0  0  0  0  0  0  0  0  0  0  0
  195.3290  175.5110  140.5210 C   0  0  0  0  0  2  0  0  0  0  0  0
  196.6830  173.0360  145.6270 N   0  0  0  0  0  0  0  0  0  0  0  0
  190.8050  173.7580  140.9280 C   0  0  0  0  0  1  0  0  0  0  0  0
  192.7260  176.6890  144.5200 C   0  0  1  0  0  3  0  0  0  0  0  0
  191.9760  174.5150  141.4400 C   0  0  0  0  0  0  0  0  0  0  0  0
  191.2190  174.2770  145.4980 C   0  0  0  0  0  2  0  0  0  0  0  0
  190.2290  175.3960  145.7970 C   0  0  0  0  0  2  0  0  0  0  0  0
  193.1060  174.5410  140.7350 C   0  0  0  0  0  3  0  0  0  0  0  0
  194.6370  176.1410  146.1020 C   0  0  0  0  0  2  0  0  0  0  0  0
  195.9260  175.2360  144.1140 C   0  0  0  0  0  0  0  0  0  0  0  0
  197.0950  173.1250  144.3360 C   0  0  0  0  0  0  0  0  0  0  0  0
  191.3360  177.3490  144.5600 C   0  0  0  0  0  2  0  0  0  0  0  0
  193.1240  176.0210  145.8680 C   0  0  1  0  0  0  0  0  0  0  0  0
  195.4150  176.3740  143.2630 C   0  0  2  0  0  3  0  0  0  0  0  0
  195.4940  175.1040  145.4440 C   0  0  0  0  0  0  0  0  0  0  0  0
  191.8790  175.2090  142.6570 O   0  0  0  0  0  0  0  0  0  0  0  0
  192.6440  174.5620  145.9920 C   0  0  0  0  0  2  0  0  0  0  0  0
  187.2870  178.2430  142.5580 C   0  0  0  0  0  2  0  0  0  0  0  0
  188.2530  177.3210  145.6830 O   0  0  0  0  0  0  0  0  0  0  0  0
  188.8680  177.0950  144.6070 C   0  0  0  0  0  0  0  0  0  0  0  0
  188.3270  177.5510  143.3720 N   0  0  0  0  0  0  0  0  0  0  0  0
  188.3670  177.7060  141.8890 C   0  0  0  0  0  2  0  0  0  0  0  0
  1 24  1  0  0  0  0
  2 30  1  1  0  0  0
  2 17  1  0  0  0  0
  3  7  2  0  0  0  0
  5 20  2  0  0  0  0
  5 21  1  0  0  0  0
  8  1  1  6  0  0  0
  8 14  1  0  0  0  0
  9 21  1  0  0  0  0
 10  1  2  0  0  0  0
 11  3  1  0  0  0  0
 11 10  1  0  0  0  0
 12  6  1  0  0  0  0
 13 15  1  0  0  0  0
 14 22  1  1  0  0  0
 14 23  1  0  0  0  0
 15 26  1  0  0  0  0
 16 17  1  0  0  0  0
 16 27  1  0  0  0  0
 18 10  1  0  0  0  0
 18 15  2  0  0  0  0
 20 25  1  0  0  0  0
 21 12  2  0  0  0  0
 22  2  1  0  0  0  0
 23 27  1  0  0  0  0
 23 19  1  0  0  0  0
 23  4  1  1  0  0  0
 24  7  1  6  0  0  0
 24 20  1  0  0  0  0
 25 19  1  0  0  0  0
 25  6  2  0  0  0  0
 26  8  1  0  0  0  0
 28 31  1  0  0  0  0
 30 29  2  0  0  0  0
 31 30  1  0  0  0  0
 32 28  1  0  0  0  0
 32 31  1  0  0  0  0
M  END
>  <MODEL>
1

>  <REMARK>
 VINA RESULT:      -8.0      0.000      0.000
  Name = 
  1 active torsions:
  status: ('A' for Active; 'I' for Inactive)
    1  A    between atoms: C_2  and  C_29
                            x       y       z     vdW  Elec       q    Type
                         _______ _______ _______ _____ _____    ______ ____

>  <TORSDO>
F 1

$$$$
=
 OpenBabel11062419053D

 32 37  0  0  1  0  0  0  0  0999 V2000
  191.8070  175.1550  142.4950 C   0  0  0  0  0  0  0  0  0  0  0  0
  188.4650  176.6780  145.0590 C   0  0  2  0  0  3  0  0  0  0  0  0
  193.7070  174.8690  140.4690 N   0  0  0  0  0  0  0  0  0  0  0  0
  191.3070  176.9760  146.7720 O   0  0  0  0  0  1  0  0  0  0  0  0
  194.2280  173.1750  143.2930 C   0  0  0  0  0  3  0  0  0  0  0  0
  193.9650  173.5520  146.0210 C   0  0  0  0  0  3  0  0  0  0  0  0
  194.0780  175.4960  141.5500 C   0  0  0  0  0  3  0  0  0  0  0  0
  190.7940  175.4820  143.3190 C   0  0  1  0  0  3  0  0  0  0  0  0
  195.1170  170.8800  143.6940 C   0  0  0  0  0  1  0  0  0  0  0  0
  191.5240  174.3120  141.3160 C   0  0  0  0  0  0  0  0  0  0  0  0
  192.4450  174.1880  140.3600 C   0  0  0  0  0  2  0  0  0  0  0  0
  194.4550  172.3830  145.5310 N   0  0  0  0  0  0  0  0  0  0  0  0
  187.8960  173.4290  141.9200 C   0  0  0  0  0  1  0  0  0  0  0  0
  190.9670  176.4920  144.4420 C   0  0  1  0  0  3  0  0  0  0  0  0
  189.2520  174.0210  142.0490 C   0  0  0  0  0  0  0  0  0  0  0  0
  189.3480  174.6110  146.1410 C   0  0  0  0  0  2  0  0  0  0  0  0
  188.6300  175.9330  146.3820 C   0  0  0  0  0  2  0  0  0  0  0  0
  190.1960  173.7120  141.1610 C   0  0  0  0  0  3  0  0  0  0  0  0
  193.0620  175.8580  145.7320 C   0  0  0  0  0  2  0  0  0  0  0  0
  193.7430  174.4050  143.7680 C   0  0  0  0  0  0  0  0  0  0  0  0
  194.5920  172.1760  144.1960 C   0  0  0  0  0  0  0  0  0  0  0  0
  189.7360  177.4040  144.5980 C   0  0  0  0  0  2  0  0  0  0  0  0
  191.5340  175.9930  145.8030 C   0  0  1  0  0  0  0  0  0  0  0  0
  193.2450  175.4620  142.8110 C   0  0  2  0  0  3  0  0  0  0  0  0
  193.5890  174.5820  145.1530 C   0  0  0  0  0  0  0  0  0  0  0  0
  189.5240  174.9130  143.0990 O   0  0  0  0  0  0  0  0  0  0  0  0
  190.8720  174.6950  146.3020 C   0  0  0  0  0  2  0  0  0  0  0  0
  185.8760  179.1090  143.2020 C   0  0  0  0  0  2  0  0  0  0  0  0
  186.8210  177.9450  146.2520 O   0  0  0  0  0  0  0  0  0  0  0  0
  187.3270  177.6390  145.1390 C   0  0  0  0  0  0  0  0  0  0  0  0
  186.8140  178.2180  143.9450 N   0  0  0  0  0  0  0  0  0  0  0  0
  186.8030  178.4020  142.4640 C   0  0  0  0  0  2  0  0  0  0  0  0
  1 24  1  0  0  0  0
  2 30  1  1  0  0  0
  2 17  1  0  0  0  0
  3  7  2  0  0  0  0
  5 20  2  0  0  0  0
  5 21  1  0  0  0  0
  8  1  1  6  0  0  0
  8 14  1  0  0  0  0
  9 21  1  0  0  0  0
 10  1  2  0  0  0  0
 11  3  1  0  0  0  0
 11 10  1  0  0  0  0
 12  6  1  0  0  0  0
 13 15  1  0  0  0  0
 14 22  1  1  0  0  0
 14 23  1  0  0  0  0
 15 26  1  0  0  0  0
 16 27  1  0  0  0  0
 16 17  1  0  0  0  0
 18 10  1  0  0  0  0
 18 15  2  0  0  0  0
 19 23  1  0  0  0  0
 20 25  1  0  0  0  0
 21 12  2  0  0  0  0
 22  2  1  0  0  0  0
 23 27  1  0  0  0  0
 23  4  1  1  0  0  0
 24  7  1  6  0  0  0
 24 20  1  0  0  0  0
 25 19  1  0  0  0  0
 25  6  2  0  0  0  0
 26  8  1  0  0  0  0
 28 31  1  0  0  0  0
 30 29  2  0  0  0  0
 31 30  1  0  0  0  0
 32 28  1  0  0  0  0
 32 31  1  0  0  0  0
M  END
>  <MODEL>
2

>  <REMARK>
 VINA RESULT:      -7.9      1.759      2.302
  Name = 
  1 active torsions:
  status: ('A' for Active; 'I' for Inactive)
    1  A    between atoms: C_2  and  C_29
                            x       y       z     vdW  Elec       q    Type
                         _______ _______ _______ _____ _____    ______ ____

>  <TORSDO>
F 1

$$$$
=
 OpenBabel11062419053D

 32 37  0  0  1  0  0  0  0  0999 V2000
  192.2060  173.3460  144.7870 C   0  0  0  0  0  0  0  0  0  0  0  0
  189.6710  176.8650  145.9080 C   0  0  2  0  0  3  0  0  0  0  0  0
  193.5350  170.8910  144.8140 N   0  0  0  0  0  0  0  0  0  0  0  0
  188.1930  175.2850  143.3750 O   0  0  0  0  0  1  0  0  0  0  0  0
  193.1110  172.3590  141.8500 C   0  0  0  0  0  3  0  0  0  0  0  0
  191.1670  173.7910  140.5000 C   0  0  0  0  0  3  0  0  0  0  0  0
  192.3550  170.9230  144.2610 C   0  0  0  0  0  3  0  0  0  0  0  0
  191.5150  174.4760  145.0260 C   0  0  1  0  0  3  0  0  0  0  0  0
  194.6160  172.5290  139.8690 C   0  0  0  0  0  1  0  0  0  0  0  0
  193.6100  173.2600  145.2350 C   0  0  0  0  0  0  0  0  0  0  0  0
  194.2270  172.0780  145.2390 C   0  0  0  0  0  2  0  0  0  0  0  0
  192.3550  173.5070  139.9020 N   0  0  0  0  0  0  0  0  0  0  0  0
  194.1910  176.7910  146.4600 C   0  0  0  0  0  1  0  0  0  0  0  0
  190.0210  174.5740  144.7650 C   0  0  1  0  0  3  0  0  0  0  0  0
  193.5510  175.5640  145.9210 C   0  0  0  0  0  0  0  0  0  0  0  0
  190.5810  177.3020  143.6270 C   0  0  0  0  0  2  0  0  0  0  0  0
  189.4410  177.6030  144.5920 C   0  0  0  0  0  2  0  0  0  0  0  0
  194.2700  174.4530  145.7710 C   0  0  0  0  0  3  0  0  0  0  0  0
  189.5880  173.6840  142.4250 C   0  0  0  0  0  2  0  0  0  0  0  0
  191.8850  172.6130  142.4880 C   0  0  0  0  0  0  0  0  0  0  0  0
  193.3240  172.8070  140.5470 C   0  0  0  0  0  0  0  0  0  0  0  0
  189.2920  175.3790  145.8570 C   0  0  0  0  0  2  0  0  0  0  0  0
  189.5440  174.9270  143.3260 C   0  0  1  0  0  0  0  0  0  0  0  0
  191.6700  172.2300  143.9320 C   0  0  2  0  0  3  0  0  0  0  0  0
  190.9120  173.3600  141.8060 C   0  0  0  0  0  0  0  0  0  0  0  0
  192.1870  175.5810  145.5860 O   0  0  0  0  0  0  0  0  0  0  0  0
  190.3100  176.1090  142.7000 C   0  0  0  0  0  2  0  0  0  0  0  0
  186.2010  177.8790  147.6380 C   0  0  0  0  0  2  0  0  0  0  0  0
  189.5770  178.1280  147.9400 O   0  0  0  0  0  0  0  0  0  0  0  0
  188.9440  177.5420  147.0210 C   0  0  0  0  0  0  0  0  0  0  0  0
  187.5210  177.5280  147.0390 N   0  0  0  0  0  0  0  0  0  0  0  0
  186.1960  177.1510  146.4670 C   0  0  0  0  0  2  0  0  0  0  0  0
  1 10  2  0  0  0  0
  2 30  1  1  0  0  0
  3 11  1  0  0  0  0
  5 20  1  0  0  0  0
  6 25  1  0  0  0  0
  7  3  2  0  0  0  0
  8  1  1  1  0  0  0
  8 26  1  0  0  0  0
  9 21  1  0  0  0  0
 10 11  1  0  0  0  0
 10 18  1  0  0  0  0
 12  6  2  0  0  0  0
 12 21  1  0  0  0  0
 14  8  1  0  0  0  0
 14 22  1  1  0  0  0
 15 13  1  0  0  0  0
 16 17  1  0  0  0  0
 17  2  1  0  0  0  0
 18 15  2  0  0  0  0
 19 23  1  0  0  0  0
 20 24  1  0  0  0  0
 21  5  2  0  0  0  0
 22  2  1  0  0  0  0
 23  4  1  1  0  0  0
 23 14  1  0  0  0  0
 24  7  1  1  0  0  0
 24  1  1  0  0  0  0
 25 19  1  0  0  0  0
 25 20  2  0  0  0  0
 26 15  1  0  0  0  0
 27 23  1  0  0  0  0
 27 16  1  0  0  0  0
 30 31  1  0  0  0  0
 30 29  2  0  0  0  0
 31 28  1  0  0  0  0
 32 31  1  0  0  0  0
 32 28  1  0  0  0  0
M  END
>  <MODEL>
3

>  <REMARK>
 VINA RESULT:      -7.9      2.661      5.044
  Name = 
  1 active torsions:
  status: ('A' for Active; 'I' for Inactive)
    1  A    between atoms: C_2  and  C_29
                            x       y       z     vdW  Elec       q    Type
                         _______ _______ _______ _____ _____    ______ ____

>  <TORSDO>
F 1

$$$$
=
 OpenBabel11062419053D

 32 37  0  0  1  0  0  0  0  0999 V2000
  191.1470  173.8010  142.8750 C   0  0  0  0  0  0  0  0  0  0  0  0
  194.8970  174.1460  145.3020 C   0  0  2  0  0  3  0  0  0  0  0  0
  189.0050  172.8000  141.3910 N   0  0  0  0  0  0  0  0  0  0  0  0
  192.3160  174.9160  147.2630 O   0  0  0  0  0  1  0  0  0  0  0  0
  188.6570  175.8460  142.7000 C   0  0  0  0  0  3  0  0  0  0  0  0
  189.2720  177.1840  145.0410 C   0  0  0  0  0  3  0  0  0  0  0  0
  188.8250  172.9440  142.6740 C   0  0  0  0  0  3  0  0  0  0  0  0
  192.2760  174.0410  143.5680 C   0  0  1  0  0  3  0  0  0  0  0  0
  187.6040  177.9160  141.7910 C   0  0  0  0  0  1  0  0  0  0  0  0
  191.2090  173.7690  141.4000 C   0  0  0  0  0  0  0  0  0  0  0  0
  190.1740  173.2880  140.7100 C   0  0  0  0  0  2  0  0  0  0  0  0
  188.6180  177.8210  144.0350 N   0  0  0  0  0  0  0  0  0  0  0  0
  194.7800  174.8630  140.8060 C   0  0  0  0  0  1  0  0  0  0  0  0
  192.3340  173.9060  145.0810 C   0  0  1  0  0  3  0  0  0  0  0  0
  193.5120  174.4570  141.4640 C   0  0  0  0  0  0  0  0  0  0  0  0
  193.9510  176.4420  145.0650 C   0  0  0  0  0  2  0  0  0  0  0  0
  194.8170  175.5350  145.9310 C   0  0  0  0  0  2  0  0  0  0  0  0
  192.4450  174.1650  140.7220 C   0  0  0  0  0  3  0  0  0  0  0  0
  190.3520  175.1730  146.0430 C   0  0  0  0  0  2  0  0  0  0  0  0
  189.3100  175.1510  143.7310 C   0  0  0  0  0  0  0  0  0  0  0  0
  188.3070  177.1840  142.8760 C   0  0  0  0  0  0  0  0  0  0  0  0
  193.6570  173.2800  145.5590 C   0  0  0  0  0  2  0  0  0  0  0  0
  191.8840  175.1190  145.9480 C   0  0  1  0  0  0  0  0  0  0  0  0
  189.7920  173.7350  143.5260 C   0  0  2  0  0  3  0  0  0  0  0  0
  189.6420  175.8420  144.9080 C   0  0  0  0  0  0  0  0  0  0  0  0
  193.4510  174.3720  142.8650 O   0  0  0  0  0  0  0  0  0  0  0  0
  192.4720  176.4610  145.4730 C   0  0  0  0  0  2  0  0  0  0  0  0
  197.1450  170.8290  145.3270 C   0  0  0  0  0  2  0  0  0  0  0  0
  196.9570  174.0070  146.5130 O   0  0  0  0  0  0  0  0  0  0  0  0
  196.1240  173.4330  145.7620 C   0  0  0  0  0  0  0  0  0  0  0  0
  196.3500  172.0890  145.3520 N   0  0  0  0  0  0  0  0  0  0  0  0
  195.9670  170.8520  144.6110 C   0  0  0  0  0  2  0  0  0  0  0  0
  1 24  1  0  0  0  0
  1  8  1  0  0  0  0
  2 22  1  0  0  0  0
  2 30  1  1  0  0  0
  2 17  1  0  0  0  0
  3  7  2  0  0  0  0
  5 21  2  0  0  0  0
  5 20  1  0  0  0  0
  8 26  1  6  0  0  0
  8 14  1  0  0  0  0
  9 21  1  0  0  0  0
 10  1  2  0  0  0  0
 11  3  1  0  0  0  0
 11 10  1  0  0  0  0
 12  6  2  0  0  0  0
 13 15  1  0  0  0  0
 14 22  1  6  0  0  0
 14 23  1  0  0  0  0
 15 26  1  0  0  0  0
 16 27  1  0  0  0  0
 16 17  1  0  0  0  0
 18 10  1  0  0  0  0
 18 15  2  0  0  0  0
 20 25  2  0  0  0  0
 21 12  1  0  0  0  0
 23 19  1  0  0  0  0
 23  4  1  1  0  0  0
 24  7  1  6  0  0  0
 24 20  1  0  0  0  0
 25  6  1  0  0  0  0
 25 19  1  0  0  0  0
 27 23  1  0  0  0  0
 28 31  1  0  0  0  0
 30 29  2  0  0  0  0
 31 30  1  0  0  0  0
 32 28  1  0  0  0  0
 32 31  1  0  0  0  0
M  END
>  <MODEL>
4

>  <REMARK>
 VINA RESULT:      -7.7      1.967      6.716
  Name = 
  1 active torsions:
  status: ('A' for Active; 'I' for Inactive)
    1  A    between atoms: C_2  and  C_29
                            x       y       z     vdW  Elec       q    Type
                         _______ _______ _______ _____ _____    ______ ____

>  <TORSDO>
F 1

$$$$
=
 OpenBabel11062419053D

 32 37  0  0  1  0  0  0  0  0999 V2000
  190.1090  173.9820  142.2550 C   0  0  0  0  0  0  0  0  0  0  0  0
  193.5330  175.0810  144.9260 C   0  0  2  0  0  3  0  0  0  0  0  0
  188.1770  172.5510  140.8360 N   0  0  0  0  0  0  0  0  0  0  0  0
  190.7230  176.1940  146.3280 O   0  0  0  0  0  1  0  0  0  0  0  0
  187.6270  175.8080  141.2940 C   0  0  0  0  0  3  0  0  0  0  0  0
  187.9350  177.7080  143.2810 C   0  0  0  0  0  3  0  0  0  0  0  0
  187.8410  172.9990  142.0130 C   0  0  0  0  0  3  0  0  0  0  0  0
  191.1420  174.4350  142.9900 C   0  0  1  0  0  3  0  0  0  0  0  0
  186.6600  177.5410  139.7840 C   0  0  0  0  0  1  0  0  0  0  0  0
  190.3480  173.5910  140.8520 C   0  0  0  0  0  0  0  0  0  0  0  0
  189.4120  172.9080  140.1920 C   0  0  0  0  0  2  0  0  0  0  0  0
  187.3970  178.0470  142.0800 N   0  0  0  0  0  0  0  0  0  0  0  0
  193.9480  174.6630  140.4100 C   0  0  0  0  0  1  0  0  0  0  0  0
  191.0190  174.6800  144.4840 C   0  0  1  0  0  3  0  0  0  0  0  0
  192.6160  174.3750  141.0020 C   0  0  0  0  0  0  0  0  0  0  0  0
  192.5880  177.2040  144.0190 C   0  0  0  0  0  2  0  0  0  0  0  0
  193.3570  176.5770  145.1750 C   0  0  0  0  0  2  0  0  0  0  0  0
  191.6510  173.8620  140.2400 C   0  0  0  0  0  3  0  0  0  0  0  0
  188.9170  176.0560  144.8680 C   0  0  0  0  0  2  0  0  0  0  0  0
  188.1620  175.4180  142.5330 C   0  0  0  0  0  0  0  0  0  0  0  0
  187.2380  177.1310  141.0900 C   0  0  0  0  0  0  0  0  0  0  0  0
  192.2840  174.2500  145.2500 C   0  0  0  0  0  2  0  0  0  0  0  0
  190.4500  176.0480  144.9650 C   0  0  1  0  0  0  0  0  0  0  0  0
  188.6860  174.0180  142.7440 C   0  0  2  0  0  3  0  0  0  0  0  0
  188.3380  176.3920  143.5290 C   0  0  0  0  0  0  0  0  0  0  0  0
  192.3880  174.6350  142.3630 O   0  0  0  0  0  0  0  0  0  0  0  0
  191.0700  177.2570  144.2390 C   0  0  0  0  0  2  0  0  0  0  0  0
  196.0390  172.0620  145.7410 C   0  0  0  0  0  2  0  0  0  0  0  0
  195.3140  175.2910  146.5130 O   0  0  0  0  0  0  0  0  0  0  0  0
  194.7060  174.5590  145.6860 C   0  0  0  0  0  0  0  0  0  0  0  0
  195.1370  173.2190  145.4760 N   0  0  0  0  0  0  0  0  0  0  0  0
  195.0300  171.8850  144.8180 C   0  0  0  0  0  2  0  0  0  0  0  0
  1 24  1  0  0  0  0
  2 17  1  0  0  0  0
  2 22  1  0  0  0  0
  2 30  1  1  0  0  0
  3  7  2  0  0  0  0
  5 20  1  0  0  0  0
  6 25  1  0  0  0  0
  8  1  1  1  0  0  0
  8 14  1  0  0  0  0
  9 21  1  0  0  0  0
 10  1  2  0  0  0  0
 11  3  1  0  0  0  0
 11 10  1  0  0  0  0
 12  6  2  0  0  0  0
 13 15  1  0  0  0  0
 14 23  1  0  0  0  0
 14 22  1  1  0  0  0
 15 26  1  0  0  0  0
 16 27  1  0  0  0  0
 16 17  1  0  0  0  0
 18 10  1  0  0  0  0
 18 15  2  0  0  0  0
 19 23  1  0  0  0  0
 20 24  1  0  0  0  0
 20 25  2  0  0  0  0
 21  5  2  0  0  0  0
 21 12  1  0  0  0  0
 23  4  1  1  0  0  0
 24  7  1  6  0  0  0
 25 19  1  0  0  0  0
 26  8  1  0  0  0  0
 27 23  1  0  0  0  0
 30 29  2  0  0  0  0
 31 30  1  0  0  0  0
 31 28  1  0  0  0  0
 32 31  1  0  0  0  0
 32 28  1  0  0  0  0
M  END
>  <MODEL>
5

>  <REMARK>
 VINA RESULT:      -7.6      1.973      6.915
  Name = 
  1 active torsions:
  status: ('A' for Active; 'I' for Inactive)
    1  A    between atoms: C_2  and  C_29
                            x       y       z     vdW  Elec       q    Type
                         _______ _______ _______ _____ _____    ______ ____

>  <TORSDO>
F 1

$$$$
=
 OpenBabel11062419053D

 32 37  0  0  1  0  0  0  0  0999 V2000
  190.9320  173.2900  143.2990 C   0  0  0  0  0  0  0  0  0  0  0  0
  189.1190  176.8950  145.2440 C   0  0  2  0  0  3  0  0  0  0  0  0
  191.9930  170.7490  142.8390 N   0  0  0  0  0  0  0  0  0  0  0  0
  186.8780  175.6130  143.1380 O   0  0  0  0  0  1  0  0  0  0  0  0
  190.9220  172.4530  140.1820 C   0  0  0  0  0  3  0  0  0  0  0  0
  188.8240  174.1160  139.4870 C   0  0  0  0  0  3  0  0  0  0  0  0
  190.7160  170.9060  142.6340 C   0  0  0  0  0  3  0  0  0  0  0  0
  190.4350  174.4470  143.7740 C   0  0  1  0  0  3  0  0  0  0  0  0
  191.8480  172.6540  137.8750 C   0  0  0  0  0  1  0  0  0  0  0  0
  192.3910  173.0690  143.3410 C   0  0  0  0  0  0  0  0  0  0  0  0
  192.8780  171.8480  143.1170 C   0  0  0  0  0  2  0  0  0  0  0  0
  189.7760  173.7910  138.5740 N   0  0  0  0  0  0  0  0  0  0  0  0
  193.5950  176.4510  144.5320 C   0  0  0  0  0  1  0  0  0  0  0  0
  188.9410  174.6730  143.9370 C   0  0  1  0  0  3  0  0  0  0  0  0
  192.7250  175.3160  144.1290 C   0  0  0  0  0  0  0  0  0  0  0  0
  189.4170  177.4260  142.8250 C   0  0  0  0  0  2  0  0  0  0  0  0
  188.6100  177.7400  144.0790 C   0  0  0  0  0  2  0  0  0  0  0  0
  193.2750  174.1690  143.7330 C   0  0  0  0  0  3  0  0  0  0  0  0
  187.8160  173.9870  141.7640 C   0  0  0  0  0  2  0  0  0  0  0  0
  189.9400  172.7490  141.1420 C   0  0  0  0  0  0  0  0  0  0  0  0
  190.8160  172.9770  138.8940 C   0  0  0  0  0  0  0  0  0  0  0  0
  188.6070  175.4480  145.2250 C   0  0  0  0  0  2  0  0  0  0  0  0
  188.1280  175.1620  142.7030 C   0  0  1  0  0  0  0  0  0  0  0  0
  190.0870  172.2800  142.5690 C   0  0  2  0  0  3  0  0  0  0  0  0
  188.8900  173.6130  140.7900 C   0  0  0  0  0  0  0  0  0  0  0  0
  191.3290  175.4570  144.1820 O   0  0  0  0  0  0  0  0  0  0  0  0
  188.8010  176.3260  141.9500 C   0  0  0  0  0  2  0  0  0  0  0  0
  186.3410  178.2130  147.8140 C   0  0  0  0  0  2  0  0  0  0  0  0
  189.6910  177.9160  147.3320 O   0  0  0  0  0  0  0  0  0  0  0  0
  188.7810  177.5410  146.5450 C   0  0  0  0  0  0  0  0  0  0  0  0
  187.4160  177.7390  146.8960 N   0  0  0  0  0  0  0  0  0  0  0  0
  185.9530  177.6330  146.6240 C   0  0  0  0  0  2  0  0  0  0  0  0
  1 10  2  0  0  0  0
  2 30  1  1  0  0  0
  3 11  1  0  0  0  0
  5 20  1  0  0  0  0
  6 25  1  0  0  0  0
  7  3  2  0  0  0  0
  8  1  1  1  0  0  0
  8 14  1  0  0  0  0
  8 26  1  0  0  0  0
  9 21  1  0  0  0  0
 10 18  1  0  0  0  0
 11 10  1  0  0  0  0
 12 21  1  0  0  0  0
 12  6  2  0  0  0  0
 14 22  1  1  0  0  0
 15 26  1  0  0  0  0
 15 13  1  0  0  0  0
 16 17  1  0  0  0  0
 17  2  1  0  0  0  0
 18 15  2  0  0  0  0
 19 23  1  0  0  0  0
 20 24  1  0  0  0  0
 21  5  2  0  0  0  0
 22  2  1  0  0  0  0
 23  4  1  1  0  0  0
 23 14  1  0  0  0  0
 24  7  1  6  0  0  0
 24  1  1  0  0  0  0
 25 20  2  0  0  0  0
 25 19  1  0  0  0  0
 27 23  1  0  0  0  0
 27 16  1  0  0  0  0
 30 31  1  0  0  0  0
 30 29  2  0  0  0  0
 31 28  1  0  0  0  0
 32 31  1  0  0  0  0
 32 28  1  0  0  0  0
M  END
>  <MODEL>
6

>  <REMARK>
 VINA RESULT:      -7.5      3.047      5.893
  Name = 
  1 active torsions:
  status: ('A' for Active; 'I' for Inactive)
    1  A    between atoms: C_2  and  C_29
                            x       y       z     vdW  Elec       q    Type
                         _______ _______ _______ _____ _____    ______ ____

>  <TORSDO>
F 1

$$$$
=
 OpenBabel11062419053D

 32 37  0  0  1  0  0  0  0  0999 V2000
  192.2390  175.3000  142.0240 C   0  0  0  0  0  0  0  0  0  0  0  0
  188.1580  176.3030  143.5770 C   0  0  2  0  0  3  0  0  0  0  0  0
  194.5210  175.1140  140.4270 N   0  0  0  0  0  0  0  0  0  0  0  0
  190.4030  177.9130  145.4400 O   0  0  0  0  0  1  0  0  0  0  0  0
  194.8810  174.4610  143.6770 C   0  0  0  0  0  3  0  0  0  0  0  0
  193.9710  175.4270  146.1040 C   0  0  0  0  0  3  0  0  0  0  0  0
  194.4820  176.0830  141.2980 C   0  0  0  0  0  3  0  0  0  0  0  0
  191.0280  175.4940  142.5810 C   0  0  1  0  0  3  0  0  0  0  0  0
  196.2470  172.7480  144.8690 C   0  0  0  0  0  1  0  0  0  0  0  0
  192.4390  174.1370  141.1380 C   0  0  0  0  0  0  0  0  0  0  0  0
  193.5370  174.0670  140.3840 C   0  0  0  0  0  2  0  0  0  0  0  0
  194.8450  174.3870  146.0600 N   0  0  0  0  0  0  0  0  0  0  0  0
  189.1340  172.3450  141.5470 C   0  0  0  0  0  1  0  0  0  0  0  0
  190.6920  176.7610  143.3500 C   0  0  1  0  0  3  0  0  0  0  0  0
  190.2260  173.3460  141.6480 C   0  0  0  0  0  0  0  0  0  0  0  0
  189.3180  174.9730  145.3400 C   0  0  0  0  0  2  0  0  0  0  0  0
  188.2400  176.0160  145.0740 C   0  0  0  0  0  2  0  0  0  0  0  0
  191.3800  173.1320  141.0180 C   0  0  0  0  0  3  0  0  0  0  0  0
  192.5680  177.1740  145.0130 C   0  0  0  0  0  2  0  0  0  0  0  0
  193.9990  175.5540  143.6880 C   0  0  0  0  0  0  0  0  0  0  0  0
  195.3040  173.8960  144.8800 C   0  0  0  0  0  0  0  0  0  0  0  0
  189.2570  177.2470  143.0700 C   0  0  0  0  0  2  0  0  0  0  0  0
  191.0780  176.8360  144.8560 C   0  0  1  0  0  0  0  0  0  0  0  0
  193.4470  176.1160  142.4000 C   0  0  2  0  0  3  0  0  0  0  0  0
  193.5220  176.0250  144.9220 C   0  0  0  0  0  0  0  0  0  0  0  0
  190.0290  174.5180  142.3970 O   0  0  0  0  0  0  0  0  0  0  0  0
  190.6970  175.5700  145.6480 C   0  0  0  0  0  2  0  0  0  0  0  0
  185.6970  177.8690  140.8290 C   0  0  0  0  0  2  0  0  0  0  0  0
  185.9000  176.9130  144.0840 O   0  0  0  0  0  0  0  0  0  0  0  0
  186.8140  176.8430  143.2200 C   0  0  0  0  0  0  0  0  0  0  0  0
  186.5680  177.2880  141.8910 N   0  0  0  0  0  0  0  0  0  0  0  0
  186.9890  177.5360  140.4810 C   0  0  0  0  0  2  0  0  0  0  0  0
  1 24  1  0  0  0  0
  2 30  1  1  0  0  0
  2 17  1  0  0  0  0
  3  7  2  0  0  0  0
  5 20  2  0  0  0  0
  5 21  1  0  0  0  0
  8  1  1  6  0  0  0
  8 14  1  0  0  0  0
  9 21  1  0  0  0  0
 10  1  2  0  0  0  0
 11  3  1  0  0  0  0
 11 10  1  0  0  0  0
 12  6  1  0  0  0  0
 13 15  1  0  0  0  0
 14 22  1  1  0  0  0
 14 23  1  0  0  0  0
 15 26  1  0  0  0  0
 16 27  1  0  0  0  0
 17 16  1  0  0  0  0
 18 10  1  0  0  0  0
 18 15  2  0  0  0  0
 20 25  1  0  0  0  0
 21 12  2  0  0  0  0
 22  2  1  0  0  0  0
 23 19  1  0  0  0  0
 23  4  1  1  0  0  0
 23 27  1  0  0  0  0
 24  7  1  6  0  0  0
 24 20  1  0  0  0  0
 25 19  1  0  0  0  0
 25  6  2  0  0  0  0
 26  8  1  0  0  0  0
 28 31  1  0  0  0  0
 30 29  2  0  0  0  0
 31 30  1  0  0  0  0
 32 28  1  0  0  0  0
 32 31  1  0  0  0  0
M  END
>  <MODEL>
7

>  <REMARK>
 VINA RESULT:      -7.3      1.560      2.276
  Name = 
  1 active torsions:
  status: ('A' for Active; 'I' for Inactive)
    1  A    between atoms: C_2  and  C_29
                            x       y       z     vdW  Elec       q    Type
                         _______ _______ _______ _____ _____    ______ ____

>  <TORSDO>
F 1

$$$$
=
 OpenBabel11062419053D

 32 37  0  0  1  0  0  0  0  0999 V2000
  190.6560  175.1950  144.1290 C   0  0  0  0  0  0  0  0  0  0  0  0
  187.2190  178.0640  143.9710 C   0  0  2  0  0  3  0  0  0  0  0  0
  192.6040  173.4020  145.0150 N   0  0  0  0  0  0  0  0  0  0  0  0
  186.3160  175.2730  142.3920 O   0  0  0  0  0  1  0  0  0  0  0  0
  191.8970  173.3920  141.7570 C   0  0  0  0  0  3  0  0  0  0  0  0
  189.6830  173.5940  140.1110 C   0  0  0  0  0  3  0  0  0  0  0  0
  191.4800  172.8980  144.5910 C   0  0  0  0  0  3  0  0  0  0  0  0
  189.6750  176.1000  143.9580 C   0  0  1  0  0  3  0  0  0  0  0  0
  193.3640  173.1430  139.7560 C   0  0  0  0  0  1  0  0  0  0  0  0
  192.0140  175.6690  144.4620 C   0  0  0  0  0  0  0  0  0  0  0  0
  192.9310  174.7960  144.8820 C   0  0  0  0  0  2  0  0  0  0  0  0
  190.9220  173.4200  139.5810 N   0  0  0  0  0  0  0  0  0  0  0  0
  191.5660  179.4110  144.1460 C   0  0  0  0  0  1  0  0  0  0  0  0
  188.2210  175.6880  143.7990 C   0  0  1  0  0  3  0  0  0  0  0  0
  191.3040  177.9500  144.1860 C   0  0  0  0  0  0  0  0  0  0  0  0
  188.0520  177.7730  141.6380 C   0  0  0  0  0  2  0  0  0  0  0  0
  186.8410  178.1230  142.4930 C   0  0  0  0  0  2  0  0  0  0  0  0
  192.3050  177.1050  144.4290 C   0  0  0  0  0  3  0  0  0  0  0  0
  188.1270  173.8550  142.0420 C   0  0  0  0  0  2  0  0  0  0  0  0
  190.6270  173.5460  142.3380 C   0  0  0  0  0  0  0  0  0  0  0  0
  192.0230  173.3190  140.3700 C   0  0  0  0  0  0  0  0  0  0  0  0
  187.2620  176.6390  144.5400 C   0  0  0  0  0  2  0  0  0  0  0  0
  187.7150  175.2950  142.3800 C   0  0  1  0  0  0  0  0  0  0  0  0
  190.4750  173.7320  143.8290 C   0  0  2  0  0  3  0  0  0  0  0  0
  189.5100  173.6720  141.4970 C   0  0  0  0  0  0  0  0  0  0  0  0
  190.0000  177.4710  143.9820 O   0  0  0  0  0  0  0  0  0  0  0  0
  188.1500  176.2830  141.2810 C   0  0  0  0  0  2  0  0  0  0  0  0
  185.5710  178.9360  147.5180 C   0  0  0  0  0  2  0  0  0  0  0  0
  185.6430  179.8440  144.2440 O   0  0  0  0  0  0  0  0  0  0  0  0
  186.2980  178.9120  144.7820 C   0  0  0  0  0  0  0  0  0  0  0  0
  186.1540  178.6570  146.1740 N   0  0  0  0  0  0  0  0  0  0  0  0
  186.4740  177.8990  147.4180 C   0  0  0  0  0  2  0  0  0  0  0  0
  1 10  2  0  0  0  0
  2 22  1  0  0  0  0
  2 30  1  1  0  0  0
  5 20  1  0  0  0  0
  6 25  1  0  0  0  0
  7  3  2  0  0  0  0
  8 26  1  1  0  0  0
  8  1  1  0  0  0  0
  9 21  1  0  0  0  0
 10 11  1  0  0  0  0
 11  3  1  0  0  0  0
 12  6  2  0  0  0  0
 12 21  1  0  0  0  0
 13 15  1  0  0  0  0
 14  8  1  0  0  0  0
 14 22  1  6  0  0  0
 15 18  2  0  0  0  0
 16 17  1  0  0  0  0
 17  2  1  0  0  0  0
 18 10  1  0  0  0  0
 19 23  1  0  0  0  0
 20 24  1  0  0  0  0
 21  5  2  0  0  0  0
 23  4  1  1  0  0  0
 23 14  1  0  0  0  0
 24  1  1  0  0  0  0
 24  7  1  1  0  0  0
 25 19  1  0  0  0  0
 25 20  2  0  0  0  0
 26 15  1  0  0  0  0
 27 16  1  0  0  0  0
 27 23  1  0  0  0  0
 29 30  2  0  0  0  0
 30 31  1  0  0  0  0
 31 32  1  0  0  0  0
 31 28  1  0  0  0  0
 32 28  1  0  0  0  0
M  END
>  <MODEL>
8

>  <REMARK>
 VINA RESULT:      -7.3      3.001      5.725
  Name = 
  1 active torsions:
  status: ('A' for Active; 'I' for Inactive)
    1  A    between atoms: C_2  and  C_29
                            x       y       z     vdW  Elec       q    Type
                         _______ _______ _______ _____ _____    ______ ____

>  <TORSDO>
F 1

$$$$
=
 OpenBabel11062419053D

 32 37  0  0  1  0  0  0  0  0999 V2000
  193.3640  173.5490  143.0070 C   0  0  0  0  0  0  0  0  0  0  0  0
  190.6300  176.3800  145.1470 C   0  0  2  0  0  3  0  0  0  0  0  0
  194.6930  172.0990  141.0260 N   0  0  0  0  0  0  0  0  0  0  0  0
  193.7530  177.4850  145.5020 O   0  0  0  0  0  1  0  0  0  0  0  0
  196.1510  172.2760  144.0190 C   0  0  0  0  0  3  0  0  0  0  0  0
  196.5570  174.1360  146.0260 C   0  0  0  0  0  3  0  0  0  0  0  0
  195.2450  173.2120  141.4210 C   0  0  0  0  0  3  0  0  0  0  0  0
  192.5650  174.3240  143.7660 C   0  0  1  0  0  3  0  0  0  0  0  0
  197.4120  170.5760  145.3370 C   0  0  0  0  0  1  0  0  0  0  0  0
  192.8990  172.2000  142.6290 C   0  0  0  0  0  0  0  0  0  0  0  0
  193.5490  171.5240  141.6810 C   0  0  0  0  0  2  0  0  0  0  0  0
  197.0550  172.8770  146.1420 N   0  0  0  0  0  0  0  0  0  0  0  0
  189.7050  171.9500  144.6380 C   0  0  0  0  0  1  0  0  0  0  0  0
  192.8880  175.7830  144.0410 C   0  0  1  0  0  3  0  0  0  0  0  0
  190.9560  172.4600  144.0210 C   0  0  0  0  0  0  0  0  0  0  0  0
  192.0320  175.2520  146.8750 C   0  0  0  0  0  2  0  0  0  0  0  0
  191.2310  176.5050  146.5460 C   0  0  0  0  0  2  0  0  0  0  0  0
  191.6690  171.6690  143.2210 C   0  0  0  0  0  3  0  0  0  0  0  0
  195.3110  175.9090  144.7940 C   0  0  0  0  0  2  0  0  0  0  0  0
  195.6460  173.5760  143.8560 C   0  0  0  0  0  0  0  0  0  0  0  0
  196.8670  171.9470  145.1700 C   0  0  0  0  0  0  0  0  0  0  0  0
  191.6290  176.6700  144.0190 C   0  0  0  0  0  2  0  0  0  0  0  0
  193.8500  176.1190  145.2180 C   0  0  1  0  0  0  0  0  0  0  0  0
  194.7810  173.9270  142.6690 C   0  0  2  0  0  3  0  0  0  0  0  0
  195.8350  174.5090  144.8880 C   0  0  0  0  0  0  0  0  0  0  0  0
  191.3700  173.7780  144.2740 O   0  0  0  0  0  0  0  0  0  0  0  0
  193.5200  175.3540  146.5140 C   0  0  0  0  0  2  0  0  0  0  0  0
  187.7270  177.9110  142.8480 C   0  0  0  0  0  2  0  0  0  0  0  0
  188.9980  177.9100  146.0000 O   0  0  0  0  0  0  0  0  0  0  0  0
  189.4340  177.2610  145.0110 C   0  0  0  0  0  0  0  0  0  0  0  0
  188.7850  177.3710  143.7500 N   0  0  0  0  0  0  0  0  0  0  0  0
  188.6410  177.0340  142.3040 C   0  0  0  0  0  2  0  0  0  0  0  0
  2 30  1  1  0  0  0
  2 17  1  0  0  0  0
  3  7  2  0  0  0  0
  3 11  1  0  0  0  0
  5 21  1  0  0  0  0
  6 12  1  0  0  0  0
  8  1  1  6  0  0  0
  8 14  1  0  0  0  0
  8 26  1  0  0  0  0
 10  1  2  0  0  0  0
 10 18  1  0  0  0  0
 11 10  1  0  0  0  0
 14 22  1  1  0  0  0
 14 23  1  0  0  0  0
 15 26  1  0  0  0  0
 15 13  1  0  0  0  0
 17 16  1  0  0  0  0
 18 15  2  0  0  0  0
 19 25  1  0  0  0  0
 19 23  1  0  0  0  0
 20  5  2  0  0  0  0
 20 25  1  0  0  0  0
 21  9  1  0  0  0  0
 21 12  2  0  0  0  0
 22  2  1  0  0  0  0
 23  4  1  1  0  0  0
 23 27  1  0  0  0  0
 24  7  1  6  0  0  0
 24  1  1  0  0  0  0
 24 20  1  0  0  0  0
 25  6  2  0  0  0  0
 27 16  1  0  0  0  0
 28 31  1  0  0  0  0
 30 29  2  0  0  0  0
 31 30  1  0  0  0  0
 32 28  1  0  0  0  0
 32 31  1  0  0  0  0
M  END
>  <MODEL>
9

>  <REMARK>
 VINA RESULT:      -7.2      1.892      2.330
  Name = 
  1 active torsions:
  status: ('A' for Active; 'I' for Inactive)
    1  A    between atoms: C_2  and  C_29
                            x       y       z     vdW  Elec       q    Type
                         _______ _______ _______ _____ _____    ______ ____

>  <TORSDO>
F 1

$$$$
