=
 OpenBabel11072408313D

 56 60  0  0  1  0  0  0  0  0999 V2000
  187.1480  177.8490  143.2770 C   0  0  1  0  0  3  0  0  0  0  0  0
  185.2170  177.0850  144.7230 C   0  0  0  0  0  2  0  0  0  0  0  0
  184.7350  177.8840  145.9200 C   0  0  0  0  0  2  0  0  0  0  0  0
  185.8570  178.8480  146.2330 C   0  0  2  0  0  3  0  0  0  0  0  0
  187.1460  178.1330  145.8380 C   0  0  2  0  0  3  0  0  0  0  0  0
  186.7280  177.2790  144.6420 C   0  0  2  0  0  3  0  0  0  0  0  0
  185.8360  179.2410  147.6360 N   0  0  0  0  0  1  0  0  0  0  0  0
  187.6420  177.2020  146.9530 C   0  0  0  0  0  2  0  0  0  0  0  0
  187.9340  175.7960  146.4440 C   0  0  0  0  0  2  0  0  0  0  0  0
  189.4040  175.5920  146.0910 C   0  0  2  0  0  3  0  0  0  0  0  0
  189.8260  174.1320  146.1730 C   0  0  0  0  0  1  0  0  0  0  0  0
  190.3140  176.5340  146.8950 C   0  0  0  0  0  2  0  0  0  0  0  0
  191.6160  175.9330  147.4540 C   0  0  2  0  0  3  0  0  0  0  0  0
  191.7980  176.3040  148.7880 O   0  0  0  0  0  0  0  0  0  0  0  0
  191.3440  177.6220  148.8560 C   0  0  0  0  0  1  0  0  0  0  0  0
  192.8480  176.2990  146.6350 C   0  0  0  0  0  2  0  0  0  0  0  0
  193.5800  175.0570  146.1580 C   0  0  0  0  0  2  0  0  0  0  0  0
  195.9300  174.7360  145.4670 N   0  0  0  0  0  0  0  0  0  0  0  0
  195.0550  175.2580  146.2750 C   0  0  0  0  0  3  0  0  0  0  0  0
  195.6440  173.9650  144.3230 N   0  0  0  0  0  2  0  0  0  0  0  0
  196.1130  172.6030  144.0990 C   0  0  0  0  0  2  0  0  0  0  0  0
  196.9780  170.0930  146.3150 C   0  0  1  0  0  3  0  0  0  0  0  0
  193.4570  171.7420  144.9840 O   0  0  0  0  0  0  0  0  0  0  0  0
  195.6910  169.2360  146.4190 C   0  0  2  0  0  3  0  0  0  0  0  0
  195.7910  171.7660  145.2500 N   0  0  0  0  0  0  0  0  0  0  0  0
  196.5540  169.1910  145.1570 C   0  0  0  0  0  2  0  0  0  0  0  0
  196.7350  171.5010  146.1960 O   0  0  0  0  0  0  0  0  0  0  0  0
  194.5000  171.2070  145.4460 C   0  0  0  0  0  0  0  0  0  0  0  0
  194.4470  169.9690  146.1410 N   0  0  0  0  0  2  0  0  0  0  0  0
  186.2730  177.3840  140.8120 C   0  0  0  0  0  1  0  0  0  0  0  0
  188.0930  175.8890  141.8000 C   0  0  2  0  0  3  0  0  0  0  0  0
  186.9820  176.9030  142.0680 C   0  0  1  0  0  0  0  0  0  0  0  0
  186.7570  175.4380  142.3730 C   0  0  0  0  0  2  0  0  0  0  0  0
  189.1510  175.8380  142.9050 C   0  0  0  0  0  2  0  0  0  0  0  0
  191.6470  176.2580  143.1260 C   0  0  2  0  0  3  0  0  0  0  0  0
  194.0240  176.5420  142.9120 O   0  0  0  0  0  0  0  0  0  0  0  0
  193.2250  174.5340  142.1660 O   0  0  0  0  0  0  0  0  0  0  0  0
  193.0230  175.8020  142.7120 C   0  0  0  0  0  0  0  0  0  0  0  0
  192.1890  173.6160  141.9880 C   0  0  0  0  0  0  0  0  0  0  0  0
  190.5480  175.4860  142.3740 C   0  0  1  0  0  3  0  0  0  0  0  0
  190.7750  173.9640  142.3680 C   0  0  1  0  0  3  0  0  0  0  0  0
  192.4670  172.4590  141.5710 O   0  0  0  0  0  0  0  0  0  0  0  0
  189.8070  173.5840  140.0630 N   0  0  0  0  0  2  0  0  0  0  0  0
  188.9390  172.4780  141.9320 O   0  0  0  0  0  0  0  0  0  0  0  0
  189.7940  173.2780  141.4600 C   0  0  0  0  0  0  0  0  0  0  0  0
  188.8680  172.9730  139.1290 C   0  0  2  0  0  3  0  0  0  0  0  0
  189.3800  171.6020  138.6970 C   0  0  0  0  0  1  0  0  0  0  0  0
  188.6300  173.9010  137.9700 C   0  0  0  0  0  0  0  0  0  0  0  0
  187.7410  174.7360  138.0630 O   0  0  0  0  0  0  0  0  0  0  0  0
  189.4640  173.8400  136.7230 C   0  0  2  0  0  3  0  0  0  0  0  0
  190.8250  174.2650  137.0050 N   0  0  0  0  0  1  0  0  0  0  0  0
  188.8640  174.7190  135.6420 C   0  0  0  0  0  1  0  0  0  0  0  0
  191.4780  177.7560  142.8830 C   0  0  0  0  0  2  0  0  0  0  0  0
  190.8770  178.4230  144.1100 C   0  0  0  0  0  1  0  0  0  0  0  0
  186.5050  179.1780  143.0310 C   0  0  0  0  0  3  0  0  0  0  0  0
  185.3050  179.2520  142.8220 O   0  0  0  0  0  0  0  0  0  0  0  0
  1 55  1  6  0  0  0
  2  3  1  0  0  0  0
  3  4  1  0  0  0  0
  4  7  1  1  0  0  0
  5  4  1  0  0  0  0
  5  8  1  1  0  0  0
  6  1  1  6  0  0  0
  6  2  1  0  0  0  0
  6  5  1  0  0  0  0
  9  8  1  0  0  0  0
 10 11  1  1  0  0  0
 10  9  1  0  0  0  0
 10 12  1  0  0  0  0
 12 13  1  0  0  0  0
 13 16  1  6  0  0  0
 13 14  1  0  0  0  0
 14 15  1  0  0  0  0
 17 19  1  0  0  0  0
 17 16  1  0  0  0  0
 18 19  2  0  0  0  0
 20 18  1  0  0  0  0
 21 20  1  0  0  0  0
 21 25  1  0  0  0  0
 22 26  1  6  0  0  0
 22 24  1  0  0  0  0
 23 28  2  0  0  0  0
 24 26  1  6  0  0  0
 25 28  1  0  0  0  0
 25 27  1  0  0  0  0
 27 22  1  0  0  0  0
 28 29  1  0  0  0  0
 29 24  1  0  0  0  0
 31 32  1  0  0  0  0
 31 33  1  0  0  0  0
 31 34  1  1  0  0  0
 32 30  1  6  0  0  0
 32 33  1  0  0  0  0
 32  1  1  0  0  0  0
 35 53  1  6  0  0  0
 37 38  1  0  0  0  0
 38 36  2  0  0  0  0
 38 35  1  0  0  0  0
 39 37  1  0  0  0  0
 39 41  1  0  0  0  0
 40 34  1  1  0  0  0
 40 35  1  0  0  0  0
 41 45  1  6  0  0  0
 41 40  1  0  0  0  0
 42 39  2  0  0  0  0
 43 45  1  0  0  0  0
 45 44  2  0  0  0  0
 46 47  1  6  0  0  0
 46 43  1  0  0  0  0
 48 49  2  0  0  0  0
 48 46  1  0  0  0  0
 50 52  1  6  0  0  0
 50 51  1  0  0  0  0
 50 48  1  0  0  0  0
 53 54  1  0  0  0  0
 56 55  2  0  0  0  0
M  END
>  <MODEL>
1

>  <REMARK>
 VINA RESULT:      -6.7      0.000      0.000
  Name = 
  22 active torsions:
  status: ('A' for Active; 'I' for Inactive)
    1  A    between atoms: C_3  and  C_9
    2  A    between atoms: C_4  and  C_7
    3  A    between atoms: C_4  and  C_38
    4  A    between atoms: N_5  and  C_10
    5  A    between atoms: C_7  and  O_13
    6  A    between atoms: C_7  and  C_35
    7  A    between atoms: C_8  and  C_17
    8  A    between atoms: C_9  and  C_41
    9  A    between atoms: C_10  and  C_18
   10  A    between atoms: C_11  and  N_34
   11  A    between atoms: C_11  and  N_45
   12  A    between atoms: C_12  and  C_35
   13  A    between atoms: C_12  and  C_39
   14  A    between atoms: C_18  and  C_24
   15  A    between atoms: C_19  and  C_46
   16  A    between atoms: N_21  and  N_45
   17  A    between atoms: C_25  and  C_31
   18  A    between atoms: C_25  and  C_40
   19  A    between atoms: C_25  and  C_49
   20  A    between atoms: C_28  and  C_44
   21  A    between atoms: C_33  and  C_38
   22  A    between atoms: C_39  and  C_44
                            x       y       z     vdW  Elec       q    Type
                         _______ _______ _______ _____ _____    ______ ____

>  <TORSDO>
F 22

$$$$
=
 OpenBabel11072408313D

 56 60  0  0  1  0  0  0  0  0999 V2000
  190.6820  176.4680  146.7830 C   0  0  1  0  0  3  0  0  0  0  0  0
  193.1190  176.8770  147.3330 C   0  0  0  0  0  2  0  0  0  0  0  0
  194.1500  177.1870  146.2650 C   0  0  0  0  0  2  0  0  0  0  0  0
  193.5090  176.7710  144.9600 C   0  0  2  0  0  3  0  0  0  0  0  0
  192.5980  175.5930  145.2980 C   0  0  2  0  0  3  0  0  0  0  0  0
  192.1150  175.9110  146.7120 C   0  0  2  0  0  3  0  0  0  0  0  0
  194.5160  176.4370  143.9620 N   0  0  0  0  0  1  0  0  0  0  0  0
  193.3730  174.2700  145.3320 C   0  0  0  0  0  2  0  0  0  0  0  0
  192.7240  173.1970  144.4660 C   0  0  0  0  0  2  0  0  0  0  0  0
  193.7390  172.2190  143.8830 C   0  0  2  0  0  3  0  0  0  0  0  0
  193.6150  170.8250  144.4820 C   0  0  0  0  0  1  0  0  0  0  0  0
  195.1670  172.7830  143.9450 C   0  0  0  0  0  2  0  0  0  0  0  0
  195.9090  172.9430  142.6050 C   0  0  2  0  0  3  0  0  0  0  0  0
  196.2760  171.6980  142.0920 O   0  0  0  0  0  0  0  0  0  0  0  0
  195.7380  171.6720  140.8050 C   0  0  0  0  0  1  0  0  0  0  0  0
  197.1290  173.8520  142.6990 C   0  0  0  0  0  2  0  0  0  0  0  0
  197.0310  175.0060  141.7170 C   0  0  0  0  0  2  0  0  0  0  0  0
  197.5840  174.8790  139.3120 N   0  0  0  0  0  0  0  0  0  0  0  0
  197.9410  174.7680  140.5570 C   0  0  0  0  0  3  0  0  0  0  0  0
  196.3220  175.3020  138.8480 N   0  0  0  0  0  2  0  0  0  0  0  0
  195.6450  174.7670  137.6730 C   0  0  0  0  0  2  0  0  0  0  0  0
  192.5490  173.5340  138.5960 C   0  0  1  0  0  3  0  0  0  0  0  0
  193.8980  176.4310  136.0130 O   0  0  0  0  0  0  0  0  0  0  0  0
  191.6250  173.9460  137.4220 C   0  0  2  0  0  3  0  0  0  0  0  0
  194.2020  174.9410  137.8040 N   0  0  0  0  0  0  0  0  0  0  0  0
  192.6470  172.8200  137.2480 C   0  0  0  0  0  2  0  0  0  0  0  0
  193.5530  174.5060  138.9190 O   0  0  0  0  0  0  0  0  0  0  0  0
  193.4180  175.5710  136.8000 C   0  0  0  0  0  0  0  0  0  0  0  0
  192.0710  175.1360  136.6850 N   0  0  0  0  0  2  0  0  0  0  0  0
  189.2280  174.5060  147.8290 C   0  0  0  0  0  1  0  0  0  0  0  0
  188.3270  175.8030  145.8230 C   0  0  2  0  0  3  0  0  0  0  0  0
  189.5450  175.4300  146.6640 C   0  0  1  0  0  0  0  0  0  0  0  0
  189.3420  174.7940  145.3060 C   0  0  0  0  0  2  0  0  0  0  0  0
  188.4960  177.1160  145.0540 C   0  0  0  0  0  2  0  0  0  0  0  0
  186.3610  178.4090  144.5770 C   0  0  2  0  0  3  0  0  0  0  0  0
  184.2390  179.2890  143.8710 O   0  0  0  0  0  0  0  0  0  0  0  0
  185.6030  178.5940  142.1730 O   0  0  0  0  0  0  0  0  0  0  0  0
  185.3350  178.7670  143.5320 C   0  0  0  0  0  0  0  0  0  0  0  0
  186.8220  178.1030  141.7020 C   0  0  0  0  0  0  0  0  0  0  0  0
  187.3620  177.3660  144.0480 C   0  0  1  0  0  3  0  0  0  0  0  0
  187.9200  177.7140  142.6560 C   0  0  1  0  0  3  0  0  0  0  0  0
  187.0190  178.0590  140.4580 O   0  0  0  0  0  0  0  0  0  0  0  0
  188.0590  175.4040  141.6390 N   0  0  0  0  0  2  0  0  0  0  0  0
  189.9920  176.6400  142.0910 O   0  0  0  0  0  0  0  0  0  0  0  0
  188.7310  176.5780  142.1020 C   0  0  0  0  0  0  0  0  0  0  0  0
  188.7860  174.2550  141.1110 C   0  0  2  0  0  3  0  0  0  0  0  0
  188.6270  174.1890  139.5950 C   0  0  0  0  0  1  0  0  0  0  0  0
  188.3240  173.0020  141.8030 C   0  0  0  0  0  0  0  0  0  0  0  0
  187.1250  172.8420  141.9830 O   0  0  0  0  0  0  0  0  0  0  0  0
  189.2900  171.9440  142.2550 C   0  0  2  0  0  3  0  0  0  0  0  0
  189.3470  171.9020  143.7060 N   0  0  0  0  0  1  0  0  0  0  0  0
  190.6720  172.2160  141.6920 C   0  0  0  0  0  1  0  0  0  0  0  0
  185.6850  177.8740  145.8370 C   0  0  0  0  0  2  0  0  0  0  0  0
  185.8400  178.8680  146.9780 C   0  0  0  0  0  1  0  0  0  0  0  0
  190.5080  177.3420  147.9850 C   0  0  0  0  0  3  0  0  0  0  0  0
  189.8330  178.3560  147.9170 O   0  0  0  0  0  0  0  0  0  0  0  0
  1 55  1  1  0  0  0
  3  2  1  0  0  0  0
  4  7  1  6  0  0  0
  4  5  1  0  0  0  0
  4  3  1  0  0  0  0
  5  8  1  1  0  0  0
  5  6  1  0  0  0  0
  6  1  1  6  0  0  0
  6  2  1  0  0  0  0
  9  8  1  0  0  0  0
 10 12  1  0  0  0  0
 10  9  1  0  0  0  0
 10 11  1  1  0  0  0
 13 16  1  1  0  0  0
 13 12  1  0  0  0  0
 14 13  1  0  0  0  0
 15 14  1  0  0  0  0
 17 16  1  0  0  0  0
 18 19  2  0  0  0  0
 19 17  1  0  0  0  0
 20 18  1  0  0  0  0
 21 25  1  0  0  0  0
 21 20  1  0  0  0  0
 22 26  1  6  0  0  0
 22 27  1  0  0  0  0
 23 28  2  0  0  0  0
 24 26  1  6  0  0  0
 24 22  1  0  0  0  0
 25 27  1  0  0  0  0
 28 25  1  0  0  0  0
 29 28  1  0  0  0  0
 29 24  1  0  0  0  0
 31 34  1  6  0  0  0
 31 32  1  0  0  0  0
 32  1  1  0  0  0  0
 32 30  1  1  0  0  0
 33 31  1  0  0  0  0
 33 32  1  0  0  0  0
 35 53  1  1  0  0  0
 37 38  1  0  0  0  0
 38 36  2  0  0  0  0
 38 35  1  0  0  0  0
 39 37  1  0  0  0  0
 39 41  1  0  0  0  0
 40 35  1  0  0  0  0
 40 34  1  1  0  0  0
 41 45  1  6  0  0  0
 41 40  1  0  0  0  0
 42 39  2  0  0  0  0
 43 45  1  0  0  0  0
 44 45  2  0  0  0  0
 46 47  1  6  0  0  0
 46 43  1  0  0  0  0
 46 48  1  0  0  0  0
 48 49  2  0  0  0  0
 48 50  1  0  0  0  0
 50 52  1  6  0  0  0
 50 51  1  0  0  0  0
 53 54  1  0  0  0  0
 56 55  2  0  0  0  0
M  END
>  <MODEL>
2

>  <REMARK>
 VINA RESULT:      -6.5      2.681      7.084
  Name = 
  22 active torsions:
  status: ('A' for Active; 'I' for Inactive)
    1  A    between atoms: C_3  and  C_9
    2  A    between atoms: C_4  and  C_7
    3  A    between atoms: C_4  and  C_38
    4  A    between atoms: N_5  and  C_10
    5  A    between atoms: C_7  and  O_13
    6  A    between atoms: C_7  and  C_35
    7  A    between atoms: C_8  and  C_17
    8  A    between atoms: C_9  and  C_41
    9  A    between atoms: C_10  and  C_18
   10  A    between atoms: C_11  and  N_34
   11  A    between atoms: C_11  and  N_45
   12  A    between atoms: C_12  and  C_35
   13  A    between atoms: C_12  and  C_39
   14  A    between atoms: C_18  and  C_24
   15  A    between atoms: C_19  and  C_46
   16  A    between atoms: N_21  and  N_45
   17  A    between atoms: C_25  and  C_31
   18  A    between atoms: C_25  and  C_40
   19  A    between atoms: C_25  and  C_49
   20  A    between atoms: C_28  and  C_44
   21  A    between atoms: C_33  and  C_38
   22  A    between atoms: C_39  and  C_44
                            x       y       z     vdW  Elec       q    Type
                         _______ _______ _______ _____ _____    ______ ____

>  <TORSDO>
F 22

$$$$
=
 OpenBabel11072408313D

 56 60  0  0  1  0  0  0  0  0999 V2000
  191.6220  172.4580  140.0970 C   0  0  1  0  0  3  0  0  0  0  0  0
  189.4550  171.5890  139.1200 C   0  0  0  0  0  2  0  0  0  0  0  0
  188.5290  172.4640  138.2950 C   0  0  0  0  0  2  0  0  0  0  0  0
  188.9590  173.8850  138.5870 C   0  0  2  0  0  3  0  0  0  0  0  0
  189.4740  173.8790  140.0240 C   0  0  2  0  0  3  0  0  0  0  0  0
  190.0860  172.4880  140.1790 C   0  0  2  0  0  3  0  0  0  0  0  0
  187.8600  174.8190  138.3840 N   0  0  0  0  0  1  0  0  0  0  0  0
  188.3290  174.0240  141.0360 C   0  0  0  0  0  2  0  0  0  0  0  0
  188.7860  174.6740  142.3360 C   0  0  0  0  0  2  0  0  0  0  0  0
  189.4900  176.0090  142.1110 C   0  0  2  0  0  3  0  0  0  0  0  0
  190.7750  176.1330  142.9170 C   0  0  0  0  0  1  0  0  0  0  0  0
  188.5310  177.1930  142.3070 C   0  0  0  0  0  2  0  0  0  0  0  0
  187.1350  177.0700  141.6690 C   0  0  2  0  0  3  0  0  0  0  0  0
  187.1870  177.3680  140.3060 O   0  0  0  0  0  0  0  0  0  0  0  0
  185.8790  177.7220  139.9700 C   0  0  0  0  0  1  0  0  0  0  0  0
  186.0820  177.9320  142.3550 C   0  0  0  0  0  2  0  0  0  0  0  0
  186.4370  178.1800  143.8100 C   0  0  0  0  0  2  0  0  0  0  0  0
  185.0480  177.6390  145.7810 N   0  0  0  0  0  0  0  0  0  0  0  0
  185.1940  178.2380  144.6360 C   0  0  0  0  0  3  0  0  0  0  0  0
  186.0400  176.9040  146.4620 N   0  0  0  0  0  2  0  0  0  0  0  0
  187.1270  177.4920  147.2350 C   0  0  0  0  0  2  0  0  0  0  0  0
  189.1010  174.9540  145.9600 C   0  0  1  0  0  3  0  0  0  0  0  0
  189.7890  178.4860  147.9450 O   0  0  0  0  0  0  0  0  0  0  0  0
  190.4350  175.1020  146.7350 C   0  0  2  0  0  3  0  0  0  0  0  0
  188.4120  177.0230  146.7270 N   0  0  0  0  0  0  0  0  0  0  0  0
  189.1900  174.5480  147.4310 C   0  0  0  0  0  2  0  0  0  0  0  0
  188.4670  176.2000  145.6430 O   0  0  0  0  0  0  0  0  0  0  0  0
  189.6470  177.4010  147.3180 C   0  0  0  0  0  0  0  0  0  0  0  0
  190.7080  176.4620  147.2210 N   0  0  0  0  0  2  0  0  0  0  0  0
  192.5300  170.3010  141.3540 C   0  0  0  0  0  1  0  0  0  0  0  0
  193.4900  172.5920  141.9420 C   0  0  2  0  0  3  0  0  0  0  0  0
  192.3510  171.8090  141.2940 C   0  0  1  0  0  0  0  0  0  0  0  0
  192.1490  172.4550  142.6470 C   0  0  0  0  0  2  0  0  0  0  0  0
  193.6280  174.0210  141.4100 C   0  0  0  0  0  2  0  0  0  0  0  0
  195.4230  174.9500  139.8700 C   0  0  2  0  0  3  0  0  0  0  0  0
  197.4000  175.6260  138.6830 O   0  0  0  0  0  0  0  0  0  0  0  0
  197.4360  176.0510  140.9290 O   0  0  0  0  0  0  0  0  0  0  0  0
  196.8100  175.5360  139.7930 C   0  0  0  0  0  0  0  0  0  0  0  0
  196.8230  176.0710  142.1830 C   0  0  0  0  0  0  0  0  0  0  0  0
  195.0910  174.4740  141.2950 C   0  0  1  0  0  3  0  0  0  0  0  0
  195.4380  175.5140  142.3760 C   0  0  1  0  0  3  0  0  0  0  0  0
  197.4190  176.6330  143.1410 O   0  0  0  0  0  0  0  0  0  0  0  0
  196.0900  173.8100  144.1270 N   0  0  0  0  0  2  0  0  0  0  0  0
  194.4220  175.3950  144.5480 O   0  0  0  0  0  0  0  0  0  0  0  0
  195.2850  174.9310  143.7520 C   0  0  0  0  0  0  0  0  0  0  0  0
  195.9760  173.1800  145.4380 C   0  0  2  0  0  3  0  0  0  0  0  0
  196.9800  173.8010  146.4030 C   0  0  0  0  0  1  0  0  0  0  0  0
  196.1380  171.6920  145.3000 C   0  0  0  0  0  0  0  0  0  0  0  0
  197.2490  171.2070  145.4690 O   0  0  0  0  0  0  0  0  0  0  0  0
  194.9770  170.7940  144.9840 C   0  0  2  0  0  3  0  0  0  0  0  0
  194.6640  169.9530  146.1270 N   0  0  0  0  0  1  0  0  0  0  0  0
  195.2910  169.9280  143.7790 C   0  0  0  0  0  1  0  0  0  0  0  0
  195.2730  173.7850  138.8940 C   0  0  0  0  0  2  0  0  0  0  0  0
  196.0950  172.5970  139.3660 C   0  0  0  0  0  1  0  0  0  0  0  0
  192.0770  171.8790  138.7940 C   0  0  0  0  0  3  0  0  0  0  0  0
  192.4660  172.6100  137.8980 O   0  0  0  0  0  0  0  0  0  0  0  0
  1 55  1  6  0  0  0
  1 32  1  0  0  0  0
  2  6  1  0  0  0  0
  3  4  1  0  0  0  0
  3  2  1  0  0  0  0
  4  7  1  1  0  0  0
  4  5  1  0  0  0  0
  5  6  1  0  0  0  0
  5  8  1  1  0  0  0
  6  1  1  6  0  0  0
  8  9  1  0  0  0  0
 10 12  1  0  0  0  0
 10  9  1  0  0  0  0
 10 11  1  1  0  0  0
 13 12  1  1  0  0  0
 13 16  1  0  0  0  0
 14 13  1  0  0  0  0
 15 14  1  0  0  0  0
 16 17  1  0  0  0  0
 17 19  1  0  0  0  0
 18 20  1  0  0  0  0
 19 18  2  0  0  0  0
 20 21  1  0  0  0  0
 22 24  1  0  0  0  0
 22 26  1  1  0  0  0
 24 29  1  0  0  0  0
 24 26  1  1  0  0  0
 25 21  1  0  0  0  0
 25 28  1  0  0  0  0
 27 22  1  0  0  0  0
 27 25  1  0  0  0  0
 28 23  2  0  0  0  0
 29 28  1  0  0  0  0
 31 34  1  6  0  0  0
 31 33  1  0  0  0  0
 32 30  1  6  0  0  0
 32 31  1  0  0  0  0
 32 33  1  0  0  0  0
 35 53  1  6  0  0  0
 35 40  1  0  0  0  0
 36 38  2  0  0  0  0
 37 39  1  0  0  0  0
 38 35  1  0  0  0  0
 38 37  1  0  0  0  0
 39 41  1  0  0  0  0
 39 42  2  0  0  0  0
 40 34  1  6  0  0  0
 40 41  1  0  0  0  0
 41 45  1  1  0  0  0
 43 46  1  0  0  0  0
 45 43  1  0  0  0  0
 45 44  2  0  0  0  0
 46 47  1  1  0  0  0
 48 46  1  0  0  0  0
 48 49  2  0  0  0  0
 50 52  1  6  0  0  0
 50 48  1  0  0  0  0
 50 51  1  0  0  0  0
 53 54  1  0  0  0  0
 56 55  2  0  0  0  0
M  END
>  <MODEL>
3

>  <REMARK>
 VINA RESULT:      -6.5      2.587      8.370
  Name = 
  22 active torsions:
  status: ('A' for Active; 'I' for Inactive)
    1  A    between atoms: C_3  and  C_9
    2  A    between atoms: C_4  and  C_7
    3  A    between atoms: C_4  and  C_38
    4  A    between atoms: N_5  and  C_10
    5  A    between atoms: C_7  and  O_13
    6  A    between atoms: C_7  and  C_35
    7  A    between atoms: C_8  and  C_17
    8  A    between atoms: C_9  and  C_41
    9  A    between atoms: C_10  and  C_18
   10  A    between atoms: C_11  and  N_34
   11  A    between atoms: C_11  and  N_45
   12  A    between atoms: C_12  and  C_35
   13  A    between atoms: C_12  and  C_39
   14  A    between atoms: C_18  and  C_24
   15  A    between atoms: C_19  and  C_46
   16  A    between atoms: N_21  and  N_45
   17  A    between atoms: C_25  and  C_31
   18  A    between atoms: C_25  and  C_40
   19  A    between atoms: C_25  and  C_49
   20  A    between atoms: C_28  and  C_44
   21  A    between atoms: C_33  and  C_38
   22  A    between atoms: C_39  and  C_44
                            x       y       z     vdW  Elec       q    Type
                         _______ _______ _______ _____ _____    ______ ____

>  <TORSDO>
F 22

$$$$
=
 OpenBabel11072408313D

 56 60  0  0  1  0  0  0  0  0999 V2000
  190.8160  176.3930  146.7080 C   0  0  1  0  0  3  0  0  0  0  0  0
  193.2490  177.0860  146.8020 C   0  0  0  0  0  2  0  0  0  0  0  0
  194.1260  177.1370  145.5640 C   0  0  0  0  0  2  0  0  0  0  0  0
  193.3890  176.3280  144.5200 C   0  0  2  0  0  3  0  0  0  0  0  0
  192.6330  175.2450  145.2870 C   0  0  2  0  0  3  0  0  0  0  0  0
  192.2780  175.9250  146.6080 C   0  0  2  0  0  3  0  0  0  0  0  0
  194.3090  175.7820  143.5320 N   0  0  0  0  0  1  0  0  0  0  0  0
  193.5280  174.0340  145.5860 C   0  0  0  0  0  2  0  0  0  0  0  0
  192.9790  172.7470  144.9830 C   0  0  0  0  0  2  0  0  0  0  0  0
  193.8330  171.5290  145.3200 C   0  0  2  0  0  3  0  0  0  0  0  0
  195.3100  171.8710  145.4490 C   0  0  0  0  0  1  0  0  0  0  0  0
  193.5590  170.3630  144.3560 C   0  0  0  0  0  2  0  0  0  0  0  0
  193.1920  170.7320  142.9080 C   0  0  2  0  0  3  0  0  0  0  0  0
  192.2850  169.8110  142.3780 O   0  0  0  0  0  0  0  0  0  0  0  0
  193.0720  168.9140  141.6540 C   0  0  0  0  0  1  0  0  0  0  0  0
  194.4050  170.8580  141.9930 C   0  0  0  0  0  2  0  0  0  0  0  0
  194.6610  172.3070  141.6170 C   0  0  0  0  0  2  0  0  0  0  0  0
  194.5170  172.4280  139.1530 N   0  0  0  0  0  0  0  0  0  0  0  0
  195.2310  172.3830  140.2390 C   0  0  0  0  0  3  0  0  0  0  0  0
  193.1100  172.4820  139.0900 N   0  0  0  0  0  2  0  0  0  0  0  0
  192.3480  173.0940  138.0090 C   0  0  0  0  0  2  0  0  0  0  0  0
  189.4970  171.1860  138.4390 C   0  0  1  0  0  3  0  0  0  0  0  0
  192.7850  171.0280  135.9800 O   0  0  0  0  0  0  0  0  0  0  0  0
  189.8760  169.8150  137.8230 C   0  0  2  0  0  3  0  0  0  0  0  0
  191.3710  172.1460  137.4860 N   0  0  0  0  0  0  0  0  0  0  0  0
  190.4650  170.2530  139.1660 C   0  0  0  0  0  2  0  0  0  0  0  0
  190.0430  172.3120  137.7410 O   0  0  0  0  0  0  0  0  0  0  0  0
  191.7440  171.0300  136.6910 C   0  0  0  0  0  0  0  0  0  0  0  0
  190.9130  169.8810  136.7830 N   0  0  0  0  0  2  0  0  0  0  0  0
  189.5610  174.2570  147.6660 C   0  0  0  0  0  1  0  0  0  0  0  0
  188.4490  175.6510  145.8380 C   0  0  2  0  0  3  0  0  0  0  0  0
  189.7420  175.2940  146.5680 C   0  0  1  0  0  0  0  0  0  0  0  0
  189.4890  174.7590  145.1750 C   0  0  0  0  0  2  0  0  0  0  0  0
  188.4840  177.0310  145.1770 C   0  0  0  0  0  2  0  0  0  0  0  0
  186.2300  178.1990  145.0680 C   0  0  2  0  0  3  0  0  0  0  0  0
  183.9940  178.9880  144.6790 O   0  0  0  0  0  0  0  0  0  0  0  0
  185.2230  178.6160  142.7880 O   0  0  0  0  0  0  0  0  0  0  0  0
  185.0820  178.6000  144.1760 C   0  0  0  0  0  0  0  0  0  0  0  0
  186.4190  178.2850  142.1480 C   0  0  0  0  0  0  0  0  0  0  0  0
  187.2410  177.3120  144.3200 C   0  0  1  0  0  3  0  0  0  0  0  0
  187.6310  177.8710  142.9400 C   0  0  1  0  0  3  0  0  0  0  0  0
  186.4920  178.4090  140.8960 O   0  0  0  0  0  0  0  0  0  0  0  0
  187.8510  175.6600  141.7320 N   0  0  0  0  0  2  0  0  0  0  0  0
  189.6820  177.0980  141.9590 O   0  0  0  0  0  0  0  0  0  0  0  0
  188.4570  176.8790  142.1710 C   0  0  0  0  0  0  0  0  0  0  0  0
  188.6000  174.6440  141.0020 C   0  0  2  0  0  3  0  0  0  0  0  0
  188.1510  174.6110  139.5440 C   0  0  0  0  0  1  0  0  0  0  0  0
  188.4520  173.3150  141.6900 C   0  0  0  0  0  0  0  0  0  0  0  0
  187.3280  172.9290  141.9810 O   0  0  0  0  0  0  0  0  0  0  0  0
  189.6380  172.4490  142.0050 C   0  0  2  0  0  3  0  0  0  0  0  0
  189.4650  171.8090  143.2980 N   0  0  0  0  0  1  0  0  0  0  0  0
  190.9100  173.2760  142.0060 C   0  0  0  0  0  1  0  0  0  0  0  0
  185.7210  177.4620  146.3050 C   0  0  0  0  0  2  0  0  0  0  0  0
  185.9570  178.3020  147.5500 C   0  0  0  0  0  1  0  0  0  0  0  0
  190.6030  177.2210  147.9370 C   0  0  0  0  0  3  0  0  0  0  0  0
  189.9250  178.2350  147.8860 O   0  0  0  0  0  0  0  0  0  0  0  0
  1 55  1  1  0  0  0
  3  2  1  0  0  0  0
  4  7  1  6  0  0  0
  4  5  1  0  0  0  0
  4  3  1  0  0  0  0
  5  8  1  1  0  0  0
  5  6  1  0  0  0  0
  6  1  1  6  0  0  0
  6  2  1  0  0  0  0
  9 10  1  0  0  0  0
  9  8  1  0  0  0  0
 10 11  1  6  0  0  0
 12 10  1  0  0  0  0
 13 16  1  6  0  0  0
 13 12  1  0  0  0  0
 14 13  1  0  0  0  0
 15 14  1  0  0  0  0
 17 16  1  0  0  0  0
 18 19  2  0  0  0  0
 19 17  1  0  0  0  0
 20 18  1  0  0  0  0
 21 20  1  0  0  0  0
 22 26  1  1  0  0  0
 23 28  2  0  0  0  0
 24 22  1  0  0  0  0
 24 26  1  1  0  0  0
 25 27  1  0  0  0  0
 25 21  1  0  0  0  0
 27 22  1  0  0  0  0
 28 29  1  0  0  0  0
 28 25  1  0  0  0  0
 29 24  1  0  0  0  0
 31 34  1  6  0  0  0
 31 32  1  0  0  0  0
 32  1  1  0  0  0  0
 32 30  1  1  0  0  0
 33 31  1  0  0  0  0
 33 32  1  0  0  0  0
 35 53  1  1  0  0  0
 37 38  1  0  0  0  0
 38 36  2  0  0  0  0
 38 35  1  0  0  0  0
 39 37  1  0  0  0  0
 39 41  1  0  0  0  0
 40 35  1  0  0  0  0
 40 34  1  1  0  0  0
 41 45  1  6  0  0  0
 41 40  1  0  0  0  0
 42 39  2  0  0  0  0
 43 45  1  0  0  0  0
 44 45  2  0  0  0  0
 46 47  1  6  0  0  0
 46 48  1  0  0  0  0
 46 43  1  0  0  0  0
 48 49  2  0  0  0  0
 48 50  1  0  0  0  0
 50 52  1  1  0  0  0
 50 51  1  0  0  0  0
 53 54  1  0  0  0  0
 56 55  2  0  0  0  0
M  END
>  <MODEL>
4

>  <REMARK>
 VINA RESULT:      -6.4      2.636      7.238
  Name = 
  22 active torsions:
  status: ('A' for Active; 'I' for Inactive)
    1  A    between atoms: C_3  and  C_9
    2  A    between atoms: C_4  and  C_7
    3  A    between atoms: C_4  and  C_38
    4  A    between atoms: N_5  and  C_10
    5  A    between atoms: C_7  and  O_13
    6  A    between atoms: C_7  and  C_35
    7  A    between atoms: C_8  and  C_17
    8  A    between atoms: C_9  and  C_41
    9  A    between atoms: C_10  and  C_18
   10  A    between atoms: C_11  and  N_34
   11  A    between atoms: C_11  and  N_45
   12  A    between atoms: C_12  and  C_35
   13  A    between atoms: C_12  and  C_39
   14  A    between atoms: C_18  and  C_24
   15  A    between atoms: C_19  and  C_46
   16  A    between atoms: N_21  and  N_45
   17  A    between atoms: C_25  and  C_31
   18  A    between atoms: C_25  and  C_40
   19  A    between atoms: C_25  and  C_49
   20  A    between atoms: C_28  and  C_44
   21  A    between atoms: C_33  and  C_38
   22  A    between atoms: C_39  and  C_44
                            x       y       z     vdW  Elec       q    Type
                         _______ _______ _______ _____ _____    ______ ____

>  <TORSDO>
F 22

$$$$
=
 OpenBabel11072408313D

 56 60  0  0  1  0  0  0  0  0999 V2000
  190.4780  173.2460  139.4190 C   0  0  1  0  0  3  0  0  0  0  0  0
  189.0450  172.2780  141.2660 C   0  0  0  0  0  2  0  0  0  0  0  0
  187.8880  173.0440  141.8820 C   0  0  0  0  0  2  0  0  0  0  0  0
  188.1080  174.4860  141.4810 C   0  0  2  0  0  3  0  0  0  0  0  0
  189.6210  174.6680  141.3900 C   0  0  2  0  0  3  0  0  0  0  0  0
  190.1170  173.3040  140.9130 C   0  0  2  0  0  3  0  0  0  0  0  0
  187.4860  175.3960  142.4340 N   0  0  0  0  0  1  0  0  0  0  0  0
  190.2410  174.9600  142.7630 C   0  0  0  0  0  2  0  0  0  0  0  0
  190.9770  176.2940  142.7930 C   0  0  0  0  0  2  0  0  0  0  0  0
  192.4270  176.1550  143.2470 C   0  0  2  0  0  3  0  0  0  0  0  0
  193.3770  175.8890  142.0890 C   0  0  0  0  0  1  0  0  0  0  0  0
  192.5640  175.1400  144.3930 C   0  0  0  0  0  2  0  0  0  0  0  0
  192.9720  175.6980  145.7690 C   0  0  2  0  0  3  0  0  0  0  0  0
  194.0440  174.9740  146.2970 O   0  0  0  0  0  0  0  0  0  0  0  0
  195.1280  175.8500  146.2390 C   0  0  0  0  0  1  0  0  0  0  0  0
  191.8220  175.7350  146.7690 C   0  0  0  0  0  2  0  0  0  0  0  0
  190.5750  175.0850  146.1960 C   0  0  0  0  0  2  0  0  0  0  0  0
  188.3720  175.3780  147.2760 N   0  0  0  0  0  0  0  0  0  0  0  0
  189.5690  174.8710  147.2790 C   0  0  0  0  0  3  0  0  0  0  0  0
  187.8010  176.1450  146.2400 N   0  0  0  0  0  2  0  0  0  0  0  0
  187.3670  177.5300  146.3720 C   0  0  0  0  0  2  0  0  0  0  0  0
  185.0800  177.9420  143.8120 C   0  0  1  0  0  3  0  0  0  0  0  0
  185.1170  178.6770  147.8540 O   0  0  0  0  0  0  0  0  0  0  0  0
  184.0990  179.0070  144.3630 C   0  0  2  0  0  3  0  0  0  0  0  0
  185.9870  177.6680  145.9200 N   0  0  0  0  0  0  0  0  0  0  0  0
  185.5090  179.4050  143.9240 C   0  0  0  0  0  2  0  0  0  0  0  0
  185.5600  177.0210  144.8000 O   0  0  0  0  0  0  0  0  0  0  0  0
  185.0340  178.4590  146.6150 C   0  0  0  0  0  0  0  0  0  0  0  0
  184.0080  179.0490  145.8300 N   0  0  0  0  0  2  0  0  0  0  0  0
  190.7010  171.0210  137.9850 C   0  0  0  0  0  1  0  0  0  0  0  0
  192.8100  172.1750  138.8440 C   0  0  2  0  0  3  0  0  0  0  0  0
  191.2960  172.0160  138.9680 C   0  0  1  0  0  0  0  0  0  0  0  0
  192.2080  171.3870  139.9980 C   0  0  0  0  0  2  0  0  0  0  0  0
  193.3270  173.5150  139.3740 C   0  0  0  0  0  2  0  0  0  0  0  0
  195.0530  174.9030  138.1280 C   0  0  2  0  0  3  0  0  0  0  0  0
  196.9330  175.8530  136.9710 O   0  0  0  0  0  0  0  0  0  0  0  0
  197.4390  174.8480  138.9610 O   0  0  0  0  0  0  0  0  0  0  0  0
  196.5210  175.2080  137.9730 C   0  0  0  0  0  0  0  0  0  0  0  0
  197.0610  174.2080  140.1420 C   0  0  0  0  0  0  0  0  0  0  0  0
  194.8230  173.7270  139.0950 C   0  0  1  0  0  3  0  0  0  0  0  0
  195.6210  173.8560  140.4050 C   0  0  1  0  0  3  0  0  0  0  0  0
  197.9360  173.9950  141.0240 O   0  0  0  0  0  0  0  0  0  0  0  0
  195.0810  172.6850  142.5800 N   0  0  0  0  0  2  0  0  0  0  0  0
  195.8640  171.4890  140.7300 O   0  0  0  0  0  0  0  0  0  0  0  0
  195.5200  172.5990  141.2220 C   0  0  0  0  0  0  0  0  0  0  0  0
  194.9810  171.5090  143.4370 C   0  0  2  0  0  3  0  0  0  0  0  0
  193.5450  170.9960  143.4530 C   0  0  0  0  0  1  0  0  0  0  0  0
  195.5010  171.8370  144.8090 C   0  0  0  0  0  0  0  0  0  0  0  0
  194.6960  172.0940  145.6930 O   0  0  0  0  0  0  0  0  0  0  0  0
  196.9710  171.8360  145.1200 C   0  0  2  0  0  3  0  0  0  0  0  0
  197.5850  173.0680  144.6530 N   0  0  0  0  0  1  0  0  0  0  0  0
  197.6480  170.6450  144.4710 C   0  0  0  0  0  1  0  0  0  0  0  0
  194.4210  174.5830  136.7750 C   0  0  0  0  0  2  0  0  0  0  0  0
  193.4110  175.6550  136.4020 C   0  0  0  0  0  1  0  0  0  0  0  0
  189.2640  173.4450  138.5670 C   0  0  0  0  0  3  0  0  0  0  0  0
  189.3590  173.9850  137.4760 O   0  0  0  0  0  0  0  0  0  0  0  0
  1 55  1  6  0  0  0
  2  3  1  0  0  0  0
  4  3  1  0  0  0  0
  4  7  1  1  0  0  0
  5  4  1  0  0  0  0
  5  8  1  1  0  0  0
  6  1  1  6  0  0  0
  6  2  1  0  0  0  0
  6  5  1  0  0  0  0
  8  9  1  0  0  0  0
  9 10  1  0  0  0  0
 10 11  1  6  0  0  0
 10 12  1  0  0  0  0
 13 12  1  6  0  0  0
 13 14  1  0  0  0  0
 13 16  1  0  0  0  0
 15 14  1  0  0  0  0
 17 16  1  0  0  0  0
 17 19  1  0  0  0  0
 18 19  2  0  0  0  0
 20 21  1  0  0  0  0
 20 18  1  0  0  0  0
 22 26  1  1  0  0  0
 22 24  1  0  0  0  0
 22 27  1  0  0  0  0
 24 26  1  1  0  0  0
 24 29  1  0  0  0  0
 25 21  1  0  0  0  0
 25 28  1  0  0  0  0
 27 25  1  0  0  0  0
 28 23  2  0  0  0  0
 29 28  1  0  0  0  0
 31 32  1  0  0  0  0
 31 34  1  1  0  0  0
 31 33  1  0  0  0  0
 32 30  1  6  0  0  0
 32  1  1  0  0  0  0
 32 33  1  0  0  0  0
 35 53  1  6  0  0  0
 35 40  1  0  0  0  0
 36 38  2  0  0  0  0
 37 39  1  0  0  0  0
 38 35  1  0  0  0  0
 38 37  1  0  0  0  0
 39 41  1  0  0  0  0
 39 42  2  0  0  0  0
 40 34  1  1  0  0  0
 40 41  1  0  0  0  0
 41 45  1  6  0  0  0
 43 46  1  0  0  0  0
 44 45  2  0  0  0  0
 45 43  1  0  0  0  0
 46 47  1  1  0  0  0
 46 48  1  0  0  0  0
 48 50  1  0  0  0  0
 48 49  2  0  0  0  0
 50 52  1  6  0  0  0
 51 50  1  0  0  0  0
 54 53  1  0  0  0  0
 56 55  2  0  0  0  0
M  END
>  <MODEL>
5

>  <REMARK>
 VINA RESULT:      -6.0      2.925      8.228
  Name = 
  22 active torsions:
  status: ('A' for Active; 'I' for Inactive)
    1  A    between atoms: C_3  and  C_9
    2  A    between atoms: C_4  and  C_7
    3  A    between atoms: C_4  and  C_38
    4  A    between atoms: N_5  and  C_10
    5  A    between atoms: C_7  and  O_13
    6  A    between atoms: C_7  and  C_35
    7  A    between atoms: C_8  and  C_17
    8  A    between atoms: C_9  and  C_41
    9  A    between atoms: C_10  and  C_18
   10  A    between atoms: C_11  and  N_34
   11  A    between atoms: C_11  and  N_45
   12  A    between atoms: C_12  and  C_35
   13  A    between atoms: C_12  and  C_39
   14  A    between atoms: C_18  and  C_24
   15  A    between atoms: C_19  and  C_46
   16  A    between atoms: N_21  and  N_45
   17  A    between atoms: C_25  and  C_31
   18  A    between atoms: C_25  and  C_40
   19  A    between atoms: C_25  and  C_49
   20  A    between atoms: C_28  and  C_44
   21  A    between atoms: C_33  and  C_38
   22  A    between atoms: C_39  and  C_44
                            x       y       z     vdW  Elec       q    Type
                         _______ _______ _______ _____ _____    ______ ____

>  <TORSDO>
F 22

$$$$
=
 OpenBabel11072408313D

 56 60  0  0  1  0  0  0  0  0999 V2000
  193.4930  174.0260  143.5390 C   0  0  1  0  0  3  0  0  0  0  0  0
  195.8950  173.6080  142.8560 C   0  0  0  0  0  2  0  0  0  0  0  0
  197.0020  174.6080  143.1340 C   0  0  0  0  0  2  0  0  0  0  0  0
  196.2960  175.9090  143.4430 C   0  0  2  0  0  3  0  0  0  0  0  0
  195.0110  175.8940  142.6180 C   0  0  2  0  0  3  0  0  0  0  0  0
  194.6300  174.4150  142.5780 C   0  0  2  0  0  3  0  0  0  0  0  0
  197.1470  177.0520  143.1440 N   0  0  0  0  0  1  0  0  0  0  0  0
  195.2560  176.3740  141.1820 C   0  0  0  0  0  2  0  0  0  0  0  0
  194.8150  175.3470  140.1460 C   0  0  0  0  0  2  0  0  0  0  0  0
  195.9440  174.9420  139.2030 C   0  0  2  0  0  3  0  0  0  0  0  0
  197.2980  175.4660  139.6570 C   0  0  0  0  0  1  0  0  0  0  0  0
  195.6130  175.2920  137.7440 C   0  0  0  0  0  2  0  0  0  0  0  0
  195.3010  174.1160  136.8010 C   0  0  2  0  0  3  0  0  0  0  0  0
  196.2970  173.9820  135.8320 O   0  0  0  0  0  0  0  0  0  0  0  0
  195.7170  173.2020  134.8310 C   0  0  0  0  0  1  0  0  0  0  0  0
  193.9340  174.2250  136.1350 C   0  0  0  0  0  2  0  0  0  0  0  0
  193.1140  175.3480  136.7440 C   0  0  0  0  0  2  0  0  0  0  0  0
  190.9800  175.2690  135.5000 N   0  0  0  0  0  0  0  0  0  0  0  0
  192.1180  175.8480  135.7500 C   0  0  0  0  0  3  0  0  0  0  0  0
  190.4680  174.1320  136.1570 N   0  0  0  0  0  2  0  0  0  0  0  0
  189.5450  174.1680  137.2840 C   0  0  0  0  0  2  0  0  0  0  0  0
  191.9610  172.0510  138.5640 C   0  0  1  0  0  3  0  0  0  0  0  0
  187.9790  172.7430  139.3080 O   0  0  0  0  0  0  0  0  0  0  0  0
  191.1400  170.9170  139.2310 C   0  0  2  0  0  3  0  0  0  0  0  0
  190.0500  173.3370  138.3720 N   0  0  0  0  0  0  0  0  0  0  0  0
  191.2330  171.0170  137.7070 C   0  0  0  0  0  2  0  0  0  0  0  0
  191.3740  173.3530  138.6940 O   0  0  0  0  0  0  0  0  0  0  0  0
  189.2040  172.4960  139.1420 C   0  0  0  0  0  0  0  0  0  0  0  0
  189.7960  171.3180  139.6710 N   0  0  0  0  0  2  0  0  0  0  0  0
  191.5770  172.4050  142.6680 C   0  0  0  0  0  1  0  0  0  0  0  0
  191.0170  174.8400  143.1940 C   0  0  2  0  0  3  0  0  0  0  0  0
  192.1060  173.8120  142.8950 C   0  0  1  0  0  0  0  0  0  0  0  0
  191.6890  174.8020  141.8290 C   0  0  0  0  0  2  0  0  0  0  0  0
  191.5270  176.0610  143.9650 C   0  0  0  0  0  2  0  0  0  0  0  0
  191.7200  176.8400  146.3750 C   0  0  2  0  0  3  0  0  0  0  0  0
  191.5660  177.3050  148.7280 O   0  0  0  0  0  0  0  0  0  0  0  0
  189.5960  177.4850  147.5830 O   0  0  0  0  0  0  0  0  0  0  0  0
  190.9610  177.1980  147.6280 C   0  0  0  0  0  0  0  0  0  0  0  0
  188.8620  177.4760  146.3960 C   0  0  0  0  0  0  0  0  0  0  0  0
  190.7830  176.2800  145.2900 C   0  0  1  0  0  3  0  0  0  0  0  0
  189.5180  177.1340  145.0850 C   0  0  1  0  0  3  0  0  0  0  0  0
  187.6540  177.8320  146.4250 O   0  0  0  0  0  0  0  0  0  0  0  0
  188.0890  177.1310  142.9990 N   0  0  0  0  0  2  0  0  0  0  0  0
  188.1090  175.2960  144.4490 O   0  0  0  0  0  0  0  0  0  0  0  0
  188.5480  176.4450  144.1660 C   0  0  0  0  0  0  0  0  0  0  0  0
  187.1300  176.5310  142.0770 C   0  0  2  0  0  3  0  0  0  0  0  0
  187.8480  176.0410  140.8240 C   0  0  0  0  0  1  0  0  0  0  0  0
  186.0330  177.5150  141.7770 C   0  0  0  0  0  0  0  0  0  0  0  0
  186.1780  178.2830  140.8360 O   0  0  0  0  0  0  0  0  0  0  0  0
  184.7680  177.5620  142.5850 C   0  0  2  0  0  3  0  0  0  0  0  0
  183.8650  178.5670  142.0490 N   0  0  0  0  0  1  0  0  0  0  0  0
  185.0800  177.8720  144.0370 C   0  0  0  0  0  1  0  0  0  0  0  0
  192.8150  175.8210  146.6800 C   0  0  0  0  0  2  0  0  0  0  0  0
  194.1820  176.4130  146.3780 C   0  0  0  0  0  1  0  0  0  0  0  0
  193.8900  172.8640  144.3940 C   0  0  0  0  0  3  0  0  0  0  0  0
  193.0610  172.2960  145.0860 O   0  0  0  0  0  0  0  0  0  0  0  0
  1 55  1  6  0  0  0
  2  3  1  0  0  0  0
  3  4  1  0  0  0  0
  4  7  1  6  0  0  0
  5  8  1  6  0  0  0
  5  4  1  0  0  0  0
  6  5  1  0  0  0  0
  6  2  1  0  0  0  0
  6  1  1  1  0  0  0
  9  8  1  0  0  0  0
 10 11  1  1  0  0  0
 10  9  1  0  0  0  0
 12 10  1  0  0  0  0
 13 16  1  6  0  0  0
 13 12  1  0  0  0  0
 14 13  1  0  0  0  0
 15 14  1  0  0  0  0
 16 17  1  0  0  0  0
 18 19  2  0  0  0  0
 18 20  1  0  0  0  0
 19 17  1  0  0  0  0
 20 21  1  0  0  0  0
 21 25  1  0  0  0  0
 22 26  1  6  0  0  0
 22 27  1  0  0  0  0
 22 24  1  0  0  0  0
 24 26  1  6  0  0  0
 24 29  1  0  0  0  0
 25 27  1  0  0  0  0
 25 28  1  0  0  0  0
 28 23  2  0  0  0  0
 28 29  1  0  0  0  0
 31 34  1  1  0  0  0
 32 30  1  6  0  0  0
 32 31  1  0  0  0  0
 32  1  1  0  0  0  0
 33 32  1  0  0  0  0
 33 31  1  0  0  0  0
 35 53  1  1  0  0  0
 35 38  1  0  0  0  0
 37 38  1  0  0  0  0
 38 36  2  0  0  0  0
 39 42  2  0  0  0  0
 39 37  1  0  0  0  0
 40 34  1  6  0  0  0
 40 35  1  0  0  0  0
 41 45  1  6  0  0  0
 41 40  1  0  0  0  0
 41 39  1  0  0  0  0
 43 45  1  0  0  0  0
 45 44  2  0  0  0  0
 46 47  1  6  0  0  0
 46 43  1  0  0  0  0
 48 46  1  0  0  0  0
 48 50  1  0  0  0  0
 49 48  2  0  0  0  0
 50 52  1  1  0  0  0
 51 50  1  0  0  0  0
 54 53  1  0  0  0  0
 55 56  2  0  0  0  0
M  END
>  <MODEL>
6

>  <REMARK>
 VINA RESULT:      -6.0      3.007      8.632
  Name = 
  22 active torsions:
  status: ('A' for Active; 'I' for Inactive)
    1  A    between atoms: C_3  and  C_9
    2  A    between atoms: C_4  and  C_7
    3  A    between atoms: C_4  and  C_38
    4  A    between atoms: N_5  and  C_10
    5  A    between atoms: C_7  and  O_13
    6  A    between atoms: C_7  and  C_35
    7  A    between atoms: C_8  and  C_17
    8  A    between atoms: C_9  and  C_41
    9  A    between atoms: C_10  and  C_18
   10  A    between atoms: C_11  and  N_34
   11  A    between atoms: C_11  and  N_45
   12  A    between atoms: C_12  and  C_35
   13  A    between atoms: C_12  and  C_39
   14  A    between atoms: C_18  and  C_24
   15  A    between atoms: C_19  and  C_46
   16  A    between atoms: N_21  and  N_45
   17  A    between atoms: C_25  and  C_31
   18  A    between atoms: C_25  and  C_40
   19  A    between atoms: C_25  and  C_49
   20  A    between atoms: C_28  and  C_44
   21  A    between atoms: C_33  and  C_38
   22  A    between atoms: C_39  and  C_44
                            x       y       z     vdW  Elec       q    Type
                         _______ _______ _______ _____ _____    ______ ____

>  <TORSDO>
F 22

$$$$
=
 OpenBabel11072408313D

 56 60  0  0  1  0  0  0  0  0999 V2000
  190.6440  176.4120  146.2830 C   0  0  1  0  0  3  0  0  0  0  0  0
  192.9470  176.8880  147.2200 C   0  0  0  0  0  2  0  0  0  0  0  0
  194.1880  176.9100  146.3470 C   0  0  0  0  0  2  0  0  0  0  0  0
  193.7890  176.2080  145.0680 C   0  0  2  0  0  3  0  0  0  0  0  0
  192.7480  175.1660  145.4700 C   0  0  2  0  0  3  0  0  0  0  0  0
  192.0190  175.8230  146.6410 C   0  0  2  0  0  3  0  0  0  0  0  0
  194.9470  175.6240  144.4060 N   0  0  0  0  0  1  0  0  0  0  0  0
  193.4060  173.8720  145.9690 C   0  0  0  0  0  2  0  0  0  0  0  0
  193.7620  172.9280  144.8270 C   0  0  0  0  0  2  0  0  0  0  0  0
  194.7110  171.8150  145.2590 C   0  0  2  0  0  3  0  0  0  0  0  0
  196.1450  172.3000  145.4150 C   0  0  0  0  0  1  0  0  0  0  0  0
  194.5810  170.5800  144.3530 C   0  0  0  0  0  2  0  0  0  0  0  0
  193.4930  169.5570  144.7260 C   0  0  2  0  0  3  0  0  0  0  0  0
  194.0330  168.5110  145.4770 O   0  0  0  0  0  0  0  0  0  0  0  0
  195.2090  168.1660  144.8090 C   0  0  0  0  0  1  0  0  0  0  0  0
  192.7480  169.0040  143.5160 C   0  0  0  0  0  2  0  0  0  0  0  0
  192.3940  170.1090  142.5360 C   0  0  0  0  0  2  0  0  0  0  0  0
  191.7000  170.1160  140.1650 N   0  0  0  0  0  0  0  0  0  0  0  0
  191.7500  169.5250  141.3220 C   0  0  0  0  0  3  0  0  0  0  0  0
  192.2930  171.3530  139.8420 N   0  0  0  0  0  2  0  0  0  0  0  0
  193.4450  171.5200  138.9650 C   0  0  0  0  0  2  0  0  0  0  0  0
  194.3840  173.9230  141.2680 C   0  0  1  0  0  3  0  0  0  0  0  0
  196.0860  172.2430  137.9270 O   0  0  0  0  0  0  0  0  0  0  0  0
  195.4810  174.7310  140.5290 C   0  0  2  0  0  3  0  0  0  0  0  0
  194.4880  172.2780  139.6480 N   0  0  0  0  0  0  0  0  0  0  0  0
  194.0100  174.8780  140.1350 C   0  0  0  0  0  2  0  0  0  0  0  0
  194.4030  172.5170  140.9860 O   0  0  0  0  0  0  0  0  0  0  0  0
  195.6290  172.7840  138.9700 C   0  0  0  0  0  0  0  0  0  0  0  0
  196.1970  173.9760  139.4910 N   0  0  0  0  0  2  0  0  0  0  0  0
  189.3190  174.5420  147.6260 C   0  0  0  0  0  1  0  0  0  0  0  0
  188.0990  175.9130  145.8510 C   0  0  2  0  0  3  0  0  0  0  0  0
  189.4410  175.4530  146.4150 C   0  0  1  0  0  0  0  0  0  0  0  0
  188.9110  174.8430  145.1350 C   0  0  0  0  0  2  0  0  0  0  0  0
  188.1870  177.2180  145.0560 C   0  0  0  0  0  2  0  0  0  0  0  0
  185.9220  178.3100  144.6870 C   0  0  2  0  0  3  0  0  0  0  0  0
  183.7070  179.0040  144.0660 O   0  0  0  0  0  0  0  0  0  0  0  0
  185.0950  178.5420  142.3100 O   0  0  0  0  0  0  0  0  0  0  0  0
  184.8420  178.6150  143.6800 C   0  0  0  0  0  0  0  0  0  0  0  0
  186.3460  178.2030  141.7920 C   0  0  0  0  0  0  0  0  0  0  0  0
  187.0110  177.4040  144.0850 C   0  0  1  0  0  3  0  0  0  0  0  0
  187.4990  177.8790  142.7050 C   0  0  1  0  0  3  0  0  0  0  0  0
  186.5190  178.2450  140.5440 O   0  0  0  0  0  0  0  0  0  0  0  0
  187.8510  175.6410  141.5820 N   0  0  0  0  0  2  0  0  0  0  0  0
  189.6540  177.0630  142.0270 O   0  0  0  0  0  0  0  0  0  0  0  0
  188.4080  176.8620  142.0750 C   0  0  0  0  0  0  0  0  0  0  0  0
  188.6790  174.6010  140.9810 C   0  0  2  0  0  3  0  0  0  0  0  0
  188.3330  174.4480  139.5040 C   0  0  0  0  0  1  0  0  0  0  0  0
  188.5230  173.3200  141.7540 C   0  0  0  0  0  0  0  0  0  0  0  0
  187.3950  172.8930  141.9560 O   0  0  0  0  0  0  0  0  0  0  0  0
  189.7090  172.5520  142.2620 C   0  0  2  0  0  3  0  0  0  0  0  0
  189.3740  171.8690  143.5000 N   0  0  0  0  0  1  0  0  0  0  0  0
  190.8840  173.4830  142.4890 C   0  0  0  0  0  1  0  0  0  0  0  0
  185.3320  177.6440  145.9280 C   0  0  0  0  0  2  0  0  0  0  0  0
  185.4180  178.5840  147.1190 C   0  0  0  0  0  1  0  0  0  0  0  0
  190.4070  177.6980  147.0110 C   0  0  0  0  0  3  0  0  0  0  0  0
  189.8570  177.6970  148.1010 O   0  0  0  0  0  0  0  0  0  0  0  0
  1 32  1  0  0  0  0
  1 55  1  1  0  0  0
  3  2  1  0  0  0  0
  4  7  1  1  0  0  0
  4  5  1  0  0  0  0
  4  3  1  0  0  0  0
  5  8  1  1  0  0  0
  5  6  1  0  0  0  0
  6  1  1  6  0  0  0
  6  2  1  0  0  0  0
  9 10  1  0  0  0  0
  9  8  1  0  0  0  0
 10 11  1  6  0  0  0
 12 13  1  0  0  0  0
 12 10  1  0  0  0  0
 13 16  1  6  0  0  0
 13 14  1  0  0  0  0
 15 14  1  0  0  0  0
 17 16  1  0  0  0  0
 18 19  2  0  0  0  0
 19 17  1  0  0  0  0
 20 18  1  0  0  0  0
 21 25  1  0  0  0  0
 21 20  1  0  0  0  0
 22 26  1  6  0  0  0
 23 28  2  0  0  0  0
 24 26  1  6  0  0  0
 24 22  1  0  0  0  0
 25 27  1  0  0  0  0
 27 22  1  0  0  0  0
 28 29  1  0  0  0  0
 28 25  1  0  0  0  0
 29 24  1  0  0  0  0
 31 34  1  6  0  0  0
 31 32  1  0  0  0  0
 32 30  1  1  0  0  0
 33 31  1  0  0  0  0
 33 32  1  0  0  0  0
 35 53  1  1  0  0  0
 37 38  1  0  0  0  0
 38 36  2  0  0  0  0
 38 35  1  0  0  0  0
 39 37  1  0  0  0  0
 39 41  1  0  0  0  0
 40 35  1  0  0  0  0
 40 34  1  1  0  0  0
 41 45  1  6  0  0  0
 41 40  1  0  0  0  0
 42 39  2  0  0  0  0
 43 45  1  0  0  0  0
 44 45  2  0  0  0  0
 46 47  1  6  0  0  0
 46 43  1  0  0  0  0
 46 48  1  0  0  0  0
 48 49  2  0  0  0  0
 48 50  1  0  0  0  0
 50 52  1  1  0  0  0
 50 51  1  0  0  0  0
 53 54  1  0  0  0  0
 55 56  2  0  0  0  0
M  END
>  <MODEL>
7

>  <REMARK>
 VINA RESULT:      -6.0      2.540      6.876
  Name = 
  22 active torsions:
  status: ('A' for Active; 'I' for Inactive)
    1  A    between atoms: C_3  and  C_9
    2  A    between atoms: C_4  and  C_7
    3  A    between atoms: C_4  and  C_38
    4  A    between atoms: N_5  and  C_10
    5  A    between atoms: C_7  and  O_13
    6  A    between atoms: C_7  and  C_35
    7  A    between atoms: C_8  and  C_17
    8  A    between atoms: C_9  and  C_41
    9  A    between atoms: C_10  and  C_18
   10  A    between atoms: C_11  and  N_34
   11  A    between atoms: C_11  and  N_45
   12  A    between atoms: C_12  and  C_35
   13  A    between atoms: C_12  and  C_39
   14  A    between atoms: C_18  and  C_24
   15  A    between atoms: C_19  and  C_46
   16  A    between atoms: N_21  and  N_45
   17  A    between atoms: C_25  and  C_31
   18  A    between atoms: C_25  and  C_40
   19  A    between atoms: C_25  and  C_49
   20  A    between atoms: C_28  and  C_44
   21  A    between atoms: C_33  and  C_38
   22  A    between atoms: C_39  and  C_44
                            x       y       z     vdW  Elec       q    Type
                         _______ _______ _______ _____ _____    ______ ____

>  <TORSDO>
F 22

$$$$
=
 OpenBabel11072408313D

 56 60  0  0  1  0  0  0  0  0999 V2000
  191.0180  176.3300  146.3930 C   0  0  1  0  0  3  0  0  0  0  0  0
  193.4280  176.8140  146.9970 C   0  0  0  0  0  2  0  0  0  0  0  0
  194.5110  176.9750  145.9450 C   0  0  0  0  0  2  0  0  0  0  0  0
  193.9290  176.3830  144.6810 C   0  0  2  0  0  3  0  0  0  0  0  0
  192.9970  175.2620  145.1340 C   0  0  2  0  0  3  0  0  0  0  0  0
  192.4500  175.7700  146.4670 C   0  0  2  0  0  3  0  0  0  0  0  0
  194.9810  175.9160  143.7880 N   0  0  0  0  0  1  0  0  0  0  0  0
  193.7630  173.9560  145.3880 C   0  0  0  0  0  2  0  0  0  0  0  0
  193.3390  172.8440  144.4370 C   0  0  0  0  0  2  0  0  0  0  0  0
  193.9570  171.4960  144.7950 C   0  0  2  0  0  3  0  0  0  0  0  0
  195.1370  171.6320  145.7470 C   0  0  0  0  0  1  0  0  0  0  0  0
  194.2800  170.6710  143.5390 C   0  0  0  0  0  2  0  0  0  0  0  0
  194.0800  171.3680  142.1810 C   0  0  2  0  0  3  0  0  0  0  0  0
  193.4350  170.5180  141.2800 O   0  0  0  0  0  0  0  0  0  0  0  0
  192.6520  169.6830  142.0780 C   0  0  0  0  0  1  0  0  0  0  0  0
  195.3790  171.8860  141.5740 C   0  0  0  0  0  2  0  0  0  0  0  0
  195.1520  173.1810  140.8140 C   0  0  0  0  0  2  0  0  0  0  0  0
  197.1000  174.6170  140.3140 N   0  0  0  0  0  0  0  0  0  0  0  0
  196.2180  174.1670  141.1590 C   0  0  0  0  0  3  0  0  0  0  0  0
  197.1590  174.3120  138.9400 N   0  0  0  0  0  2  0  0  0  0  0  0
  197.2320  175.3000  137.8710 C   0  0  0  0  0  2  0  0  0  0  0  0
  194.1600  174.0440  136.8980 C   0  0  1  0  0  3  0  0  0  0  0  0
  197.8240  174.5380  135.1060 O   0  0  0  0  0  0  0  0  0  0  0  0
  194.4990  173.1450  135.6820 C   0  0  2  0  0  3  0  0  0  0  0  0
  196.2760  174.9700  136.8190 N   0  0  0  0  0  0  0  0  0  0  0  0
  194.8610  172.7020  137.1010 C   0  0  0  0  0  2  0  0  0  0  0  0
  194.9500  175.2380  136.9820 O   0  0  0  0  0  0  0  0  0  0  0  0
  196.6710  174.3770  135.5900 C   0  0  0  0  0  0  0  0  0  0  0  0
  195.7180  173.5340  134.9590 N   0  0  0  0  0  2  0  0  0  0  0  0
  189.5190  174.5870  147.7240 C   0  0  0  0  0  1  0  0  0  0  0  0
  188.6940  175.5000  145.4870 C   0  0  2  0  0  3  0  0  0  0  0  0
  189.8810  175.2860  146.4230 C   0  0  1  0  0  0  0  0  0  0  0  0
  189.7210  174.4150  145.1960 C   0  0  0  0  0  2  0  0  0  0  0  0
  188.8970  176.6530  144.5000 C   0  0  0  0  0  2  0  0  0  0  0  0
  187.0430  178.3400  144.0800 C   0  0  2  0  0  3  0  0  0  0  0  0
  185.0560  179.5850  143.5580 O   0  0  0  0  0  0  0  0  0  0  0  0
  185.7710  178.1810  141.9020 O   0  0  0  0  0  0  0  0  0  0  0  0
  185.8930  178.7210  143.1830 C   0  0  0  0  0  0  0  0  0  0  0  0
  186.6990  177.2830  141.3720 C   0  0  0  0  0  0  0  0  0  0  0  0
  187.6310  176.9720  143.6900 C   0  0  1  0  0  3  0  0  0  0  0  0
  187.8880  176.8330  142.1780 C   0  0  1  0  0  3  0  0  0  0  0  0
  186.5670  176.9090  140.1760 O   0  0  0  0  0  0  0  0  0  0  0  0
  189.5420  175.1780  141.2200 N   0  0  0  0  0  2  0  0  0  0  0  0
  187.4580  174.4760  142.0150 O   0  0  0  0  0  0  0  0  0  0  0  0
  188.2700  175.4240  141.8250 C   0  0  0  0  0  0  0  0  0  0  0  0
  189.9680  173.8390  140.8300 C   0  0  2  0  0  3  0  0  0  0  0  0
  191.3040  173.5050  141.4860 C   0  0  0  0  0  1  0  0  0  0  0  0
  190.0100  173.7370  139.3310 C   0  0  0  0  0  0  0  0  0  0  0  0
  191.0990  173.7440  138.7740 O   0  0  0  0  0  0  0  0  0  0  0  0
  188.7580  173.6080  138.5100 C   0  0  2  0  0  3  0  0  0  0  0  0
  187.8830  172.5990  139.0820 N   0  0  0  0  0  1  0  0  0  0  0  0
  189.1000  173.2420  137.0790 C   0  0  0  0  0  1  0  0  0  0  0  0
  186.6010  178.3080  145.5420 C   0  0  0  0  0  2  0  0  0  0  0  0
  185.5500  177.2300  145.7490 C   0  0  0  0  0  1  0  0  0  0  0  0
  190.8110  177.4030  147.4150 C   0  0  0  0  0  3  0  0  0  0  0  0
  189.7670  178.0360  147.4410 O   0  0  0  0  0  0  0  0  0  0  0  0
  1 32  1  0  0  0  0
  1 55  1  1  0  0  0
  3  2  1  0  0  0  0
  4  7  1  6  0  0  0
  4  5  1  0  0  0  0
  4  3  1  0  0  0  0
  5  8  1  1  0  0  0
  5  6  1  0  0  0  0
  6  1  1  6  0  0  0
  6  2  1  0  0  0  0
  9 10  1  0  0  0  0
  9  8  1  0  0  0  0
 10 11  1  6  0  0  0
 12 10  1  0  0  0  0
 13 16  1  6  0  0  0
 13 12  1  0  0  0  0
 14 15  1  0  0  0  0
 14 13  1  0  0  0  0
 17 19  1  0  0  0  0
 17 16  1  0  0  0  0
 18 19  2  0  0  0  0
 20 18  1  0  0  0  0
 21 20  1  0  0  0  0
 22 27  1  0  0  0  0
 22 26  1  1  0  0  0
 23 28  2  0  0  0  0
 24 22  1  0  0  0  0
 24 26  1  1  0  0  0
 25 27  1  0  0  0  0
 25 21  1  0  0  0  0
 28 25  1  0  0  0  0
 29 28  1  0  0  0  0
 29 24  1  0  0  0  0
 31 34  1  6  0  0  0
 31 32  1  0  0  0  0
 32 30  1  1  0  0  0
 33 31  1  0  0  0  0
 33 32  1  0  0  0  0
 35 53  1  1  0  0  0
 37 38  1  0  0  0  0
 38 36  2  0  0  0  0
 38 35  1  0  0  0  0
 39 37  1  0  0  0  0
 39 41  1  0  0  0  0
 40 35  1  0  0  0  0
 40 34  1  1  0  0  0
 41 45  1  1  0  0  0
 41 40  1  0  0  0  0
 42 39  2  0  0  0  0
 43 45  1  0  0  0  0
 45 44  2  0  0  0  0
 46 43  1  0  0  0  0
 46 47  1  1  0  0  0
 48 46  1  0  0  0  0
 49 48  2  0  0  0  0
 50 52  1  6  0  0  0
 50 51  1  0  0  0  0
 50 48  1  0  0  0  0
 53 54  1  0  0  0  0
 55 56  2  0  0  0  0
M  END
>  <MODEL>
8

>  <REMARK>
 VINA RESULT:      -5.9      3.106      7.048
  Name = 
  22 active torsions:
  status: ('A' for Active; 'I' for Inactive)
    1  A    between atoms: C_3  and  C_9
    2  A    between atoms: C_4  and  C_7
    3  A    between atoms: C_4  and  C_38
    4  A    between atoms: N_5  and  C_10
    5  A    between atoms: C_7  and  O_13
    6  A    between atoms: C_7  and  C_35
    7  A    between atoms: C_8  and  C_17
    8  A    between atoms: C_9  and  C_41
    9  A    between atoms: C_10  and  C_18
   10  A    between atoms: C_11  and  N_34
   11  A    between atoms: C_11  and  N_45
   12  A    between atoms: C_12  and  C_35
   13  A    between atoms: C_12  and  C_39
   14  A    between atoms: C_18  and  C_24
   15  A    between atoms: C_19  and  C_46
   16  A    between atoms: N_21  and  N_45
   17  A    between atoms: C_25  and  C_31
   18  A    between atoms: C_25  and  C_40
   19  A    between atoms: C_25  and  C_49
   20  A    between atoms: C_28  and  C_44
   21  A    between atoms: C_33  and  C_38
   22  A    between atoms: C_39  and  C_44
                            x       y       z     vdW  Elec       q    Type
                         _______ _______ _______ _____ _____    ______ ____

>  <TORSDO>
F 22

$$$$
=
 OpenBabel11072408313D

 56 60  0  0  1  0  0  0  0  0999 V2000
  193.0550  173.6020  143.4430 C   0  0  1  0  0  3  0  0  0  0  0  0
  195.3600  173.2060  142.4750 C   0  0  0  0  0  2  0  0  0  0  0  0
  196.4980  174.1910  142.6630 C   0  0  0  0  0  2  0  0  0  0  0  0
  195.8400  175.4810  143.1010 C   0  0  2  0  0  3  0  0  0  0  0  0
  194.4700  175.5010  142.4280 C   0  0  2  0  0  3  0  0  0  0  0  0
  194.0770  174.0260  142.3740 C   0  0  2  0  0  3  0  0  0  0  0  0
  196.6590  176.6330  142.7500 N   0  0  0  0  0  1  0  0  0  0  0  0
  194.5530  176.0360  140.9920 C   0  0  0  0  0  2  0  0  0  0  0  0
  193.8090  175.1490  140.0010 C   0  0  0  0  0  2  0  0  0  0  0  0
  194.6530  174.7960  138.7800 C   0  0  2  0  0  3  0  0  0  0  0  0
  196.1450  174.7970  139.0830 C   0  0  0  0  0  1  0  0  0  0  0  0
  194.2780  175.6610  137.5660 C   0  0  0  0  0  2  0  0  0  0  0  0
  193.4140  174.9950  136.4790 C   0  0  2  0  0  3  0  0  0  0  0  0
  192.4290  175.8730  136.0240 O   0  0  0  0  0  0  0  0  0  0  0  0
  193.1310  176.9900  135.5690 C   0  0  0  0  0  1  0  0  0  0  0  0
  192.7790  173.6860  136.9340 C   0  0  0  0  0  2  0  0  0  0  0  0
  193.1180  172.5520  135.9820 C   0  0  0  0  0  2  0  0  0  0  0  0
  194.5200  170.7200  136.8700 N   0  0  0  0  0  0  0  0  0  0  0  0
  194.4110  171.9210  136.3810 C   0  0  0  0  0  3  0  0  0  0  0  0
  193.4680  169.7980  137.0400 N   0  0  0  0  0  2  0  0  0  0  0  0
  193.1150  169.1610  138.3030 C   0  0  0  0  0  2  0  0  0  0  0  0
  189.6980  169.6650  138.1460 C   0  0  1  0  0  3  0  0  0  0  0  0
  192.8810  171.6650  139.8040 O   0  0  0  0  0  0  0  0  0  0  0  0
  189.5370  171.1810  138.4220 C   0  0  2  0  0  3  0  0  0  0  0  0
  191.8990  169.7590  138.8430 N   0  0  0  0  0  0  0  0  0  0  0  0
  190.0930  170.6890  137.0840 C   0  0  0  0  0  2  0  0  0  0  0  0
  190.7440  169.0400  138.9030 O   0  0  0  0  0  0  0  0  0  0  0  0
  191.8610  171.0910  139.3370 C   0  0  0  0  0  0  0  0  0  0  0  0
  190.6210  171.7730  139.2190 N   0  0  0  0  0  2  0  0  0  0  0  0
  190.9290  172.1380  142.8120 C   0  0  0  0  0  1  0  0  0  0  0  0
  190.6240  174.6040  143.4010 C   0  0  2  0  0  3  0  0  0  0  0  0
  191.5880  173.4990  142.9720 C   0  0  1  0  0  0  0  0  0  0  0  0
  191.1200  174.5270  141.9650 C   0  0  0  0  0  2  0  0  0  0  0  0
  191.3150  175.7760  144.1030 C   0  0  0  0  0  2  0  0  0  0  0  0
  191.8290  176.4080  146.5100 C   0  0  2  0  0  3  0  0  0  0  0  0
  191.9420  176.7950  148.8790 O   0  0  0  0  0  0  0  0  0  0  0  0
  189.9540  177.3670  147.9060 O   0  0  0  0  0  0  0  0  0  0  0  0
  191.2450  176.8420  147.8300 C   0  0  0  0  0  0  0  0  0  0  0  0
  189.1430  177.5370  146.7840 C   0  0  0  0  0  0  0  0  0  0  0  0
  190.7270  176.0680  145.4910 C   0  0  1  0  0  3  0  0  0  0  0  0
  189.6240  177.1390  145.4140 C   0  0  1  0  0  3  0  0  0  0  0  0
  188.0230  178.1000  146.9230 O   0  0  0  0  0  0  0  0  0  0  0  0
  188.2770  177.2700  143.2780 N   0  0  0  0  0  2  0  0  0  0  0  0
  187.6770  175.7970  144.9930 O   0  0  0  0  0  0  0  0  0  0  0  0
  188.4790  176.6720  144.5610 C   0  0  0  0  0  0  0  0  0  0  0  0
  187.1720  176.8800  142.4090 C   0  0  2  0  0  3  0  0  0  0  0  0
  187.6830  176.6490  140.9900 C   0  0  0  0  0  1  0  0  0  0  0  0
  186.0840  177.9160  142.4780 C   0  0  0  0  0  0  0  0  0  0  0  0
  186.2790  179.0050  141.9570 O   0  0  0  0  0  0  0  0  0  0  0  0
  184.7690  177.6390  143.1490 C   0  0  2  0  0  3  0  0  0  0  0  0
  183.6890  178.2870  142.4250 N   0  0  0  0  0  1  0  0  0  0  0  0
  184.7940  178.1300  144.5840 C   0  0  0  0  0  1  0  0  0  0  0  0
  192.7440  175.1990  146.6950 C   0  0  0  0  0  2  0  0  0  0  0  0
  194.1850  175.5810  146.3970 C   0  0  0  0  0  1  0  0  0  0  0  0
  193.4990  172.3560  144.1430 C   0  0  0  0  0  3  0  0  0  0  0  0
  193.3990  172.2630  145.3560 O   0  0  0  0  0  0  0  0  0  0  0  0
  1 55  1  6  0  0  0
  2  3  1  0  0  0  0
  3  4  1  0  0  0  0
  4  7  1  6  0  0  0
  5  8  1  6  0  0  0
  5  4  1  0  0  0  0
  6  5  1  0  0  0  0
  6  2  1  0  0  0  0
  6  1  1  1  0  0  0
  9  8  1  0  0  0  0
 10 11  1  1  0  0  0
 10  9  1  0  0  0  0
 12 10  1  0  0  0  0
 13 16  1  1  0  0  0
 13 12  1  0  0  0  0
 14 13  1  0  0  0  0
 15 14  1  0  0  0  0
 17 19  1  0  0  0  0
 17 16  1  0  0  0  0
 18 20  1  0  0  0  0
 19 18  2  0  0  0  0
 20 21  1  0  0  0  0
 21 25  1  0  0  0  0
 22 26  1  6  0  0  0
 22 24  1  0  0  0  0
 22 27  1  0  0  0  0
 24 26  1  6  0  0  0
 24 29  1  0  0  0  0
 25 27  1  0  0  0  0
 25 28  1  0  0  0  0
 28 23  2  0  0  0  0
 29 28  1  0  0  0  0
 31 34  1  1  0  0  0
 32 30  1  6  0  0  0
 32 31  1  0  0  0  0
 32  1  1  0  0  0  0
 33 32  1  0  0  0  0
 33 31  1  0  0  0  0
 35 53  1  1  0  0  0
 35 38  1  0  0  0  0
 38 37  1  0  0  0  0
 38 36  2  0  0  0  0
 39 42  2  0  0  0  0
 39 37  1  0  0  0  0
 40 34  1  6  0  0  0
 40 35  1  0  0  0  0
 41 45  1  6  0  0  0
 41 40  1  0  0  0  0
 41 39  1  0  0  0  0
 43 45  1  0  0  0  0
 45 44  2  0  0  0  0
 46 47  1  6  0  0  0
 46 48  1  0  0  0  0
 46 43  1  0  0  0  0
 48 50  1  0  0  0  0
 49 48  2  0  0  0  0
 50 52  1  1  0  0  0
 51 50  1  0  0  0  0
 54 53  1  0  0  0  0
 55 56  2  0  0  0  0
M  END
>  <MODEL>
9

>  <REMARK>
 VINA RESULT:      -5.8      3.062      8.450
  Name = 
  22 active torsions:
  status: ('A' for Active; 'I' for Inactive)
    1  A    between atoms: C_3  and  C_9
    2  A    between atoms: C_4  and  C_7
    3  A    between atoms: C_4  and  C_38
    4  A    between atoms: N_5  and  C_10
    5  A    between atoms: C_7  and  O_13
    6  A    between atoms: C_7  and  C_35
    7  A    between atoms: C_8  and  C_17
    8  A    between atoms: C_9  and  C_41
    9  A    between atoms: C_10  and  C_18
   10  A    between atoms: C_11  and  N_34
   11  A    between atoms: C_11  and  N_45
   12  A    between atoms: C_12  and  C_35
   13  A    between atoms: C_12  and  C_39
   14  A    between atoms: C_18  and  C_24
   15  A    between atoms: C_19  and  C_46
   16  A    between atoms: N_21  and  N_45
   17  A    between atoms: C_25  and  C_31
   18  A    between atoms: C_25  and  C_40
   19  A    between atoms: C_25  and  C_49
   20  A    between atoms: C_28  and  C_44
   21  A    between atoms: C_33  and  C_38
   22  A    between atoms: C_39  and  C_44
                            x       y       z     vdW  Elec       q    Type
                         _______ _______ _______ _____ _____    ______ ____

>  <TORSDO>
F 22

$$$$
