=
 OpenBabel11072409243D

 39 43  0  0  1  0  0  0  0  0999 V2000
  192.3950  171.1300  140.5470 O   0  0  0  0  0  0  0  0  0  0  0  0
  191.8740  173.2160  139.5390 C   0  0  2  0  0  3  0  0  0  0  0  0
  189.9350  173.1350  141.1660 C   0  0  1  0  0  3  0  0  0  0  0  0
  194.6410  172.7290  141.7540 C   0  0  0  0  0  2  0  0  0  0  0  0
  190.9740  172.6260  138.4350 C   0  0  1  0  0  3  0  0  0  0  0  0
  192.6200  176.6100  147.3930 O   0  0  0  0  0  0  0  0  0  0  0  0
  194.4320  175.2340  141.9580 C   0  0  0  0  0  1  0  0  0  0  0  0
  188.0970  176.0050  142.8800 N   0  0  2  0  0  0  0  0  0  0  0  0
  193.8730  173.8810  142.3880 C   0  0  2  0  0  3  0  0  0  0  0  0
  194.4500  175.0660  145.8180 C   0  0  0  0  0  3  0  0  0  0  0  0
  189.2180  176.6320  143.5740 C   0  0  0  0  0  2  0  0  0  0  0  0
  189.7930  171.8430  139.0360 C   0  0  0  0  0  2  0  0  0  0  0  0
  192.5560  174.4400  144.4390 C   0  0  0  0  0  2  0  0  0  0  0  0
  194.9880  174.2320  144.6680 C   0  0  0  0  0  3  0  0  0  0  0  0
  192.8080  172.2080  140.1450 C   0  0  0  0  0  0  0  0  0  0  0  0
  188.6340  175.2290  141.7610 C   0  0  0  0  0  2  0  0  0  0  0  0
  190.6620  175.8230  146.2680 C   0  0  2  0  0  3  0  0  0  0  0  0
  188.8380  176.9560  145.0100 C   0  0  0  0  0  2  0  0  0  0  0  0
  189.9750  175.3300  147.5310 C   0  0  0  0  0  1  0  0  0  0  0  0
  193.7710  173.7100  143.9030 C   0  0  2  0  0  3  0  0  0  0  0  0
  189.0090  172.6830  140.0420 C   0  0  0  0  0  2  0  0  0  0  0  0
  193.0210  175.1720  145.5970 N   0  0  0  0  0  0  0  0  0  0  0  0
  194.2570  172.5560  140.2860 C   0  0  0  0  0  2  0  0  0  0  0  0
  192.1440  175.9020  146.4640 C   0  0  0  0  0  0  0  0  0  0  0  0
  191.0840  173.9760  140.6090 C   0  0  0  0  0  2  0  0  0  0  0  0
  189.1720  173.8880  142.2530 C   0  0  0  0  0  2  0  0  0  0  0  0
  190.0930  177.1660  145.8380 C   0  0  0  0  0  2  0  0  0  0  0  0
  184.8440  177.9570  142.4620 C   0  0  0  0  0  2  0  0  0  0  0  0
  183.9690  178.6570  140.3510 O   0  0  0  0  0  0  0  0  0  0  0  0
  185.7600  176.8250  142.9240 C   0  0  0  0  0  2  0  0  0  0  0  0
  187.1950  177.2290  140.8880 C   0  0  0  0  0  3  0  0  0  0  0  0
  186.1530  177.7590  140.2450 C   0  0  0  0  0  3  0  0  0  0  0  0
  187.1810  177.0500  142.3950 C   0  0  2  0  0  3  0  0  0  0  0  0
  184.9320  178.1420  140.9740 C   0  0  0  0  0  0  0  0  0  0  0  0
  191.6550  174.3740  136.7510 C   0  0  0  0  0  2  0  0  0  0  0  0
  190.4940  173.7140  137.4650 C   0  0  0  0  0  3  0  0  0  0  0  0
  189.6450  173.1320  136.3530 C   0  0  0  0  0  2  0  0  0  0  0  0
  191.1100  174.8380  135.4160 C   0  0  0  0  0  2  0  0  0  0  0  0
  189.8310  174.0590  135.1690 C   0  0  0  0  0  2  0  0  0  0  0  0
  2 15  1  0  0  0  0
  2 25  1  1  0  0  0
  3 21  1  6  0  0  0
  3 26  1  0  0  0  0
  4  9  1  0  0  0  0
  5 36  1  1  0  0  0
  5 12  1  0  0  0  0
  5  2  1  0  0  0  0
  8 16  1  6  0  0  0
  8 11  1  0  0  0  0
  9  7  1  1  0  0  0
  9 20  1  0  0  0  0
 11 18  1  0  0  0  0
 12 21  1  0  0  0  0
 13 22  1  0  0  0  0
 14 10  2  0  0  0  0
 15 23  1  0  0  0  0
 15  1  2  0  0  0  0
 16 26  1  0  0  0  0
 17 24  1  0  0  0  0
 17 19  1  1  0  0  0
 18 27  1  0  0  0  0
 20 13  1  1  0  0  0
 20 14  1  0  0  0  0
 22 10  1  0  0  0  0
 22 24  1  0  0  0  0
 23  4  1  0  0  0  0
 24  6  2  0  0  0  0
 25  3  1  0  0  0  0
 27 17  1  0  0  0  0
 28 30  1  0  0  0  0
 29 34  2  0  0  0  0
 32 31  2  0  0  0  0
 32 34  1  0  0  0  0
 33 31  1  6  0  0  0
 33  8  1  0  0  0  0
 33 30  1  0  0  0  0
 34 28  1  0  0  0  0
 35 36  1  0  0  0  0
 37 36  1  0  0  0  0
 38 35  1  0  0  0  0
 39 38  1  0  0  0  0
 39 37  1  0  0  0  0
M  END
>  <MODEL>
1

>  <REMARK>
 VINA RESULT:      -8.6      0.000      0.000
  Name = 
  2 active torsions:
  status: ('A' for Active; 'I' for Inactive)
    1  A    between atoms: C_7  and  C_9
    2  A    between atoms: N_12  and  C_20
                            x       y       z     vdW  Elec       q    Type
                         _______ _______ _______ _____ _____    ______ ____

>  <TORSDO>
F 2

$$$$
=
 OpenBabel11072409243D

 39 43  0  0  1  0  0  0  0  0999 V2000
  194.3840  174.7000  144.8250 O   0  0  0  0  0  0  0  0  0  0  0  0
  192.1670  174.4380  145.6300 C   0  0  2  0  0  3  0  0  0  0  0  0
  191.6280  175.8970  143.6320 C   0  0  1  0  0  3  0  0  0  0  0  0
  194.0240  171.8090  144.0710 C   0  0  0  0  0  2  0  0  0  0  0  0
  192.1900  175.6850  146.5370 C   0  0  1  0  0  3  0  0  0  0  0  0
  190.3650  170.9140  138.0080 O   0  0  0  0  0  0  0  0  0  0  0  0
  191.7050  170.8740  143.7460 C   0  0  0  0  0  1  0  0  0  0  0  0
  188.4830  175.9770  141.4750 N   0  0  2  0  0  0  0  0  0  0  0  0
  192.7430  171.8760  143.2520 C   0  0  2  0  0  3  0  0  0  0  0  0
  192.3280  170.2440  139.9860 C   0  0  0  0  0  3  0  0  0  0  0  0
  188.4690  174.5910  141.0150 C   0  0  0  0  0  2  0  0  0  0  0  0
  192.4770  176.9610  145.7240 C   0  0  0  0  0  2  0  0  0  0  0  0
  191.9380  172.4340  140.9510 C   0  0  0  0  0  2  0  0  0  0  0  0
  193.1650  170.3340  141.2500 C   0  0  0  0  0  3  0  0  0  0  0  0
  193.5370  173.9410  145.2700 C   0  0  0  0  0  0  0  0  0  0  0  0
  189.2710  176.0370  142.7070 C   0  0  0  0  0  2  0  0  0  0  0  0
  190.1230  173.1860  138.7170 C   0  0  2  0  0  3  0  0  0  0  0  0
  188.1910  174.5320  139.5220 C   0  0  0  0  0  2  0  0  0  0  0  0
  190.4330  173.7810  137.3530 C   0  0  0  0  0  1  0  0  0  0  0  0
  193.0370  171.7720  141.7560 C   0  0  2  0  0  3  0  0  0  0  0  0
  191.5140  177.1110  144.5490 C   0  0  0  0  0  2  0  0  0  0  0  0
  191.6110  171.5010  139.8940 N   0  0  0  0  0  0  0  0  0  0  0  0
  193.8430  172.4840  145.4290 C   0  0  0  0  0  2  0  0  0  0  0  0
  190.6930  171.8060  138.8380 C   0  0  0  0  0  0  0  0  0  0  0  0
  191.2820  174.6180  144.3930 C   0  0  0  0  0  2  0  0  0  0  0  0
  190.7630  176.0530  142.3850 C   0  0  0  0  0  2  0  0  0  0  0  0
  188.6240  173.1840  138.9720 C   0  0  0  0  0  2  0  0  0  0  0  0
  185.4470  178.2910  141.4800 C   0  0  0  0  0  2  0  0  0  0  0  0
  184.0550  178.6620  143.3860 O   0  0  0  0  0  0  0  0  0  0  0  0
  186.9040  177.8750  141.2770 C   0  0  0  0  0  2  0  0  0  0  0  0
  186.6290  176.2020  143.1460 C   0  0  0  0  0  3  0  0  0  0  0  0
  185.6370  176.9280  143.6650 C   0  0  0  0  0  3  0  0  0  0  0  0
  187.1010  176.4210  141.7200 C   0  0  2  0  0  3  0  0  0  0  0  0
  185.0010  178.0030  142.8850 C   0  0  0  0  0  0  0  0  0  0  0  0
  190.1560  177.0940  147.0200 C   0  0  0  0  0  2  0  0  0  0  0  0
  190.8930  175.8120  147.3470 C   0  0  0  0  0  3  0  0  0  0  0  0
  189.9120  174.7100  147.0030 C   0  0  0  0  0  2  0  0  0  0  0  0
  188.6890  176.8010  147.2630 C   0  0  0  0  0  2  0  0  0  0  0  0
  188.5370  175.2910  147.2630 C   0  0  0  0  0  2  0  0  0  0  0  0
  1 15  2  0  0  0  0
  2 25  1  6  0  0  0
  2  5  1  0  0  0  0
  3 26  1  6  0  0  0
  3 25  1  0  0  0  0
  3 21  1  0  0  0  0
  4 23  1  0  0  0  0
  5 36  1  6  0  0  0
  6 24  2  0  0  0  0
  8 11  1  1  0  0  0
  8 33  1  0  0  0  0
  8 16  1  0  0  0  0
  9  7  1  1  0  0  0
  9  4  1  0  0  0  0
 10 14  2  0  0  0  0
 12  5  1  0  0  0  0
 14 20  1  0  0  0  0
 15 23  1  0  0  0  0
 15  2  1  0  0  0  0
 17 19  1  6  0  0  0
 17 24  1  0  0  0  0
 17 27  1  0  0  0  0
 18 11  1  0  0  0  0
 20 13  1  6  0  0  0
 20  9  1  0  0  0  0
 21 12  1  0  0  0  0
 22 10  1  0  0  0  0
 22 13  1  0  0  0  0
 24 22  1  0  0  0  0
 26 16  1  0  0  0  0
 27 18  1  0  0  0  0
 28 34  1  0  0  0  0
 30 28  1  0  0  0  0
 31 32  2  0  0  0  0
 33 30  1  1  0  0  0
 33 31  1  0  0  0  0
 34 29  2  0  0  0  0
 34 32  1  0  0  0  0
 35 38  1  0  0  0  0
 35 36  1  0  0  0  0
 37 39  1  0  0  0  0
 37 36  1  0  0  0  0
 38 39  1  0  0  0  0
M  END
>  <MODEL>
2

>  <REMARK>
 VINA RESULT:      -8.3      2.003      6.678
  Name = 
  2 active torsions:
  status: ('A' for Active; 'I' for Inactive)
    1  A    between atoms: C_7  and  C_9
    2  A    between atoms: N_12  and  C_20
                            x       y       z     vdW  Elec       q    Type
                         _______ _______ _______ _____ _____    ______ ____

>  <TORSDO>
F 2

$$$$
=
 OpenBabel11072409243D

 39 43  0  0  1  0  0  0  0  0999 V2000
  193.8160  170.7700  139.9710 O   0  0  0  0  0  0  0  0  0  0  0  0
  192.5960  172.4430  138.8120 C   0  0  2  0  0  3  0  0  0  0  0  0
  191.1390  172.3370  140.8800 C   0  0  1  0  0  3  0  0  0  0  0  0
  195.8120  173.0020  140.2740 C   0  0  0  0  0  2  0  0  0  0  0  0
  191.6480  171.4640  138.0920 C   0  0  1  0  0  3  0  0  0  0  0  0
  194.1870  177.5360  145.5420 O   0  0  0  0  0  0  0  0  0  0  0  0
  195.0490  175.4000  140.1180 C   0  0  0  0  0  1  0  0  0  0  0  0
  189.0760  175.0900  142.5280 N   0  0  2  0  0  0  0  0  0  0  0  0
  194.9440  174.0900  140.8920 C   0  0  2  0  0  3  0  0  0  0  0  0
  195.9490  176.0790  143.8140 C   0  0  0  0  0  3  0  0  0  0  0  0
  190.1340  176.0610  142.7940 C   0  0  0  0  0  2  0  0  0  0  0  0
  190.8540  170.6120  139.0990 C   0  0  0  0  0  2  0  0  0  0  0  0
  194.0110  174.8090  143.0980 C   0  0  0  0  0  2  0  0  0  0  0  0
  196.4100  175.1380  142.7140 C   0  0  0  0  0  3  0  0  0  0  0  0
  193.8560  171.7940  139.3070 C   0  0  0  0  0  0  0  0  0  0  0  0
  189.5280  174.2120  141.4480 C   0  0  0  0  0  2  0  0  0  0  0  0
  192.2830  176.1540  145.1110 C   0  0  2  0  0  3  0  0  0  0  0  0
  190.0090  176.6070  144.2070 C   0  0  0  0  0  2  0  0  0  0  0  0
  192.0300  175.8210  146.5720 C   0  0  0  0  0  1  0  0  0  0  0  0
  195.2200  174.2340  142.3880 C   0  0  2  0  0  3  0  0  0  0  0  0
  190.1280  171.4790  140.1250 C   0  0  0  0  0  2  0  0  0  0  0  0
  194.5250  175.8510  143.9600 N   0  0  0  0  0  0  0  0  0  0  0  0
  195.1710  172.4430  139.0050 C   0  0  0  0  0  2  0  0  0  0  0  0
  193.7070  176.5640  144.8970 C   0  0  0  0  0  0  0  0  0  0  0  0
  191.8970  173.2460  139.9140 C   0  0  0  0  0  2  0  0  0  0  0  0
  190.4710  173.1420  141.9920 C   0  0  0  0  0  2  0  0  0  0  0  0
  191.3250  177.2340  144.6330 C   0  0  0  0  0  2  0  0  0  0  0  0
  186.8930  177.9150  141.1770 C   0  0  0  0  0  2  0  0  0  0  0  0
  184.9330  178.7290  142.2750 O   0  0  0  0  0  0  0  0  0  0  0  0
  188.1720  177.2170  141.6380 C   0  0  0  0  0  2  0  0  0  0  0  0
  186.7800  175.8230  143.2130 C   0  0  0  0  0  3  0  0  0  0  0  0
  185.8390  176.7690  143.2370 C   0  0  0  0  0  3  0  0  0  0  0  0
  187.8500  175.8050  142.1370 C   0  0  2  0  0  3  0  0  0  0  0  0
  185.8400  177.8590  142.2460 C   0  0  0  0  0  0  0  0  0  0  0  0
  191.4900  172.8210  135.9730 C   0  0  0  0  0  2  0  0  0  0  0  0
  190.7170  172.1990  137.1190 C   0  0  0  0  0  3  0  0  0  0  0  0
  189.7470  171.2470  136.4490 C   0  0  0  0  0  2  0  0  0  0  0  0
  190.5310  172.8590  134.8010 C   0  0  0  0  0  2  0  0  0  0  0  0
  189.4220  171.8700  135.1070 C   0  0  0  0  0  2  0  0  0  0  0  0
  2 15  1  0  0  0  0
  2 25  1  1  0  0  0
  3 25  1  6  0  0  0
  3 26  1  0  0  0  0
  4  9  1  0  0  0  0
  5 36  1  1  0  0  0
  5  2  1  0  0  0  0
  5 12  1  0  0  0  0
  8 16  1  6  0  0  0
  8 11  1  0  0  0  0
  9  7  1  6  0  0  0
  9 20  1  0  0  0  0
 10 22  1  0  0  0  0
 11 18  1  0  0  0  0
 12 21  1  0  0  0  0
 13 22  1  0  0  0  0
 14 10  2  0  0  0  0
 15  1  2  0  0  0  0
 16 26  1  0  0  0  0
 17 19  1  1  0  0  0
 18 27  1  0  0  0  0
 20 14  1  6  0  0  0
 20 13  1  0  0  0  0
 21  3  1  0  0  0  0
 22 24  1  0  0  0  0
 23 15  1  0  0  0  0
 23  4  1  0  0  0  0
 24 17  1  0  0  0  0
 24  6  2  0  0  0  0
 27 17  1  0  0  0  0
 28 30  1  0  0  0  0
 28 34  1  0  0  0  0
 31 32  2  0  0  0  0
 33 30  1  1  0  0  0
 33  8  1  0  0  0  0
 33 31  1  0  0  0  0
 34 29  2  0  0  0  0
 34 32  1  0  0  0  0
 35 36  1  0  0  0  0
 37 36  1  0  0  0  0
 38 39  1  0  0  0  0
 38 35  1  0  0  0  0
 39 37  1  0  0  0  0
M  END
>  <MODEL>
3

>  <REMARK>
 VINA RESULT:      -7.7      1.525      1.975
  Name = 
  2 active torsions:
  status: ('A' for Active; 'I' for Inactive)
    1  A    between atoms: C_7  and  C_9
    2  A    between atoms: N_12  and  C_20
                            x       y       z     vdW  Elec       q    Type
                         _______ _______ _______ _____ _____    ______ ____

>  <TORSDO>
F 2

$$$$
=
 OpenBabel11072409243D

 39 43  0  0  1  0  0  0  0  0999 V2000
  186.2460  176.4760  145.3180 O   0  0  0  0  0  0  0  0  0  0  0  0
  188.4850  177.2620  145.3670 C   0  0  2  0  0  3  0  0  0  0  0  0
  188.9990  174.8060  145.0240 C   0  0  1  0  0  3  0  0  0  0  0  0
  186.2370  177.8720  142.6520 C   0  0  0  0  0  2  0  0  0  0  0  0
  188.6700  177.0900  146.8880 C   0  0  1  0  0  3  0  0  0  0  0  0
  189.2480  174.0250  137.4480 O   0  0  0  0  0  0  0  0  0  0  0  0
  188.4100  178.2790  141.4390 C   0  0  0  0  0  1  0  0  0  0  0  0
  191.9370  173.1820  143.2150 N   0  0  2  0  0  0  0  0  0  0  0  0
  187.4430  177.2300  141.9810 C   0  0  2  0  0  3  0  0  0  0  0  0
  187.4030  175.9240  138.5470 C   0  0  0  0  0  3  0  0  0  0  0  0
  191.7680  173.7770  141.8920 C   0  0  0  0  0  2  0  0  0  0  0  0
  188.4480  175.6280  147.3150 C   0  0  0  0  0  2  0  0  0  0  0  0
  188.1000  175.1610  140.7400 C   0  0  0  0  0  2  0  0  0  0  0  0
  186.6910  176.7910  139.5710 C   0  0  0  0  0  3  0  0  0  0  0  0
  187.0450  177.3220  144.9470 C   0  0  0  0  0  0  0  0  0  0  0  0
  191.2690  174.0450  144.1880 C   0  0  0  0  0  2  0  0  0  0  0  0
  189.7840  173.0170  139.5500 C   0  0  2  0  0  3  0  0  0  0  0  0
  191.9080  172.7170  140.8120 C   0  0  0  0  0  2  0  0  0  0  0  0
  189.4220  171.6070  139.1150 C   0  0  0  0  0  1  0  0  0  0  0  0
  187.0120  176.1950  140.9430 C   0  0  2  0  0  3  0  0  0  0  0  0
  189.3160  174.6650  146.5090 C   0  0  0  0  0  2  0  0  0  0  0  0
  188.2360  175.0130  139.3070 N   0  0  0  0  0  0  0  0  0  0  0  0
  186.6030  178.4210  144.0300 C   0  0  0  0  0  2  0  0  0  0  0  0
  189.0870  174.0330  138.7000 C   0  0  0  0  0  0  0  0  0  0  0  0
  189.2740  176.2330  144.5510 C   0  0  0  0  0  2  0  0  0  0  0  0
  189.7650  173.7860  144.1860 C   0  0  0  0  0  2  0  0  0  0  0  0
  191.2910  173.2170  139.5180 C   0  0  0  0  0  2  0  0  0  0  0  0
  195.0940  172.3490  145.1920 C   0  0  0  0  0  2  0  0  0  0  0  0
  196.9290  173.8540  145.4730 O   0  0  0  0  0  0  0  0  0  0  0  0
  193.5980  172.5150  144.9270 C   0  0  0  0  0  2  0  0  0  0  0  0
  194.1480  174.3580  143.2940 C   0  0  0  0  0  3  0  0  0  0  0  0
  195.3000  174.5910  143.9260 C   0  0  0  0  0  3  0  0  0  0  0  0
  193.3740  173.0720  143.5170 C   0  0  2  0  0  3  0  0  0  0  0  0
  195.8320  173.6250  144.9020 C   0  0  0  0  0  0  0  0  0  0  0  0
  189.9200  178.4450  148.6070 C   0  0  0  0  0  2  0  0  0  0  0  0
  190.0370  177.6110  147.3480 C   0  0  0  0  0  3  0  0  0  0  0  0
  190.9670  176.4760  147.7280 C   0  0  0  0  0  2  0  0  0  0  0  0
  191.2430  178.2910  149.3290 C   0  0  0  0  0  2  0  0  0  0  0  0
  191.9100  177.0500  148.7650 C   0  0  0  0  0  2  0  0  0  0  0  0
  2 25  1  6  0  0  0
  2  5  1  0  0  0  0
  3 26  1  6  0  0  0
  3 21  1  0  0  0  0
  4 23  1  0  0  0  0
  5 12  1  0  0  0  0
  5 36  1  6  0  0  0
  6 24  2  0  0  0  0
  8 11  1  6  0  0  0
  8 33  1  0  0  0  0
  8 16  1  0  0  0  0
  9  7  1  6  0  0  0
  9  4  1  0  0  0  0
 10 22  1  0  0  0  0
 10 14  2  0  0  0  0
 13 20  1  0  0  0  0
 15  1  2  0  0  0  0
 15  2  1  0  0  0  0
 17 19  1  6  0  0  0
 18 11  1  0  0  0  0
 20 14  1  6  0  0  0
 20  9  1  0  0  0  0
 21 12  1  0  0  0  0
 22 13  1  0  0  0  0
 23 15  1  0  0  0  0
 24 22  1  0  0  0  0
 24 17  1  0  0  0  0
 25  3  1  0  0  0  0
 26 16  1  0  0  0  0
 27 17  1  0  0  0  0
 27 18  1  0  0  0  0
 30 28  1  0  0  0  0
 31 32  2  0  0  0  0
 32 34  1  0  0  0  0
 33 31  1  1  0  0  0
 33 30  1  0  0  0  0
 34 28  1  0  0  0  0
 34 29  2  0  0  0  0
 35 38  1  0  0  0  0
 36 37  1  0  0  0  0
 36 35  1  0  0  0  0
 37 39  1  0  0  0  0
 39 38  1  0  0  0  0
M  END
>  <MODEL>
4

>  <REMARK>
 VINA RESULT:      -7.4      2.399      9.201
  Name = 
  2 active torsions:
  status: ('A' for Active; 'I' for Inactive)
    1  A    between atoms: C_7  and  C_9
    2  A    between atoms: N_12  and  C_20
                            x       y       z     vdW  Elec       q    Type
                         _______ _______ _______ _____ _____    ______ ____

>  <TORSDO>
F 2

$$$$
=
 OpenBabel11072409243D

 39 43  0  0  1  0  0  0  0  0999 V2000
  196.0530  173.8540  143.2030 O   0  0  0  0  0  0  0  0  0  0  0  0
  194.2540  173.8140  144.7510 C   0  0  2  0  0  3  0  0  0  0  0  0
  193.1700  175.3050  143.0150 C   0  0  1  0  0  3  0  0  0  0  0  0
  195.1950  171.0070  142.7440 C   0  0  0  0  0  2  0  0  0  0  0  0
  194.7080  175.0590  145.5390 C   0  0  1  0  0  3  0  0  0  0  0  0
  189.5540  170.4300  138.4090 O   0  0  0  0  0  0  0  0  0  0  0  0
  192.8390  170.2990  143.2990 C   0  0  0  0  0  1  0  0  0  0  0  0
  189.4830  175.6750  142.1090 N   0  0  2  0  0  0  0  0  0  0  0  0
  193.7170  171.1930  142.4290 C   0  0  2  0  0  3  0  0  0  0  0  0
  192.0250  169.5860  139.5900 C   0  0  0  0  0  3  0  0  0  0  0  0
  189.1840  174.2940  141.7400 C   0  0  0  0  0  2  0  0  0  0  0  0
  194.7980  176.2950  144.6270 C   0  0  0  0  0  2  0  0  0  0  0  0
  192.1980  171.8100  140.5400 C   0  0  0  0  0  2  0  0  0  0  0  0
  193.2620  169.6030  140.4710 C   0  0  0  0  0  3  0  0  0  0  0  0
  195.3560  173.1840  143.9500 C   0  0  0  0  0  0  0  0  0  0  0  0
  190.6600  175.6660  142.9780 C   0  0  0  0  0  2  0  0  0  0  0  0
  189.7810  172.7190  139.0640 C   0  0  2  0  0  3  0  0  0  0  0  0
  188.3890  174.2510  140.4450 C   0  0  0  0  0  2  0  0  0  0  0  0
  189.6370  173.2730  137.6560 C   0  0  0  0  0  1  0  0  0  0  0  0
  193.4490  171.0500  140.9310 C   0  0  2  0  0  3  0  0  0  0  0  0
  193.4970  176.5300  143.8620 C   0  0  0  0  0  2  0  0  0  0  0  0
  191.4360  170.9060  139.7070 N   0  0  0  0  0  0  0  0  0  0  0  0
  195.5700  171.7050  144.0500 C   0  0  0  0  0  2  0  0  0  0  0  0
  190.2320  171.2920  139.0320 C   0  0  0  0  0  0  0  0  0  0  0  0
  193.0060  174.0700  143.9000 C   0  0  0  0  0  2  0  0  0  0  0  0
  191.9350  175.5350  142.1490 C   0  0  0  0  0  2  0  0  0  0  0  0
  188.4780  172.8640  139.8330 C   0  0  0  0  0  2  0  0  0  0  0  0
  186.6700  178.1350  142.8820 C   0  0  0  0  0  2  0  0  0  0  0  0
  186.2090  178.9930  145.0640 O   0  0  0  0  0  0  0  0  0  0  0  0
  187.9140  177.5890  142.1820 C   0  0  0  0  0  2  0  0  0  0  0  0
  188.5090  176.3710  144.3090 C   0  0  0  0  0  3  0  0  0  0  0  0
  187.8110  177.2550  145.0250 C   0  0  0  0  0  3  0  0  0  0  0  0
  188.3240  176.2520  142.8080 C   0  0  2  0  0  3  0  0  0  0  0  0
  186.8720  178.1810  144.3700 C   0  0  0  0  0  0  0  0  0  0  0  0
  193.4400  176.7820  146.8730 C   0  0  0  0  0  2  0  0  0  0  0  0
  193.8010  175.3160  146.7500 C   0  0  0  0  0  3  0  0  0  0  0  0
  192.4690  174.6070  146.6080 C   0  0  0  0  0  2  0  0  0  0  0  0
  192.0880  176.8190  147.5550 C   0  0  0  0  0  2  0  0  0  0  0  0
  191.4780  175.4380  147.3960 C   0  0  0  0  0  2  0  0  0  0  0  0
  1 15  2  0  0  0  0
  2 25  1  6  0  0  0
  2  5  1  0  0  0  0
  3 26  1  1  0  0  0
  3 21  1  0  0  0  0
  3 25  1  0  0  0  0
  4 23  1  0  0  0  0
  5 36  1  1  0  0  0
  6 24  2  0  0  0  0
  8 11  1  1  0  0  0
  8 33  1  0  0  0  0
  8 16  1  0  0  0  0
  9  4  1  0  0  0  0
  9  7  1  1  0  0  0
 10 22  1  0  0  0  0
 10 14  2  0  0  0  0
 12  5  1  0  0  0  0
 13 20  1  0  0  0  0
 15 23  1  0  0  0  0
 15  2  1  0  0  0  0
 17 19  1  6  0  0  0
 17 27  1  0  0  0  0
 18 11  1  0  0  0  0
 20 14  1  1  0  0  0
 20  9  1  0  0  0  0
 21 12  1  0  0  0  0
 22 13  1  0  0  0  0
 24 17  1  0  0  0  0
 24 22  1  0  0  0  0
 26 16  1  0  0  0  0
 27 18  1  0  0  0  0
 28 34  1  0  0  0  0
 30 28  1  0  0  0  0
 31 32  2  0  0  0  0
 33 30  1  6  0  0  0
 33 31  1  0  0  0  0
 34 32  1  0  0  0  0
 34 29  2  0  0  0  0
 35 38  1  0  0  0  0
 36 35  1  0  0  0  0
 37 36  1  0  0  0  0
 37 39  1  0  0  0  0
 39 38  1  0  0  0  0
M  END
>  <MODEL>
5

>  <REMARK>
 VINA RESULT:      -7.4      2.335      6.778
  Name = 
  2 active torsions:
  status: ('A' for Active; 'I' for Inactive)
    1  A    between atoms: C_7  and  C_9
    2  A    between atoms: N_12  and  C_20
                            x       y       z     vdW  Elec       q    Type
                         _______ _______ _______ _____ _____    ______ ____

>  <TORSDO>
F 2

$$$$
=
 OpenBabel11072409243D

 39 43  0  0  1  0  0  0  0  0999 V2000
  186.9130  176.1960  145.7540 O   0  0  0  0  0  0  0  0  0  0  0  0
  189.2060  176.7380  145.4600 C   0  0  2  0  0  3  0  0  0  0  0  0
  189.3160  174.3490  144.6270 C   0  0  1  0  0  3  0  0  0  0  0  0
  186.5880  178.0540  143.4080 C   0  0  0  0  0  2  0  0  0  0  0  0
  189.6490  176.2710  146.8610 C   0  0  1  0  0  3  0  0  0  0  0  0
  188.0280  174.9570  137.1410 O   0  0  0  0  0  0  0  0  0  0  0  0
  188.5280  178.4630  141.8500 C   0  0  0  0  0  1  0  0  0  0  0  0
  191.6200  172.8070  142.0080 N   0  0  2  0  0  0  0  0  0  0  0  0
  187.5500  177.4320  142.4060 C   0  0  2  0  0  3  0  0  0  0  0  0
  186.6910  176.7910  138.8910 C   0  0  0  0  0  3  0  0  0  0  0  0
  191.2850  173.6490  140.8620 C   0  0  0  0  0  2  0  0  0  0  0  0
  189.3200  174.7840  147.0840 C   0  0  0  0  0  2  0  0  0  0  0  0
  187.6820  175.5730  140.7390 C   0  0  0  0  0  2  0  0  0  0  0  0
  186.3070  177.5190  140.1670 C   0  0  0  0  0  3  0  0  0  0  0  0
  187.7330  177.0140  145.3650 C   0  0  0  0  0  0  0  0  0  0  0  0
  191.2670  173.5370  143.2250 C   0  0  0  0  0  2  0  0  0  0  0  0
  188.8130  173.5310  138.8950 C   0  0  2  0  0  3  0  0  0  0  0  0
  191.0770  172.7980  139.6210 C   0  0  0  0  0  2  0  0  0  0  0  0
  188.1910  172.2670  138.3240 C   0  0  0  0  0  1  0  0  0  0  0  0
  186.7980  176.6530  141.3280 C   0  0  2  0  0  3  0  0  0  0  0  0
  189.8860  173.9060  145.9700 C   0  0  0  0  0  2  0  0  0  0  0  0
  187.5250  175.6790  139.3040 N   0  0  0  0  0  0  0  0  0  0  0  0
  187.2760  178.3010  144.7500 C   0  0  0  0  0  2  0  0  0  0  0  0
  188.1090  174.7490  138.3830 C   0  0  0  0  0  0  0  0  0  0  0  0
  189.6840  175.8050  144.3430 C   0  0  0  0  0  2  0  0  0  0  0  0
  189.7680  173.4310  143.4950 C   0  0  0  0  0  2  0  0  0  0  0  0
  190.3000  173.5860  138.5810 C   0  0  0  0  0  2  0  0  0  0  0  0
  194.9540  171.3200  143.1220 C   0  0  0  0  0  2  0  0  0  0  0  0
  196.9920  172.5620  143.2530 O   0  0  0  0  0  0  0  0  0  0  0  0
  193.4700  171.6780  143.2050 C   0  0  0  0  0  2  0  0  0  0  0  0
  193.9420  173.7270  141.8120 C   0  0  0  0  0  3  0  0  0  0  0  0
  195.2130  173.7260  142.2190 C   0  0  0  0  0  3  0  0  0  0  0  0
  193.0600  172.5040  141.9820 C   0  0  2  0  0  3  0  0  0  0  0  0
  195.7860  172.5500  142.8950 C   0  0  0  0  0  0  0  0  0  0  0  0
  191.9160  175.2910  147.3670 C   0  0  0  0  0  2  0  0  0  0  0  0
  191.1350  176.5630  147.1040 C   0  0  0  0  0  3  0  0  0  0  0  0
  191.7920  177.1650  145.8780 C   0  0  0  0  0  2  0  0  0  0  0  0
  193.3270  175.5660  146.8880 C   0  0  0  0  0  2  0  0  0  0  0  0
  193.2490  176.7600  145.9530 C   0  0  0  0  0  2  0  0  0  0  0  0
  2 25  1  6  0  0  0
  2  5  1  0  0  0  0
  3 26  1  6  0  0  0
  3 21  1  0  0  0  0
  4 23  1  0  0  0  0
  5 12  1  0  0  0  0
  5 36  1  6  0  0  0
  6 24  2  0  0  0  0
  8 11  1  6  0  0  0
  8 16  1  0  0  0  0
  9  7  1  6  0  0  0
  9  4  1  0  0  0  0
 10 22  1  0  0  0  0
 10 14  2  0  0  0  0
 13 20  1  0  0  0  0
 15  2  1  0  0  0  0
 15  1  2  0  0  0  0
 16 26  1  0  0  0  0
 17 19  1  6  0  0  0
 18 11  1  0  0  0  0
 20 14  1  6  0  0  0
 20  9  1  0  0  0  0
 21 12  1  0  0  0  0
 22 13  1  0  0  0  0
 23 15  1  0  0  0  0
 24 17  1  0  0  0  0
 24 22  1  0  0  0  0
 25  3  1  0  0  0  0
 27 17  1  0  0  0  0
 27 18  1  0  0  0  0
 28 30  1  0  0  0  0
 31 32  2  0  0  0  0
 32 34  1  0  0  0  0
 33 31  1  1  0  0  0
 33  8  1  0  0  0  0
 33 30  1  0  0  0  0
 34 28  1  0  0  0  0
 34 29  2  0  0  0  0
 36 35  1  0  0  0  0
 37 39  1  0  0  0  0
 37 36  1  0  0  0  0
 38 35  1  0  0  0  0
 39 38  1  0  0  0  0
M  END
>  <MODEL>
6

>  <REMARK>
 VINA RESULT:      -7.2      2.464      8.905
  Name = 
  2 active torsions:
  status: ('A' for Active; 'I' for Inactive)
    1  A    between atoms: C_7  and  C_9
    2  A    between atoms: N_12  and  C_20
                            x       y       z     vdW  Elec       q    Type
                         _______ _______ _______ _____ _____    ______ ____

>  <TORSDO>
F 2

$$$$
=
 OpenBabel11072409243D

 39 43  0  0  1  0  0  0  0  0999 V2000
  190.3000  175.3100  146.5900 O   0  0  0  0  0  0  0  0  0  0  0  0
  192.2140  176.0350  145.3870 C   0  0  2  0  0  3  0  0  0  0  0  0
  191.9570  173.7730  144.2780 C   0  0  1  0  0  3  0  0  0  0  0  0
  188.9440  177.4030  144.9060 C   0  0  0  0  0  2  0  0  0  0  0  0
  193.2410  175.4380  146.3700 C   0  0  1  0  0  3  0  0  0  0  0  0
  187.4480  175.1650  138.2960 O   0  0  0  0  0  0  0  0  0  0  0  0
  189.9770  178.1220  142.7210 C   0  0  0  0  0  1  0  0  0  0  0  0
  192.8550  172.7070  140.7280 N   0  0  2  0  0  0  0  0  0  0  0  0
  189.3600  176.9690  143.5070 C   0  0  2  0  0  3  0  0  0  0  0  0
  187.0220  176.6880  140.6860 C   0  0  0  0  0  3  0  0  0  0  0  0
  192.0360  173.6530  139.9750 C   0  0  0  0  0  2  0  0  0  0  0  0
  193.0590  173.9160  146.5120 C   0  0  0  0  0  2  0  0  0  0  0  0
  188.7450  175.3310  141.7210 C   0  0  0  0  0  2  0  0  0  0  0  0
  187.2450  177.2340  142.0860 C   0  0  0  0  0  3  0  0  0  0  0  0
  190.8520  176.2210  145.9930 C   0  0  0  0  0  0  0  0  0  0  0  0
  193.0800  173.2640  142.0620 C   0  0  0  0  0  2  0  0  0  0  0  0
  188.9450  173.6000  139.3100 C   0  0  2  0  0  3  0  0  0  0  0  0
  191.3010  172.9410  138.8510 C   0  0  0  0  0  2  0  0  0  0  0  0
  188.1440  172.3730  138.9090 C   0  0  0  0  0  1  0  0  0  0  0  0
  188.2100  176.2730  142.7800 C   0  0  2  0  0  3  0  0  0  0  0  0
  193.0720  173.2150  145.1570 C   0  0  0  0  0  2  0  0  0  0  0  0
  187.9610  175.5940  140.5330 N   0  0  0  0  0  0  0  0  0  0  0  0
  190.1580  177.5370  145.8230 C   0  0  0  0  0  2  0  0  0  0  0  0
  188.0780  174.8200  139.3330 C   0  0  0  0  0  0  0  0  0  0  0  0
  192.1480  175.2740  144.0590 C   0  0  0  0  0  2  0  0  0  0  0  0
  191.8620  173.0260  142.9500 C   0  0  0  0  0  2  0  0  0  0  0  0
  190.1340  173.7910  138.3810 C   0  0  0  0  0  2  0  0  0  0  0  0
  195.6180  170.8680  138.8430 C   0  0  0  0  0  2  0  0  0  0  0  0
  197.9400  171.0330  139.3830 O   0  0  0  0  0  0  0  0  0  0  0  0
  194.3170  171.0380  139.6270 C   0  0  0  0  0  2  0  0  0  0  0  0
  195.3380  173.0350  140.7810 C   0  0  0  0  0  3  0  0  0  0  0  0
  196.5630  172.5560  140.5540 C   0  0  0  0  0  3  0  0  0  0  0  0
  194.1330  172.5070  140.0260 C   0  0  2  0  0  3  0  0  0  0  0  0
  196.7760  171.4570  139.5960 C   0  0  0  0  0  0  0  0  0  0  0  0
  195.5190  174.5600  145.7420 C   0  0  0  0  0  2  0  0  0  0  0  0
  194.6760  175.7990  145.9650 C   0  0  0  0  0  3  0  0  0  0  0  0
  194.7140  176.5290  144.6380 C   0  0  0  0  0  2  0  0  0  0  0  0
  196.5700  174.9530  144.7230 C   0  0  0  0  0  2  0  0  0  0  0  0
  196.0640  176.2070  144.0320 C   0  0  0  0  0  2  0  0  0  0  0  0
  2 25  1  6  0  0  0
  2 15  1  0  0  0  0
  2  5  1  0  0  0  0
  3 26  1  6  0  0  0
  3 21  1  0  0  0  0
  4 23  1  0  0  0  0
  5 36  1  6  0  0  0
  5 12  1  0  0  0  0
  6 24  2  0  0  0  0
  8 11  1  6  0  0  0
  8 16  1  0  0  0  0
  9  7  1  6  0  0  0
  9  4  1  0  0  0  0
 10 14  2  0  0  0  0
 14 20  1  0  0  0  0
 15  1  2  0  0  0  0
 16 26  1  0  0  0  0
 17 19  1  6  0  0  0
 17 24  1  0  0  0  0
 18 11  1  0  0  0  0
 20 13  1  6  0  0  0
 20  9  1  0  0  0  0
 21 12  1  0  0  0  0
 22 10  1  0  0  0  0
 22 13  1  0  0  0  0
 23 15  1  0  0  0  0
 24 22  1  0  0  0  0
 25  3  1  0  0  0  0
 27 18  1  0  0  0  0
 27 17  1  0  0  0  0
 28 34  1  0  0  0  0
 28 30  1  0  0  0  0
 29 34  2  0  0  0  0
 32 31  2  0  0  0  0
 33 30  1  1  0  0  0
 33  8  1  0  0  0  0
 33 31  1  0  0  0  0
 34 32  1  0  0  0  0
 35 36  1  0  0  0  0
 37 36  1  0  0  0  0
 38 35  1  0  0  0  0
 39 37  1  0  0  0  0
 39 38  1  0  0  0  0
M  END
>  <MODEL>
7

>  <REMARK>
 VINA RESULT:      -6.8      2.208      8.711
  Name = 
  2 active torsions:
  status: ('A' for Active; 'I' for Inactive)
    1  A    between atoms: C_7  and  C_9
    2  A    between atoms: N_12  and  C_20
                            x       y       z     vdW  Elec       q    Type
                         _______ _______ _______ _____ _____    ______ ____

>  <TORSDO>
F 2

$$$$
=
 OpenBabel11072409243D

 39 43  0  0  1  0  0  0  0  0999 V2000
  188.2160  171.9950  139.2200 O   0  0  0  0  0  0  0  0  0  0  0  0
  188.8840  174.1660  139.9100 C   0  0  2  0  0  3  0  0  0  0  0  0
  190.4120  172.8430  141.4360 C   0  0  1  0  0  3  0  0  0  0  0  0
  189.7200  172.7620  136.7280 C   0  0  0  0  0  2  0  0  0  0  0  0
  187.8500  174.2850  141.0470 C   0  0  1  0  0  3  0  0  0  0  0  0
  196.7880  171.9840  137.3530 O   0  0  0  0  0  0  0  0  0  0  0  0
  191.5040  174.5410  136.8340 C   0  0  0  0  0  1  0  0  0  0  0  0
  193.8610  173.7560  142.7840 N   0  0  2  0  0  0  0  0  0  0  0  0
  191.0700  173.1580  137.3100 C   0  0  2  0  0  3  0  0  0  0  0  0
  194.2860  172.0080  135.9550 C   0  0  0  0  0  3  0  0  0  0  0  0
  194.5720  173.9490  141.5230 C   0  0  0  0  0  2  0  0  0  0  0  0
  188.0210  173.1550  142.0780 C   0  0  0  0  0  2  0  0  0  0  0  0
  193.2070  172.1430  138.1220 C   0  0  0  0  0  2  0  0  0  0  0  0
  192.7940  172.1490  135.7060 C   0  0  0  0  0  3  0  0  0  0  0  0
  188.5240  173.1290  138.8850 C   0  0  0  0  0  0  0  0  0  0  0  0
  192.4310  173.9230  142.5280 C   0  0  0  0  0  2  0  0  0  0  0  0
  195.8080  171.8290  139.5290 C   0  0  2  0  0  3  0  0  0  0  0  0
  195.9240  173.2560  141.5650 C   0  0  0  0  0  2  0  0  0  0  0  0
  196.5690  170.5750  139.9260 C   0  0  0  0  0  1  0  0  0  0  0  0
  192.1150  172.0680  137.0740 C   0  0  2  0  0  3  0  0  0  0  0  0
  189.4540  173.0770  142.5990 C   0  0  0  0  0  2  0  0  0  0  0  0
  194.4540  172.0460  137.3950 N   0  0  0  0  0  0  0  0  0  0  0  0
  188.5810  173.4950  137.4340 C   0  0  0  0  0  2  0  0  0  0  0  0
  195.7300  171.9570  138.0400 C   0  0  0  0  0  0  0  0  0  0  0  0
  190.3160  173.9850  140.4240 C   0  0  0  0  0  2  0  0  0  0  0  0
  191.8460  172.6500  141.9200 C   0  0  0  0  0  2  0  0  0  0  0  0
  196.4460  173.0610  140.1520 C   0  0  0  0  0  2  0  0  0  0  0  0
  195.0310  175.1520  146.1380 C   0  0  0  0  0  2  0  0  0  0  0  0
  194.1910  177.1670  147.1110 O   0  0  0  0  0  0  0  0  0  0  0  0
  194.4780  174.1220  145.1550 C   0  0  0  0  0  2  0  0  0  0  0  0
  193.4990  176.0150  143.8050 C   0  0  0  0  0  3  0  0  0  0  0  0
  193.4720  176.7910  144.8910 C   0  0  0  0  0  3  0  0  0  0  0  0
  194.3330  174.7480  143.7630 C   0  0  2  0  0  3  0  0  0  0  0  0
  194.2140  176.4120  146.1050 C   0  0  0  0  0  0  0  0  0  0  0  0
  187.4410  176.7560  140.7630 C   0  0  0  0  0  2  0  0  0  0  0  0
  187.9030  175.6670  141.7090 C   0  0  0  0  0  3  0  0  0  0  0  0
  186.9520  175.7580  142.8860 C   0  0  0  0  0  2  0  0  0  0  0  0
  186.8650  177.8490  141.6400 C   0  0  0  0  0  2  0  0  0  0  0  0
  186.5650  177.2190  142.9880 C   0  0  0  0  0  2  0  0  0  0  0  0
  2 25  1  1  0  0  0
  2  5  1  0  0  0  0
  3 25  1  6  0  0  0
  3 26  1  0  0  0  0
  3 21  1  0  0  0  0
  4  9  1  0  0  0  0
  4 23  1  0  0  0  0
  5 36  1  1  0  0  0
  5 12  1  0  0  0  0
  6 24  2  0  0  0  0
  8 11  1  6  0  0  0
  8 33  1  0  0  0  0
  9  7  1  6  0  0  0
 10 22  1  0  0  0  0
 11 18  1  0  0  0  0
 12 21  1  0  0  0  0
 14 10  2  0  0  0  0
 15  1  2  0  0  0  0
 15  2  1  0  0  0  0
 16  8  1  0  0  0  0
 17 19  1  6  0  0  0
 17 27  1  0  0  0  0
 20 14  1  6  0  0  0
 20  9  1  0  0  0  0
 20 13  1  0  0  0  0
 22 24  1  0  0  0  0
 22 13  1  0  0  0  0
 23 15  1  0  0  0  0
 24 17  1  0  0  0  0
 26 16  1  0  0  0  0
 27 18  1  0  0  0  0
 30 28  1  0  0  0  0
 31 32  2  0  0  0  0
 32 34  1  0  0  0  0
 33 31  1  1  0  0  0
 33 30  1  0  0  0  0
 34 28  1  0  0  0  0
 34 29  2  0  0  0  0
 35 38  1  0  0  0  0
 35 36  1  0  0  0  0
 36 37  1  0  0  0  0
 37 39  1  0  0  0  0
 38 39  1  0  0  0  0
M  END
>  <MODEL>
8

>  <REMARK>
 VINA RESULT:      -6.8      2.538      7.651
  Name = 
  2 active torsions:
  status: ('A' for Active; 'I' for Inactive)
    1  A    between atoms: C_7  and  C_9
    2  A    between atoms: N_12  and  C_20
                            x       y       z     vdW  Elec       q    Type
                         _______ _______ _______ _____ _____    ______ ____

>  <TORSDO>
F 2

$$$$
=
 OpenBabel11072409243D

 39 43  0  0  1  0  0  0  0  0999 V2000
  196.4920  174.3590  139.6890 O   0  0  0  0  0  0  0  0  0  0  0  0
  196.2080  173.5720  141.9100 C   0  0  2  0  0  3  0  0  0  0  0  0
  194.5440  175.4780  142.0140 C   0  0  1  0  0  3  0  0  0  0  0  0
  195.0410  171.8070  139.0260 C   0  0  0  0  0  2  0  0  0  0  0  0
  197.2890  174.4810  142.5290 C   0  0  1  0  0  3  0  0  0  0  0  0
  187.9680  172.2920  139.8550 O   0  0  0  0  0  0  0  0  0  0  0  0
  193.5720  170.7100  140.7580 C   0  0  0  0  0  1  0  0  0  0  0  0
  191.3390  175.7790  144.0600 N   0  0  2  0  0  0  0  0  0  0  0  0
  193.7950  171.9450  139.8900 C   0  0  2  0  0  3  0  0  0  0  0  0
  190.3880  171.3290  138.6590 C   0  0  0  0  0  3  0  0  0  0  0  0
  190.6230  174.6060  143.5640 C   0  0  0  0  0  2  0  0  0  0  0  0
  196.9760  175.9680  142.2840 C   0  0  0  0  0  2  0  0  0  0  0  0
  191.5540  173.0550  139.9010 C   0  0  0  0  0  2  0  0  0  0  0  0
  191.8730  171.1460  138.3960 C   0  0  0  0  0  3  0  0  0  0  0  0
  196.3590  173.3950  140.4270 C   0  0  0  0  0  0  0  0  0  0  0  0
  192.7670  175.5710  143.8220 C   0  0  0  0  0  2  0  0  0  0  0  0
  188.9890  174.1920  140.8890 C   0  0  2  0  0  3  0  0  0  0  0  0
  189.1790  174.9610  143.2480 C   0  0  0  0  0  2  0  0  0  0  0  0
  188.0510  175.2050  140.2550 C   0  0  0  0  0  1  0  0  0  0  0  0
  192.5800  172.3350  139.0490 C   0  0  2  0  0  3  0  0  0  0  0  0
  195.5690  176.3340  142.7510 C   0  0  0  0  0  2  0  0  0  0  0  0
  190.2810  172.4470  139.5760 N   0  0  0  0  0  0  0  0  0  0  0  0
  196.3080  172.0120  139.8540 C   0  0  0  0  0  2  0  0  0  0  0  0
  189.0320  172.9300  140.0850 C   0  0  0  0  0  0  0  0  0  0  0  0
  194.7860  173.9940  142.2920 C   0  0  0  0  0  2  0  0  0  0  0  0
  193.1160  175.8840  142.3690 C   0  0  0  0  0  2  0  0  0  0  0  0
  188.5820  173.9120  142.3270 C   0  0  0  0  0  2  0  0  0  0  0  0
  189.9840  177.3520  147.2630 C   0  0  0  0  0  2  0  0  0  0  0  0
  191.2780  177.6640  149.2470 O   0  0  0  0  0  0  0  0  0  0  0  0
  190.3100  177.2410  145.7740 C   0  0  0  0  0  2  0  0  0  0  0  0
  192.3040  175.8160  146.3720 C   0  0  0  0  0  3  0  0  0  0  0  0
  192.3510  176.3710  147.5850 C   0  0  0  0  0  3  0  0  0  0  0  0
  191.0690  175.9380  145.4980 C   0  0  2  0  0  3  0  0  0  0  0  0
  191.2210  177.1660  148.0940 C   0  0  0  0  0  0  0  0  0  0  0  0
  196.4410  174.8820  144.8690 C   0  0  0  0  0  2  0  0  0  0  0  0
  197.4840  174.1830  144.0210 C   0  0  0  0  0  3  0  0  0  0  0  0
  197.2940  172.7100  144.3240 C   0  0  0  0  0  2  0  0  0  0  0  0
  196.2620  174.0190  146.1000 C   0  0  0  0  0  2  0  0  0  0  0  0
  196.8130  172.6460  145.7590 C   0  0  0  0  0  2  0  0  0  0  0  0
  1 15  2  0  0  0  0
  2 25  1  6  0  0  0
  2  5  1  0  0  0  0
  3 25  1  1  0  0  0
  3 26  1  0  0  0  0
  3 21  1  0  0  0  0
  4 23  1  0  0  0  0
  4  9  1  0  0  0  0
  5 36  1  1  0  0  0
  6 24  2  0  0  0  0
  8 11  1  1  0  0  0
  8 33  1  0  0  0  0
  9  7  1  6  0  0  0
 10 22  1  0  0  0  0
 12  5  1  0  0  0  0
 12 21  1  0  0  0  0
 14 10  2  0  0  0  0
 15  2  1  0  0  0  0
 16  8  1  0  0  0  0
 17 19  1  6  0  0  0
 17 27  1  0  0  0  0
 18 11  1  0  0  0  0
 20 14  1  1  0  0  0
 20  9  1  0  0  0  0
 20 13  1  0  0  0  0
 22 13  1  0  0  0  0
 22 24  1  0  0  0  0
 23 15  1  0  0  0  0
 24 17  1  0  0  0  0
 26 16  1  0  0  0  0
 27 18  1  0  0  0  0
 28 34  1  0  0  0  0
 30 28  1  0  0  0  0
 31 32  2  0  0  0  0
 32 34  1  0  0  0  0
 33 30  1  6  0  0  0
 33 31  1  0  0  0  0
 34 29  2  0  0  0  0
 35 38  1  0  0  0  0
 36 37  1  0  0  0  0
 36 35  1  0  0  0  0
 37 39  1  0  0  0  0
 39 38  1  0  0  0  0
M  END
>  <MODEL>
9

>  <REMARK>
 VINA RESULT:      -6.6      2.717      7.214
  Name = 
  2 active torsions:
  status: ('A' for Active; 'I' for Inactive)
    1  A    between atoms: C_7  and  C_9
    2  A    between atoms: N_12  and  C_20
                            x       y       z     vdW  Elec       q    Type
                         _______ _______ _______ _____ _____    ______ ____

>  <TORSDO>
F 2

$$$$
