=
 OpenBabel11062420583D

 31 34  0  0  1  0  0  0  0  0999 V2000
  188.7210  175.4340  143.7610 C   0  0  1  0  0  3  0  0  0  0  0  0
  189.6300  177.7000  145.1390 N   0  0  0  0  0  0  0  0  0  0  0  0
  190.1670  175.4800  144.2640 C   0  0  1  0  0  3  0  0  0  0  0  0
  187.9610  175.6690  141.5520 N   0  0  0  0  0  0  0  0  0  0  0  0
  188.2500  176.8100  143.4680 C   0  0  2  0  0  3  0  0  0  0  0  0
  190.3330  176.6050  145.2730 C   0  0  0  0  0  0  0  0  0  0  0  0
  188.5990  174.8010  142.4520 N   0  0  0  0  0  2  0  0  0  0  0  0
  187.7490  176.8110  142.1140 C   0  0  0  0  0  0  0  0  0  0  0  0
  188.6940  177.8540  144.0970 N   0  0  0  0  0  2  0  0  0  0  0  0
  189.7860  173.5600  145.6360 O   0  0  0  0  0  0  0  0  0  0  0  0
  190.5640  174.1470  144.8340 C   0  0  0  0  0  0  0  0  0  0  0  0
  191.9960  172.9320  143.3010 C   0  0  0  0  0  0  0  0  0  0  0  0
  192.1400  172.3840  142.2000 O   0  0  0  0  0  0  0  0  0  0  0  0
  191.8450  173.5120  144.4640 C   0  0  0  0  0  0  0  0  0  0  0  0
  193.0060  173.5600  145.4070 C   0  0  0  0  0  2  0  0  0  0  0  0
  194.3110  173.8960  144.6960 C   0  0  0  0  0  2  0  0  0  0  0  0
  196.2110  175.9870  144.1590 O   0  0  0  0  0  1  0  0  0  0  0  0
  194.6720  175.6760  144.7900 P   0  0  0  0  0  0  0  0  0  0  0  0
  194.6070  176.1850  146.4020 O   0  0  0  0  0  1  0  0  0  0  0  0
  193.6440  176.4340  143.9840 O   0  0  0  0  0  0  0  0  0  0  0  0
  191.2750  176.4870  146.2990 O   0  0  0  0  0  0  0  0  0  0  0  0
  190.9080  176.4950  147.6710 C   0  0  0  0  0  1  0  0  0  0  0  0
  187.1730  177.9060  141.4730 O   0  0  0  0  0  0  0  0  0  0  0  0
  185.7660  178.0450  141.3440 C   0  0  0  0  0  2  0  0  0  0  0  0
  185.1660  178.4290  142.6840 C   0  0  0  0  0  2  0  0  0  0  0  0
  185.8310  179.5430  143.1990 O   0  0  0  0  0  0  0  0  0  0  0  0
  185.5170  179.5490  144.5590 C   0  0  0  0  0  2  0  0  0  0  0  0
  184.1490  178.3440  146.2670 C   0  0  2  0  0  3  0  0  0  0  0  0
  184.8710  178.2280  144.9380 C   0  0  2  0  0  3  0  0  0  0  0  0
  185.1530  178.5460  147.3870 C   0  0  0  0  0  2  0  0  0  0  0  0
  185.5000  177.6680  146.2000 C   0  0  1  0  0  3  0  0  0  0  0  0
  1  7  1  6  0  0  0
  1  3  1  0  0  0  0
  2  6  2  0  0  0  0
  3 11  1  1  0  0  0
  3  6  1  0  0  0  0
  4  8  2  0  0  0  0
  4  7  1  0  0  0  0
  5  8  1  6  0  0  0
  5  1  1  0  0  0  0
  5  9  1  0  0  0  0
  6 21  1  0  0  0  0
  9  2  1  0  0  0  0
 11 10  2  0  0  0  0
 12 14  2  0  0  0  0
 13 12  2  0  0  0  0
 14 11  1  0  0  0  0
 14 15  1  0  0  0  0
 16 18  1  0  0  0  0
 16 15  1  0  0  0  0
 17 18  1  0  0  0  0
 18 19  1  0  0  0  0
 20 18  2  0  0  0  0
 21 22  1  0  0  0  0
 23  8  1  0  0  0  0
 24 23  1  0  0  0  0
 24 25  1  0  0  0  0
 25 26  1  0  0  0  0
 26 27  1  0  0  0  0
 28 30  1  1  0  0  0
 29 27  1  1  0  0  0
 29 31  1  0  0  0  0
 29 28  1  0  0  0  0
 31 28  1  0  0  0  0
 31 30  1  1  0  0  0
M  END
>  <MODEL>
1

>  <REMARK>
 VINA RESULT:      -6.1      0.000      0.000
  Name = 
  12 active torsions:
  status: ('A' for Active; 'I' for Inactive)
    1  A    between atoms: O_1  and  C_5
    2  A    between atoms: O_1  and  C_12
    3  A    between atoms: P_3  and  C_13
    4  A    between atoms: C_5  and  C_18
    5  A    between atoms: C_7  and  C_26
    6  A    between atoms: C_12  and  C_20
    7  A    between atoms: C_13  and  C_16
    8  A    between atoms: O_14  and  C_18
    9  A    between atoms: O_14  and  C_27
   10  A    between atoms: C_16  and  C_30
   11  A    between atoms: O_21  and  C_23
   12  A    between atoms: C_26  and  C_30
                            x       y       z     vdW  Elec       q    Type
                         _______ _______ _______ _____ _____    ______ ____

>  <TORSDO>
F 12

$$$$
=
 OpenBabel11062420583D

 31 34  0  0  1  0  0  0  0  0999 V2000
  189.6650  176.4870  142.2840 C   0  0  1  0  0  3  0  0  0  0  0  0
  188.6480  173.9210  142.7760 N   0  0  0  0  0  0  0  0  0  0  0  0
  189.9780  175.7950  143.6140 C   0  0  1  0  0  3  0  0  0  0  0  0
  188.1690  178.2560  141.9020 N   0  0  0  0  0  0  0  0  0  0  0  0
  188.3530  176.0180  141.7730 C   0  0  2  0  0  3  0  0  0  0  0  0
  189.6480  174.3140  143.5220 C   0  0  0  0  0  0  0  0  0  0  0  0
  189.4230  177.9180  142.4350 N   0  0  0  0  0  2  0  0  0  0  0  0
  187.5520  177.1910  141.5150 C   0  0  0  0  0  0  0  0  0  0  0  0
  187.8830  174.8370  142.0260 N   0  0  0  0  0  2  0  0  0  0  0  0
  192.3100  175.9630  143.1170 O   0  0  0  0  0  0  0  0  0  0  0  0
  191.4110  176.0320  144.0010 C   0  0  0  0  0  0  0  0  0  0  0  0
  190.9020  176.2560  146.3610 C   0  0  0  0  0  0  0  0  0  0  0  0
  190.0730  176.1660  147.2760 O   0  0  0  0  0  0  0  0  0  0  0  0
  191.7810  176.3490  145.3950 C   0  0  0  0  0  0  0  0  0  0  0  0
  193.1850  176.7470  145.7260 C   0  0  0  0  0  2  0  0  0  0  0  0
  193.9570  175.6220  146.4030 C   0  0  0  0  0  2  0  0  0  0  0  0
  196.4370  174.1880  146.1390 O   0  0  0  0  0  1  0  0  0  0  0  0
  195.1610  174.8720  145.2640 P   0  0  0  0  0  0  0  0  0  0  0  0
  195.7630  176.0550  144.2150 O   0  0  0  0  0  0  0  0  0  0  0  0
  194.4760  173.7920  144.4600 O   0  0  0  0  0  1  0  0  0  0  0  0
  190.3750  173.3900  144.2790 O   0  0  0  0  0  0  0  0  0  0  0  0
  191.1260  172.3430  143.6820 C   0  0  0  0  0  1  0  0  0  0  0  0
  186.2650  177.1810  140.9810 O   0  0  0  0  0  0  0  0  0  0  0  0
  185.3130  178.1850  141.2990 C   0  0  0  0  0  2  0  0  0  0  0  0
  184.6720  177.8750  142.6400 C   0  0  0  0  0  2  0  0  0  0  0  0
  184.8980  178.9300  143.5270 O   0  0  0  0  0  0  0  0  0  0  0  0
  184.9000  178.3380  144.7910 C   0  0  0  0  0  2  0  0  0  0  0  0
  186.1590  176.7120  146.2100 C   0  0  2  0  0  3  0  0  0  0  0  0
  185.8360  177.1410  144.7910 C   0  0  2  0  0  3  0  0  0  0  0  0
  186.9960  177.7770  146.8960 C   0  0  0  0  0  2  0  0  0  0  0  0
  187.1700  177.5070  145.4140 C   0  0  1  0  0  3  0  0  0  0  0  0
  1  7  1  1  0  0  0
  1  3  1  0  0  0  0
  2  6  2  0  0  0  0
  3 11  1  6  0  0  0
  4  7  1  0  0  0  0
  5  8  1  1  0  0  0
  5  9  1  0  0  0  0
  5  1  1  0  0  0  0
  6  3  1  0  0  0  0
  6 21  1  0  0  0  0
  8  4  2  0  0  0  0
  9  2  1  0  0  0  0
 10 11  2  0  0  0  0
 11 14  1  0  0  0  0
 12 13  2  0  0  0  0
 14 15  1  0  0  0  0
 14 12  2  0  0  0  0
 15 16  1  0  0  0  0
 18 17  1  0  0  0  0
 18 16  1  0  0  0  0
 19 18  2  0  0  0  0
 20 18  1  0  0  0  0
 22 21  1  0  0  0  0
 23 24  1  0  0  0  0
 23  8  1  0  0  0  0
 24 25  1  0  0  0  0
 25 26  1  0  0  0  0
 26 27  1  0  0  0  0
 28 30  1  1  0  0  0
 29 27  1  1  0  0  0
 29 31  1  0  0  0  0
 29 28  1  0  0  0  0
 31 28  1  0  0  0  0
 31 30  1  1  0  0  0
M  END
>  <MODEL>
2

>  <REMARK>
 VINA RESULT:      -6.0      1.585      2.987
  Name = 
  12 active torsions:
  status: ('A' for Active; 'I' for Inactive)
    1  A    between atoms: O_1  and  C_5
    2  A    between atoms: O_1  and  C_12
    3  A    between atoms: P_3  and  C_13
    4  A    between atoms: C_5  and  C_18
    5  A    between atoms: C_7  and  C_26
    6  A    between atoms: C_12  and  C_20
    7  A    between atoms: C_13  and  C_16
    8  A    between atoms: O_14  and  C_18
    9  A    between atoms: O_14  and  C_27
   10  A    between atoms: C_16  and  C_30
   11  A    between atoms: O_21  and  C_23
   12  A    between atoms: C_26  and  C_30
                            x       y       z     vdW  Elec       q    Type
                         _______ _______ _______ _____ _____    ______ ____

>  <TORSDO>
F 12

$$$$
=
 OpenBabel11062420583D

 31 34  0  0  1  0  0  0  0  0999 V2000
  190.6410  176.2570  142.7610 C   0  0  1  0  0  3  0  0  0  0  0  0
  189.8410  173.7080  143.6100 N   0  0  0  0  0  0  0  0  0  0  0  0
  191.1420  175.7180  144.1040 C   0  0  1  0  0  3  0  0  0  0  0  0
  189.0090  177.9040  142.3920 N   0  0  0  0  0  0  0  0  0  0  0  0
  189.3110  175.6760  142.4540 C   0  0  2  0  0  3  0  0  0  0  0  0
  190.8930  174.2220  144.1920 C   0  0  0  0  0  0  0  0  0  0  0  0
  190.3330  177.6820  142.8030 N   0  0  0  0  0  2  0  0  0  0  0  0
  188.4170  176.7760  142.1830 C   0  0  0  0  0  0  0  0  0  0  0  0
  188.9430  174.5040  142.8720 N   0  0  0  0  0  2  0  0  0  0  0  0
  193.3470  176.1510  143.2870 O   0  0  0  0  0  0  0  0  0  0  0  0
  192.5930  176.0620  144.2960 C   0  0  0  0  0  0  0  0  0  0  0  0
  192.3580  176.4310  146.6810 C   0  0  0  0  0  0  0  0  0  0  0  0
  191.6140  176.5470  147.6630 O   0  0  0  0  0  0  0  0  0  0  0  0
  193.1460  176.3060  145.6430 C   0  0  0  0  0  0  0  0  0  0  0  0
  194.6280  176.3730  145.8440 C   0  0  0  0  0  2  0  0  0  0  0  0
  195.2500  174.9910  145.9960 C   0  0  0  0  0  2  0  0  0  0  0  0
  196.7070  176.0370  143.7470 O   0  0  0  0  0  1  0  0  0  0  0  0
  196.3860  174.6260  144.6220 P   0  0  0  0  0  0  0  0  0  0  0  0
  195.6890  173.4720  143.6010 O   0  0  0  0  0  0  0  0  0  0  0  0
  197.6800  174.0830  145.1810 O   0  0  0  0  0  1  0  0  0  0  0  0
  191.7550  173.4150  144.9420 O   0  0  0  0  0  0  0  0  0  0  0  0
  192.3880  172.2680  144.3960 C   0  0  0  0  0  1  0  0  0  0  0  0
  187.0810  176.6500  141.8080 O   0  0  0  0  0  0  0  0  0  0  0  0
  186.0200  176.8870  142.7200 C   0  0  0  0  0  2  0  0  0  0  0  0
  185.2820  178.1550  142.3290 C   0  0  0  0  0  2  0  0  0  0  0  0
  185.7140  179.2180  143.1230 O   0  0  0  0  0  0  0  0  0  0  0  0
  185.9780  178.6480  144.3690 C   0  0  0  0  0  2  0  0  0  0  0  0
  185.5500  179.0140  146.8040 C   0  0  2  0  0  3  0  0  0  0  0  0
  185.0100  179.2050  145.3990 C   0  0  2  0  0  3  0  0  0  0  0  0
  185.5780  177.5380  147.1530 C   0  0  0  0  0  2  0  0  0  0  0  0
  184.4690  178.0950  146.2800 C   0  0  1  0  0  3  0  0  0  0  0  0
  1  7  1  1  0  0  0
  1  3  1  0  0  0  0
  2  6  2  0  0  0  0
  3  6  1  0  0  0  0
  3 11  1  6  0  0  0
  4  7  1  0  0  0  0
  5  8  1  1  0  0  0
  5  1  1  0  0  0  0
  5  9  1  0  0  0  0
  6 21  1  0  0  0  0
  8  4  2  0  0  0  0
  9  2  1  0  0  0  0
 10 11  2  0  0  0  0
 11 14  1  0  0  0  0
 12 13  2  0  0  0  0
 14 15  1  0  0  0  0
 14 12  2  0  0  0  0
 15 16  1  0  0  0  0
 17 18  1  0  0  0  0
 18 20  1  0  0  0  0
 18 16  1  0  0  0  0
 19 18  2  0  0  0  0
 22 21  1  0  0  0  0
 23  8  1  0  0  0  0
 23 24  1  0  0  0  0
 25 24  1  0  0  0  0
 25 26  1  0  0  0  0
 26 27  1  0  0  0  0
 28 30  1  6  0  0  0
 29 27  1  6  0  0  0
 29 31  1  0  0  0  0
 29 28  1  0  0  0  0
 31 28  1  0  0  0  0
 31 30  1  6  0  0  0
M  END
>  <MODEL>
3

>  <REMARK>
 VINA RESULT:      -5.9      1.641      3.088
  Name = 
  12 active torsions:
  status: ('A' for Active; 'I' for Inactive)
    1  A    between atoms: O_1  and  C_5
    2  A    between atoms: O_1  and  C_12
    3  A    between atoms: P_3  and  C_13
    4  A    between atoms: C_5  and  C_18
    5  A    between atoms: C_7  and  C_26
    6  A    between atoms: C_12  and  C_20
    7  A    between atoms: C_13  and  C_16
    8  A    between atoms: O_14  and  C_18
    9  A    between atoms: O_14  and  C_27
   10  A    between atoms: C_16  and  C_30
   11  A    between atoms: O_21  and  C_23
   12  A    between atoms: C_26  and  C_30
                            x       y       z     vdW  Elec       q    Type
                         _______ _______ _______ _____ _____    ______ ____

>  <TORSDO>
F 12

$$$$
=
 OpenBabel11062420583D

 31 34  0  0  1  0  0  0  0  0999 V2000
  188.9460  175.6010  143.6640 C   0  0  1  0  0  3  0  0  0  0  0  0
  189.5530  177.6030  145.5300 N   0  0  0  0  0  0  0  0  0  0  0  0
  190.3820  175.7430  144.1770 C   0  0  1  0  0  3  0  0  0  0  0  0
  188.1050  176.2170  141.5600 N   0  0  0  0  0  0  0  0  0  0  0  0
  188.2740  176.9240  143.6880 C   0  0  2  0  0  3  0  0  0  0  0  0
  190.4090  176.6210  145.4160 C   0  0  0  0  0  0  0  0  0  0  0  0
  188.8840  175.2700  142.2440 N   0  0  0  0  0  2  0  0  0  0  0  0
  187.7440  177.1580  142.3660 C   0  0  0  0  0  0  0  0  0  0  0  0
  188.5790  177.8500  144.5430 N   0  0  0  0  0  2  0  0  0  0  0  0
  190.2580  173.4700  144.9070 O   0  0  0  0  0  0  0  0  0  0  0  0
  190.9820  174.3880  144.4310 C   0  0  0  0  0  0  0  0  0  0  0  0
  192.9890  173.0360  144.5770 C   0  0  0  0  0  0  0  0  0  0  0  0
  193.5460  172.0160  145.0030 O   0  0  0  0  0  0  0  0  0  0  0  0
  192.4000  174.1130  144.1250 C   0  0  0  0  0  0  0  0  0  0  0  0
  193.1750  175.0530  143.2540 C   0  0  0  0  0  2  0  0  0  0  0  0
  194.0930  175.9600  144.0630 C   0  0  0  0  0  2  0  0  0  0  0  0
  196.7060  176.9900  143.4420 O   0  0  0  0  0  1  0  0  0  0  0  0
  195.8430  175.5690  143.7550 P   0  0  0  0  0  0  0  0  0  0  0  0
  195.9670  174.5270  142.4280 O   0  0  0  0  0  0  0  0  0  0  0  0
  196.4220  174.8950  144.9760 O   0  0  0  0  0  1  0  0  0  0  0  0
  191.3840  176.4130  146.3980 O   0  0  0  0  0  0  0  0  0  0  0  0
  191.0800  176.4210  147.7840 C   0  0  0  0  0  1  0  0  0  0  0  0
  187.0010  178.2730  141.9860 O   0  0  0  0  0  0  0  0  0  0  0  0
  185.6150  178.1850  141.6890 C   0  0  0  0  0  2  0  0  0  0  0  0
  184.8340  177.9250  142.9650 C   0  0  0  0  0  2  0  0  0  0  0  0
  184.5790  179.1310  143.6180 O   0  0  0  0  0  0  0  0  0  0  0  0
  185.2360  179.0190  144.8440 C   0  0  0  0  0  2  0  0  0  0  0  0
  184.9220  178.4150  147.2480 C   0  0  2  0  0  3  0  0  0  0  0  0
  184.3060  178.3810  145.8620 C   0  0  2  0  0  3  0  0  0  0  0  0
  186.1340  177.5030  147.3010 C   0  0  0  0  0  2  0  0  0  0  0  0
  184.9350  177.1310  146.4490 C   0  0  1  0  0  3  0  0  0  0  0  0
  1  7  1  6  0  0  0
  1  5  1  0  0  0  0
  1  3  1  0  0  0  0
  3 11  1  1  0  0  0
  3  6  1  0  0  0  0
  4  7  1  0  0  0  0
  4  8  2  0  0  0  0
  5  8  1  6  0  0  0
  5  9  1  0  0  0  0
  6  2  2  0  0  0  0
  6 21  1  0  0  0  0
  9  2  1  0  0  0  0
 11 10  2  0  0  0  0
 12 13  2  0  0  0  0
 14 11  1  0  0  0  0
 14 12  2  0  0  0  0
 15 16  1  0  0  0  0
 15 14  1  0  0  0  0
 17 18  1  0  0  0  0
 18 16  1  0  0  0  0
 18 20  1  0  0  0  0
 19 18  2  0  0  0  0
 21 22  1  0  0  0  0
 23  8  1  0  0  0  0
 24 23  1  0  0  0  0
 24 25  1  0  0  0  0
 25 26  1  0  0  0  0
 26 27  1  0  0  0  0
 28 30  1  6  0  0  0
 29 27  1  6  0  0  0
 29 31  1  0  0  0  0
 29 28  1  0  0  0  0
 31 28  1  0  0  0  0
 31 30  1  6  0  0  0
M  END
>  <MODEL>
4

>  <REMARK>
 VINA RESULT:      -5.9      1.212      1.527
  Name = 
  12 active torsions:
  status: ('A' for Active; 'I' for Inactive)
    1  A    between atoms: O_1  and  C_5
    2  A    between atoms: O_1  and  C_12
    3  A    between atoms: P_3  and  C_13
    4  A    between atoms: C_5  and  C_18
    5  A    between atoms: C_7  and  C_26
    6  A    between atoms: C_12  and  C_20
    7  A    between atoms: C_13  and  C_16
    8  A    between atoms: O_14  and  C_18
    9  A    between atoms: O_14  and  C_27
   10  A    between atoms: C_16  and  C_30
   11  A    between atoms: O_21  and  C_23
   12  A    between atoms: C_26  and  C_30
                            x       y       z     vdW  Elec       q    Type
                         _______ _______ _______ _____ _____    ______ ____

>  <TORSDO>
F 12

$$$$
=
 OpenBabel11062420583D

 31 34  0  0  1  0  0  0  0  0999 V2000
  189.6230  176.0680  142.2410 C   0  0  1  0  0  3  0  0  0  0  0  0
  188.5680  173.4710  142.2800 N   0  0  0  0  0  0  0  0  0  0  0  0
  190.3150  174.9860  143.0750 C   0  0  1  0  0  3  0  0  0  0  0  0
  188.3030  177.8500  143.0120 N   0  0  0  0  0  0  0  0  0  0  0  0
  188.1710  175.7760  142.1510 C   0  0  2  0  0  3  0  0  0  0  0  0
  189.8080  173.6120  142.6720 C   0  0  0  0  0  0  0  0  0  0  0  0
  189.6170  177.3700  142.8990 N   0  0  0  0  0  2  0  0  0  0  0  0
  187.4700  176.9610  142.5850 C   0  0  0  0  0  0  0  0  0  0  0  0
  187.6930  174.5720  142.1930 N   0  0  0  0  0  2  0  0  0  0  0  0
  192.3220  175.1770  141.7910 O   0  0  0  0  0  0  0  0  0  0  0  0
  191.8090  175.0990  142.9420 C   0  0  0  0  0  0  0  0  0  0  0  0
  193.8090  175.7890  144.1240 C   0  0  0  0  0  0  0  0  0  0  0  0
  194.8770  176.4160  144.1170 O   0  0  0  0  0  0  0  0  0  0  0  0
  192.6800  175.1280  144.1330 C   0  0  0  0  0  0  0  0  0  0  0  0
  192.2580  174.4280  145.3870 C   0  0  0  0  0  2  0  0  0  0  0  0
  192.5430  175.2580  146.6320 C   0  0  0  0  0  2  0  0  0  0  0  0
  191.4040  177.0570  148.5670 O   0  0  0  0  0  1  0  0  0  0  0  0
  191.0400  176.0950  147.2240 P   0  0  0  0  0  0  0  0  0  0  0  0
  189.8790  174.9420  147.6510 O   0  0  0  0  0  1  0  0  0  0  0  0
  190.4940  176.9700  146.1210 O   0  0  0  0  0  0  0  0  0  0  0  0
  190.6490  172.4990  142.7760 O   0  0  0  0  0  0  0  0  0  0  0  0
  190.9470  171.6650  141.6670 C   0  0  0  0  0  1  0  0  0  0  0  0
  186.0850  177.1110  142.6050 O   0  0  0  0  0  0  0  0  0  0  0  0
  185.4690  178.3910  142.6060 C   0  0  0  0  0  2  0  0  0  0  0  0
  183.9950  178.2480  142.9410 C   0  0  0  0  0  2  0  0  0  0  0  0
  183.6430  179.1690  143.9280 O   0  0  0  0  0  0  0  0  0  0  0  0
  184.6930  179.1270  144.8460 C   0  0  0  0  0  2  0  0  0  0  0  0
  185.3650  178.3380  147.1190 C   0  0  2  0  0  3  0  0  0  0  0  0
  184.2280  178.4430  146.1200 C   0  0  2  0  0  3  0  0  0  0  0  0
  186.4220  177.3780  146.6040 C   0  0  0  0  0  2  0  0  0  0  0  0
  184.9540  177.1250  146.3140 C   0  0  1  0  0  3  0  0  0  0  0  0
  1  7  1  1  0  0  0
  1  3  1  0  0  0  0
  2  6  2  0  0  0  0
  3 11  1  6  0  0  0
  5  9  1  1  0  0  0
  5  1  1  0  0  0  0
  5  8  1  0  0  0  0
  6 21  1  0  0  0  0
  6  3  1  0  0  0  0
  7  4  1  0  0  0  0
  8 23  1  0  0  0  0
  8  4  2  0  0  0  0
  9  2  1  0  0  0  0
 10 11  2  0  0  0  0
 11 14  1  0  0  0  0
 12 14  2  0  0  0  0
 13 12  2  0  0  0  0
 14 15  1  0  0  0  0
 15 16  1  0  0  0  0
 16 18  1  0  0  0  0
 18 19  1  0  0  0  0
 18 17  1  0  0  0  0
 20 18  2  0  0  0  0
 22 21  1  0  0  0  0
 23 24  1  0  0  0  0
 24 25  1  0  0  0  0
 25 26  1  0  0  0  0
 26 27  1  0  0  0  0
 28 30  1  6  0  0  0
 29 27  1  6  0  0  0
 29 31  1  0  0  0  0
 29 28  1  0  0  0  0
 31 30  1  6  0  0  0
 31 28  1  0  0  0  0
M  END
>  <MODEL>
5

>  <REMARK>
 VINA RESULT:      -5.9      1.787      3.487
  Name = 
  12 active torsions:
  status: ('A' for Active; 'I' for Inactive)
    1  A    between atoms: O_1  and  C_5
    2  A    between atoms: O_1  and  C_12
    3  A    between atoms: P_3  and  C_13
    4  A    between atoms: C_5  and  C_18
    5  A    between atoms: C_7  and  C_26
    6  A    between atoms: C_12  and  C_20
    7  A    between atoms: C_13  and  C_16
    8  A    between atoms: O_14  and  C_18
    9  A    between atoms: O_14  and  C_27
   10  A    between atoms: C_16  and  C_30
   11  A    between atoms: O_21  and  C_23
   12  A    between atoms: C_26  and  C_30
                            x       y       z     vdW  Elec       q    Type
                         _______ _______ _______ _____ _____    ______ ____

>  <TORSDO>
F 12

$$$$
=
 OpenBabel11062420583D

 31 34  0  0  1  0  0  0  0  0999 V2000
  189.2480  176.7730  142.4510 C   0  0  1  0  0  3  0  0  0  0  0  0
  188.1880  175.0450  140.5150 N   0  0  0  0  0  0  0  0  0  0  0  0
  189.3830  175.2590  142.6380 C   0  0  1  0  0  3  0  0  0  0  0  0
  187.8080  178.2380  143.5880 N   0  0  0  0  0  0  0  0  0  0  0  0
  188.0200  177.0730  141.6750 C   0  0  2  0  0  3  0  0  0  0  0  0
  189.0760  174.5430  141.3330 C   0  0  0  0  0  0  0  0  0  0  0  0
  188.9800  177.4750  143.7020 N   0  0  0  0  0  2  0  0  0  0  0  0
  187.2540  178.0280  142.4410 C   0  0  0  0  0  0  0  0  0  0  0  0
  187.5260  176.2560  140.7980 N   0  0  0  0  0  2  0  0  0  0  0  0
  191.7700  175.2730  142.5100 O   0  0  0  0  0  0  0  0  0  0  0  0
  190.7500  174.9170  143.1630 C   0  0  0  0  0  0  0  0  0  0  0  0
  190.2500  173.0770  144.6600 C   0  0  0  0  0  0  0  0  0  0  0  0
  189.6230  172.0310  144.8760 O   0  0  0  0  0  0  0  0  0  0  0  0
  190.9160  174.1800  144.4320 C   0  0  0  0  0  0  0  0  0  0  0  0
  191.8840  174.6710  145.4620 C   0  0  0  0  0  2  0  0  0  0  0  0
  191.6890  176.1490  145.7760 C   0  0  0  0  0  2  0  0  0  0  0  0
  191.5700  176.9000  148.5500 O   0  0  0  0  0  1  0  0  0  0  0  0
  190.6350  176.3780  147.2410 P   0  0  0  0  0  0  0  0  0  0  0  0
  189.8800  174.9160  147.6310 O   0  0  0  0  0  1  0  0  0  0  0  0
  189.5830  177.4180  146.9360 O   0  0  0  0  0  0  0  0  0  0  0  0
  189.7000  173.3250  141.0430 O   0  0  0  0  0  0  0  0  0  0  0  0
  190.2720  173.0490  139.7730 C   0  0  0  0  0  1  0  0  0  0  0  0
  186.0500  178.6010  142.0350 O   0  0  0  0  0  0  0  0  0  0  0  0
  184.8190  177.9010  142.1240 C   0  0  0  0  0  2  0  0  0  0  0  0
  183.8600  178.6660  143.0190 C   0  0  0  0  0  2  0  0  0  0  0  0
  184.5750  179.3450  144.0070 O   0  0  0  0  0  0  0  0  0  0  0  0
  184.3770  178.5960  145.1680 C   0  0  0  0  0  2  0  0  0  0  0  0
  186.3720  178.3030  146.6430 C   0  0  2  0  0  3  0  0  0  0  0  0
  185.1920  179.1930  146.3030 C   0  0  2  0  0  3  0  0  0  0  0  0
  185.8830  177.0000  147.2480 C   0  0  0  0  0  2  0  0  0  0  0  0
  185.1440  178.2950  147.5250 C   0  0  1  0  0  3  0  0  0  0  0  0
  1  3  1  0  0  0  0
  1  7  1  1  0  0  0
  2  9  1  0  0  0  0
  2  6  2  0  0  0  0
  3 11  1  6  0  0  0
  4  7  1  0  0  0  0
  5  9  1  1  0  0  0
  5  8  1  0  0  0  0
  5  1  1  0  0  0  0
  6  3  1  0  0  0  0
  8  4  2  0  0  0  0
 10 11  2  0  0  0  0
 11 14  1  0  0  0  0
 12 13  2  0  0  0  0
 14 12  2  0  0  0  0
 14 15  1  0  0  0  0
 15 16  1  0  0  0  0
 16 18  1  0  0  0  0
 18 19  1  0  0  0  0
 18 17  1  0  0  0  0
 20 18  2  0  0  0  0
 21  6  1  0  0  0  0
 22 21  1  0  0  0  0
 23 24  1  0  0  0  0
 23  8  1  0  0  0  0
 24 25  1  0  0  0  0
 25 26  1  0  0  0  0
 26 27  1  0  0  0  0
 28 30  1  6  0  0  0
 28 31  1  0  0  0  0
 29 27  1  6  0  0  0
 29 28  1  0  0  0  0
 29 31  1  0  0  0  0
 31 30  1  6  0  0  0
M  END
>  <MODEL>
6

>  <REMARK>
 VINA RESULT:      -5.8      2.052      3.630
  Name = 
  12 active torsions:
  status: ('A' for Active; 'I' for Inactive)
    1  A    between atoms: O_1  and  C_5
    2  A    between atoms: O_1  and  C_12
    3  A    between atoms: P_3  and  C_13
    4  A    between atoms: C_5  and  C_18
    5  A    between atoms: C_7  and  C_26
    6  A    between atoms: C_12  and  C_20
    7  A    between atoms: C_13  and  C_16
    8  A    between atoms: O_14  and  C_18
    9  A    between atoms: O_14  and  C_27
   10  A    between atoms: C_16  and  C_30
   11  A    between atoms: O_21  and  C_23
   12  A    between atoms: C_26  and  C_30
                            x       y       z     vdW  Elec       q    Type
                         _______ _______ _______ _____ _____    ______ ____

>  <TORSDO>
F 12

$$$$
=
 OpenBabel11062420583D

 31 34  0  0  1  0  0  0  0  0999 V2000
  189.7810  175.0630  143.7820 C   0  0  1  0  0  3  0  0  0  0  0  0
  188.9960  176.6830  145.9320 N   0  0  0  0  0  0  0  0  0  0  0  0
  190.8250  175.9250  144.4960 C   0  0  1  0  0  3  0  0  0  0  0  0
  188.8220  175.4250  141.6690 N   0  0  0  0  0  0  0  0  0  0  0  0
  188.4510  175.7160  143.8680 C   0  0  2  0  0  3  0  0  0  0  0  0
  190.2730  176.4240  145.8210 C   0  0  0  0  0  0  0  0  0  0  0  0
  189.9840  175.0100  142.3380 N   0  0  0  0  0  2  0  0  0  0  0  0
  187.9390  175.8220  142.5230 C   0  0  0  0  0  0  0  0  0  0  0  0
  188.1070  176.4820  144.8570 N   0  0  0  0  0  2  0  0  0  0  0  0
  192.0580  173.9530  145.0500 O   0  0  0  0  0  0  0  0  0  0  0  0
  192.1060  175.1570  144.6710 C   0  0  0  0  0  0  0  0  0  0  0  0
  194.1590  176.2360  145.3740 C   0  0  0  0  0  0  0  0  0  0  0  0
  194.8660  176.6620  146.2970 O   0  0  0  0  0  0  0  0  0  0  0  0
  193.4140  175.7840  144.3980 C   0  0  0  0  0  0  0  0  0  0  0  0
  193.9230  175.8750  142.9940 C   0  0  0  0  0  2  0  0  0  0  0  0
  195.1130  174.9540  142.7530 C   0  0  0  0  0  2  0  0  0  0  0  0
  197.8950  174.8500  142.0320 O   0  0  0  0  0  1  0  0  0  0  0  0
  196.5830  175.8960  142.2410 P   0  0  0  0  0  0  0  0  0  0  0  0
  196.9580  177.0490  143.4200 O   0  0  0  0  0  1  0  0  0  0  0  0
  196.2920  176.5940  140.9330 O   0  0  0  0  0  0  0  0  0  0  0  0
  191.1400  176.6570  146.8940 O   0  0  0  0  0  0  0  0  0  0  0  0
  191.1770  175.8160  148.0380 C   0  0  0  0  0  1  0  0  0  0  0  0
  186.6920  176.3380  142.1770 O   0  0  0  0  0  0  0  0  0  0  0  0
  186.5570  177.5220  141.4050 C   0  0  0  0  0  2  0  0  0  0  0  0
  185.7390  178.5440  142.1730 C   0  0  0  0  0  2  0  0  0  0  0  0
  186.3630  178.8330  143.3880 O   0  0  0  0  0  0  0  0  0  0  0  0
  185.3730  179.4380  144.1630 C   0  0  0  0  0  2  0  0  0  0  0  0
  184.0590  178.6470  146.1350 C   0  0  2  0  0  3  0  0  0  0  0  0
  184.4180  178.3780  144.6850 C   0  0  2  0  0  3  0  0  0  0  0  0
  185.2770  178.4470  147.0170 C   0  0  0  0  0  2  0  0  0  0  0  0
  185.0680  177.5730  145.7940 C   0  0  1  0  0  3  0  0  0  0  0  0
  1  7  1  6  0  0  0
  1  5  1  0  0  0  0
  1  3  1  0  0  0  0
  3 11  1  1  0  0  0
  3  6  1  0  0  0  0
  4  7  1  0  0  0  0
  4  8  2  0  0  0  0
  5  8  1  6  0  0  0
  5  9  1  0  0  0  0
  6  2  2  0  0  0  0
  6 21  1  0  0  0  0
  9  2  1  0  0  0  0
 11 10  2  0  0  0  0
 12 13  2  0  0  0  0
 14 11  1  0  0  0  0
 14 12  2  0  0  0  0
 15 14  1  0  0  0  0
 16 15  1  0  0  0  0
 17 18  1  0  0  0  0
 18 16  1  0  0  0  0
 18 19  1  0  0  0  0
 20 18  2  0  0  0  0
 21 22  1  0  0  0  0
 23  8  1  0  0  0  0
 24 25  1  0  0  0  0
 24 23  1  0  0  0  0
 25 26  1  0  0  0  0
 26 27  1  0  0  0  0
 28 30  1  1  0  0  0
 29 27  1  1  0  0  0
 29 31  1  0  0  0  0
 29 28  1  0  0  0  0
 31 28  1  0  0  0  0
 31 30  1  1  0  0  0
M  END
>  <MODEL>
7

>  <REMARK>
 VINA RESULT:      -5.8      1.625      2.323
  Name = 
  12 active torsions:
  status: ('A' for Active; 'I' for Inactive)
    1  A    between atoms: O_1  and  C_5
    2  A    between atoms: O_1  and  C_12
    3  A    between atoms: P_3  and  C_13
    4  A    between atoms: C_5  and  C_18
    5  A    between atoms: C_7  and  C_26
    6  A    between atoms: C_12  and  C_20
    7  A    between atoms: C_13  and  C_16
    8  A    between atoms: O_14  and  C_18
    9  A    between atoms: O_14  and  C_27
   10  A    between atoms: C_16  and  C_30
   11  A    between atoms: O_21  and  C_23
   12  A    between atoms: C_26  and  C_30
                            x       y       z     vdW  Elec       q    Type
                         _______ _______ _______ _____ _____    ______ ____

>  <TORSDO>
F 12

$$$$
=
 OpenBabel11062420583D

 31 34  0  0  1  0  0  0  0  0999 V2000
  191.9350  175.0990  146.6150 C   0  0  1  0  0  3  0  0  0  0  0  0
  191.8670  173.4150  144.3750 N   0  0  0  0  0  0  0  0  0  0  0  0
  190.7540  175.1850  145.6440 C   0  0  1  0  0  3  0  0  0  0  0  0
  193.7130  176.6150  146.8530 N   0  0  0  0  0  0  0  0  0  0  0  0
  193.1510  174.6630  145.8870 C   0  0  2  0  0  3  0  0  0  0  0  0
  190.7370  173.9680  144.7340 C   0  0  0  0  0  0  0  0  0  0  0  0
  192.3490  176.4050  147.1160 N   0  0  0  0  0  2  0  0  0  0  0  0
  194.1850  175.6320  146.1620 C   0  0  0  0  0  0  0  0  0  0  0  0
  193.1060  173.9010  144.8380 N   0  0  0  0  0  2  0  0  0  0  0  0
  189.1980  174.5430  147.3410 O   0  0  0  0  0  0  0  0  0  0  0  0
  189.4650  175.3430  146.4010 C   0  0  0  0  0  0  0  0  0  0  0  0
  188.7040  177.1860  145.0230 C   0  0  0  0  0  0  0  0  0  0  0  0
  188.8830  177.9100  144.0340 O   0  0  0  0  0  0  0  0  0  0  0  0
  188.5120  176.4200  146.0670 C   0  0  0  0  0  0  0  0  0  0  0  0
  187.2880  176.6250  146.9030 C   0  0  0  0  0  2  0  0  0  0  0  0
  186.0390  176.8240  146.0530 C   0  0  0  0  0  2  0  0  0  0  0  0
  185.9260  179.4530  144.8930 O   0  0  0  0  0  0  0  0  0  0  0  0
  185.4040  178.5220  146.2040 P   0  0  0  0  0  0  0  0  0  0  0  0
  185.9600  179.2100  147.6460 O   0  0  0  0  0  1  0  0  0  0  0  0
  183.8940  178.4860  146.2170 O   0  0  0  0  0  1  0  0  0  0  0  0
  189.5220  173.4830  144.2400 O   0  0  0  0  0  0  0  0  0  0  0  0
  189.3120  172.1080  143.9560 C   0  0  0  0  0  1  0  0  0  0  0  0
  195.4970  175.5590  145.6990 O   0  0  0  0  0  0  0  0  0  0  0  0
  195.8250  175.7840  144.3370 C   0  0  0  0  0  2  0  0  0  0  0  0
  196.7460  174.6820  143.8440 C   0  0  0  0  0  2  0  0  0  0  0  0
  197.5380  174.2210  144.8970 O   0  0  0  0  0  0  0  0  0  0  0  0
  197.4380  172.8300  144.8360 C   0  0  0  0  0  2  0  0  0  0  0  0
  196.8130  170.7950  146.1430 C   0  0  2  0  0  3  0  0  0  0  0  0
  196.7750  172.3110  146.1000 C   0  0  2  0  0  3  0  0  0  0  0  0
  195.9260  170.2220  145.0540 C   0  0  0  0  0  2  0  0  0  0  0  0
  195.5340  171.5060  145.7600 C   0  0  1  0  0  3  0  0  0  0  0  0
  1  7  1  6  0  0  0
  2  6  2  0  0  0  0
  2  9  1  0  0  0  0
  3 11  1  1  0  0  0
  3  1  1  0  0  0  0
  4  7  1  0  0  0  0
  5  9  1  6  0  0  0
  5  8  1  0  0  0  0
  5  1  1  0  0  0  0
  6  3  1  0  0  0  0
  8  4  2  0  0  0  0
 11 10  2  0  0  0  0
 12 14  2  0  0  0  0
 13 12  2  0  0  0  0
 14 11  1  0  0  0  0
 14 15  1  0  0  0  0
 16 18  1  0  0  0  0
 16 15  1  0  0  0  0
 17 18  2  0  0  0  0
 18 20  1  0  0  0  0
 18 19  1  0  0  0  0
 21  6  1  0  0  0  0
 22 21  1  0  0  0  0
 23  8  1  0  0  0  0
 24 23  1  0  0  0  0
 25 24  1  0  0  0  0
 25 26  1  0  0  0  0
 27 26  1  0  0  0  0
 28 30  1  6  0  0  0
 29 27  1  6  0  0  0
 29 28  1  0  0  0  0
 31 30  1  6  0  0  0
 31 29  1  0  0  0  0
 31 28  1  0  0  0  0
M  END
>  <MODEL>
8

>  <REMARK>
 VINA RESULT:      -5.7      3.335      8.812
  Name = 
  12 active torsions:
  status: ('A' for Active; 'I' for Inactive)
    1  A    between atoms: O_1  and  C_5
    2  A    between atoms: O_1  and  C_12
    3  A    between atoms: P_3  and  C_13
    4  A    between atoms: C_5  and  C_18
    5  A    between atoms: C_7  and  C_26
    6  A    between atoms: C_12  and  C_20
    7  A    between atoms: C_13  and  C_16
    8  A    between atoms: O_14  and  C_18
    9  A    between atoms: O_14  and  C_27
   10  A    between atoms: C_16  and  C_30
   11  A    between atoms: O_21  and  C_23
   12  A    between atoms: C_26  and  C_30
                            x       y       z     vdW  Elec       q    Type
                         _______ _______ _______ _____ _____    ______ ____

>  <TORSDO>
F 12

$$$$
=
 OpenBabel11062420583D

 31 34  0  0  1  0  0  0  0  0999 V2000
  189.4620  175.3850  142.7600 C   0  0  1  0  0  3  0  0  0  0  0  0
  188.3090  172.9810  141.8940 N   0  0  0  0  0  0  0  0  0  0  0  0
  190.0000  174.0550  143.2970 C   0  0  1  0  0  3  0  0  0  0  0  0
  188.1250  176.9530  143.8860 N   0  0  0  0  0  0  0  0  0  0  0  0
  188.0230  175.2440  142.4270 C   0  0  2  0  0  3  0  0  0  0  0  0
  189.4940  172.9050  142.4420 C   0  0  0  0  0  0  0  0  0  0  0  0
  189.4240  176.4300  143.7770 N   0  0  0  0  0  2  0  0  0  0  0  0
  187.3190  176.2960  143.1210 C   0  0  0  0  0  0  0  0  0  0  0  0
  187.4960  174.1210  142.0490 N   0  0  0  0  0  2  0  0  0  0  0  0
  192.1580  174.5100  142.3740 O   0  0  0  0  0  0  0  0  0  0  0  0
  191.5010  174.0890  143.3670 C   0  0  0  0  0  0  0  0  0  0  0  0
  192.7630  172.4600  144.6440 C   0  0  0  0  0  0  0  0  0  0  0  0
  193.2810  171.3370  144.7040 O   0  0  0  0  0  0  0  0  0  0  0  0
  192.2170  173.6470  144.5810 C   0  0  0  0  0  0  0  0  0  0  0  0
  192.3600  174.5750  145.7460 C   0  0  0  0  0  2  0  0  0  0  0  0
  192.6960  175.9960  145.3110 C   0  0  0  0  0  2  0  0  0  0  0  0
  194.8700  177.8070  145.8290 O   0  0  0  0  0  1  0  0  0  0  0  0
  194.4960  176.2600  145.2570 P   0  0  0  0  0  0  0  0  0  0  0  0
  195.0450  176.0960  143.6660 O   0  0  0  0  0  0  0  0  0  0  0  0
  195.1740  175.2310  146.1290 O   0  0  0  0  0  1  0  0  0  0  0  0
  190.2710  171.7510  142.2950 O   0  0  0  0  0  0  0  0  0  0  0  0
  190.8300  171.3650  141.0480 C   0  0  0  0  0  1  0  0  0  0  0  0
  185.9500  176.5380  143.0340 O   0  0  0  0  0  0  0  0  0  0  0  0
  185.4320  177.7070  142.4180 C   0  0  0  0  0  2  0  0  0  0  0  0
  184.3410  178.3040  143.2880 C   0  0  0  0  0  2  0  0  0  0  0  0
  184.7790  179.5110  143.8350 O   0  0  0  0  0  0  0  0  0  0  0  0
  185.4590  179.1500  144.9990 C   0  0  0  0  0  2  0  0  0  0  0  0
  185.1420  178.3640  147.3490 C   0  0  2  0  0  3  0  0  0  0  0  0
  184.4760  178.5690  146.0010 C   0  0  2  0  0  3  0  0  0  0  0  0
  186.1880  177.2680  147.2500 C   0  0  0  0  0  2  0  0  0  0  0  0
  184.9120  177.1820  146.4340 C   0  0  1  0  0  3  0  0  0  0  0  0
  1  3  1  0  0  0  0
  1  7  1  1  0  0  0
  2  9  1  0  0  0  0
  2  6  2  0  0  0  0
  3 11  1  6  0  0  0
  5  9  1  1  0  0  0
  5  1  1  0  0  0  0
  5  8  1  0  0  0  0
  6  3  1  0  0  0  0
  7  4  1  0  0  0  0
  8  4  2  0  0  0  0
 10 11  2  0  0  0  0
 11 14  1  0  0  0  0
 12 13  2  0  0  0  0
 14 12  2  0  0  0  0
 14 15  1  0  0  0  0
 16 15  1  0  0  0  0
 18 16  1  0  0  0  0
 18 17  1  0  0  0  0
 18 20  1  0  0  0  0
 19 18  2  0  0  0  0
 21  6  1  0  0  0  0
 22 21  1  0  0  0  0
 23  8  1  0  0  0  0
 24 23  1  0  0  0  0
 24 25  1  0  0  0  0
 25 26  1  0  0  0  0
 26 27  1  0  0  0  0
 28 30  1  6  0  0  0
 29 27  1  6  0  0  0
 29 31  1  0  0  0  0
 29 28  1  0  0  0  0
 31 30  1  6  0  0  0
 31 28  1  0  0  0  0
M  END
>  <MODEL>
9

>  <REMARK>
 VINA RESULT:      -5.7      1.728      3.060
  Name = 
  12 active torsions:
  status: ('A' for Active; 'I' for Inactive)
    1  A    between atoms: O_1  and  C_5
    2  A    between atoms: O_1  and  C_12
    3  A    between atoms: P_3  and  C_13
    4  A    between atoms: C_5  and  C_18
    5  A    between atoms: C_7  and  C_26
    6  A    between atoms: C_12  and  C_20
    7  A    between atoms: C_13  and  C_16
    8  A    between atoms: O_14  and  C_18
    9  A    between atoms: O_14  and  C_27
   10  A    between atoms: C_16  and  C_30
   11  A    between atoms: O_21  and  C_23
   12  A    between atoms: C_26  and  C_30
                            x       y       z     vdW  Elec       q    Type
                         _______ _______ _______ _____ _____    ______ ____

>  <TORSDO>
F 12

$$$$
