=
 OpenBabel11062419543D

 28 29  0  0  1  0  0  0  0  0999 V2000
  186.1860  177.5460  145.4660 C   0  0  1  0  0  3  0  0  0  0  0  0
  185.4890  178.2220  147.0070 P   0  0  0  0  0  0  0  0  0  0  0  0
  183.8010  178.2560  146.9040 O   0  0  0  0  0  0  0  0  0  0  0  0
  186.0050  179.6260  147.2290 O   0  0  0  0  0  1  0  0  0  0  0  0
  185.9510  177.2490  148.3120 O   0  0  0  0  0  1  0  0  0  0  0  0
  186.1890  178.6180  144.3910 C   0  0  2  0  0  3  0  0  0  0  0  0
  184.7700  179.0500  144.0790 C   0  0  0  0  0  2  0  0  0  0  0  0
  185.4860  178.0860  143.1570 C   0  0  1  0  0  3  0  0  0  0  0  0
  185.9600  178.7700  142.0370 O   0  0  0  0  0  0  0  0  0  0  0  0
  186.1000  177.7840  141.0550 C   0  0  0  0  0  2  0  0  0  0  0  0
  188.3860  178.2220  141.6430 O   0  0  0  0  0  1  0  0  0  0  0  0
  187.5640  177.4080  140.8620 C   0  0  1  0  0  3  0  0  0  0  0  0
  187.6930  175.5720  142.3700 O   0  0  0  0  0  0  0  0  0  0  0  0
  187.8010  175.9670  141.1780 C   0  0  0  0  0  0  0  0  0  0  0  0
  188.1680  175.0810  140.1620 O   0  0  0  0  0  0  0  0  0  0  0  0
  188.5950  173.7570  140.4440 C   0  0  0  0  0  1  0  0  0  0  0  0
  188.6250  177.7450  145.1840 C   0  0  0  0  0  3  0  0  0  0  0  0
  187.5890  177.0830  145.6980 C   0  0  0  0  0  3  0  0  0  0  0  0
  191.4880  175.9880  146.9730 C   0  0  0  0  0  2  0  0  0  0  0  0
  191.9340  175.9390  144.4890 C   0  0  2  0  0  3  0  0  0  0  0  0
  190.0200  177.2760  145.4280 C   0  0  2  0  0  3  0  0  0  0  0  0
  192.0360  175.1540  145.8140 C   0  0  1  0  0  3  0  0  0  0  0  0
  190.5110  176.4450  144.2450 C   0  0  0  0  0  2  0  0  0  0  0  0
  190.0560  176.4320  146.6930 C   0  0  0  0  0  2  0  0  0  0  0  0
  192.4200  175.1320  143.2820 C   0  0  0  0  0  2  0  0  0  0  0  0
  191.4880  173.9780  142.9390 C   0  0  0  0  0  1  0  0  0  0  0  0
  194.2780  176.0620  146.4190 C   0  0  0  0  0  1  0  0  0  0  0  0
  193.4820  174.8030  146.1360 C   0  0  0  0  0  2  0  0  0  0  0  0
  1 18  1  1  0  0  0
  1  2  1  0  0  0  0
  2  4  1  0  0  0  0
  2  5  1  0  0  0  0
  3  2  2  0  0  0  0
  6  1  1  1  0  0  0
  7  6  1  0  0  0  0
  8  9  1  6  0  0  0
  8  7  1  0  0  0  0
  8  6  1  0  0  0  0
 10  9  1  0  0  0  0
 12 10  1  0  0  0  0
 12 14  1  0  0  0  0
 12 11  1  1  0  0  0
 14 13  2  0  0  0  0
 15 16  1  0  0  0  0
 15 14  1  0  0  0  0
 17 18  2  0  0  0  0
 20 25  1  6  0  0  0
 20 22  1  0  0  0  0
 21 17  1  6  0  0  0
 21 24  1  0  0  0  0
 22 28  1  1  0  0  0
 22 19  1  0  0  0  0
 23 20  1  0  0  0  0
 23 21  1  0  0  0  0
 24 19  1  0  0  0  0
 26 25  1  0  0  0  0
 28 27  1  0  0  0  0
M  END
>  <MODEL>
1

>  <REMARK>
 VINA RESULT:      -6.1      0.000      0.000
  Name = 
  11 active torsions:
  status: ('A' for Active; 'I' for Inactive)
    1  A    between atoms: P_2  and  C_12
    2  A    between atoms: C_3  and  C_12
    3  A    between atoms: C_5  and  C_6
    4  A    between atoms: O_8  and  C_22
    5  A    between atoms: C_9  and  C_13
    6  A    between atoms: C_11  and  C_26
    7  A    between atoms: C_12  and  C_16
    8  A    between atoms: O_14  and  C_21
    9  A    between atoms: O_14  and  C_23
   10  A    between atoms: C_22  and  C_28
   11  A    between atoms: C_23  and  C_28
                            x       y       z     vdW  Elec       q    Type
                         _______ _______ _______ _____ _____    ______ ____

>  <TORSDO>
F 11

$$$$
=
 OpenBabel11062419543D

 28 29  0  0  1  0  0  0  0  0999 V2000
  186.9230  176.9090  145.1100 C   0  0  1  0  0  3  0  0  0  0  0  0
  185.9860  178.0700  146.1550 P   0  0  0  0  0  0  0  0  0  0  0  0
  184.4450  177.4440  146.4630 O   0  0  0  0  0  1  0  0  0  0  0  0
  185.8540  179.4000  145.4490 O   0  0  0  0  0  0  0  0  0  0  0  0
  186.8000  178.2970  147.6200 O   0  0  0  0  0  1  0  0  0  0  0  0
  186.8870  177.3750  143.6650 C   0  0  2  0  0  3  0  0  0  0  0  0
  185.5480  177.0360  143.0390 C   0  0  0  0  0  2  0  0  0  0  0  0
  186.7560  176.1680  142.7560 C   0  0  1  0  0  3  0  0  0  0  0  0
  187.2820  176.4870  141.5040 O   0  0  0  0  0  0  0  0  0  0  0  0
  187.8460  175.2940  141.0440 C   0  0  0  0  0  2  0  0  0  0  0  0
  187.6080  173.0510  141.8670 O   0  0  0  0  0  1  0  0  0  0  0  0
  188.0830  174.3220  142.1940 C   0  0  1  0  0  3  0  0  0  0  0  0
  190.3990  174.5490  141.7030 O   0  0  0  0  0  0  0  0  0  0  0  0
  189.5280  174.2620  142.5670 C   0  0  0  0  0  0  0  0  0  0  0  0
  189.9020  173.8610  143.8520 O   0  0  0  0  0  0  0  0  0  0  0  0
  190.7110  172.7160  144.0730 C   0  0  0  0  0  1  0  0  0  0  0  0
  189.3360  177.2920  144.7960 C   0  0  0  0  0  3  0  0  0  0  0  0
  188.3460  176.8430  145.5660 C   0  0  0  0  0  3  0  0  0  0  0  0
  192.2970  176.1680  146.9050 C   0  0  0  0  0  2  0  0  0  0  0  0
  193.1220  176.7280  144.5870 C   0  0  2  0  0  3  0  0  0  0  0  0
  190.7500  177.2250  145.2660 C   0  0  2  0  0  3  0  0  0  0  0  0
  193.2660  175.7730  145.7910 C   0  0  1  0  0  3  0  0  0  0  0  0
  191.6690  176.8210  144.1150 C   0  0  0  0  0  2  0  0  0  0  0  0
  190.8630  176.2070  146.3900 C   0  0  0  0  0  2  0  0  0  0  0  0
  194.0320  176.3490  143.4160 C   0  0  0  0  0  2  0  0  0  0  0  0
  193.6620  175.0060  142.8010 C   0  0  0  0  0  1  0  0  0  0  0  0
  195.4030  174.5180  146.0730 C   0  0  0  0  0  1  0  0  0  0  0  0
  194.6770  175.8180  146.3620 C   0  0  0  0  0  2  0  0  0  0  0  0
  1 18  1  1  0  0  0
  1  2  1  0  0  0  0
  2  3  1  0  0  0  0
  2  5  1  0  0  0  0
  4  2  2  0  0  0  0
  6  1  1  1  0  0  0
  7  6  1  0  0  0  0
  8  9  1  6  0  0  0
  8  7  1  0  0  0  0
  8  6  1  0  0  0  0
 10  9  1  0  0  0  0
 10 12  1  0  0  0  0
 12 11  1  6  0  0  0
 12 14  1  0  0  0  0
 13 14  2  0  0  0  0
 14 15  1  0  0  0  0
 15 16  1  0  0  0  0
 17 18  2  0  0  0  0
 20 25  1  6  0  0  0
 20 22  1  0  0  0  0
 21 17  1  6  0  0  0
 21 24  1  0  0  0  0
 22 28  1  1  0  0  0
 22 19  1  0  0  0  0
 23 20  1  0  0  0  0
 23 21  1  0  0  0  0
 24 19  1  0  0  0  0
 26 25  1  0  0  0  0
 27 28  1  0  0  0  0
M  END
>  <MODEL>
2

>  <REMARK>
 VINA RESULT:      -5.7      1.594      2.366
  Name = 
  11 active torsions:
  status: ('A' for Active; 'I' for Inactive)
    1  A    between atoms: P_2  and  C_12
    2  A    between atoms: C_3  and  C_12
    3  A    between atoms: C_5  and  C_6
    4  A    between atoms: O_8  and  C_22
    5  A    between atoms: C_9  and  C_13
    6  A    between atoms: C_11  and  C_26
    7  A    between atoms: C_12  and  C_16
    8  A    between atoms: O_14  and  C_21
    9  A    between atoms: O_14  and  C_23
   10  A    between atoms: C_22  and  C_28
   11  A    between atoms: C_23  and  C_28
                            x       y       z     vdW  Elec       q    Type
                         _______ _______ _______ _____ _____    ______ ____

>  <TORSDO>
F 11

$$$$
=
 OpenBabel11062419543D

 28 29  0  0  1  0  0  0  0  0999 V2000
  190.0930  173.6630  143.1480 C   0  0  1  0  0  3  0  0  0  0  0  0
  189.6480  172.8370  141.5870 P   0  0  0  0  0  0  0  0  0  0  0  0
  190.3370  171.2930  141.5420 O   0  0  0  0  0  1  0  0  0  0  0  0
  190.1580  173.6470  140.4160 O   0  0  0  0  0  0  0  0  0  0  0  0
  187.9650  172.7020  141.4770 O   0  0  0  0  0  1  0  0  0  0  0  0
  191.2520  174.6150  142.9120 C   0  0  2  0  0  3  0  0  0  0  0  0
  192.5700  173.8800  143.0510 C   0  0  0  0  0  2  0  0  0  0  0  0
  192.0620  174.7390  144.1880 C   0  0  1  0  0  3  0  0  0  0  0  0
  192.7260  175.9660  144.1850 O   0  0  0  0  0  0  0  0  0  0  0  0
  192.0620  176.7290  145.1510 C   0  0  0  0  0  2  0  0  0  0  0  0
  193.5370  176.5880  147.0400 O   0  0  0  0  0  1  0  0  0  0  0  0
  192.3000  176.1680  146.5480 C   0  0  1  0  0  3  0  0  0  0  0  0
  191.4890  177.1910  148.5370 O   0  0  0  0  0  0  0  0  0  0  0  0
  191.2040  176.5580  147.4850 C   0  0  0  0  0  0  0  0  0  0  0  0
  189.8850  176.1950  147.2050 O   0  0  0  0  0  0  0  0  0  0  0  0
  189.4550  174.8430  147.2540 C   0  0  0  0  0  1  0  0  0  0  0  0
  188.6340  175.6480  143.1950 C   0  0  0  0  0  3  0  0  0  0  0  0
  188.9240  174.4370  143.6690 C   0  0  0  0  0  3  0  0  0  0  0  0
  186.7570  178.4150  145.0110 C   0  0  0  0  0  2  0  0  0  0  0  0
  185.3320  177.5940  143.0960 C   0  0  2  0  0  3  0  0  0  0  0  0
  187.4620  176.4060  143.7200 C   0  0  2  0  0  3  0  0  0  0  0  0
  185.7830  178.8270  143.9060 C   0  0  1  0  0  3  0  0  0  0  0  0
  186.5300  176.7960  142.5750 C   0  0  0  0  0  2  0  0  0  0  0  0
  187.9470  177.6600  144.4320 C   0  0  0  0  0  2  0  0  0  0  0  0
  184.3960  177.9530  141.9390 C   0  0  0  0  0  2  0  0  0  0  0  0
  185.1500  178.2580  140.6530 C   0  0  0  0  0  1  0  0  0  0  0  0
  184.0640  178.6710  145.7060 C   0  0  0  0  0  1  0  0  0  0  0  0
  184.5960  179.5160  144.5650 C   0  0  0  0  0  2  0  0  0  0  0  0
  1 18  1  6  0  0  0
  2  1  1  0  0  0  0
  3  2  1  0  0  0  0
  4  2  2  0  0  0  0
  5  2  1  0  0  0  0
  6  7  1  0  0  0  0
  6  1  1  1  0  0  0
  6  8  1  0  0  0  0
  7  8  1  0  0  0  0
  8  9  1  6  0  0  0
  9 10  1  0  0  0  0
 10 12  1  0  0  0  0
 12 11  1  1  0  0  0
 12 14  1  0  0  0  0
 14 13  2  0  0  0  0
 15 16  1  0  0  0  0
 15 14  1  0  0  0  0
 17 18  2  0  0  0  0
 20 25  1  6  0  0  0
 20 22  1  0  0  0  0
 21 17  1  6  0  0  0
 21 24  1  0  0  0  0
 22 28  1  1  0  0  0
 22 19  1  0  0  0  0
 23 20  1  0  0  0  0
 23 21  1  0  0  0  0
 24 19  1  0  0  0  0
 26 25  1  0  0  0  0
 28 27  1  0  0  0  0
M  END
>  <MODEL>
3

>  <REMARK>
 VINA RESULT:      -5.7      3.223      7.503
  Name = 
  11 active torsions:
  status: ('A' for Active; 'I' for Inactive)
    1  A    between atoms: P_2  and  C_12
    2  A    between atoms: C_3  and  C_12
    3  A    between atoms: C_5  and  C_6
    4  A    between atoms: O_8  and  C_22
    5  A    between atoms: C_9  and  C_13
    6  A    between atoms: C_11  and  C_26
    7  A    between atoms: C_12  and  C_16
    8  A    between atoms: O_14  and  C_21
    9  A    between atoms: O_14  and  C_23
   10  A    between atoms: C_22  and  C_28
   11  A    between atoms: C_23  and  C_28
                            x       y       z     vdW  Elec       q    Type
                         _______ _______ _______ _____ _____    ______ ____

>  <TORSDO>
F 11

$$$$
=
 OpenBabel11062419543D

 28 29  0  0  1  0  0  0  0  0999 V2000
  190.0930  173.8460  142.8430 C   0  0  1  0  0  3  0  0  0  0  0  0
  189.5960  172.9300  141.3490 P   0  0  0  0  0  0  0  0  0  0  0  0
  189.9880  173.8290  139.9710 O   0  0  0  0  0  0  0  0  0  0  0  0
  188.1050  172.6790  141.3750 O   0  0  0  0  0  1  0  0  0  0  0  0
  190.4070  171.4460  141.2990 O   0  0  0  0  0  1  0  0  0  0  0  0
  191.1610  174.8650  142.4870 C   0  0  2  0  0  3  0  0  0  0  0  0
  192.5000  174.1780  142.3080 C   0  0  0  0  0  2  0  0  0  0  0  0
  192.1940  174.9100  143.5970 C   0  0  1  0  0  3  0  0  0  0  0  0
  192.8120  176.1600  143.5880 O   0  0  0  0  0  0  0  0  0  0  0  0
  192.9940  176.4750  144.9380 C   0  0  0  0  0  2  0  0  0  0  0  0
  194.5670  177.3690  146.5160 O   0  0  0  0  0  1  0  0  0  0  0  0
  194.4390  176.8720  145.2180 C   0  0  1  0  0  3  0  0  0  0  0  0
  195.2010  174.6630  145.6570 O   0  0  0  0  0  0  0  0  0  0  0  0
  195.3700  175.7250  145.0010 C   0  0  0  0  0  0  0  0  0  0  0  0
  196.4320  175.8490  144.1010 O   0  0  0  0  0  0  0  0  0  0  0  0
  196.2750  176.4870  142.8440 C   0  0  0  0  0  1  0  0  0  0  0  0
  188.5390  175.7530  142.9690 C   0  0  0  0  0  3  0  0  0  0  0  0
  188.9130  174.5580  143.4240 C   0  0  0  0  0  3  0  0  0  0  0  0
  186.6230  178.3470  144.9900 C   0  0  0  0  0  2  0  0  0  0  0  0
  185.2020  177.6390  143.0280 C   0  0  2  0  0  3  0  0  0  0  0  0
  187.3570  176.4500  143.5540 C   0  0  2  0  0  3  0  0  0  0  0  0
  185.6350  178.8190  143.9230 C   0  0  1  0  0  3  0  0  0  0  0  0
  186.4110  176.9040  142.4450 C   0  0  0  0  0  2  0  0  0  0  0  0
  187.8240  177.6580  144.3520 C   0  0  0  0  0  2  0  0  0  0  0  0
  184.2520  178.0630  141.9050 C   0  0  0  0  0  2  0  0  0  0  0  0
  184.9600  178.2080  140.5660 C   0  0  0  0  0  1  0  0  0  0  0  0
  184.1270  178.6650  145.9030 C   0  0  0  0  0  1  0  0  0  0  0  0
  184.4400  179.4370  144.6360 C   0  0  0  0  0  2  0  0  0  0  0  0
  1 18  1  6  0  0  0
  2  4  1  0  0  0  0
  2  1  1  0  0  0  0
  3  2  2  0  0  0  0
  5  2  1  0  0  0  0
  6  1  1  1  0  0  0
  6  8  1  0  0  0  0
  7  6  1  0  0  0  0
  7  8  1  0  0  0  0
  8  9  1  6  0  0  0
  9 10  1  0  0  0  0
 10 12  1  0  0  0  0
 12 11  1  1  0  0  0
 14 12  1  0  0  0  0
 14 13  2  0  0  0  0
 15 14  1  0  0  0  0
 16 15  1  0  0  0  0
 17 18  2  0  0  0  0
 20 25  1  6  0  0  0
 20 22  1  0  0  0  0
 21 17  1  6  0  0  0
 21 24  1  0  0  0  0
 22 28  1  1  0  0  0
 22 19  1  0  0  0  0
 23 20  1  0  0  0  0
 23 21  1  0  0  0  0
 24 19  1  0  0  0  0
 26 25  1  0  0  0  0
 28 27  1  0  0  0  0
M  END
>  <MODEL>
4

>  <REMARK>
 VINA RESULT:      -5.7      3.996      7.803
  Name = 
  11 active torsions:
  status: ('A' for Active; 'I' for Inactive)
    1  A    between atoms: P_2  and  C_12
    2  A    between atoms: C_3  and  C_12
    3  A    between atoms: C_5  and  C_6
    4  A    between atoms: O_8  and  C_22
    5  A    between atoms: C_9  and  C_13
    6  A    between atoms: C_11  and  C_26
    7  A    between atoms: C_12  and  C_16
    8  A    between atoms: O_14  and  C_21
    9  A    between atoms: O_14  and  C_23
   10  A    between atoms: C_22  and  C_28
   11  A    between atoms: C_23  and  C_28
                            x       y       z     vdW  Elec       q    Type
                         _______ _______ _______ _____ _____    ______ ____

>  <TORSDO>
F 11

$$$$
=
 OpenBabel11062419543D

 28 29  0  0  1  0  0  0  0  0999 V2000
  192.9650  176.3380  144.4460 C   0  0  1  0  0  3  0  0  0  0  0  0
  194.0280  176.5920  145.9030 P   0  0  0  0  0  0  0  0  0  0  0  0
  194.9490  177.9970  145.7000 O   0  0  0  0  0  0  0  0  0  0  0  0
  194.9520  175.4080  146.0740 O   0  0  0  0  0  1  0  0  0  0  0  0
  193.0650  176.7500  147.2860 O   0  0  0  0  0  1  0  0  0  0  0  0
  193.4820  175.1640  143.6330 C   0  0  2  0  0  3  0  0  0  0  0  0
  194.3980  175.6540  142.5300 C   0  0  0  0  0  2  0  0  0  0  0  0
  192.9670  175.2790  142.2110 C   0  0  1  0  0  3  0  0  0  0  0  0
  192.9290  174.0060  141.6410 O   0  0  0  0  0  0  0  0  0  0  0  0
  191.7510  173.9920  140.8870 C   0  0  0  0  0  2  0  0  0  0  0  0
  189.4330  174.6040  141.0200 O   0  0  0  0  0  1  0  0  0  0  0  0
  190.5300  174.1920  141.7780 C   0  0  1  0  0  3  0  0  0  0  0  0
  189.5290  172.0440  141.9820 O   0  0  0  0  0  0  0  0  0  0  0  0
  190.2040  172.9500  142.5410 C   0  0  0  0  0  0  0  0  0  0  0  0
  190.6190  172.8150  143.8670 O   0  0  0  0  0  0  0  0  0  0  0  0
  189.7640  172.2840  144.8680 C   0  0  0  0  0  1  0  0  0  0  0  0
  190.5730  176.9040  144.6060 C   0  0  0  0  0  3  0  0  0  0  0  0
  191.5620  176.0530  144.8780 C   0  0  0  0  0  3  0  0  0  0  0  0
  187.5010  176.9240  146.8530 C   0  0  0  0  0  2  0  0  0  0  0  0
  186.7430  176.8460  144.4470 C   0  0  2  0  0  3  0  0  0  0  0  0
  189.1770  176.6040  145.0390 C   0  0  2  0  0  3  0  0  0  0  0  0
  186.4580  177.4200  145.8510 C   0  0  1  0  0  3  0  0  0  0  0  0
  188.1810  177.1270  144.0060 C   0  0  0  0  0  2  0  0  0  0  0  0
  188.9110  177.2650  146.3840 C   0  0  0  0  0  2  0  0  0  0  0  0
  185.7600  177.3520  143.3870 C   0  0  0  0  0  2  0  0  0  0  0  0
  185.8250  178.8620  143.2070 C   0  0  0  0  0  1  0  0  0  0  0  0
  184.2290  178.2050  146.6460 C   0  0  0  0  0  1  0  0  0  0  0  0
  185.0870  176.9900  146.3530 C   0  0  0  0  0  2  0  0  0  0  0  0
  1 18  1  1  0  0  0
  1  2  1  0  0  0  0
  2  4  1  0  0  0  0
  2  5  1  0  0  0  0
  3  2  2  0  0  0  0
  6  1  1  1  0  0  0
  7  6  1  0  0  0  0
  8  9  1  6  0  0  0
  8  7  1  0  0  0  0
  8  6  1  0  0  0  0
 10  9  1  0  0  0  0
 10 12  1  0  0  0  0
 12 11  1  6  0  0  0
 12 14  1  0  0  0  0
 13 14  2  0  0  0  0
 14 15  1  0  0  0  0
 15 16  1  0  0  0  0
 17 18  2  0  0  0  0
 20 25  1  6  0  0  0
 20 22  1  0  0  0  0
 21 17  1  6  0  0  0
 21 24  1  0  0  0  0
 22 28  1  1  0  0  0
 22 19  1  0  0  0  0
 23 20  1  0  0  0  0
 23 21  1  0  0  0  0
 24 19  1  0  0  0  0
 26 25  1  0  0  0  0
 28 27  1  0  0  0  0
M  END
>  <MODEL>
5

>  <REMARK>
 VINA RESULT:      -5.7      3.697      6.737
  Name = 
  11 active torsions:
  status: ('A' for Active; 'I' for Inactive)
    1  A    between atoms: P_2  and  C_12
    2  A    between atoms: C_3  and  C_12
    3  A    between atoms: C_5  and  C_6
    4  A    between atoms: O_8  and  C_22
    5  A    between atoms: C_9  and  C_13
    6  A    between atoms: C_11  and  C_26
    7  A    between atoms: C_12  and  C_16
    8  A    between atoms: O_14  and  C_21
    9  A    between atoms: O_14  and  C_23
   10  A    between atoms: C_22  and  C_28
   11  A    between atoms: C_23  and  C_28
                            x       y       z     vdW  Elec       q    Type
                         _______ _______ _______ _____ _____    ______ ____

>  <TORSDO>
F 11

$$$$
=
 OpenBabel11062419543D

 28 29  0  0  1  0  0  0  0  0999 V2000
  193.1430  176.0300  144.3980 C   0  0  1  0  0  3  0  0  0  0  0  0
  194.0420  176.4170  145.9340 P   0  0  0  0  0  0  0  0  0  0  0  0
  195.1940  175.2160  146.2390 O   0  0  0  0  0  1  0  0  0  0  0  0
  193.0720  176.4840  147.0920 O   0  0  0  0  0  1  0  0  0  0  0  0
  194.8200  177.9110  145.7740 O   0  0  0  0  0  0  0  0  0  0  0  0
  193.2250  174.5390  144.1170 C   0  0  2  0  0  3  0  0  0  0  0  0
  194.2840  174.2620  143.0690 C   0  0  0  0  0  2  0  0  0  0  0  0
  192.8210  174.2820  142.6780 C   0  0  1  0  0  3  0  0  0  0  0  0
  192.3450  172.9750  142.5700 O   0  0  0  0  0  0  0  0  0  0  0  0
  191.5020  172.9980  141.4550 C   0  0  0  0  0  2  0  0  0  0  0  0
  189.6190  174.1400  140.4980 O   0  0  0  0  0  1  0  0  0  0  0  0
  190.3060  173.9140  141.6920 C   0  0  1  0  0  3  0  0  0  0  0  0
  188.6270  172.3960  142.4220 O   0  0  0  0  0  0  0  0  0  0  0  0
  189.3880  173.3530  142.7280 C   0  0  0  0  0  0  0  0  0  0  0  0
  189.3580  173.9090  144.0090 O   0  0  0  0  0  0  0  0  0  0  0  0
  189.8600  173.2110  145.1380 C   0  0  0  0  0  1  0  0  0  0  0  0
  191.2450  177.5410  143.9720 C   0  0  0  0  0  3  0  0  0  0  0  0
  191.7060  176.4230  144.5320 C   0  0  0  0  0  3  0  0  0  0  0  0
  187.6030  177.9700  142.9540 C   0  0  0  0  0  2  0  0  0  0  0  0
  187.7040  177.5570  145.4420 C   0  0  2  0  0  3  0  0  0  0  0  0
  189.8090  177.9190  144.1090 C   0  0  2  0  0  3  0  0  0  0  0  0
  186.9270  177.2790  144.1390 C   0  0  1  0  0  3  0  0  0  0  0  0
  189.1840  177.1960  145.3000 C   0  0  0  0  0  2  0  0  0  0  0  0
  189.0620  177.5430  142.8370 C   0  0  0  0  0  2  0  0  0  0  0  0
  187.1020  176.8460  146.6570 C   0  0  0  0  0  2  0  0  0  0  0  0
  186.4790  177.8150  147.6500 C   0  0  0  0  0  1  0  0  0  0  0  0
  185.4650  179.2920  143.9600 C   0  0  0  0  0  1  0  0  0  0  0  0
  185.4990  177.8000  144.2280 C   0  0  0  0  0  2  0  0  0  0  0  0
  1 18  1  1  0  0  0
  1  2  1  0  0  0  0
  2  3  1  0  0  0  0
  2  4  1  0  0  0  0
  5  2  2  0  0  0  0
  6  1  1  6  0  0  0
  7  6  1  0  0  0  0
  8  9  1  1  0  0  0
  8  7  1  0  0  0  0
  8  6  1  0  0  0  0
 10 12  1  0  0  0  0
 10  9  1  0  0  0  0
 12 11  1  6  0  0  0
 12 14  1  0  0  0  0
 13 14  2  0  0  0  0
 14 15  1  0  0  0  0
 15 16  1  0  0  0  0
 17 18  2  0  0  0  0
 19 22  1  0  0  0  0
 20 25  1  1  0  0  0
 21 17  1  6  0  0  0
 21 23  1  0  0  0  0
 22 28  1  1  0  0  0
 22 20  1  0  0  0  0
 23 20  1  0  0  0  0
 24 19  1  0  0  0  0
 24 21  1  0  0  0  0
 25 26  1  0  0  0  0
 27 28  1  0  0  0  0
M  END
>  <MODEL>
6

>  <REMARK>
 VINA RESULT:      -5.6      3.598      6.839
  Name = 
  11 active torsions:
  status: ('A' for Active; 'I' for Inactive)
    1  A    between atoms: P_2  and  C_12
    2  A    between atoms: C_3  and  C_12
    3  A    between atoms: C_5  and  C_6
    4  A    between atoms: O_8  and  C_22
    5  A    between atoms: C_9  and  C_13
    6  A    between atoms: C_11  and  C_26
    7  A    between atoms: C_12  and  C_16
    8  A    between atoms: O_14  and  C_21
    9  A    between atoms: O_14  and  C_23
   10  A    between atoms: C_22  and  C_28
   11  A    between atoms: C_23  and  C_28
                            x       y       z     vdW  Elec       q    Type
                         _______ _______ _______ _____ _____    ______ ____

>  <TORSDO>
F 11

$$$$
=
 OpenBabel11062419543D

 28 29  0  0  1  0  0  0  0  0999 V2000
  190.0420  173.7430  143.4010 C   0  0  1  0  0  3  0  0  0  0  0  0
  189.5110  172.6840  142.0170 P   0  0  0  0  0  0  0  0  0  0  0  0
  187.8220  172.6640  141.9290 O   0  0  0  0  0  1  0  0  0  0  0  0
  190.0190  171.2750  142.2270 O   0  0  0  0  0  1  0  0  0  0  0  0
  190.1400  173.2900  140.5680 O   0  0  0  0  0  0  0  0  0  0  0  0
  191.3300  174.4600  143.0340 C   0  0  2  0  0  3  0  0  0  0  0  0
  192.5140  173.5290  143.2020 C   0  0  0  0  0  2  0  0  0  0  0  0
  192.2100  174.5640  144.2640 C   0  0  1  0  0  3  0  0  0  0  0  0
  193.0650  175.6560  144.1160 O   0  0  0  0  0  0  0  0  0  0  0  0
  192.5540  176.6240  144.9870 C   0  0  0  0  0  2  0  0  0  0  0  0
  193.9100  176.8850  146.9510 O   0  0  0  0  0  1  0  0  0  0  0  0
  192.7880  176.2300  146.4410 C   0  0  1  0  0  3  0  0  0  0  0  0
  191.7360  177.0820  148.3970 O   0  0  0  0  0  0  0  0  0  0  0  0
  191.5860  176.5160  147.2810 C   0  0  0  0  0  0  0  0  0  0  0  0
  190.3180  176.1280  146.8410 O   0  0  0  0  0  0  0  0  0  0  0  0
  189.7160  174.9170  147.2720 C   0  0  0  0  0  1  0  0  0  0  0  0
  188.9990  175.9570  143.1240 C   0  0  0  0  0  3  0  0  0  0  0  0
  188.9870  174.7580  143.7050 C   0  0  0  0  0  3  0  0  0  0  0  0
  185.5630  177.5880  143.0260 C   0  0  0  0  0  2  0  0  0  0  0  0
  186.6170  178.0580  145.2710 C   0  0  2  0  0  3  0  0  0  0  0  0
  187.9370  176.9580  143.4310 C   0  0  2  0  0  3  0  0  0  0  0  0
  185.3060  177.7270  144.5270 C   0  0  1  0  0  3  0  0  0  0  0  0
  187.7190  177.0490  144.9400 C   0  0  0  0  0  2  0  0  0  0  0  0
  186.6400  176.5440  142.7540 C   0  0  0  0  0  2  0  0  0  0  0  0
  186.4320  178.1560  146.7870 C   0  0  0  0  0  2  0  0  0  0  0  0
  186.3990  176.7910  147.4600 C   0  0  0  0  0  1  0  0  0  0  0  0
  184.8210  180.1570  144.2510 C   0  0  0  0  0  1  0  0  0  0  0  0
  184.2700  178.8260  144.7230 C   0  0  0  0  0  2  0  0  0  0  0  0
  1 18  1  6  0  0  0
  2  4  1  0  0  0  0
  2  1  1  0  0  0  0
  3  2  1  0  0  0  0
  5  2  2  0  0  0  0
  6  7  1  0  0  0  0
  6  1  1  1  0  0  0
  6  8  1  0  0  0  0
  7  8  1  0  0  0  0
  8  9  1  6  0  0  0
  9 10  1  0  0  0  0
 10 12  1  0  0  0  0
 12 11  1  1  0  0  0
 12 14  1  0  0  0  0
 14 13  2  0  0  0  0
 15 16  1  0  0  0  0
 15 14  1  0  0  0  0
 17 18  2  0  0  0  0
 19 22  1  0  0  0  0
 20 25  1  1  0  0  0
 21 17  1  1  0  0  0
 21 23  1  0  0  0  0
 22 28  1  6  0  0  0
 22 20  1  0  0  0  0
 23 20  1  0  0  0  0
 24 19  1  0  0  0  0
 24 21  1  0  0  0  0
 25 26  1  0  0  0  0
 27 28  1  0  0  0  0
M  END
>  <MODEL>
7

>  <REMARK>
 VINA RESULT:      -5.6      3.320      7.454
  Name = 
  11 active torsions:
  status: ('A' for Active; 'I' for Inactive)
    1  A    between atoms: P_2  and  C_12
    2  A    between atoms: C_3  and  C_12
    3  A    between atoms: C_5  and  C_6
    4  A    between atoms: O_8  and  C_22
    5  A    between atoms: C_9  and  C_13
    6  A    between atoms: C_11  and  C_26
    7  A    between atoms: C_12  and  C_16
    8  A    between atoms: O_14  and  C_21
    9  A    between atoms: O_14  and  C_23
   10  A    between atoms: C_22  and  C_28
   11  A    between atoms: C_23  and  C_28
                            x       y       z     vdW  Elec       q    Type
                         _______ _______ _______ _____ _____    ______ ____

>  <TORSDO>
F 11

$$$$
=
 OpenBabel11062419543D

 28 29  0  0  1  0  0  0  0  0999 V2000
  193.0400  176.3540  144.4820 C   0  0  1  0  0  3  0  0  0  0  0  0
  194.0850  176.6230  145.9500 P   0  0  0  0  0  0  0  0  0  0  0  0
  193.1110  176.7860  147.3230 O   0  0  0  0  0  1  0  0  0  0  0  0
  194.9080  177.8780  145.7680 O   0  0  0  0  0  0  0  0  0  0  0  0
  195.1230  175.3020  146.1540 O   0  0  0  0  0  1  0  0  0  0  0  0
  193.5550  175.1590  143.6980 C   0  0  2  0  0  3  0  0  0  0  0  0
  194.6010  175.6030  142.6950 C   0  0  0  0  0  2  0  0  0  0  0  0
  193.1850  175.3280  142.2360 C   0  0  1  0  0  3  0  0  0  0  0  0
  193.1200  174.0690  141.6400 O   0  0  0  0  0  0  0  0  0  0  0  0
  192.0340  174.1490  140.7630 C   0  0  0  0  0  2  0  0  0  0  0  0
  191.5020  172.1820  142.0340 O   0  0  0  0  0  1  0  0  0  0  0  0
  191.0320  173.0310  141.0300 C   0  0  1  0  0  3  0  0  0  0  0  0
  189.5430  174.1770  142.4880 O   0  0  0  0  0  0  0  0  0  0  0  0
  189.6900  173.5770  141.3890 C   0  0  0  0  0  0  0  0  0  0  0  0
  188.6070  173.3930  140.5250 O   0  0  0  0  0  0  0  0  0  0  0  0
  188.5690  173.9900  139.2380 C   0  0  0  0  0  1  0  0  0  0  0  0
  190.6440  176.9210  144.5520 C   0  0  0  0  0  3  0  0  0  0  0  0
  191.6280  176.0930  144.9000 C   0  0  0  0  0  3  0  0  0  0  0  0
  187.6110  176.8090  146.8480 C   0  0  0  0  0  2  0  0  0  0  0  0
  186.8160  177.1050  144.4700 C   0  0  2  0  0  3  0  0  0  0  0  0
  189.2390  176.6460  144.9710 C   0  0  2  0  0  3  0  0  0  0  0  0
  186.5850  177.4970  145.9450 C   0  0  1  0  0  3  0  0  0  0  0  0
  188.2620  177.3610  144.0410 C   0  0  0  0  0  2  0  0  0  0  0  0
  189.0320  177.1300  146.3980 C   0  0  0  0  0  2  0  0  0  0  0  0
  185.8500  177.8060  143.5120 C   0  0  0  0  0  2  0  0  0  0  0  0
  185.9430  179.3230  143.5980 C   0  0  0  0  0  1  0  0  0  0  0  0
  184.4130  178.2920  146.8750 C   0  0  0  0  0  1  0  0  0  0  0  0
  185.1980  177.0800  146.4150 C   0  0  0  0  0  2  0  0  0  0  0  0
  1 18  1  1  0  0  0
  1  2  1  0  0  0  0
  2  5  1  0  0  0  0
  2  3  1  0  0  0  0
  4  2  2  0  0  0  0
  6  1  1  1  0  0  0
  7  6  1  0  0  0  0
  8  9  1  6  0  0  0
  8  7  1  0  0  0  0
  8  6  1  0  0  0  0
 10 12  1  0  0  0  0
 10  9  1  0  0  0  0
 12 14  1  0  0  0  0
 12 11  1  1  0  0  0
 14 13  2  0  0  0  0
 15 14  1  0  0  0  0
 16 15  1  0  0  0  0
 17 18  2  0  0  0  0
 20 25  1  6  0  0  0
 20 22  1  0  0  0  0
 21 17  1  6  0  0  0
 21 24  1  0  0  0  0
 22 28  1  1  0  0  0
 22 19  1  0  0  0  0
 23 20  1  0  0  0  0
 23 21  1  0  0  0  0
 24 19  1  0  0  0  0
 25 26  1  0  0  0  0
 28 27  1  0  0  0  0
M  END
>  <MODEL>
8

>  <REMARK>
 VINA RESULT:      -5.6      3.673      6.691
  Name = 
  11 active torsions:
  status: ('A' for Active; 'I' for Inactive)
    1  A    between atoms: P_2  and  C_12
    2  A    between atoms: C_3  and  C_12
    3  A    between atoms: C_5  and  C_6
    4  A    between atoms: O_8  and  C_22
    5  A    between atoms: C_9  and  C_13
    6  A    between atoms: C_11  and  C_26
    7  A    between atoms: C_12  and  C_16
    8  A    between atoms: O_14  and  C_21
    9  A    between atoms: O_14  and  C_23
   10  A    between atoms: C_22  and  C_28
   11  A    between atoms: C_23  and  C_28
                            x       y       z     vdW  Elec       q    Type
                         _______ _______ _______ _____ _____    ______ ____

>  <TORSDO>
F 11

$$$$
=
 OpenBabel11062419543D

 28 29  0  0  1  0  0  0  0  0999 V2000
  190.3800  173.8320  142.7600 C   0  0  1  0  0  3  0  0  0  0  0  0
  189.6260  173.0270  141.3100 P   0  0  0  0  0  0  0  0  0  0  0  0
  190.4580  171.5980  140.9530 O   0  0  0  0  0  1  0  0  0  0  0  0
  189.6930  173.9560  140.1180 O   0  0  0  0  0  0  0  0  0  0  0  0
  188.0070  172.6650  141.6410 O   0  0  0  0  0  1  0  0  0  0  0  0
  191.3410  174.9160  142.3030 C   0  0  2  0  0  3  0  0  0  0  0  0
  192.6110  174.2940  141.7590 C   0  0  0  0  0  2  0  0  0  0  0  0
  192.5910  174.8660  143.1610 C   0  0  1  0  0  3  0  0  0  0  0  0
  193.1870  176.1270  143.1640 O   0  0  0  0  0  0  0  0  0  0  0  0
  194.4970  175.8970  143.5930 C   0  0  0  0  0  2  0  0  0  0  0  0
  195.7670  174.9970  145.4220 O   0  0  0  0  0  1  0  0  0  0  0  0
  194.5340  175.5540  145.0780 C   0  0  1  0  0  3  0  0  0  0  0  0
  194.9150  177.8060  145.7420 O   0  0  0  0  0  0  0  0  0  0  0  0
  194.2460  176.7520  145.9210 C   0  0  0  0  0  0  0  0  0  0  0  0
  193.2670  176.6880  146.9150 O   0  0  0  0  0  0  0  0  0  0  0  0
  192.2180  175.7330  146.8700 C   0  0  0  0  0  1  0  0  0  0  0  0
  188.8430  175.6640  143.3490 C   0  0  0  0  0  3  0  0  0  0  0  0
  189.3180  174.4480  143.6140 C   0  0  0  0  0  3  0  0  0  0  0  0
  187.3370  177.5300  146.3040 C   0  0  0  0  0  2  0  0  0  0  0  0
  185.8840  177.9190  144.2760 C   0  0  2  0  0  3  0  0  0  0  0  0
  187.7800  176.2640  144.2060 C   0  0  2  0  0  3  0  0  0  0  0  0
  186.4850  178.5520  145.5500 C   0  0  1  0  0  3  0  0  0  0  0  0
  186.9670  177.2790  143.4040 C   0  0  0  0  0  2  0  0  0  0  0  0
  188.4210  176.9550  145.4000 C   0  0  0  0  0  2  0  0  0  0  0  0
  185.0630  178.9120  143.4500 C   0  0  0  0  0  2  0  0  0  0  0  0
  184.3890  178.2570  142.2530 C   0  0  0  0  0  1  0  0  0  0  0  0
  184.4300  177.9010  146.8040 C   0  0  0  0  0  1  0  0  0  0  0  0
  185.3900  179.0320  146.4930 C   0  0  0  0  0  2  0  0  0  0  0  0
  1 18  1  1  0  0  0
  2  5  1  0  0  0  0
  2  1  1  0  0  0  0
  3  2  1  0  0  0  0
  4  2  2  0  0  0  0
  6  1  1  1  0  0  0
  6  8  1  0  0  0  0
  7  6  1  0  0  0  0
  7  8  1  0  0  0  0
  8  9  1  6  0  0  0
  9 10  1  0  0  0  0
 10 12  1  0  0  0  0
 12 11  1  1  0  0  0
 12 14  1  0  0  0  0
 13 14  2  0  0  0  0
 14 15  1  0  0  0  0
 16 15  1  0  0  0  0
 17 18  2  0  0  0  0
 20 25  1  6  0  0  0
 20 22  1  0  0  0  0
 21 17  1  6  0  0  0
 21 24  1  0  0  0  0
 22 19  1  0  0  0  0
 22 28  1  1  0  0  0
 23 21  1  0  0  0  0
 23 20  1  0  0  0  0
 24 19  1  0  0  0  0
 26 25  1  0  0  0  0
 28 27  1  0  0  0  0
M  END
>  <MODEL>
9

>  <REMARK>
 VINA RESULT:      -5.6      3.772      7.627
  Name = 
  11 active torsions:
  status: ('A' for Active; 'I' for Inactive)
    1  A    between atoms: P_2  and  C_12
    2  A    between atoms: C_3  and  C_12
    3  A    between atoms: C_5  and  C_6
    4  A    between atoms: O_8  and  C_22
    5  A    between atoms: C_9  and  C_13
    6  A    between atoms: C_11  and  C_26
    7  A    between atoms: C_12  and  C_16
    8  A    between atoms: O_14  and  C_21
    9  A    between atoms: O_14  and  C_23
   10  A    between atoms: C_22  and  C_28
   11  A    between atoms: C_23  and  C_28
                            x       y       z     vdW  Elec       q    Type
                         _______ _______ _______ _____ _____    ______ ____

>  <TORSDO>
F 11

$$$$
