=
 OpenBabel11072409333D

 58 61  0  0  1  0  0  0  0  0999 V2000
  188.7630  172.7190  141.8700 N   0  0  0  0  0  2  0  0  0  0  0  0
  189.7510  172.8450  142.9330 C   0  0  1  0  0  3  0  0  0  0  0  0
  190.5670  171.5700  143.0340 C   0  0  0  0  0  2  0  0  0  0  0  0
  191.1390  172.7930  142.3310 C   0  0  2  0  0  3  0  0  0  0  0  0
  192.0490  173.5830  143.2540 C   0  0  0  0  0  2  0  0  0  0  0  0
  191.7460  175.0830  143.2040 C   0  0  0  0  0  2  0  0  0  0  0  0
  191.9710  175.7630  144.5690 C   0  0  1  0  0  3  0  0  0  0  0  0
  194.0620  175.2280  145.8590 C   0  0  0  0  0  1  0  0  0  0  0  0
  193.4240  176.1670  144.8520 C   0  0  1  0  0  3  0  0  0  0  0  0
  194.1580  176.1140  143.6690 O   0  0  0  0  0  1  0  0  0  0  0  0
  191.0170  176.7460  144.9070 O   0  0  0  0  0  0  0  0  0  0  0  0
  189.9140  176.1470  145.5410 C   0  0  1  0  0  3  0  0  0  0  0  0
  190.1830  176.0220  147.0070 C   0  0  0  0  0  0  0  0  0  0  0  0
  189.8680  174.8520  147.6810 O   0  0  0  0  0  1  0  0  0  0  0  0
  190.7190  176.9740  147.6280 O   0  0  0  0  0  0  0  0  0  0  0  0
  188.6350  176.9330  145.2440 C   0  0  1  0  0  3  0  0  0  0  0  0
  187.5740  176.8750  141.0640 C   0  0  0  0  0  3  0  0  0  0  0  0
  187.6680  175.7850  143.2330 C   0  0  0  0  0  3  0  0  0  0  0  0
  187.3080  175.7640  141.8770 C   0  0  0  0  0  3  0  0  0  0  0  0
  188.1930  178.0070  141.6070 C   0  0  0  0  0  3  0  0  0  0  0  0
  188.5470  178.0310  142.9630 C   0  0  0  0  0  3  0  0  0  0  0  0
  188.2910  176.9160  143.7790 C   0  0  0  0  0  0  0  0  0  0  0  0
  187.5680  176.4890  146.0330 O   0  0  0  0  0  0  0  0  0  0  0  0
  186.9390  177.6190  146.4400 N   0  0  0  0  0  2  0  0  0  0  0  0
  184.6260  178.6160  147.2300 S   0  0  0  0  0  0  0  0  0  0  0  0
  185.5750  177.9010  146.1110 C   0  0  0  0  0  0  0  0  0  0  0  0
  184.9860  178.6110  143.7290 C   0  0  0  0  0  0  0  0  0  0  0  0
  184.0540  178.2160  142.2460 S   0  0  0  0  0  1  0  0  0  0  0  0
  185.0390  177.6600  144.7980 N   0  0  0  0  0  2  0  0  0  0  0  0
  185.6210  179.7010  143.7940 O   0  0  0  0  0  0  0  0  0  0  0  0
  189.4270  173.0280  140.6060 C   0  0  0  0  0  2  0  0  0  0  0  0
  188.4520  172.9970  139.4320 C   0  0  0  0  0  2  0  0  0  0  0  0
  188.8200  174.0180  138.3740 C   0  0  0  0  0  2  0  0  0  0  0  0
  188.8350  173.3930  137.0530 N   0  0  0  0  0  2  0  0  0  0  0  0
  190.1700  173.0470  136.7670 N   0  0  0  0  0  0  0  0  0  0  0  0
  192.4230  170.5080  135.5940 C   0  0  0  0  0  0  0  0  0  0  0  0
  191.0220  171.0960  137.9180 N   0  0  0  0  0  2  0  0  0  0  0  0
  191.4030  169.6940  137.7390 C   0  0  1  0  0  0  0  0  0  0  0  0
  190.5360  171.6310  136.6440 C   0  0  2  0  0  3  0  0  0  0  0  0
  190.3260  168.9570  137.2730 F   0  0  0  0  0  0  0  0  0  0  0  0
  192.5710  169.5820  136.7660 C   0  0  0  0  0  2  0  0  0  0  0  0
  191.8310  169.1220  139.0770 C   0  0  0  0  0  1  0  0  0  0  0  0
  191.5330  171.4560  135.5910 N   0  0  0  0  0  0  0  0  0  0  0  0
  193.2970  170.3570  134.5160 O   0  0  0  0  0  0  0  0  0  0  0  0
  194.6430  170.8060  134.5650 C   0  0  0  0  0  2  0  0  0  0  0  0
  195.5620  173.1470  135.8960 O   0  0  0  0  0  0  0  0  0  0  0  0
  195.5500  172.0740  136.5500 C   0  0  0  0  0  0  0  0  0  0  0  0
  195.0940  170.8600  135.9490 N   0  0  0  0  0  2  0  0  0  0  0  0
  195.9920  172.0720  137.9720 C   0  0  0  0  0  2  0  0  0  0  0  0
  194.7990  171.8630  138.8850 C   0  0  0  0  0  1  0  0  0  0  0  0
  192.2700  174.1100  137.5350 C   0  0  0  0  0  3  0  0  0  0  0  0
  191.1700  174.0830  136.6630 C   0  0  0  0  0  0  0  0  0  0  0  0
  193.1270  176.0930  136.4380 C   0  0  0  0  0  3  0  0  0  0  0  0
  192.0350  176.0800  135.5600 C   0  0  0  0  0  0  0  0  0  0  0  0
  193.2430  175.1060  137.4240 C   0  0  0  0  0  3  0  0  0  0  0  0
  191.0640  175.0850  135.6790 C   0  0  0  0  0  3  0  0  0  0  0  0
  191.9030  177.0490  134.5650 O   0  0  0  0  0  0  0  0  0  0  0  0
  192.7340  178.1000  134.5130 O   0  0  0  0  0  1  0  0  0  0  0  0
  2  1  1  6  0  0  0
  2  3  1  0  0  0  0
  4  2  1  0  0  0  0
  4  3  1  0  0  0  0
  4  5  1  1  0  0  0
  6  5  1  0  0  0  0
  7  6  1  6  0  0  0
  7  9  1  0  0  0  0
  7 11  1  0  0  0  0
  9  8  1  1  0  0  0
 10  9  1  0  0  0  0
 12 11  1  6  0  0  0
 12 13  1  0  0  0  0
 13 15  2  0  0  0  0
 13 14  1  0  0  0  0
 16 12  1  0  0  0  0
 16 23  1  1  0  0  0
 17 20  2  0  0  0  0
 17 19  1  0  0  0  0
 18 22  1  0  0  0  0
 19 18  2  0  0  0  0
 20 21  1  0  0  0  0
 21 22  2  0  0  0  0
 22 16  1  0  0  0  0
 23 24  1  0  0  0  0
 26 24  1  0  0  0  0
 26 25  2  0  0  0  0
 27 30  2  0  0  0  0
 27 29  1  0  0  0  0
 28 27  1  0  0  0  0
 29 26  1  0  0  0  0
 31  1  1  0  0  0  0
 32 31  1  0  0  0  0
 33 32  1  0  0  0  0
 34 33  1  0  0  0  0
 35 34  1  0  0  0  0
 36 41  1  0  0  0  0
 38 37  1  0  0  0  0
 38 42  1  1  0  0  0
 39 35  1  1  0  0  0
 39 37  1  0  0  0  0
 40 38  1  0  0  0  0
 41 38  1  0  0  0  0
 43 36  2  0  0  0  0
 43 39  1  0  0  0  0
 44 45  1  0  0  0  0
 44 36  1  0  0  0  0
 45 48  1  0  0  0  0
 46 47  2  0  0  0  0
 47 49  1  0  0  0  0
 48 47  1  0  0  0  0
 49 50  1  0  0  0  0
 52 35  1  0  0  0  0
 52 51  2  0  0  0  0
 53 55  2  0  0  0  0
 54 56  2  0  0  0  0
 54 53  1  0  0  0  0
 55 51  1  0  0  0  0
 56 52  1  0  0  0  0
 57 54  1  0  0  0  0
 58 57  1  0  0  0  0
M  END
>  <MODEL>
1

>  <REMARK>
 VINA RESULT:      -5.3      0.000      0.000
  Name = 
  26 active torsions:
  status: ('A' for Active; 'I' for Inactive)
    1  A    between atoms: C_2  and  C_15
    2  A    between atoms: C_2  and  C_55
    3  A    between atoms: N_3  and  O_48
    4  A    between atoms: N_3  and  C_56
    5  A    between atoms: C_4  and  O_50
    6  A    between atoms: C_5  and  C_53
    7  A    between atoms: C_7  and  O_8
    8  A    between atoms: C_7  and  C_21
    9  A    between atoms: C_7  and  C_44
   10  A    between atoms: O_8  and  C_55
   11  A    between atoms: C_11  and  N_45
   12  A    between atoms: C_11  and  O_50
   13  A    between atoms: C_14  and  N_28
   14  A    between atoms: C_15  and  C_38
   15  A    between atoms: C_16  and  C_55
   16  A    between atoms: N_17  and  C_20
   17  A    between atoms: N_17  and  C_46
   18  A    between atoms: C_22  and  N_28
   19  A    between atoms: O_24  and  C_35
   20  A    between atoms: N_26  and  N_28
   21  A    between atoms: N_26  and  C_29
   22  A    between atoms: C_29  and  C_47
   23  A    between atoms: N_34  and  C_56
   24  A    between atoms: C_44  and  O_48
   25  A    between atoms: C_44  and  C_52
   26  A    between atoms: C_46  and  C_47
                            x       y       z     vdW  Elec       q    Type
                         _______ _______ _______ _____ _____    ______ ____

>  <TORSDO>
F 26

$$$$
=
 OpenBabel11072409333D

 58 61  0  0  1  0  0  0  0  0999 V2000
  195.4300  175.5970  145.9340 N   0  0  0  0  0  2  0  0  0  0  0  0
  193.9910  175.7060  145.7330 C   0  0  1  0  0  3  0  0  0  0  0  0
  193.6450  177.0850  145.2040 C   0  0  0  0  0  2  0  0  0  0  0  0
  193.7070  175.8940  144.2570 C   0  0  2  0  0  3  0  0  0  0  0  0
  192.3250  175.3250  143.9980 C   0  0  0  0  0  2  0  0  0  0  0  0
  191.7940  175.7250  142.6190 C   0  0  0  0  0  2  0  0  0  0  0  0
  190.4290  175.0770  142.3160 C   0  0  1  0  0  3  0  0  0  0  0  0
  191.7950  173.5840  140.8240 C   0  0  0  0  0  1  0  0  0  0  0  0
  190.5070  173.7140  141.6160 C   0  0  1  0  0  3  0  0  0  0  0  0
  190.4690  172.7010  142.5720 O   0  0  0  0  0  1  0  0  0  0  0  0
  189.4970  175.1360  143.3730 O   0  0  0  0  0  0  0  0  0  0  0  0
  188.8840  176.4020  143.4040 C   0  0  1  0  0  3  0  0  0  0  0  0
  187.9090  176.5160  142.2760 C   0  0  0  0  0  0  0  0  0  0  0  0
  188.0490  177.5170  141.3260 O   0  0  0  0  0  0  0  0  0  0  0  0
  186.9690  175.6870  142.1750 O   0  0  0  0  0  1  0  0  0  0  0  0
  188.2350  176.6490  144.7680 C   0  0  1  0  0  3  0  0  0  0  0  0
  190.9370  175.6500  147.9780 C   0  0  0  0  0  3  0  0  0  0  0  0
  189.0890  175.0620  146.5150 C   0  0  0  0  0  3  0  0  0  0  0  0
  189.9740  174.7250  147.5500 C   0  0  0  0  0  3  0  0  0  0  0  0
  191.0190  176.9070  147.3680 C   0  0  0  0  0  3  0  0  0  0  0  0
  190.1410  177.2420  146.3280 C   0  0  0  0  0  3  0  0  0  0  0  0
  189.1680  176.3210  145.9030 C   0  0  0  0  0  0  0  0  0  0  0  0
  187.7340  177.9510  144.8670 O   0  0  0  0  0  0  0  0  0  0  0  0
  186.7380  177.8760  145.7820 N   0  0  0  0  0  2  0  0  0  0  0  0
  184.2340  178.2270  146.5430 S   0  0  0  0  0  0  0  0  0  0  0  0
  185.3550  177.8620  145.4140 C   0  0  0  0  0  0  0  0  0  0  0  0
  185.0270  178.5610  142.9790 C   0  0  0  0  0  0  0  0  0  0  0  0
  184.2100  178.1950  141.4220 S   0  0  0  0  0  1  0  0  0  0  0  0
  184.9250  177.6300  144.0600 N   0  0  0  0  0  2  0  0  0  0  0  0
  185.7200  179.6120  143.0860 O   0  0  0  0  0  0  0  0  0  0  0  0
  195.8440  174.2700  145.4850 C   0  0  0  0  0  2  0  0  0  0  0  0
  197.3160  174.2420  145.0860 C   0  0  0  0  0  2  0  0  0  0  0  0
  197.5090  173.6370  143.7090 C   0  0  0  0  0  2  0  0  0  0  0  0
  196.2470  173.6440  142.9740 N   0  0  0  0  0  2  0  0  0  0  0  0
  196.0210  172.3310  142.5160 N   0  0  0  0  0  0  0  0  0  0  0  0
  194.7840  171.0890  139.3810 C   0  0  0  0  0  0  0  0  0  0  0  0
  196.2960  173.2340  140.2870 N   0  0  0  0  0  2  0  0  0  0  0  0
  196.4830  172.8700  138.8810 C   0  0  1  0  0  0  0  0  0  0  0  0
  196.2380  172.0160  141.0980 C   0  0  2  0  0  3  0  0  0  0  0  0
  197.6360  172.1190  138.7270 F   0  0  0  0  0  0  0  0  0  0  0  0
  195.2780  172.0850  138.3730 C   0  0  0  0  0  2  0  0  0  0  0  0
  196.6200  174.1340  138.0560 C   0  0  0  0  0  1  0  0  0  0  0  0
  195.1950  171.1170  140.6140 N   0  0  0  0  0  0  0  0  0  0  0  0
  193.8350  170.1500  138.9730 O   0  0  0  0  0  0  0  0  0  0  0  0
  192.4460  170.3280  139.2070 C   0  0  0  0  0  2  0  0  0  0  0  0
  189.7200  170.1730  138.4060 O   0  0  0  0  0  0  0  0  0  0  0  0
  190.4740  170.9370  137.7530 C   0  0  0  0  0  0  0  0  0  0  0  0
  191.8530  171.0720  138.1030 N   0  0  0  0  0  2  0  0  0  0  0  0
  189.9200  171.7280  136.6190 C   0  0  0  0  0  2  0  0  0  0  0  0
  189.0430  172.8470  137.1490 C   0  0  0  0  0  1  0  0  0  0  0  0
  194.2050  171.4070  143.9210 C   0  0  0  0  0  3  0  0  0  0  0  0
  195.5170  171.3320  143.4280 C   0  0  0  0  0  0  0  0  0  0  0  0
  194.5370  169.3690  145.1900 C   0  0  0  0  0  3  0  0  0  0  0  0
  195.8490  169.2820  144.7070 C   0  0  0  0  0  0  0  0  0  0  0  0
  193.7160  170.4310  144.7950 C   0  0  0  0  0  3  0  0  0  0  0  0
  196.3340  170.2610  143.8380 C   0  0  0  0  0  3  0  0  0  0  0  0
  196.6830  168.2280  145.0810 O   0  0  0  0  0  0  0  0  0  0  0  0
  197.2610  168.2030  146.2910 O   0  0  0  0  0  1  0  0  0  0  0  0
  2  1  1  6  0  0  0
  3  2  1  0  0  0  0
  4  5  1  1  0  0  0
  4  3  1  0  0  0  0
  4  2  1  0  0  0  0
  6  5  1  0  0  0  0
  7  6  1  1  0  0  0
  7 11  1  0  0  0  0
  9  8  1  1  0  0  0
  9  7  1  0  0  0  0
  9 10  1  0  0  0  0
 11 12  1  0  0  0  0
 12 13  1  6  0  0  0
 12 16  1  0  0  0  0
 14 13  2  0  0  0  0
 15 13  1  0  0  0  0
 16 23  1  6  0  0  0
 16 22  1  0  0  0  0
 18 19  2  0  0  0  0
 19 17  1  0  0  0  0
 20 17  2  0  0  0  0
 21 20  1  0  0  0  0
 22 21  2  0  0  0  0
 22 18  1  0  0  0  0
 23 24  1  0  0  0  0
 26 24  1  0  0  0  0
 26 25  2  0  0  0  0
 27 30  2  0  0  0  0
 27 29  1  0  0  0  0
 28 27  1  0  0  0  0
 29 26  1  0  0  0  0
 31  1  1  0  0  0  0
 32 31  1  0  0  0  0
 33 32  1  0  0  0  0
 34 33  1  0  0  0  0
 35 34  1  0  0  0  0
 35 52  1  0  0  0  0
 36 43  2  0  0  0  0
 37 39  1  0  0  0  0
 38 42  1  6  0  0  0
 38 37  1  0  0  0  0
 39 35  1  1  0  0  0
 40 38  1  0  0  0  0
 41 38  1  0  0  0  0
 41 36  1  0  0  0  0
 43 39  1  0  0  0  0
 44 45  1  0  0  0  0
 44 36  1  0  0  0  0
 47 48  1  0  0  0  0
 47 46  2  0  0  0  0
 48 45  1  0  0  0  0
 49 50  1  0  0  0  0
 49 47  1  0  0  0  0
 51 55  1  0  0  0  0
 52 56  1  0  0  0  0
 52 51  2  0  0  0  0
 54 57  1  0  0  0  0
 54 53  1  0  0  0  0
 55 53  2  0  0  0  0
 56 54  2  0  0  0  0
 57 58  1  0  0  0  0
M  END
>  <MODEL>
2

>  <REMARK>
 VINA RESULT:      -5.3      3.635      6.715
  Name = 
  26 active torsions:
  status: ('A' for Active; 'I' for Inactive)
    1  A    between atoms: C_2  and  C_15
    2  A    between atoms: C_2  and  C_55
    3  A    between atoms: N_3  and  O_48
    4  A    between atoms: N_3  and  C_56
    5  A    between atoms: C_4  and  O_50
    6  A    between atoms: C_5  and  C_53
    7  A    between atoms: C_7  and  O_8
    8  A    between atoms: C_7  and  C_21
    9  A    between atoms: C_7  and  C_44
   10  A    between atoms: O_8  and  C_55
   11  A    between atoms: C_11  and  N_45
   12  A    between atoms: C_11  and  O_50
   13  A    between atoms: C_14  and  N_28
   14  A    between atoms: C_15  and  C_38
   15  A    between atoms: C_16  and  C_55
   16  A    between atoms: N_17  and  C_20
   17  A    between atoms: N_17  and  C_46
   18  A    between atoms: C_22  and  N_28
   19  A    between atoms: O_24  and  C_35
   20  A    between atoms: N_26  and  N_28
   21  A    between atoms: N_26  and  C_29
   22  A    between atoms: C_29  and  C_47
   23  A    between atoms: N_34  and  C_56
   24  A    between atoms: C_44  and  O_48
   25  A    between atoms: C_44  and  C_52
   26  A    between atoms: C_46  and  C_47
                            x       y       z     vdW  Elec       q    Type
                         _______ _______ _______ _____ _____    ______ ____

>  <TORSDO>
F 26

$$$$
=
 OpenBabel11072409333D

 58 61  0  0  1  0  0  0  0  0999 V2000
  195.0160  175.9830  145.0590 N   0  0  0  0  0  2  0  0  0  0  0  0
  193.5720  175.8020  145.0090 C   0  0  1  0  0  3  0  0  0  0  0  0
  192.8950  177.1240  144.7020 C   0  0  0  0  0  2  0  0  0  0  0  0
  193.0830  176.0880  143.6040 C   0  0  2  0  0  3  0  0  0  0  0  0
  191.8230  175.2660  143.4000 C   0  0  0  0  0  2  0  0  0  0  0  0
  191.8230  174.5520  142.0460 C   0  0  0  0  0  2  0  0  0  0  0  0
  190.6690  173.5370  141.9290 C   0  0  1  0  0  3  0  0  0  0  0  0
  190.2420  171.9210  143.8070 C   0  0  0  0  0  1  0  0  0  0  0  0
  190.9780  172.1470  142.4990 C   0  0  1  0  0  3  0  0  0  0  0  0
  190.5730  171.1730  141.5880 O   0  0  0  0  0  1  0  0  0  0  0  0
  189.3980  174.0410  142.2800 O   0  0  0  0  0  0  0  0  0  0  0  0
  188.9050  174.8620  141.2500 C   0  0  1  0  0  3  0  0  0  0  0  0
  188.4040  174.0130  140.1260 C   0  0  0  0  0  0  0  0  0  0  0  0
  187.8880  172.7500  140.3770 O   0  0  0  0  0  1  0  0  0  0  0  0
  188.4300  174.4530  138.9490 O   0  0  0  0  0  0  0  0  0  0  0  0
  187.8340  175.8130  141.7910 C   0  0  1  0  0  3  0  0  0  0  0  0
  188.8810  177.5040  145.6180 C   0  0  0  0  0  3  0  0  0  0  0  0
  189.1020  177.4590  143.1990 C   0  0  0  0  0  3  0  0  0  0  0  0
  189.4370  178.0220  144.4390 C   0  0  0  0  0  3  0  0  0  0  0  0
  187.9880  176.4280  145.5560 C   0  0  0  0  0  3  0  0  0  0  0  0
  187.6480  175.8690  144.3170 C   0  0  0  0  0  3  0  0  0  0  0  0
  188.2100  176.3790  143.1340 C   0  0  0  0  0  0  0  0  0  0  0  0
  187.5340  176.8210  140.8680 O   0  0  0  0  0  0  0  0  0  0  0  0
  186.9640  177.8080  141.6000 N   0  0  0  0  0  2  0  0  0  0  0  0
  184.6570  178.0590  140.3420 S   0  0  0  0  0  0  0  0  0  0  0  0
  185.5450  177.9660  141.7070 C   0  0  0  0  0  0  0  0  0  0  0  0
  185.0730  178.8790  144.0460 C   0  0  0  0  0  0  0  0  0  0  0  0
  184.3260  178.5560  145.6470 S   0  0  0  0  0  1  0  0  0  0  0  0
  184.8670  177.9510  142.9770 N   0  0  0  0  0  2  0  0  0  0  0  0
  185.7300  179.9430  143.8690 O   0  0  0  0  0  0  0  0  0  0  0  0
  195.6260  174.9360  144.2430 C   0  0  0  0  0  2  0  0  0  0  0  0
  196.9150  175.4140  143.5810 C   0  0  0  0  0  2  0  0  0  0  0  0
  197.0920  174.8060  142.2030 C   0  0  0  0  0  2  0  0  0  0  0  0
  195.7890  174.5830  141.5800 N   0  0  0  0  0  2  0  0  0  0  0  0
  195.8440  173.3370  140.9260 N   0  0  0  0  0  0  0  0  0  0  0  0
  194.0640  173.4870  137.8100 C   0  0  0  0  0  0  0  0  0  0  0  0
  196.4020  174.5240  138.8910 N   0  0  0  0  0  2  0  0  0  0  0  0
  196.3530  174.4470  137.4300 C   0  0  1  0  0  0  0  0  0  0  0  0
  195.8440  173.2940  139.4580 C   0  0  2  0  0  3  0  0  0  0  0  0
  197.0490  173.3370  136.9810 F   0  0  0  0  0  0  0  0  0  0  0  0
  194.9070  174.3840  136.9510 C   0  0  0  0  0  2  0  0  0  0  0  0
  197.0020  175.6870  136.8470 C   0  0  0  0  0  1  0  0  0  0  0  0
  194.4930  173.0560  138.9600 N   0  0  0  0  0  0  0  0  0  0  0  0
  192.7820  173.1580  137.3660 O   0  0  0  0  0  0  0  0  0  0  0  0
  191.6450  173.2310  138.2130 C   0  0  0  0  0  2  0  0  0  0  0  0
  189.6080  172.2060  136.5100 O   0  0  0  0  0  0  0  0  0  0  0  0
  190.0110  171.4680  137.4440 C   0  0  0  0  0  0  0  0  0  0  0  0
  191.0370  171.9130  138.3330 N   0  0  0  0  0  2  0  0  0  0  0  0
  189.4300  170.1060  137.6110 C   0  0  0  0  0  2  0  0  0  0  0  0
  190.5140  169.0580  137.4450 C   0  0  0  0  0  1  0  0  0  0  0  0
  196.9170  171.2290  141.6550 C   0  0  0  0  0  3  0  0  0  0  0  0
  195.8340  172.1210  141.7040 C   0  0  0  0  0  0  0  0  0  0  0  0
  195.8170  169.7630  143.2390 C   0  0  0  0  0  3  0  0  0  0  0  0
  194.7290  170.6430  143.2990 C   0  0  0  0  0  0  0  0  0  0  0  0
  196.9110  170.0580  142.4180 C   0  0  0  0  0  3  0  0  0  0  0  0
  194.7390  171.8090  142.5300 C   0  0  0  0  0  3  0  0  0  0  0  0
  193.6310  170.3730  144.1160 O   0  0  0  0  0  0  0  0  0  0  0  0
  193.3720  169.1240  144.5300 O   0  0  0  0  0  1  0  0  0  0  0  0
  2  1  1  6  0  0  0
  3  2  1  0  0  0  0
  4  5  1  1  0  0  0
  4  3  1  0  0  0  0
  4  2  1  0  0  0  0
  6  5  1  0  0  0  0
  7  6  1  1  0  0  0
  7 11  1  0  0  0  0
  7  9  1  0  0  0  0
  9  8  1  1  0  0  0
 10  9  1  0  0  0  0
 12 13  1  6  0  0  0
 12 16  1  0  0  0  0
 12 11  1  0  0  0  0
 13 14  1  0  0  0  0
 15 13  2  0  0  0  0
 16 23  1  6  0  0  0
 16 22  1  0  0  0  0
 18 19  1  0  0  0  0
 19 17  2  0  0  0  0
 20 17  1  0  0  0  0
 21 20  2  0  0  0  0
 22 18  2  0  0  0  0
 22 21  1  0  0  0  0
 23 24  1  0  0  0  0
 24 26  1  0  0  0  0
 25 26  2  0  0  0  0
 26 29  1  0  0  0  0
 27 28  1  0  0  0  0
 29 27  1  0  0  0  0
 30 27  2  0  0  0  0
 31  1  1  0  0  0  0
 32 31  1  0  0  0  0
 33 32  1  0  0  0  0
 34 33  1  0  0  0  0
 35 34  1  0  0  0  0
 35 52  1  0  0  0  0
 36 43  2  0  0  0  0
 37 39  1  0  0  0  0
 38 42  1  6  0  0  0
 38 37  1  0  0  0  0
 39 35  1  1  0  0  0
 40 38  1  0  0  0  0
 41 38  1  0  0  0  0
 41 36  1  0  0  0  0
 43 39  1  0  0  0  0
 44 36  1  0  0  0  0
 44 45  1  0  0  0  0
 45 48  1  0  0  0  0
 46 47  2  0  0  0  0
 47 49  1  0  0  0  0
 47 48  1  0  0  0  0
 50 49  1  0  0  0  0
 51 52  2  0  0  0  0
 51 55  1  0  0  0  0
 52 56  1  0  0  0  0
 53 54  1  0  0  0  0
 54 57  1  0  0  0  0
 55 53  2  0  0  0  0
 56 54  2  0  0  0  0
 57 58  1  0  0  0  0
M  END
>  <MODEL>
3

>  <REMARK>
 VINA RESULT:      -5.0      3.570      6.380
  Name = 
  26 active torsions:
  status: ('A' for Active; 'I' for Inactive)
    1  A    between atoms: C_2  and  C_15
    2  A    between atoms: C_2  and  C_55
    3  A    between atoms: N_3  and  O_48
    4  A    between atoms: N_3  and  C_56
    5  A    between atoms: C_4  and  O_50
    6  A    between atoms: C_5  and  C_53
    7  A    between atoms: C_7  and  O_8
    8  A    between atoms: C_7  and  C_21
    9  A    between atoms: C_7  and  C_44
   10  A    between atoms: O_8  and  C_55
   11  A    between atoms: C_11  and  N_45
   12  A    between atoms: C_11  and  O_50
   13  A    between atoms: C_14  and  N_28
   14  A    between atoms: C_15  and  C_38
   15  A    between atoms: C_16  and  C_55
   16  A    between atoms: N_17  and  C_20
   17  A    between atoms: N_17  and  C_46
   18  A    between atoms: C_22  and  N_28
   19  A    between atoms: O_24  and  C_35
   20  A    between atoms: N_26  and  N_28
   21  A    between atoms: N_26  and  C_29
   22  A    between atoms: C_29  and  C_47
   23  A    between atoms: N_34  and  C_56
   24  A    between atoms: C_44  and  O_48
   25  A    between atoms: C_44  and  C_52
   26  A    between atoms: C_46  and  C_47
                            x       y       z     vdW  Elec       q    Type
                         _______ _______ _______ _____ _____    ______ ____

>  <TORSDO>
F 26

$$$$
=
 OpenBabel11072409333D

 58 61  0  0  1  0  0  0  0  0999 V2000
  195.5610  175.1970  145.8350 N   0  0  0  0  0  2  0  0  0  0  0  0
  194.1550  175.4210  145.5250 C   0  0  1  0  0  3  0  0  0  0  0  0
  194.0100  176.6410  144.6360 C   0  0  0  0  0  2  0  0  0  0  0  0
  193.9390  175.2430  144.0370 C   0  0  2  0  0  3  0  0  0  0  0  0
  192.5010  174.7970  143.8520 C   0  0  0  0  0  2  0  0  0  0  0  0
  192.1470  174.6170  142.3730 C   0  0  0  0  0  2  0  0  0  0  0  0
  190.8930  173.7420  142.1820 C   0  0  1  0  0  3  0  0  0  0  0  0
  190.7340  171.8920  140.4870 C   0  0  0  0  0  1  0  0  0  0  0  0
  191.1800  172.2640  141.8890 C   0  0  1  0  0  3  0  0  0  0  0  0
  192.5480  172.0280  141.9980 O   0  0  0  0  0  1  0  0  0  0  0  0
  189.8680  173.9600  143.1270 O   0  0  0  0  0  0  0  0  0  0  0  0
  189.1300  175.1060  142.7810 C   0  0  1  0  0  3  0  0  0  0  0  0
  188.2120  174.7890  141.6440 C   0  0  0  0  0  0  0  0  0  0  0  0
  187.7860  173.4880  141.4290 O   0  0  0  0  0  1  0  0  0  0  0  0
  187.8080  175.7110  140.8910 O   0  0  0  0  0  0  0  0  0  0  0  0
  188.3850  175.6510  144.0030 C   0  0  1  0  0  3  0  0  0  0  0  0
  190.9550  176.2110  147.4210 C   0  0  0  0  0  3  0  0  0  0  0  0
  189.9720  177.0430  145.3620 C   0  0  0  0  0  3  0  0  0  0  0  0
  190.7980  177.2370  146.4780 C   0  0  0  0  0  3  0  0  0  0  0  0
  190.2820  174.9950  147.2510 C   0  0  0  0  0  3  0  0  0  0  0  0
  189.4500  174.8030  146.1400 C   0  0  0  0  0  3  0  0  0  0  0  0
  189.2970  175.8250  145.1870 C   0  0  0  0  0  0  0  0  0  0  0  0
  187.6990  176.8320  143.6980 O   0  0  0  0  0  0  0  0  0  0  0  0
  186.5730  176.7870  144.4490 N   0  0  0  0  0  2  0  0  0  0  0  0
  185.3820  178.9530  145.3770 S   0  0  0  0  0  0  0  0  0  0  0  0
  185.5100  177.7340  144.2990 C   0  0  0  0  0  0  0  0  0  0  0  0
  184.8960  178.1750  141.8590 C   0  0  0  0  0  0  0  0  0  0  0  0
  183.5680  178.2880  140.6550 S   0  0  0  0  0  1  0  0  0  0  0  0
  184.6080  177.7010  143.1780 N   0  0  0  0  0  2  0  0  0  0  0  0
  186.0750  178.4700  141.5150 O   0  0  0  0  0  0  0  0  0  0  0  0
  195.9480  173.9170  145.2470 C   0  0  0  0  0  2  0  0  0  0  0  0
  197.4570  173.8220  145.0410 C   0  0  0  0  0  2  0  0  0  0  0  0
  197.8060  173.5730  143.5860 C   0  0  0  0  0  2  0  0  0  0  0  0
  196.6030  173.6400  142.7600 N   0  0  0  0  0  2  0  0  0  0  0  0
  196.6380  172.5430  141.8780 N   0  0  0  0  0  0  0  0  0  0  0  0
  194.8650  173.4060  138.8750 C   0  0  0  0  0  0  0  0  0  0  0  0
  197.2680  174.0620  140.1010 N   0  0  0  0  0  2  0  0  0  0  0  0
  197.2120  174.2720  138.6540 C   0  0  1  0  0  0  0  0  0  0  0  0
  196.6320  172.7840  140.4290 C   0  0  2  0  0  3  0  0  0  0  0  0
  197.8320  173.2270  137.9900 F   0  0  0  0  0  0  0  0  0  0  0  0
  195.7640  174.3950  138.1930 C   0  0  0  0  0  2  0  0  0  0  0  0
  197.9390  175.5570  138.3110 C   0  0  0  0  0  1  0  0  0  0  0  0
  195.2670  172.7340  139.9140 N   0  0  0  0  0  0  0  0  0  0  0  0
  193.5640  173.2510  138.3950 O   0  0  0  0  0  0  0  0  0  0  0  0
  193.2890  172.6910  137.1190 C   0  0  0  0  0  2  0  0  0  0  0  0
  192.4520  170.6670  135.3020 O   0  0  0  0  0  0  0  0  0  0  0  0
  191.6370  171.0240  136.1900 C   0  0  0  0  0  0  0  0  0  0  0  0
  191.9920  172.0300  137.1420 N   0  0  0  0  0  2  0  0  0  0  0  0
  190.2990  170.3760  136.2660 C   0  0  0  0  0  2  0  0  0  0  0  0
  189.2440  171.2950  135.6770 C   0  0  0  0  0  1  0  0  0  0  0  0
  197.7360  170.3650  142.2990 C   0  0  0  0  0  3  0  0  0  0  0  0
  196.6120  171.2000  142.4060 C   0  0  0  0  0  0  0  0  0  0  0  0
  196.5630  168.5910  143.4580 C   0  0  0  0  0  3  0  0  0  0  0  0
  195.4330  169.4120  143.5730 C   0  0  0  0  0  0  0  0  0  0  0  0
  197.7140  169.0700  142.8230 C   0  0  0  0  0  3  0  0  0  0  0  0
  195.4600  170.7030  143.0440 C   0  0  0  0  0  3  0  0  0  0  0  0
  194.2780  168.9580  144.2090 O   0  0  0  0  0  0  0  0  0  0  0  0
  194.2300  168.8330  145.5440 O   0  0  0  0  0  1  0  0  0  0  0  0
  2  1  1  6  0  0  0
  3  2  1  0  0  0  0
  4  5  1  1  0  0  0
  4  3  1  0  0  0  0
  4  2  1  0  0  0  0
  6  5  1  0  0  0  0
  7  6  1  1  0  0  0
  7 11  1  0  0  0  0
  9  8  1  6  0  0  0
  9 10  1  0  0  0  0
  9  7  1  0  0  0  0
 12 13  1  6  0  0  0
 12 11  1  0  0  0  0
 12 16  1  0  0  0  0
 14 13  1  0  0  0  0
 15 13  2  0  0  0  0
 16 23  1  6  0  0  0
 16 22  1  0  0  0  0
 18 19  1  0  0  0  0
 19 17  2  0  0  0  0
 20 17  1  0  0  0  0
 21 20  2  0  0  0  0
 22 18  2  0  0  0  0
 22 21  1  0  0  0  0
 23 24  1  0  0  0  0
 26 24  1  0  0  0  0
 26 25  2  0  0  0  0
 27 29  1  0  0  0  0
 28 27  1  0  0  0  0
 29 26  1  0  0  0  0
 30 27  2  0  0  0  0
 31  1  1  0  0  0  0
 32 31  1  0  0  0  0
 33 32  1  0  0  0  0
 34 33  1  0  0  0  0
 35 52  1  0  0  0  0
 35 34  1  0  0  0  0
 36 43  2  0  0  0  0
 37 39  1  0  0  0  0
 38 42  1  6  0  0  0
 38 37  1  0  0  0  0
 39 35  1  1  0  0  0
 40 38  1  0  0  0  0
 41 38  1  0  0  0  0
 41 36  1  0  0  0  0
 43 39  1  0  0  0  0
 44 36  1  0  0  0  0
 45 48  1  0  0  0  0
 45 44  1  0  0  0  0
 46 47  2  0  0  0  0
 47 49  1  0  0  0  0
 47 48  1  0  0  0  0
 50 49  1  0  0  0  0
 51 52  2  0  0  0  0
 51 55  1  0  0  0  0
 52 56  1  0  0  0  0
 53 54  1  0  0  0  0
 54 57  1  0  0  0  0
 55 53  2  0  0  0  0
 56 54  2  0  0  0  0
 57 58  1  0  0  0  0
M  END
>  <MODEL>
4

>  <REMARK>
 VINA RESULT:      -4.8      3.712      6.673
  Name = 
  26 active torsions:
  status: ('A' for Active; 'I' for Inactive)
    1  A    between atoms: C_2  and  C_15
    2  A    between atoms: C_2  and  C_55
    3  A    between atoms: N_3  and  O_48
    4  A    between atoms: N_3  and  C_56
    5  A    between atoms: C_4  and  O_50
    6  A    between atoms: C_5  and  C_53
    7  A    between atoms: C_7  and  O_8
    8  A    between atoms: C_7  and  C_21
    9  A    between atoms: C_7  and  C_44
   10  A    between atoms: O_8  and  C_55
   11  A    between atoms: C_11  and  N_45
   12  A    between atoms: C_11  and  O_50
   13  A    between atoms: C_14  and  N_28
   14  A    between atoms: C_15  and  C_38
   15  A    between atoms: C_16  and  C_55
   16  A    between atoms: N_17  and  C_20
   17  A    between atoms: N_17  and  C_46
   18  A    between atoms: C_22  and  N_28
   19  A    between atoms: O_24  and  C_35
   20  A    between atoms: N_26  and  N_28
   21  A    between atoms: N_26  and  C_29
   22  A    between atoms: C_29  and  C_47
   23  A    between atoms: N_34  and  C_56
   24  A    between atoms: C_44  and  O_48
   25  A    between atoms: C_44  and  C_52
   26  A    between atoms: C_46  and  C_47
                            x       y       z     vdW  Elec       q    Type
                         _______ _______ _______ _____ _____    ______ ____

>  <TORSDO>
F 26

$$$$
=
 OpenBabel11072409333D

 58 61  0  0  1  0  0  0  0  0999 V2000
  195.2550  176.3790  142.9790 N   0  0  0  0  0  2  0  0  0  0  0  0
  194.6150  175.2730  143.6780 C   0  0  1  0  0  3  0  0  0  0  0  0
  195.6410  174.5180  144.5010 C   0  0  0  0  0  2  0  0  0  0  0  0
  194.7030  175.5110  145.1710 C   0  0  2  0  0  3  0  0  0  0  0  0
  193.5140  174.8070  145.8000 C   0  0  0  0  0  2  0  0  0  0  0  0
  192.2200  175.6070  145.6220 C   0  0  0  0  0  2  0  0  0  0  0  0
  190.9810  174.8020  146.0580 C   0  0  1  0  0  3  0  0  0  0  0  0
  190.6240  176.7210  147.6420 C   0  0  0  0  0  1  0  0  0  0  0  0
  190.3620  175.2480  147.3890 C   0  0  1  0  0  3  0  0  0  0  0  0
  188.9850  175.0410  147.3510 O   0  0  0  0  0  1  0  0  0  0  0  0
  190.0420  174.5560  145.0330 O   0  0  0  0  0  0  0  0  0  0  0  0
  190.6300  173.7790  144.0190 C   0  0  1  0  0  3  0  0  0  0  0  0
  190.5540  172.3310  144.3870 C   0  0  0  0  0  0  0  0  0  0  0  0
  189.3800  171.7980  144.8970 O   0  0  0  0  0  1  0  0  0  0  0  0
  191.5530  171.5880  144.2140 O   0  0  0  0  0  0  0  0  0  0  0  0
  189.9730  174.0770  142.6690 C   0  0  1  0  0  3  0  0  0  0  0  0
  188.0350  177.9290  142.6860 C   0  0  0  0  0  3  0  0  0  0  0  0
  187.9090  175.5040  142.6450 C   0  0  0  0  0  3  0  0  0  0  0  0
  187.2720  176.7530  142.6650 C   0  0  0  0  0  3  0  0  0  0  0  0
  189.4330  177.8560  142.6940 C   0  0  0  0  0  3  0  0  0  0  0  0
  190.0700  176.6080  142.6820 C   0  0  0  0  0  3  0  0  0  0  0  0
  189.3090  175.4270  142.6510 C   0  0  0  0  0  0  0  0  0  0  0  0
  190.8830  173.9310  141.6160 O   0  0  0  0  0  0  0  0  0  0  0  0
  190.1460  173.4670  140.5780 N   0  0  0  0  0  2  0  0  0  0  0  0
  190.6570  170.8820  140.7420 S   0  0  0  0  0  0  0  0  0  0  0  0
  190.4710  172.2570  139.8840 C   0  0  0  0  0  0  0  0  0  0  0  0
  189.4700  172.4500  137.5420 C   0  0  0  0  0  0  0  0  0  0  0  0
  189.6810  172.0780  135.7980 S   0  0  0  0  0  1  0  0  0  0  0  0
  190.5470  172.1950  138.4480 N   0  0  0  0  0  2  0  0  0  0  0  0
  188.3920  172.9740  137.9410 O   0  0  0  0  0  0  0  0  0  0  0  0
  195.0840  176.1590  141.5450 C   0  0  0  0  0  2  0  0  0  0  0  0
  196.4240  176.1120  140.8160 C   0  0  0  0  0  2  0  0  0  0  0  0
  196.9060  174.6860  140.6270 C   0  0  0  0  0  2  0  0  0  0  0  0
  195.7670  173.7770  140.5350 N   0  0  0  0  0  2  0  0  0  0  0  0
  195.6920  173.3310  139.2010 N   0  0  0  0  0  0  0  0  0  0  0  0
  196.6880  169.9540  139.9130 C   0  0  0  0  0  0  0  0  0  0  0  0
  195.6750  171.3860  137.7600 N   0  0  0  0  0  2  0  0  0  0  0  0
  196.4010  170.1590  137.4260 C   0  0  1  0  0  0  0  0  0  0  0  0
  196.4000  172.1050  138.8110 C   0  0  2  0  0  3  0  0  0  0  0  0
  197.6910  170.4570  137.0210 F   0  0  0  0  0  0  0  0  0  0  0  0
  196.4350  169.2220  138.6280 C   0  0  0  0  0  2  0  0  0  0  0  0
  195.6900  169.4580  136.2850 C   0  0  0  0  0  1  0  0  0  0  0  0
  196.6110  171.2510  139.9760 N   0  0  0  0  0  0  0  0  0  0  0  0
  196.9660  169.2070  141.0580 O   0  0  0  0  0  0  0  0  0  0  0  0
  197.7040  169.7380  142.1480 C   0  0  0  0  0  2  0  0  0  0  0  0
  195.5930  171.3110  143.2300 O   0  0  0  0  0  0  0  0  0  0  0  0
  195.9580  170.3010  143.8820 C   0  0  0  0  0  0  0  0  0  0  0  0
  197.0060  169.4600  143.3960 N   0  0  0  0  0  2  0  0  0  0  0  0
  195.2750  169.9640  145.1620 C   0  0  0  0  0  2  0  0  0  0  0  0
  194.6230  171.2040  145.7430 C   0  0  0  0  0  1  0  0  0  0  0  0
  193.5740  174.1900  138.2490 C   0  0  0  0  0  3  0  0  0  0  0  0
  194.9760  174.1170  138.2240 C   0  0  0  0  0  0  0  0  0  0  0  0
  193.5900  175.6680  136.3290 C   0  0  0  0  0  3  0  0  0  0  0  0
  194.9890  175.6050  136.2910 C   0  0  0  0  0  0  0  0  0  0  0  0
  192.8850  174.9620  137.3100 C   0  0  0  0  0  3  0  0  0  0  0  0
  195.6720  174.8290  137.2290 C   0  0  0  0  0  3  0  0  0  0  0  0
  195.7130  176.3070  135.3270 O   0  0  0  0  0  0  0  0  0  0  0  0
  196.8670  176.9140  135.6400 O   0  0  0  0  0  1  0  0  0  0  0  0
  2  1  1  6  0  0  0
  2  3  1  0  0  0  0
  2  4  1  0  0  0  0
  3  4  1  0  0  0  0
  4  5  1  1  0  0  0
  6  5  1  0  0  0  0
  7  6  1  6  0  0  0
  7  9  1  0  0  0  0
  9  8  1  6  0  0  0
 10  9  1  0  0  0  0
 11  7  1  0  0  0  0
 12 13  1  1  0  0  0
 12 11  1  0  0  0  0
 13 14  1  0  0  0  0
 15 13  2  0  0  0  0
 16 23  1  6  0  0  0
 16 12  1  0  0  0  0
 17 20  1  0  0  0  0
 18 22  2  0  0  0  0
 18 19  1  0  0  0  0
 19 17  2  0  0  0  0
 21 20  2  0  0  0  0
 22 16  1  0  0  0  0
 22 21  1  0  0  0  0
 24 23  1  0  0  0  0
 26 24  1  0  0  0  0
 26 25  2  0  0  0  0
 27 30  2  0  0  0  0
 27 29  1  0  0  0  0
 28 27  1  0  0  0  0
 29 26  1  0  0  0  0
 31  1  1  0  0  0  0
 32 31  1  0  0  0  0
 33 32  1  0  0  0  0
 34 33  1  0  0  0  0
 35 34  1  0  0  0  0
 36 43  2  0  0  0  0
 36 44  1  0  0  0  0
 37 39  1  0  0  0  0
 38 42  1  6  0  0  0
 38 37  1  0  0  0  0
 38 41  1  0  0  0  0
 39 35  1  1  0  0  0
 39 43  1  0  0  0  0
 40 38  1  0  0  0  0
 41 36  1  0  0  0  0
 44 45  1  0  0  0  0
 45 48  1  0  0  0  0
 46 47  2  0  0  0  0
 47 49  1  0  0  0  0
 48 47  1  0  0  0  0
 49 50  1  0  0  0  0
 52 51  1  0  0  0  0
 52 35  1  0  0  0  0
 53 55  1  0  0  0  0
 54 53  2  0  0  0  0
 54 56  1  0  0  0  0
 55 51  2  0  0  0  0
 56 52  2  0  0  0  0
 57 58  1  0  0  0  0
 57 54  1  0  0  0  0
M  END
>  <MODEL>
5

>  <REMARK>
 VINA RESULT:      -4.6      3.922      6.085
  Name = 
  26 active torsions:
  status: ('A' for Active; 'I' for Inactive)
    1  A    between atoms: C_2  and  C_15
    2  A    between atoms: C_2  and  C_55
    3  A    between atoms: N_3  and  O_48
    4  A    between atoms: N_3  and  C_56
    5  A    between atoms: C_4  and  O_50
    6  A    between atoms: C_5  and  C_53
    7  A    between atoms: C_7  and  O_8
    8  A    between atoms: C_7  and  C_21
    9  A    between atoms: C_7  and  C_44
   10  A    between atoms: O_8  and  C_55
   11  A    between atoms: C_11  and  N_45
   12  A    between atoms: C_11  and  O_50
   13  A    between atoms: C_14  and  N_28
   14  A    between atoms: C_15  and  C_38
   15  A    between atoms: C_16  and  C_55
   16  A    between atoms: N_17  and  C_20
   17  A    between atoms: N_17  and  C_46
   18  A    between atoms: C_22  and  N_28
   19  A    between atoms: O_24  and  C_35
   20  A    between atoms: N_26  and  N_28
   21  A    between atoms: N_26  and  C_29
   22  A    between atoms: C_29  and  C_47
   23  A    between atoms: N_34  and  C_56
   24  A    between atoms: C_44  and  O_48
   25  A    between atoms: C_44  and  C_52
   26  A    between atoms: C_46  and  C_47
                            x       y       z     vdW  Elec       q    Type
                         _______ _______ _______ _____ _____    ______ ____

>  <TORSDO>
F 26

$$$$
=
 OpenBabel11072409333D

 58 61  0  0  1  0  0  0  0  0999 V2000
  189.8130  171.2340  141.4410 N   0  0  0  0  0  2  0  0  0  0  0  0
  189.5020  172.5860  140.9950 C   0  0  1  0  0  3  0  0  0  0  0  0
  188.0760  172.9390  141.3690 C   0  0  0  0  0  2  0  0  0  0  0  0
  189.2380  173.4600  142.2030 C   0  0  2  0  0  3  0  0  0  0  0  0
  189.6050  174.8780  141.8090 C   0  0  0  0  0  2  0  0  0  0  0  0
  190.8760  175.3550  142.5190 C   0  0  0  0  0  2  0  0  0  0  0  0
  190.6690  175.4890  144.0410 C   0  0  1  0  0  3  0  0  0  0  0  0
  192.2820  176.4550  145.7110 C   0  0  0  0  0  1  0  0  0  0  0  0
  191.9260  175.2330  144.8830 C   0  0  1  0  0  3  0  0  0  0  0  0
  191.6940  174.1640  145.7460 O   0  0  0  0  0  1  0  0  0  0  0  0
  189.9200  176.6160  144.4410 O   0  0  0  0  0  0  0  0  0  0  0  0
  188.6930  176.2060  144.9930 C   0  0  1  0  0  3  0  0  0  0  0  0
  188.7480  176.3240  146.4830 C   0  0  0  0  0  0  0  0  0  0  0  0
  189.3370  177.4290  147.0770 O   0  0  0  0  0  0  0  0  0  0  0  0
  188.2380  175.4260  147.2010 O   0  0  0  0  0  1  0  0  0  0  0  0
  187.5380  177.0040  144.3830 C   0  0  1  0  0  3  0  0  0  0  0  0
  184.7870  178.3300  147.4270 C   0  0  0  0  0  3  0  0  0  0  0  0
  185.4490  176.7110  145.7430 C   0  0  0  0  0  3  0  0  0  0  0  0
  184.5580  177.1300  146.7410 C   0  0  0  0  0  3  0  0  0  0  0  0
  185.9090  179.1090  147.1200 C   0  0  0  0  0  3  0  0  0  0  0  0
  186.8040  178.6880  146.1270 C   0  0  0  0  0  3  0  0  0  0  0  0
  186.5740  177.4890  145.4300 C   0  0  0  0  0  0  0  0  0  0  0  0
  188.0090  178.0520  143.5840 O   0  0  0  0  0  0  0  0  0  0  0  0
  186.8990  178.5950  143.0280 N   0  0  0  0  0  2  0  0  0  0  0  0
  186.9700  177.2710  140.7450 S   0  0  0  0  0  0  0  0  0  0  0  0
  186.1580  177.9400  141.9930 C   0  0  0  0  0  0  0  0  0  0  0  0
  183.7820  178.2720  141.1160 C   0  0  0  0  0  0  0  0  0  0  0  0
  182.0290  178.1860  141.4970 S   0  0  0  0  0  1  0  0  0  0  0  0
  184.7310  177.7710  142.0630 N   0  0  0  0  0  2  0  0  0  0  0  0
  184.1550  178.7300  139.9990 O   0  0  0  0  0  0  0  0  0  0  0  0
  191.0650  170.8310  140.8060 C   0  0  0  0  0  2  0  0  0  0  0  0
  192.1150  170.4240  141.8350 C   0  0  0  0  0  2  0  0  0  0  0  0
  193.4400  171.1190  141.5840 C   0  0  0  0  0  2  0  0  0  0  0  0
  193.6210  172.2160  142.5310 N   0  0  0  0  0  2  0  0  0  0  0  0
  194.9430  172.1440  143.0100 N   0  0  0  0  0  0  0  0  0  0  0  0
  196.1780  174.9260  141.1030 C   0  0  0  0  0  0  0  0  0  0  0  0
  195.3080  174.4370  143.6940 N   0  0  0  0  0  2  0  0  0  0  0  0
  196.1910  175.5920  143.5250 C   0  0  1  0  0  0  0  0  0  0  0  0
  195.8160  173.3190  142.8950 C   0  0  2  0  0  3  0  0  0  0  0  0
  197.4860  175.2690  143.8950 F   0  0  0  0  0  0  0  0  0  0  0  0
  196.1670  176.0680  142.0760 C   0  0  0  0  0  2  0  0  0  0  0  0
  195.7070  176.7210  144.4130 C   0  0  0  0  0  1  0  0  0  0  0  0
  195.9630  173.7050  141.4940 N   0  0  0  0  0  0  0  0  0  0  0  0
  196.3820  175.2090  139.7520 O   0  0  0  0  0  0  0  0  0  0  0  0
  195.3240  175.1900  138.8060 C   0  0  0  0  0  2  0  0  0  0  0  0
  193.1220  174.2820  137.2490 O   0  0  0  0  0  0  0  0  0  0  0  0
  194.0490  173.4650  137.4760 C   0  0  0  0  0  0  0  0  0  0  0  0
  195.1900  173.8540  138.2430 N   0  0  0  0  0  2  0  0  0  0  0  0
  193.9700  172.0860  136.9180 C   0  0  0  0  0  2  0  0  0  0  0  0
  195.3670  171.5380  136.6930 C   0  0  0  0  0  1  0  0  0  0  0  0
  196.5710  170.2790  142.9910 C   0  0  0  0  0  3  0  0  0  0  0  0
  195.4420  170.9000  143.5480 C   0  0  0  0  0  0  0  0  0  0  0  0
  196.4210  168.4880  144.6150 C   0  0  0  0  0  3  0  0  0  0  0  0
  195.2930  169.0950  145.1810 C   0  0  0  0  0  0  0  0  0  0  0  0
  197.0600  169.0820  143.5210 C   0  0  0  0  0  3  0  0  0  0  0  0
  194.8070  170.2890  144.6450 C   0  0  0  0  0  3  0  0  0  0  0  0
  194.6450  168.5250  146.2770 O   0  0  0  0  0  0  0  0  0  0  0  0
  194.6440  169.1350  147.4710 O   0  0  0  0  0  1  0  0  0  0  0  0
  2  3  1  0  0  0  0
  2  1  1  1  0  0  0
  2  4  1  0  0  0  0
  3  4  1  0  0  0  0
  4  5  1  6  0  0  0
  5  6  1  0  0  0  0
  7  6  1  6  0  0  0
  7 11  1  0  0  0  0
  7  9  1  0  0  0  0
  9  8  1  1  0  0  0
  9 10  1  0  0  0  0
 12 11  1  6  0  0  0
 12 13  1  0  0  0  0
 13 14  2  0  0  0  0
 13 15  1  0  0  0  0
 16 23  1  1  0  0  0
 16 12  1  0  0  0  0
 16 22  1  0  0  0  0
 18 19  1  0  0  0  0
 19 17  2  0  0  0  0
 20 17  1  0  0  0  0
 21 20  2  0  0  0  0
 22 18  2  0  0  0  0
 22 21  1  0  0  0  0
 24 23  1  0  0  0  0
 25 26  2  0  0  0  0
 26 29  1  0  0  0  0
 26 24  1  0  0  0  0
 27 28  1  0  0  0  0
 27 29  1  0  0  0  0
 30 27  2  0  0  0  0
 31  1  1  0  0  0  0
 31 32  1  0  0  0  0
 33 32  1  0  0  0  0
 33 34  1  0  0  0  0
 34 35  1  0  0  0  0
 35 52  1  0  0  0  0
 36 43  2  0  0  0  0
 36 41  1  0  0  0  0
 38 37  1  0  0  0  0
 38 40  1  0  0  0  0
 38 42  1  1  0  0  0
 39 35  1  6  0  0  0
 39 37  1  0  0  0  0
 41 38  1  0  0  0  0
 43 39  1  0  0  0  0
 44 36  1  0  0  0  0
 45 44  1  0  0  0  0
 46 47  2  0  0  0  0
 47 48  1  0  0  0  0
 48 45  1  0  0  0  0
 49 47  1  0  0  0  0
 50 49  1  0  0  0  0
 51 55  2  0  0  0  0
 51 52  1  0  0  0  0
 52 56  2  0  0  0  0
 53 54  2  0  0  0  0
 54 57  1  0  0  0  0
 55 53  1  0  0  0  0
 56 54  1  0  0  0  0
 57 58  1  0  0  0  0
M  END
>  <MODEL>
6

>  <REMARK>
 VINA RESULT:      -4.4      3.801      6.504
  Name = 
  26 active torsions:
  status: ('A' for Active; 'I' for Inactive)
    1  A    between atoms: C_2  and  C_15
    2  A    between atoms: C_2  and  C_55
    3  A    between atoms: N_3  and  O_48
    4  A    between atoms: N_3  and  C_56
    5  A    between atoms: C_4  and  O_50
    6  A    between atoms: C_5  and  C_53
    7  A    between atoms: C_7  and  O_8
    8  A    between atoms: C_7  and  C_21
    9  A    between atoms: C_7  and  C_44
   10  A    between atoms: O_8  and  C_55
   11  A    between atoms: C_11  and  N_45
   12  A    between atoms: C_11  and  O_50
   13  A    between atoms: C_14  and  N_28
   14  A    between atoms: C_15  and  C_38
   15  A    between atoms: C_16  and  C_55
   16  A    between atoms: N_17  and  C_20
   17  A    between atoms: N_17  and  C_46
   18  A    between atoms: C_22  and  N_28
   19  A    between atoms: O_24  and  C_35
   20  A    between atoms: N_26  and  N_28
   21  A    between atoms: N_26  and  C_29
   22  A    between atoms: C_29  and  C_47
   23  A    between atoms: N_34  and  C_56
   24  A    between atoms: C_44  and  O_48
   25  A    between atoms: C_44  and  C_52
   26  A    between atoms: C_46  and  C_47
                            x       y       z     vdW  Elec       q    Type
                         _______ _______ _______ _____ _____    ______ ____

>  <TORSDO>
F 26

$$$$
=
 OpenBabel11072409333D

 58 61  0  0  1  0  0  0  0  0999 V2000
  194.4420  176.2890  143.6370 N   0  0  0  0  0  2  0  0  0  0  0  0
  193.8010  175.3160  144.5120 C   0  0  1  0  0  3  0  0  0  0  0  0
  194.8060  174.7750  145.5090 C   0  0  0  0  0  2  0  0  0  0  0  0
  193.8070  175.8430  145.9310 C   0  0  2  0  0  3  0  0  0  0  0  0
  192.6100  175.2300  146.6340 C   0  0  0  0  0  2  0  0  0  0  0  0
  191.4430  176.2170  146.7350 C   0  0  0  0  0  2  0  0  0  0  0  0
  190.2530  175.7950  145.8520 C   0  0  1  0  0  3  0  0  0  0  0  0
  187.9800  175.6600  146.9180 C   0  0  0  0  0  1  0  0  0  0  0  0
  188.9430  176.5390  146.1420 C   0  0  1  0  0  3  0  0  0  0  0  0
  189.2160  177.6770  146.8990 O   0  0  0  0  0  1  0  0  0  0  0  0
  190.5520  175.6570  144.4800 O   0  0  0  0  0  0  0  0  0  0  0  0
  190.0780  176.7740  143.7690 C   0  0  1  0  0  3  0  0  0  0  0  0
  191.1670  177.7910  143.6460 C   0  0  0  0  0  0  0  0  0  0  0  0
  191.8300  177.9660  142.4410 O   0  0  0  0  0  0  0  0  0  0  0  0
  191.4690  178.5070  144.6340 O   0  0  0  0  0  1  0  0  0  0  0  0
  189.5180  176.3450  142.4100 C   0  0  1  0  0  3  0  0  0  0  0  0
  188.7070  172.1100  142.3450 C   0  0  0  0  0  3  0  0  0  0  0  0
  190.2380  173.9590  142.7110 C   0  0  0  0  0  3  0  0  0  0  0  0
  189.9770  172.5810  142.7050 C   0  0  0  0  0  3  0  0  0  0  0  0
  187.6970  173.0150  141.9960 C   0  0  0  0  0  3  0  0  0  0  0  0
  187.9550  174.3920  142.0090 C   0  0  0  0  0  3  0  0  0  0  0  0
  189.2290  174.8690  142.3610 C   0  0  0  0  0  0  0  0  0  0  0  0
  188.3980  177.1060  142.0570 O   0  0  0  0  0  0  0  0  0  0  0  0
  188.0840  177.8070  143.1730 N   0  0  0  0  0  2  0  0  0  0  0  0
  185.5540  177.8880  142.4230 S   0  0  0  0  0  0  0  0  0  0  0  0
  186.7350  178.1330  143.5220 C   0  0  0  0  0  0  0  0  0  0  0  0
  185.5050  177.8950  145.7490 C   0  0  0  0  0  0  0  0  0  0  0  0
  184.9650  178.7250  147.2470 S   0  0  0  0  0  1  0  0  0  0  0  0
  186.3720  178.5810  144.8410 N   0  0  0  0  0  2  0  0  0  0  0  0
  185.1510  176.7010  145.5370 O   0  0  0  0  0  0  0  0  0  0  0  0
  195.8800  176.2380  143.8920 C   0  0  0  0  0  2  0  0  0  0  0  0
  196.6820  176.7950  142.7200 C   0  0  0  0  0  2  0  0  0  0  0  0
  196.6660  175.8490  141.5340 C   0  0  0  0  0  2  0  0  0  0  0  0
  197.7600  174.8880  141.6410 N   0  0  0  0  0  2  0  0  0  0  0  0
  197.1880  173.6010  141.6580 N   0  0  0  0  0  0  0  0  0  0  0  0
  194.7890  173.3930  138.9930 C   0  0  0  0  0  0  0  0  0  0  0  0
  197.5520  173.4520  139.2700 N   0  0  0  0  0  2  0  0  0  0  0  0
  197.0470  172.8490  138.0350 C   0  0  1  0  0  0  0  0  0  0  0  0
  196.7370  172.9960  140.3980 C   0  0  2  0  0  3  0  0  0  0  0  0
  197.0640  171.4680  138.1300 F   0  0  0  0  0  0  0  0  0  0  0  0
  195.6290  173.3340  137.7510 C   0  0  0  0  0  2  0  0  0  0  0  0
  197.9390  173.2610  136.8810 C   0  0  0  0  0  1  0  0  0  0  0  0
  195.3240  173.2910  140.1740 N   0  0  0  0  0  0  0  0  0  0  0  0
  193.4170  173.6030  138.8550 O   0  0  0  0  0  0  0  0  0  0  0  0
  192.4790  173.1290  139.8100 C   0  0  0  0  0  2  0  0  0  0  0  0
  191.5920  172.5970  137.1580 O   0  0  0  0  0  0  0  0  0  0  0  0
  190.7530  173.0630  137.9690 C   0  0  0  0  0  0  0  0  0  0  0  0
  191.1250  173.3470  139.3190 N   0  0  0  0  0  2  0  0  0  0  0  0
  189.3510  173.2990  137.5250 C   0  0  0  0  0  2  0  0  0  0  0  0
  188.5990  174.0890  138.5800 C   0  0  0  0  0  1  0  0  0  0  0  0
  197.8510  173.1650  144.0030 C   0  0  0  0  0  3  0  0  0  0  0  0
  196.9960  172.9210  142.9170 C   0  0  0  0  0  0  0  0  0  0  0  0
  196.6000  171.6090  145.3750 C   0  0  0  0  0  3  0  0  0  0  0  0
  195.7380  171.3540  144.3000 C   0  0  0  0  0  0  0  0  0  0  0  0
  197.6540  172.5160  145.2250 C   0  0  0  0  0  3  0  0  0  0  0  0
  195.9410  172.0020  143.0810 C   0  0  0  0  0  3  0  0  0  0  0  0
  194.6750  170.4590  144.4290 O   0  0  0  0  0  0  0  0  0  0  0  0
  194.7440  169.2280  143.9020 O   0  0  0  0  0  1  0  0  0  0  0  0
  1 31  1  0  0  0  0
  2  1  1  6  0  0  0
  2  3  1  0  0  0  0
  2  4  1  0  0  0  0
  3  4  1  0  0  0  0
  4  5  1  1  0  0  0
  5  6  1  0  0  0  0
  7  9  1  0  0  0  0
  7  6  1  1  0  0  0
  9 10  1  0  0  0  0
  9  8  1  1  0  0  0
 11  7  1  0  0  0  0
 12 13  1  6  0  0  0
 12 11  1  0  0  0  0
 13 15  1  0  0  0  0
 14 13  2  0  0  0  0
 16 23  1  1  0  0  0
 16 12  1  0  0  0  0
 17 19  1  0  0  0  0
 19 18  2  0  0  0  0
 20 21  1  0  0  0  0
 20 17  2  0  0  0  0
 21 22  2  0  0  0  0
 22 16  1  0  0  0  0
 22 18  1  0  0  0  0
 23 24  1  0  0  0  0
 24 26  1  0  0  0  0
 25 26  2  0  0  0  0
 26 29  1  0  0  0  0
 27 28  1  0  0  0  0
 29 27  1  0  0  0  0
 30 27  2  0  0  0  0
 32 31  1  0  0  0  0
 33 34  1  0  0  0  0
 33 32  1  0  0  0  0
 34 35  1  0  0  0  0
 35 52  1  0  0  0  0
 36 43  2  0  0  0  0
 37 39  1  0  0  0  0
 38 42  1  6  0  0  0
 38 40  1  0  0  0  0
 38 37  1  0  0  0  0
 39 35  1  1  0  0  0
 41 38  1  0  0  0  0
 41 36  1  0  0  0  0
 43 39  1  0  0  0  0
 44 36  1  0  0  0  0
 44 45  1  0  0  0  0
 46 47  2  0  0  0  0
 47 48  1  0  0  0  0
 48 45  1  0  0  0  0
 49 47  1  0  0  0  0
 49 50  1  0  0  0  0
 51 55  1  0  0  0  0
 52 56  1  0  0  0  0
 52 51  2  0  0  0  0
 54 57  1  0  0  0  0
 54 53  1  0  0  0  0
 55 53  2  0  0  0  0
 56 54  2  0  0  0  0
 58 57  1  0  0  0  0
M  END
>  <MODEL>
7

>  <REMARK>
 VINA RESULT:      -4.3      3.373      6.449
  Name = 
  26 active torsions:
  status: ('A' for Active; 'I' for Inactive)
    1  A    between atoms: C_2  and  C_15
    2  A    between atoms: C_2  and  C_55
    3  A    between atoms: N_3  and  O_48
    4  A    between atoms: N_3  and  C_56
    5  A    between atoms: C_4  and  O_50
    6  A    between atoms: C_5  and  C_53
    7  A    between atoms: C_7  and  O_8
    8  A    between atoms: C_7  and  C_21
    9  A    between atoms: C_7  and  C_44
   10  A    between atoms: O_8  and  C_55
   11  A    between atoms: C_11  and  N_45
   12  A    between atoms: C_11  and  O_50
   13  A    between atoms: C_14  and  N_28
   14  A    between atoms: C_15  and  C_38
   15  A    between atoms: C_16  and  C_55
   16  A    between atoms: N_17  and  C_20
   17  A    between atoms: N_17  and  C_46
   18  A    between atoms: C_22  and  N_28
   19  A    between atoms: O_24  and  C_35
   20  A    between atoms: N_26  and  N_28
   21  A    between atoms: N_26  and  C_29
   22  A    between atoms: C_29  and  C_47
   23  A    between atoms: N_34  and  C_56
   24  A    between atoms: C_44  and  O_48
   25  A    between atoms: C_44  and  C_52
   26  A    between atoms: C_46  and  C_47
                            x       y       z     vdW  Elec       q    Type
                         _______ _______ _______ _____ _____    ______ ____

>  <TORSDO>
F 26

$$$$
=
 OpenBabel11072409333D

 58 61  0  0  1  0  0  0  0  0999 V2000
  188.2300  173.4090  141.7450 N   0  0  0  0  0  2  0  0  0  0  0  0
  189.0870  173.2020  142.9050 C   0  0  1  0  0  3  0  0  0  0  0  0
  189.3440  171.7200  143.0990 C   0  0  0  0  0  2  0  0  0  0  0  0
  190.4010  172.6020  142.4520 C   0  0  2  0  0  3  0  0  0  0  0  0
  191.4520  173.0320  143.4590 C   0  0  0  0  0  2  0  0  0  0  0  0
  191.8700  174.4910  143.2570 C   0  0  0  0  0  2  0  0  0  0  0  0
  192.4520  175.1070  144.5440 C   0  0  1  0  0  3  0  0  0  0  0  0
  194.4300  173.7840  145.3580 C   0  0  0  0  0  1  0  0  0  0  0  0
  193.9820  175.0490  144.6480 C   0  0  1  0  0  3  0  0  0  0  0  0
  194.5330  175.0600  143.3690 O   0  0  0  0  0  1  0  0  0  0  0  0
  191.8910  176.3470  144.9150 O   0  0  0  0  0  0  0  0  0  0  0  0
  191.0410  176.1780  146.0230 C   0  0  1  0  0  3  0  0  0  0  0  0
  191.8190  176.3630  147.2860 C   0  0  0  0  0  0  0  0  0  0  0  0
  191.3490  175.8400  148.4810 O   0  0  0  0  0  1  0  0  0  0  0  0
  192.9150  176.9770  147.2620 O   0  0  0  0  0  0  0  0  0  0  0  0
  189.8420  177.1260  145.9260 C   0  0  1  0  0  3  0  0  0  0  0  0
  188.4940  177.5050  141.8470 C   0  0  0  0  0  3  0  0  0  0  0  0
  190.0040  178.1450  143.6380 C   0  0  0  0  0  3  0  0  0  0  0  0
  189.5800  178.2630  142.3070 C   0  0  0  0  0  3  0  0  0  0  0  0
  187.8370  176.6250  142.7160 C   0  0  0  0  0  3  0  0  0  0  0  0
  188.2650  176.5010  144.0450 C   0  0  0  0  0  3  0  0  0  0  0  0
  189.3480  177.2660  144.5120 C   0  0  0  0  0  0  0  0  0  0  0  0
  188.8180  176.7440  146.8000 O   0  0  0  0  0  0  0  0  0  0  0  0
  188.1820  177.8960  147.1190 N   0  0  0  0  0  2  0  0  0  0  0  0
  185.8190  177.5460  148.2450 S   0  0  0  0  0  0  0  0  0  0  0  0
  186.7620  178.0470  147.0110 C   0  0  0  0  0  0  0  0  0  0  0  0
  185.2920  178.0950  144.9220 C   0  0  0  0  0  0  0  0  0  0  0  0
  184.8220  179.0160  143.4540 S   0  0  0  0  0  1  0  0  0  0  0  0
  186.1470  178.7100  145.8920 N   0  0  0  0  0  2  0  0  0  0  0  0
  184.8280  176.9350  145.1040 O   0  0  0  0  0  0  0  0  0  0  0  0
  189.0880  173.4850  140.5650 C   0  0  0  0  0  2  0  0  0  0  0  0
  188.2730  173.5320  139.2750 C   0  0  0  0  0  2  0  0  0  0  0  0
  189.1060  174.0290  138.1080 C   0  0  0  0  0  2  0  0  0  0  0  0
  189.2610  172.9700  137.1140 N   0  0  0  0  0  2  0  0  0  0  0  0
  190.6220  172.6090  137.0940 N   0  0  0  0  0  0  0  0  0  0  0  0
  193.1540  170.0870  137.4600 C   0  0  0  0  0  0  0  0  0  0  0  0
  190.7620  170.7880  138.6830 N   0  0  0  0  0  2  0  0  0  0  0  0
  191.1770  169.3930  138.8460 C   0  0  1  0  0  0  0  0  0  0  0  0
  190.9970  171.2040  137.2980 C   0  0  2  0  0  3  0  0  0  0  0  0
  190.4900  168.5790  137.9610 F   0  0  0  0  0  0  0  0  0  0  0  0
  192.6790  169.2590  138.6180 C   0  0  0  0  0  2  0  0  0  0  0  0
  190.8600  168.9430  140.2580 C   0  0  0  0  0  1  0  0  0  0  0  0
  192.3920  170.9930  136.9210 N   0  0  0  0  0  0  0  0  0  0  0  0
  194.4560  169.8920  136.9960 O   0  0  0  0  0  0  0  0  0  0  0  0
  195.5930  170.2920  137.7460 C   0  0  0  0  0  2  0  0  0  0  0  0
  195.8870  170.0990  140.5700 O   0  0  0  0  0  0  0  0  0  0  0  0
  195.3860  171.1550  140.1090 C   0  0  0  0  0  0  0  0  0  0  0  0
  195.2150  171.3260  138.7000 N   0  0  0  0  0  2  0  0  0  0  0  0
  194.9880  172.2500  141.0370 C   0  0  0  0  0  2  0  0  0  0  0  0
  194.6800  171.6780  142.4090 C   0  0  0  0  0  1  0  0  0  0  0  0
  191.7650  174.3290  135.7290 C   0  0  0  0  0  3  0  0  0  0  0  0
  191.6310  173.6300  136.9390 C   0  0  0  0  0  0  0  0  0  0  0  0
  193.5850  175.6340  136.6520 C   0  0  0  0  0  3  0  0  0  0  0  0
  193.4640  174.9450  137.8660 C   0  0  0  0  0  0  0  0  0  0  0  0
  192.7340  175.3260  135.5860 C   0  0  0  0  0  3  0  0  0  0  0  0
  192.4970  173.9470  138.0020 C   0  0  0  0  0  3  0  0  0  0  0  0
  194.2970  175.2410  138.9460 O   0  0  0  0  0  0  0  0  0  0  0  0
  195.5830  174.8610  138.9470 O   0  0  0  0  0  1  0  0  0  0  0  0
  2  1  1  6  0  0  0
  2  3  1  0  0  0  0
  4  2  1  0  0  0  0
  4  3  1  0  0  0  0
  4  5  1  1  0  0  0
  6  5  1  0  0  0  0
  7  6  1  6  0  0  0
  7  9  1  0  0  0  0
  7 11  1  0  0  0  0
  9  8  1  6  0  0  0
 10  9  1  0  0  0  0
 12 11  1  6  0  0  0
 12 13  1  0  0  0  0
 13 14  1  0  0  0  0
 15 13  2  0  0  0  0
 16 12  1  0  0  0  0
 16 23  1  1  0  0  0
 17 19  2  0  0  0  0
 17 20  1  0  0  0  0
 18 22  2  0  0  0  0
 19 18  1  0  0  0  0
 20 21  2  0  0  0  0
 21 22  1  0  0  0  0
 22 16  1  0  0  0  0
 23 24  1  0  0  0  0
 26 24  1  0  0  0  0
 26 25  2  0  0  0  0
 27 30  2  0  0  0  0
 27 29  1  0  0  0  0
 28 27  1  0  0  0  0
 29 26  1  0  0  0  0
 31  1  1  0  0  0  0
 32 31  1  0  0  0  0
 33 32  1  0  0  0  0
 34 33  1  0  0  0  0
 35 34  1  0  0  0  0
 36 41  1  0  0  0  0
 37 38  1  0  0  0  0
 38 42  1  1  0  0  0
 39 35  1  1  0  0  0
 39 37  1  0  0  0  0
 40 38  1  0  0  0  0
 41 38  1  0  0  0  0
 43 39  1  0  0  0  0
 43 36  2  0  0  0  0
 44 36  1  0  0  0  0
 44 45  1  0  0  0  0
 45 48  1  0  0  0  0
 47 46  2  0  0  0  0
 47 49  1  0  0  0  0
 48 47  1  0  0  0  0
 49 50  1  0  0  0  0
 51 52  1  0  0  0  0
 52 35  1  0  0  0  0
 52 56  2  0  0  0  0
 53 54  2  0  0  0  0
 54 56  1  0  0  0  0
 54 57  1  0  0  0  0
 55 51  2  0  0  0  0
 55 53  1  0  0  0  0
 57 58  1  0  0  0  0
M  END
>  <MODEL>
8

>  <REMARK>
 VINA RESULT:      -4.3      1.762      2.246
  Name = 
  26 active torsions:
  status: ('A' for Active; 'I' for Inactive)
    1  A    between atoms: C_2  and  C_15
    2  A    between atoms: C_2  and  C_55
    3  A    between atoms: N_3  and  O_48
    4  A    between atoms: N_3  and  C_56
    5  A    between atoms: C_4  and  O_50
    6  A    between atoms: C_5  and  C_53
    7  A    between atoms: C_7  and  O_8
    8  A    between atoms: C_7  and  C_21
    9  A    between atoms: C_7  and  C_44
   10  A    between atoms: O_8  and  C_55
   11  A    between atoms: C_11  and  N_45
   12  A    between atoms: C_11  and  O_50
   13  A    between atoms: C_14  and  N_28
   14  A    between atoms: C_15  and  C_38
   15  A    between atoms: C_16  and  C_55
   16  A    between atoms: N_17  and  C_20
   17  A    between atoms: N_17  and  C_46
   18  A    between atoms: C_22  and  N_28
   19  A    between atoms: O_24  and  C_35
   20  A    between atoms: N_26  and  N_28
   21  A    between atoms: N_26  and  C_29
   22  A    between atoms: C_29  and  C_47
   23  A    between atoms: N_34  and  C_56
   24  A    between atoms: C_44  and  O_48
   25  A    between atoms: C_44  and  C_52
   26  A    between atoms: C_46  and  C_47
                            x       y       z     vdW  Elec       q    Type
                         _______ _______ _______ _____ _____    ______ ____

>  <TORSDO>
F 26

$$$$
=
 OpenBabel11072409333D

 58 61  0  0  1  0  0  0  0  0999 V2000
  194.9680  176.4200  143.6140 N   0  0  0  0  0  2  0  0  0  0  0  0
  194.1120  175.7390  144.5760 C   0  0  1  0  0  3  0  0  0  0  0  0
  194.8280  175.6120  145.9070 C   0  0  0  0  0  2  0  0  0  0  0  0
  193.7740  176.6910  145.7040 C   0  0  2  0  0  3  0  0  0  0  0  0
  192.4290  176.2580  146.2580 C   0  0  0  0  0  2  0  0  0  0  0  0
  191.3190  176.3710  145.2100 C   0  0  0  0  0  2  0  0  0  0  0  0
  189.9230  176.1480  145.8230 C   0  0  1  0  0  3  0  0  0  0  0  0
  187.8040  177.1270  146.7590 C   0  0  0  0  0  1  0  0  0  0  0  0
  189.2160  177.4270  146.2910 C   0  0  1  0  0  3  0  0  0  0  0  0
  189.9260  177.9860  147.3510 O   0  0  0  0  0  1  0  0  0  0  0  0
  189.0960  175.2560  145.1080 O   0  0  0  0  0  0  0  0  0  0  0  0
  189.8730  174.4810  144.2280 C   0  0  1  0  0  3  0  0  0  0  0  0
  189.9400  173.0720  144.7240 C   0  0  0  0  0  0  0  0  0  0  0  0
  190.6660  172.1170  144.0270 O   0  0  0  0  0  0  0  0  0  0  0  0
  189.3530  172.7550  145.7890 O   0  0  0  0  0  1  0  0  0  0  0  0
  189.3230  174.5770  142.8030 C   0  0  1  0  0  3  0  0  0  0  0  0
  186.7960  178.0410  142.3400 C   0  0  0  0  0  3  0  0  0  0  0  0
  187.0580  175.6540  142.7030 C   0  0  0  0  0  3  0  0  0  0  0  0
  186.2310  176.7780  142.5670 C   0  0  0  0  0  3  0  0  0  0  0  0
  188.1860  178.1800  142.2540 C   0  0  0  0  0  3  0  0  0  0  0  0
  189.0140  177.0590  142.3970 C   0  0  0  0  0  3  0  0  0  0  0  0
  188.4510  175.7890  142.6160 C   0  0  0  0  0  0  0  0  0  0  0  0
  190.3500  174.5250  141.8540 O   0  0  0  0  0  0  0  0  0  0  0  0
  189.7370  174.2010  140.6900 N   0  0  0  0  0  2  0  0  0  0  0  0
  190.3860  171.6450  140.5740 S   0  0  0  0  0  0  0  0  0  0  0  0
  190.1610  173.1030  139.8760 C   0  0  0  0  0  0  0  0  0  0  0  0
  189.2550  173.5160  137.5240 C   0  0  0  0  0  0  0  0  0  0  0  0
  189.5670  173.3690  135.7610 S   0  0  0  0  0  1  0  0  0  0  0  0
  190.3050  173.2190  138.4490 N   0  0  0  0  0  2  0  0  0  0  0  0
  188.1290  173.9240  137.9250 O   0  0  0  0  0  0  0  0  0  0  0  0
  194.7770  175.7800  142.3150 C   0  0  0  0  0  2  0  0  0  0  0  0
  195.7420  174.6150  142.1120 C   0  0  0  0  0  2  0  0  0  0  0  0
  195.0320  173.2790  142.2090 C   0  0  0  0  0  2  0  0  0  0  0  0
  193.9160  173.2310  141.2680 N   0  0  0  0  0  2  0  0  0  0  0  0
  194.3860  172.6180  140.0900 N   0  0  0  0  0  0  0  0  0  0  0  0
  196.1400  169.7710  141.4010 C   0  0  0  0  0  0  0  0  0  0  0  0
  193.5380  170.4320  140.6920 N   0  0  0  0  0  2  0  0  0  0  0  0
  193.8560  169.0030  140.6940 C   0  0  1  0  0  0  0  0  0  0  0  0
  194.6470  171.1730  140.0860 C   0  0  2  0  0  3  0  0  0  0  0  0
  194.0980  168.5610  139.4040 F   0  0  0  0  0  0  0  0  0  0  0  0
  195.0710  168.7320  141.5740 C   0  0  0  0  0  2  0  0  0  0  0  0
  192.6740  168.2330  141.2490 C   0  0  0  0  0  1  0  0  0  0  0  0
  195.9030  170.8840  140.7720 N   0  0  0  0  0  0  0  0  0  0  0  0
  197.3920  169.5340  141.9710 O   0  0  0  0  0  0  0  0  0  0  0  0
  197.8850  170.3010  143.0590 C   0  0  0  0  0  2  0  0  0  0  0  0
  195.6230  170.5740  144.7640 O   0  0  0  0  0  0  0  0  0  0  0  0
  196.5230  169.7700  145.1160 C   0  0  0  0  0  0  0  0  0  0  0  0
  197.6830  169.5750  144.3050 N   0  0  0  0  0  2  0  0  0  0  0  0
  196.3650  168.9940  146.3770 C   0  0  0  0  0  2  0  0  0  0  0  0
  194.9370  169.1020  146.8770 C   0  0  0  0  0  1  0  0  0  0  0  0
  193.6960  174.3010  138.4110 C   0  0  0  0  0  3  0  0  0  0  0  0
  194.6650  173.4250  138.9260 C   0  0  0  0  0  0  0  0  0  0  0  0
  195.2240  175.0100  136.6700 C   0  0  0  0  0  3  0  0  0  0  0  0
  196.2010  174.1400  137.1720 C   0  0  0  0  0  0  0  0  0  0  0  0
  193.9740  175.0910  137.2920 C   0  0  0  0  0  3  0  0  0  0  0  0
  195.9170  173.3510  138.2880 C   0  0  0  0  0  3  0  0  0  0  0  0
  197.4580  174.0490  136.5720 O   0  0  0  0  0  0  0  0  0  0  0  0
  197.6040  173.4930  135.3610 O   0  0  0  0  0  1  0  0  0  0  0  0
  2  1  1  6  0  0  0
  2  4  1  0  0  0  0
  2  3  1  0  0  0  0
  4  3  1  0  0  0  0
  4  5  1  1  0  0  0
  6  5  1  0  0  0  0
  7  6  1  6  0  0  0
  7  9  1  0  0  0  0
  9  8  1  1  0  0  0
  9 10  1  0  0  0  0
 11  7  1  0  0  0  0
 12 13  1  1  0  0  0
 12 11  1  0  0  0  0
 13 15  1  0  0  0  0
 14 13  2  0  0  0  0
 16 23  1  6  0  0  0
 16 12  1  0  0  0  0
 17 19  1  0  0  0  0
 19 18  2  0  0  0  0
 20 17  2  0  0  0  0
 20 21  1  0  0  0  0
 21 22  2  0  0  0  0
 22 18  1  0  0  0  0
 22 16  1  0  0  0  0
 24 23  1  0  0  0  0
 26 25  2  0  0  0  0
 26 24  1  0  0  0  0
 27 30  2  0  0  0  0
 27 29  1  0  0  0  0
 28 27  1  0  0  0  0
 29 26  1  0  0  0  0
 31  1  1  0  0  0  0
 32 33  1  0  0  0  0
 32 31  1  0  0  0  0
 34 33  1  0  0  0  0
 35 34  1  0  0  0  0
 36 41  1  0  0  0  0
 36 44  1  0  0  0  0
 37 38  1  0  0  0  0
 38 42  1  1  0  0  0
 38 41  1  0  0  0  0
 39 35  1  1  0  0  0
 39 37  1  0  0  0  0
 39 43  1  0  0  0  0
 40 38  1  0  0  0  0
 43 36  2  0  0  0  0
 44 45  1  0  0  0  0
 45 48  1  0  0  0  0
 46 47  2  0  0  0  0
 47 49  1  0  0  0  0
 48 47  1  0  0  0  0
 49 50  1  0  0  0  0
 51 52  1  0  0  0  0
 52 35  1  0  0  0  0
 53 54  2  0  0  0  0
 53 55  1  0  0  0  0
 54 56  1  0  0  0  0
 55 51  2  0  0  0  0
 56 52  2  0  0  0  0
 57 54  1  0  0  0  0
 58 57  1  0  0  0  0
M  END
>  <MODEL>
9

>  <REMARK>
 VINA RESULT:      -4.2      3.901      6.122
  Name = 
  26 active torsions:
  status: ('A' for Active; 'I' for Inactive)
    1  A    between atoms: C_2  and  C_15
    2  A    between atoms: C_2  and  C_55
    3  A    between atoms: N_3  and  O_48
    4  A    between atoms: N_3  and  C_56
    5  A    between atoms: C_4  and  O_50
    6  A    between atoms: C_5  and  C_53
    7  A    between atoms: C_7  and  O_8
    8  A    between atoms: C_7  and  C_21
    9  A    between atoms: C_7  and  C_44
   10  A    between atoms: O_8  and  C_55
   11  A    between atoms: C_11  and  N_45
   12  A    between atoms: C_11  and  O_50
   13  A    between atoms: C_14  and  N_28
   14  A    between atoms: C_15  and  C_38
   15  A    between atoms: C_16  and  C_55
   16  A    between atoms: N_17  and  C_20
   17  A    between atoms: N_17  and  C_46
   18  A    between atoms: C_22  and  N_28
   19  A    between atoms: O_24  and  C_35
   20  A    between atoms: N_26  and  N_28
   21  A    between atoms: N_26  and  C_29
   22  A    between atoms: C_29  and  C_47
   23  A    between atoms: N_34  and  C_56
   24  A    between atoms: C_44  and  O_48
   25  A    between atoms: C_44  and  C_52
   26  A    between atoms: C_46  and  C_47
                            x       y       z     vdW  Elec       q    Type
                         _______ _______ _______ _____ _____    ______ ____

>  <TORSDO>
F 26

$$$$
