=
 OpenBabel11062422403D

 44 47  0  0  1  0  0  0  0  0999 V2000
  193.5300  173.6830  145.7750 N   0  0  0  0  0  2  0  0  0  0  0  0
  193.6170  172.1320  143.8530 C   0  0  0  0  0  2  0  0  0  0  0  0
  193.6100  174.9400  141.2160 C   0  0  0  0  0  3  0  0  0  0  0  0
  194.2470  174.7170  145.0160 C   0  0  1  0  0  3  0  0  0  0  0  0
  193.9410  174.5840  143.5540 C   0  0  0  0  0  0  0  0  0  0  0  0
  193.9410  175.6730  142.5260 C   0  0  0  0  0  2  0  0  0  0  0  0
  193.7770  173.3790  143.0300 C   0  0  0  0  0  0  0  0  0  0  0  0
  193.6340  172.4510  140.7770 C   0  0  0  0  0  2  0  0  0  0  0  0
  193.6150  173.4950  141.6040 C   0  0  0  0  0  0  0  0  0  0  0  0
  194.0250  172.3900  145.3210 C   0  0  0  0  0  2  0  0  0  0  0  0
  191.6250  176.6430  146.4160 C   0  0  0  0  0  0  0  0  0  0  0  0
  192.8380  176.3780  146.0070 C   0  0  0  0  0  0  0  0  0  0  0  0
  194.0350  176.0840  145.5910 C   0  0  0  0  0  0  0  0  0  0  0  0
  194.9660  177.1350  145.3440 N   0  0  0  0  0  1  0  0  0  0  0  0
  188.6970  177.7190  144.1810 N   0  0  0  0  0  2  0  0  0  0  0  0
  188.8540  175.8460  145.6290 N   0  0  0  0  0  2  0  0  0  0  0  0
  189.4110  176.9030  145.1210 C   0  0  0  0  0  0  0  0  0  0  0  0
  190.6930  177.3550  145.5850 N   0  0  0  0  0  2  0  0  0  0  0  0
  185.5560  178.9390  142.7780 N   0  0  0  0  0  0  0  0  0  0  0  0
  186.4640  178.3850  144.9740 C   0  0  0  0  0  2  0  0  0  0  0  0
  187.2540  177.6590  143.9300 C   0  0  1  0  0  3  0  0  0  0  0  0
  185.2830  178.9830  144.2170 C   0  0  0  0  0  2  0  0  0  0  0  0
  186.8700  178.3190  142.6160 C   0  0  0  0  0  2  0  0  0  0  0  0
  184.4330  178.3460  140.6950 C   0  0  0  0  0  1  0  0  0  0  0  0
  184.5730  178.0450  142.1840 C   0  0  0  0  0  2  0  0  0  0  0  0
  191.2520  177.3930  148.7500 O   0  0  0  0  0  1  0  0  0  0  0  0
  190.9690  175.2000  148.1810 O   0  0  0  0  0  0  0  0  0  0  0  0
  191.2680  176.3690  147.8180 C   0  0  0  0  0  0  0  0  0  0  0  0
  194.8590  172.1460  138.6040 C   0  0  0  0  0  2  0  0  0  0  0  0
  193.5520  172.5250  139.2710 C   0  0  1  0  0  3  0  0  0  0  0  0
  192.8610  171.3310  138.7810 N   0  0  0  0  0  0  0  0  0  0  0  0
  194.0920  170.9500  138.0950 C   0  0  0  0  0  2  0  0  0  0  0  0
  191.8560  171.7060  137.7790 C   0  0  1  0  0  3  0  0  0  0  0  0
  191.1700  170.7740  135.7520 C   0  0  0  0  0  1  0  0  0  0  0  0
  191.3080  170.5020  137.1720 N   0  0  0  0  0  2  0  0  0  0  0  0
  190.7780  172.4340  138.4330 N   0  0  0  0  0  2  0  0  0  0  0  0
  190.0850  171.4730  139.2730 C   0  0  0  0  0  2  0  0  0  0  0  0
  189.7200  172.1120  140.5710 C   0  0  0  0  0  3  0  0  0  0  0  0
  190.0360  173.3890  140.8070 C   0  0  0  0  0  3  0  0  0  0  0  0
  189.6900  174.0820  142.0950 C   0  0  1  0  0  0  0  0  0  0  0  0
  190.0160  173.1790  143.2750 C   0  0  0  0  0  1  0  0  0  0  0  0
  190.4490  175.3320  142.1980 N   0  0  0  0  0  1  0  0  0  0  0  0
  188.1940  174.4000  142.0820 C   0  0  0  0  0  2  0  0  0  0  0  0
  187.8720  175.4160  141.1060 N   0  0  0  0  0  1  0  0  0  0  0  0
  2 10  1  0  0  0  0
  3  9  2  0  0  0  0
  3  6  1  0  0  0  0
  4 13  1  1  0  0  0
  4  1  1  0  0  0  0
  5  4  1  0  0  0  0
  6  5  1  0  0  0  0
  7  5  2  0  0  0  0
  7  2  1  0  0  0  0
  8  9  1  0  0  0  0
  9  7  1  0  0  0  0
 10  1  1  0  0  0  0
 11 28  1  0  0  0  0
 12 11  2  0  0  0  0
 13 12  2  0  0  0  0
 14 13  1  0  0  0  0
 15 17  1  0  0  0  0
 17 18  1  0  0  0  0
 17 16  2  0  0  0  0
 18 11  1  0  0  0  0
 19 22  1  0  0  0  0
 21 15  1  1  0  0  0
 21 20  1  0  0  0  0
 22 20  1  0  0  0  0
 23 19  1  0  0  0  0
 23 21  1  0  0  0  0
 24 25  1  0  0  0  0
 25 19  1  0  0  0  0
 28 27  2  0  0  0  0
 28 26  1  0  0  0  0
 29 30  1  0  0  0  0
 30  8  1  1  0  0  0
 31 30  1  0  0  0  0
 32 29  1  0  0  0  0
 32 31  1  0  0  0  0
 33 35  1  1  0  0  0
 33 36  1  0  0  0  0
 33 31  1  0  0  0  0
 34 35  1  0  0  0  0
 36 37  1  0  0  0  0
 37 38  1  0  0  0  0
 38 39  2  0  0  0  0
 39 40  1  0  0  0  0
 40 42  1  0  0  0  0
 40 41  1  1  0  0  0
 43 40  1  0  0  0  0
 44 43  1  0  0  0  0
M  END
>  <MODEL>
1

>  <REMARK>
 VINA RESULT:      -6.1      0.000      0.000
  Name = 
  13 active torsions:
  status: ('A' for Active; 'I' for Inactive)
    1  A    between atoms: C_1  and  C_9
    2  A    between atoms: N_2  and  C_24
    3  A    between atoms: CA_4  and  N_41
    4  A    between atoms: CA_4  and  C_43
    5  A    between atoms: C_9  and  N_29
    6  A    between atoms: C_11  and  C_31
    7  A    between atoms: C_14  and  C_17
    8  A    between atoms: C_15  and  C_35
    9  A    between atoms: C_16  and  C_31
   10  A    between atoms: N_18  and  C_23
   11  A    between atoms: N_21  and  C_22
   12  A    between atoms: C_22  and  N_29
   13  A    between atoms: C_22  and  N_36
                            x       y       z     vdW  Elec       q    Type
                         _______ _______ _______ _____ _____    ______ ____

>  <TORSDO>
F 13

$$$$
=
 OpenBabel11062422403D

 44 47  0  0  1  0  0  0  0  0999 V2000
  193.6920  175.9560  146.4380 N   0  0  0  0  0  2  0  0  0  0  0  0
  191.6080  177.0190  147.2320 C   0  0  0  0  0  2  0  0  0  0  0  0
  189.3060  174.7030  145.1900 C   0  0  0  0  0  3  0  0  0  0  0  0
  193.0100  174.6650  146.2710 C   0  0  1  0  0  3  0  0  0  0  0  0
  191.5650  174.8880  145.9420 C   0  0  0  0  0  0  0  0  0  0  0  0
  190.6660  173.9890  145.1520 C   0  0  0  0  0  3  0  0  0  0  0  0
  190.9210  175.9060  146.4930 C   0  0  0  0  0  0  0  0  0  0  0  0
  188.5920  176.6110  146.6860 C   0  0  0  0  0  3  0  0  0  0  0  0
  189.5300  175.8480  146.1270 C   0  0  0  0  0  0  0  0  0  0  0  0
  193.0670  176.6360  147.5650 C   0  0  0  0  0  2  0  0  0  0  0  0
  194.4640  174.7780  143.0440 C   0  0  0  0  0  0  0  0  0  0  0  0
  194.1110  174.2520  144.1870 C   0  0  0  0  0  0  0  0  0  0  0  0
  193.7460  173.7580  145.3350 C   0  0  0  0  0  0  0  0  0  0  0  0
  193.7090  172.3420  145.5050 N   0  0  0  0  0  1  0  0  0  0  0  0
  193.0030  173.6590  139.6760 N   0  0  0  0  0  2  0  0  0  0  0  0
  194.5710  172.5430  141.0640 N   0  0  0  0  0  2  0  0  0  0  0  0
  193.8150  173.5780  140.8560 C   0  0  0  0  0  0  0  0  0  0  0  0
  193.6700  174.5960  141.8590 N   0  0  0  0  0  2  0  0  0  0  0  0
  191.0590  171.9590  137.0970 N   0  0  0  0  0  0  0  0  0  0  0  0
  191.7580  171.5540  139.3990 C   0  0  0  0  0  2  0  0  0  0  0  0
  192.6970  172.5420  138.7780 C   0  0  1  0  0  3  0  0  0  0  0  0
  190.9010  171.0570  138.2410 C   0  0  0  0  0  2  0  0  0  0  0  0
  192.0020  172.9990  137.5070 C   0  0  0  0  0  2  0  0  0  0  0  0
  191.0790  169.7950  135.9690 C   0  0  0  0  0  1  0  0  0  0  0  0
  191.6880  171.1930  136.0320 C   0  0  0  0  0  2  0  0  0  0  0  0
  196.8700  174.6930  142.4470 O   0  0  0  0  0  0  0  0  0  0  0  0
  195.9460  176.6170  143.2600 O   0  0  0  0  0  1  0  0  0  0  0  0
  195.7870  175.4120  142.9280 C   0  0  0  0  0  0  0  0  0  0  0  0
  186.2720  176.7540  147.6400 C   0  0  0  0  0  2  0  0  0  0  0  0
  187.1120  176.5310  146.3990 C   0  0  1  0  0  3  0  0  0  0  0  0
  186.6860  177.7910  145.7860 N   0  0  0  0  0  0  0  0  0  0  0  0
  185.8370  178.0240  146.9500 C   0  0  0  0  0  2  0  0  0  0  0  0
  185.8320  177.5210  144.6220 C   0  0  1  0  0  3  0  0  0  0  0  0
  185.5490  179.6860  143.7960 C   0  0  0  0  0  1  0  0  0  0  0  0
  184.8650  178.5980  144.4740 N   0  0  0  0  0  2  0  0  0  0  0  0
  186.6590  177.4640  143.4250 N   0  0  0  0  0  2  0  0  0  0  0  0
  186.2820  176.2500  142.7230 C   0  0  0  0  0  2  0  0  0  0  0  0
  187.5050  175.5580  142.2230 C   0  0  0  0  0  3  0  0  0  0  0  0
  187.4960  174.2380  142.0130 C   0  0  0  0  0  3  0  0  0  0  0  0
  188.6990  173.4920  141.5080 C   0  0  1  0  0  0  0  0  0  0  0  0
  189.9100  174.4130  141.4850 C   0  0  0  0  0  1  0  0  0  0  0  0
  188.9630  172.3420  142.3770 N   0  0  0  0  0  1  0  0  0  0  0  0
  188.3970  172.9960  140.0930 C   0  0  0  0  0  2  0  0  0  0  0  0
  188.5970  174.0350  139.1080 N   0  0  0  0  0  1  0  0  0  0  0  0
  1 10  1  0  0  0  0
  2 10  1  0  0  0  0
  3  9  1  0  0  0  0
  4 13  1  6  0  0  0
  4  1  1  0  0  0  0
  5  4  1  0  0  0  0
  5  7  2  0  0  0  0
  6  3  2  0  0  0  0
  6  5  1  0  0  0  0
  7  2  1  0  0  0  0
  9  7  1  0  0  0  0
  9  8  2  0  0  0  0
 11 12  2  0  0  0  0
 12 13  2  0  0  0  0
 13 14  1  0  0  0  0
 15 17  1  0  0  0  0
 17 16  2  0  0  0  0
 17 18  1  0  0  0  0
 18 11  1  0  0  0  0
 19 23  1  0  0  0  0
 19 22  1  0  0  0  0
 21 20  1  0  0  0  0
 21 15  1  1  0  0  0
 22 20  1  0  0  0  0
 23 21  1  0  0  0  0
 24 25  1  0  0  0  0
 25 19  1  0  0  0  0
 26 28  2  0  0  0  0
 28 11  1  0  0  0  0
 28 27  1  0  0  0  0
 30  8  1  1  0  0  0
 30 29  1  0  0  0  0
 31 30  1  0  0  0  0
 31 32  1  0  0  0  0
 32 29  1  0  0  0  0
 33 36  1  6  0  0  0
 33 31  1  0  0  0  0
 34 35  1  0  0  0  0
 35 33  1  0  0  0  0
 37 36  1  0  0  0  0
 38 37  1  0  0  0  0
 39 38  2  0  0  0  0
 40 41  1  6  0  0  0
 40 39  1  0  0  0  0
 40 42  1  0  0  0  0
 43 40  1  0  0  0  0
 44 43  1  0  0  0  0
M  END
>  <MODEL>
2

>  <REMARK>
 VINA RESULT:      -5.9      2.430      7.898
  Name = 
  13 active torsions:
  status: ('A' for Active; 'I' for Inactive)
    1  A    between atoms: C_1  and  C_9
    2  A    between atoms: N_2  and  C_24
    3  A    between atoms: CA_4  and  N_41
    4  A    between atoms: CA_4  and  C_43
    5  A    between atoms: C_9  and  N_29
    6  A    between atoms: C_11  and  C_31
    7  A    between atoms: C_14  and  C_17
    8  A    between atoms: C_15  and  C_35
    9  A    between atoms: C_16  and  C_31
   10  A    between atoms: N_18  and  C_23
   11  A    between atoms: N_21  and  C_22
   12  A    between atoms: C_22  and  N_29
   13  A    between atoms: C_22  and  N_36
                            x       y       z     vdW  Elec       q    Type
                         _______ _______ _______ _____ _____    ______ ____

>  <TORSDO>
F 13

$$$$
=
 OpenBabel11062422403D

 44 47  0  0  1  0  0  0  0  0999 V2000
  190.0230  173.5320  139.2180 N   0  0  0  0  0  2  0  0  0  0  0  0
  192.4210  173.1980  139.7100 C   0  0  0  0  0  2  0  0  0  0  0  0
  192.0220  173.7760  143.4970 C   0  0  0  0  0  3  0  0  0  0  0  0
  189.6460  173.0340  140.5480 C   0  0  1  0  0  3  0  0  0  0  0  0
  190.7320  173.3390  141.5360 C   0  0  0  0  0  0  0  0  0  0  0  0
  190.5810  173.5610  143.0080 C   0  0  0  0  0  2  0  0  0  0  0  0
  191.9970  173.2870  141.1480 C   0  0  0  0  0  0  0  0  0  0  0  0
  194.1720  173.3020  142.2560 C   0  0  0  0  0  2  0  0  0  0  0  0
  192.8560  173.4970  142.2860 C   0  0  0  0  0  0  0  0  0  0  0  0
  191.2240  172.8160  138.8100 C   0  0  0  0  0  2  0  0  0  0  0  0
  187.7100  175.9990  140.5590 C   0  0  0  0  0  0  0  0  0  0  0  0
  187.9780  174.7360  140.7610 C   0  0  0  0  0  0  0  0  0  0  0  0
  188.2750  173.4830  140.9490 C   0  0  0  0  0  0  0  0  0  0  0  0
  187.4780  172.7030  141.8370 N   0  0  0  0  0  1  0  0  0  0  0  0
  187.0980  178.5410  143.3690 N   0  0  0  0  0  2  0  0  0  0  0  0
  185.6290  176.8870  142.5120 N   0  0  0  0  0  2  0  0  0  0  0  0
  186.7890  177.4680  142.4670 C   0  0  0  0  0  0  0  0  0  0  0  0
  187.8300  176.9680  141.6140 N   0  0  0  0  0  2  0  0  0  0  0  0
  184.7170  177.8620  146.0510 N   0  0  0  0  0  0  0  0  0  0  0  0
  184.9990  179.4790  144.2470 C   0  0  0  0  0  2  0  0  0  0  0  0
  186.3350  178.8850  144.5710 C   0  0  1  0  0  3  0  0  0  0  0  0
  184.0740  178.9740  145.3480 C   0  0  0  0  0  2  0  0  0  0  0  0
  186.0250  177.6670  145.4250 C   0  0  0  0  0  2  0  0  0  0  0  0
  186.1460  177.5550  148.0040 C   0  0  0  0  0  1  0  0  0  0  0  0
  184.9480  178.2960  147.4200 C   0  0  0  0  0  2  0  0  0  0  0  0
  187.1700  175.5740  138.1760 O   0  0  0  0  0  0  0  0  0  0  0  0
  186.5050  177.5120  139.1850 O   0  0  0  0  0  1  0  0  0  0  0  0
  187.1000  176.4050  139.2820 C   0  0  0  0  0  0  0  0  0  0  0  0
  196.1840  172.3640  143.4340 C   0  0  0  0  0  2  0  0  0  0  0  0
  195.1040  173.4260  143.4380 C   0  0  1  0  0  3  0  0  0  0  0  0
  196.0530  174.5090  143.1740 N   0  0  0  0  0  0  0  0  0  0  0  0
  197.1260  173.5200  143.1980 C   0  0  0  0  0  2  0  0  0  0  0  0
  196.1750  175.3700  144.3570 C   0  0  1  0  0  3  0  0  0  0  0  0
  196.5240  176.7390  142.4990 C   0  0  0  0  0  1  0  0  0  0  0  0
  196.2930  176.7570  143.9330 N   0  0  0  0  0  2  0  0  0  0  0  0
  194.9800  175.2300  145.1770 N   0  0  0  0  0  2  0  0  0  0  0  0
  194.6880  176.5520  145.7060 C   0  0  0  0  0  2  0  0  0  0  0  0
  193.4520  176.4970  146.5390 C   0  0  0  0  0  3  0  0  0  0  0  0
  192.2500  176.4260  145.9590 C   0  0  0  0  0  3  0  0  0  0  0  0
  190.9740  176.3660  146.7520 C   0  0  1  0  0  0  0  0  0  0  0  0
  190.4080  174.9550  146.7190 C   0  0  0  0  0  1  0  0  0  0  0  0
  191.2380  176.7660  148.1370 N   0  0  0  0  0  1  0  0  0  0  0  0
  189.9740  177.3410  146.1270 C   0  0  0  0  0  2  0  0  0  0  0  0
  190.1090  177.3970  144.6890 N   0  0  0  0  0  1  0  0  0  0  0  0
  1  4  1  0  0  0  0
  2  7  1  0  0  0  0
  4 13  1  1  0  0  0
  4  5  1  0  0  0  0
  5  6  1  0  0  0  0
  6  3  1  0  0  0  0
  7  5  2  0  0  0  0
  7  9  1  0  0  0  0
  8  9  1  0  0  0  0
  9  3  2  0  0  0  0
 10  1  1  0  0  0  0
 10  2  1  0  0  0  0
 11 12  2  0  0  0  0
 11 18  1  0  0  0  0
 12 13  2  0  0  0  0
 13 14  1  0  0  0  0
 17 16  2  0  0  0  0
 17 15  1  0  0  0  0
 18 17  1  0  0  0  0
 19 25  1  0  0  0  0
 20 21  1  0  0  0  0
 20 22  1  0  0  0  0
 21 15  1  6  0  0  0
 21 23  1  0  0  0  0
 22 19  1  0  0  0  0
 23 19  1  0  0  0  0
 25 24  1  0  0  0  0
 26 28  2  0  0  0  0
 27 28  1  0  0  0  0
 28 11  1  0  0  0  0
 29 30  1  0  0  0  0
 30  8  1  6  0  0  0
 31 32  1  0  0  0  0
 31 30  1  0  0  0  0
 31 33  1  0  0  0  0
 32 29  1  0  0  0  0
 33 35  1  6  0  0  0
 33 36  1  0  0  0  0
 34 35  1  0  0  0  0
 36 37  1  0  0  0  0
 37 38  1  0  0  0  0
 39 38  2  0  0  0  0
 39 40  1  0  0  0  0
 40 41  1  6  0  0  0
 40 42  1  0  0  0  0
 43 40  1  0  0  0  0
 44 43  1  0  0  0  0
M  END
>  <MODEL>
3

>  <REMARK>
 VINA RESULT:      -5.8      2.949      6.404
  Name = 
  13 active torsions:
  status: ('A' for Active; 'I' for Inactive)
    1  A    between atoms: C_1  and  C_9
    2  A    between atoms: N_2  and  C_24
    3  A    between atoms: CA_4  and  N_41
    4  A    between atoms: CA_4  and  C_43
    5  A    between atoms: C_9  and  N_29
    6  A    between atoms: C_11  and  C_31
    7  A    between atoms: C_14  and  C_17
    8  A    between atoms: C_15  and  C_35
    9  A    between atoms: C_16  and  C_31
   10  A    between atoms: N_18  and  C_23
   11  A    between atoms: N_21  and  C_22
   12  A    between atoms: C_22  and  N_29
   13  A    between atoms: C_22  and  N_36
                            x       y       z     vdW  Elec       q    Type
                         _______ _______ _______ _____ _____    ______ ____

>  <TORSDO>
F 13

$$$$
=
 OpenBabel11062422403D

 44 47  0  0  1  0  0  0  0  0999 V2000
  192.9040  176.2850  146.8150 N   0  0  0  0  0  2  0  0  0  0  0  0
  190.6310  177.1390  147.2770 C   0  0  0  0  0  2  0  0  0  0  0  0
  188.9350  174.8760  144.6610 C   0  0  0  0  0  3  0  0  0  0  0  0
  192.3680  174.9740  146.4230 C   0  0  1  0  0  3  0  0  0  0  0  0
  190.9950  175.1350  145.8420 C   0  0  0  0  0  0  0  0  0  0  0  0
  190.3310  174.2560  144.8280 C   0  0  0  0  0  3  0  0  0  0  0  0
  190.1820  176.0560  146.3380 C   0  0  0  0  0  0  0  0  0  0  0  0
  187.8100  176.5920  146.1370 C   0  0  0  0  0  3  0  0  0  0  0  0
  188.8910  175.9430  145.7100 C   0  0  0  0  0  0  0  0  0  0  0  0
  192.0300  176.8200  147.8510 C   0  0  0  0  0  2  0  0  0  0  0  0
  194.5750  175.5380  143.7110 C   0  0  0  0  0  0  0  0  0  0  0  0
  193.9600  174.8550  144.6400 C   0  0  0  0  0  0  0  0  0  0  0  0
  193.3330  174.2030  145.5760 C   0  0  0  0  0  0  0  0  0  0  0  0
  193.2860  172.7790  145.5230 N   0  0  0  0  0  1  0  0  0  0  0  0
  194.1210  175.1010  139.9250 N   0  0  0  0  0  2  0  0  0  0  0  0
  195.5560  173.9190  141.3990 N   0  0  0  0  0  2  0  0  0  0  0  0
  194.6640  174.8470  141.2280 C   0  0  0  0  0  0  0  0  0  0  0  0
  194.1040  175.5440  142.3520 N   0  0  0  0  0  2  0  0  0  0  0  0
  195.2700  174.2270  136.5720 N   0  0  0  0  0  0  0  0  0  0  0  0
  193.1520  174.4220  137.7670 C   0  0  0  0  0  2  0  0  0  0  0  0
  194.2480  174.2140  138.7650 C   0  0  1  0  0  3  0  0  0  0  0  0
  193.8140  174.1930  136.4130 C   0  0  0  0  0  2  0  0  0  0  0  0
  195.5340  174.4580  137.9920 C   0  0  0  0  0  2  0  0  0  0  0  0
  197.2420  172.9770  135.8660 C   0  0  0  0  0  1  0  0  0  0  0  0
  195.7670  172.8990  136.2460 C   0  0  0  0  0  2  0  0  0  0  0  0
  197.0390  175.4200  143.9580 O   0  0  0  0  0  0  0  0  0  0  0  0
  195.9300  177.3800  144.3420 O   0  0  0  0  0  1  0  0  0  0  0  0
  195.8710  176.1630  144.0210 C   0  0  0  0  0  0  0  0  0  0  0  0
  185.3490  176.9150  146.5340 C   0  0  0  0  0  2  0  0  0  0  0  0
  186.4180  176.4460  145.5680 C   0  0  1  0  0  3  0  0  0  0  0  0
  186.1760  177.5490  144.6360 N   0  0  0  0  0  0  0  0  0  0  0  0
  185.1140  178.0120  145.5240 C   0  0  0  0  0  2  0  0  0  0  0  0
  185.5710  177.0390  143.3990 C   0  0  1  0  0  3  0  0  0  0  0  0
  183.9810  178.1730  142.1200 C   0  0  0  0  0  1  0  0  0  0  0  0
  185.3930  178.1380  142.4610 N   0  0  0  0  0  2  0  0  0  0  0  0
  186.4620  176.0530  142.8030 N   0  0  0  0  0  2  0  0  0  0  0  0
  187.2050  176.7470  141.7650 C   0  0  0  0  0  2  0  0  0  0  0  0
  188.4120  175.9520  141.3950 C   0  0  0  0  0  3  0  0  0  0  0  0
  188.3060  174.6440  141.1380 C   0  0  0  0  0  3  0  0  0  0  0  0
  189.4880  173.7980  140.7590 C   0  0  1  0  0  0  0  0  0  0  0  0
  189.5670  173.6620  139.2460 C   0  0  0  0  0  1  0  0  0  0  0  0
  190.7160  174.4160  141.2680 N   0  0  0  0  0  1  0  0  0  0  0  0
  189.3160  172.4180  141.3960 C   0  0  0  0  0  2  0  0  0  0  0  0
  188.1960  172.3880  142.3100 N   0  0  0  0  0  1  0  0  0  0  0  0
  1 10  1  0  0  0  0
  2 10  1  0  0  0  0
  3  6  2  0  0  0  0
  3  9  1  0  0  0  0
  4 13  1  6  0  0  0
  4  1  1  0  0  0  0
  5  7  2  0  0  0  0
  5  4  1  0  0  0  0
  6  5  1  0  0  0  0
  7  2  1  0  0  0  0
  9  8  2  0  0  0  0
  9  7  1  0  0  0  0
 11 28  1  0  0  0  0
 11 12  2  0  0  0  0
 12 13  2  0  0  0  0
 14 13  1  0  0  0  0
 15 17  1  0  0  0  0
 17 16  2  0  0  0  0
 17 18  1  0  0  0  0
 18 11  1  0  0  0  0
 19 23  1  0  0  0  0
 20 21  1  0  0  0  0
 21 15  1  1  0  0  0
 22 19  1  0  0  0  0
 22 20  1  0  0  0  0
 23 21  1  0  0  0  0
 24 25  1  0  0  0  0
 25 19  1  0  0  0  0
 26 28  2  0  0  0  0
 28 27  1  0  0  0  0
 30  8  1  1  0  0  0
 30 29  1  0  0  0  0
 31 32  1  0  0  0  0
 31 30  1  0  0  0  0
 32 29  1  0  0  0  0
 33 35  1  6  0  0  0
 33 31  1  0  0  0  0
 34 35  1  0  0  0  0
 36 33  1  0  0  0  0
 37 36  1  0  0  0  0
 38 37  1  0  0  0  0
 39 38  2  0  0  0  0
 40 41  1  6  0  0  0
 40 39  1  0  0  0  0
 40 42  1  0  0  0  0
 40 43  1  0  0  0  0
 43 44  1  0  0  0  0
M  END
>  <MODEL>
4

>  <REMARK>
 VINA RESULT:      -5.8      2.632      8.015
  Name = 
  13 active torsions:
  status: ('A' for Active; 'I' for Inactive)
    1  A    between atoms: C_1  and  C_9
    2  A    between atoms: N_2  and  C_24
    3  A    between atoms: CA_4  and  N_41
    4  A    between atoms: CA_4  and  C_43
    5  A    between atoms: C_9  and  N_29
    6  A    between atoms: C_11  and  C_31
    7  A    between atoms: C_14  and  C_17
    8  A    between atoms: C_15  and  C_35
    9  A    between atoms: C_16  and  C_31
   10  A    between atoms: N_18  and  C_23
   11  A    between atoms: N_21  and  C_22
   12  A    between atoms: C_22  and  N_29
   13  A    between atoms: C_22  and  N_36
                            x       y       z     vdW  Elec       q    Type
                         _______ _______ _______ _____ _____    ______ ____

>  <TORSDO>
F 13

$$$$
=
 OpenBabel11062422403D

 44 47  0  0  1  0  0  0  0  0999 V2000
  187.8830  174.9190  139.6940 N   0  0  0  0  0  2  0  0  0  0  0  0
  189.5750  173.4540  140.7420 C   0  0  0  0  0  2  0  0  0  0  0  0
  190.7580  176.1270  143.2500 C   0  0  0  0  0  3  0  0  0  0  0  0
  187.6940  175.6570  140.9510 C   0  0  1  0  0  3  0  0  0  0  0  0
  188.9670  175.6530  141.7430 C   0  0  0  0  0  0  0  0  0  0  0  0
  189.4280  176.6880  142.7210 C   0  0  0  0  0  2  0  0  0  0  0  0
  189.7450  174.5810  141.7200 C   0  0  0  0  0  0  0  0  0  0  0  0
  191.6700  173.7840  142.9920 C   0  0  0  0  0  2  0  0  0  0  0  0
  190.8370  174.7620  142.6420 C   0  0  0  0  0  0  0  0  0  0  0  0
  188.2000  173.5400  140.0430 C   0  0  0  0  0  2  0  0  0  0  0  0
  185.6030  177.9570  142.6470 C   0  0  0  0  0  0  0  0  0  0  0  0
  186.3440  177.4940  141.6740 C   0  0  0  0  0  0  0  0  0  0  0  0
  187.0880  177.0060  140.7240 C   0  0  0  0  0  0  0  0  0  0  0  0
  186.9950  177.5580  139.4130 N   0  0  0  0  0  1  0  0  0  0  0  0
  181.8410  178.2900  141.9650 N   0  0  0  0  0  2  0  0  0  0  0  0
  183.6650  179.0390  140.6460 N   0  0  0  0  0  2  0  0  0  0  0  0
  183.2460  178.4480  141.7230 C   0  0  0  0  0  0  0  0  0  0  0  0
  184.1720  177.8230  142.6270 N   0  0  0  0  0  2  0  0  0  0  0  0
  178.8900  179.9230  140.5700 N   0  0  0  0  0  0  0  0  0  0  0  0
  179.5490  177.6900  141.2990 C   0  0  0  0  0  2  0  0  0  0  0  0
  180.7830  178.4710  140.9680 C   0  0  1  0  0  3  0  0  0  0  0  0
  178.3980  178.5660  140.8170 C   0  0  0  0  0  2  0  0  0  0  0  0
  180.3210  179.9150  140.8740 C   0  0  0  0  0  2  0  0  0  0  0  0
  179.1090  181.6280  138.8390 C   0  0  0  0  0  1  0  0  0  0  0  0
  178.7470  180.1780  139.1450 C   0  0  0  0  0  2  0  0  0  0  0  0
  185.9350  180.1390  143.7770 O   0  0  0  0  0  0  0  0  0  0  0  0
  187.0330  178.2760  144.5130 O   0  0  0  0  0  1  0  0  0  0  0  0
  186.2290  178.7880  143.6890 C   0  0  0  0  0  0  0  0  0  0  0  0
  193.1000  172.5690  144.6640 C   0  0  0  0  0  2  0  0  0  0  0  0
  192.7760  173.8990  144.0140 C   0  0  1  0  0  3  0  0  0  0  0  0
  194.0580  173.9610  143.3110 N   0  0  0  0  0  0  0  0  0  0  0  0
  194.4210  172.6970  143.9450 C   0  0  0  0  0  2  0  0  0  0  0  0
  194.8900  175.0310  143.8750 C   0  0  1  0  0  3  0  0  0  0  0  0
  194.7530  176.2700  141.9010 C   0  0  0  0  0  1  0  0  0  0  0  0
  195.6850  175.6330  142.8140 N   0  0  0  0  0  2  0  0  0  0  0  0
  194.0280  176.0530  144.4520 N   0  0  0  0  0  2  0  0  0  0  0  0
  194.5660  176.3460  145.7700 C   0  0  0  0  0  2  0  0  0  0  0  0
  193.4490  176.4830  146.7490 C   0  0  0  0  0  3  0  0  0  0  0  0
  192.1790  176.4080  146.3380 C   0  0  0  0  0  3  0  0  0  0  0  0
  191.0160  176.5370  147.2820 C   0  0  1  0  0  0  0  0  0  0  0  0
  190.4340  175.1630  147.5800 C   0  0  0  0  0  1  0  0  0  0  0  0
  191.4630  177.1700  148.5260 N   0  0  0  0  0  1  0  0  0  0  0  0
  189.9560  177.4180  146.6200 C   0  0  0  0  0  2  0  0  0  0  0  0
  188.6730  177.2930  147.2730 N   0  0  0  0  0  1  0  0  0  0  0  0
  1 10  1  0  0  0  0
  1  4  1  0  0  0  0
  2  7  1  0  0  0  0
  4 13  1  6  0  0  0
  4  5  1  0  0  0  0
  5  6  1  0  0  0  0
  6  3  1  0  0  0  0
  7  5  2  0  0  0  0
  7  9  1  0  0  0  0
  9  8  1  0  0  0  0
  9  3  2  0  0  0  0
 10  2  1  0  0  0  0
 11 28  1  0  0  0  0
 12 11  2  0  0  0  0
 13 12  2  0  0  0  0
 14 13  1  0  0  0  0
 16 17  2  0  0  0  0
 17 15  1  0  0  0  0
 17 18  1  0  0  0  0
 18 11  1  0  0  0  0
 19 22  1  0  0  0  0
 19 23  1  0  0  0  0
 21 20  1  0  0  0  0
 21 15  1  1  0  0  0
 22 20  1  0  0  0  0
 23 21  1  0  0  0  0
 24 25  1  0  0  0  0
 25 19  1  0  0  0  0
 28 26  2  0  0  0  0
 28 27  1  0  0  0  0
 30  8  1  6  0  0  0
 30 29  1  0  0  0  0
 31 33  1  0  0  0  0
 31 32  1  0  0  0  0
 31 30  1  0  0  0  0
 32 29  1  0  0  0  0
 33 35  1  6  0  0  0
 33 36  1  0  0  0  0
 34 35  1  0  0  0  0
 36 37  1  0  0  0  0
 37 38  1  0  0  0  0
 39 38  2  0  0  0  0
 39 40  1  0  0  0  0
 40 41  1  1  0  0  0
 40 42  1  0  0  0  0
 43 44  1  0  0  0  0
 43 40  1  0  0  0  0
M  END
>  <MODEL>
5

>  <REMARK>
 VINA RESULT:      -5.8      3.176      6.947
  Name = 
  13 active torsions:
  status: ('A' for Active; 'I' for Inactive)
    1  A    between atoms: C_1  and  C_9
    2  A    between atoms: N_2  and  C_24
    3  A    between atoms: CA_4  and  N_41
    4  A    between atoms: CA_4  and  C_43
    5  A    between atoms: C_9  and  N_29
    6  A    between atoms: C_11  and  C_31
    7  A    between atoms: C_14  and  C_17
    8  A    between atoms: C_15  and  C_35
    9  A    between atoms: C_16  and  C_31
   10  A    between atoms: N_18  and  C_23
   11  A    between atoms: N_21  and  C_22
   12  A    between atoms: C_22  and  N_29
   13  A    between atoms: C_22  and  N_36
                            x       y       z     vdW  Elec       q    Type
                         _______ _______ _______ _____ _____    ______ ____

>  <TORSDO>
F 13

$$$$
=
 OpenBabel11062422403D

 44 47  0  0  1  0  0  0  0  0999 V2000
  195.0990  175.8070  144.6850 N   0  0  0  0  0  2  0  0  0  0  0  0
  193.0880  177.1650  145.1510 C   0  0  0  0  0  2  0  0  0  0  0  0
  190.6800  174.1610  145.0410 C   0  0  0  0  0  3  0  0  0  0  0  0
  194.4990  174.6340  145.3350 C   0  0  1  0  0  3  0  0  0  0  0  0
  193.0070  174.6750  145.1890 C   0  0  0  0  0  0  0  0  0  0  0  0
  192.0680  173.5100  145.1500 C   0  0  0  0  0  3  0  0  0  0  0  0
  192.3810  175.8420  145.2300 C   0  0  0  0  0  0  0  0  0  0  0  0
  190.0640  176.5830  145.4210 C   0  0  0  0  0  3  0  0  0  0  0  0
  190.9580  175.6240  145.1910 C   0  0  0  0  0  0  0  0  0  0  0  0
  194.6060  176.9890  145.3810 C   0  0  0  0  0  2  0  0  0  0  0  0
  195.5510  173.0680  142.3380 C   0  0  0  0  0  0  0  0  0  0  0  0
  195.3550  173.1970  143.6240 C   0  0  0  0  0  0  0  0  0  0  0  0
  195.1470  173.3570  144.8980 C   0  0  0  0  0  0  0  0  0  0  0  0
  195.1800  172.2200  145.7580 N   0  0  0  0  0  1  0  0  0  0  0  0
  192.7260  171.9750  139.9810 N   0  0  0  0  0  2  0  0  0  0  0  0
  193.6640  174.1340  140.2800 N   0  0  0  0  0  2  0  0  0  0  0  0
  193.6450  172.8780  140.6110 C   0  0  0  0  0  0  0  0  0  0  0  0
  194.6280  172.3400  141.5100 N   0  0  0  0  0  2  0  0  0  0  0  0
  190.8060  171.0300  137.0240 N   0  0  0  0  0  0  0  0  0  0  0  0
  192.8400  172.2720  137.5400 C   0  0  0  0  0  2  0  0  0  0  0  0
  191.9680  172.2520  138.7570 C   0  0  1  0  0  3  0  0  0  0  0  0
  191.9680  171.6950  136.4310 C   0  0  0  0  0  2  0  0  0  0  0  0
  190.9220  171.1870  138.4730 C   0  0  0  0  0  2  0  0  0  0  0  0
  189.3910  171.5520  135.1060 C   0  0  0  0  0  1  0  0  0  0  0  0
  189.6260  171.7680  136.5970 C   0  0  0  0  0  2  0  0  0  0  0  0
  197.4530  174.6560  142.2410 O   0  0  0  0  0  1  0  0  0  0  0  0
  197.3680  172.8650  140.8270 O   0  0  0  0  0  0  0  0  0  0  0  0
  196.8280  173.5170  141.7600 C   0  0  0  0  0  0  0  0  0  0  0  0
  188.0850  176.0060  146.8590 C   0  0  0  0  0  2  0  0  0  0  0  0
  188.5670  176.3900  145.4740 C   0  0  1  0  0  3  0  0  0  0  0  0
  187.9270  177.7060  145.5280 N   0  0  0  0  0  0  0  0  0  0  0  0
  187.4150  177.3580  146.8500 C   0  0  0  0  0  2  0  0  0  0  0  0
  186.8040  177.7590  144.5830 C   0  0  1  0  0  3  0  0  0  0  0  0
  184.6210  178.5450  144.8360 C   0  0  0  0  0  1  0  0  0  0  0  0
  186.0140  178.9540  144.8400 N   0  0  0  0  0  2  0  0  0  0  0  0
  187.3250  177.8230  143.2250 N   0  0  0  0  0  2  0  0  0  0  0  0
  186.6760  176.7540  142.4860 C   0  0  0  0  0  2  0  0  0  0  0  0
  187.7090  175.8810  141.8550 C   0  0  0  0  0  3  0  0  0  0  0  0
  187.7860  174.5860  142.1760 C   0  0  0  0  0  3  0  0  0  0  0  0
  188.8040  173.6630  141.5680 C   0  0  1  0  0  0  0  0  0  0  0  0
  190.1500  174.3650  141.4700 C   0  0  0  0  0  1  0  0  0  0  0  0
  188.9290  172.4580  142.3940 N   0  0  0  0  0  1  0  0  0  0  0  0
  188.3210  173.2680  140.1710 C   0  0  0  0  0  2  0  0  0  0  0  0
  188.8610  174.1410  139.1530 N   0  0  0  0  0  1  0  0  0  0  0  0
  1  4  1  0  0  0  0
  1 10  1  0  0  0  0
  2  7  1  0  0  0  0
  2 10  1  0  0  0  0
  3  6  2  0  0  0  0
  3  9  1  0  0  0  0
  4 13  1  6  0  0  0
  5  7  2  0  0  0  0
  5  4  1  0  0  0  0
  6  5  1  0  0  0  0
  9  7  1  0  0  0  0
  9  8  2  0  0  0  0
 11 12  2  0  0  0  0
 12 13  2  0  0  0  0
 13 14  1  0  0  0  0
 15 17  1  0  0  0  0
 16 17  2  0  0  0  0
 17 18  1  0  0  0  0
 18 11  1  0  0  0  0
 19 23  1  0  0  0  0
 20 21  1  0  0  0  0
 21 15  1  1  0  0  0
 22 19  1  0  0  0  0
 22 20  1  0  0  0  0
 23 21  1  0  0  0  0
 24 25  1  0  0  0  0
 25 19  1  0  0  0  0
 27 28  2  0  0  0  0
 28 26  1  0  0  0  0
 28 11  1  0  0  0  0
 30  8  1  1  0  0  0
 30 31  1  0  0  0  0
 30 29  1  0  0  0  0
 31 32  1  0  0  0  0
 32 29  1  0  0  0  0
 33 36  1  6  0  0  0
 33 35  1  0  0  0  0
 33 31  1  0  0  0  0
 34 35  1  0  0  0  0
 37 36  1  0  0  0  0
 38 39  2  0  0  0  0
 38 37  1  0  0  0  0
 40 41  1  6  0  0  0
 40 39  1  0  0  0  0
 40 42  1  0  0  0  0
 43 40  1  0  0  0  0
 44 43  1  0  0  0  0
M  END
>  <MODEL>
6

>  <REMARK>
 VINA RESULT:      -5.6      2.668      7.782
  Name = 
  13 active torsions:
  status: ('A' for Active; 'I' for Inactive)
    1  A    between atoms: C_1  and  C_9
    2  A    between atoms: N_2  and  C_24
    3  A    between atoms: CA_4  and  N_41
    4  A    between atoms: CA_4  and  C_43
    5  A    between atoms: C_9  and  N_29
    6  A    between atoms: C_11  and  C_31
    7  A    between atoms: C_14  and  C_17
    8  A    between atoms: C_15  and  C_35
    9  A    between atoms: C_16  and  C_31
   10  A    between atoms: N_18  and  C_23
   11  A    between atoms: N_21  and  C_22
   12  A    between atoms: C_22  and  N_29
   13  A    between atoms: C_22  and  N_36
                            x       y       z     vdW  Elec       q    Type
                         _______ _______ _______ _____ _____    ______ ____

>  <TORSDO>
F 13

$$$$
=
 OpenBabel11062422403D

 44 47  0  0  1  0  0  0  0  0999 V2000
  190.2410  176.5250  146.3900 N   0  0  0  0  0  2  0  0  0  0  0  0
  191.9840  174.9260  147.1060 C   0  0  0  0  0  2  0  0  0  0  0  0
  193.8840  175.0520  143.7580 C   0  0  0  0  0  3  0  0  0  0  0  0
  191.1830  177.2000  145.4870 C   0  0  1  0  0  3  0  0  0  0  0  0
  192.2050  176.2220  144.9890 C   0  0  0  0  0  0  0  0  0  0  0  0
  192.9480  176.2690  143.6910 C   0  0  0  0  0  3  0  0  0  0  0  0
  192.6390  175.2660  145.7970 C   0  0  0  0  0  0  0  0  0  0  0  0
  194.4650  173.6460  145.7760 C   0  0  0  0  0  3  0  0  0  0  0  0
  193.6940  174.5320  145.1480 C   0  0  0  0  0  0  0  0  0  0  0  0
  191.0050  176.0430  147.5330 C   0  0  0  0  0  2  0  0  0  0  0  0
  188.3150  176.9170  143.4290 C   0  0  0  0  0  0  0  0  0  0  0  0
  189.3970  177.4640  143.9160 C   0  0  0  0  0  0  0  0  0  0  0  0
  190.4790  177.9830  144.4230 C   0  0  0  0  0  0  0  0  0  0  0  0
  191.1430  179.0310  143.7220 N   0  0  0  0  0  1  0  0  0  0  0  0
  188.9860  174.3660  140.6410 N   0  0  0  0  0  2  0  0  0  0  0  0
  189.3510  174.1510  142.9750 N   0  0  0  0  0  2  0  0  0  0  0  0
  188.9510  174.8820  141.9790 C   0  0  0  0  0  0  0  0  0  0  0  0
  188.3440  176.1630  142.2050 N   0  0  0  0  0  2  0  0  0  0  0  0
  190.6540  171.5920  138.9550 N   0  0  0  0  0  0  0  0  0  0  0  0
  188.4340  172.6000  139.0190 C   0  0  0  0  0  2  0  0  0  0  0  0
  189.1600  172.9570  140.2790 C   0  0  1  0  0  3  0  0  0  0  0  0
  189.3250  171.5660  138.3400 C   0  0  0  0  0  2  0  0  0  0  0  0
  190.6130  172.6070  140.0080 C   0  0  0  0  0  2  0  0  0  0  0  0
  192.3180  170.1420  139.9960 C   0  0  0  0  0  1  0  0  0  0  0  0
  190.8540  170.3020  139.5980 C   0  0  0  0  0  2  0  0  0  0  0  0
  186.8510  178.3950  144.7800 O   0  0  0  0  0  1  0  0  0  0  0  0
  186.0390  176.4480  143.9040 O   0  0  0  0  0  0  0  0  0  0  0  0
  187.0160  177.2320  144.0450 C   0  0  0  0  0  0  0  0  0  0  0  0
  196.8180  172.8280  146.1070 C   0  0  0  0  0  2  0  0  0  0  0  0
  195.6350  172.9130  145.1640 C   0  0  1  0  0  3  0  0  0  0  0  0
  195.3730  171.4740  145.2340 N   0  0  0  0  0  0  0  0  0  0  0  0
  196.5280  171.3470  146.1170 C   0  0  0  0  0  2  0  0  0  0  0  0
  195.6880  170.8430  143.9460 C   0  0  1  0  0  3  0  0  0  0  0  0
  193.6900  169.7020  144.3430 C   0  0  0  0  0  1  0  0  0  0  0  0
  195.0580  169.5320  143.8850 N   0  0  0  0  0  2  0  0  0  0  0  0
  195.1610  171.6670  142.8680 N   0  0  0  0  0  2  0  0  0  0  0  0
  196.1760  171.6810  141.8290 C   0  0  0  0  0  2  0  0  0  0  0  0
  196.8240  173.0240  141.7780 C   0  0  0  0  0  3  0  0  0  0  0  0
  196.2180  174.0420  141.1570 C   0  0  0  0  0  3  0  0  0  0  0  0
  196.8240  175.4150  141.0790 C   0  0  1  0  0  0  0  0  0  0  0  0
  197.7040  175.5260  139.8440 C   0  0  0  0  0  1  0  0  0  0  0  0
  195.7570  176.4190  141.0230 N   0  0  0  0  0  1  0  0  0  0  0  0
  197.6640  175.6410  142.3370 C   0  0  0  0  0  2  0  0  0  0  0  0
  197.1590  176.7420  143.1270 N   0  0  0  0  0  1  0  0  0  0  0  0
  1 10  1  0  0  0  0
  2 10  1  0  0  0  0
  3  9  1  0  0  0  0
  4 13  1  6  0  0  0
  4  1  1  0  0  0  0
  5  4  1  0  0  0  0
  5  7  2  0  0  0  0
  6  3  2  0  0  0  0
  6  5  1  0  0  0  0
  7  2  1  0  0  0  0
  9  8  2  0  0  0  0
  9  7  1  0  0  0  0
 11 12  2  0  0  0  0
 11 28  1  0  0  0  0
 12 13  2  0  0  0  0
 14 13  1  0  0  0  0
 15 17  1  0  0  0  0
 17 18  1  0  0  0  0
 17 16  2  0  0  0  0
 18 11  1  0  0  0  0
 19 25  1  0  0  0  0
 19 23  1  0  0  0  0
 20 21  1  0  0  0  0
 21 15  1  6  0  0  0
 22 19  1  0  0  0  0
 22 20  1  0  0  0  0
 23 21  1  0  0  0  0
 25 24  1  0  0  0  0
 27 28  2  0  0  0  0
 28 26  1  0  0  0  0
 29 32  1  0  0  0  0
 30 31  1  0  0  0  0
 30  8  1  1  0  0  0
 30 29  1  0  0  0  0
 31 32  1  0  0  0  0
 33 36  1  6  0  0  0
 33 31  1  0  0  0  0
 35 33  1  0  0  0  0
 35 34  1  0  0  0  0
 37 36  1  0  0  0  0
 38 37  1  0  0  0  0
 39 38  2  0  0  0  0
 40 41  1  6  0  0  0
 40 39  1  0  0  0  0
 40 43  1  0  0  0  0
 42 40  1  0  0  0  0
 43 44  1  0  0  0  0
M  END
>  <MODEL>
7

>  <REMARK>
 VINA RESULT:      -5.6      2.663      6.646
  Name = 
  13 active torsions:
  status: ('A' for Active; 'I' for Inactive)
    1  A    between atoms: C_1  and  C_9
    2  A    between atoms: N_2  and  C_24
    3  A    between atoms: CA_4  and  N_41
    4  A    between atoms: CA_4  and  C_43
    5  A    between atoms: C_9  and  N_29
    6  A    between atoms: C_11  and  C_31
    7  A    between atoms: C_14  and  C_17
    8  A    between atoms: C_15  and  C_35
    9  A    between atoms: C_16  and  C_31
   10  A    between atoms: N_18  and  C_23
   11  A    between atoms: N_21  and  C_22
   12  A    between atoms: C_22  and  N_29
   13  A    between atoms: C_22  and  N_36
                            x       y       z     vdW  Elec       q    Type
                         _______ _______ _______ _____ _____    ______ ____

>  <TORSDO>
F 13

$$$$
=
 OpenBabel11062422403D

 44 47  0  0  1  0  0  0  0  0999 V2000
  192.6670  176.4760  147.4790 N   0  0  0  0  0  2  0  0  0  0  0  0
  190.2360  176.0510  147.5900 C   0  0  0  0  0  2  0  0  0  0  0  0
  189.5600  177.3030  144.0110 C   0  0  0  0  0  3  0  0  0  0  0  0
  192.6750  176.2450  146.0280 C   0  0  1  0  0  3  0  0  0  0  0  0
  191.3520  176.6330  145.4400 C   0  0  0  0  0  0  0  0  0  0  0  0
  191.0850  177.1170  144.0490 C   0  0  0  0  0  3  0  0  0  0  0  0
  190.2440  176.4190  146.1340 C   0  0  0  0  0  0  0  0  0  0  0  0
  187.8480  176.4600  145.6690 C   0  0  0  0  0  3  0  0  0  0  0  0
  189.1000  176.7560  145.3260 C   0  0  0  0  0  0  0  0  0  0  0  0
  191.6440  175.6110  148.0510 C   0  0  0  0  0  2  0  0  0  0  0  0
  194.8850  175.5590  143.3460 C   0  0  0  0  0  0  0  0  0  0  0  0
  194.3890  176.2230  144.3580 C   0  0  0  0  0  0  0  0  0  0  0  0
  193.8710  176.8590  145.3680 C   0  0  0  0  0  0  0  0  0  0  0  0
  194.6400  177.8610  146.0290 N   0  0  0  0  0  1  0  0  0  0  0  0
  197.2580  172.6790  144.2420 N   0  0  0  0  0  2  0  0  0  0  0  0
  194.8860  172.6970  144.2040 N   0  0  0  0  0  2  0  0  0  0  0  0
  196.0010  173.3390  144.0350 C   0  0  0  0  0  0  0  0  0  0  0  0
  196.0070  174.6760  143.5090 N   0  0  0  0  0  2  0  0  0  0  0  0
  196.3060  169.1960  143.7130 N   0  0  0  0  0  0  0  0  0  0  0  0
  196.8200  170.6670  145.5900 C   0  0  0  0  0  2  0  0  0  0  0  0
  197.4470  171.2300  144.3520 C   0  0  1  0  0  3  0  0  0  0  0  0
  196.3190  169.2880  145.1750 C   0  0  0  0  0  2  0  0  0  0  0  0
  196.7970  170.4760  143.2040 C   0  0  0  0  0  2  0  0  0  0  0  0
  197.4660  168.1720  141.8260 C   0  0  0  0  0  1  0  0  0  0  0  0
  197.2750  168.1760  143.3400 C   0  0  0  0  0  2  0  0  0  0  0  0
  195.1930  176.5860  141.1100 O   0  0  0  0  0  0  0  0  0  0  0  0
  193.2710  175.4590  141.6110 O   0  0  0  0  0  1  0  0  0  0  0  0
  194.4040  175.8620  141.9880 C   0  0  0  0  0  0  0  0  0  0  0  0
  185.7310  177.7890  145.4090 C   0  0  0  0  0  2  0  0  0  0  0  0
  186.6240  176.7150  144.8220 C   0  0  1  0  0  3  0  0  0  0  0  0
  187.0110  177.5470  143.6800 N   0  0  0  0  0  0  0  0  0  0  0  0
  186.1330  178.5920  144.1960 C   0  0  0  0  0  2  0  0  0  0  0  0
  186.4300  177.0060  142.4440 C   0  0  1  0  0  3  0  0  0  0  0  0
  185.8920  177.9310  140.3700 C   0  0  0  0  0  1  0  0  0  0  0  0
  186.9860  177.7150  141.3010 N   0  0  0  0  0  2  0  0  0  0  0  0
  186.7710  175.5950  142.3330 N   0  0  0  0  0  2  0  0  0  0  0  0
  187.8570  175.5100  141.3720 C   0  0  0  0  0  2  0  0  0  0  0  0
  188.7410  174.3580  141.7150 C   0  0  0  0  0  3  0  0  0  0  0  0
  189.0580  174.1060  142.9880 C   0  0  0  0  0  3  0  0  0  0  0  0
  189.9410  172.9570  143.3880 C   0  0  1  0  0  0  0  0  0  0  0  0
  190.3390  173.0900  144.8500 C   0  0  0  0  0  1  0  0  0  0  0  0
  189.2260  171.6940  143.1790 N   0  0  0  0  0  1  0  0  0  0  0  0
  191.1900  172.9820  142.5060 C   0  0  0  0  0  2  0  0  0  0  0  0
  191.3980  171.7170  141.8370 N   0  0  0  0  0  1  0  0  0  0  0  0
  1 10  1  0  0  0  0
  2 10  1  0  0  0  0
  3  6  2  0  0  0  0
  3  9  1  0  0  0  0
  4 13  1  6  0  0  0
  4  1  1  0  0  0  0
  5  4  1  0  0  0  0
  5  7  2  0  0  0  0
  6  5  1  0  0  0  0
  7  2  1  0  0  0  0
  9  8  2  0  0  0  0
  9  7  1  0  0  0  0
 11 18  1  0  0  0  0
 11 12  2  0  0  0  0
 12 13  2  0  0  0  0
 13 14  1  0  0  0  0
 17 16  2  0  0  0  0
 17 15  1  0  0  0  0
 18 17  1  0  0  0  0
 19 22  1  0  0  0  0
 21 15  1  6  0  0  0
 21 20  1  0  0  0  0
 22 20  1  0  0  0  0
 23 19  1  0  0  0  0
 23 21  1  0  0  0  0
 24 25  1  0  0  0  0
 25 19  1  0  0  0  0
 26 28  2  0  0  0  0
 27 28  1  0  0  0  0
 28 11  1  0  0  0  0
 30 29  1  0  0  0  0
 30  8  1  1  0  0  0
 31 32  1  0  0  0  0
 31 30  1  0  0  0  0
 32 29  1  0  0  0  0
 33 35  1  6  0  0  0
 33 31  1  0  0  0  0
 34 35  1  0  0  0  0
 36 33  1  0  0  0  0
 37 38  1  0  0  0  0
 37 36  1  0  0  0  0
 38 39  2  0  0  0  0
 39 40  1  0  0  0  0
 40 41  1  1  0  0  0
 42 40  1  0  0  0  0
 43 40  1  0  0  0  0
 44 43  1  0  0  0  0
M  END
>  <MODEL>
8

>  <REMARK>
 VINA RESULT:      -5.4      3.147      8.372
  Name = 
  13 active torsions:
  status: ('A' for Active; 'I' for Inactive)
    1  A    between atoms: C_1  and  C_9
    2  A    between atoms: N_2  and  C_24
    3  A    between atoms: CA_4  and  N_41
    4  A    between atoms: CA_4  and  C_43
    5  A    between atoms: C_9  and  N_29
    6  A    between atoms: C_11  and  C_31
    7  A    between atoms: C_14  and  C_17
    8  A    between atoms: C_15  and  C_35
    9  A    between atoms: C_16  and  C_31
   10  A    between atoms: N_18  and  C_23
   11  A    between atoms: N_21  and  C_22
   12  A    between atoms: C_22  and  N_29
   13  A    between atoms: C_22  and  N_36
                            x       y       z     vdW  Elec       q    Type
                         _______ _______ _______ _____ _____    ______ ____

>  <TORSDO>
F 13

$$$$
=
 OpenBabel11062422403D

 44 47  0  0  1  0  0  0  0  0999 V2000
  190.5220  175.0710  141.9990 N   0  0  0  0  0  2  0  0  0  0  0  0
  191.4370  172.7890  142.2490 C   0  0  0  0  0  2  0  0  0  0  0  0
  193.2800  173.5770  145.5390 C   0  0  0  0  0  3  0  0  0  0  0  0
  190.5000  175.2590  143.4560 C   0  0  1  0  0  3  0  0  0  0  0  0
  191.5970  174.4590  144.0920 C   0  0  0  0  0  0  0  0  0  0  0  0
  192.3130  174.7600  145.3720 C   0  0  0  0  0  2  0  0  0  0  0  0
  191.9190  173.2780  143.5860 C   0  0  0  0  0  0  0  0  0  0  0  0
  193.2760  171.3770  144.2950 C   0  0  0  0  0  2  0  0  0  0  0  0
  192.9050  172.6490  144.4270 C   0  0  0  0  0  0  0  0  0  0  0  0
  190.2680  173.6600  141.7390 C   0  0  0  0  0  2  0  0  0  0  0  0
  188.2950  177.5500  145.0150 C   0  0  0  0  0  0  0  0  0  0  0  0
  189.3880  177.1430  144.4250 C   0  0  0  0  0  0  0  0  0  0  0  0
  190.4640  176.7060  143.8360 C   0  0  0  0  0  0  0  0  0  0  0  0
  191.3660  177.6410  143.2490 N   0  0  0  0  0  1  0  0  0  0  0  0
  185.3090  178.4010  142.7580 N   0  0  0  0  0  2  0  0  0  0  0  0
  185.9300  176.3040  143.6790 N   0  0  0  0  0  2  0  0  0  0  0  0
  186.1780  177.5710  143.5430 C   0  0  0  0  0  0  0  0  0  0  0  0
  187.2430  178.1950  144.2780 N   0  0  0  0  0  2  0  0  0  0  0  0
  182.3050  178.8030  140.7250 N   0  0  0  0  0  0  0  0  0  0  0  0
  182.8920  178.7210  143.0910 C   0  0  0  0  0  2  0  0  0  0  0  0
  183.9650  178.0320  142.3060 C   0  0  1  0  0  3  0  0  0  0  0  0
  181.7790  178.9780  142.0810 C   0  0  0  0  0  2  0  0  0  0  0  0
  183.7130  178.4320  140.8620 C   0  0  0  0  0  2  0  0  0  0  0  0
  180.1050  177.9300  140.1310 C   0  0  0  0  0  1  0  0  0  0  0  0
  181.6080  177.6670  140.1390 C   0  0  0  0  0  2  0  0  0  0  0  0
  186.9910  177.4480  147.1220 O   0  0  0  0  0  0  0  0  0  0  0  0
  189.2730  177.5340  147.1760 O   0  0  0  0  0  1  0  0  0  0  0  0
  188.2200  177.5130  146.4840 C   0  0  0  0  0  0  0  0  0  0  0  0
  193.9880  169.1540  145.2270 C   0  0  0  0  0  2  0  0  0  0  0  0
  194.2410  170.6480  145.2000 C   0  0  1  0  0  3  0  0  0  0  0  0
  195.5180  170.5010  144.5010 N   0  0  0  0  0  0  0  0  0  0  0  0
  195.3270  169.0550  144.5380 C   0  0  0  0  0  2  0  0  0  0  0  0
  196.6260  170.8570  145.3960 C   0  0  1  0  0  3  0  0  0  0  0  0
  197.6050  170.5140  143.3050 C   0  0  0  0  0  1  0  0  0  0  0  0
  197.8180  171.1250  144.6050 N   0  0  0  0  0  2  0  0  0  0  0  0
  196.2740  172.0590  146.1380 N   0  0  0  0  0  2  0  0  0  0  0  0
  197.3310  173.0230  145.8810 C   0  0  0  0  0  2  0  0  0  0  0  0
  196.7340  174.3130  145.4280 C   0  0  0  0  0  3  0  0  0  0  0  0
  196.4720  174.5170  144.1330 C   0  0  0  0  0  3  0  0  0  0  0  0
  195.8680  175.7960  143.6240 C   0  0  1  0  0  0  0  0  0  0  0  0
  194.7730  175.4890  142.6130 C   0  0  0  0  0  1  0  0  0  0  0  0
  195.3110  176.5560  144.7470 N   0  0  0  0  0  1  0  0  0  0  0  0
  196.9740  176.6170  142.9580 C   0  0  0  0  0  2  0  0  0  0  0  0
  197.6410  175.8700  141.9150 N   0  0  0  0  0  1  0  0  0  0  0  0
  1  4  1  0  0  0  0
  2  7  1  0  0  0  0
  4 13  1  6  0  0  0
  4  5  1  0  0  0  0
  5  6  1  0  0  0  0
  6  3  1  0  0  0  0
  7  5  2  0  0  0  0
  7  9  1  0  0  0  0
  8  9  1  0  0  0  0
  9  3  2  0  0  0  0
 10  1  1  0  0  0  0
 10  2  1  0  0  0  0
 11 28  1  0  0  0  0
 12 11  2  0  0  0  0
 13 12  2  0  0  0  0
 14 13  1  0  0  0  0
 15 17  1  0  0  0  0
 17 16  2  0  0  0  0
 17 18  1  0  0  0  0
 18 11  1  0  0  0  0
 19 23  1  0  0  0  0
 19 22  1  0  0  0  0
 21 15  1  1  0  0  0
 21 20  1  0  0  0  0
 22 20  1  0  0  0  0
 23 21  1  0  0  0  0
 24 25  1  0  0  0  0
 25 19  1  0  0  0  0
 28 26  2  0  0  0  0
 28 27  1  0  0  0  0
 30  8  1  6  0  0  0
 30 29  1  0  0  0  0
 31 32  1  0  0  0  0
 31 30  1  0  0  0  0
 31 33  1  0  0  0  0
 32 29  1  0  0  0  0
 33 35  1  6  0  0  0
 33 36  1  0  0  0  0
 34 35  1  0  0  0  0
 37 36  1  0  0  0  0
 38 37  1  0  0  0  0
 39 38  2  0  0  0  0
 40 41  1  6  0  0  0
 40 39  1  0  0  0  0
 40 42  1  0  0  0  0
 43 40  1  0  0  0  0
 44 43  1  0  0  0  0
M  END
>  <MODEL>
9

>  <REMARK>
 VINA RESULT:      -5.3      2.887      5.779
  Name = 
  13 active torsions:
  status: ('A' for Active; 'I' for Inactive)
    1  A    between atoms: C_1  and  C_9
    2  A    between atoms: N_2  and  C_24
    3  A    between atoms: CA_4  and  N_41
    4  A    between atoms: CA_4  and  C_43
    5  A    between atoms: C_9  and  N_29
    6  A    between atoms: C_11  and  C_31
    7  A    between atoms: C_14  and  C_17
    8  A    between atoms: C_15  and  C_35
    9  A    between atoms: C_16  and  C_31
   10  A    between atoms: N_18  and  C_23
   11  A    between atoms: N_21  and  C_22
   12  A    between atoms: C_22  and  N_29
   13  A    between atoms: C_22  and  N_36
                            x       y       z     vdW  Elec       q    Type
                         _______ _______ _______ _____ _____    ______ ____

>  <TORSDO>
F 13

$$$$
