=
 OpenBabel11072408493D

 26 28  0  0  1  0  0  0  0  0999 V2000
  187.8680  176.3750  146.0860 C   0  0  0  0  0  2  0  0  0  0  0  0
  189.1880  175.8130  145.5840 C   0  0  2  0  0  3  0  0  0  0  0  0
  188.9650  174.9120  144.5400 O   0  0  0  0  0  1  0  0  0  0  0  0
  189.3200  174.5230  147.5380 O   0  0  0  0  0  0  0  0  0  0  0  0
  189.9460  175.1450  146.6940 C   0  0  0  0  0  0  0  0  0  0  0  0
  192.0480  176.3120  147.5790 C   0  0  2  0  0  3  0  0  0  0  0  0
  192.0350  176.3880  146.0630 C   0  0  2  0  0  3  0  0  0  0  0  0
  191.4570  175.1620  146.7580 C   0  0  2  0  0  3  0  0  0  0  0  0
  191.0730  177.1740  148.0880 O   0  0  0  0  0  1  0  0  0  0  0  0
  193.9160  174.6950  145.8780 C   0  0  0  0  0  2  0  0  0  0  0  0
  193.4090  176.0620  145.4870 C   0  0  0  0  0  0  0  0  0  0  0  0
  193.6930  176.3740  144.1550 O   0  0  0  0  0  1  0  0  0  0  0  0
  194.6030  175.9470  146.4090 C   0  0  0  0  0  2  0  0  0  0  0  0
  186.9470  176.6780  144.9170 C   0  0  0  0  0  2  0  0  0  0  0  0
  187.2770  178.0400  144.3260 C   0  0  2  0  0  3  0  0  0  0  0  0
  188.4620  177.3420  142.3770 O   0  0  0  0  0  0  0  0  0  0  0  0
  185.6370  179.2520  143.1350 C   0  0  0  0  0  3  0  0  0  0  0  0
  186.4630  178.6350  142.0440 C   0  0  1  0  0  3  0  0  0  0  0  0
  186.0790  178.9230  144.3440 C   0  0  0  0  0  0  0  0  0  0  0  0
  187.4980  177.9160  142.8600 C   0  0  0  0  0  0  0  0  0  0  0  0
  185.6620  177.6920  141.2510 N   0  0  0  0  0  0  0  0  0  0  0  0
  186.2660  177.5710  139.9320 C   0  0  0  0  0  1  0  0  0  0  0  0
  184.3510  178.2810  141.0100 C   0  0  0  0  0  1  0  0  0  0  0  0
  185.4850  179.3680  145.5280 O   0  0  0  0  0  0  0  0  0  0  0  0
  184.2490  178.0260  146.7090 C   0  0  0  0  0  1  0  0  0  0  0  0
  184.2020  179.0980  145.8150 O   0  0  0  0  0  0  0  0  0  0  0  0
  2  3  1  6  0  0  0
  2  1  1  0  0  0  0
  2  5  1  0  0  0  0
  5  4  2  0  0  0  0
  6  9  1  1  0  0  0
  7 11  1  6  0  0  0
  7  8  1  0  0  0  0
  7  6  1  0  0  0  0
  8  5  1  1  0  0  0
  8  6  1  0  0  0  0
 10 13  1  0  0  0  0
 11 10  1  0  0  0  0
 11 13  1  0  0  0  0
 12 11  1  0  0  0  0
 14  1  1  0  0  0  0
 15 19  1  0  0  0  0
 15 14  1  6  0  0  0
 16 20  2  0  0  0  0
 17 19  2  0  0  0  0
 18 21  1  1  0  0  0
 18 20  1  0  0  0  0
 18 17  1  0  0  0  0
 19 24  1  0  0  0  0
 20 15  1  0  0  0  0
 22 21  1  0  0  0  0
 23 21  1  0  0  0  0
 24 26  1  0  0  0  0
 26 25  1  0  0  0  0
M  END
>  <MODEL>
1

>  <REMARK>
 VINA RESULT:      -6.5      0.000      0.000
  Name = 
  9 active torsions:
  status: ('A' for Active; 'I' for Inactive)
    1  A    between atoms: O_2  and  C_19
    2  A    between atoms: O_2  and  O_21
    3  A    between atoms: C_3  and  C_16
    4  A    between atoms: N_5  and  C_17
    5  A    between atoms: C_8  and  C_14
    6  A    between atoms: C_13  and  C_14
    7  A    between atoms: C_13  and  C_22
    8  A    between atoms: C_18  and  C_23
    9  A    between atoms: C_22  and  C_23
                            x       y       z     vdW  Elec       q    Type
                         _______ _______ _______ _____ _____    ______ ____

>  <TORSDO>
F 9

$$$$
=
 OpenBabel11072408493D

 26 28  0  0  1  0  0  0  0  0999 V2000
  187.9050  176.5910  146.4520 C   0  0  0  0  0  2  0  0  0  0  0  0
  189.0540  175.6000  146.3550 C   0  0  2  0  0  3  0  0  0  0  0  0
  188.8940  174.5790  147.2950 O   0  0  0  0  0  1  0  0  0  0  0  0
  190.5250  176.9970  147.5310 O   0  0  0  0  0  0  0  0  0  0  0  0
  190.3750  176.2850  146.5510 C   0  0  0  0  0  0  0  0  0  0  0  0
  191.7090  177.1450  144.5400 C   0  0  2  0  0  3  0  0  0  0  0  0
  191.0720  175.8140  144.1840 C   0  0  2  0  0  3  0  0  0  0  0  0
  191.5400  176.0640  145.6120 C   0  0  2  0  0  3  0  0  0  0  0  0
  190.7150  178.1260  144.5950 O   0  0  0  0  0  1  0  0  0  0  0  0
  193.1650  175.6630  142.7570 C   0  0  0  0  0  2  0  0  0  0  0  0
  192.0640  174.9080  143.4620 C   0  0  0  0  0  0  0  0  0  0  0  0
  192.5310  173.7510  144.0910 O   0  0  0  0  0  1  0  0  0  0  0  0
  192.1180  174.9070  141.9500 C   0  0  0  0  0  2  0  0  0  0  0  0
  187.1800  176.6870  145.1210 C   0  0  0  0  0  2  0  0  0  0  0  0
  187.4280  178.0460  144.4840 C   0  0  2  0  0  3  0  0  0  0  0  0
  188.4260  177.3390  142.4360 O   0  0  0  0  0  0  0  0  0  0  0  0
  185.6590  179.2160  143.4460 C   0  0  0  0  0  3  0  0  0  0  0  0
  186.3830  178.5970  142.2870 C   0  0  1  0  0  3  0  0  0  0  0  0
  186.2230  178.9110  144.6090 C   0  0  0  0  0  0  0  0  0  0  0  0
  187.5050  177.9050  143.0050 C   0  0  0  0  0  0  0  0  0  0  0  0
  185.5230  177.6310  141.5880 N   0  0  0  0  0  0  0  0  0  0  0  0
  185.7610  177.7540  140.1570 C   0  0  0  0  0  1  0  0  0  0  0  0
  184.1330  178.0260  141.7720 C   0  0  0  0  0  1  0  0  0  0  0  0
  185.7420  179.3640  145.8400 O   0  0  0  0  0  0  0  0  0  0  0  0
  184.7400  178.3350  147.4730 C   0  0  0  0  0  1  0  0  0  0  0  0
  184.5190  179.0310  146.2820 O   0  0  0  0  0  0  0  0  0  0  0  0
  2  1  1  0  0  0  0
  2  5  1  0  0  0  0
  2  3  1  1  0  0  0
  5  4  2  0  0  0  0
  6  9  1  1  0  0  0
  6  8  1  0  0  0  0
  7 11  1  6  0  0  0
  7  6  1  0  0  0  0
  7  8  1  0  0  0  0
  8  5  1  1  0  0  0
 10 11  1  0  0  0  0
 11 12  1  0  0  0  0
 13 10  1  0  0  0  0
 13 11  1  0  0  0  0
 14  1  1  0  0  0  0
 15 19  1  0  0  0  0
 15 14  1  1  0  0  0
 16 20  2  0  0  0  0
 17 19  2  0  0  0  0
 18 21  1  1  0  0  0
 18 20  1  0  0  0  0
 18 17  1  0  0  0  0
 19 24  1  0  0  0  0
 20 15  1  0  0  0  0
 21 23  1  0  0  0  0
 22 21  1  0  0  0  0
 24 26  1  0  0  0  0
 26 25  1  0  0  0  0
M  END
>  <MODEL>
2

>  <REMARK>
 VINA RESULT:      -6.3      1.567      2.007
  Name = 
  9 active torsions:
  status: ('A' for Active; 'I' for Inactive)
    1  A    between atoms: O_2  and  C_19
    2  A    between atoms: O_2  and  O_21
    3  A    between atoms: C_3  and  C_16
    4  A    between atoms: N_5  and  C_17
    5  A    between atoms: C_8  and  C_14
    6  A    between atoms: C_13  and  C_14
    7  A    between atoms: C_13  and  C_22
    8  A    between atoms: C_18  and  C_23
    9  A    between atoms: C_22  and  C_23
                            x       y       z     vdW  Elec       q    Type
                         _______ _______ _______ _____ _____    ______ ____

>  <TORSDO>
F 9

$$$$
=
 OpenBabel11072408493D

 26 28  0  0  1  0  0  0  0  0999 V2000
  188.9300  174.8550  143.1810 C   0  0  0  0  0  2  0  0  0  0  0  0
  190.0300  175.2140  142.1950 C   0  0  2  0  0  3  0  0  0  0  0  0
  190.2330  174.1670  141.2920 O   0  0  0  0  0  1  0  0  0  0  0  0
  192.3480  175.5650  142.2680 O   0  0  0  0  0  0  0  0  0  0  0  0
  191.3100  175.5380  142.9100 C   0  0  0  0  0  0  0  0  0  0  0  0
  191.2440  177.4010  144.6680 C   0  0  2  0  0  3  0  0  0  0  0  0
  192.5860  176.6960  144.7370 C   0  0  2  0  0  3  0  0  0  0  0  0
  191.3390  175.9000  144.3780 C   0  0  2  0  0  3  0  0  0  0  0  0
  191.1950  178.1760  143.5060 O   0  0  0  0  0  1  0  0  0  0  0  0
  192.5090  175.0800  146.6910 C   0  0  0  0  0  2  0  0  0  0  0  0
  192.9850  176.4190  146.1820 C   0  0  0  0  0  0  0  0  0  0  0  0
  194.2790  176.7220  146.6150 O   0  0  0  0  0  1  0  0  0  0  0  0
  191.9230  176.3660  147.2590 C   0  0  0  0  0  2  0  0  0  0  0  0
  187.6210  175.5010  142.7660 C   0  0  0  0  0  2  0  0  0  0  0  0
  187.8460  176.9630  142.4080 C   0  0  2  0  0  3  0  0  0  0  0  0
  187.0510  176.9400  140.1600 O   0  0  0  0  0  0  0  0  0  0  0  0
  186.3260  178.6160  143.1370 C   0  0  0  0  0  3  0  0  0  0  0  0
  185.9170  178.3830  141.7120 C   0  0  1  0  0  3  0  0  0  0  0  0
  187.3510  177.8510  143.4950 C   0  0  0  0  0  0  0  0  0  0  0  0
  186.9350  177.3590  141.3010 C   0  0  0  0  0  0  0  0  0  0  0  0
  184.5550  177.8370  141.6410 N   0  0  0  0  0  0  0  0  0  0  0  0
  183.9000  178.3830  140.4610 C   0  0  0  0  0  1  0  0  0  0  0  0
  183.7860  178.3500  142.7670 C   0  0  0  0  0  1  0  0  0  0  0  0
  187.9220  177.8770  144.7700 O   0  0  0  0  0  0  0  0  0  0  0  0
  187.9620  176.4650  146.4230 C   0  0  0  0  0  1  0  0  0  0  0  0
  187.2280  177.5110  145.8590 O   0  0  0  0  0  0  0  0  0  0  0  0
  2  3  1  6  0  0  0
  2  5  1  0  0  0  0
  2  1  1  0  0  0  0
  4  5  2  0  0  0  0
  6  9  1  6  0  0  0
  6  7  1  0  0  0  0
  7 11  1  1  0  0  0
  8  5  1  6  0  0  0
  8  6  1  0  0  0  0
  8  7  1  0  0  0  0
 10 13  1  0  0  0  0
 11 12  1  0  0  0  0
 11 10  1  0  0  0  0
 11 13  1  0  0  0  0
 14  1  1  0  0  0  0
 15 14  1  1  0  0  0
 15 19  1  0  0  0  0
 16 20  2  0  0  0  0
 17 19  2  0  0  0  0
 18 21  1  1  0  0  0
 18 17  1  0  0  0  0
 19 24  1  0  0  0  0
 20 18  1  0  0  0  0
 20 15  1  0  0  0  0
 21 23  1  0  0  0  0
 22 21  1  0  0  0  0
 24 26  1  0  0  0  0
 26 25  1  0  0  0  0
M  END
>  <MODEL>
3

>  <REMARK>
 VINA RESULT:      -6.1      2.094      2.942
  Name = 
  9 active torsions:
  status: ('A' for Active; 'I' for Inactive)
    1  A    between atoms: O_2  and  C_19
    2  A    between atoms: O_2  and  O_21
    3  A    between atoms: C_3  and  C_16
    4  A    between atoms: N_5  and  C_17
    5  A    between atoms: C_8  and  C_14
    6  A    between atoms: C_13  and  C_14
    7  A    between atoms: C_13  and  C_22
    8  A    between atoms: C_18  and  C_23
    9  A    between atoms: C_22  and  C_23
                            x       y       z     vdW  Elec       q    Type
                         _______ _______ _______ _____ _____    ______ ____

>  <TORSDO>
F 9

$$$$
=
 OpenBabel11072408493D

 26 28  0  0  1  0  0  0  0  0999 V2000
  188.8900  174.9650  143.4320 C   0  0  0  0  0  2  0  0  0  0  0  0
  189.8640  175.3820  142.3410 C   0  0  2  0  0  3  0  0  0  0  0  0
  189.8390  174.4610  141.2910 O   0  0  0  0  0  1  0  0  0  0  0  0
  192.1950  175.4950  142.1010 O   0  0  0  0  0  0  0  0  0  0  0  0
  191.2570  175.5130  142.8840 C   0  0  0  0  0  0  0  0  0  0  0  0
  191.6210  177.2080  144.7710 C   0  0  2  0  0  3  0  0  0  0  0  0
  192.8850  176.3870  144.5860 C   0  0  2  0  0  3  0  0  0  0  0  0
  191.5270  175.7360  144.3550 C   0  0  2  0  0  3  0  0  0  0  0  0
  191.4860  178.0860  143.6920 O   0  0  0  0  0  1  0  0  0  0  0  0
  194.4140  176.9430  146.5330 C   0  0  0  0  0  2  0  0  0  0  0  0
  193.4530  175.9470  145.9310 C   0  0  0  0  0  0  0  0  0  0  0  0
  192.6090  175.3770  146.8870 O   0  0  0  0  0  1  0  0  0  0  0  0
  194.9200  175.5910  146.0470 C   0  0  0  0  0  2  0  0  0  0  0  0
  187.6540  175.8450  143.3960 C   0  0  0  0  0  2  0  0  0  0  0  0
  187.9690  177.2200  143.9660 C   0  0  2  0  0  3  0  0  0  0  0  0
  186.7020  178.5650  142.4590 O   0  0  0  0  0  0  0  0  0  0  0  0
  186.8570  177.9920  145.9000 C   0  0  0  0  0  3  0  0  0  0  0  0
  186.1200  178.6780  144.7880 C   0  0  1  0  0  3  0  0  0  0  0  0
  187.8350  177.2150  145.4480 C   0  0  0  0  0  0  0  0  0  0  0  0
  186.8910  178.1770  143.6010 C   0  0  0  0  0  0  0  0  0  0  0  0
  184.7190  178.2340  144.7370 N   0  0  0  0  0  0  0  0  0  0  0  0
  183.9280  179.2810  144.1060 C   0  0  0  0  0  1  0  0  0  0  0  0
  184.2070  178.1460  146.0980 C   0  0  0  0  0  1  0  0  0  0  0  0
  188.6720  176.4680  146.2810 O   0  0  0  0  0  0  0  0  0  0  0  0
  189.1890  174.5850  147.2370 C   0  0  0  0  0  1  0  0  0  0  0  0
  188.1830  175.5470  147.1260 O   0  0  0  0  0  0  0  0  0  0  0  0
  2  3  1  6  0  0  0
  2  5  1  0  0  0  0
  2  1  1  0  0  0  0
  4  5  2  0  0  0  0
  6  9  1  6  0  0  0
  7  6  1  0  0  0  0
  7 11  1  1  0  0  0
  8  5  1  6  0  0  0
  8  7  1  0  0  0  0
  8  6  1  0  0  0  0
 11 13  1  0  0  0  0
 11 10  1  0  0  0  0
 11 12  1  0  0  0  0
 13 10  1  0  0  0  0
 14  1  1  0  0  0  0
 15 14  1  6  0  0  0
 15 19  1  0  0  0  0
 16 20  2  0  0  0  0
 18 21  1  6  0  0  0
 18 17  1  0  0  0  0
 19 17  2  0  0  0  0
 19 24  1  0  0  0  0
 20 15  1  0  0  0  0
 20 18  1  0  0  0  0
 21 23  1  0  0  0  0
 22 21  1  0  0  0  0
 24 26  1  0  0  0  0
 26 25  1  0  0  0  0
M  END
>  <MODEL>
4

>  <REMARK>
 VINA RESULT:      -6.0      2.191      3.557
  Name = 
  9 active torsions:
  status: ('A' for Active; 'I' for Inactive)
    1  A    between atoms: O_2  and  C_19
    2  A    between atoms: O_2  and  O_21
    3  A    between atoms: C_3  and  C_16
    4  A    between atoms: N_5  and  C_17
    5  A    between atoms: C_8  and  C_14
    6  A    between atoms: C_13  and  C_14
    7  A    between atoms: C_13  and  C_22
    8  A    between atoms: C_18  and  C_23
    9  A    between atoms: C_22  and  C_23
                            x       y       z     vdW  Elec       q    Type
                         _______ _______ _______ _____ _____    ______ ____

>  <TORSDO>
F 9

$$$$
=
 OpenBabel11072408493D

 26 28  0  0  1  0  0  0  0  0999 V2000
  190.3410  177.6480  143.3920 C   0  0  0  0  0  2  0  0  0  0  0  0
  189.2560  177.8310  144.4420 C   0  0  2  0  0  3  0  0  0  0  0  0
  189.8050  177.7590  145.7240 O   0  0  0  0  0  1  0  0  0  0  0  0
  188.4430  175.7500  143.7260 O   0  0  0  0  0  0  0  0  0  0  0  0
  188.1730  176.8030  144.2810 C   0  0  0  0  0  0  0  0  0  0  0  0
  185.7740  177.5980  143.8620 C   0  0  2  0  0  3  0  0  0  0  0  0
  186.4160  178.4820  144.9160 C   0  0  2  0  0  3  0  0  0  0  0  0
  186.7860  177.0050  144.8480 C   0  0  2  0  0  3  0  0  0  0  0  0
  186.3360  177.8910  142.6170 O   0  0  0  0  0  1  0  0  0  0  0  0
  184.6520  177.5110  146.4610 C   0  0  0  0  0  2  0  0  0  0  0  0
  185.4610  178.7270  146.0800 C   0  0  0  0  0  0  0  0  0  0  0  0
  185.8980  179.4460  147.1950 O   0  0  0  0  0  1  0  0  0  0  0  0
  183.9670  178.7220  145.8410 C   0  0  0  0  0  2  0  0  0  0  0  0
  191.6200  177.1520  144.0400 C   0  0  0  0  0  2  0  0  0  0  0  0
  191.9490  175.7490  143.5510 C   0  0  2  0  0  3  0  0  0  0  0  0
  193.7800  176.2580  142.1110 O   0  0  0  0  0  0  0  0  0  0  0  0
  193.1800  174.2680  144.9180 C   0  0  0  0  0  3  0  0  0  0  0  0
  194.2140  174.7880  143.9620 C   0  0  1  0  0  3  0  0  0  0  0  0
  191.9800  174.7910  144.6900 C   0  0  0  0  0  0  0  0  0  0  0  0
  193.3680  175.6870  143.1090 C   0  0  0  0  0  0  0  0  0  0  0  0
  195.2480  175.5520  144.6760 N   0  0  0  0  0  0  0  0  0  0  0  0
  196.5380  174.9250  144.4260 C   0  0  0  0  0  1  0  0  0  0  0  0
  195.0320  175.4050  146.1090 C   0  0  0  0  0  1  0  0  0  0  0  0
  190.8460  174.4700  145.4400 O   0  0  0  0  0  0  0  0  0  0  0  0
  189.3800  174.5940  147.0400 C   0  0  0  0  0  1  0  0  0  0  0  0
  190.7100  174.8690  146.7140 O   0  0  0  0  0  0  0  0  0  0  0  0
  1 14  1  0  0  0  0
  1  2  1  0  0  0  0
  2  3  1  1  0  0  0
  4  5  2  0  0  0  0
  5  2  1  0  0  0  0
  6  9  1  6  0  0  0
  6  8  1  0  0  0  0
  6  7  1  0  0  0  0
  7 11  1  1  0  0  0
  8  5  1  6  0  0  0
  8  7  1  0  0  0  0
 11 10  1  0  0  0  0
 11 12  1  0  0  0  0
 13 11  1  0  0  0  0
 13 10  1  0  0  0  0
 15 14  1  1  0  0  0
 15 19  1  0  0  0  0
 16 20  2  0  0  0  0
 18 21  1  1  0  0  0
 18 17  1  0  0  0  0
 19 17  2  0  0  0  0
 19 24  1  0  0  0  0
 20 15  1  0  0  0  0
 20 18  1  0  0  0  0
 21 23  1  0  0  0  0
 22 21  1  0  0  0  0
 24 26  1  0  0  0  0
 26 25  1  0  0  0  0
M  END
>  <MODEL>
5

>  <REMARK>
 VINA RESULT:      -6.0      2.840      7.531
  Name = 
  9 active torsions:
  status: ('A' for Active; 'I' for Inactive)
    1  A    between atoms: O_2  and  C_19
    2  A    between atoms: O_2  and  O_21
    3  A    between atoms: C_3  and  C_16
    4  A    between atoms: N_5  and  C_17
    5  A    between atoms: C_8  and  C_14
    6  A    between atoms: C_13  and  C_14
    7  A    between atoms: C_13  and  C_22
    8  A    between atoms: C_18  and  C_23
    9  A    between atoms: C_22  and  C_23
                            x       y       z     vdW  Elec       q    Type
                         _______ _______ _______ _____ _____    ______ ____

>  <TORSDO>
F 9

$$$$
=
 OpenBabel11072408493D

 26 28  0  0  1  0  0  0  0  0999 V2000
  188.4410  176.4340  146.4510 C   0  0  0  0  0  2  0  0  0  0  0  0
  189.2300  175.1560  146.6910 C   0  0  2  0  0  3  0  0  0  0  0  0
  188.5870  174.3620  147.6430 O   0  0  0  0  0  1  0  0  0  0  0  0
  190.9440  175.2390  148.2900 O   0  0  0  0  0  0  0  0  0  0  0  0
  190.6320  175.4630  147.1310 C   0  0  0  0  0  0  0  0  0  0  0  0
  192.1870  174.9300  145.1660 C   0  0  2  0  0  3  0  0  0  0  0  0
  193.0230  175.2820  146.3820 C   0  0  2  0  0  3  0  0  0  0  0  0
  191.6810  175.9720  146.1680 C   0  0  2  0  0  3  0  0  0  0  0  0
  191.6130  173.6700  145.3560 O   0  0  0  0  0  1  0  0  0  0  0  0
  194.2150  176.5510  144.5360 C   0  0  0  0  0  2  0  0  0  0  0  0
  194.1610  176.2270  146.0100 C   0  0  0  0  0  0  0  0  0  0  0  0
  194.4260  177.3410  146.8090 O   0  0  0  0  0  1  0  0  0  0  0  0
  195.3180  175.7180  145.1770 C   0  0  0  0  0  2  0  0  0  0  0  0
  187.9350  176.4770  145.0200 C   0  0  0  0  0  2  0  0  0  0  0  0
  187.9560  177.9060  144.4980 C   0  0  2  0  0  3  0  0  0  0  0  0
  189.0190  177.5360  142.3950 O   0  0  0  0  0  0  0  0  0  0  0  0
  186.0080  178.8630  143.5670 C   0  0  0  0  0  3  0  0  0  0  0  0
  186.8020  178.4640  142.3580 C   0  0  1  0  0  3  0  0  0  0  0  0
  186.6330  178.5570  144.6990 C   0  0  0  0  0  0  0  0  0  0  0  0
  188.0300  177.9000  143.0120 C   0  0  0  0  0  0  0  0  0  0  0  0
  186.0930  177.4350  141.5840 N   0  0  0  0  0  0  0  0  0  0  0  0
  186.4250  177.6060  140.1770 C   0  0  0  0  0  1  0  0  0  0  0  0
  184.6610  177.6930  141.6650 C   0  0  0  0  0  1  0  0  0  0  0  0
  186.1060  178.8250  145.9650 O   0  0  0  0  0  0  0  0  0  0  0  0
  184.0420  178.4340  146.5250 C   0  0  0  0  0  1  0  0  0  0  0  0
  185.3420  177.9310  146.6130 O   0  0  0  0  0  0  0  0  0  0  0  0
  1  2  1  0  0  0  0
  2  5  1  0  0  0  0
  2  3  1  1  0  0  0
  5  4  2  0  0  0  0
  6  9  1  1  0  0  0
  6  8  1  0  0  0  0
  6  7  1  0  0  0  0
  7 11  1  6  0  0  0
  8  7  1  0  0  0  0
  8  5  1  1  0  0  0
 10 13  1  0  0  0  0
 10 11  1  0  0  0  0
 11 12  1  0  0  0  0
 13 11  1  0  0  0  0
 14  1  1  0  0  0  0
 15 19  1  0  0  0  0
 15 14  1  6  0  0  0
 16 20  2  0  0  0  0
 17 19  2  0  0  0  0
 18 21  1  1  0  0  0
 18 20  1  0  0  0  0
 18 17  1  0  0  0  0
 19 24  1  0  0  0  0
 20 15  1  0  0  0  0
 21 23  1  0  0  0  0
 22 21  1  0  0  0  0
 24 26  1  0  0  0  0
 25 26  1  0  0  0  0
M  END
>  <MODEL>
6

>  <REMARK>
 VINA RESULT:      -5.9      1.268      1.685
  Name = 
  9 active torsions:
  status: ('A' for Active; 'I' for Inactive)
    1  A    between atoms: O_2  and  C_19
    2  A    between atoms: O_2  and  O_21
    3  A    between atoms: C_3  and  C_16
    4  A    between atoms: N_5  and  C_17
    5  A    between atoms: C_8  and  C_14
    6  A    between atoms: C_13  and  C_14
    7  A    between atoms: C_13  and  C_22
    8  A    between atoms: C_18  and  C_23
    9  A    between atoms: C_22  and  C_23
                            x       y       z     vdW  Elec       q    Type
                         _______ _______ _______ _____ _____    ______ ____

>  <TORSDO>
F 9

$$$$
=
 OpenBabel11072408493D

 26 28  0  0  1  0  0  0  0  0999 V2000
  189.8100  176.7950  146.8890 C   0  0  0  0  0  2  0  0  0  0  0  0
  189.8870  175.3180  146.5350 C   0  0  2  0  0  3  0  0  0  0  0  0
  189.3760  174.5420  147.5780 O   0  0  0  0  0  1  0  0  0  0  0  0
  192.1720  175.1650  147.0440 O   0  0  0  0  0  0  0  0  0  0  0  0
  191.2990  174.9110  146.2280 C   0  0  0  0  0  0  0  0  0  0  0  0
  192.0240  175.0100  143.7730 C   0  0  2  0  0  3  0  0  0  0  0  0
  190.6480  174.3750  143.8620 C   0  0  2  0  0  3  0  0  0  0  0  0
  191.6580  174.1390  144.9780 C   0  0  2  0  0  3  0  0  0  0  0  0
  191.9130  176.3780  144.0370 O   0  0  0  0  0  1  0  0  0  0  0  0
  189.3190  172.3110  143.2190 C   0  0  0  0  0  2  0  0  0  0  0  0
  190.5560  173.1400  142.9720 C   0  0  0  0  0  0  0  0  0  0  0  0
  190.8660  173.2410  141.6130 O   0  0  0  0  0  1  0  0  0  0  0  0
  190.6920  171.7620  143.5810 C   0  0  0  0  0  2  0  0  0  0  0  0
  189.0810  177.5590  145.7980 C   0  0  0  0  0  2  0  0  0  0  0  0
  187.9990  176.6870  145.1780 C   0  0  2  0  0  3  0  0  0  0  0  0
  186.4770  176.5940  147.0110 O   0  0  0  0  0  0  0  0  0  0  0  0
  186.4360  177.6180  143.6730 C   0  0  0  0  0  3  0  0  0  0  0  0
  185.6720  177.5600  144.9630 C   0  0  1  0  0  3  0  0  0  0  0  0
  187.6740  177.1550  143.8030 C   0  0  0  0  0  0  0  0  0  0  0  0
  186.7000  176.9320  145.8590 C   0  0  0  0  0  0  0  0  0  0  0  0
  185.3190  178.9100  145.4230 N   0  0  0  0  0  0  0  0  0  0  0  0
  183.9750  178.8700  145.9800 C   0  0  0  0  0  1  0  0  0  0  0  0
  185.2190  179.7880  144.2650 C   0  0  0  0  0  1  0  0  0  0  0  0
  188.5900  177.1000  142.7490 O   0  0  0  0  0  0  0  0  0  0  0  0
  188.1880  175.5660  141.2610 C   0  0  0  0  0  1  0  0  0  0  0  0
  188.1900  176.9460  141.4770 O   0  0  0  0  0  0  0  0  0  0  0  0
  2  1  1  0  0  0  0
  2  3  1  1  0  0  0
  5  2  1  0  0  0  0
  5  4  2  0  0  0  0
  6  7  1  0  0  0  0
  6  9  1  1  0  0  0
  6  8  1  0  0  0  0
  7 11  1  6  0  0  0
  7  8  1  0  0  0  0
  8  5  1  1  0  0  0
 10 13  1  0  0  0  0
 11 10  1  0  0  0  0
 11 13  1  0  0  0  0
 12 11  1  0  0  0  0
 14  1  1  0  0  0  0
 15 14  1  1  0  0  0
 15 20  1  0  0  0  0
 17 19  2  0  0  0  0
 17 18  1  0  0  0  0
 18 21  1  1  0  0  0
 18 20  1  0  0  0  0
 19 15  1  0  0  0  0
 20 16  2  0  0  0  0
 21 22  1  0  0  0  0
 23 21  1  0  0  0  0
 24 19  1  0  0  0  0
 25 26  1  0  0  0  0
 26 24  1  0  0  0  0
M  END
>  <MODEL>
7

>  <REMARK>
 VINA RESULT:      -5.9      2.425      4.172
  Name = 
  9 active torsions:
  status: ('A' for Active; 'I' for Inactive)
    1  A    between atoms: O_2  and  C_19
    2  A    between atoms: O_2  and  O_21
    3  A    between atoms: C_3  and  C_16
    4  A    between atoms: N_5  and  C_17
    5  A    between atoms: C_8  and  C_14
    6  A    between atoms: C_13  and  C_14
    7  A    between atoms: C_13  and  C_22
    8  A    between atoms: C_18  and  C_23
    9  A    between atoms: C_22  and  C_23
                            x       y       z     vdW  Elec       q    Type
                         _______ _______ _______ _____ _____    ______ ____

>  <TORSDO>
F 9

$$$$
=
 OpenBabel11072408493D

 26 28  0  0  1  0  0  0  0  0999 V2000
  187.6640  176.1150  147.2360 C   0  0  0  0  0  2  0  0  0  0  0  0
  187.0350  177.4520  146.8760 C   0  0  2  0  0  3  0  0  0  0  0  0
  186.5260  178.0710  148.0200 O   0  0  0  0  0  1  0  0  0  0  0  0
  185.0370  176.5050  146.0920 O   0  0  0  0  0  0  0  0  0  0  0  0
  185.9510  177.2790  145.8520 C   0  0  0  0  0  0  0  0  0  0  0  0
  184.9080  179.2330  144.5640 C   0  0  2  0  0  3  0  0  0  0  0  0
  184.5910  177.9350  143.8450 C   0  0  2  0  0  3  0  0  0  0  0  0
  185.9210  178.0840  144.5720 C   0  0  2  0  0  3  0  0  0  0  0  0
  184.1530  179.3000  145.7380 O   0  0  0  0  0  1  0  0  0  0  0  0
  185.8540  177.1470  141.7890 C   0  0  0  0  0  2  0  0  0  0  0  0
  184.8000  178.0770  142.3410 C   0  0  0  0  0  0  0  0  0  0  0  0
  183.6940  178.1880  141.4950 O   0  0  0  0  0  1  0  0  0  0  0  0
  186.0970  178.6500  141.8130 C   0  0  0  0  0  2  0  0  0  0  0  0
  188.8730  175.8500  146.3570 C   0  0  0  0  0  2  0  0  0  0  0  0
  189.8120  177.0470  146.3790 C   0  0  2  0  0  3  0  0  0  0  0  0
  191.2210  176.4020  148.1910 O   0  0  0  0  0  0  0  0  0  0  0  0
  191.5700  177.2120  144.8120 C   0  0  0  0  0  3  0  0  0  0  0  0
  192.2610  176.7120  146.0470 C   0  0  1  0  0  3  0  0  0  0  0  0
  190.2670  177.3820  145.0020 C   0  0  0  0  0  0  0  0  0  0  0  0
  191.1060  176.6630  147.0040 C   0  0  0  0  0  0  0  0  0  0  0  0
  192.8240  175.3720  145.8250 N   0  0  0  0  0  0  0  0  0  0  0  0
  194.2160  175.3810  146.2500 C   0  0  0  0  0  1  0  0  0  0  0  0
  192.8710  175.1170  144.3920 C   0  0  0  0  0  1  0  0  0  0  0  0
  189.3970  177.8400  144.0080 O   0  0  0  0  0  0  0  0  0  0  0  0
  189.2750  176.3140  142.4650 C   0  0  0  0  0  1  0  0  0  0  0  0
  189.6490  177.6380  142.7060 O   0  0  0  0  0  0  0  0  0  0  0  0
  2  1  1  0  0  0  0
  2  3  1  1  0  0  0
  5  4  2  0  0  0  0
  5  2  1  0  0  0  0
  6  8  1  0  0  0  0
  6  9  1  1  0  0  0
  7 11  1  6  0  0  0
  7  6  1  0  0  0  0
  7  8  1  0  0  0  0
  8  5  1  1  0  0  0
 10 13  1  0  0  0  0
 10 11  1  0  0  0  0
 12 11  1  0  0  0  0
 13 11  1  0  0  0  0
 14  1  1  0  0  0  0
 15 14  1  6  0  0  0
 15 20  1  0  0  0  0
 17 19  2  0  0  0  0
 17 18  1  0  0  0  0
 18 21  1  6  0  0  0
 18 20  1  0  0  0  0
 19 15  1  0  0  0  0
 20 16  2  0  0  0  0
 21 22  1  0  0  0  0
 23 21  1  0  0  0  0
 24 19  1  0  0  0  0
 25 26  1  0  0  0  0
 26 24  1  0  0  0  0
M  END
>  <MODEL>
8

>  <REMARK>
 VINA RESULT:      -5.8      2.453      7.069
  Name = 
  9 active torsions:
  status: ('A' for Active; 'I' for Inactive)
    1  A    between atoms: O_2  and  C_19
    2  A    between atoms: O_2  and  O_21
    3  A    between atoms: C_3  and  C_16
    4  A    between atoms: N_5  and  C_17
    5  A    between atoms: C_8  and  C_14
    6  A    between atoms: C_13  and  C_14
    7  A    between atoms: C_13  and  C_22
    8  A    between atoms: C_18  and  C_23
    9  A    between atoms: C_22  and  C_23
                            x       y       z     vdW  Elec       q    Type
                         _______ _______ _______ _____ _____    ______ ____

>  <TORSDO>
F 9

$$$$
=
 OpenBabel11072408493D

 26 28  0  0  1  0  0  0  0  0999 V2000
  188.3710  174.8230  142.8950 C   0  0  0  0  0  2  0  0  0  0  0  0
  187.5070  175.9370  142.3270 C   0  0  2  0  0  3  0  0  0  0  0  0
  188.0300  176.3850  141.1120 O   0  0  0  0  0  1  0  0  0  0  0  0
  188.2580  177.9390  143.2900 O   0  0  0  0  0  0  0  0  0  0  0  0
  187.3920  177.0780  143.2960 C   0  0  0  0  0  0  0  0  0  0  0  0
  185.1390  178.2130  143.7380 C   0  0  2  0  0  3  0  0  0  0  0  0
  186.1270  178.6300  144.8120 C   0  0  2  0  0  3  0  0  0  0  0  0
  186.2070  177.2270  144.2220 C   0  0  2  0  0  3  0  0  0  0  0  0
  185.4810  178.8380  142.5360 O   0  0  0  0  0  1  0  0  0  0  0  0
  184.9460  177.2160  146.5580 C   0  0  0  0  0  2  0  0  0  0  0  0
  185.4870  178.5790  146.1950 C   0  0  0  0  0  0  0  0  0  0  0  0
  186.1160  179.2050  147.2740 O   0  0  0  0  0  1  0  0  0  0  0  0
  183.9920  178.3810  146.3250 C   0  0  0  0  0  2  0  0  0  0  0  0
  189.7860  174.9290  142.3560 C   0  0  0  0  0  2  0  0  0  0  0  0
  190.7930  174.6300  143.4570 C   0  0  2  0  0  3  0  0  0  0  0  0
  191.4410  176.8580  144.0080 O   0  0  0  0  0  0  0  0  0  0  0  0
  190.0540  174.0970  145.6360 C   0  0  0  0  0  3  0  0  0  0  0  0
  190.4350  175.5440  145.7510 C   0  0  1  0  0  3  0  0  0  0  0  0
  190.2450  173.6250  144.4090 C   0  0  0  0  0  0  0  0  0  0  0  0
  190.9240  175.8080  144.3560 C   0  0  0  0  0  0  0  0  0  0  0  0
  189.2610  176.3700  146.0670 N   0  0  0  0  0  0  0  0  0  0  0  0
  189.6860  177.4620  146.9310 C   0  0  0  0  0  1  0  0  0  0  0  0
  188.3420  175.5850  146.8800 C   0  0  0  0  0  1  0  0  0  0  0  0
  189.9690  172.3060  144.0400 O   0  0  0  0  0  0  0  0  0  0  0  0
  190.2230  171.1580  142.2120 C   0  0  0  0  0  1  0  0  0  0  0  0
  190.8680  171.5560  143.3840 O   0  0  0  0  0  0  0  0  0  0  0  0
  2  3  1  6  0  0  0
  2  1  1  0  0  0  0
  2  5  1  0  0  0  0
  4  5  2  0  0  0  0
  6  9  1  6  0  0  0
  6  8  1  0  0  0  0
  6  7  1  0  0  0  0
  7 11  1  1  0  0  0
  8  5  1  6  0  0  0
  8  7  1  0  0  0  0
 11 13  1  0  0  0  0
 11 10  1  0  0  0  0
 11 12  1  0  0  0  0
 13 10  1  0  0  0  0
 14  1  1  0  0  0  0
 15 14  1  6  0  0  0
 15 20  1  0  0  0  0
 15 19  1  0  0  0  0
 16 20  2  0  0  0  0
 17 18  1  0  0  0  0
 18 21  1  6  0  0  0
 19 17  2  0  0  0  0
 20 18  1  0  0  0  0
 21 23  1  0  0  0  0
 21 22  1  0  0  0  0
 24 19  1  0  0  0  0
 25 26  1  0  0  0  0
 26 24  1  0  0  0  0
M  END
>  <MODEL>
9

>  <REMARK>
 VINA RESULT:      -5.8      2.637      7.080
  Name = 
  9 active torsions:
  status: ('A' for Active; 'I' for Inactive)
    1  A    between atoms: O_2  and  C_19
    2  A    between atoms: O_2  and  O_21
    3  A    between atoms: C_3  and  C_16
    4  A    between atoms: N_5  and  C_17
    5  A    between atoms: C_8  and  C_14
    6  A    between atoms: C_13  and  C_14
    7  A    between atoms: C_13  and  C_22
    8  A    between atoms: C_18  and  C_23
    9  A    between atoms: C_22  and  C_23
                            x       y       z     vdW  Elec       q    Type
                         _______ _______ _______ _____ _____    ______ ____

>  <TORSDO>
F 9

$$$$
