=
 OpenBabel11072408383D

 47 50  0  0  1  0  0  0  0  0999 V2000
  190.5040  176.9270  147.3020 N   0  0  0  0  0  2  0  0  0  0  0  0
  191.5450  176.2830  148.1120 C   0  0  0  0  0  2  0  0  0  0  0  0
  190.1080  175.9260  146.3280 C   0  0  1  0  0  3  0  0  0  0  0  0
  189.0960  177.7430  143.0320 C   0  0  0  0  0  1  0  0  0  0  0  0
  193.9790  174.9900  144.3820 O   0  0  0  0  0  0  0  0  0  0  0  0
  192.7540  175.8340  147.2540 C   0  0  0  0  0  2  0  0  0  0  0  0
  190.6090  174.9620  144.2510 N   0  0  2  0  0  0  0  0  0  0  0  0
  190.1490  175.7710  142.0130 C   0  0  0  0  0  2  0  0  0  0  0  0
  191.2320  175.2970  142.9690 C   0  0  2  0  0  3  0  0  0  0  0  0
  189.2190  175.4570  144.1870 C   0  0  2  0  0  3  0  0  0  0  0  0
  189.0160  176.2270  142.8820 C   0  0  1  0  0  0  0  0  0  0  0  0
  188.9360  176.2770  145.4630 C   0  0  1  0  0  3  0  0  0  0  0  0
  191.2040  175.7700  145.3190 C   0  0  2  0  0  3  0  0  0  0  0  0
  193.3510  174.4380  145.3230 C   0  0  0  0  0  0  0  0  0  0  0  0
  193.7040  173.1600  145.7340 O   0  0  0  0  0  1  0  0  0  0  0  0
  192.3310  175.1520  146.0220 N   0  0  0  0  0  0  0  0  0  0  0  0
  187.3870  176.3050  140.5290 O   0  0  0  0  0  0  0  0  0  0  0  0
  187.4250  175.7670  142.1340 P   0  0  1  0  0  0  0  0  0  0  0  0
  187.2670  174.2630  142.1650 O   0  0  0  0  0  1  0  0  0  0  0  0
  186.1750  176.4910  143.0230 O   0  0  0  0  0  0  0  0  0  0  0  0
  185.6010  177.4330  142.1650 C   0  0  0  0  0  2  0  0  0  0  0  0
  184.3420  178.0060  142.7930 C   0  0  0  0  0  2  0  0  0  0  0  0
  185.6940  179.7580  143.6840 O   0  0  0  0  0  0  0  0  0  0  0  0
  183.8950  179.1230  145.0120 N   0  0  0  0  0  1  0  0  0  0  0  0
  184.6870  179.0170  143.8330 C   0  0  0  0  0  0  0  0  0  0  0  0
  187.6780  176.0140  146.0580 O   0  0  0  0  0  0  0  0  0  0  0  0
  187.0540  177.2200  146.4220 C   0  0  0  0  0  2  0  0  0  0  0  0
  185.6140  176.9450  146.8020 C   0  0  0  0  0  1  0  0  0  0  0  0
  191.9060  174.0560  142.3920 C   0  0  0  0  0  2  0  0  0  0  0  0
  191.5200  173.8050  140.9390 C   0  0  2  0  0  3  0  0  0  0  0  0
  189.9130  172.0420  142.2120 O   0  0  0  0  0  0  0  0  0  0  0  0
  191.2750  171.2050  140.3650 O   0  0  0  0  0  0  0  0  0  0  0  0
  190.4580  172.3680  140.8490 S   0  0  0  0  0  0  0  0  0  0  0  0
  189.1530  172.6310  139.7370 N   0  0  0  0  0  2  0  0  0  0  0  0
  189.7120  172.8370  138.4110 C   0  0  2  0  0  3  0  0  0  0  0  0
  188.8170  174.0630  136.4460 N   0  0  0  0  0  0  0  0  0  0  0  0
  189.2390  174.1850  137.8470 C   0  0  0  0  0  2  0  0  0  0  0  0
  189.3260  171.7840  137.5660 O   0  0  0  0  0  0  0  0  0  0  0  0
  190.0910  171.9310  136.3940 C   0  0  1  0  0  3  0  0  0  0  0  0
  189.8740  170.8380  135.5540 O   0  0  0  0  0  1  0  0  0  0  0  0
  189.7330  173.2300  135.6540 C   0  0  0  0  0  2  0  0  0  0  0  0
  187.6470  176.2550  135.9720 C   0  0  0  0  0  0  0  0  0  0  0  0
  188.7600  175.3510  135.8750 N   0  0  0  0  0  2  0  0  0  0  0  0
  186.4190  175.9130  136.7480 C   0  0  0  0  0  1  0  0  0  0  0  0
  187.7080  177.3690  135.3880 O   0  0  0  0  0  0  0  0  0  0  0  0
  193.5260  174.7940  140.0980 O   0  0  0  0  0  1  0  0  0  0  0  0
  192.7590  173.6320  140.0730 C   0  0  0  0  0  2  0  0  0  0  0  0
  1  2  1  0  0  0  0
  3  1  1  1  0  0  0
  5 14  2  0  0  0  0
  6  2  1  0  0  0  0
  7 13  1  0  0  0  0
  8 11  1  0  0  0  0
  8  9  1  0  0  0  0
  9  7  1  0  0  0  0
 10  7  1  0  0  0  0
 10 12  1  0  0  0  0
 11  4  1  0  0  0  0
 11 10  1  0  0  0  0
 12 26  1  0  0  0  0
 12  3  1  0  0  0  0
 13 16  1  0  0  0  0
 13  3  1  0  0  0  0
 14 15  1  0  0  0  0
 14 16  1  0  0  0  0
 16  6  1  0  0  0  0
 17 18  2  0  0  0  0
 18 19  1  0  0  0  0
 18 11  1  0  0  0  0
 18 20  1  0  0  0  0
 21 22  1  0  0  0  0
 21 20  1  0  0  0  0
 22 25  1  0  0  0  0
 23 25  2  0  0  0  0
 25 24  1  0  0  0  0
 26 27  1  0  0  0  0
 27 28  1  0  0  0  0
 29  9  1  0  0  0  0
 30 29  1  0  0  0  0
 32 33  2  0  0  0  0
 33 30  1  0  0  0  0
 33 31  2  0  0  0  0
 34 33  1  0  0  0  0
 35 34  1  0  0  0  0
 36 37  1  0  0  0  0
 37 35  1  0  0  0  0
 38 35  1  0  0  0  0
 39 38  1  0  0  0  0
 40 39  1  0  0  0  0
 41 39  1  0  0  0  0
 41 36  1  0  0  0  0
 42 44  1  0  0  0  0
 43 42  1  0  0  0  0
 43 36  1  0  0  0  0
 45 42  2  0  0  0  0
 47 46  1  0  0  0  0
 47 30  1  0  0  0  0
M  END
>  <MODEL>
1

>  <REMARK>
 VINA RESULT:      -6.5      0.000      0.000
  Name = 
  14 active torsions:
  status: ('A' for Active; 'I' for Inactive)
    1  A    between atoms: O_4  and  C_27
    2  A    between atoms: O_4  and  P_34
    3  A    between atoms: C_6  and  N_13
    4  A    between atoms: C_7  and  C_30
    5  A    between atoms: C_7  and  C_36
    6  A    between atoms: C_7  and  S_42
    7  A    between atoms: N_8  and  N_23
    8  A    between atoms: C_11  and  C_27
    9  A    between atoms: C_11  and  C_47
   10  A    between atoms: N_13  and  S_42
   11  A    between atoms: C_19  and  O_20
   12  A    between atoms: O_20  and  C_29
   13  A    between atoms: C_21  and  C_36
   14  A    between atoms: C_28  and  P_34
                            x       y       z     vdW  Elec       q    Type
                         _______ _______ _______ _____ _____    ______ ____

>  <TORSDO>
F 14

$$$$
=
 OpenBabel11072408383D

 47 50  0  0  1  0  0  0  0  0999 V2000
  194.7450  175.3300  145.6750 N   0  0  0  0  0  2  0  0  0  0  0  0
  194.2660  176.5260  146.3790 C   0  0  0  0  0  2  0  0  0  0  0  0
  193.9150  175.2290  144.4880 C   0  0  1  0  0  3  0  0  0  0  0  0
  193.4460  171.4580  143.6240 C   0  0  0  0  0  1  0  0  0  0  0  0
  189.8480  175.1200  146.2490 O   0  0  0  0  0  1  0  0  0  0  0  0
  192.7680  176.4160  146.7570 C   0  0  0  0  0  2  0  0  0  0  0  0
  191.8710  174.4640  143.6320 N   0  0  2  0  0  0  0  0  0  0  0  0
  191.2030  172.2260  142.9800 C   0  0  0  0  0  2  0  0  0  0  0  0
  190.8690  173.4210  143.8600 C   0  0  2  0  0  3  0  0  0  0  0  0
  192.9480  173.8460  142.8310 C   0  0  2  0  0  3  0  0  0  0  0  0
  192.6640  172.3530  142.6670 C   0  0  1  0  0  0  0  0  0  0  0  0
  194.2990  174.1680  143.5030 C   0  0  1  0  0  3  0  0  0  0  0  0
  192.5400  174.7950  144.8930 C   0  0  2  0  0  3  0  0  0  0  0  0
  190.5410  176.0610  145.7810 C   0  0  0  0  0  0  0  0  0  0  0  0
  189.9420  177.2750  145.4740 O   0  0  0  0  0  0  0  0  0  0  0  0
  191.9540  175.9110  145.6400 N   0  0  0  0  0  0  0  0  0  0  0  0
  194.6560  171.8330  140.6770 O   0  0  0  0  0  0  0  0  0  0  0  0
  192.9850  171.8470  140.9520 P   0  0  1  0  0  0  0  0  0  0  0  0
  192.4250  170.4610  140.7190 O   0  0  0  0  0  1  0  0  0  0  0  0
  192.2300  172.9510  139.9090 O   0  0  0  0  0  0  0  0  0  0  0  0
  192.2310  172.3410  138.6510 C   0  0  0  0  0  2  0  0  0  0  0  0
  190.8180  172.2980  138.0950 C   0  0  0  0  0  2  0  0  0  0  0  0
  191.3890  174.3040  136.9390 O   0  0  0  0  0  0  0  0  0  0  0  0
  189.6590  173.0750  135.9930 N   0  0  0  0  0  1  0  0  0  0  0  0
  190.6590  173.2800  136.9850 C   0  0  0  0  0  0  0  0  0  0  0  0
  195.3200  174.5570  142.6020 O   0  0  0  0  0  0  0  0  0  0  0  0
  194.9860  175.7780  141.9910 C   0  0  0  0  0  2  0  0  0  0  0  0
  196.2200  176.6530  141.9120 C   0  0  0  0  0  1  0  0  0  0  0  0
  189.4890  173.9530  143.4850 C   0  0  0  0  0  2  0  0  0  0  0  0
  189.4310  174.4610  142.0490 C   0  0  2  0  0  3  0  0  0  0  0  0
  187.8210  176.1130  140.6380 O   0  0  0  0  0  0  0  0  0  0  0  0
  189.3730  177.1290  142.2270 O   0  0  0  0  0  0  0  0  0  0  0  0
  188.4580  175.9610  141.9920 S   0  0  0  0  0  0  0  0  0  0  0  0
  187.2380  175.9560  143.2240 N   0  0  0  0  0  2  0  0  0  0  0  0
  186.5550  177.2390  143.2030 C   0  0  2  0  0  3  0  0  0  0  0  0
  185.4520  178.5210  145.0210 N   0  0  0  0  0  0  0  0  0  0  0  0
  186.7200  177.9440  144.5570 C   0  0  0  0  0  2  0  0  0  0  0  0
  185.1950  177.0470  142.9070 O   0  0  0  0  0  0  0  0  0  0  0  0
  184.6670  178.3290  142.6710 C   0  0  1  0  0  3  0  0  0  0  0  0
  183.3490  178.2170  142.2290 O   0  0  0  0  0  1  0  0  0  0  0  0
  184.7140  179.1930  143.9420 C   0  0  0  0  0  2  0  0  0  0  0  0
  185.9300  179.1380  147.4270 C   0  0  0  0  0  0  0  0  0  0  0  0
  185.7260  179.4560  146.0400 N   0  0  0  0  0  2  0  0  0  0  0  0
  185.9070  177.7320  147.9250 C   0  0  0  0  0  1  0  0  0  0  0  0
  186.1350  180.0710  148.2470 O   0  0  0  0  0  0  0  0  0  0  0  0
  187.7610  172.7840  141.7180 O   0  0  0  0  0  1  0  0  0  0  0  0
  188.8600  173.3970  141.1220 C   0  0  0  0  0  2  0  0  0  0  0  0
  1  2  1  0  0  0  0
  2  6  1  0  0  0  0
  3 13  1  0  0  0  0
  3  1  1  1  0  0  0
  7  9  1  0  0  0  0
  7 13  1  0  0  0  0
  8  9  1  0  0  0  0
 10 12  1  0  0  0  0
 10  7  1  0  0  0  0
 11 10  1  0  0  0  0
 11  8  1  0  0  0  0
 11  4  1  0  0  0  0
 12  3  1  0  0  0  0
 13 16  1  0  0  0  0
 14  5  1  0  0  0  0
 15 14  2  0  0  0  0
 16 14  1  0  0  0  0
 16  6  1  0  0  0  0
 17 18  2  0  0  0  0
 18 11  1  0  0  0  0
 19 18  1  0  0  0  0
 20 18  1  0  0  0  0
 21 20  1  0  0  0  0
 22 21  1  0  0  0  0
 23 25  2  0  0  0  0
 24 25  1  0  0  0  0
 25 22  1  0  0  0  0
 26 12  1  0  0  0  0
 27 26  1  0  0  0  0
 28 27  1  0  0  0  0
 29  9  1  0  0  0  0
 30 29  1  0  0  0  0
 31 33  2  0  0  0  0
 33 30  1  0  0  0  0
 33 32  2  0  0  0  0
 33 34  1  0  0  0  0
 35 34  1  0  0  0  0
 35 37  1  0  0  0  0
 36 43  1  0  0  0  0
 37 36  1  0  0  0  0
 38 35  1  0  0  0  0
 39 38  1  0  0  0  0
 39 41  1  0  0  0  0
 40 39  1  0  0  0  0
 41 36  1  0  0  0  0
 42 44  1  0  0  0  0
 42 45  2  0  0  0  0
 43 42  1  0  0  0  0
 47 46  1  0  0  0  0
 47 30  1  0  0  0  0
M  END
>  <MODEL>
2

>  <REMARK>
 VINA RESULT:      -6.4      2.547      7.696
  Name = 
  14 active torsions:
  status: ('A' for Active; 'I' for Inactive)
    1  A    between atoms: O_4  and  C_27
    2  A    between atoms: O_4  and  P_34
    3  A    between atoms: C_6  and  N_13
    4  A    between atoms: C_7  and  C_30
    5  A    between atoms: C_7  and  C_36
    6  A    between atoms: C_7  and  S_42
    7  A    between atoms: N_8  and  N_23
    8  A    between atoms: C_11  and  C_27
    9  A    between atoms: C_11  and  C_47
   10  A    between atoms: N_13  and  S_42
   11  A    between atoms: C_19  and  O_20
   12  A    between atoms: O_20  and  C_29
   13  A    between atoms: C_21  and  C_36
   14  A    between atoms: C_28  and  P_34
                            x       y       z     vdW  Elec       q    Type
                         _______ _______ _______ _____ _____    ______ ____

>  <TORSDO>
F 14

$$$$
=
 OpenBabel11072408383D

 47 50  0  0  1  0  0  0  0  0999 V2000
  194.8860  177.2100  144.6500 N   0  0  0  0  0  2  0  0  0  0  0  0
  196.0930  176.4750  144.2520 C   0  0  0  0  0  2  0  0  0  0  0  0
  193.8190  176.2260  144.6320 C   0  0  1  0  0  3  0  0  0  0  0  0
  190.5110  178.0120  143.6040 C   0  0  0  0  0  1  0  0  0  0  0  0
  194.0600  174.7210  140.4690 O   0  0  0  0  0  0  0  0  0  0  0  0
  195.9480  175.8390  142.8470 C   0  0  0  0  0  2  0  0  0  0  0  0
  192.2520  175.1160  143.2890 N   0  0  2  0  0  0  0  0  0  0  0  0
  190.1080  175.8790  142.4530 C   0  0  0  0  0  2  0  0  0  0  0  0
  191.4660  175.3140  142.0680 C   0  0  2  0  0  3  0  0  0  0  0  0
  191.5100  175.7810  144.3800 C   0  0  2  0  0  3  0  0  0  0  0  0
  190.3010  176.5130  143.7970 C   0  0  1  0  0  0  0  0  0  0  0  0
  192.4920  176.6850  145.1540 C   0  0  1  0  0  3  0  0  0  0  0  0
  193.4950  175.8880  143.2100 C   0  0  2  0  0  3  0  0  0  0  0  0
  194.5420  174.2950  141.5520 C   0  0  0  0  0  0  0  0  0  0  0  0
  195.0410  173.0010  141.6240 O   0  0  0  0  0  1  0  0  0  0  0  0
  194.6520  175.1630  142.6800 N   0  0  0  0  0  0  0  0  0  0  0  0
  187.4460  176.3210  143.8890 O   0  0  0  0  0  0  0  0  0  0  0  0
  188.8420  176.2270  144.8420 P   0  0  1  0  0  0  0  0  0  0  0  0
  188.9310  174.8540  145.4710 O   0  0  0  0  0  1  0  0  0  0  0  0
  188.8020  177.4100  146.0570 O   0  0  0  0  0  0  0  0  0  0  0  0
  187.7300  177.0640  146.8840 C   0  0  0  0  0  2  0  0  0  0  0  0
  186.9050  178.2980  147.2070 C   0  0  0  0  0  2  0  0  0  0  0  0
  185.9310  179.1760  145.2150 O   0  0  0  0  0  0  0  0  0  0  0  0
  184.5410  177.8050  146.4740 N   0  0  0  0  0  1  0  0  0  0  0  0
  185.7860  178.4520  146.2340 C   0  0  0  0  0  0  0  0  0  0  0  0
  192.3660  176.6100  146.5630 O   0  0  0  0  0  0  0  0  0  0  0  0
  192.0940  175.2870  146.9540 C   0  0  0  0  0  2  0  0  0  0  0  0
  191.0610  175.2940  148.0610 C   0  0  0  0  0  1  0  0  0  0  0  0
  191.2740  173.9730  141.3670 C   0  0  0  0  0  2  0  0  0  0  0  0
  189.9650  173.2950  141.7550 C   0  0  2  0  0  3  0  0  0  0  0  0
  190.0640  170.6060  142.0220 O   0  0  0  0  0  0  0  0  0  0  0  0
  189.4010  171.9140  143.9750 O   0  0  0  0  0  0  0  0  0  0  0  0
  190.3180  171.8760  142.7860 S   0  0  0  0  0  0  0  0  0  0  0  0
  191.9580  171.9120  143.3490 N   0  0  0  0  0  2  0  0  0  0  0  0
  192.4550  170.5470  143.4060 C   0  0  2  0  0  3  0  0  0  0  0  0
  194.5750  169.6300  144.3180 N   0  0  0  0  0  0  0  0  0  0  0  0
  193.3470  170.3660  144.6430 C   0  0  0  0  0  2  0  0  0  0  0  0
  193.1700  170.2540  142.2330 O   0  0  0  0  0  0  0  0  0  0  0  0
  193.4060  168.8680  142.2620 C   0  0  1  0  0  3  0  0  0  0  0  0
  193.9890  168.4680  141.0600 O   0  0  0  0  0  1  0  0  0  0  0  0
  194.3240  168.4830  143.4340 C   0  0  0  0  0  2  0  0  0  0  0  0
  196.2290  169.8110  146.2230 C   0  0  0  0  0  0  0  0  0  0  0  0
  195.1570  169.1660  145.5150 N   0  0  0  0  0  2  0  0  0  0  0  0
  196.8200  171.0990  145.7550 C   0  0  0  0  0  1  0  0  0  0  0  0
  196.6850  169.2770  147.2680 O   0  0  0  0  0  0  0  0  0  0  0  0
  187.8150  172.8480  140.8120 O   0  0  0  0  0  1  0  0  0  0  0  0
  189.1750  172.8940  140.5160 C   0  0  0  0  0  2  0  0  0  0  0  0
  2  1  1  0  0  0  0
  3  1  1  6  0  0  0
  3 12  1  0  0  0  0
  4 11  1  0  0  0  0
  5 14  2  0  0  0  0
  6  2  1  0  0  0  0
  7 10  1  0  0  0  0
  8 11  1  0  0  0  0
  9  8  1  0  0  0  0
  9  7  1  0  0  0  0
 10 12  1  0  0  0  0
 11 10  1  0  0  0  0
 11 18  1  0  0  0  0
 12 26  1  0  0  0  0
 13  7  1  0  0  0  0
 13  3  1  0  0  0  0
 14 15  1  0  0  0  0
 14 16  1  0  0  0  0
 16  6  1  0  0  0  0
 16 13  1  0  0  0  0
 17 18  2  0  0  0  0
 18 19  1  0  0  0  0
 18 20  1  0  0  0  0
 20 21  1  0  0  0  0
 21 22  1  0  0  0  0
 23 25  2  0  0  0  0
 25 24  1  0  0  0  0
 25 22  1  0  0  0  0
 26 27  1  0  0  0  0
 27 28  1  0  0  0  0
 29 30  1  0  0  0  0
 29  9  1  0  0  0  0
 30 33  1  0  0  0  0
 31 33  2  0  0  0  0
 33 34  1  0  0  0  0
 33 32  2  0  0  0  0
 34 35  1  0  0  0  0
 35 37  1  0  0  0  0
 36 37  1  0  0  0  0
 36 43  1  0  0  0  0
 38 39  1  0  0  0  0
 38 35  1  0  0  0  0
 39 41  1  0  0  0  0
 40 39  1  0  0  0  0
 41 36  1  0  0  0  0
 42 45  2  0  0  0  0
 43 42  1  0  0  0  0
 44 42  1  0  0  0  0
 47 46  1  0  0  0  0
 47 30  1  0  0  0  0
M  END
>  <MODEL>
3

>  <REMARK>
 VINA RESULT:      -6.4      3.412      6.342
  Name = 
  14 active torsions:
  status: ('A' for Active; 'I' for Inactive)
    1  A    between atoms: O_4  and  C_27
    2  A    between atoms: O_4  and  P_34
    3  A    between atoms: C_6  and  N_13
    4  A    between atoms: C_7  and  C_30
    5  A    between atoms: C_7  and  C_36
    6  A    between atoms: C_7  and  S_42
    7  A    between atoms: N_8  and  N_23
    8  A    between atoms: C_11  and  C_27
    9  A    between atoms: C_11  and  C_47
   10  A    between atoms: N_13  and  S_42
   11  A    between atoms: C_19  and  O_20
   12  A    between atoms: O_20  and  C_29
   13  A    between atoms: C_21  and  C_36
   14  A    between atoms: C_28  and  P_34
                            x       y       z     vdW  Elec       q    Type
                         _______ _______ _______ _____ _____    ______ ____

>  <TORSDO>
F 14

$$$$
=
 OpenBabel11072408383D

 47 50  0  0  1  0  0  0  0  0999 V2000
  188.0250  173.1170  141.2010 N   0  0  0  0  0  2  0  0  0  0  0  0
  188.4850  172.6290  139.8940 C   0  0  0  0  0  2  0  0  0  0  0  0
  188.8750  174.2550  141.5030 C   0  0  1  0  0  3  0  0  0  0  0  0
  189.3830  174.4280  145.3620 C   0  0  0  0  0  1  0  0  0  0  0  0
  192.9140  172.4430  141.2580 O   0  0  0  0  0  1  0  0  0  0  0  0
  189.9770  172.2160  139.9210 C   0  0  0  0  0  2  0  0  0  0  0  0
  190.9370  174.9310  142.3880 N   0  0  2  0  0  0  0  0  0  0  0  0
  191.6310  175.1650  144.6990 C   0  0  0  0  0  2  0  0  0  0  0  0
  191.9430  174.5070  143.3650 C   0  0  2  0  0  3  0  0  0  0  0  0
  189.8780  175.6250  143.1490 C   0  0  2  0  0  3  0  0  0  0  0  0
  190.1750  175.5170  144.6450 C   0  0  1  0  0  0  0  0  0  0  0  0
  188.5140  175.0410  142.7250 C   0  0  1  0  0  3  0  0  0  0  0  0
  190.2460  173.7580  141.8450 C   0  0  2  0  0  3  0  0  0  0  0  0
  192.2220  173.0810  140.4220 C   0  0  0  0  0  0  0  0  0  0  0  0
  192.8180  173.5890  139.2760 O   0  0  0  0  0  0  0  0  0  0  0  0
  190.8120  173.2130  140.6090 N   0  0  0  0  0  0  0  0  0  0  0  0
  190.5510  177.0900  147.0070 O   0  0  0  0  0  1  0  0  0  0  0  0
  189.8850  177.1200  145.4500 P   0  0  1  0  0  0  0  0  0  0  0  0
  190.5400  178.2180  144.6430 O   0  0  0  0  0  0  0  0  0  0  0  0
  188.2130  177.3920  145.5340 O   0  0  0  0  0  0  0  0  0  0  0  0
  187.9000  177.3900  146.8960 C   0  0  0  0  0  2  0  0  0  0  0  0
  186.4380  177.0250  147.0900 C   0  0  0  0  0  2  0  0  0  0  0  0
  185.3510  179.1480  147.0390 O   0  0  0  0  0  0  0  0  0  0  0  0
  184.9100  177.7660  145.2240 N   0  0  0  0  0  1  0  0  0  0  0  0
  185.5530  178.0470  146.4620 C   0  0  0  0  0  0  0  0  0  0  0  0
  187.5050  176.0120  142.5130 O   0  0  0  0  0  0  0  0  0  0  0  0
  188.0570  177.1610  141.9200 C   0  0  0  0  0  2  0  0  0  0  0  0
  187.1950  178.3600  142.2530 C   0  0  0  0  0  1  0  0  0  0  0  0
  193.3250  174.9490  142.8950 C   0  0  0  0  0  2  0  0  0  0  0  0
  194.3850  174.8030  143.9810 C   0  0  2  0  0  3  0  0  0  0  0  0
  197.0770  175.0440  143.9250 O   0  0  0  0  0  0  0  0  0  0  0  0
  195.7660  177.0710  144.2960 O   0  0  0  0  0  0  0  0  0  0  0  0
  195.8210  175.7750  143.5400 S   0  0  0  0  0  0  0  0  0  0  0  0
  195.8350  176.1240  141.8410 N   0  0  0  0  0  2  0  0  0  0  0  0
  196.7920  175.2400  141.1970 C   0  0  2  0  0  3  0  0  0  0  0  0
  197.1500  174.7070  138.7980 N   0  0  0  0  0  0  0  0  0  0  0  0
  197.1480  175.7770  139.8030 C   0  0  0  0  0  2  0  0  0  0  0  0
  196.2530  173.9450  141.1050 O   0  0  0  0  0  0  0  0  0  0  0  0
  197.3130  173.1150  140.6990 C   0  0  1  0  0  3  0  0  0  0  0  0
  196.8990  171.7830  140.7220 O   0  0  0  0  0  1  0  0  0  0  0  0
  197.7970  173.4810  139.2860 C   0  0  0  0  0  2  0  0  0  0  0  0
  197.2150  175.6160  136.4390 C   0  0  0  0  0  0  0  0  0  0  0  0
  197.8350  175.1620  137.6530 N   0  0  0  0  0  2  0  0  0  0  0  0
  195.7310  175.6860  136.2900 C   0  0  0  0  0  1  0  0  0  0  0  0
  197.9400  175.9680  135.4720 O   0  0  0  0  0  0  0  0  0  0  0  0
  194.3860  172.9320  145.4670 O   0  0  0  0  0  1  0  0  0  0  0  0
  194.7500  173.3400  144.1860 C   0  0  0  0  0  2  0  0  0  0  0  0
  2  6  1  0  0  0  0
  2  1  1  0  0  0  0
  3  1  1  1  0  0  0
  3 13  1  0  0  0  0
  3 12  1  0  0  0  0
  6 16  1  0  0  0  0
  7 10  1  0  0  0  0
  7  9  1  0  0  0  0
  9  8  1  0  0  0  0
 10 11  1  0  0  0  0
 11  8  1  0  0  0  0
 11  4  1  0  0  0  0
 11 18  1  0  0  0  0
 12 10  1  0  0  0  0
 13  7  1  0  0  0  0
 14 16  1  0  0  0  0
 14  5  1  0  0  0  0
 15 14  2  0  0  0  0
 16 13  1  0  0  0  0
 18 20  1  0  0  0  0
 18 17  1  0  0  0  0
 19 18  2  0  0  0  0
 20 21  1  0  0  0  0
 21 22  1  0  0  0  0
 24 25  1  0  0  0  0
 25 23  2  0  0  0  0
 25 22  1  0  0  0  0
 26 12  1  0  0  0  0
 27 28  1  0  0  0  0
 27 26  1  0  0  0  0
 29  9  1  0  0  0  0
 29 30  1  0  0  0  0
 30 47  1  0  0  0  0
 33 31  2  0  0  0  0
 33 30  1  0  0  0  0
 33 32  2  0  0  0  0
 34 33  1  0  0  0  0
 35 34  1  0  0  0  0
 36 41  1  0  0  0  0
 36 37  1  0  0  0  0
 37 35  1  0  0  0  0
 38 35  1  0  0  0  0
 39 40  1  0  0  0  0
 39 38  1  0  0  0  0
 41 39  1  0  0  0  0
 42 43  1  0  0  0  0
 43 36  1  0  0  0  0
 44 42  1  0  0  0  0
 45 42  2  0  0  0  0
 47 46  1  0  0  0  0
M  END
>  <MODEL>
4

>  <REMARK>
 VINA RESULT:      -6.4      3.578      6.317
  Name = 
  14 active torsions:
  status: ('A' for Active; 'I' for Inactive)
    1  A    between atoms: O_4  and  C_27
    2  A    between atoms: O_4  and  P_34
    3  A    between atoms: C_6  and  N_13
    4  A    between atoms: C_7  and  C_30
    5  A    between atoms: C_7  and  C_36
    6  A    between atoms: C_7  and  S_42
    7  A    between atoms: N_8  and  N_23
    8  A    between atoms: C_11  and  C_27
    9  A    between atoms: C_11  and  C_47
   10  A    between atoms: N_13  and  S_42
   11  A    between atoms: C_19  and  O_20
   12  A    between atoms: O_20  and  C_29
   13  A    between atoms: C_21  and  C_36
   14  A    between atoms: C_28  and  P_34
                            x       y       z     vdW  Elec       q    Type
                         _______ _______ _______ _____ _____    ______ ____

>  <TORSDO>
F 14

$$$$
=
 OpenBabel11072408383D

 47 50  0  0  1  0  0  0  0  0999 V2000
  190.5600  172.3680  138.7670 N   0  0  0  0  0  2  0  0  0  0  0  0
  189.1600  172.7560  138.5500 C   0  0  0  0  0  2  0  0  0  0  0  0
  190.6530  172.0590  140.1830 C   0  0  1  0  0  3  0  0  0  0  0  0
  194.2220  173.0110  141.4230 C   0  0  0  0  0  1  0  0  0  0  0  0
  189.2300  175.8360  142.0180 O   0  0  0  0  0  0  0  0  0  0  0  0
  188.7560  173.9770  139.4130 C   0  0  0  0  0  2  0  0  0  0  0  0
  190.9530  172.9530  142.3290 N   0  0  2  0  0  0  0  0  0  0  0  0
  192.9860  173.6560  143.4460 C   0  0  0  0  0  2  0  0  0  0  0  0
  191.5960  174.0820  143.0040 C   0  0  2  0  0  3  0  0  0  0  0  0
  192.0030  171.9340  142.1210 C   0  0  2  0  0  3  0  0  0  0  0  0
  193.3520  172.4990  142.5650 C   0  0  1  0  0  0  0  0  0  0  0  0
  191.9550  171.4810  140.6470 C   0  0  1  0  0  3  0  0  0  0  0  0
  190.5820  173.3350  140.9630 C   0  0  2  0  0  3  0  0  0  0  0  0
  188.6430  174.7570  141.7400 C   0  0  0  0  0  0  0  0  0  0  0  0
  187.3950  174.4890  142.2860 O   0  0  0  0  0  1  0  0  0  0  0  0
  189.2190  173.8470  140.8030 N   0  0  0  0  0  0  0  0  0  0  0  0
  193.3660  170.8340  144.8940 O   0  0  0  0  0  1  0  0  0  0  0  0
  194.2620  171.2480  143.5180 P   0  0  1  0  0  0  0  0  0  0  0  0
  194.4740  170.0160  142.6660 O   0  0  0  0  0  0  0  0  0  0  0  0
  195.7630  171.8950  143.9710 O   0  0  0  0  0  0  0  0  0  0  0  0
  195.6630  172.1540  145.3410 C   0  0  0  0  0  2  0  0  0  0  0  0
  196.7100  173.1750  145.7520 C   0  0  0  0  0  2  0  0  0  0  0  0
  197.0410  175.0430  144.3050 O   0  0  0  0  0  0  0  0  0  0  0  0
  195.2720  175.2490  145.7980 N   0  0  0  0  0  1  0  0  0  0  0  0
  196.3600  174.5270  145.2300 C   0  0  0  0  0  0  0  0  0  0  0  0
  192.0660  170.0810  140.4630 O   0  0  0  0  0  0  0  0  0  0  0  0
  191.2130  169.4080  141.3560 C   0  0  0  0  0  2  0  0  0  0  0  0
  190.5550  168.2460  140.6400 C   0  0  0  0  0  1  0  0  0  0  0  0
  190.7750  174.4740  144.2290 C   0  0  0  0  0  2  0  0  0  0  0  0
  191.4630  175.5390  145.0750 C   0  0  2  0  0  3  0  0  0  0  0  0
  191.5570  175.7170  147.7720 O   0  0  0  0  0  0  0  0  0  0  0  0
  189.6500  174.5580  146.7790 O   0  0  0  0  0  0  0  0  0  0  0  0
  190.5860  175.7220  146.6230 S   0  0  0  0  0  0  0  0  0  0  0  0
  189.6570  177.1870  146.6400 N   0  0  0  0  0  2  0  0  0  0  0  0
  188.2480  176.8400  146.5570 C   0  0  2  0  0  3  0  0  0  0  0  0
  186.4910  177.5610  144.9570 N   0  0  0  0  0  0  0  0  0  0  0  0
  187.7840  176.8780  145.0930 C   0  0  0  0  0  2  0  0  0  0  0  0
  187.4940  177.7310  147.3380 O   0  0  0  0  0  0  0  0  0  0  0  0
  186.1970  177.1900  147.3960 C   0  0  1  0  0  3  0  0  0  0  0  0
  185.4160  177.9410  148.2750 O   0  0  0  0  0  1  0  0  0  0  0  0
  185.5390  177.1730  146.0060 C   0  0  0  0  0  2  0  0  0  0  0  0
  184.8770  177.9580  143.0500 C   0  0  0  0  0  0  0  0  0  0  0  0
  185.9410  177.2420  143.6980 N   0  0  0  0  0  2  0  0  0  0  0  0
  184.2610  179.1740  143.6580 C   0  0  0  0  0  1  0  0  0  0  0  0
  184.4510  177.5520  141.9370 O   0  0  0  0  0  0  0  0  0  0  0  0
  192.8260  177.0540  143.8260 O   0  0  0  0  0  1  0  0  0  0  0  0
  191.5390  176.8610  144.3240 C   0  0  0  0  0  2  0  0  0  0  0  0
  2  1  1  0  0  0  0
  2  6  1  0  0  0  0
  3  1  1  6  0  0  0
  3 12  1  0  0  0  0
  3 13  1  0  0  0  0
  4 11  1  0  0  0  0
  6 16  1  0  0  0  0
  7  9  1  0  0  0  0
  9  8  1  0  0  0  0
  9 29  1  0  0  0  0
 10  7  1  0  0  0  0
 10 11  1  0  0  0  0
 11  8  1  0  0  0  0
 11 18  1  0  0  0  0
 12 10  1  0  0  0  0
 13  7  1  0  0  0  0
 14  5  2  0  0  0  0
 14 15  1  0  0  0  0
 16 13  1  0  0  0  0
 16 14  1  0  0  0  0
 18 20  1  0  0  0  0
 18 17  1  0  0  0  0
 19 18  2  0  0  0  0
 20 21  1  0  0  0  0
 21 22  1  0  0  0  0
 23 25  2  0  0  0  0
 25 22  1  0  0  0  0
 25 24  1  0  0  0  0
 26 12  1  0  0  0  0
 26 27  1  0  0  0  0
 28 27  1  0  0  0  0
 29 30  1  0  0  0  0
 30 33  1  0  0  0  0
 33 34  1  0  0  0  0
 33 32  2  0  0  0  0
 33 31  2  0  0  0  0
 35 34  1  0  0  0  0
 35 38  1  0  0  0  0
 36 37  1  0  0  0  0
 36 41  1  0  0  0  0
 37 35  1  0  0  0  0
 38 39  1  0  0  0  0
 39 40  1  0  0  0  0
 41 39  1  0  0  0  0
 42 44  1  0  0  0  0
 42 43  1  0  0  0  0
 43 36  1  0  0  0  0
 45 42  2  0  0  0  0
 46 47  1  0  0  0  0
 47 30  1  0  0  0  0
M  END
>  <MODEL>
5

>  <REMARK>
 VINA RESULT:      -6.2      3.094      8.749
  Name = 
  14 active torsions:
  status: ('A' for Active; 'I' for Inactive)
    1  A    between atoms: O_4  and  C_27
    2  A    between atoms: O_4  and  P_34
    3  A    between atoms: C_6  and  N_13
    4  A    between atoms: C_7  and  C_30
    5  A    between atoms: C_7  and  C_36
    6  A    between atoms: C_7  and  S_42
    7  A    between atoms: N_8  and  N_23
    8  A    between atoms: C_11  and  C_27
    9  A    between atoms: C_11  and  C_47
   10  A    between atoms: N_13  and  S_42
   11  A    between atoms: C_19  and  O_20
   12  A    between atoms: O_20  and  C_29
   13  A    between atoms: C_21  and  C_36
   14  A    between atoms: C_28  and  P_34
                            x       y       z     vdW  Elec       q    Type
                         _______ _______ _______ _____ _____    ______ ____

>  <TORSDO>
F 14

$$$$
=
 OpenBabel11072408383D

 47 50  0  0  1  0  0  0  0  0999 V2000
  195.9750  175.5800  141.2940 N   0  0  0  0  0  2  0  0  0  0  0  0
  196.4730  176.7880  141.9650 C   0  0  0  0  0  2  0  0  0  0  0  0
  194.6110  175.4210  141.7630 C   0  0  1  0  0  3  0  0  0  0  0  0
  193.7980  171.6130  141.9230 C   0  0  0  0  0  1  0  0  0  0  0  0
  195.1870  175.2740  146.1560 O   0  0  0  0  0  1  0  0  0  0  0  0
  196.4280  176.6550  143.5080 C   0  0  0  0  0  2  0  0  0  0  0  0
  193.2550  174.5780  143.4800 N   0  0  2  0  0  0  0  0  0  0  0  0
  192.5320  172.3050  143.9120 C   0  0  0  0  0  2  0  0  0  0  0  0
  193.2390  173.5200  144.4920 C   0  0  2  0  0  3  0  0  0  0  0  0
  192.8070  173.9590  142.2160 C   0  0  2  0  0  3  0  0  0  0  0  0
  192.6290  172.4560  142.4230 C   0  0  1  0  0  0  0  0  0  0  0  0
  193.8120  174.3360  141.1070 C   0  0  1  0  0  3  0  0  0  0  0  0
  194.6380  174.9670  143.1900 C   0  0  2  0  0  3  0  0  0  0  0  0
  194.8910  176.2150  145.3730 C   0  0  0  0  0  0  0  0  0  0  0  0
  194.3850  177.4030  145.8810 O   0  0  0  0  0  0  0  0  0  0  0  0
  195.1510  176.0940  143.9750 N   0  0  0  0  0  0  0  0  0  0  0  0
  191.4620  170.8450  140.3640 O   0  0  0  0  0  0  0  0  0  0  0  0
  191.0890  171.9000  141.6350 P   0  0  1  0  0  0  0  0  0  0  0  0
  190.2300  171.1810  142.6510 O   0  0  0  0  0  1  0  0  0  0  0  0
  190.2600  173.2570  141.0440 O   0  0  0  0  0  0  0  0  0  0  0  0
  189.0250  172.7790  140.6000 C   0  0  0  0  0  2  0  0  0  0  0  0
  188.4800  173.6850  139.5090 C   0  0  0  0  0  2  0  0  0  0  0  0
  189.3890  172.0660  138.0110 O   0  0  0  0  0  0  0  0  0  0  0  0
  188.9410  174.1430  137.0710 N   0  0  0  0  0  1  0  0  0  0  0  0
  188.9530  173.2370  138.1680 C   0  0  0  0  0  0  0  0  0  0  0  0
  193.2120  174.7190  139.8820 O   0  0  0  0  0  0  0  0  0  0  0  0
  193.3080  173.6700  138.9500 C   0  0  0  0  0  2  0  0  0  0  0  0
  194.7650  173.4290  138.6160 C   0  0  0  0  0  1  0  0  0  0  0  0
  192.4790  174.0060  145.7220 C   0  0  0  0  0  2  0  0  0  0  0  0
  191.1910  174.7380  145.3590 C   0  0  2  0  0  3  0  0  0  0  0  0
  191.9360  176.1510  147.5410 O   0  0  0  0  0  0  0  0  0  0  0  0
  189.7240  175.1150  147.5640 O   0  0  0  0  0  0  0  0  0  0  0  0
  190.7300  175.8240  146.7030 S   0  0  0  0  0  0  0  0  0  0  0  0
  190.0130  177.2850  146.1010 N   0  0  0  0  0  2  0  0  0  0  0  0
  188.5750  177.0920  146.0200 C   0  0  2  0  0  3  0  0  0  0  0  0
  186.8620  178.2310  144.6290 N   0  0  0  0  0  0  0  0  0  0  0  0
  188.0820  177.4150  144.6020 C   0  0  0  0  0  2  0  0  0  0  0  0
  187.9330  177.9100  146.9640 O   0  0  0  0  0  0  0  0  0  0  0  0
  186.5900  177.4940  146.9860 C   0  0  1  0  0  3  0  0  0  0  0  0
  185.9100  178.1610  148.0050 O   0  0  0  0  0  1  0  0  0  0  0  0
  185.9000  177.7690  145.6390 C   0  0  0  0  0  2  0  0  0  0  0  0
  186.9460  178.2200  142.1010 C   0  0  0  0  0  0  0  0  0  0  0  0
  186.2520  178.1780  143.3580 N   0  0  0  0  0  2  0  0  0  0  0  0
  188.4350  178.2880  142.0240 C   0  0  0  0  0  1  0  0  0  0  0  0
  186.2820  178.1980  141.0310 O   0  0  0  0  0  0  0  0  0  0  0  0
  189.3100  174.2190  143.9800 O   0  0  0  0  0  1  0  0  0  0  0  0
  190.0780  173.7490  145.0420 C   0  0  0  0  0  2  0  0  0  0  0  0
  1  2  1  0  0  0  0
  2  6  1  0  0  0  0
  3  1  1  6  0  0  0
  3 13  1  0  0  0  0
  4 11  1  0  0  0  0
  6 16  1  0  0  0  0
  7  9  1  0  0  0  0
  8  9  1  0  0  0  0
  9 29  1  0  0  0  0
 10 11  1  0  0  0  0
 10  7  1  0  0  0  0
 11  8  1  0  0  0  0
 12  3  1  0  0  0  0
 12 10  1  0  0  0  0
 13  7  1  0  0  0  0
 13 16  1  0  0  0  0
 14 15  2  0  0  0  0
 14  5  1  0  0  0  0
 16 14  1  0  0  0  0
 17 18  2  0  0  0  0
 18 11  1  0  0  0  0
 18 19  1  0  0  0  0
 20 18  1  0  0  0  0
 21 20  1  0  0  0  0
 22 21  1  0  0  0  0
 23 25  2  0  0  0  0
 24 25  1  0  0  0  0
 25 22  1  0  0  0  0
 26 12  1  0  0  0  0
 27 26  1  0  0  0  0
 28 27  1  0  0  0  0
 30 29  1  0  0  0  0
 30 33  1  0  0  0  0
 33 31  2  0  0  0  0
 33 32  2  0  0  0  0
 34 33  1  0  0  0  0
 35 34  1  0  0  0  0
 35 38  1  0  0  0  0
 36 41  1  0  0  0  0
 37 36  1  0  0  0  0
 37 35  1  0  0  0  0
 38 39  1  0  0  0  0
 39 40  1  0  0  0  0
 41 39  1  0  0  0  0
 42 43  1  0  0  0  0
 43 36  1  0  0  0  0
 44 42  1  0  0  0  0
 45 42  2  0  0  0  0
 46 47  1  0  0  0  0
 47 30  1  0  0  0  0
M  END
>  <MODEL>
6

>  <REMARK>
 VINA RESULT:      -6.2      2.706      7.545
  Name = 
  14 active torsions:
  status: ('A' for Active; 'I' for Inactive)
    1  A    between atoms: O_4  and  C_27
    2  A    between atoms: O_4  and  P_34
    3  A    between atoms: C_6  and  N_13
    4  A    between atoms: C_7  and  C_30
    5  A    between atoms: C_7  and  C_36
    6  A    between atoms: C_7  and  S_42
    7  A    between atoms: N_8  and  N_23
    8  A    between atoms: C_11  and  C_27
    9  A    between atoms: C_11  and  C_47
   10  A    between atoms: N_13  and  S_42
   11  A    between atoms: C_19  and  O_20
   12  A    between atoms: O_20  and  C_29
   13  A    between atoms: C_21  and  C_36
   14  A    between atoms: C_28  and  P_34
                            x       y       z     vdW  Elec       q    Type
                         _______ _______ _______ _____ _____    ______ ____

>  <TORSDO>
F 14

$$$$
=
 OpenBabel11072408383D

 47 50  0  0  1  0  0  0  0  0999 V2000
  190.8850  170.8300  142.4460 N   0  0  0  0  0  2  0  0  0  0  0  0
  192.0110  169.9000  142.2950 C   0  0  0  0  0  2  0  0  0  0  0  0
  191.4850  172.1510  142.4800 C   0  0  1  0  0  3  0  0  0  0  0  0
  189.3290  174.4290  144.7920 C   0  0  0  0  0  1  0  0  0  0  0  0
  194.3250  171.7550  145.8610 O   0  0  0  0  0  1  0  0  0  0  0  0
  193.0230  170.0200  143.4620 C   0  0  0  0  0  2  0  0  0  0  0  0
  192.5160  173.7590  143.8390 N   0  0  2  0  0  0  0  0  0  0  0  0
  191.5300  175.3420  145.3880 C   0  0  0  0  0  2  0  0  0  0  0  0
  192.5400  174.2160  145.2310 C   0  0  2  0  0  3  0  0  0  0  0  0
  191.3440  174.3980  143.2060 C   0  0  2  0  0  3  0  0  0  0  0  0
  190.5540  175.1680  144.2640 C   0  0  1  0  0  0  0  0  0  0  0  0
  190.5340  173.3080  142.4730 C   0  0  1  0  0  3  0  0  0  0  0  0
  192.1860  172.3320  143.7910 C   0  0  2  0  0  3  0  0  0  0  0  0
  194.4710  171.6340  144.6170 C   0  0  0  0  0  0  0  0  0  0  0  0
  195.7450  171.6280  144.0680 O   0  0  0  0  0  0  0  0  0  0  0  0
  193.3350  171.4220  143.7780 N   0  0  0  0  0  0  0  0  0  0  0  0
  191.4440  177.6920  143.2450 O   0  0  0  0  0  1  0  0  0  0  0  0
  190.0580  176.7880  143.6070 P   0  0  1  0  0  0  0  0  0  0  0  0
  189.2390  176.5970  142.3500 O   0  0  0  0  0  0  0  0  0  0  0  0
  189.1280  177.5890  144.7780 O   0  0  0  0  0  0  0  0  0  0  0  0
  187.8150  177.5540  144.3030 C   0  0  0  0  0  2  0  0  0  0  0  0
  186.8540  177.9630  145.4060 C   0  0  0  0  0  2  0  0  0  0  0  0
  184.4860  178.0700  145.6700 O   0  0  0  0  0  0  0  0  0  0  0  0
  185.2430  178.1720  143.4750 N   0  0  0  0  0  1  0  0  0  0  0  0
  185.4650  178.0800  144.8780 C   0  0  0  0  0  0  0  0  0  0  0  0
  190.0860  173.6830  141.1830 O   0  0  0  0  0  0  0  0  0  0  0  0
  188.9600  172.9220  140.8220 C   0  0  0  0  0  2  0  0  0  0  0  0
  187.8710  173.1180  141.8560 C   0  0  0  0  0  1  0  0  0  0  0  0
  193.9330  174.7370  145.5690 C   0  0  0  0  0  2  0  0  0  0  0  0
  194.3490  175.9070  144.6840 C   0  0  2  0  0  3  0  0  0  0  0  0
  196.8680  174.9240  144.6870 O   0  0  0  0  0  0  0  0  0  0  0  0
  196.3430  176.6880  143.0810 O   0  0  0  0  0  0  0  0  0  0  0  0
  195.8120  175.4570  143.7580 S   0  0  0  0  0  0  0  0  0  0  0  0
  195.4390  174.2750  142.5450 N   0  0  0  0  0  2  0  0  0  0  0  0
  195.4020  174.9370  141.2520 C   0  0  2  0  0  3  0  0  0  0  0  0
  194.1790  174.3630  139.1690 N   0  0  0  0  0  0  0  0  0  0  0  0
  194.0360  174.7150  140.5870 C   0  0  0  0  0  2  0  0  0  0  0  0
  196.4350  174.4440  140.4370 O   0  0  0  0  0  0  0  0  0  0  0  0
  196.4790  175.2910  139.3150 C   0  0  1  0  0  3  0  0  0  0  0  0
  197.5750  174.9570  138.5200 O   0  0  0  0  0  1  0  0  0  0  0  0
  195.1880  175.1840  138.4860 C   0  0  0  0  0  2  0  0  0  0  0  0
  191.9760  173.5030  138.2720 C   0  0  0  0  0  0  0  0  0  0  0  0
  192.9350  174.5410  138.5290 N   0  0  0  0  0  2  0  0  0  0  0  0
  192.2030  172.0940  138.7080 C   0  0  0  0  0  1  0  0  0  0  0  0
  190.9110  173.7860  137.6610 O   0  0  0  0  0  0  0  0  0  0  0  0
  194.1620  176.9460  146.8270 O   0  0  0  0  0  1  0  0  0  0  0  0
  194.5850  177.1580  145.5170 C   0  0  0  0  0  2  0  0  0  0  0  0
  2  1  1  0  0  0  0
  2  6  1  0  0  0  0
  3  1  1  1  0  0  0
  3 13  1  0  0  0  0
  6 16  1  0  0  0  0
  7  9  1  0  0  0  0
  9  8  1  0  0  0  0
  9 29  1  0  0  0  0
 10  7  1  0  0  0  0
 10 11  1  0  0  0  0
 11  4  1  0  0  0  0
 11  8  1  0  0  0  0
 12  3  1  0  0  0  0
 12 10  1  0  0  0  0
 13  7  1  0  0  0  0
 14  5  1  0  0  0  0
 15 14  2  0  0  0  0
 16 13  1  0  0  0  0
 16 14  1  0  0  0  0
 17 18  1  0  0  0  0
 18 11  1  0  0  0  0
 18 20  1  0  0  0  0
 19 18  2  0  0  0  0
 21 20  1  0  0  0  0
 21 22  1  0  0  0  0
 24 25  1  0  0  0  0
 25 22  1  0  0  0  0
 25 23  2  0  0  0  0
 26 12  1  0  0  0  0
 27 26  1  0  0  0  0
 27 28  1  0  0  0  0
 30 47  1  0  0  0  0
 30 29  1  0  0  0  0
 32 33  2  0  0  0  0
 33 30  1  0  0  0  0
 33 31  2  0  0  0  0
 34 33  1  0  0  0  0
 35 34  1  0  0  0  0
 36 37  1  0  0  0  0
 37 35  1  0  0  0  0
 38 35  1  0  0  0  0
 39 38  1  0  0  0  0
 40 39  1  0  0  0  0
 41 36  1  0  0  0  0
 41 39  1  0  0  0  0
 42 43  1  0  0  0  0
 42 44  1  0  0  0  0
 43 36  1  0  0  0  0
 45 42  2  0  0  0  0
 47 46  1  0  0  0  0
M  END
>  <MODEL>
7

>  <REMARK>
 VINA RESULT:      -6.2      3.084      5.546
  Name = 
  14 active torsions:
  status: ('A' for Active; 'I' for Inactive)
    1  A    between atoms: O_4  and  C_27
    2  A    between atoms: O_4  and  P_34
    3  A    between atoms: C_6  and  N_13
    4  A    between atoms: C_7  and  C_30
    5  A    between atoms: C_7  and  C_36
    6  A    between atoms: C_7  and  S_42
    7  A    between atoms: N_8  and  N_23
    8  A    between atoms: C_11  and  C_27
    9  A    between atoms: C_11  and  C_47
   10  A    between atoms: N_13  and  S_42
   11  A    between atoms: C_19  and  O_20
   12  A    between atoms: O_20  and  C_29
   13  A    between atoms: C_21  and  C_36
   14  A    between atoms: C_28  and  P_34
                            x       y       z     vdW  Elec       q    Type
                         _______ _______ _______ _____ _____    ______ ____

>  <TORSDO>
F 14

$$$$
=
 OpenBabel11072408383D

 47 50  0  0  1  0  0  0  0  0999 V2000
  196.5280  171.9060  142.1540 N   0  0  0  0  0  2  0  0  0  0  0  0
  197.6040  172.9050  142.1320 C   0  0  0  0  0  2  0  0  0  0  0  0
  195.2970  172.6710  142.0780 C   0  0  1  0  0  3  0  0  0  0  0  0
  192.5420  170.7810  144.0850 C   0  0  0  0  0  1  0  0  0  0  0  0
  195.7040  175.3680  145.5730 O   0  0  0  0  0  1  0  0  0  0  0  0
  197.4950  173.9010  143.3140 C   0  0  0  0  0  2  0  0  0  0  0  0
  193.7030  173.8730  143.3070 N   0  0  2  0  0  0  0  0  0  0  0  0
  191.8590  173.0700  144.6600 C   0  0  0  0  0  2  0  0  0  0  0  0
  193.1140  173.9290  144.6470 C   0  0  2  0  0  3  0  0  0  0  0  0
  192.9890  172.8060  142.5760 C   0  0  2  0  0  3  0  0  0  0  0  0
  192.0210  172.1020  143.5270 C   0  0  1  0  0  0  0  0  0  0  0  0
  194.0360  171.8770  141.9280 C   0  0  1  0  0  3  0  0  0  0  0  0
  195.0750  173.3630  143.3880 C   0  0  2  0  0  3  0  0  0  0  0  0
  195.9680  175.5220  144.3510 C   0  0  0  0  0  0  0  0  0  0  0  0
  196.1900  176.7960  143.8470 O   0  0  0  0  0  0  0  0  0  0  0  0
  196.1190  174.3850  143.5010 N   0  0  0  0  0  0  0  0  0  0  0  0
  190.4200  170.2960  141.9880 O   0  0  0  0  0  0  0  0  0  0  0  0
  190.4260  171.8330  142.6990 P   0  0  1  0  0  0  0  0  0  0  0  0
  189.3070  171.9240  143.7120 O   0  0  0  0  0  1  0  0  0  0  0  0
  190.2210  173.0270  141.5120 O   0  0  0  0  0  0  0  0  0  0  0  0
  190.0230  172.3360  140.3140 C   0  0  0  0  0  2  0  0  0  0  0  0
  190.4100  173.2180  139.1380 C   0  0  0  0  0  2  0  0  0  0  0  0
  189.3400  172.6240  137.0910 O   0  0  0  0  0  0  0  0  0  0  0  0
  188.1920  174.1650  138.3980 N   0  0  0  0  0  1  0  0  0  0  0  0
  189.2950  173.2990  138.1530 C   0  0  0  0  0  0  0  0  0  0  0  0
  193.7400  171.5070  140.5930 O   0  0  0  0  0  0  0  0  0  0  0  0
  193.5920  170.1120  140.5000 C   0  0  0  0  0  2  0  0  0  0  0  0
  193.7570  169.6860  139.0560 C   0  0  0  0  0  1  0  0  0  0  0  0
  192.7420  175.3710  144.9770 C   0  0  0  0  0  2  0  0  0  0  0  0
  191.2340  175.5960  144.9890 C   0  0  2  0  0  3  0  0  0  0  0  0
  191.7250  176.1670  142.3910 O   0  0  0  0  0  0  0  0  0  0  0  0
  190.7860  177.9410  143.7830 O   0  0  0  0  0  0  0  0  0  0  0  0
  190.7550  176.4660  143.5010 S   0  0  0  0  0  0  0  0  0  0  0  0
  189.1470  176.0290  143.0170 N   0  0  0  0  0  2  0  0  0  0  0  0
  188.3590  177.2430  142.8880 C   0  0  2  0  0  3  0  0  0  0  0  0
  186.4110  178.0590  144.1940 N   0  0  0  0  0  0  0  0  0  0  0  0
  187.8250  177.6710  144.2630 C   0  0  0  0  0  2  0  0  0  0  0  0
  187.2990  177.0250  141.9920 O   0  0  0  0  0  0  0  0  0  0  0  0
  186.7400  178.2910  141.7420 C   0  0  1  0  0  3  0  0  0  0  0  0
  185.7680  178.1860  140.7470 O   0  0  0  0  0  1  0  0  0  0  0  0
  186.1130  178.8840  143.0150 C   0  0  0  0  0  2  0  0  0  0  0  0
  185.3290  178.2780  146.4700 C   0  0  0  0  0  0  0  0  0  0  0  0
  186.0830  178.7860  145.3560 N   0  0  0  0  0  2  0  0  0  0  0  0
  184.8380  176.8690  146.5130 C   0  0  0  0  0  1  0  0  0  0  0  0
  185.0730  179.0410  147.4380 O   0  0  0  0  0  0  0  0  0  0  0  0
  189.6190  175.8360  146.7330 O   0  0  0  0  0  1  0  0  0  0  0  0
  190.8110  176.3580  146.2360 C   0  0  0  0  0  2  0  0  0  0  0  0
  2  1  1  0  0  0  0
  2  6  1  0  0  0  0
  3  1  1  1  0  0  0
  3 13  1  0  0  0  0
  6 16  1  0  0  0  0
  7 13  1  0  0  0  0
  7  9  1  0  0  0  0
  9  8  1  0  0  0  0
  9 29  1  0  0  0  0
 10  7  1  0  0  0  0
 10 11  1  0  0  0  0
 11  4  1  0  0  0  0
 11  8  1  0  0  0  0
 12  3  1  0  0  0  0
 12 10  1  0  0  0  0
 13 16  1  0  0  0  0
 14  5  1  0  0  0  0
 15 14  2  0  0  0  0
 16 14  1  0  0  0  0
 17 18  2  0  0  0  0
 18 11  1  0  0  0  0
 18 19  1  0  0  0  0
 20 18  1  0  0  0  0
 21 20  1  0  0  0  0
 22 21  1  0  0  0  0
 23 25  2  0  0  0  0
 25 24  1  0  0  0  0
 25 22  1  0  0  0  0
 26 12  1  0  0  0  0
 27 26  1  0  0  0  0
 28 27  1  0  0  0  0
 29 30  1  0  0  0  0
 30 47  1  0  0  0  0
 31 33  2  0  0  0  0
 33 32  2  0  0  0  0
 33 30  1  0  0  0  0
 34 33  1  0  0  0  0
 35 34  1  0  0  0  0
 35 37  1  0  0  0  0
 36 37  1  0  0  0  0
 36 43  1  0  0  0  0
 38 35  1  0  0  0  0
 39 38  1  0  0  0  0
 39 41  1  0  0  0  0
 40 39  1  0  0  0  0
 41 36  1  0  0  0  0
 42 44  1  0  0  0  0
 42 45  2  0  0  0  0
 43 42  1  0  0  0  0
 47 46  1  0  0  0  0
M  END
>  <MODEL>
8

>  <REMARK>
 VINA RESULT:      -6.1      2.897      7.609
  Name = 
  14 active torsions:
  status: ('A' for Active; 'I' for Inactive)
    1  A    between atoms: O_4  and  C_27
    2  A    between atoms: O_4  and  P_34
    3  A    between atoms: C_6  and  N_13
    4  A    between atoms: C_7  and  C_30
    5  A    between atoms: C_7  and  C_36
    6  A    between atoms: C_7  and  S_42
    7  A    between atoms: N_8  and  N_23
    8  A    between atoms: C_11  and  C_27
    9  A    between atoms: C_11  and  C_47
   10  A    between atoms: N_13  and  S_42
   11  A    between atoms: C_19  and  O_20
   12  A    between atoms: O_20  and  C_29
   13  A    between atoms: C_21  and  C_36
   14  A    between atoms: C_28  and  P_34
                            x       y       z     vdW  Elec       q    Type
                         _______ _______ _______ _____ _____    ______ ____

>  <TORSDO>
F 14

$$$$
=
 OpenBabel11072408383D

 47 50  0  0  1  0  0  0  0  0999 V2000
  195.2840  176.7880  144.6310 N   0  0  0  0  0  2  0  0  0  0  0  0
  196.3070  175.8510  144.1510 C   0  0  0  0  0  2  0  0  0  0  0  0
  194.0570  176.0130  144.6900 C   0  0  1  0  0  3  0  0  0  0  0  0
  191.0640  178.3760  143.8900 C   0  0  0  0  0  1  0  0  0  0  0  0
  193.7350  174.5310  140.5250 O   0  0  0  0  0  0  0  0  0  0  0  0
  195.9530  175.2660  142.7610 C   0  0  0  0  0  2  0  0  0  0  0  0
  192.2260  175.2180  143.4620 N   0  0  2  0  0  0  0  0  0  0  0  0
  190.2030  176.3630  142.7750 C   0  0  0  0  0  2  0  0  0  0  0  0
  191.4060  175.5660  142.2990 C   0  0  2  0  0  3  0  0  0  0  0  0
  191.6940  175.9940  144.6000 C   0  0  2  0  0  3  0  0  0  0  0  0
  190.6000  176.9390  144.1020 C   0  0  1  0  0  0  0  0  0  0  0  0
  192.8740  176.6990  145.3020 C   0  0  1  0  0  3  0  0  0  0  0  0
  193.5800  175.7540  143.2940 C   0  0  2  0  0  3  0  0  0  0  0  0
  194.2050  174.0140  141.5720 C   0  0  0  0  0  0  0  0  0  0  0  0
  194.4660  172.6510  141.6130 O   0  0  0  0  0  1  0  0  0  0  0  0
  194.5480  174.8360  142.6870 N   0  0  0  0  0  0  0  0  0  0  0  0
  188.9150  175.3180  145.7540 O   0  0  0  0  0  0  0  0  0  0  0  0
  189.1890  176.9100  145.2460 P   0  0  1  0  0  0  0  0  0  0  0  0
  189.4940  177.7760  146.4480 O   0  0  0  0  0  1  0  0  0  0  0  0
  187.8230  177.5100  144.4410 O   0  0  0  0  0  0  0  0  0  0  0  0
  186.7230  176.9890  145.1280 C   0  0  0  0  0  2  0  0  0  0  0  0
  185.6400  178.0490  145.2500 C   0  0  0  0  0  2  0  0  0  0  0  0
  184.0600  178.3960  147.0030 O   0  0  0  0  0  0  0  0  0  0  0  0
  186.2840  178.3350  147.6740 N   0  0  0  0  0  1  0  0  0  0  0  0
  185.2690  178.2590  146.6790 C   0  0  0  0  0  0  0  0  0  0  0  0
  192.8340  176.6340  146.7160 O   0  0  0  0  0  0  0  0  0  0  0  0
  192.3190  175.3920  147.1280 C   0  0  0  0  0  2  0  0  0  0  0  0
  191.3730  175.6030  148.2920 C   0  0  0  0  0  1  0  0  0  0  0  0
  190.9270  174.2890  141.6160 C   0  0  0  0  0  2  0  0  0  0  0  0
  189.7140  173.6780  142.3080 C   0  0  2  0  0  3  0  0  0  0  0  0
  189.3160  171.9090  144.3140 O   0  0  0  0  0  0  0  0  0  0  0  0
  191.6160  172.3080  143.5940 O   0  0  0  0  0  0  0  0  0  0  0  0
  190.1980  172.1610  143.1220 S   0  0  0  0  0  0  0  0  0  0  0  0
  190.1150  170.8170  142.0280 N   0  0  0  0  0  2  0  0  0  0  0  0
  191.4080  170.6660  141.3840 C   0  0  2  0  0  3  0  0  0  0  0  0
  192.0060  169.8500  139.1160 N   0  0  0  0  0  0  0  0  0  0  0  0
  191.2670  170.8710  139.8680 C   0  0  0  0  0  2  0  0  0  0  0  0
  191.9320  169.3930  141.6640 O   0  0  0  0  0  0  0  0  0  0  0  0
  193.2640  169.4160  141.2150 C   0  0  1  0  0  3  0  0  0  0  0  0
  193.9040  168.2330  141.5850 O   0  0  0  0  0  1  0  0  0  0  0  0
  193.3340  169.5840  139.6870 C   0  0  0  0  0  2  0  0  0  0  0  0
  191.1070  170.3780  136.8120 C   0  0  0  0  0  0  0  0  0  0  0  0
  192.1600  170.2900  137.7850 N   0  0  0  0  0  2  0  0  0  0  0  0
  189.6940  170.0340  137.1460 C   0  0  0  0  0  1  0  0  0  0  0  0
  191.3810  170.7570  135.6420 O   0  0  0  0  0  0  0  0  0  0  0  0
  187.3940  173.2010  141.9880 O   0  0  0  0  0  1  0  0  0  0  0  0
  188.5890  173.4360  141.3110 C   0  0  0  0  0  2  0  0  0  0  0  0
  2  1  1  0  0  0  0
  3  1  1  6  0  0  0
  3 12  1  0  0  0  0
  4 11  1  0  0  0  0
  5 14  2  0  0  0  0
  6  2  1  0  0  0  0
  7 10  1  0  0  0  0
  8 11  1  0  0  0  0
  9  8  1  0  0  0  0
  9  7  1  0  0  0  0
 10 12  1  0  0  0  0
 11 10  1  0  0  0  0
 11 18  1  0  0  0  0
 12 26  1  0  0  0  0
 13  7  1  0  0  0  0
 13  3  1  0  0  0  0
 14 15  1  0  0  0  0
 14 16  1  0  0  0  0
 16  6  1  0  0  0  0
 16 13  1  0  0  0  0
 18 17  2  0  0  0  0
 18 19  1  0  0  0  0
 20 21  1  0  0  0  0
 20 18  1  0  0  0  0
 21 22  1  0  0  0  0
 22 25  1  0  0  0  0
 25 23  2  0  0  0  0
 25 24  1  0  0  0  0
 26 27  1  0  0  0  0
 27 28  1  0  0  0  0
 29  9  1  0  0  0  0
 29 30  1  0  0  0  0
 30 33  1  0  0  0  0
 33 32  2  0  0  0  0
 33 31  2  0  0  0  0
 34 33  1  0  0  0  0
 35 38  1  0  0  0  0
 35 34  1  0  0  0  0
 36 41  1  0  0  0  0
 36 37  1  0  0  0  0
 37 35  1  0  0  0  0
 39 40  1  0  0  0  0
 39 38  1  0  0  0  0
 41 39  1  0  0  0  0
 42 44  1  0  0  0  0
 42 43  1  0  0  0  0
 43 36  1  0  0  0  0
 45 42  2  0  0  0  0
 47 46  1  0  0  0  0
 47 30  1  0  0  0  0
M  END
>  <MODEL>
9

>  <REMARK>
 VINA RESULT:      -6.1      3.034      4.611
  Name = 
  14 active torsions:
  status: ('A' for Active; 'I' for Inactive)
    1  A    between atoms: O_4  and  C_27
    2  A    between atoms: O_4  and  P_34
    3  A    between atoms: C_6  and  N_13
    4  A    between atoms: C_7  and  C_30
    5  A    between atoms: C_7  and  C_36
    6  A    between atoms: C_7  and  S_42
    7  A    between atoms: N_8  and  N_23
    8  A    between atoms: C_11  and  C_27
    9  A    between atoms: C_11  and  C_47
   10  A    between atoms: N_13  and  S_42
   11  A    between atoms: C_19  and  O_20
   12  A    between atoms: O_20  and  C_29
   13  A    between atoms: C_21  and  C_36
   14  A    between atoms: C_28  and  P_34
                            x       y       z     vdW  Elec       q    Type
                         _______ _______ _______ _____ _____    ______ ____

>  <TORSDO>
F 14

$$$$
