=
 OpenBabel11072408363D

 47 51  0  0  1  0  0  0  0  0999 V2000
  191.9510  173.6690  143.6890 C   0  0  2  0  0  3  0  0  0  0  0  0
  190.9110  171.3740  143.5070 C   0  0  0  0  0  2  0  0  0  0  0  0
  191.1550  172.7110  142.7990 C   0  0  0  0  0  2  0  0  0  0  0  0
  192.9320  172.9510  144.6240 C   0  0  1  0  0  3  0  0  0  0  0  0
  192.1490  170.6970  143.9390 N   0  0  0  0  0  0  0  0  0  0  0  0
  193.3160  171.5840  144.0510 C   0  0  0  0  0  2  0  0  0  0  0  0
  188.9260  174.4510  147.4620 C   0  0  0  0  0  1  0  0  0  0  0  0
  190.1570  178.1410  144.2540 N   0  0  0  0  0  0  0  0  0  0  0  0
  190.3730  174.2040  145.5040 N   0  0  0  0  0  0  0  0  0  0  0  0
  191.0160  178.1480  143.0750 C   0  0  0  0  0  3  0  0  0  0  0  0
  189.4300  176.3890  145.8850 C   0  0  0  0  0  0  0  0  0  0  0  0
  191.5750  176.7220  142.9190 C   0  0  0  0  0  3  0  0  0  0  0  0
  190.9390  175.9850  144.0440 C   0  0  0  0  0  0  0  0  0  0  0  0
  189.5700  175.0250  146.2470 C   0  0  0  0  0  0  0  0  0  0  0  0
  190.1530  176.8260  144.7740 C   0  0  0  0  0  0  0  0  0  0  0  0
  191.0520  174.6350  144.4060 C   0  0  1  0  0  3  0  0  0  0  0  0
  188.6170  177.3340  146.5980 N   0  0  0  0  0  2  0  0  0  0  0  0
  187.1650  177.3750  146.5810 C   0  0  0  0  0  2  0  0  0  0  0  0
  186.6850  178.3380  145.5060 C   0  0  2  0  0  3  0  0  0  0  0  0
  184.4960  178.2390  146.8030 C   0  0  0  0  0  1  0  0  0  0  0  0
  184.7200  179.5420  144.8140 O   0  0  0  0  0  1  0  0  0  0  0  0
  185.4150  179.0880  145.9350 C   0  0  2  0  0  3  0  0  0  0  0  0
  186.5410  177.6540  144.1790 C   0  0  0  0  0  0  0  0  0  0  0  0
  185.9520  176.5440  144.0850 O   0  0  0  0  0  1  0  0  0  0  0  0
  187.0290  178.2710  143.0360 O   0  0  0  0  0  0  0  0  0  0  0  0
  196.4500  173.8830  145.9220 C   0  0  0  0  0  2  0  0  0  0  0  0
  195.2590  172.9970  145.5710 C   0  0  0  0  0  2  0  0  0  0  0  0
  196.9680  174.5910  144.6730 C   0  0  0  0  0  2  0  0  0  0  0  0
  195.8610  175.4390  144.0550 C   0  0  0  0  0  2  0  0  0  0  0  0
  194.6670  174.5640  143.6910 C   0  0  0  0  0  2  0  0  0  0  0  0
  194.1480  173.8280  144.9310 C   0  0  0  0  0  3  0  0  0  0  0  0
  192.4760  169.6980  142.9310 C   0  0  0  0  0  2  0  0  0  0  0  0
  193.3960  170.2930  141.8730 C   0  0  0  0  0  2  0  0  0  0  0  0
  193.0590  169.7640  140.4880 C   0  0  0  0  0  2  0  0  0  0  0  0
  193.1660  170.7890  139.5460 O   0  0  0  0  0  0  0  0  0  0  0  0
  191.9490  171.3860  139.5300 N   0  0  0  0  0  2  0  0  0  0  0  0
  190.9350  170.7670  135.9650 C   0  0  0  0  0  3  0  0  0  0  0  0
  189.2000  172.1650  137.0270 C   0  0  0  0  0  2  0  0  0  0  0  0
  190.1040  172.2360  138.2390 C   0  0  0  0  0  0  0  0  0  0  0  0
  191.3040  170.2630  137.3350 C   0  0  1  0  0  3  0  0  0  0  0  0
  189.9490  171.6650  135.8200 C   0  0  0  0  0  3  0  0  0  0  0  0
  191.1010  171.3410  138.3780 C   0  0  0  0  0  0  0  0  0  0  0  0
  190.3000  168.8460  137.7410 Cl  0  0  0  0  0  0  0  0  0  0  0  0
  188.6870  173.5610  139.6470 C   0  0  0  0  0  3  0  0  0  0  0  0
  189.8720  173.2090  139.2650 N   0  0  0  0  0  0  0  0  0  0  0  0
  188.3860  175.3630  141.5550 C   0  0  0  0  0  3  0  0  0  0  0  0
  188.5240  174.5390  140.6850 C   0  0  0  0  0  0  0  0  0  0  0  0
  1  3  1  1  0  0  0
  1 16  1  0  0  0  0
  1  4  1  0  0  0  0
  2  5  1  0  0  0  0
  3  2  1  0  0  0  0
  4 31  1  6  0  0  0
  5  6  1  0  0  0  0
  6  4  1  0  0  0  0
  8 15  1  0  0  0  0
  9 14  2  0  0  0  0
 10  8  2  0  0  0  0
 11 14  1  0  0  0  0
 11 17  1  0  0  0  0
 12 10  1  0  0  0  0
 12 13  2  0  0  0  0
 13 15  1  0  0  0  0
 14  7  1  0  0  0  0
 15 11  2  0  0  0  0
 16 13  1  1  0  0  0
 16  9  1  0  0  0  0
 18 17  1  0  0  0  0
 19 22  1  0  0  0  0
 19 18  1  1  0  0  0
 21 22  1  0  0  0  0
 22 20  1  6  0  0  0
 23 19  1  0  0  0  0
 24 23  1  0  0  0  0
 25 23  2  0  0  0  0
 27 26  1  0  0  0  0
 28 26  1  0  0  0  0
 29 28  1  0  0  0  0
 30 29  1  0  0  0  0
 30 31  1  0  0  0  0
 31 27  1  0  0  0  0
 32  5  1  0  0  0  0
 33 32  1  0  0  0  0
 34 33  1  0  0  0  0
 35 34  1  0  0  0  0
 36 35  1  0  0  0  0
 37 40  1  0  0  0  0
 38 39  1  0  0  0  0
 39 42  2  0  0  0  0
 39 45  1  0  0  0  0
 40 43  1  1  0  0  0
 40 42  1  0  0  0  0
 41 37  2  0  0  0  0
 41 38  1  0  0  0  0
 42 36  1  0  0  0  0
 44 47  1  0  0  0  0
 45 44  2  0  0  0  0
 47 46  3  0  0  0  0
M  END
>  <MODEL>
1

>  <REMARK>
 VINA RESULT:      -6.6      0.000      0.000
  Name = 
  15 active torsions:
  status: ('A' for Active; 'I' for Inactive)
    1  A    between atoms: O_1  and  N_15
    2  A    between atoms: O_1  and  C_31
    3  A    between atoms: C_3  and  C_39
    4  A    between atoms: C_8  and  C_31
    5  A    between atoms: C_8  and  C_41
    6  A    between atoms: N_15  and  C_36
    7  A    between atoms: N_16  and  C_17
    8  A    between atoms: N_16  and  C_43
    9  A    between atoms: C_19  and  C_25
   10  A    between atoms: C_22  and  N_30
   11  A    between atoms: C_23  and  C_47
   12  A    between atoms: C_25  and  C_32
   13  A    between atoms: C_25  and  C_43
   14  A    between atoms: C_28  and  C_42
   15  A    between atoms: N_35  and  C_41
                            x       y       z     vdW  Elec       q    Type
                         _______ _______ _______ _____ _____    ______ ____

>  <TORSDO>
F 15

$$$$
=
 OpenBabel11072408363D

 47 51  0  0  1  0  0  0  0  0999 V2000
  192.0590  173.7140  143.9430 C   0  0  2  0  0  3  0  0  0  0  0  0
  191.5310  171.2440  143.9750 C   0  0  0  0  0  2  0  0  0  0  0  0
  191.5490  172.5220  143.1300 C   0  0  0  0  0  2  0  0  0  0  0  0
  193.0910  173.3220  145.0080 C   0  0  1  0  0  3  0  0  0  0  0  0
  192.8440  170.8940  144.5500 N   0  0  0  0  0  0  0  0  0  0  0  0
  193.7910  172.0160  144.6200 C   0  0  0  0  0  2  0  0  0  0  0  0
  188.9440  174.4720  147.6470 C   0  0  0  0  0  1  0  0  0  0  0  0
  189.0900  177.5400  143.6490 N   0  0  0  0  0  0  0  0  0  0  0  0
  190.3980  174.1940  145.6990 N   0  0  0  0  0  0  0  0  0  0  0  0
  189.9100  177.5150  142.4420 C   0  0  0  0  0  3  0  0  0  0  0  0
  188.8840  176.0680  145.6610 C   0  0  0  0  0  0  0  0  0  0  0  0
  190.8450  176.2960  142.5610 C   0  0  0  0  0  3  0  0  0  0  0  0
  190.4420  175.6870  143.8570 C   0  0  0  0  0  0  0  0  0  0  0  0
  189.4000  174.9110  146.2990 C   0  0  0  0  0  0  0  0  0  0  0  0
  189.4550  176.4240  144.4390 C   0  0  1  0  0  3  0  0  0  0  0  0
  190.9280  174.5350  144.4920 C   0  0  0  0  0  0  0  0  0  0  0  0
  187.8420  176.8920  146.2050 N   0  0  0  0  0  2  0  0  0  0  0  0
  186.4230  176.7470  145.9270 C   0  0  0  0  0  2  0  0  0  0  0  0
  185.8860  178.0190  145.2870 C   0  0  2  0  0  3  0  0  0  0  0  0
  185.5970  179.2850  147.4760 C   0  0  0  0  0  1  0  0  0  0  0  0
  183.8500  177.9340  146.5650 O   0  0  0  0  0  1  0  0  0  0  0  0
  184.9180  178.7620  146.2170 C   0  0  2  0  0  3  0  0  0  0  0  0
  185.3050  177.7480  143.9310 C   0  0  0  0  0  0  0  0  0  0  0  0
  185.6600  176.7380  143.2660 O   0  0  0  0  0  0  0  0  0  0  0  0
  184.3350  178.5980  143.4220 O   0  0  0  0  0  1  0  0  0  0  0  0
  195.4630  176.2730  144.2360 C   0  0  0  0  0  2  0  0  0  0  0  0
  194.4450  175.1690  143.9720 C   0  0  0  0  0  2  0  0  0  0  0  0
  194.9040  177.2760  145.2410 C   0  0  0  0  0  2  0  0  0  0  0  0
  194.5600  176.5710  146.5490 C   0  0  0  0  0  2  0  0  0  0  0  0
  193.5360  175.4690  146.3010 C   0  0  0  0  0  2  0  0  0  0  0  0
  194.0730  174.4640  145.2760 C   0  0  0  0  0  3  0  0  0  0  0  0
  193.4470  169.8900  143.6850 C   0  0  0  0  0  2  0  0  0  0  0  0
  194.7900  170.3780  143.1580 C   0  0  0  0  0  2  0  0  0  0  0  0
  194.9550  170.0520  141.6830 C   0  0  0  0  0  2  0  0  0  0  0  0
  195.7860  170.9960  141.0750 O   0  0  0  0  0  0  0  0  0  0  0  0
  195.3800  172.1940  141.5620 N   0  0  0  0  0  2  0  0  0  0  0  0
  197.6300  175.1630  141.0720 C   0  0  0  0  0  3  0  0  0  0  0  0
  195.4790  175.6360  139.9590 C   0  0  0  0  0  2  0  0  0  0  0  0
  194.9700  174.3410  140.5560 C   0  0  0  0  0  0  0  0  0  0  0  0
  197.3360  173.6940  140.9170 C   0  0  1  0  0  3  0  0  0  0  0  0
  196.7550  176.0760  140.6260 C   0  0  0  0  0  3  0  0  0  0  0  0
  195.8490  173.4300  141.0140 C   0  0  0  0  0  0  0  0  0  0  0  0
  197.9400  173.1270  139.3380 Cl  0  0  0  0  0  0  0  0  0  0  0  0
  192.8530  173.9200  139.5130 C   0  0  0  0  0  3  0  0  0  0  0  0
  193.5670  174.0540  140.5840 N   0  0  0  0  0  0  0  0  0  0  0  0
  190.2730  173.3800  139.6910 C   0  0  0  0  0  3  0  0  0  0  0  0
  191.4510  173.6270  139.6120 C   0  0  0  0  0  0  0  0  0  0  0  0
  1 16  1  1  0  0  0
  1  4  1  0  0  0  0
  2  5  1  0  0  0  0
  3  1  1  0  0  0  0
  3  2  1  0  0  0  0
  4 31  1  6  0  0  0
  5  6  1  0  0  0  0
  6  4  1  0  0  0  0
  9 14  1  0  0  0  0
 10 12  1  0  0  0  0
 10  8  2  0  0  0  0
 11 17  1  0  0  0  0
 11 14  2  0  0  0  0
 12 13  2  0  0  0  0
 13 15  1  0  0  0  0
 13 16  1  0  0  0  0
 14  7  1  0  0  0  0
 15  8  1  6  0  0  0
 15 11  1  0  0  0  0
 16  9  2  0  0  0  0
 18 17  1  0  0  0  0
 19 18  1  1  0  0  0
 19 22  1  0  0  0  0
 22 21  1  0  0  0  0
 22 20  1  1  0  0  0
 23 19  1  0  0  0  0
 24 23  2  0  0  0  0
 25 23  1  0  0  0  0
 26 28  1  0  0  0  0
 27 26  1  0  0  0  0
 27 31  1  0  0  0  0
 28 29  1  0  0  0  0
 30 29  1  0  0  0  0
 31 30  1  0  0  0  0
 32  5  1  0  0  0  0
 33 32  1  0  0  0  0
 34 33  1  0  0  0  0
 35 36  1  0  0  0  0
 35 34  1  0  0  0  0
 38 39  1  0  0  0  0
 38 41  1  0  0  0  0
 39 45  1  0  0  0  0
 39 42  2  0  0  0  0
 40 43  1  6  0  0  0
 40 42  1  0  0  0  0
 40 37  1  0  0  0  0
 41 37  2  0  0  0  0
 42 36  1  0  0  0  0
 44 47  1  0  0  0  0
 44 45  2  0  0  0  0
 47 46  3  0  0  0  0
M  END
>  <MODEL>
2

>  <REMARK>
 VINA RESULT:      -6.4      2.385      3.626
  Name = 
  15 active torsions:
  status: ('A' for Active; 'I' for Inactive)
    1  A    between atoms: O_1  and  N_15
    2  A    between atoms: O_1  and  C_31
    3  A    between atoms: C_3  and  C_39
    4  A    between atoms: C_8  and  C_31
    5  A    between atoms: C_8  and  C_41
    6  A    between atoms: N_15  and  C_36
    7  A    between atoms: N_16  and  C_17
    8  A    between atoms: N_16  and  C_43
    9  A    between atoms: C_19  and  C_25
   10  A    between atoms: C_22  and  N_30
   11  A    between atoms: C_23  and  C_47
   12  A    between atoms: C_25  and  C_32
   13  A    between atoms: C_25  and  C_43
   14  A    between atoms: C_28  and  C_42
   15  A    between atoms: N_35  and  C_41
                            x       y       z     vdW  Elec       q    Type
                         _______ _______ _______ _____ _____    ______ ____

>  <TORSDO>
F 15

$$$$
=
 OpenBabel11072408363D

 47 51  0  0  1  0  0  0  0  0999 V2000
  192.4440  173.9600  143.4250 C   0  0  2  0  0  3  0  0  0  0  0  0
  192.8490  171.6730  142.4310 C   0  0  0  0  0  2  0  0  0  0  0  0
  193.1100  173.1760  142.2920 C   0  0  0  0  0  2  0  0  0  0  0  0
  192.3700  173.1750  144.7410 C   0  0  1  0  0  3  0  0  0  0  0  0
  193.2960  171.1100  143.7200 N   0  0  0  0  0  0  0  0  0  0  0  0
  193.4650  172.1050  144.7880 C   0  0  0  0  0  2  0  0  0  0  0  0
  187.8360  173.0530  142.0290 C   0  0  0  0  0  1  0  0  0  0  0  0
  189.5050  177.7580  142.7320 N   0  0  0  0  0  0  0  0  0  0  0  0
  190.1170  173.6680  142.6670 N   0  0  0  0  0  0  0  0  0  0  0  0
  190.8120  178.2690  143.1330 C   0  0  0  0  0  2  0  0  0  0  0  0
  188.5700  175.4790  142.3020 C   0  0  0  0  0  0  0  0  0  0  0  0
  191.7240  177.0470  143.3490 C   0  0  0  0  0  3  0  0  0  0  0  0
  190.8380  175.9000  143.0100 C   0  0  0  0  0  0  0  0  0  0  0  0
  188.8650  174.0910  142.3160 C   0  0  0  0  0  0  0  0  0  0  0  0
  189.5960  176.3480  142.6750 C   0  0  0  0  0  0  0  0  0  0  0  0
  191.1190  174.5270  143.0020 C   0  0  0  0  0  0  0  0  0  0  0  0
  187.2890  176.0270  141.9540 N   0  0  0  0  0  2  0  0  0  0  0  0
  186.2080  176.2990  142.8860 C   0  0  0  0  0  2  0  0  0  0  0  0
  185.8230  177.7690  142.8210 C   0  0  2  0  0  3  0  0  0  0  0  0
  185.4620  179.7940  144.3210 C   0  0  0  0  0  1  0  0  0  0  0  0
  185.9700  177.6390  145.2180 O   0  0  0  0  0  1  0  0  0  0  0  0
  185.3110  178.2860  144.1720 C   0  0  2  0  0  3  0  0  0  0  0  0
  184.8730  178.0380  141.6910 C   0  0  0  0  0  0  0  0  0  0  0  0
  183.6270  178.0120  141.8760 O   0  0  0  0  0  1  0  0  0  0  0  0
  185.3750  178.3590  140.4390 O   0  0  0  0  0  0  0  0  0  0  0  0
  193.4480  176.1710  146.9300 C   0  0  0  0  0  2  0  0  0  0  0  0
  193.3770  175.2670  145.7040 C   0  0  0  0  0  2  0  0  0  0  0  0
  192.0610  176.7080  147.2700 C   0  0  0  0  0  2  0  0  0  0  0  0
  191.1030  175.5530  147.5390 C   0  0  0  0  0  2  0  0  0  0  0  0
  191.0150  174.6440  146.3180 C   0  0  0  0  0  2  0  0  0  0  0  0
  192.4060  174.1130  145.9490 C   0  0  0  0  0  3  0  0  0  0  0  0
  194.6010  170.5020  143.5020 C   0  0  0  0  0  2  0  0  0  0  0  0
  195.6690  171.2320  144.3080 C   0  0  0  0  0  2  0  0  0  0  0  0
  197.0080  171.2180  143.5890 C   0  0  0  0  0  2  0  0  0  0  0  0
  197.5000  172.5200  143.4700 O   0  0  0  0  0  0  0  0  0  0  0  0
  197.2430  172.8820  142.1890 N   0  0  0  0  0  2  0  0  0  0  0  0
  195.2720  176.0430  142.6810 C   0  0  0  0  0  3  0  0  0  0  0  0
  195.6820  175.7600  140.2640 C   0  0  0  0  0  2  0  0  0  0  0  0
  196.2820  174.4110  140.5990 C   0  0  0  0  0  0  0  0  0  0  0  0
  196.4910  175.1970  142.9410 C   0  0  1  0  0  3  0  0  0  0  0  0
  194.8890  176.3040  141.4230 C   0  0  0  0  0  3  0  0  0  0  0  0
  196.6560  174.1460  141.8650 C   0  0  0  0  0  0  0  0  0  0  0  0
  197.9410  176.2350  142.9860 Cl  0  0  0  0  0  0  0  0  0  0  0  0
  196.9980  173.7390  138.4120 C   0  0  0  0  0  3  0  0  0  0  0  0
  196.5070  173.4390  139.5710 N   0  0  0  0  0  0  0  0  0  0  0  0
  197.3730  171.8520  136.6010 C   0  0  0  0  0  3  0  0  0  0  0  0
  197.2030  172.7140  137.4270 C   0  0  0  0  0  0  0  0  0  0  0  0
  1 16  1  6  0  0  0
  1  4  1  0  0  0  0
  2  5  1  0  0  0  0
  3  2  1  0  0  0  0
  3  1  1  0  0  0  0
  4  6  1  0  0  0  0
  4 31  1  1  0  0  0
  5  6  1  0  0  0  0
  7 14  1  0  0  0  0
  8 10  1  0  0  0  0
  9 16  2  0  0  0  0
 10 12  1  0  0  0  0
 11 14  2  0  0  0  0
 11 15  1  0  0  0  0
 13 12  2  0  0  0  0
 14  9  1  0  0  0  0
 15  8  2  0  0  0  0
 15 13  1  0  0  0  0
 16 13  1  0  0  0  0
 17 11  1  0  0  0  0
 17 18  1  0  0  0  0
 19 18  1  1  0  0  0
 19 22  1  0  0  0  0
 22 20  1  6  0  0  0
 22 21  1  0  0  0  0
 23 24  1  0  0  0  0
 23 19  1  0  0  0  0
 25 23  2  0  0  0  0
 26 28  1  0  0  0  0
 27 31  1  0  0  0  0
 27 26  1  0  0  0  0
 28 29  1  0  0  0  0
 30 29  1  0  0  0  0
 31 30  1  0  0  0  0
 32  5  1  0  0  0  0
 32 33  1  0  0  0  0
 34 33  1  0  0  0  0
 35 34  1  0  0  0  0
 36 35  1  0  0  0  0
 37 40  1  0  0  0  0
 38 39  1  0  0  0  0
 38 41  1  0  0  0  0
 39 42  2  0  0  0  0
 40 43  1  6  0  0  0
 41 37  2  0  0  0  0
 42 36  1  0  0  0  0
 42 40  1  0  0  0  0
 44 45  2  0  0  0  0
 45 39  1  0  0  0  0
 46 47  3  0  0  0  0
 47 44  1  0  0  0  0
M  END
>  <MODEL>
3

>  <REMARK>
 VINA RESULT:      -6.3      3.408      5.282
  Name = 
  15 active torsions:
  status: ('A' for Active; 'I' for Inactive)
    1  A    between atoms: O_1  and  N_15
    2  A    between atoms: O_1  and  C_31
    3  A    between atoms: C_3  and  C_39
    4  A    between atoms: C_8  and  C_31
    5  A    between atoms: C_8  and  C_41
    6  A    between atoms: N_15  and  C_36
    7  A    between atoms: N_16  and  C_17
    8  A    between atoms: N_16  and  C_43
    9  A    between atoms: C_19  and  C_25
   10  A    between atoms: C_22  and  N_30
   11  A    between atoms: C_23  and  C_47
   12  A    between atoms: C_25  and  C_32
   13  A    between atoms: C_25  and  C_43
   14  A    between atoms: C_28  and  C_42
   15  A    between atoms: N_35  and  C_41
                            x       y       z     vdW  Elec       q    Type
                         _______ _______ _______ _____ _____    ______ ____

>  <TORSDO>
F 15

$$$$
=
 OpenBabel11072408363D

 47 51  0  0  1  0  0  0  0  0999 V2000
  193.0910  175.0100  143.5520 C   0  0  2  0  0  3  0  0  0  0  0  0
  194.8250  176.4200  142.3740 C   0  0  0  0  0  2  0  0  0  0  0  0
  194.4230  175.7530  143.6940 C   0  0  0  0  0  2  0  0  0  0  0  0
  192.8630  174.4410  142.1470 C   0  0  1  0  0  3  0  0  0  0  0  0
  194.9280  175.4800  141.2410 N   0  0  0  0  0  0  0  0  0  0  0  0
  194.2010  174.2180  141.4350 C   0  0  0  0  0  2  0  0  0  0  0  0
  189.3060  177.9000  142.4040 C   0  0  0  0  0  1  0  0  0  0  0  0
  190.2420  176.5430  147.1680 N   0  0  0  0  0  0  0  0  0  0  0  0
  191.1830  176.5150  143.1410 N   0  0  0  0  0  0  0  0  0  0  0  0
  191.2930  175.7120  147.7470 C   0  0  0  0  0  2  0  0  0  0  0  0
  189.6990  177.3270  144.8560 C   0  0  0  0  0  0  0  0  0  0  0  0
  192.1800  175.2360  146.5810 C   0  0  0  0  0  3  0  0  0  0  0  0
  191.5580  175.8860  145.3960 C   0  0  0  0  0  0  0  0  0  0  0  0
  190.0890  177.2540  143.4940 C   0  0  0  0  0  0  0  0  0  0  0  0
  190.4650  176.6070  145.7730 C   0  0  0  0  0  0  0  0  0  0  0  0
  191.9400  175.8380  144.0480 C   0  0  0  0  0  0  0  0  0  0  0  0
  188.5660  178.0710  145.3320 N   0  0  0  0  0  2  0  0  0  0  0  0
  187.1960  177.5900  145.3590 C   0  0  0  0  0  2  0  0  0  0  0  0
  186.2630  178.6440  144.7810 C   0  0  2  0  0  3  0  0  0  0  0  0
  184.7630  177.7930  146.6540 C   0  0  0  0  0  1  0  0  0  0  0  0
  183.9640  179.3170  144.9960 O   0  0  0  0  0  1  0  0  0  0  0  0
  185.0960  178.9550  145.7280 C   0  0  2  0  0  3  0  0  0  0  0  0
  185.8150  178.2800  143.3970 C   0  0  0  0  0  0  0  0  0  0  0  0
  186.0170  179.0580  142.4270 O   0  0  0  0  0  0  0  0  0  0  0  0
  185.2070  177.0530  143.1760 O   0  0  0  0  0  1  0  0  0  0  0  0
  190.8620  171.5140  143.6820 C   0  0  0  0  0  2  0  0  0  0  0  0
  191.6810  172.7990  143.6380 C   0  0  0  0  0  2  0  0  0  0  0  0
  189.5730  171.6820  142.8830 C   0  0  0  0  0  2  0  0  0  0  0  0
  189.8970  172.0350  141.4350 C   0  0  0  0  0  2  0  0  0  0  0  0
  190.7090  173.3240  141.3760 C   0  0  0  0  0  2  0  0  0  0  0  0
  191.9980  173.1800  142.1930 C   0  0  0  0  0  3  0  0  0  0  0  0
  196.3330  175.1340  141.0850 C   0  0  0  0  0  2  0  0  0  0  0  0
  196.5610  173.6660  141.4210 C   0  0  0  0  0  2  0  0  0  0  0  0
  197.7760  173.4870  142.3160 C   0  0  0  0  0  2  0  0  0  0  0  0
  197.9380  172.1380  142.6380 O   0  0  0  0  0  0  0  0  0  0  0  0
  196.6810  171.6560  142.7950 N   0  0  0  0  0  0  0  0  0  0  0  0
  196.8350  170.2350  146.2700 C   0  0  0  0  0  3  0  0  0  0  0  0
  194.4940  170.1250  145.4970 C   0  0  0  0  0  2  0  0  0  0  0  0
  194.9930  170.6040  144.1500 C   0  0  2  0  0  3  0  0  0  0  0  0
  197.0550  171.3650  145.2990 C   0  0  1  0  0  3  0  0  0  0  0  0
  195.6320  169.6490  146.3610 C   0  0  0  0  0  3  0  0  0  0  0  0
  196.2060  171.1820  144.0590 C   0  0  0  0  0  0  0  0  0  0  0  0
  196.6430  172.9140  146.0790 Cl  0  0  0  0  0  0  0  0  0  0  0  0
  193.6840  169.3740  142.5630 C   0  0  0  0  0  3  0  0  0  0  0  0
  194.1650  170.4980  142.9870 N   0  0  0  0  0  0  0  0  0  0  0  0
  192.1610  169.3080  140.4050 C   0  0  0  0  0  3  0  0  0  0  0  0
  192.8550  169.3390  141.3910 C   0  0  0  0  0  0  0  0  0  0  0  0
  1  3  1  0  0  0  0
  1 16  1  6  0  0  0
  2  3  1  0  0  0  0
  4 31  1  1  0  0  0
  4  1  1  0  0  0  0
  5  6  1  0  0  0  0
  5  2  1  0  0  0  0
  6  4  1  0  0  0  0
  7 14  1  0  0  0  0
  8 10  1  0  0  0  0
  9 14  1  0  0  0  0
  9 16  2  0  0  0  0
 11 17  1  0  0  0  0
 11 15  1  0  0  0  0
 12 10  1  0  0  0  0
 13 15  1  0  0  0  0
 13 12  2  0  0  0  0
 14 11  2  0  0  0  0
 15  8  2  0  0  0  0
 16 13  1  0  0  0  0
 17 18  1  0  0  0  0
 19 18  1  1  0  0  0
 19 22  1  0  0  0  0
 21 22  1  0  0  0  0
 22 20  1  6  0  0  0
 23 19  1  0  0  0  0
 24 23  2  0  0  0  0
 25 23  1  0  0  0  0
 27 26  1  0  0  0  0
 28 26  1  0  0  0  0
 29 28  1  0  0  0  0
 30 29  1  0  0  0  0
 30 31  1  0  0  0  0
 31 27  1  0  0  0  0
 32  5  1  0  0  0  0
 32 33  1  0  0  0  0
 33 34  1  0  0  0  0
 34 35  1  0  0  0  0
 35 36  1  0  0  0  0
 36 42  2  0  0  0  0
 37 41  2  0  0  0  0
 38 41  1  0  0  0  0
 39 45  1  1  0  0  0
 39 38  1  0  0  0  0
 40 43  1  1  0  0  0
 40 37  1  0  0  0  0
 42 39  1  0  0  0  0
 42 40  1  0  0  0  0
 44 45  2  0  0  0  0
 46 47  3  0  0  0  0
 47 44  1  0  0  0  0
M  END
>  <MODEL>
4

>  <REMARK>
 VINA RESULT:      -6.2      2.995      5.813
  Name = 
  15 active torsions:
  status: ('A' for Active; 'I' for Inactive)
    1  A    between atoms: O_1  and  N_15
    2  A    between atoms: O_1  and  C_31
    3  A    between atoms: C_3  and  C_39
    4  A    between atoms: C_8  and  C_31
    5  A    between atoms: C_8  and  C_41
    6  A    between atoms: N_15  and  C_36
    7  A    between atoms: N_16  and  C_17
    8  A    between atoms: N_16  and  C_43
    9  A    between atoms: C_19  and  C_25
   10  A    between atoms: C_22  and  N_30
   11  A    between atoms: C_23  and  C_47
   12  A    between atoms: C_25  and  C_32
   13  A    between atoms: C_25  and  C_43
   14  A    between atoms: C_28  and  C_42
   15  A    between atoms: N_35  and  C_41
                            x       y       z     vdW  Elec       q    Type
                         _______ _______ _______ _____ _____    ______ ____

>  <TORSDO>
F 15

$$$$
=
 OpenBabel11072408363D

 47 51  0  0  1  0  0  0  0  0999 V2000
  191.4760  172.5380  144.2670 C   0  0  2  0  0  3  0  0  0  0  0  0
  189.6260  174.1160  144.9490 C   0  0  0  0  0  2  0  0  0  0  0  0
  190.0810  172.6550  144.8860 C   0  0  0  0  0  2  0  0  0  0  0  0
  192.3700  173.7500  144.5590 C   0  0  1  0  0  3  0  0  0  0  0  0
  190.5470  174.9930  145.6970 N   0  0  0  0  0  0  0  0  0  0  0  0
  191.9100  174.4600  145.8360 C   0  0  0  0  0  2  0  0  0  0  0  0
  189.7380  173.7110  139.8400 C   0  0  0  0  0  1  0  0  0  0  0  0
  192.9120  169.8480  140.4930 N   0  0  0  0  0  0  0  0  0  0  0  0
  190.6440  172.9680  141.9870 N   0  0  0  0  0  0  0  0  0  0  0  0
  193.5460  169.3120  141.6930 C   0  0  0  0  0  2  0  0  0  0  0  0
  191.2980  171.7050  140.0420 C   0  0  0  0  0  0  0  0  0  0  0  0
  193.0790  170.1840  142.8740 C   0  0  0  0  0  3  0  0  0  0  0  0
  192.1570  171.1580  142.2310 C   0  0  0  0  0  0  0  0  0  0  0  0
  190.5600  172.7600  140.6390 C   0  0  0  0  0  0  0  0  0  0  0  0
  192.0990  170.9360  140.8870 C   0  0  0  0  0  0  0  0  0  0  0  0
  191.4080  172.1940  142.8070 C   0  0  0  0  0  0  0  0  0  0  0  0
  191.2830  171.4040  138.6380 N   0  0  0  0  0  2  0  0  0  0  0  0
  192.2960  171.8090  137.6800 C   0  0  0  0  0  2  0  0  0  0  0  0
  191.6660  172.6540  136.5820 C   0  0  2  0  0  3  0  0  0  0  0  0
  191.8980  175.0410  135.7280 C   0  0  0  0  0  1  0  0  0  0  0  0
  192.6300  174.4110  137.9130 O   0  0  0  0  0  1  0  0  0  0  0  0
  191.6660  174.1470  136.9390 C   0  0  2  0  0  3  0  0  0  0  0  0
  190.3080  172.1400  136.2070 C   0  0  0  0  0  0  0  0  0  0  0  0
  190.1710  171.0120  135.6630 O   0  0  0  0  0  0  0  0  0  0  0  0
  189.1850  172.9010  136.5000 O   0  0  0  0  0  1  0  0  0  0  0  0
  196.1970  174.1830  144.8730 C   0  0  0  0  0  2  0  0  0  0  0  0
  194.7230  174.5730  144.8820 C   0  0  0  0  0  2  0  0  0  0  0  0
  196.4600  173.0920  145.9070 C   0  0  0  0  0  2  0  0  0  0  0  0
  195.6030  171.8670  145.6060 C   0  0  0  0  0  2  0  0  0  0  0  0
  194.1250  172.2410  145.6200 C   0  0  0  0  0  2  0  0  0  0  0  0
  193.8470  173.3530  144.6020 C   0  0  0  0  0  3  0  0  0  0  0  0
  190.0150  175.1390  147.0450 C   0  0  0  0  0  2  0  0  0  0  0  0
  188.5980  175.6970  146.9990 C   0  0  0  0  0  2  0  0  0  0  0  0
  188.6040  177.1990  146.7630 C   0  0  0  0  0  2  0  0  0  0  0  0
  187.3380  177.6230  146.3530 O   0  0  0  0  0  0  0  0  0  0  0  0
  187.0500  176.8760  145.2590 N   0  0  0  0  0  2  0  0  0  0  0  0
  184.5410  177.8780  142.6490 C   0  0  0  0  0  3  0  0  0  0  0  0
  186.7990  178.1860  141.7030 C   0  0  0  0  0  2  0  0  0  0  0  0
  187.3350  177.5440  142.9640 C   0  0  0  0  0  0  0  0  0  0  0  0
  185.1440  178.0270  144.0200 C   0  0  1  0  0  3  0  0  0  0  0  0
  185.3190  177.9490  141.5590 C   0  0  0  0  0  3  0  0  0  0  0  0
  186.5480  177.4630  144.0550 C   0  0  0  0  0  0  0  0  0  0  0  0
  185.1830  179.7510  144.4740 Cl  0  0  0  0  0  0  0  0  0  0  0  0
  189.7100  177.8450  142.8430 C   0  0  0  0  0  3  0  0  0  0  0  0
  188.6860  177.0740  143.0250 N   0  0  0  0  0  0  0  0  0  0  0  0
  192.1570  176.8610  142.9870 C   0  0  0  0  0  3  0  0  0  0  0  0
  191.0400  177.3100  142.9230 C   0  0  0  0  0  0  0  0  0  0  0  0
  1 16  1  6  0  0  0
  1  4  1  0  0  0  0
  1  3  1  0  0  0  0
  2  5  1  0  0  0  0
  3  2  1  0  0  0  0
  4 31  1  1  0  0  0
  4  6  1  0  0  0  0
  5  6  1  0  0  0  0
  5 32  1  0  0  0  0
  7 14  1  0  0  0  0
  8 15  2  0  0  0  0
  8 10  1  0  0  0  0
  9 16  2  0  0  0  0
 10 12  1  0  0  0  0
 11 14  2  0  0  0  0
 11 15  1  0  0  0  0
 13 16  1  0  0  0  0
 13 12  2  0  0  0  0
 14  9  1  0  0  0  0
 15 13  1  0  0  0  0
 17 11  1  0  0  0  0
 18 17  1  0  0  0  0
 19 22  1  0  0  0  0
 19 18  1  1  0  0  0
 22 20  1  6  0  0  0
 22 21  1  0  0  0  0
 23 25  1  0  0  0  0
 23 19  1  0  0  0  0
 24 23  2  0  0  0  0
 26 27  1  0  0  0  0
 26 28  1  0  0  0  0
 29 30  1  0  0  0  0
 29 28  1  0  0  0  0
 31 27  1  0  0  0  0
 31 30  1  0  0  0  0
 33 32  1  0  0  0  0
 34 33  1  0  0  0  0
 35 34  1  0  0  0  0
 36 35  1  0  0  0  0
 37 40  1  0  0  0  0
 38 39  1  0  0  0  0
 39 45  1  0  0  0  0
 39 42  2  0  0  0  0
 40 42  1  0  0  0  0
 40 43  1  6  0  0  0
 41 38  1  0  0  0  0
 41 37  2  0  0  0  0
 42 36  1  0  0  0  0
 44 47  1  0  0  0  0
 44 45  2  0  0  0  0
 47 46  3  0  0  0  0
M  END
>  <MODEL>
5

>  <REMARK>
 VINA RESULT:      -6.2      2.879      8.066
  Name = 
  15 active torsions:
  status: ('A' for Active; 'I' for Inactive)
    1  A    between atoms: O_1  and  N_15
    2  A    between atoms: O_1  and  C_31
    3  A    between atoms: C_3  and  C_39
    4  A    between atoms: C_8  and  C_31
    5  A    between atoms: C_8  and  C_41
    6  A    between atoms: N_15  and  C_36
    7  A    between atoms: N_16  and  C_17
    8  A    between atoms: N_16  and  C_43
    9  A    between atoms: C_19  and  C_25
   10  A    between atoms: C_22  and  N_30
   11  A    between atoms: C_23  and  C_47
   12  A    between atoms: C_25  and  C_32
   13  A    between atoms: C_25  and  C_43
   14  A    between atoms: C_28  and  C_42
   15  A    between atoms: N_35  and  C_41
                            x       y       z     vdW  Elec       q    Type
                         _______ _______ _______ _____ _____    ______ ____

>  <TORSDO>
F 15

$$$$
=
 OpenBabel11072408363D

 47 51  0  0  1  0  0  0  0  0999 V2000
  191.9940  174.5320  143.7960 C   0  0  2  0  0  3  0  0  0  0  0  0
  191.3610  176.7320  144.8640 C   0  0  0  0  0  2  0  0  0  0  0  0
  190.8620  175.5290  144.0560 C   0  0  0  0  0  2  0  0  0  0  0  0
  193.0360  174.4940  144.9210 C   0  0  1  0  0  3  0  0  0  0  0  0
  191.9720  176.3660  146.1560 N   0  0  0  0  0  0  0  0  0  0  0  0
  192.4180  174.9690  146.2400 C   0  0  0  0  0  2  0  0  0  0  0  0
  195.5640  176.5730  141.1350 C   0  0  0  0  0  1  0  0  0  0  0  0
  192.1660  173.4780  139.0640 N   0  0  0  0  0  0  0  0  0  0  0  0
  193.6950  175.5250  142.3160 N   0  0  0  0  0  0  0  0  0  0  0  0
  191.0280  172.7690  139.6400 C   0  0  0  0  0  3  0  0  0  0  0  0
  193.8800  175.0650  139.9580 C   0  0  0  0  0  0  0  0  0  0  0  0
  190.9970  173.1160  141.1400 C   0  0  0  0  0  3  0  0  0  0  0  0
  192.1410  174.0550  141.2930 C   0  0  0  0  0  0  0  0  0  0  0  0
  194.3420  175.7210  141.1270 C   0  0  0  0  0  0  0  0  0  0  0  0
  192.7750  174.2240  140.0990 C   0  0  1  0  0  3  0  0  0  0  0  0
  192.6010  174.7240  142.4360 C   0  0  0  0  0  0  0  0  0  0  0  0
  194.4880  175.1980  138.6640 N   0  0  0  0  0  2  0  0  0  0  0  0
  195.7630  174.6230  138.2710 C   0  0  0  0  0  2  0  0  0  0  0  0
  195.6700  173.1050  138.2700 C   0  0  2  0  0  3  0  0  0  0  0  0
  196.2770  172.0970  140.5280 C   0  0  0  0  0  1  0  0  0  0  0  0
  197.8670  173.3180  139.2280 O   0  0  0  0  0  1  0  0  0  0  0  0
  196.7660  172.4650  139.1340 C   0  0  2  0  0  3  0  0  0  0  0  0
  195.6300  172.5580  136.8740 C   0  0  0  0  0  0  0  0  0  0  0  0
  196.6930  172.2960  136.2510 O   0  0  0  0  0  0  0  0  0  0  0  0
  194.4040  172.3000  136.2780 O   0  0  0  0  0  1  0  0  0  0  0  0
  193.4300  170.6720  144.5140 C   0  0  0  0  0  2  0  0  0  0  0  0
  192.8080  172.0550  144.3570 C   0  0  0  0  0  2  0  0  0  0  0  0
  194.8360  170.6550  143.9230 C   0  0  0  0  0  2  0  0  0  0  0  0
  195.7100  171.6920  144.6210 C   0  0  0  0  0  2  0  0  0  0  0  0
  195.1050  173.0830  144.4640 C   0  0  0  0  0  2  0  0  0  0  0  0
  193.6810  173.1110  145.0330 C   0  0  0  0  0  3  0  0  0  0  0  0
  190.9580  176.5450  147.1860 C   0  0  0  0  0  2  0  0  0  0  0  0
  190.4260  175.1950  147.6480 C   0  0  0  0  0  2  0  0  0  0  0  0
  188.9460  175.0500  147.3340 C   0  0  0  0  0  2  0  0  0  0  0  0
  188.3490  176.3090  147.2480 O   0  0  0  0  0  0  0  0  0  0  0  0
  187.1020  176.0800  146.7670 N   0  0  0  0  0  2  0  0  0  0  0  0
  184.1660  178.4240  146.7820 C   0  0  0  0  0  3  0  0  0  0  0  0
  185.2800  178.6000  144.5870 C   0  0  0  0  0  2  0  0  0  0  0  0
  186.1670  177.4560  145.0280 C   0  0  0  0  0  0  0  0  0  0  0  0
  185.4740  177.9490  147.3570 C   0  0  1  0  0  3  0  0  0  0  0  0
  184.0730  178.7260  145.4790 C   0  0  0  0  0  3  0  0  0  0  0  0
  186.2510  177.1470  146.3360 C   0  0  0  0  0  0  0  0  0  0  0  0
  186.4450  179.3520  147.8750 Cl  0  0  0  0  0  0  0  0  0  0  0  0
  186.6630  176.6760  142.8160 C   0  0  0  0  0  3  0  0  0  0  0  0
  186.9600  176.7390  144.0750 N   0  0  0  0  0  0  0  0  0  0  0  0
  188.2090  175.3300  141.1500 C   0  0  0  0  0  3  0  0  0  0  0  0
  187.5050  175.9450  141.9120 C   0  0  0  0  0  0  0  0  0  0  0  0
  1 16  1  6  0  0  0
  1  3  1  0  0  0  0
  1  4  1  0  0  0  0
  2  5  1  0  0  0  0
  3  2  1  0  0  0  0
  4 31  1  1  0  0  0
  4  6  1  0  0  0  0
  5  6  1  0  0  0  0
  5 32  1  0  0  0  0
  8 10  2  0  0  0  0
  9 16  2  0  0  0  0
 10 12  1  0  0  0  0
 11 15  1  0  0  0  0
 11 14  2  0  0  0  0
 12 13  2  0  0  0  0
 13 16  1  0  0  0  0
 14  7  1  0  0  0  0
 14  9  1  0  0  0  0
 15  8  1  6  0  0  0
 15 13  1  0  0  0  0
 17 11  1  0  0  0  0
 18 17  1  0  0  0  0
 19 18  1  6  0  0  0
 19 22  1  0  0  0  0
 22 21  1  0  0  0  0
 22 20  1  1  0  0  0
 23 19  1  0  0  0  0
 24 23  2  0  0  0  0
 25 23  1  0  0  0  0
 27 26  1  0  0  0  0
 27 31  1  0  0  0  0
 28 26  1  0  0  0  0
 28 29  1  0  0  0  0
 30 29  1  0  0  0  0
 30 31  1  0  0  0  0
 32 33  1  0  0  0  0
 34 33  1  0  0  0  0
 35 34  1  0  0  0  0
 36 35  1  0  0  0  0
 37 40  1  0  0  0  0
 38 39  1  0  0  0  0
 38 41  1  0  0  0  0
 39 42  2  0  0  0  0
 40 43  1  6  0  0  0
 41 37  2  0  0  0  0
 42 36  1  0  0  0  0
 42 40  1  0  0  0  0
 44 45  2  0  0  0  0
 45 39  1  0  0  0  0
 46 47  3  0  0  0  0
 47 44  1  0  0  0  0
M  END
>  <MODEL>
6

>  <REMARK>
 VINA RESULT:      -6.1      3.554      8.973
  Name = 
  15 active torsions:
  status: ('A' for Active; 'I' for Inactive)
    1  A    between atoms: O_1  and  N_15
    2  A    between atoms: O_1  and  C_31
    3  A    between atoms: C_3  and  C_39
    4  A    between atoms: C_8  and  C_31
    5  A    between atoms: C_8  and  C_41
    6  A    between atoms: N_15  and  C_36
    7  A    between atoms: N_16  and  C_17
    8  A    between atoms: N_16  and  C_43
    9  A    between atoms: C_19  and  C_25
   10  A    between atoms: C_22  and  N_30
   11  A    between atoms: C_23  and  C_47
   12  A    between atoms: C_25  and  C_32
   13  A    between atoms: C_25  and  C_43
   14  A    between atoms: C_28  and  C_42
   15  A    between atoms: N_35  and  C_41
                            x       y       z     vdW  Elec       q    Type
                         _______ _______ _______ _____ _____    ______ ____

>  <TORSDO>
F 15

$$$$
=
 OpenBabel11072408363D

 47 51  0  0  1  0  0  0  0  0999 V2000
  189.7270  176.1800  143.8560 C   0  0  2  0  0  3  0  0  0  0  0  0
  191.7890  175.3270  145.0400 C   0  0  0  0  0  2  0  0  0  0  0  0
  191.2540  176.2520  143.9420 C   0  0  0  0  0  2  0  0  0  0  0  0
  189.0580  175.9040  145.2070 C   0  0  1  0  0  3  0  0  0  0  0  0
  191.2280  175.6060  146.3760 N   0  0  0  0  0  0  0  0  0  0  0  0
  189.9640  176.3560  146.3570 C   0  0  0  0  0  2  0  0  0  0  0  0
  187.5090  175.6690  139.5180 C   0  0  0  0  0  1  0  0  0  0  0  0
  189.6010  171.7450  141.8930 N   0  0  0  0  0  0  0  0  0  0  0  0
  188.5980  175.7530  141.7070 N   0  0  0  0  0  0  0  0  0  0  0  0
  190.2980  171.6500  143.1710 C   0  0  0  0  0  2  0  0  0  0  0  0
  188.4840  173.5970  140.6370 C   0  0  0  0  0  0  0  0  0  0  0  0
  190.3280  173.0680  143.7710 C   0  0  0  0  0  3  0  0  0  0  0  0
  189.5900  173.8770  142.7650 C   0  0  0  0  0  0  0  0  0  0  0  0
  188.1910  174.9850  140.6520 C   0  0  0  0  0  0  0  0  0  0  0  0
  189.2050  173.0910  141.7200 C   0  0  0  0  0  0  0  0  0  0  0  0
  189.2770  175.2430  142.7720 C   0  0  0  0  0  0  0  0  0  0  0  0
  188.1070  172.7040  139.5780 N   0  0  0  0  0  2  0  0  0  0  0  0
  189.0220  172.0800  138.6380 C   0  0  0  0  0  2  0  0  0  0  0  0
  190.0060  173.1120  138.1070 C   0  0  2  0  0  3  0  0  0  0  0  0
  188.9410  174.5400  136.2880 C   0  0  0  0  0  1  0  0  0  0  0  0
  189.3170  172.2000  135.9900 O   0  0  0  0  0  1  0  0  0  0  0  0
  189.8320  173.3450  136.6000 C   0  0  2  0  0  3  0  0  0  0  0  0
  191.4160  172.7730  138.4890 C   0  0  0  0  0  0  0  0  0  0  0  0
  191.6580  171.8550  139.3180 O   0  0  0  0  0  1  0  0  0  0  0  0
  192.4670  173.4530  137.8910 O   0  0  0  0  0  0  0  0  0  0  0  0
  185.7560  177.1590  146.7740 C   0  0  0  0  0  2  0  0  0  0  0  0
  187.1680  176.5840  146.7180 C   0  0  0  0  0  2  0  0  0  0  0  0
  185.7270  178.5500  146.1470 C   0  0  0  0  0  2  0  0  0  0  0  0
  186.1950  178.4800  144.6980 C   0  0  0  0  0  2  0  0  0  0  0  0
  187.6100  177.9160  144.6270 C   0  0  0  0  0  2  0  0  0  0  0  0
  187.6620  176.5270  145.2730 C   0  0  0  0  0  3  0  0  0  0  0  0
  192.1920  176.4290  147.0930 C   0  0  0  0  0  2  0  0  0  0  0  0
  193.6130  175.9740  146.7830 C   0  0  0  0  0  2  0  0  0  0  0  0
  194.5250  177.1600  146.5150 C   0  0  0  0  0  2  0  0  0  0  0  0
  194.9170  177.1670  145.1740 O   0  0  0  0  0  0  0  0  0  0  0  0
  195.2710  175.8880  144.9000 N   0  0  0  0  0  2  0  0  0  0  0  0
  193.8160  175.4510  141.4640 C   0  0  0  0  0  3  0  0  0  0  0  0
  195.0230  173.3820  142.0560 C   0  0  0  0  0  2  0  0  0  0  0  0
  195.2250  173.9810  143.4310 C   0  0  0  0  0  0  0  0  0  0  0  0
  194.6960  176.1900  142.4360 C   0  0  1  0  0  3  0  0  0  0  0  0
  193.9660  174.1300  141.2870 C   0  0  0  0  0  3  0  0  0  0  0  0
  195.0630  175.3060  143.6090 C   0  0  0  0  0  0  0  0  0  0  0  0
  196.1820  176.7280  141.6090 Cl  0  0  0  0  0  0  0  0  0  0  0  0
  195.8840  171.8950  144.4120 C   0  0  0  0  0  3  0  0  0  0  0  0
  195.6420  173.1620  144.5290 N   0  0  0  0  0  0  0  0  0  0  0  0
  196.6590  170.4930  146.5120 C   0  0  0  0  0  3  0  0  0  0  0  0
  196.3040  171.1320  145.5520 C   0  0  0  0  0  0  0  0  0  0  0  0
  1 16  1  6  0  0  0
  1  3  1  0  0  0  0
  1  4  1  0  0  0  0
  2  5  1  0  0  0  0
  3  2  1  0  0  0  0
  4 31  1  6  0  0  0
  4  6  1  0  0  0  0
  5 32  1  0  0  0  0
  6  5  1  0  0  0  0
  7 14  1  0  0  0  0
  8 10  1  0  0  0  0
  9 16  2  0  0  0  0
 10 12  1  0  0  0  0
 11 14  2  0  0  0  0
 11 15  1  0  0  0  0
 13 16  1  0  0  0  0
 13 12  2  0  0  0  0
 14  9  1  0  0  0  0
 15  8  2  0  0  0  0
 15 13  1  0  0  0  0
 17 11  1  0  0  0  0
 18 17  1  0  0  0  0
 19 23  1  0  0  0  0
 19 18  1  6  0  0  0
 21 22  1  0  0  0  0
 22 20  1  1  0  0  0
 22 19  1  0  0  0  0
 23 24  1  0  0  0  0
 25 23  2  0  0  0  0
 27 26  1  0  0  0  0
 28 26  1  0  0  0  0
 29 28  1  0  0  0  0
 30 29  1  0  0  0  0
 30 31  1  0  0  0  0
 31 27  1  0  0  0  0
 33 32  1  0  0  0  0
 34 33  1  0  0  0  0
 35 34  1  0  0  0  0
 36 35  1  0  0  0  0
 37 40  1  0  0  0  0
 38 39  1  0  0  0  0
 39 42  2  0  0  0  0
 39 45  1  0  0  0  0
 40 43  1  6  0  0  0
 40 42  1  0  0  0  0
 41 37  2  0  0  0  0
 41 38  1  0  0  0  0
 42 36  1  0  0  0  0
 44 45  2  0  0  0  0
 44 47  1  0  0  0  0
 47 46  3  0  0  0  0
M  END
>  <MODEL>
7

>  <REMARK>
 VINA RESULT:      -6.1      3.409      8.128
  Name = 
  15 active torsions:
  status: ('A' for Active; 'I' for Inactive)
    1  A    between atoms: O_1  and  N_15
    2  A    between atoms: O_1  and  C_31
    3  A    between atoms: C_3  and  C_39
    4  A    between atoms: C_8  and  C_31
    5  A    between atoms: C_8  and  C_41
    6  A    between atoms: N_15  and  C_36
    7  A    between atoms: N_16  and  C_17
    8  A    between atoms: N_16  and  C_43
    9  A    between atoms: C_19  and  C_25
   10  A    between atoms: C_22  and  N_30
   11  A    between atoms: C_23  and  C_47
   12  A    between atoms: C_25  and  C_32
   13  A    between atoms: C_25  and  C_43
   14  A    between atoms: C_28  and  C_42
   15  A    between atoms: N_35  and  C_41
                            x       y       z     vdW  Elec       q    Type
                         _______ _______ _______ _____ _____    ______ ____

>  <TORSDO>
F 15

$$$$
=
 OpenBabel11072408363D

 47 51  0  0  1  0  0  0  0  0999 V2000
  191.7710  173.9130  143.6540 C   0  0  2  0  0  3  0  0  0  0  0  0
  191.2110  171.4530  143.5270 C   0  0  0  0  0  2  0  0  0  0  0  0
  191.2200  172.7880  142.7750 C   0  0  0  0  0  2  0  0  0  0  0  0
  192.8290  173.4350  144.6560 C   0  0  1  0  0  3  0  0  0  0  0  0
  192.5360  171.0490  144.0350 N   0  0  0  0  0  0  0  0  0  0  0  0
  193.5000  172.1520  144.1550 C   0  0  0  0  0  2  0  0  0  0  0  0
  188.9500  174.5920  147.6020 C   0  0  0  0  0  1  0  0  0  0  0  0
  188.6920  177.6620  143.6110 N   0  0  0  0  0  0  0  0  0  0  0  0
  190.2470  174.3510  145.5410 N   0  0  0  0  0  0  0  0  0  0  0  0
  189.4110  177.6580  142.3420 C   0  0  0  0  0  3  0  0  0  0  0  0
  188.6880  176.1870  145.6300 C   0  0  0  0  0  0  0  0  0  0  0  0
  190.3820  176.4640  142.3820 C   0  0  0  0  0  3  0  0  0  0  0  0
  190.1020  175.8440  143.7050 C   0  0  0  0  0  0  0  0  0  0  0  0
  189.2830  175.0420  146.2220 C   0  0  0  0  0  0  0  0  0  0  0  0
  189.1470  176.5570  144.3660 C   0  0  0  0  0  0  0  0  0  0  0  0
  190.6680  174.7050  144.2960 C   0  0  1  0  0  3  0  0  0  0  0  0
  187.6730  176.9830  146.2600 N   0  0  0  0  0  2  0  0  0  0  0  0
  186.2460  176.8880  146.0000 C   0  0  0  0  0  2  0  0  0  0  0  0
  185.7700  178.1260  145.2560 C   0  0  2  0  0  3  0  0  0  0  0  0
  185.4660  179.0780  147.5980 C   0  0  0  0  0  1  0  0  0  0  0  0
  183.6090  178.6980  146.1450 O   0  0  0  0  0  1  0  0  0  0  0  0
  184.9560  179.0600  146.1630 C   0  0  2  0  0  3  0  0  0  0  0  0
  185.0500  177.7640  143.9910 C   0  0  0  0  0  0  0  0  0  0  0  0
  185.3080  176.6890  143.3860 O   0  0  0  0  0  0  0  0  0  0  0  0
  184.0590  178.6040  143.5040 O   0  0  0  0  0  1  0  0  0  0  0  0
  195.0280  176.5600  144.0820 C   0  0  0  0  0  2  0  0  0  0  0  0
  193.9880  175.4860  143.7800 C   0  0  0  0  0  2  0  0  0  0  0  0
  194.6300  177.3440  145.3290 C   0  0  0  0  0  2  0  0  0  0  0  0
  194.5040  176.4020  146.5220 C   0  0  0  0  0  2  0  0  0  0  0  0
  193.4610  175.3270  146.2370 C   0  0  0  0  0  2  0  0  0  0  0  0
  193.8340  174.5440  144.9730 C   0  0  0  0  0  3  0  0  0  0  0  0
  193.0990  170.1020  143.0820 C   0  0  0  0  0  2  0  0  0  0  0  0
  194.0490  170.8110  142.1260 C   0  0  0  0  0  2  0  0  0  0  0  0
  195.2760  169.9620  141.8360 C   0  0  0  0  0  2  0  0  0  0  0  0
  196.3710  170.4420  142.5580 O   0  0  0  0  0  0  0  0  0  0  0  0
  197.2770  170.8160  141.6220 N   0  0  0  0  0  2  0  0  0  0  0  0
  197.9150  173.4000  138.9700 C   0  0  0  0  0  3  0  0  0  0  0  0
  196.8510  174.5200  140.8940 C   0  0  0  0  0  2  0  0  0  0  0  0
  196.9700  173.2040  141.6320 C   0  0  0  0  0  0  0  0  0  0  0  0
  197.2840  172.1120  139.4280 C   0  0  1  0  0  3  0  0  0  0  0  0
  197.7150  174.5320  139.6610 C   0  0  0  0  0  3  0  0  0  0  0  0
  197.1820  172.0690  140.9370 C   0  0  0  0  0  0  0  0  0  0  0  0
  195.6560  171.9560  138.7170 Cl  0  0  0  0  0  0  0  0  0  0  0  0
  197.5660  173.7900  143.8790 C   0  0  0  0  0  3  0  0  0  0  0  0
  196.8030  173.1470  143.0540 N   0  0  0  0  0  0  0  0  0  0  0  0
  197.1490  173.6170  146.4820 C   0  0  0  0  0  3  0  0  0  0  0  0
  197.3400  173.6940  145.2940 C   0  0  0  0  0  0  0  0  0  0  0  0
  1  3  1  1  0  0  0
  1 16  1  0  0  0  0
  1  4  1  0  0  0  0
  2  5  1  0  0  0  0
  3  2  1  0  0  0  0
  4 31  1  6  0  0  0
  5  6  1  0  0  0  0
  6  4  1  0  0  0  0
  8 15  1  0  0  0  0
  9 14  2  0  0  0  0
 10 12  1  0  0  0  0
 10  8  2  0  0  0  0
 11 14  1  0  0  0  0
 11 17  1  0  0  0  0
 12 13  2  0  0  0  0
 13 15  1  0  0  0  0
 14  7  1  0  0  0  0
 15 11  2  0  0  0  0
 16 13  1  1  0  0  0
 16  9  1  0  0  0  0
 18 17  1  0  0  0  0
 19 18  1  1  0  0  0
 19 22  1  0  0  0  0
 21 22  1  0  0  0  0
 22 20  1  1  0  0  0
 23 19  1  0  0  0  0
 24 23  2  0  0  0  0
 25 23  1  0  0  0  0
 26 28  1  0  0  0  0
 27 26  1  0  0  0  0
 27 31  1  0  0  0  0
 28 29  1  0  0  0  0
 30 29  1  0  0  0  0
 31 30  1  0  0  0  0
 32  5  1  0  0  0  0
 33 32  1  0  0  0  0
 34 33  1  0  0  0  0
 34 35  1  0  0  0  0
 36 35  1  0  0  0  0
 37 40  1  0  0  0  0
 37 41  2  0  0  0  0
 38 39  1  0  0  0  0
 39 45  1  0  0  0  0
 40 43  1  6  0  0  0
 40 42  1  0  0  0  0
 41 38  1  0  0  0  0
 42 36  1  0  0  0  0
 42 39  2  0  0  0  0
 44 47  1  0  0  0  0
 45 44  2  0  0  0  0
 47 46  3  0  0  0  0
M  END
>  <MODEL>
8

>  <REMARK>
 VINA RESULT:      -5.9      2.929      4.440
  Name = 
  15 active torsions:
  status: ('A' for Active; 'I' for Inactive)
    1  A    between atoms: O_1  and  N_15
    2  A    between atoms: O_1  and  C_31
    3  A    between atoms: C_3  and  C_39
    4  A    between atoms: C_8  and  C_31
    5  A    between atoms: C_8  and  C_41
    6  A    between atoms: N_15  and  C_36
    7  A    between atoms: N_16  and  C_17
    8  A    between atoms: N_16  and  C_43
    9  A    between atoms: C_19  and  C_25
   10  A    between atoms: C_22  and  N_30
   11  A    between atoms: C_23  and  C_47
   12  A    between atoms: C_25  and  C_32
   13  A    between atoms: C_25  and  C_43
   14  A    between atoms: C_28  and  C_42
   15  A    between atoms: N_35  and  C_41
                            x       y       z     vdW  Elec       q    Type
                         _______ _______ _______ _____ _____    ______ ____

>  <TORSDO>
F 15

$$$$
=
 OpenBabel11072408363D

 47 51  0  0  1  0  0  0  0  0999 V2000
  193.1980  175.0020  142.7360 C   0  0  2  0  0  3  0  0  0  0  0  0
  194.7160  176.5090  141.3930 C   0  0  0  0  0  2  0  0  0  0  0  0
  194.5300  175.7550  142.7140 C   0  0  0  0  0  2  0  0  0  0  0  0
  192.7540  174.5170  141.3510 C   0  0  1  0  0  3  0  0  0  0  0  0
  194.6440  175.6440  140.2000 N   0  0  0  0  0  0  0  0  0  0  0  0
  193.9650  174.3600  140.4250 C   0  0  0  0  0  2  0  0  0  0  0  0
  189.3260  177.9820  142.3860 C   0  0  0  0  0  1  0  0  0  0  0  0
  190.8830  176.1860  146.8320 N   0  0  0  0  0  0  0  0  0  0  0  0
  191.2700  176.5360  142.7290 N   0  0  0  0  0  0  0  0  0  0  0  0
  191.9930  175.3060  147.1830 C   0  0  0  0  0  2  0  0  0  0  0  0
  190.0410  177.1830  144.6980 C   0  0  0  0  0  0  0  0  0  0  0  0
  192.7080  174.9420  145.8680 C   0  0  0  0  0  3  0  0  0  0  0  0
  191.9390  175.6990  144.8440 C   0  0  0  0  0  0  0  0  0  0  0  0
  190.2420  177.2380  143.2950 C   0  0  0  0  0  0  0  0  0  0  0  0
  190.9160  176.3800  145.4320 C   0  0  0  0  0  0  0  0  0  0  0  0
  192.1350  175.7780  143.4580 C   0  0  0  0  0  0  0  0  0  0  0  0
  188.9920  177.8770  145.3910 N   0  0  0  0  0  2  0  0  0  0  0  0
  187.6440  177.3750  145.5960 C   0  0  0  0  0  2  0  0  0  0  0  0
  186.6570  178.5330  145.6310 C   0  0  2  0  0  3  0  0  0  0  0  0
  184.2480  178.2890  146.4180 C   0  0  0  0  0  1  0  0  0  0  0  0
  185.8530  179.5560  147.6540 O   0  0  0  0  0  1  0  0  0  0  0  0
  185.7060  178.4380  146.8320 C   0  0  2  0  0  3  0  0  0  0  0  0
  185.9380  178.6800  144.3230 C   0  0  0  0  0  0  0  0  0  0  0  0
  185.5660  179.8120  143.9150 O   0  0  0  0  0  1  0  0  0  0  0  0
  185.7170  177.5590  143.5360 O   0  0  0  0  0  0  0  0  0  0  0  0
  191.3520  171.2530  142.8700 C   0  0  0  0  0  2  0  0  0  0  0  0
  192.1500  172.5500  142.7940 C   0  0  0  0  0  2  0  0  0  0  0  0
  189.8660  171.5350  142.6710 C   0  0  0  0  0  2  0  0  0  0  0  0
  189.6360  172.2010  141.3180 C   0  0  0  0  0  2  0  0  0  0  0  0
  190.4220  173.5050  141.2310 C   0  0  0  0  0  2  0  0  0  0  0  0
  191.9160  173.2410  141.4510 C   0  0  0  0  0  3  0  0  0  0  0  0
  196.0090  175.3310  139.8030 C   0  0  0  0  0  2  0  0  0  0  0  0
  196.1100  173.8850  139.3350 C   0  0  0  0  0  2  0  0  0  0  0  0
  196.4590  173.8070  137.8580 C   0  0  0  0  0  2  0  0  0  0  0  0
  195.9040  172.6550  137.2960 O   0  0  0  0  0  0  0  0  0  0  0  0
  194.8310  173.0850  136.5880 N   0  0  0  0  0  2  0  0  0  0  0  0
  191.6200  171.2090  137.1240 C   0  0  0  0  0  3  0  0  0  0  0  0
  191.2020  173.5960  137.5870 C   0  0  0  0  0  2  0  0  0  0  0  0
  192.6120  173.8610  137.1020 C   0  0  0  0  0  0  0  0  0  0  0  0
  193.0730  171.4480  137.4380 C   0  0  1  0  0  3  0  0  0  0  0  0
  190.7410  172.2190  137.1890 C   0  0  0  0  0  3  0  0  0  0  0  0
  193.4900  172.8430  137.0260 C   0  0  0  0  0  0  0  0  0  0  0  0
  193.3490  171.2370  139.1880 Cl  0  0  0  0  0  0  0  0  0  0  0  0
  192.5980  175.8370  135.7440 C   0  0  0  0  0  3  0  0  0  0  0  0
  193.0330  175.1910  136.7780 N   0  0  0  0  0  0  0  0  0  0  0  0
  193.4440  178.2930  135.2630 C   0  0  0  0  0  3  0  0  0  0  0  0
  193.0570  177.1720  135.4800 C   0  0  0  0  0  0  0  0  0  0  0  0
  1 16  1  6  0  0  0
  2  3  1  0  0  0  0
  3  1  1  0  0  0  0
  4 31  1  1  0  0  0
  4  1  1  0  0  0  0
  5  6  1  0  0  0  0
  5  2  1  0  0  0  0
  6  4  1  0  0  0  0
  7 14  1  0  0  0  0
  8 10  1  0  0  0  0
  9 14  1  0  0  0  0
  9 16  2  0  0  0  0
 11 17  1  0  0  0  0
 11 15  1  0  0  0  0
 12 10  1  0  0  0  0
 13 15  1  0  0  0  0
 13 12  2  0  0  0  0
 14 11  2  0  0  0  0
 15  8  2  0  0  0  0
 16 13  1  0  0  0  0
 17 18  1  0  0  0  0
 19 18  1  6  0  0  0
 19 22  1  0  0  0  0
 22 20  1  6  0  0  0
 22 21  1  0  0  0  0
 23 19  1  0  0  0  0
 24 23  1  0  0  0  0
 25 23  2  0  0  0  0
 27 26  1  0  0  0  0
 28 26  1  0  0  0  0
 29 28  1  0  0  0  0
 30 29  1  0  0  0  0
 30 31  1  0  0  0  0
 31 27  1  0  0  0  0
 32  5  1  0  0  0  0
 33 32  1  0  0  0  0
 34 33  1  0  0  0  0
 35 34  1  0  0  0  0
 36 42  1  0  0  0  0
 36 35  1  0  0  0  0
 37 41  2  0  0  0  0
 37 40  1  0  0  0  0
 39 38  1  0  0  0  0
 40 43  1  1  0  0  0
 41 38  1  0  0  0  0
 42 39  2  0  0  0  0
 42 40  1  0  0  0  0
 44 45  2  0  0  0  0
 45 39  1  0  0  0  0
 46 47  3  0  0  0  0
 47 44  1  0  0  0  0
M  END
>  <MODEL>
9

>  <REMARK>
 VINA RESULT:      -5.9      2.999      4.412
  Name = 
  15 active torsions:
  status: ('A' for Active; 'I' for Inactive)
    1  A    between atoms: O_1  and  N_15
    2  A    between atoms: O_1  and  C_31
    3  A    between atoms: C_3  and  C_39
    4  A    between atoms: C_8  and  C_31
    5  A    between atoms: C_8  and  C_41
    6  A    between atoms: N_15  and  C_36
    7  A    between atoms: N_16  and  C_17
    8  A    between atoms: N_16  and  C_43
    9  A    between atoms: C_19  and  C_25
   10  A    between atoms: C_22  and  N_30
   11  A    between atoms: C_23  and  C_47
   12  A    between atoms: C_25  and  C_32
   13  A    between atoms: C_25  and  C_43
   14  A    between atoms: C_28  and  C_42
   15  A    between atoms: N_35  and  C_41
                            x       y       z     vdW  Elec       q    Type
                         _______ _______ _______ _____ _____    ______ ____

>  <TORSDO>
F 15

$$$$
