=
 OpenBabel11062419483D

 46 51  0  0  1  0  0  0  0  0999 V2000
  189.6170  171.9420  140.8510 N   0  0  1  0  0  0  0  0  0  0  0  0
  188.3860  172.5200  139.0340 N   0  0  0  0  0  2  0  0  0  0  0  0
  190.5100  171.7280  139.8020 N   0  0  0  0  0  2  0  0  0  0  0  0
  190.1520  172.6270  142.0080 C   0  0  1  0  0  3  0  0  0  0  0  0
  189.6270  171.8380  138.6210 C   0  0  0  0  0  2  0  0  0  0  0  0
  187.9260  173.4380  141.3990 C   0  0  0  0  0  2  0  0  0  0  0  0
  188.9290  173.3950  142.5660 C   0  0  2  0  0  3  0  0  0  0  0  0
  188.8430  172.9920  140.3080 C   0  0  1  0  0  3  0  0  0  0  0  0
  189.3270  174.7380  142.9550 N   0  0  0  0  0  0  0  0  0  0  0  0
  190.3250  175.7200  143.0550 C   0  0  0  0  0  0  0  0  0  0  0  0
  191.0930  177.7790  143.7650 C   0  0  0  0  0  3  0  0  0  0  0  0
  189.7800  178.0300  144.3590 C   0  0  0  0  0  3  0  0  0  0  0  0
  188.6940  177.0900  144.2750 C   0  0  0  0  0  0  0  0  0  0  0  0
  191.3970  176.5590  143.0640 C   0  0  0  0  0  0  0  0  0  0  0  0
  189.0870  175.9600  143.6060 C   0  0  0  0  0  0  0  0  0  0  0  0
  187.3730  177.3220  144.8930 C   0  0  0  0  0  0  0  0  0  0  0  0
  186.2250  177.2670  144.1950 C   0  0  0  0  0  3  0  0  0  0  0  0
  186.8660  176.7450  147.2570 C   0  0  0  0  0  1  0  0  0  0  0  0
  187.3510  177.6350  146.2590 O   0  0  0  0  0  0  0  0  0  0  0  0
  186.1250  177.0320  142.7230 C   0  0  0  0  0  2  0  0  0  0  0  0
  186.0510  178.3600  141.9860 C   0  0  0  0  0  2  0  0  0  0  0  0
  185.7020  178.1400  140.5220 C   0  0  0  0  0  2  0  0  0  0  0  0
  184.1950  178.0830  140.3180 C   0  0  0  0  0  2  0  0  0  0  0  0
  183.5370  178.4000  141.5080 O   0  0  0  0  0  0  0  0  0  0  0  0
  182.1830  178.2150  141.2190 C   0  0  0  0  0  1  0  0  0  0  0  0
  192.6220  176.2500  142.4710 O   0  0  0  0  0  0  0  0  0  0  0  0
  192.8120  175.0590  141.7230 C   0  0  0  0  0  1  0  0  0  0  0  0
  190.7160  171.6410  143.0320 C   0  0  0  0  0  2  0  0  0  0  0  0
  192.2070  171.3870  142.8400 C   0  0  0  0  0  2  0  0  0  0  0  0
  192.8100  170.8310  144.1150 C   0  0  0  0  0  2  0  0  0  0  0  0
  194.1800  171.0880  144.1450 O   0  0  0  0  0  0  0  0  0  0  0  0
  195.1900  170.0150  145.9030 O   0  0  0  0  0  0  0  0  0  0  0  0
  196.2000  170.0150  144.9210 C   0  0  1  0  0  3  0  0  0  0  0  0
  194.7530  169.8830  144.5710 C   0  0  2  0  0  3  0  0  0  0  0  0
  196.7650  171.4280  144.7820 C   0  0  0  0  0  2  0  0  0  0  0  0
  196.9310  172.0730  146.1520 C   0  0  0  0  0  2  0  0  0  0  0  0
  196.9120  173.5910  146.0540 C   0  0  0  0  0  2  0  0  0  0  0  0
  195.7670  174.0540  145.1690 C   0  0  0  0  0  2  0  0  0  0  0  0
  195.2890  175.4370  145.5870 C   0  0  0  0  0  2  0  0  0  0  0  0
  193.0280  174.3730  145.5510 C   0  0  0  0  0  3  0  0  0  0  0  0
  193.3110  176.4330  146.7970 C   0  0  0  0  0  0  0  0  0  0  0  0
  193.8470  175.4210  145.9850 C   0  0  0  0  0  0  0  0  0  0  0  0
  191.6800  174.3340  145.9200 C   0  0  0  0  0  3  0  0  0  0  0  0
  191.9620  176.3910  147.1650 C   0  0  0  0  0  3  0  0  0  0  0  0
  191.1470  175.3430  146.7270 C   0  0  0  0  0  3  0  0  0  0  0  0
  194.0880  177.4560  147.2310 F   0  0  0  0  0  0  0  0  0  0  0  0
  1  3  1  6  0  0  0
  1  4  1  0  0  0  0
  2  8  1  0  0  0  0
  4  7  1  0  0  0  0
  4 28  1  1  0  0  0
  5  2  1  0  0  0  0
  5  3  1  0  0  0  0
  7  6  1  6  0  0  0
  7  9  1  0  0  0  0
  8  1  1  0  0  0  0
  8  6  1  1  0  0  0
  9 10  1  0  0  0  0
  9 15  1  0  0  0  0
 10 14  2  0  0  0  0
 10 15  1  0  0  0  0
 11 12  2  0  0  0  0
 13 12  1  0  0  0  0
 13 16  1  0  0  0  0
 14 11  1  0  0  0  0
 15 13  2  0  0  0  0
 16 19  1  0  0  0  0
 17 16  2  0  0  0  0
 19 18  1  0  0  0  0
 20 17  1  0  0  0  0
 21 20  1  0  0  0  0
 22 21  1  0  0  0  0
 23 22  1  0  0  0  0
 23 24  1  0  0  0  0
 25 24  1  0  0  0  0
 26 14  1  0  0  0  0
 27 26  1  0  0  0  0
 29 28  1  0  0  0  0
 29 30  1  0  0  0  0
 30 31  1  0  0  0  0
 33 35  1  6  0  0  0
 33 32  1  0  0  0  0
 34 31  1  6  0  0  0
 34 33  1  0  0  0  0
 34 32  1  0  0  0  0
 35 36  1  0  0  0  0
 37 36  1  0  0  0  0
 38 39  1  0  0  0  0
 38 37  1  0  0  0  0
 39 42  1  0  0  0  0
 40 43  2  0  0  0  0
 40 42  1  0  0  0  0
 41 44  1  0  0  0  0
 41 46  1  0  0  0  0
 42 41  2  0  0  0  0
 43 45  1  0  0  0  0
 45 44  2  0  0  0  0
M  END
>  <MODEL>
1

>  <REMARK>
 VINA RESULT:      -6.4      0.000      0.000
  Name = 
  20 active torsions:
  status: ('A' for Active; 'I' for Inactive)
    1  A    between atoms: C_1  and  C_14
    2  A    between atoms: C_1  and  C_46
    3  A    between atoms: C_4  and  C_16
    4  A    between atoms: C_4  and  C_38
    5  A    between atoms: C_5  and  C_23
    6  A    between atoms: C_5  and  C_25
    7  A    between atoms: N_6  and  C_37
    8  A    between atoms: C_7  and  C_22
    9  A    between atoms: C_7  and  O_43
   10  A    between atoms: O_9  and  C_39
   11  A    between atoms: O_11  and  C_21
   12  A    between atoms: C_14  and  C_15
   13  A    between atoms: C_15  and  C_30
   14  A    between atoms: C_16  and  C_21
   15  A    between atoms: C_17  and  C_33
   16  A    between atoms: C_25  and  C_28
   17  A    between atoms: C_28  and  O_45
   18  A    between atoms: C_31  and  C_38
   19  A    between atoms: C_33  and  C_46
   20  A    between atoms: C_40  and  O_45
                            x       y       z     vdW  Elec       q    Type
                         _______ _______ _______ _____ _____    ______ ____

>  <TORSDO>
F 20

$$$$
=
 OpenBabel11062419483D

 46 51  0  0  1  0  0  0  0  0999 V2000
  190.5920  171.2290  140.6960 N   0  0  1  0  0  0  0  0  0  0  0  0
  189.9390  171.6150  138.5570 N   0  0  0  0  0  2  0  0  0  0  0  0
  191.6610  170.7210  139.9590 N   0  0  0  0  0  2  0  0  0  0  0  0
  190.9440  172.0420  141.8400 C   0  0  1  0  0  3  0  0  0  0  0  0
  191.1130  170.7220  138.5850 C   0  0  0  0  0  2  0  0  0  0  0  0
  189.0900  172.9960  140.5610 C   0  0  0  0  0  2  0  0  0  0  0  0
  189.7670  173.0440  141.9420 C   0  0  2  0  0  3  0  0  0  0  0  0
  190.1520  172.2500  139.8240 C   0  0  1  0  0  3  0  0  0  0  0  0
  190.2770  174.3750  142.2230 N   0  0  0  0  0  0  0  0  0  0  0  0
  191.3710  175.2320  142.4230 C   0  0  0  0  0  0  0  0  0  0  0  0
  192.2790  177.2750  143.0000 C   0  0  0  0  0  3  0  0  0  0  0  0
  190.9250  177.7830  143.2170 C   0  0  0  0  0  3  0  0  0  0  0  0
  189.7490  176.9800  143.0050 C   0  0  0  0  0  0  0  0  0  0  0  0
  192.5340  175.9240  142.5730 C   0  0  0  0  0  0  0  0  0  0  0  0
  190.0960  175.7120  142.6180 C   0  0  0  0  0  0  0  0  0  0  0  0
  188.3790  177.4740  143.2460 C   0  0  0  0  0  0  0  0  0  0  0  0
  187.8220  177.5020  144.4700 C   0  0  0  0  0  3  0  0  0  0  0  0
  187.3030  177.0400  141.0480 C   0  0  0  0  0  1  0  0  0  0  0  0
  187.6440  177.8980  142.1300 O   0  0  0  0  0  0  0  0  0  0  0  0
  188.4670  176.9960  145.7190 C   0  0  0  0  0  2  0  0  0  0  0  0
  187.4070  176.4990  146.6890 C   0  0  0  0  0  2  0  0  0  0  0  0
  186.0150  176.8130  146.1670 C   0  0  0  0  0  2  0  0  0  0  0  0
  185.2640  177.7310  147.1210 C   0  0  0  0  0  2  0  0  0  0  0  0
  184.0470  178.1190  146.5570 O   0  0  0  0  0  0  0  0  0  0  0  0
  184.4020  178.7890  145.3850 C   0  0  0  0  0  1  0  0  0  0  0  0
  193.7940  175.3710  142.3440 O   0  0  0  0  0  0  0  0  0  0  0  0
  194.4400  175.4790  141.0850 C   0  0  0  0  0  1  0  0  0  0  0  0
  191.0790  171.1970  143.1080 C   0  0  0  0  0  2  0  0  0  0  0  0
  192.4910  171.2260  143.6820 C   0  0  0  0  0  2  0  0  0  0  0  0
  192.8870  169.8430  144.1620 C   0  0  0  0  0  2  0  0  0  0  0  0
  194.2760  169.7510  144.2530 O   0  0  0  0  0  0  0  0  0  0  0  0
  194.7180  169.6520  146.5020 O   0  0  0  0  0  0  0  0  0  0  0  0
  195.8590  169.0470  145.9370 C   0  0  1  0  0  3  0  0  0  0  0  0
  194.4990  168.8910  145.3370 C   0  0  2  0  0  3  0  0  0  0  0  0
  196.7250  170.1240  145.2850 C   0  0  0  0  0  2  0  0  0  0  0  0
  196.7400  171.3860  146.1380 C   0  0  0  0  0  2  0  0  0  0  0  0
  196.5910  172.6350  145.2810 C   0  0  0  0  0  2  0  0  0  0  0  0
  196.4460  173.8680  146.1580 C   0  0  0  0  0  2  0  0  0  0  0  0
  195.7740  174.9970  145.3900 C   0  0  0  0  0  2  0  0  0  0  0  0
  193.4390  174.1290  145.5750 C   0  0  0  0  0  3  0  0  0  0  0  0
  193.9130  176.3480  146.4280 C   0  0  0  0  0  0  0  0  0  0  0  0
  194.3470  175.1680  145.8040 C   0  0  0  0  0  0  0  0  0  0  0  0
  192.1020  174.2640  145.9620 C   0  0  0  0  0  3  0  0  0  0  0  0
  192.5750  176.4800  146.8150 C   0  0  0  0  0  3  0  0  0  0  0  0
  191.6710  175.4400  146.5820 C   0  0  0  0  0  3  0  0  0  0  0  0
  194.7770  177.3660  146.6600 F   0  0  0  0  0  0  0  0  0  0  0  0
  1  3  1  6  0  0  0
  1  4  1  0  0  0  0
  2  5  1  0  0  0  0
  2  8  1  0  0  0  0
  4  7  1  0  0  0  0
  4 28  1  1  0  0  0
  5  3  1  0  0  0  0
  7  6  1  6  0  0  0
  7  9  1  0  0  0  0
  8  6  1  1  0  0  0
  8  1  1  0  0  0  0
  9 10  1  0  0  0  0
  9 15  1  0  0  0  0
 10 14  2  0  0  0  0
 10 15  1  0  0  0  0
 11 12  2  0  0  0  0
 13 12  1  0  0  0  0
 13 16  1  0  0  0  0
 14 11  1  0  0  0  0
 15 13  2  0  0  0  0
 16 17  2  0  0  0  0
 17 20  1  0  0  0  0
 18 19  1  0  0  0  0
 19 16  1  0  0  0  0
 20 21  1  0  0  0  0
 22 21  1  0  0  0  0
 22 23  1  0  0  0  0
 24 23  1  0  0  0  0
 25 24  1  0  0  0  0
 26 14  1  0  0  0  0
 27 26  1  0  0  0  0
 28 29  1  0  0  0  0
 29 30  1  0  0  0  0
 30 31  1  0  0  0  0
 33 35  1  6  0  0  0
 33 32  1  0  0  0  0
 34 31  1  6  0  0  0
 34 33  1  0  0  0  0
 34 32  1  0  0  0  0
 35 36  1  0  0  0  0
 37 36  1  0  0  0  0
 37 38  1  0  0  0  0
 39 42  1  0  0  0  0
 39 38  1  0  0  0  0
 40 42  2  0  0  0  0
 40 43  1  0  0  0  0
 41 46  1  0  0  0  0
 41 44  2  0  0  0  0
 42 41  1  0  0  0  0
 43 45  2  0  0  0  0
 45 44  1  0  0  0  0
M  END
>  <MODEL>
2

>  <REMARK>
 VINA RESULT:      -6.3      1.590      2.508
  Name = 
  20 active torsions:
  status: ('A' for Active; 'I' for Inactive)
    1  A    between atoms: C_1  and  C_14
    2  A    between atoms: C_1  and  C_46
    3  A    between atoms: C_4  and  C_16
    4  A    between atoms: C_4  and  C_38
    5  A    between atoms: C_5  and  C_23
    6  A    between atoms: C_5  and  C_25
    7  A    between atoms: N_6  and  C_37
    8  A    between atoms: C_7  and  C_22
    9  A    between atoms: C_7  and  O_43
   10  A    between atoms: O_9  and  C_39
   11  A    between atoms: O_11  and  C_21
   12  A    between atoms: C_14  and  C_15
   13  A    between atoms: C_15  and  C_30
   14  A    between atoms: C_16  and  C_21
   15  A    between atoms: C_17  and  C_33
   16  A    between atoms: C_25  and  C_28
   17  A    between atoms: C_28  and  O_45
   18  A    between atoms: C_31  and  C_38
   19  A    between atoms: C_33  and  C_46
   20  A    between atoms: C_40  and  O_45
                            x       y       z     vdW  Elec       q    Type
                         _______ _______ _______ _____ _____    ______ ____

>  <TORSDO>
F 20

$$$$
=
 OpenBabel11062419483D

 46 51  0  0  1  0  0  0  0  0999 V2000
  188.9840  176.9880  142.8050 N   0  0  1  0  0  0  0  0  0  0  0  0
  191.0720  176.8430  143.6820 N   0  0  0  0  0  2  0  0  0  0  0  0
  189.4660  178.2870  142.6520 N   0  0  0  0  0  2  0  0  0  0  0  0
  188.2940  176.4310  141.6620 C   0  0  1  0  0  3  0  0  0  0  0  0
  190.7010  178.2540  143.4650 C   0  0  0  0  0  2  0  0  0  0  0  0
  189.8110  174.8190  142.7040 C   0  0  0  0  0  2  0  0  0  0  0  0
  188.5930  174.9150  141.7680 C   0  0  2  0  0  3  0  0  0  0  0  0
  190.1930  176.2620  142.7110 C   0  0  1  0  0  3  0  0  0  0  0  0
  188.9070  174.3820  140.4530 N   0  0  0  0  0  0  0  0  0  0  0  0
  188.6010  174.2810  139.0860 C   0  0  0  0  0  0  0  0  0  0  0  0
  188.9310  173.3780  136.9870 C   0  0  0  0  0  3  0  0  0  0  0  0
  190.0080  172.5580  137.5410 C   0  0  0  0  0  3  0  0  0  0  0  0
  190.4040  172.6240  138.9230 C   0  0  0  0  0  0  0  0  0  0  0  0
  188.1780  174.3030  137.7930 C   0  0  0  0  0  0  0  0  0  0  0  0
  189.6200  173.5150  139.6070 C   0  0  0  0  0  0  0  0  0  0  0  0
  191.4710  171.7810  139.4990 C   0  0  0  0  0  0  0  0  0  0  0  0
  192.4630  172.2830  140.2560 C   0  0  0  0  0  3  0  0  0  0  0  0
  191.8230  169.4040  140.1320 C   0  0  0  0  0  1  0  0  0  0  0  0
  191.4360  170.4110  139.2060 O   0  0  0  0  0  0  0  0  0  0  0  0
  192.6600  173.7320  140.5640 C   0  0  0  0  0  2  0  0  0  0  0  0
  193.7830  173.9030  141.5750 C   0  0  0  0  0  2  0  0  0  0  0  0
  194.0790  175.3770  141.8010 C   0  0  0  0  0  2  0  0  0  0  0  0
  195.2700  175.8330  140.9710 C   0  0  0  0  0  2  0  0  0  0  0  0
  195.9850  176.8170  141.6560 O   0  0  0  0  0  0  0  0  0  0  0  0
  196.0290  176.3640  142.9760 C   0  0  0  0  0  1  0  0  0  0  0  0
  187.1420  175.1190  137.3350 O   0  0  0  0  0  0  0  0  0  0  0  0
  187.2990  175.9620  136.2050 C   0  0  0  0  0  1  0  0  0  0  0  0
  186.7930  176.7170  141.7200 C   0  0  0  0  0  2  0  0  0  0  0  0
  186.3240  177.1020  143.1190 C   0  0  0  0  0  2  0  0  0  0  0  0
  185.9130  178.5600  143.1480 C   0  0  0  0  0  2  0  0  0  0  0  0
  185.6830  178.9640  144.4640 O   0  0  0  0  0  0  0  0  0  0  0  0
  183.9230  178.9110  145.9340 O   0  0  0  0  0  0  0  0  0  0  0  0
  184.6270  177.7320  146.2530 C   0  0  1  0  0  3  0  0  0  0  0  0
  184.5420  178.2520  144.8540 C   0  0  2  0  0  3  0  0  0  0  0  0
  185.9120  178.1000  146.9940 C   0  0  0  0  0  2  0  0  0  0  0  0
  186.7850  176.8670  147.1920 C   0  0  0  0  0  2  0  0  0  0  0  0
  188.0960  176.9890  146.4290 C   0  0  0  0  0  2  0  0  0  0  0  0
  188.6580  175.6130  146.1120 C   0  0  0  0  0  2  0  0  0  0  0  0
  189.6090  175.1550  147.2090 C   0  0  0  0  0  2  0  0  0  0  0  0
  191.9230  176.0980  147.1890 C   0  0  0  0  0  3  0  0  0  0  0  0
  191.4670  174.1380  145.8380 C   0  0  0  0  0  0  0  0  0  0  0  0
  191.0260  175.1280  146.7290 C   0  0  0  0  0  0  0  0  0  0  0  0
  193.2540  176.0850  146.7610 C   0  0  0  0  0  3  0  0  0  0  0  0
  192.8000  174.1270  145.4120 C   0  0  0  0  0  3  0  0  0  0  0  0
  193.6920  175.0990  145.8720 C   0  0  0  0  0  3  0  0  0  0  0  0
  190.6140  173.1880  145.3820 F   0  0  0  0  0  0  0  0  0  0  0  0
  1  3  1  6  0  0  0
  3  5  1  0  0  0  0
  4 28  1  1  0  0  0
  4  7  1  0  0  0  0
  4  1  1  0  0  0  0
  5  2  1  0  0  0  0
  7  9  1  6  0  0  0
  7  6  1  0  0  0  0
  8  6  1  1  0  0  0
  8  1  1  0  0  0  0
  8  2  1  0  0  0  0
 10 15  1  0  0  0  0
 10  9  1  0  0  0  0
 11 12  2  0  0  0  0
 11 14  1  0  0  0  0
 12 13  1  0  0  0  0
 13 16  1  0  0  0  0
 13 15  2  0  0  0  0
 14 10  2  0  0  0  0
 15  9  1  0  0  0  0
 16 17  2  0  0  0  0
 17 20  1  0  0  0  0
 19 16  1  0  0  0  0
 19 18  1  0  0  0  0
 20 21  1  0  0  0  0
 21 22  1  0  0  0  0
 23 24  1  0  0  0  0
 23 22  1  0  0  0  0
 24 25  1  0  0  0  0
 26 14  1  0  0  0  0
 27 26  1  0  0  0  0
 28 29  1  0  0  0  0
 29 30  1  0  0  0  0
 30 31  1  0  0  0  0
 32 33  1  0  0  0  0
 33 35  1  1  0  0  0
 34 31  1  1  0  0  0
 34 32  1  0  0  0  0
 34 33  1  0  0  0  0
 35 36  1  0  0  0  0
 37 36  1  0  0  0  0
 38 37  1  0  0  0  0
 38 39  1  0  0  0  0
 41 42  1  0  0  0  0
 42 40  2  0  0  0  0
 42 39  1  0  0  0  0
 43 40  1  0  0  0  0
 44 41  2  0  0  0  0
 44 45  1  0  0  0  0
 45 43  2  0  0  0  0
 46 41  1  0  0  0  0
M  END
>  <MODEL>
3

>  <REMARK>
 VINA RESULT:      -6.1      2.947      8.391
  Name = 
  20 active torsions:
  status: ('A' for Active; 'I' for Inactive)
    1  A    between atoms: C_1  and  C_14
    2  A    between atoms: C_1  and  C_46
    3  A    between atoms: C_4  and  C_16
    4  A    between atoms: C_4  and  C_38
    5  A    between atoms: C_5  and  C_23
    6  A    between atoms: C_5  and  C_25
    7  A    between atoms: N_6  and  C_37
    8  A    between atoms: C_7  and  C_22
    9  A    between atoms: C_7  and  O_43
   10  A    between atoms: O_9  and  C_39
   11  A    between atoms: O_11  and  C_21
   12  A    between atoms: C_14  and  C_15
   13  A    between atoms: C_15  and  C_30
   14  A    between atoms: C_16  and  C_21
   15  A    between atoms: C_17  and  C_33
   16  A    between atoms: C_25  and  C_28
   17  A    between atoms: C_28  and  O_45
   18  A    between atoms: C_31  and  C_38
   19  A    between atoms: C_33  and  C_46
   20  A    between atoms: C_40  and  O_45
                            x       y       z     vdW  Elec       q    Type
                         _______ _______ _______ _____ _____    ______ ____

>  <TORSDO>
F 20

$$$$
=
 OpenBabel11062419483D

 46 51  0  0  1  0  0  0  0  0999 V2000
  187.7210  178.1130  142.1580 N   0  0  1  0  0  0  0  0  0  0  0  0
  185.8070  177.4010  141.1680 N   0  0  0  0  0  2  0  0  0  0  0  0
  186.7390  178.7820  142.8870 N   0  0  0  0  0  2  0  0  0  0  0  0
  188.7810  177.5060  142.9340 C   0  0  1  0  0  3  0  0  0  0  0  0
  185.5310  178.5340  142.0710 C   0  0  0  0  0  2  0  0  0  0  0  0
  188.0020  176.0490  141.1310 C   0  0  0  0  0  2  0  0  0  0  0  0
  189.1890  176.2780  142.0830 C   0  0  2  0  0  3  0  0  0  0  0  0
  187.0120  176.9460  141.7970 C   0  0  1  0  0  3  0  0  0  0  0  0
  189.3910  175.1260  142.9460 N   0  0  0  0  0  0  0  0  0  0  0  0
  189.4150  173.7330  143.1150 C   0  0  0  0  0  0  0  0  0  0  0  0
  189.5770  171.8430  144.4320 C   0  0  0  0  0  3  0  0  0  0  0  0
  189.7340  172.7080  145.6010 C   0  0  0  0  0  3  0  0  0  0  0  0
  189.7510  174.1440  145.5110 C   0  0  0  0  0  0  0  0  0  0  0  0
  189.4130  172.3720  143.1030 C   0  0  0  0  0  0  0  0  0  0  0  0
  189.5710  174.5470  144.2140 C   0  0  0  0  0  0  0  0  0  0  0  0
  189.8810  175.0270  146.6880 C   0  0  0  0  0  0  0  0  0  0  0  0
  188.9170  175.8870  147.0600 C   0  0  0  0  0  3  0  0  0  0  0  0
  191.7120  176.0990  147.9820 C   0  0  0  0  0  1  0  0  0  0  0  0
  191.0800  174.9600  147.4100 O   0  0  0  0  0  0  0  0  0  0  0  0
  187.6370  176.1150  146.3220 C   0  0  0  0  0  2  0  0  0  0  0  0
  187.2330  177.5780  146.4170 C   0  0  0  0  0  2  0  0  0  0  0  0
  186.3620  177.8130  147.6410 C   0  0  0  0  0  2  0  0  0  0  0  0
  185.0420  178.4670  147.2590 C   0  0  0  0  0  2  0  0  0  0  0  0
  185.1830  179.1710  146.0620 O   0  0  0  0  0  0  0  0  0  0  0  0
  184.0090  178.9000  145.3560 C   0  0  0  0  0  1  0  0  0  0  0  0
  189.2620  171.6120  141.9430 O   0  0  0  0  0  0  0  0  0  0  0  0
  190.1450  171.7470  140.8400 C   0  0  0  0  0  1  0  0  0  0  0  0
  189.9510  178.4700  143.1350 C   0  0  0  0  0  2  0  0  0  0  0  0
  191.3030  177.8050  142.8990 C   0  0  0  0  0  2  0  0  0  0  0  0
  191.9080  177.3720  144.2200 C   0  0  0  0  0  2  0  0  0  0  0  0
  192.9170  176.4350  143.9960 O   0  0  0  0  0  0  0  0  0  0  0  0
  192.7910  174.8150  142.3770 O   0  0  0  0  0  0  0  0  0  0  0  0
  194.0440  175.4070  142.1240 C   0  0  1  0  0  3  0  0  0  0  0  0
  192.8780  176.2000  142.6160 C   0  0  2  0  0  3  0  0  0  0  0  0
  195.0290  174.9780  143.2110 C   0  0  0  0  0  2  0  0  0  0  0  0
  196.0310  173.9720  142.6570 C   0  0  0  0  0  2  0  0  0  0  0  0
  197.1230  173.6640  143.6700 C   0  0  0  0  0  2  0  0  0  0  0  0
  196.8800  174.4250  144.9630 C   0  0  0  0  0  2  0  0  0  0  0  0
  196.8920  173.4780  146.1550 C   0  0  0  0  0  2  0  0  0  0  0  0
  197.0730  171.0370  145.6560 C   0  0  0  0  0  3  0  0  0  0  0  0
  194.8700  172.0480  145.6750 C   0  0  0  0  0  0  0  0  0  0  0  0
  196.2610  172.1650  145.8170 C   0  0  0  0  0  0  0  0  0  0  0  0
  196.5030  169.7970  145.3500 C   0  0  0  0  0  3  0  0  0  0  0  0
  194.3020  170.8060  145.3690 C   0  0  0  0  0  3  0  0  0  0  0  0
  195.1170  169.6830  145.2070 C   0  0  0  0  0  3  0  0  0  0  0  0
  194.0650  173.1280  145.8290 F   0  0  0  0  0  0  0  0  0  0  0  0
  1  3  1  1  0  0  0
  1  4  1  0  0  0  0
  2  8  1  0  0  0  0
  2  5  1  0  0  0  0
  4 28  1  6  0  0  0
  5  3  1  0  0  0  0
  7  6  1  6  0  0  0
  7  4  1  0  0  0  0
  7  9  1  0  0  0  0
  8  6  1  6  0  0  0
  8  1  1  0  0  0  0
  9 10  1  0  0  0  0
  9 15  1  0  0  0  0
 10 15  1  0  0  0  0
 11 12  2  0  0  0  0
 13 12  1  0  0  0  0
 13 16  1  0  0  0  0
 14 10  2  0  0  0  0
 14 11  1  0  0  0  0
 15 13  2  0  0  0  0
 16 17  2  0  0  0  0
 16 19  1  0  0  0  0
 19 18  1  0  0  0  0
 20 21  1  0  0  0  0
 20 17  1  0  0  0  0
 21 22  1  0  0  0  0
 23 22  1  0  0  0  0
 24 23  1  0  0  0  0
 25 24  1  0  0  0  0
 26 14  1  0  0  0  0
 27 26  1  0  0  0  0
 29 28  1  0  0  0  0
 29 30  1  0  0  0  0
 31 30  1  0  0  0  0
 32 34  1  0  0  0  0
 33 32  1  0  0  0  0
 33 34  1  0  0  0  0
 33 35  1  1  0  0  0
 34 31  1  1  0  0  0
 36 35  1  0  0  0  0
 36 37  1  0  0  0  0
 37 38  1  0  0  0  0
 38 39  1  0  0  0  0
 40 42  1  0  0  0  0
 41 42  2  0  0  0  0
 41 46  1  0  0  0  0
 42 39  1  0  0  0  0
 43 40  2  0  0  0  0
 44 41  1  0  0  0  0
 45 43  1  0  0  0  0
 45 44  2  0  0  0  0
M  END
>  <MODEL>
4

>  <REMARK>
 VINA RESULT:      -6.1      2.494      5.263
  Name = 
  20 active torsions:
  status: ('A' for Active; 'I' for Inactive)
    1  A    between atoms: C_1  and  C_14
    2  A    between atoms: C_1  and  C_46
    3  A    between atoms: C_4  and  C_16
    4  A    between atoms: C_4  and  C_38
    5  A    between atoms: C_5  and  C_23
    6  A    between atoms: C_5  and  C_25
    7  A    between atoms: N_6  and  C_37
    8  A    between atoms: C_7  and  C_22
    9  A    between atoms: C_7  and  O_43
   10  A    between atoms: O_9  and  C_39
   11  A    between atoms: O_11  and  C_21
   12  A    between atoms: C_14  and  C_15
   13  A    between atoms: C_15  and  C_30
   14  A    between atoms: C_16  and  C_21
   15  A    between atoms: C_17  and  C_33
   16  A    between atoms: C_25  and  C_28
   17  A    between atoms: C_28  and  O_45
   18  A    between atoms: C_31  and  C_38
   19  A    between atoms: C_33  and  C_46
   20  A    between atoms: C_40  and  O_45
                            x       y       z     vdW  Elec       q    Type
                         _______ _______ _______ _____ _____    ______ ____

>  <TORSDO>
F 20

$$$$
=
 OpenBabel11062419483D

 46 51  0  0  1  0  0  0  0  0999 V2000
  191.4120  175.1540  143.8230 N   0  0  1  0  0  0  0  0  0  0  0  0
  191.5650  176.9940  145.1440 N   0  0  0  0  0  2  0  0  0  0  0  0
  191.6730  176.1660  142.9000 N   0  0  0  0  0  2  0  0  0  0  0  0
  192.1650  173.9310  143.6500 C   0  0  1  0  0  3  0  0  0  0  0  0
  191.4970  177.3830  143.7230 C   0  0  0  0  0  2  0  0  0  0  0  0
  192.0190  174.6040  145.9970 C   0  0  0  0  0  2  0  0  0  0  0  0
  192.3070  173.3920  145.0950 C   0  0  2  0  0  3  0  0  0  0  0  0
  192.0820  175.6710  144.9550 C   0  0  1  0  0  3  0  0  0  0  0  0
  193.6590  172.8990  145.3040 N   0  0  0  0  0  0  0  0  0  0  0  0
  195.0440  173.1210  145.2670 C   0  0  0  0  0  0  0  0  0  0  0  0
  197.2290  172.3930  145.4340 C   0  0  0  0  0  3  0  0  0  0  0  0
  196.7280  171.0520  145.7330 C   0  0  0  0  0  3  0  0  0  0  0  0
  195.3250  170.7470  145.8210 C   0  0  0  0  0  0  0  0  0  0  0  0
  196.3480  173.5050  145.1890 C   0  0  0  0  0  0  0  0  0  0  0  0
  194.5730  171.8610  145.5570 C   0  0  0  0  0  0  0  0  0  0  0  0
  194.8070  169.3910  146.0960 C   0  0  0  0  0  0  0  0  0  0  0  0
  194.4330  168.5460  145.1200 C   0  0  0  0  0  3  0  0  0  0  0  0
  195.6240  168.1660  148.0980 C   0  0  0  0  0  1  0  0  0  0  0  0
  194.6880  169.0110  147.4400 O   0  0  0  0  0  0  0  0  0  0  0  0
  194.4280  168.8660  143.6600 C   0  0  0  0  0  2  0  0  0  0  0  0
  193.0010  169.0660  143.1740 C   0  0  0  0  0  2  0  0  0  0  0  0
  192.9880  169.8000  141.8430 C   0  0  0  0  0  2  0  0  0  0  0  0
  191.6790  169.5680  141.1000 C   0  0  0  0  0  2  0  0  0  0  0  0
  191.8280  169.8970  139.7520 O   0  0  0  0  0  0  0  0  0  0  0  0
  190.7640  170.7600  139.4820 C   0  0  0  0  0  1  0  0  0  0  0  0
  196.7520  174.8090  144.9020 O   0  0  0  0  0  0  0  0  0  0  0  0
  196.1130  175.5870  143.9010 C   0  0  0  0  0  1  0  0  0  0  0  0
  191.4270  172.9420  142.7460 C   0  0  0  0  0  2  0  0  0  0  0  0
  190.4740  172.0400  143.5220 C   0  0  0  0  0  2  0  0  0  0  0  0
  189.0770  172.1330  142.9400 C   0  0  0  0  0  2  0  0  0  0  0  0
  188.8000  173.4500  142.5750 O   0  0  0  0  0  0  0  0  0  0  0  0
  189.3700  174.1230  140.4570 O   0  0  0  0  0  0  0  0  0  0  0  0
  188.0960  174.6980  140.6310 C   0  0  1  0  0  3  0  0  0  0  0  0
  188.4540  173.3730  141.2190 C   0  0  2  0  0  3  0  0  0  0  0  0
  188.2050  175.8770  141.5970 C   0  0  0  0  0  2  0  0  0  0  0  0
  186.8280  176.4600  141.8860 C   0  0  0  0  0  2  0  0  0  0  0  0
  186.8330  177.9770  141.7640 C   0  0  0  0  0  2  0  0  0  0  0  0
  185.5660  178.5630  142.3660 C   0  0  0  0  0  2  0  0  0  0  0  0
  185.8940  179.4070  143.5900 C   0  0  0  0  0  2  0  0  0  0  0  0
  187.0460  177.9410  145.2540 C   0  0  0  0  0  3  0  0  0  0  0  0
  184.7070  178.4690  145.6100 C   0  0  0  0  0  0  0  0  0  0  0  0
  185.8750  178.5860  144.8410 C   0  0  0  0  0  0  0  0  0  0  0  0
  187.0540  177.1770  146.4250 C   0  0  0  0  0  3  0  0  0  0  0  0
  184.7170  177.7050  146.7820 C   0  0  0  0  0  3  0  0  0  0  0  0
  185.8890  177.0590  147.1890 C   0  0  0  0  0  3  0  0  0  0  0  0
  183.5630  179.0880  145.2290 F   0  0  0  0  0  0  0  0  0  0  0  0
  1  3  1  6  0  0  0
  1  8  1  0  0  0  0
  3  5  1  0  0  0  0
  4 28  1  6  0  0  0
  4  1  1  0  0  0  0
  4  7  1  0  0  0  0
  5  2  1  0  0  0  0
  7  9  1  6  0  0  0
  7  6  1  0  0  0  0
  8  2  1  0  0  0  0
  8  6  1  1  0  0  0
  9 15  1  0  0  0  0
 10  9  1  0  0  0  0
 10 15  1  0  0  0  0
 11 12  2  0  0  0  0
 12 13  1  0  0  0  0
 13 16  1  0  0  0  0
 14 10  2  0  0  0  0
 14 11  1  0  0  0  0
 15 13  2  0  0  0  0
 16 19  1  0  0  0  0
 17 16  2  0  0  0  0
 19 18  1  0  0  0  0
 20 17  1  0  0  0  0
 21 20  1  0  0  0  0
 22 21  1  0  0  0  0
 23 22  1  0  0  0  0
 24 23  1  0  0  0  0
 25 24  1  0  0  0  0
 26 14  1  0  0  0  0
 27 26  1  0  0  0  0
 28 29  1  0  0  0  0
 30 29  1  0  0  0  0
 31 30  1  0  0  0  0
 32 33  1  0  0  0  0
 32 34  1  0  0  0  0
 33 34  1  0  0  0  0
 33 35  1  1  0  0  0
 34 31  1  1  0  0  0
 35 36  1  0  0  0  0
 37 36  1  0  0  0  0
 37 38  1  0  0  0  0
 38 39  1  0  0  0  0
 39 42  1  0  0  0  0
 40 43  1  0  0  0  0
 41 44  2  0  0  0  0
 42 40  2  0  0  0  0
 42 41  1  0  0  0  0
 43 45  2  0  0  0  0
 44 45  1  0  0  0  0
 46 41  1  0  0  0  0
M  END
>  <MODEL>
5

>  <REMARK>
 VINA RESULT:      -6.0      3.073      8.656
  Name = 
  20 active torsions:
  status: ('A' for Active; 'I' for Inactive)
    1  A    between atoms: C_1  and  C_14
    2  A    between atoms: C_1  and  C_46
    3  A    between atoms: C_4  and  C_16
    4  A    between atoms: C_4  and  C_38
    5  A    between atoms: C_5  and  C_23
    6  A    between atoms: C_5  and  C_25
    7  A    between atoms: N_6  and  C_37
    8  A    between atoms: C_7  and  C_22
    9  A    between atoms: C_7  and  O_43
   10  A    between atoms: O_9  and  C_39
   11  A    between atoms: O_11  and  C_21
   12  A    between atoms: C_14  and  C_15
   13  A    between atoms: C_15  and  C_30
   14  A    between atoms: C_16  and  C_21
   15  A    between atoms: C_17  and  C_33
   16  A    between atoms: C_25  and  C_28
   17  A    between atoms: C_28  and  O_45
   18  A    between atoms: C_31  and  C_38
   19  A    between atoms: C_33  and  C_46
   20  A    between atoms: C_40  and  O_45
                            x       y       z     vdW  Elec       q    Type
                         _______ _______ _______ _____ _____    ______ ____

>  <TORSDO>
F 20

$$$$
=
 OpenBabel11062419483D

 46 51  0  0  1  0  0  0  0  0999 V2000
  192.1370  171.1270  141.0780 N   0  0  1  0  0  0  0  0  0  0  0  0
  190.8000  169.3960  141.6850 N   0  0  0  0  0  2  0  0  0  0  0  0
  192.0480  170.3870  139.8990 N   0  0  0  0  0  2  0  0  0  0  0  0
  191.9880  172.5590  140.9380 C   0  0  1  0  0  3  0  0  0  0  0  0
  191.4160  169.1360  140.3700 C   0  0  0  0  0  2  0  0  0  0  0  0
  190.7700  171.6850  142.8710 C   0  0  0  0  0  2  0  0  0  0  0  0
  191.3480  172.9840  142.2820 C   0  0  2  0  0  3  0  0  0  0  0  0
  190.8830  170.8260  141.6550 C   0  0  1  0  0  3  0  0  0  0  0  0
  190.2940  173.9560  142.0400 N   0  0  0  0  0  0  0  0  0  0  0  0
  189.2890  174.4640  141.2020 C   0  0  0  0  0  0  0  0  0  0  0  0
  187.6940  176.0430  140.6600 C   0  0  0  0  0  3  0  0  0  0  0  0
  188.0320  176.7620  141.8870 C   0  0  0  0  0  3  0  0  0  0  0  0
  189.0270  176.2950  142.8150 C   0  0  0  0  0  0  0  0  0  0  0  0
  188.3480  174.8170  140.2830 C   0  0  0  0  0  0  0  0  0  0  0  0
  189.6010  175.1360  142.3610 C   0  0  0  0  0  0  0  0  0  0  0  0
  189.3960  177.0270  144.0440 C   0  0  0  0  0  0  0  0  0  0  0  0
  188.5030  177.3330  145.0010 C   0  0  0  0  0  3  0  0  0  0  0  0
  191.2740  178.5670  143.5190 C   0  0  0  0  0  1  0  0  0  0  0  0
  190.7330  177.4270  144.1750 O   0  0  0  0  0  0  0  0  0  0  0  0
  187.0380  177.0430  144.9360 C   0  0  0  0  0  2  0  0  0  0  0  0
  186.2690  178.0450  145.7800 C   0  0  0  0  0  2  0  0  0  0  0  0
  184.8300  178.1550  145.3010 C   0  0  0  0  0  2  0  0  0  0  0  0
  184.6740  179.2700  144.2770 C   0  0  0  0  0  2  0  0  0  0  0  0
  183.5510  179.0380  143.4810 O   0  0  0  0  0  0  0  0  0  0  0  0
  184.0310  178.2830  142.4100 C   0  0  0  0  0  1  0  0  0  0  0  0
  188.0780  174.0750  139.1330 O   0  0  0  0  0  0  0  0  0  0  0  0
  189.1070  173.6690  138.2450 C   0  0  0  0  0  1  0  0  0  0  0  0
  193.3360  173.2430  140.7110 C   0  0  0  0  0  2  0  0  0  0  0  0
  193.2540  174.3770  139.6950 C   0  0  0  0  0  2  0  0  0  0  0  0
  194.6370  174.9330  139.4210 C   0  0  0  0  0  2  0  0  0  0  0  0
  194.9530  175.9090  140.3660 O   0  0  0  0  0  0  0  0  0  0  0  0
  196.6810  174.5220  140.9590 O   0  0  0  0  0  0  0  0  0  0  0  0
  196.7640  175.5470  141.9230 C   0  0  1  0  0  3  0  0  0  0  0  0
  196.3430  175.8150  140.5140 C   0  0  2  0  0  3  0  0  0  0  0  0
  195.6120  175.3950  142.9160 C   0  0  0  0  0  2  0  0  0  0  0  0
  195.6380  176.5240  143.9390 C   0  0  0  0  0  2  0  0  0  0  0  0
  195.1840  176.0390  145.3080 C   0  0  0  0  0  2  0  0  0  0  0  0
  193.8120  176.5990  145.6440 C   0  0  0  0  0  2  0  0  0  0  0  0
  193.3060  176.0280  146.9610 C   0  0  0  0  0  2  0  0  0  0  0  0
  190.9140  175.8460  147.6610 C   0  0  0  0  0  3  0  0  0  0  0  0
  191.6830  174.4670  145.8220 C   0  0  0  0  0  0  0  0  0  0  0  0
  191.9430  175.4290  146.8100 C   0  0  0  0  0  0  0  0  0  0  0  0
  189.6310  175.3060  147.5310 C   0  0  0  0  0  3  0  0  0  0  0  0
  190.3980  173.9290  145.6930 C   0  0  0  0  0  3  0  0  0  0  0  0
  189.3740  174.3470  146.5470 C   0  0  0  0  0  3  0  0  0  0  0  0
  192.6660  174.0510  144.9860 F   0  0  0  0  0  0  0  0  0  0  0  0
  1  3  1  6  0  0  0
  1  8  1  0  0  0  0
  3  5  1  0  0  0  0
  4 28  1  1  0  0  0
  4  1  1  0  0  0  0
  4  7  1  0  0  0  0
  5  2  1  0  0  0  0
  7  9  1  6  0  0  0
  7  6  1  0  0  0  0
  8  2  1  0  0  0  0
  8  6  1  1  0  0  0
  9 15  1  0  0  0  0
 10  9  1  0  0  0  0
 10 15  1  0  0  0  0
 11 12  2  0  0  0  0
 12 13  1  0  0  0  0
 13 16  1  0  0  0  0
 14 11  1  0  0  0  0
 14 10  2  0  0  0  0
 15 13  2  0  0  0  0
 16 19  1  0  0  0  0
 16 17  2  0  0  0  0
 18 19  1  0  0  0  0
 20 17  1  0  0  0  0
 20 21  1  0  0  0  0
 22 21  1  0  0  0  0
 23 22  1  0  0  0  0
 24 23  1  0  0  0  0
 25 24  1  0  0  0  0
 26 14  1  0  0  0  0
 27 26  1  0  0  0  0
 29 28  1  0  0  0  0
 30 29  1  0  0  0  0
 30 31  1  0  0  0  0
 32 33  1  0  0  0  0
 33 35  1  1  0  0  0
 34 31  1  1  0  0  0
 34 32  1  0  0  0  0
 34 33  1  0  0  0  0
 35 36  1  0  0  0  0
 36 37  1  0  0  0  0
 37 38  1  0  0  0  0
 38 39  1  0  0  0  0
 41 42  1  0  0  0  0
 42 39  1  0  0  0  0
 42 40  2  0  0  0  0
 43 40  1  0  0  0  0
 44 41  2  0  0  0  0
 44 45  1  0  0  0  0
 45 43  2  0  0  0  0
 46 41  1  0  0  0  0
M  END
>  <MODEL>
6

>  <REMARK>
 VINA RESULT:      -5.8      2.681      4.017
  Name = 
  20 active torsions:
  status: ('A' for Active; 'I' for Inactive)
    1  A    between atoms: C_1  and  C_14
    2  A    between atoms: C_1  and  C_46
    3  A    between atoms: C_4  and  C_16
    4  A    between atoms: C_4  and  C_38
    5  A    between atoms: C_5  and  C_23
    6  A    between atoms: C_5  and  C_25
    7  A    between atoms: N_6  and  C_37
    8  A    between atoms: C_7  and  C_22
    9  A    between atoms: C_7  and  O_43
   10  A    between atoms: O_9  and  C_39
   11  A    between atoms: O_11  and  C_21
   12  A    between atoms: C_14  and  C_15
   13  A    between atoms: C_15  and  C_30
   14  A    between atoms: C_16  and  C_21
   15  A    between atoms: C_17  and  C_33
   16  A    between atoms: C_25  and  C_28
   17  A    between atoms: C_28  and  O_45
   18  A    between atoms: C_31  and  C_38
   19  A    between atoms: C_33  and  C_46
   20  A    between atoms: C_40  and  O_45
                            x       y       z     vdW  Elec       q    Type
                         _______ _______ _______ _____ _____    ______ ____

>  <TORSDO>
F 20

$$$$
=
 OpenBabel11062419483D

 46 51  0  0  1  0  0  0  0  0999 V2000
  195.2370  172.4760  145.7390 N   0  0  1  0  0  0  0  0  0  0  0  0
  195.6050  170.2420  145.5730 N   0  0  0  0  0  2  0  0  0  0  0  0
  196.6160  172.3830  145.9220 N   0  0  0  0  0  2  0  0  0  0  0  0
  194.7860  173.5250  144.8520 C   0  0  1  0  0  3  0  0  0  0  0  0
  196.8060  170.9260  146.0890 C   0  0  0  0  0  2  0  0  0  0  0  0
  193.5900  171.4240  144.4830 C   0  0  0  0  0  2  0  0  0  0  0  0
  193.4930  172.9390  144.2320 C   0  0  2  0  0  3  0  0  0  0  0  0
  195.0240  171.3630  144.8950 C   0  0  1  0  0  3  0  0  0  0  0  0
  193.4560  173.2280  142.8080 N   0  0  0  0  0  0  0  0  0  0  0  0
  193.9430  173.9540  141.7100 C   0  0  0  0  0  0  0  0  0  0  0  0
  193.8660  174.5850  139.4900 C   0  0  0  0  0  3  0  0  0  0  0  0
  192.7140  173.7030  139.3100 C   0  0  0  0  0  3  0  0  0  0  0  0
  192.1720  172.9010  140.3750 C   0  0  0  0  0  0  0  0  0  0  0  0
  194.5350  174.7260  140.7570 C   0  0  0  0  0  0  0  0  0  0  0  0
  192.8630  173.1180  141.5390 C   0  0  0  0  0  0  0  0  0  0  0  0
  190.9930  172.0280  140.2120 C   0  0  0  0  0  0  0  0  0  0  0  0
  189.9320  172.0790  141.0370 C   0  0  0  0  0  3  0  0  0  0  0  0
  190.2170  171.2210  137.9930 C   0  0  0  0  0  1  0  0  0  0  0  0
  191.0210  171.1020  139.1600 O   0  0  0  0  0  0  0  0  0  0  0  0
  189.8220  172.9560  142.2420 C   0  0  0  0  0  2  0  0  0  0  0  0
  189.0860  172.2260  143.3540 C   0  0  0  0  0  2  0  0  0  0  0  0
  189.8120  172.3970  144.6780 C   0  0  0  0  0  2  0  0  0  0  0  0
  189.7670  173.8450  145.1470 C   0  0  0  0  0  2  0  0  0  0  0  0
  189.6430  173.8960  146.5370 O   0  0  0  0  0  0  0  0  0  0  0  0
  188.9810  175.1000  146.7850 C   0  0  0  0  0  1  0  0  0  0  0  0
  195.6390  175.5420  141.0040 O   0  0  0  0  0  0  0  0  0  0  0  0
  196.4300  175.3980  142.1730 C   0  0  0  0  0  1  0  0  0  0  0  0
  194.5110  174.8230  145.6130 C   0  0  0  0  0  2  0  0  0  0  0  0
  193.7170  175.8290  144.7870 C   0  0  0  0  0  2  0  0  0  0  0  0
  192.8720  176.6990  145.6970 C   0  0  0  0  0  2  0  0  0  0  0  0
  191.6160  176.9050  145.1260 O   0  0  0  0  0  0  0  0  0  0  0  0
  191.0550  178.6970  143.8090 O   0  0  0  0  0  0  0  0  0  0  0  0
  190.7070  177.5980  142.9980 C   0  0  1  0  0  3  0  0  0  0  0  0
  191.8840  177.5640  143.9190 C   0  0  2  0  0  3  0  0  0  0  0  0
  189.4420  176.9450  143.5540 C   0  0  0  0  0  2  0  0  0  0  0  0
  188.4580  176.6460  142.4300 C   0  0  0  0  0  2  0  0  0  0  0  0
  188.0230  177.9200  141.7220 C   0  0  0  0  0  2  0  0  0  0  0  0
  186.7460  178.4640  142.3430 C   0  0  0  0  0  2  0  0  0  0  0  0
  185.8630  177.3270  142.8380 C   0  0  0  0  0  2  0  0  0  0  0  0
  186.0060  176.8030  145.2770 C   0  0  0  0  0  3  0  0  0  0  0  0
  184.4420  178.5080  144.5560 C   0  0  0  0  0  0  0  0  0  0  0  0
  185.4210  177.5510  144.2500 C   0  0  0  0  0  0  0  0  0  0  0  0
  185.6150  177.0030  146.6040 C   0  0  0  0  0  3  0  0  0  0  0  0
  184.0520  178.7070  145.8850 C   0  0  0  0  0  3  0  0  0  0  0  0
  184.6380  177.9560  146.9080 C   0  0  0  0  0  3  0  0  0  0  0  0
  183.8640  179.2450  143.5760 F   0  0  0  0  0  0  0  0  0  0  0  0
  1  3  1  6  0  0  0
  2  5  1  0  0  0  0
  3  5  1  0  0  0  0
  4 28  1  1  0  0  0
  4  1  1  0  0  0  0
  7  9  1  6  0  0  0
  7  6  1  0  0  0  0
  7  4  1  0  0  0  0
  8  6  1  1  0  0  0
  8  2  1  0  0  0  0
  8  1  1  0  0  0  0
 10  9  1  0  0  0  0
 11 14  1  0  0  0  0
 12 11  2  0  0  0  0
 12 13  1  0  0  0  0
 13 15  2  0  0  0  0
 14 26  1  0  0  0  0
 14 10  2  0  0  0  0
 15 10  1  0  0  0  0
 15  9  1  0  0  0  0
 16 13  1  0  0  0  0
 16 17  2  0  0  0  0
 17 20  1  0  0  0  0
 18 19  1  0  0  0  0
 19 16  1  0  0  0  0
 20 21  1  0  0  0  0
 21 22  1  0  0  0  0
 22 23  1  0  0  0  0
 23 24  1  0  0  0  0
 24 25  1  0  0  0  0
 26 27  1  0  0  0  0
 29 28  1  0  0  0  0
 29 30  1  0  0  0  0
 31 30  1  0  0  0  0
 32 34  1  0  0  0  0
 33 35  1  1  0  0  0
 33 32  1  0  0  0  0
 33 34  1  0  0  0  0
 34 31  1  1  0  0  0
 36 35  1  0  0  0  0
 37 38  1  0  0  0  0
 37 36  1  0  0  0  0
 38 39  1  0  0  0  0
 39 42  1  0  0  0  0
 40 43  1  0  0  0  0
 41 44  2  0  0  0  0
 42 41  1  0  0  0  0
 42 40  2  0  0  0  0
 43 45  2  0  0  0  0
 44 45  1  0  0  0  0
 46 41  1  0  0  0  0
M  END
>  <MODEL>
7

>  <REMARK>
 VINA RESULT:      -5.8      3.347      7.931
  Name = 
  20 active torsions:
  status: ('A' for Active; 'I' for Inactive)
    1  A    between atoms: C_1  and  C_14
    2  A    between atoms: C_1  and  C_46
    3  A    between atoms: C_4  and  C_16
    4  A    between atoms: C_4  and  C_38
    5  A    between atoms: C_5  and  C_23
    6  A    between atoms: C_5  and  C_25
    7  A    between atoms: N_6  and  C_37
    8  A    between atoms: C_7  and  C_22
    9  A    between atoms: C_7  and  O_43
   10  A    between atoms: O_9  and  C_39
   11  A    between atoms: O_11  and  C_21
   12  A    between atoms: C_14  and  C_15
   13  A    between atoms: C_15  and  C_30
   14  A    between atoms: C_16  and  C_21
   15  A    between atoms: C_17  and  C_33
   16  A    between atoms: C_25  and  C_28
   17  A    between atoms: C_28  and  O_45
   18  A    between atoms: C_31  and  C_38
   19  A    between atoms: C_33  and  C_46
   20  A    between atoms: C_40  and  O_45
                            x       y       z     vdW  Elec       q    Type
                         _______ _______ _______ _____ _____    ______ ____

>  <TORSDO>
F 20

$$$$
=
 OpenBabel11062419483D

 46 51  0  0  1  0  0  0  0  0999 V2000
  192.9410  176.6980  144.9180 N   0  0  1  0  0  0  0  0  0  0  0  0
  194.0160  175.4900  146.5110 N   0  0  0  0  0  2  0  0  0  0  0  0
  194.0050  177.5310  145.2600 N   0  0  0  0  0  2  0  0  0  0  0  0
  192.6800  176.5550  143.5020 C   0  0  1  0  0  3  0  0  0  0  0  0
  194.5320  176.8720  146.4750 C   0  0  0  0  0  2  0  0  0  0  0  0
  192.5370  174.4220  144.6890 C   0  0  0  0  0  2  0  0  0  0  0  0
  192.1100  175.1200  143.3870 C   0  0  2  0  0  3  0  0  0  0  0  0
  193.5250  175.4350  145.1660 C   0  0  1  0  0  3  0  0  0  0  0  0
  192.6850  174.4540  142.2290 N   0  0  0  0  0  0  0  0  0  0  0  0
  192.5840  173.4820  141.2220 C   0  0  0  0  0  0  0  0  0  0  0  0
  193.4660  172.2700  139.4660 C   0  0  0  0  0  3  0  0  0  0  0  0
  194.7170  173.0110  139.6210 C   0  0  0  0  0  3  0  0  0  0  0  0
  194.8930  174.0440  140.6070 C   0  0  0  0  0  0  0  0  0  0  0  0
  192.3210  172.5110  140.3040 C   0  0  0  0  0  0  0  0  0  0  0  0
  193.7580  174.1860  141.3620 C   0  0  0  0  0  0  0  0  0  0  0  0
  196.1600  174.7810  140.7910 C   0  0  0  0  0  0  0  0  0  0  0  0
  196.9140  174.6630  141.8980 C   0  0  0  0  0  3  0  0  0  0  0  0
  197.5810  175.3430  138.8310 C   0  0  0  0  0  1  0  0  0  0  0  0
  196.5510  175.6500  139.7630 O   0  0  0  0  0  0  0  0  0  0  0  0
  196.5600  173.8420  143.0960 C   0  0  0  0  0  2  0  0  0  0  0  0
  197.1740  174.4500  144.3460 C   0  0  0  0  0  2  0  0  0  0  0  0
  196.8370  173.6130  145.5690 C   0  0  0  0  0  2  0  0  0  0  0  0
  196.1920  172.2930  145.1720 C   0  0  0  0  0  2  0  0  0  0  0  0
  194.9340  172.1740  145.7660 O   0  0  0  0  0  0  0  0  0  0  0  0
  194.4600  170.9330  145.3380 C   0  0  0  0  0  1  0  0  0  0  0  0
  191.0970  171.8480  140.2140 O   0  0  0  0  0  0  0  0  0  0  0  0
  189.9770  172.4290  139.5630 C   0  0  0  0  0  1  0  0  0  0  0  0
  191.6810  177.6020  143.0090 C   0  0  0  0  0  2  0  0  0  0  0  0
  190.3510  177.5380  143.7520 C   0  0  0  0  0  2  0  0  0  0  0  0
  189.2000  177.5850  142.7660 C   0  0  0  0  0  2  0  0  0  0  0  0
  188.0510  178.0610  143.3980 O   0  0  0  0  0  0  0  0  0  0  0  0
  186.3710  178.6940  141.9690 O   0  0  0  0  0  0  0  0  0  0  0  0
  185.6630  178.1120  143.0390 C   0  0  1  0  0  3  0  0  0  0  0  0
  186.9960  177.6000  142.5990 C   0  0  2  0  0  3  0  0  0  0  0  0
  185.7050  179.0550  144.2410 C   0  0  0  0  0  2  0  0  0  0  0  0
  185.1000  178.3840  145.4680 C   0  0  0  0  0  2  0  0  0  0  0  0
  186.0830  178.3630  146.6290 C   0  0  0  0  0  2  0  0  0  0  0  0
  186.3460  176.9360  147.0780 C   0  0  0  0  0  2  0  0  0  0  0  0
  187.4200  176.2890  146.2150 C   0  0  0  0  0  2  0  0  0  0  0  0
  189.3040  177.5980  147.2070 C   0  0  0  0  0  3  0  0  0  0  0  0
  189.4760  175.1810  147.1700 C   0  0  0  0  0  0  0  0  0  0  0  0
  188.7630  176.3520  146.8730 C   0  0  0  0  0  0  0  0  0  0  0  0
  190.5520  177.6790  147.8310 C   0  0  0  0  0  3  0  0  0  0  0  0
  190.7250  175.2640  147.7950 C   0  0  0  0  0  3  0  0  0  0  0  0
  191.2630  176.5120  148.1250 C   0  0  0  0  0  3  0  0  0  0  0  0
  188.9690  173.9630  146.8560 F   0  0  0  0  0  0  0  0  0  0  0  0
  1  8  1  0  0  0  0
  1  3  1  6  0  0  0
  3  5  1  0  0  0  0
  4 28  1  1  0  0  0
  4  1  1  0  0  0  0
  5  2  1  0  0  0  0
  7  9  1  6  0  0  0
  7  4  1  0  0  0  0
  7  6  1  0  0  0  0
  8  6  1  1  0  0  0
  8  2  1  0  0  0  0
 10 15  1  0  0  0  0
 10  9  1  0  0  0  0
 11 12  2  0  0  0  0
 11 14  1  0  0  0  0
 12 13  1  0  0  0  0
 13 16  1  0  0  0  0
 13 15  2  0  0  0  0
 14 10  2  0  0  0  0
 15  9  1  0  0  0  0
 16 17  2  0  0  0  0
 17 20  1  0  0  0  0
 18 19  1  0  0  0  0
 19 16  1  0  0  0  0
 20 21  1  0  0  0  0
 21 22  1  0  0  0  0
 23 22  1  0  0  0  0
 23 24  1  0  0  0  0
 25 24  1  0  0  0  0
 26 14  1  0  0  0  0
 27 26  1  0  0  0  0
 28 29  1  0  0  0  0
 30 31  1  0  0  0  0
 30 29  1  0  0  0  0
 32 34  1  0  0  0  0
 32 33  1  0  0  0  0
 33 35  1  1  0  0  0
 34 33  1  0  0  0  0
 34 31  1  1  0  0  0
 35 36  1  0  0  0  0
 36 37  1  0  0  0  0
 37 38  1  0  0  0  0
 39 42  1  0  0  0  0
 39 38  1  0  0  0  0
 40 43  1  0  0  0  0
 41 44  2  0  0  0  0
 42 41  1  0  0  0  0
 42 40  2  0  0  0  0
 43 45  2  0  0  0  0
 44 45  1  0  0  0  0
 46 41  1  0  0  0  0
M  END
>  <MODEL>
8

>  <REMARK>
 VINA RESULT:      -5.8      2.846      9.152
  Name = 
  20 active torsions:
  status: ('A' for Active; 'I' for Inactive)
    1  A    between atoms: C_1  and  C_14
    2  A    between atoms: C_1  and  C_46
    3  A    between atoms: C_4  and  C_16
    4  A    between atoms: C_4  and  C_38
    5  A    between atoms: C_5  and  C_23
    6  A    between atoms: C_5  and  C_25
    7  A    between atoms: N_6  and  C_37
    8  A    between atoms: C_7  and  C_22
    9  A    between atoms: C_7  and  O_43
   10  A    between atoms: O_9  and  C_39
   11  A    between atoms: O_11  and  C_21
   12  A    between atoms: C_14  and  C_15
   13  A    between atoms: C_15  and  C_30
   14  A    between atoms: C_16  and  C_21
   15  A    between atoms: C_17  and  C_33
   16  A    between atoms: C_25  and  C_28
   17  A    between atoms: C_28  and  O_45
   18  A    between atoms: C_31  and  C_38
   19  A    between atoms: C_33  and  C_46
   20  A    between atoms: C_40  and  O_45
                            x       y       z     vdW  Elec       q    Type
                         _______ _______ _______ _____ _____    ______ ____

>  <TORSDO>
F 20

$$$$
=
 OpenBabel11062419483D

 46 51  0  0  1  0  0  0  0  0999 V2000
  196.2470  175.6890  144.5130 N   0  0  1  0  0  0  0  0  0  0  0  0
  197.9310  175.1930  143.0740 N   0  0  0  0  0  2  0  0  0  0  0  0
  195.9830  176.5360  143.4380 N   0  0  0  0  0  2  0  0  0  0  0  0
  195.1060  174.9890  145.0610 C   0  0  1  0  0  3  0  0  0  0  0  0
  197.2210  176.4100  142.6380 C   0  0  0  0  0  2  0  0  0  0  0  0
  197.0680  173.5430  144.8570 C   0  0  0  0  0  2  0  0  0  0  0  0
  195.7150  173.6630  145.5800 C   0  0  2  0  0  3  0  0  0  0  0  0
  196.8650  174.6130  143.8360 C   0  0  1  0  0  3  0  0  0  0  0  0
  194.8430  172.5520  145.2350 N   0  0  0  0  0  0  0  0  0  0  0  0
  194.6020  171.1700  145.2070 C   0  0  0  0  0  0  0  0  0  0  0  0
  193.3550  169.3320  144.5730 C   0  0  0  0  0  3  0  0  0  0  0  0
  192.4150  170.2360  143.9100 C   0  0  0  0  0  3  0  0  0  0  0  0
  192.5720  171.6660  143.9190 C   0  0  0  0  0  0  0  0  0  0  0  0
  194.5190  169.8130  145.2710 C   0  0  0  0  0  0  0  0  0  0  0  0
  193.7130  172.0210  144.5900 C   0  0  0  0  0  0  0  0  0  0  0  0
  191.6440  172.5860  143.2300 C   0  0  0  0  0  0  0  0  0  0  0  0
  192.0600  173.5040  142.3400 C   0  0  0  0  0  3  0  0  0  0  0  0
  189.8010  172.5350  144.8970 C   0  0  0  0  0  1  0  0  0  0  0  0
  190.2850  172.4920  143.5600 O   0  0  0  0  0  0  0  0  0  0  0  0
  193.4860  173.7620  141.9740 C   0  0  0  0  0  2  0  0  0  0  0  0
  193.8170  173.0840  140.6540 C   0  0  0  0  0  2  0  0  0  0  0  0
  194.2950  171.6600  140.8900 C   0  0  0  0  0  2  0  0  0  0  0  0
  193.5740  170.6790  139.9750 C   0  0  0  0  0  2  0  0  0  0  0  0
  192.2010  170.9300  139.9890 O   0  0  0  0  0  0  0  0  0  0  0  0
  191.7760  170.6240  138.6950 C   0  0  0  0  0  1  0  0  0  0  0  0
  195.4550  169.0140  145.9280 O   0  0  0  0  0  0  0  0  0  0  0  0
  195.2840  168.6170  147.2800 C   0  0  0  0  0  1  0  0  0  0  0  0
  194.4470  175.7870  146.1870 C   0  0  0  0  0  2  0  0  0  0  0  0
  192.9380  175.9160  146.0070 C   0  0  0  0  0  2  0  0  0  0  0  0
  192.6280  176.6990  144.7470 C   0  0  0  0  0  2  0  0  0  0  0  0
  191.3390  177.2260  144.8190 O   0  0  0  0  0  0  0  0  0  0  0  0
  189.3820  176.8590  143.6780 O   0  0  0  0  0  0  0  0  0  0  0  0
  189.1840  176.1350  144.8710 C   0  0  1  0  0  3  0  0  0  0  0  0
  190.5280  176.2500  144.2270 C   0  0  2  0  0  3  0  0  0  0  0  0
  188.9400  177.1160  146.0180 C   0  0  0  0  0  2  0  0  0  0  0  0
  187.7530  176.6670  146.8600 C   0  0  0  0  0  2  0  0  0  0  0  0
  186.7780  177.8110  147.0950 C   0  0  0  0  0  2  0  0  0  0  0  0
  185.3460  177.3400  146.8960 C   0  0  0  0  0  2  0  0  0  0  0  0
  184.6410  178.1910  145.8500 C   0  0  0  0  0  2  0  0  0  0  0  0
  185.5320  176.7700  143.9970 C   0  0  0  0  0  3  0  0  0  0  0  0
  185.6200  179.1800  143.7450 C   0  0  0  0  0  0  0  0  0  0  0  0
  185.2820  178.0500  144.5050 C   0  0  0  0  0  0  0  0  0  0  0  0
  186.1210  176.6150  142.7390 C   0  0  0  0  0  3  0  0  0  0  0  0
  186.2090  179.0220  142.4860 C   0  0  0  0  0  3  0  0  0  0  0  0
  186.4600  177.7420  141.9840 C   0  0  0  0  0  3  0  0  0  0  0  0
  185.3840  180.4280  144.2180 F   0  0  0  0  0  0  0  0  0  0  0  0
  1  3  1  6  0  0  0
  1  4  1  0  0  0  0
  2  8  1  0  0  0  0
  4  7  1  0  0  0  0
  4 28  1  1  0  0  0
  5  2  1  0  0  0  0
  5  3  1  0  0  0  0
  7  6  1  6  0  0  0
  8  1  1  0  0  0  0
  8  6  1  1  0  0  0
  9  7  1  0  0  0  0
 10  9  1  0  0  0  0
 10 14  1  0  0  0  0
 11 14  2  0  0  0  0
 12 13  2  0  0  0  0
 12 11  1  0  0  0  0
 13 15  1  0  0  0  0
 14 26  1  0  0  0  0
 15 10  2  0  0  0  0
 15  9  1  0  0  0  0
 16 19  1  0  0  0  0
 16 13  1  0  0  0  0
 17 16  2  0  0  0  0
 19 18  1  0  0  0  0
 20 17  1  0  0  0  0
 21 22  1  0  0  0  0
 21 20  1  0  0  0  0
 23 24  1  0  0  0  0
 23 22  1  0  0  0  0
 25 24  1  0  0  0  0
 26 27  1  0  0  0  0
 29 28  1  0  0  0  0
 30 31  1  0  0  0  0
 30 29  1  0  0  0  0
 32 34  1  0  0  0  0
 32 33  1  0  0  0  0
 33 35  1  1  0  0  0
 34 31  1  1  0  0  0
 34 33  1  0  0  0  0
 35 36  1  0  0  0  0
 36 37  1  0  0  0  0
 38 37  1  0  0  0  0
 39 38  1  0  0  0  0
 40 42  1  0  0  0  0
 41 46  1  0  0  0  0
 41 42  2  0  0  0  0
 42 39  1  0  0  0  0
 43 40  2  0  0  0  0
 44 41  1  0  0  0  0
 45 44  2  0  0  0  0
 45 43  1  0  0  0  0
M  END
>  <MODEL>
9

>  <REMARK>
 VINA RESULT:      -5.8      3.336      8.643
  Name = 
  20 active torsions:
  status: ('A' for Active; 'I' for Inactive)
    1  A    between atoms: C_1  and  C_14
    2  A    between atoms: C_1  and  C_46
    3  A    between atoms: C_4  and  C_16
    4  A    between atoms: C_4  and  C_38
    5  A    between atoms: C_5  and  C_23
    6  A    between atoms: C_5  and  C_25
    7  A    between atoms: N_6  and  C_37
    8  A    between atoms: C_7  and  C_22
    9  A    between atoms: C_7  and  O_43
   10  A    between atoms: O_9  and  C_39
   11  A    between atoms: O_11  and  C_21
   12  A    between atoms: C_14  and  C_15
   13  A    between atoms: C_15  and  C_30
   14  A    between atoms: C_16  and  C_21
   15  A    between atoms: C_17  and  C_33
   16  A    between atoms: C_25  and  C_28
   17  A    between atoms: C_28  and  O_45
   18  A    between atoms: C_31  and  C_38
   19  A    between atoms: C_33  and  C_46
   20  A    between atoms: C_40  and  O_45
                            x       y       z     vdW  Elec       q    Type
                         _______ _______ _______ _____ _____    ______ ____

>  <TORSDO>
F 20

$$$$
