=
 OpenBabel11062420353D

 32 34  0  0  1  0  0  0  0  0999 V2000
  189.6920  174.4060  146.3620 O   0  0  0  0  0  0  0  0  0  0  0  0
  189.2660  175.5880  146.4680 C   0  0  0  0  0  0  0  0  0  0  0  0
  187.8660  175.8080  146.6640 N   0  0  0  0  0  2  0  0  0  0  0  0
  185.9630  178.7650  145.2540 C   0  0  0  0  0  0  0  0  0  0  0  0
  187.2630  177.1320  146.6940 C   0  0  2  0  0  3  0  0  0  0  0  0
  185.2830  179.1610  146.3420 C   0  0  0  0  0  3  0  0  0  0  0  0
  185.4870  178.5360  147.6980 C   0  0  0  0  0  2  0  0  0  0  0  0
  186.0320  177.1160  147.5870 C   0  0  0  0  0  2  0  0  0  0  0  0
  186.8600  177.5500  145.2780 C   0  0  0  0  0  2  0  0  0  0  0  0
  185.6980  179.4490  143.9490 C   0  0  0  0  0  2  0  0  0  0  0  0
  186.3050  178.6910  142.7740 C   0  0  0  0  0  2  0  0  0  0  0  0
  183.8720  178.3000  142.4940 C   0  0  0  0  0  1  0  0  0  0  0  0
  185.2570  177.8780  142.0280 C   0  0  1  0  0  3  0  0  0  0  0  0
  184.2850  177.6250  139.8170 O   0  0  0  0  0  1  0  0  0  0  0  0
  185.4270  178.0340  140.5130 C   0  0  2  0  0  3  0  0  0  0  0  0
  186.6710  177.3260  139.9870 C   0  0  0  0  0  2  0  0  0  0  0  0
  186.5030  176.9430  138.6550 O   0  0  0  0  0  1  0  0  0  0  0  0
  192.5660  176.4440  146.3000 C   0  0  2  0  0  3  0  0  0  0  0  0
  192.0960  176.4920  147.6770 N   0  0  0  0  0  2  0  0  0  0  0  0
  191.3480  176.3950  145.4150 C   0  0  1  0  0  3  0  0  0  0  0  0
  190.8070  177.0590  147.6490 N   0  0  0  0  0  2  0  0  0  0  0  0
  190.2200  176.7420  146.3510 C   0  0  2  0  0  3  0  0  0  0  0  0
  192.9540  174.0580  145.7270 C   0  0  0  0  0  3  0  0  0  0  0  0
  194.9420  175.4090  146.1960 C   0  0  0  0  0  2  0  0  0  0  0  0
  195.0840  173.3770  144.6150 C   0  0  0  0  0  2  0  0  0  0  0  0
  193.4530  175.2520  146.0820 C   0  0  0  0  0  0  0  0  0  0  0  0
  195.6330  174.7730  144.9830 C   0  0  0  0  0  2  0  0  0  0  0  0
  193.9000  172.9180  145.4800 C   0  0  0  0  0  2  0  0  0  0  0  0
  191.4530  177.4490  144.3270 C   0  0  0  0  0  2  0  0  0  0  0  0
  191.6040  176.7840  142.9730 C   0  0  0  0  0  2  0  0  0  0  0  0
  192.8940  175.2060  142.1340 C   0  0  0  0  0  1  0  0  0  0  0  0
  192.9410  176.4470  142.7670 O   0  0  0  0  0  0  0  0  0  0  0  0
  1  2  2  0  0  0  0
  2  3  1  0  0  0  0
  4  9  1  0  0  0  0
  4  6  2  0  0  0  0
  5  3  1  6  0  0  0
  5  8  1  0  0  0  0
  6  7  1  0  0  0  0
  8  7  1  0  0  0  0
  9  5  1  0  0  0  0
 10  4  1  0  0  0  0
 11 10  1  0  0  0  0
 13 12  1  1  0  0  0
 13 11  1  0  0  0  0
 15 14  1  6  0  0  0
 15 13  1  0  0  0  0
 16 15  1  0  0  0  0
 17 16  1  0  0  0  0
 18 26  1  1  0  0  0
 18 19  1  0  0  0  0
 20 29  1  6  0  0  0
 20 18  1  0  0  0  0
 20 22  1  0  0  0  0
 21 19  1  0  0  0  0
 22  2  1  1  0  0  0
 22 21  1  0  0  0  0
 23 26  2  0  0  0  0
 25 27  1  0  0  0  0
 25 28  1  0  0  0  0
 26 24  1  0  0  0  0
 27 24  1  0  0  0  0
 28 23  1  0  0  0  0
 30 29  1  0  0  0  0
 31 32  1  0  0  0  0
 32 30  1  0  0  0  0
M  END
>  <MODEL>
1

>  <REMARK>
 VINA RESULT:      -7.4      0.000      0.000
  Name = 
  11 active torsions:
  status: ('A' for Active; 'I' for Inactive)
    1  A    between atoms: C_2  and  C_27
    2  A    between atoms: C_5  and  C_8
    3  A    between atoms: C_5  and  C_25
    4  A    between atoms: C_7  and  O_15
    5  A    between atoms: C_7  and  C_18
    6  A    between atoms: C_9  and  N_22
    7  A    between atoms: C_10  and  C_17
    8  A    between atoms: C_16  and  C_31
    9  A    between atoms: C_18  and  C_21
   10  A    between atoms: C_23  and  C_25
   11  A    between atoms: C_23  and  C_27
                            x       y       z     vdW  Elec       q    Type
                         _______ _______ _______ _____ _____    ______ ____

>  <TORSDO>
F 11

$$$$
=
 OpenBabel11062420353D

 32 34  0  0  1  0  0  0  0  0999 V2000
  187.3390  174.7960  142.2590 O   0  0  0  0  0  0  0  0  0  0  0  0
  188.5670  175.0750  142.3240 C   0  0  0  0  0  0  0  0  0  0  0  0
  189.5280  174.0460  142.0710 N   0  0  0  0  0  2  0  0  0  0  0  0
  192.9100  173.6330  143.7300 C   0  0  0  0  0  0  0  0  0  0  0  0
  190.9620  174.2400  142.2230 C   0  0  2  0  0  3  0  0  0  0  0  0
  193.7060  173.5680  142.6500 C   0  0  0  0  0  3  0  0  0  0  0  0
  193.1910  173.7740  141.2490 C   0  0  0  0  0  2  0  0  0  0  0  0
  191.7020  173.4630  141.1440 C   0  0  0  0  0  2  0  0  0  0  0  0
  191.4090  173.7500  143.6010 C   0  0  0  0  0  2  0  0  0  0  0  0
  193.5110  173.4220  145.0840 C   0  0  0  0  0  2  0  0  0  0  0  0
  193.4110  174.6700  145.9530 C   0  0  0  0  0  2  0  0  0  0  0  0
  195.8710  174.4030  145.7970 C   0  0  0  0  0  1  0  0  0  0  0  0
  194.7460  175.3930  146.0560 C   0  0  1  0  0  3  0  0  0  0  0  0
  193.5140  177.0320  144.7540 O   0  0  0  0  0  1  0  0  0  0  0  0
  194.7940  176.5840  145.0920 C   0  0  2  0  0  3  0  0  0  0  0  0
  195.6190  176.2930  143.8430 C   0  0  0  0  0  2  0  0  0  0  0  0
  196.6960  177.1760  143.7390 O   0  0  0  0  0  1  0  0  0  0  0  0
  187.6540  177.9010  144.0080 C   0  0  2  0  0  3  0  0  0  0  0  0
  187.2780  177.9990  142.6050 N   0  0  0  0  0  2  0  0  0  0  0  0
  188.6300  176.7590  144.1290 C   0  0  1  0  0  3  0  0  0  0  0  0
  188.3400  177.4550  141.8580 N   0  0  0  0  0  2  0  0  0  0  0  0
  189.0010  176.4630  142.6990 C   0  0  2  0  0  3  0  0  0  0  0  0
  186.5510  177.3320  146.1600 C   0  0  0  0  0  3  0  0  0  0  0  0
  185.0770  177.9300  144.2990 C   0  0  0  0  0  2  0  0  0  0  0  0
  184.3460  178.3520  146.7350 C   0  0  0  0  0  2  0  0  0  0  0  0
  186.4440  177.6840  144.8690 C   0  0  0  0  0  0  0  0  0  0  0  0
  184.2540  178.7980  145.2590 C   0  0  0  0  0  2  0  0  0  0  0  0
  185.3030  177.1750  146.9790 C   0  0  0  0  0  2  0  0  0  0  0  0
  189.8610  177.2060  144.8960 C   0  0  0  0  0  2  0  0  0  0  0  0
  190.0770  176.3080  146.0980 C   0  0  0  0  0  2  0  0  0  0  0  0
  189.1600  174.7120  147.3100 C   0  0  0  0  0  1  0  0  0  0  0  0
  189.2380  175.1990  146.0070 O   0  0  0  0  0  0  0  0  0  0  0  0
  1  2  2  0  0  0  0
  3  2  1  0  0  0  0
  4 10  1  0  0  0  0
  5  3  1  6  0  0  0
  5  9  1  0  0  0  0
  6  4  2  0  0  0  0
  7  6  1  0  0  0  0
  8  7  1  0  0  0  0
  8  5  1  0  0  0  0
  9  4  1  0  0  0  0
 10 11  1  0  0  0  0
 11 13  1  0  0  0  0
 13 12  1  6  0  0  0
 15 14  1  6  0  0  0
 15 13  1  0  0  0  0
 16 15  1  0  0  0  0
 17 16  1  0  0  0  0
 18 20  1  0  0  0  0
 18 26  1  1  0  0  0
 19 18  1  0  0  0  0
 20 29  1  1  0  0  0
 21 19  1  0  0  0  0
 21 22  1  0  0  0  0
 22  2  1  6  0  0  0
 22 20  1  0  0  0  0
 23 28  1  0  0  0  0
 24 26  1  0  0  0  0
 24 27  1  0  0  0  0
 25 28  1  0  0  0  0
 26 23  2  0  0  0  0
 27 25  1  0  0  0  0
 29 30  1  0  0  0  0
 32 30  1  0  0  0  0
 32 31  1  0  0  0  0
M  END
>  <MODEL>
2

>  <REMARK>
 VINA RESULT:      -7.0      2.678      8.448
  Name = 
  11 active torsions:
  status: ('A' for Active; 'I' for Inactive)
    1  A    between atoms: C_2  and  C_27
    2  A    between atoms: C_5  and  C_8
    3  A    between atoms: C_5  and  C_25
    4  A    between atoms: C_7  and  O_15
    5  A    between atoms: C_7  and  C_18
    6  A    between atoms: C_9  and  N_22
    7  A    between atoms: C_10  and  C_17
    8  A    between atoms: C_16  and  C_31
    9  A    between atoms: C_18  and  C_21
   10  A    between atoms: C_23  and  C_25
   11  A    between atoms: C_23  and  C_27
                            x       y       z     vdW  Elec       q    Type
                         _______ _______ _______ _____ _____    ______ ____

>  <TORSDO>
F 11

$$$$
=
 OpenBabel11062420353D

 32 34  0  0  1  0  0  0  0  0999 V2000
  187.0940  174.9640  142.2780 O   0  0  0  0  0  0  0  0  0  0  0  0
  188.3480  175.0890  142.2710 C   0  0  0  0  0  0  0  0  0  0  0  0
  189.1590  173.9540  141.9530 N   0  0  0  0  0  2  0  0  0  0  0  0
  192.5530  173.1540  143.4340 C   0  0  0  0  0  0  0  0  0  0  0  0
  190.6120  173.9680  142.0190 C   0  0  2  0  0  3  0  0  0  0  0  0
  193.2700  172.9630  142.3150 C   0  0  0  0  0  3  0  0  0  0  0  0
  192.7040  173.1990  140.9380 C   0  0  0  0  0  2  0  0  0  0  0  0
  191.1840  173.0780  140.9260 C   0  0  0  0  0  2  0  0  0  0  0  0
  191.0730  173.4570  143.3850 C   0  0  0  0  0  2  0  0  0  0  0  0
  193.2010  172.8990  144.7580 C   0  0  0  0  0  2  0  0  0  0  0  0
  192.9870  174.0560  145.7290 C   0  0  0  0  0  2  0  0  0  0  0  0
  195.4620  174.0690  145.5620 C   0  0  0  0  0  1  0  0  0  0  0  0
  194.2350  174.9170  145.8610 C   0  0  1  0  0  3  0  0  0  0  0  0
  194.8260  175.9450  143.7420 O   0  0  0  0  0  1  0  0  0  0  0  0
  194.1470  176.1440  144.9480 C   0  0  2  0  0  3  0  0  0  0  0  0
  194.6150  177.4210  145.6360 C   0  0  0  0  0  2  0  0  0  0  0  0
  194.2730  177.4140  146.9900 O   0  0  0  0  0  1  0  0  0  0  0  0
  187.8640  178.0070  143.9750 C   0  0  2  0  0  3  0  0  0  0  0  0
  187.4640  178.1560  142.5840 N   0  0  0  0  0  2  0  0  0  0  0  0
  188.6840  176.7470  144.0700 C   0  0  1  0  0  3  0  0  0  0  0  0
  188.4240  177.4790  141.8070 N   0  0  0  0  0  2  0  0  0  0  0  0
  188.9720  176.4070  142.6310 C   0  0  2  0  0  3  0  0  0  0  0  0
  186.2800  176.8090  145.4680 C   0  0  0  0  0  3  0  0  0  0  0  0
  185.9010  179.2100  145.1680 C   0  0  0  0  0  2  0  0  0  0  0  0
  185.1740  178.0320  147.3430 C   0  0  0  0  0  2  0  0  0  0  0  0
  186.6620  177.9500  144.8720 C   0  0  0  0  0  0  0  0  0  0  0  0
  185.6610  179.3380  146.6780 C   0  0  0  0  0  2  0  0  0  0  0  0
  185.0950  176.8310  146.3890 C   0  0  0  0  0  2  0  0  0  0  0  0
  189.9850  177.0270  144.8000 C   0  0  0  0  0  2  0  0  0  0  0  0
  189.9440  176.4140  146.1870 C   0  0  0  0  0  2  0  0  0  0  0  0
  189.0920  174.7220  147.3130 C   0  0  0  0  0  1  0  0  0  0  0  0
  189.6630  175.0530  146.0850 O   0  0  0  0  0  0  0  0  0  0  0  0
  2  1  2  0  0  0  0
  3  2  1  0  0  0  0
  4 10  1  0  0  0  0
  5  3  1  1  0  0  0
  5  9  1  0  0  0  0
  6  4  2  0  0  0  0
  7  6  1  0  0  0  0
  8  7  1  0  0  0  0
  8  5  1  0  0  0  0
  9  4  1  0  0  0  0
 10 11  1  0  0  0  0
 11 13  1  0  0  0  0
 13 12  1  6  0  0  0
 15 14  1  6  0  0  0
 15 16  1  0  0  0  0
 15 13  1  0  0  0  0
 16 17  1  0  0  0  0
 18 20  1  0  0  0  0
 18 26  1  1  0  0  0
 19 18  1  0  0  0  0
 20 29  1  1  0  0  0
 21 19  1  0  0  0  0
 21 22  1  0  0  0  0
 22  2  1  6  0  0  0
 22 20  1  0  0  0  0
 23 28  1  0  0  0  0
 24 27  1  0  0  0  0
 26 24  1  0  0  0  0
 26 23  2  0  0  0  0
 27 25  1  0  0  0  0
 28 25  1  0  0  0  0
 29 30  1  0  0  0  0
 32 30  1  0  0  0  0
 32 31  1  0  0  0  0
M  END
>  <MODEL>
3

>  <REMARK>
 VINA RESULT:      -6.8      2.760      8.346
  Name = 
  11 active torsions:
  status: ('A' for Active; 'I' for Inactive)
    1  A    between atoms: C_2  and  C_27
    2  A    between atoms: C_5  and  C_8
    3  A    between atoms: C_5  and  C_25
    4  A    between atoms: C_7  and  O_15
    5  A    between atoms: C_7  and  C_18
    6  A    between atoms: C_9  and  N_22
    7  A    between atoms: C_10  and  C_17
    8  A    between atoms: C_16  and  C_31
    9  A    between atoms: C_18  and  C_21
   10  A    between atoms: C_23  and  C_25
   11  A    between atoms: C_23  and  C_27
                            x       y       z     vdW  Elec       q    Type
                         _______ _______ _______ _____ _____    ______ ____

>  <TORSDO>
F 11

$$$$
=
 OpenBabel11062420353D

 32 34  0  0  1  0  0  0  0  0999 V2000
  192.8190  177.0290  142.8770 O   0  0  0  0  0  0  0  0  0  0  0  0
  191.7560  176.4140  143.1620 C   0  0  0  0  0  0  0  0  0  0  0  0
  190.5030  176.9490  142.7250 N   0  0  0  0  0  2  0  0  0  0  0  0
  187.2600  176.6990  144.6670 C   0  0  0  0  0  0  0  0  0  0  0  0
  189.2190  176.3720  143.0900 C   0  0  2  0  0  3  0  0  0  0  0  0
  186.4310  176.2620  143.7050 C   0  0  0  0  0  3  0  0  0  0  0  0
  186.9120  175.8970  142.3240 C   0  0  0  0  0  2  0  0  0  0  0  0
  188.2130  176.6110  141.9740 C   0  0  0  0  0  2  0  0  0  0  0  0
  188.7090  177.0150  144.3810 C   0  0  0  0  0  2  0  0  0  0  0  0
  186.6930  177.0320  146.0110 C   0  0  0  0  0  2  0  0  0  0  0  0
  185.1680  177.0190  146.0070 C   0  0  0  0  0  2  0  0  0  0  0  0
  185.5940  179.1550  147.1940 C   0  0  0  0  0  1  0  0  0  0  0  0
  184.5940  178.3870  146.3440 C   0  0  1  0  0  3  0  0  0  0  0  0
  183.9180  178.2810  144.0130 O   0  0  0  0  0  1  0  0  0  0  0  0
  184.2200  179.1490  145.0670 C   0  0  2  0  0  3  0  0  0  0  0  0
  185.2830  180.1600  144.6560 C   0  0  0  0  0  2  0  0  0  0  0  0
  185.9420  179.7490  143.4950 O   0  0  0  0  0  1  0  0  0  0  0  0
  193.8600  174.1180  144.5620 C   0  0  2  0  0  3  0  0  0  0  0  0
  193.4310  173.6790  143.2420 N   0  0  0  0  0  2  0  0  0  0  0  0
  192.9390  175.2350  144.9810 C   0  0  1  0  0  3  0  0  0  0  0  0
  192.0630  173.9970  143.1300 N   0  0  0  0  0  2  0  0  0  0  0  0
  191.8150  175.1560  143.9810 C   0  0  2  0  0  3  0  0  0  0  0  0
  196.3020  173.6960  144.3910 C   0  0  0  0  0  3  0  0  0  0  0  0
  195.6060  176.0350  144.6000 C   0  0  0  0  0  2  0  0  0  0  0  0
  197.7940  175.4250  143.3790 C   0  0  0  0  0  2  0  0  0  0  0  0
  195.2920  174.5680  144.5340 C   0  0  0  0  0  0  0  0  0  0  0  0
  196.6100  176.4080  143.5010 C   0  0  0  0  0  2  0  0  0  0  0  0
  197.7090  174.2170  144.3250 C   0  0  0  0  0  2  0  0  0  0  0  0
  192.4030  174.9710  146.3760 C   0  0  0  0  0  2  0  0  0  0  0  0
  192.1420  176.2840  147.0880 C   0  0  0  0  0  2  0  0  0  0  0  0
  190.2140  175.2820  147.4580 C   0  0  0  0  0  1  0  0  0  0  0  0
  190.7690  176.5200  147.1400 O   0  0  0  0  0  0  0  0  0  0  0  0
  1  2  2  0  0  0  0
  3  2  1  0  0  0  0
  4 10  1  0  0  0  0
  5  3  1  6  0  0  0
  5  9  1  0  0  0  0
  6  4  2  0  0  0  0
  7  6  1  0  0  0  0
  8  7  1  0  0  0  0
  8  5  1  0  0  0  0
  9  4  1  0  0  0  0
 11 10  1  0  0  0  0
 11 13  1  0  0  0  0
 13 12  1  6  0  0  0
 15 14  1  6  0  0  0
 15 13  1  0  0  0  0
 16 15  1  0  0  0  0
 17 16  1  0  0  0  0
 18 26  1  6  0  0  0
 18 20  1  0  0  0  0
 19 18  1  0  0  0  0
 20 29  1  1  0  0  0
 21 19  1  0  0  0  0
 21 22  1  0  0  0  0
 22  2  1  6  0  0  0
 22 20  1  0  0  0  0
 23 26  2  0  0  0  0
 25 27  1  0  0  0  0
 25 28  1  0  0  0  0
 26 24  1  0  0  0  0
 27 24  1  0  0  0  0
 28 23  1  0  0  0  0
 29 30  1  0  0  0  0
 30 32  1  0  0  0  0
 32 31  1  0  0  0  0
M  END
>  <MODEL>
4

>  <REMARK>
 VINA RESULT:      -6.6      2.535      4.324
  Name = 
  11 active torsions:
  status: ('A' for Active; 'I' for Inactive)
    1  A    between atoms: C_2  and  C_27
    2  A    between atoms: C_5  and  C_8
    3  A    between atoms: C_5  and  C_25
    4  A    between atoms: C_7  and  O_15
    5  A    between atoms: C_7  and  C_18
    6  A    between atoms: C_9  and  N_22
    7  A    between atoms: C_10  and  C_17
    8  A    between atoms: C_16  and  C_31
    9  A    between atoms: C_18  and  C_21
   10  A    between atoms: C_23  and  C_25
   11  A    between atoms: C_23  and  C_27
                            x       y       z     vdW  Elec       q    Type
                         _______ _______ _______ _____ _____    ______ ____

>  <TORSDO>
F 11

$$$$
=
 OpenBabel11062420353D

 32 34  0  0  1  0  0  0  0  0999 V2000
  190.1740  177.7540  147.7330 O   0  0  0  0  0  0  0  0  0  0  0  0
  190.7410  176.8800  147.0230 C   0  0  0  0  0  0  0  0  0  0  0  0
  192.1700  176.8430  146.9740 N   0  0  0  0  0  2  0  0  0  0  0  0
  193.8100  175.7380  143.7420 C   0  0  0  0  0  0  0  0  0  0  0  0
  192.9160  175.9440  146.1060 C   0  0  2  0  0  3  0  0  0  0  0  0
  194.8870  175.0950  144.2210 C   0  0  0  0  0  3  0  0  0  0  0  0
  195.1090  174.8700  145.6940 C   0  0  0  0  0  2  0  0  0  0  0  0
  194.3740  175.9050  146.5390 C   0  0  0  0  0  2  0  0  0  0  0  0
  192.8270  176.4300  144.6580 C   0  0  0  0  0  2  0  0  0  0  0  0
  193.6700  175.9090  142.2620 C   0  0  0  0  0  2  0  0  0  0  0  0
  193.3300  174.5960  141.5650 C   0  0  0  0  0  2  0  0  0  0  0  0
  190.9670  173.9720  141.1430 C   0  0  0  0  0  1  0  0  0  0  0  0
  192.0920  173.9460  142.1660 C   0  0  1  0  0  3  0  0  0  0  0  0
  191.5660  171.5780  142.0430 O   0  0  0  0  0  1  0  0  0  0  0  0
  192.4030  172.5230  142.6430 C   0  0  2  0  0  3  0  0  0  0  0  0
  192.3720  172.3960  144.1620 C   0  0  0  0  0  2  0  0  0  0  0  0
  191.2380  173.0130  144.6930 O   0  0  0  0  0  1  0  0  0  0  0  0
  187.6440  176.3290  145.6970 C   0  0  2  0  0  3  0  0  0  0  0  0
  187.7560  175.7060  147.0080 N   0  0  0  0  0  2  0  0  0  0  0  0
  189.0400  176.6710  145.2450 C   0  0  1  0  0  3  0  0  0  0  0  0
  189.0420  175.1350  147.0800 N   0  0  0  0  0  2  0  0  0  0  0  0
  189.9160  175.9200  146.2140 C   0  0  2  0  0  3  0  0  0  0  0  0
  186.5120  178.2880  144.6710 C   0  0  0  0  0  3  0  0  0  0  0  0
  186.1170  177.9210  147.0600 C   0  0  0  0  0  2  0  0  0  0  0  0
  184.3440  179.1010  145.6060 C   0  0  0  0  0  2  0  0  0  0  0  0
  186.7720  177.5490  145.7610 C   0  0  0  0  0  0  0  0  0  0  0  0
  184.6270  178.2090  146.8340 C   0  0  0  0  0  2  0  0  0  0  0  0
  185.5960  179.4710  144.7950 C   0  0  0  0  0  2  0  0  0  0  0  0
  189.2730  176.1520  143.8380 C   0  0  0  0  0  2  0  0  0  0  0  0
  189.7630  177.2760  142.9450 C   0  0  0  0  0  2  0  0  0  0  0  0
  188.1800  176.3930  141.6920 C   0  0  0  0  0  1  0  0  0  0  0  0
  188.7670  177.6110  142.0300 O   0  0  0  0  0  0  0  0  0  0  0  0
  2  1  2  0  0  0  0
  3  2  1  0  0  0  0
  4  6  2  0  0  0  0
  4  9  1  0  0  0  0
  5  8  1  0  0  0  0
  5  3  1  1  0  0  0
  6  7  1  0  0  0  0
  7  8  1  0  0  0  0
  9  5  1  0  0  0  0
 10  4  1  0  0  0  0
 11 13  1  0  0  0  0
 11 10  1  0  0  0  0
 13 12  1  6  0  0  0
 13 15  1  0  0  0  0
 15 14  1  6  0  0  0
 15 16  1  0  0  0  0
 16 17  1  0  0  0  0
 18 26  1  1  0  0  0
 18 19  1  0  0  0  0
 19 21  1  0  0  0  0
 20 29  1  6  0  0  0
 20 18  1  0  0  0  0
 20 22  1  0  0  0  0
 22  2  1  1  0  0  0
 22 21  1  0  0  0  0
 23 28  1  0  0  0  0
 23 26  2  0  0  0  0
 25 27  1  0  0  0  0
 26 24  1  0  0  0  0
 27 24  1  0  0  0  0
 28 25  1  0  0  0  0
 30 29  1  0  0  0  0
 31 32  1  0  0  0  0
 32 30  1  0  0  0  0
M  END
>  <MODEL>
5

>  <REMARK>
 VINA RESULT:      -6.6      2.110      7.474
  Name = 
  11 active torsions:
  status: ('A' for Active; 'I' for Inactive)
    1  A    between atoms: C_2  and  C_27
    2  A    between atoms: C_5  and  C_8
    3  A    between atoms: C_5  and  C_25
    4  A    between atoms: C_7  and  O_15
    5  A    between atoms: C_7  and  C_18
    6  A    between atoms: C_9  and  N_22
    7  A    between atoms: C_10  and  C_17
    8  A    between atoms: C_16  and  C_31
    9  A    between atoms: C_18  and  C_21
   10  A    between atoms: C_23  and  C_25
   11  A    between atoms: C_23  and  C_27
                            x       y       z     vdW  Elec       q    Type
                         _______ _______ _______ _____ _____    ______ ____

>  <TORSDO>
F 11

$$$$
=
 OpenBabel11062420353D

 32 34  0  0  1  0  0  0  0  0999 V2000
  187.7380  174.5730  142.2810 O   0  0  0  0  0  0  0  0  0  0  0  0
  188.8810  175.0810  142.4320 C   0  0  0  0  0  0  0  0  0  0  0  0
  190.0180  174.2190  142.5350 N   0  0  0  0  0  2  0  0  0  0  0  0
  193.4600  174.1200  144.1170 C   0  0  0  0  0  0  0  0  0  0  0  0
  191.3620  174.7010  142.8140 C   0  0  2  0  0  3  0  0  0  0  0  0
  194.2020  174.6320  143.1210 C   0  0  0  0  0  3  0  0  0  0  0  0
  193.5950  175.1710  141.8520 C   0  0  0  0  0  2  0  0  0  0  0  0
  192.2290  174.5530  141.5730 C   0  0  0  0  0  2  0  0  0  0  0  0
  191.9730  173.8950  143.9620 C   0  0  0  0  0  2  0  0  0  0  0  0
  194.1490  173.6140  145.3440 C   0  0  0  0  0  2  0  0  0  0  0  0
  195.3970  174.4260  145.6730 C   0  0  0  0  0  2  0  0  0  0  0  0
  196.1950  172.0820  145.8270 C   0  0  0  0  0  1  0  0  0  0  0  0
  196.6290  173.5390  145.7940 C   0  0  1  0  0  3  0  0  0  0  0  0
  197.4680  175.1160  144.1480 O   0  0  0  0  0  1  0  0  0  0  0  0
  197.6140  173.8210  144.6540 C   0  0  2  0  0  3  0  0  0  0  0  0
  197.5300  172.7850  143.5380 C   0  0  0  0  0  2  0  0  0  0  0  0
  197.4380  173.4020  142.2890 O   0  0  0  0  0  1  0  0  0  0  0  0
  187.3890  177.9380  143.5570 C   0  0  2  0  0  3  0  0  0  0  0  0
  187.0500  177.7010  142.1610 N   0  0  0  0  0  2  0  0  0  0  0  0
  188.5590  177.0490  143.8890 C   0  0  1  0  0  3  0  0  0  0  0  0
  188.2230  177.2450  141.5280 N   0  0  0  0  0  2  0  0  0  0  0  0
  189.0300  176.5720  142.5400 C   0  0  2  0  0  3  0  0  0  0  0  0
  186.3480  176.9860  145.6020 C   0  0  0  0  0  3  0  0  0  0  0  0
  184.8590  178.1850  144.0720 C   0  0  0  0  0  2  0  0  0  0  0  0
  184.3320  178.0760  146.5930 C   0  0  0  0  0  2  0  0  0  0  0  0
  186.2130  177.6540  144.4460 C   0  0  0  0  0  0  0  0  0  0  0  0
  184.2140  178.8780  145.2790 C   0  0  0  0  0  2  0  0  0  0  0  0
  185.1390  176.7750  146.4670 C   0  0  0  0  0  2  0  0  0  0  0  0
  189.6560  177.8600  144.5560 C   0  0  0  0  0  2  0  0  0  0  0  0
  190.1740  177.1240  145.7770 C   0  0  0  0  0  2  0  0  0  0  0  0
  191.9240  176.2980  146.8330 C   0  0  0  0  0  1  0  0  0  0  0  0
  191.5380  176.8760  145.6250 O   0  0  0  0  0  0  0  0  0  0  0  0
  1  2  2  0  0  0  0
  2  3  1  0  0  0  0
  4 10  1  0  0  0  0
  5  3  1  6  0  0  0
  5  9  1  0  0  0  0
  6  4  2  0  0  0  0
  7  6  1  0  0  0  0
  8  7  1  0  0  0  0
  8  5  1  0  0  0  0
  9  4  1  0  0  0  0
 10 11  1  0  0  0  0
 11 13  1  0  0  0  0
 13 12  1  6  0  0  0
 15 14  1  6  0  0  0
 15 13  1  0  0  0  0
 16 15  1  0  0  0  0
 17 16  1  0  0  0  0
 18 20  1  0  0  0  0
 18 26  1  1  0  0  0
 19 18  1  0  0  0  0
 20 29  1  6  0  0  0
 21 19  1  0  0  0  0
 21 22  1  0  0  0  0
 22  2  1  1  0  0  0
 22 20  1  0  0  0  0
 23 28  1  0  0  0  0
 24 26  1  0  0  0  0
 24 27  1  0  0  0  0
 26 23  2  0  0  0  0
 27 25  1  0  0  0  0
 28 25  1  0  0  0  0
 29 30  1  0  0  0  0
 32 30  1  0  0  0  0
 32 31  1  0  0  0  0
M  END
>  <MODEL>
6

>  <REMARK>
 VINA RESULT:      -6.5      2.727      9.019
  Name = 
  11 active torsions:
  status: ('A' for Active; 'I' for Inactive)
    1  A    between atoms: C_2  and  C_27
    2  A    between atoms: C_5  and  C_8
    3  A    between atoms: C_5  and  C_25
    4  A    between atoms: C_7  and  O_15
    5  A    between atoms: C_7  and  C_18
    6  A    between atoms: C_9  and  N_22
    7  A    between atoms: C_10  and  C_17
    8  A    between atoms: C_16  and  C_31
    9  A    between atoms: C_18  and  C_21
   10  A    between atoms: C_23  and  C_25
   11  A    between atoms: C_23  and  C_27
                            x       y       z     vdW  Elec       q    Type
                         _______ _______ _______ _____ _____    ______ ____

>  <TORSDO>
F 11

$$$$
=
 OpenBabel11062420353D

 32 34  0  0  1  0  0  0  0  0999 V2000
  187.1600  174.9150  142.3820 O   0  0  0  0  0  0  0  0  0  0  0  0
  188.3790  175.2340  142.3820 C   0  0  0  0  0  0  0  0  0  0  0  0
  189.3680  174.2060  142.2740 N   0  0  0  0  0  2  0  0  0  0  0  0
  192.9050  173.6100  143.4940 C   0  0  0  0  0  0  0  0  0  0  0  0
  190.7970  174.4610  142.3690 C   0  0  2  0  0  3  0  0  0  0  0  0
  193.6010  173.9120  142.3850 C   0  0  0  0  0  3  0  0  0  0  0  0
  192.9490  174.4610  141.1430 C   0  0  0  0  0  2  0  0  0  0  0  0
  191.4760  174.0770  141.0630 C   0  0  0  0  0  2  0  0  0  0  0  0
  191.3950  173.6400  143.5140 C   0  0  0  0  0  2  0  0  0  0  0  0
  193.6390  173.0750  144.6830 C   0  0  0  0  0  2  0  0  0  0  0  0
  195.1490  173.2350  144.5410 C   0  0  0  0  0  2  0  0  0  0  0  0
  196.9200  173.6040  146.2380 C   0  0  0  0  0  1  0  0  0  0  0  0
  195.7080  174.2210  145.5570 C   0  0  1  0  0  3  0  0  0  0  0  0
  194.9000  176.3350  144.6770 O   0  0  0  0  0  1  0  0  0  0  0  0
  196.0430  175.5580  144.8870 C   0  0  2  0  0  3  0  0  0  0  0  0
  196.8320  175.3850  143.5950 C   0  0  0  0  0  2  0  0  0  0  0  0
  197.1910  176.6230  143.0580 O   0  0  0  0  0  1  0  0  0  0  0  0
  187.5190  178.2070  143.8230 C   0  0  2  0  0  3  0  0  0  0  0  0
  186.9690  178.1140  142.4790 N   0  0  0  0  0  2  0  0  0  0  0  0
  188.5660  177.1310  143.9520 C   0  0  1  0  0  3  0  0  0  0  0  0
  187.9620  177.5260  141.6710 N   0  0  0  0  0  2  0  0  0  0  0  0
  188.7760  176.6750  142.5320 C   0  0  2  0  0  3  0  0  0  0  0  0
  186.2080  176.8730  145.4590 C   0  0  0  0  0  3  0  0  0  0  0  0
  185.6350  179.2460  145.2700 C   0  0  0  0  0  2  0  0  0  0  0  0
  185.2530  177.9800  147.4830 C   0  0  0  0  0  2  0  0  0  0  0  0
  186.4390  178.0480  144.8530 C   0  0  0  0  0  0  0  0  0  0  0  0
  185.5680  179.3290  146.8000 C   0  0  0  0  0  2  0  0  0  0  0  0
  185.1420  176.7940  146.5130 C   0  0  0  0  0  2  0  0  0  0  0  0
  189.8550  177.7210  144.4960 C   0  0  0  0  0  2  0  0  0  0  0  0
  190.2630  176.9950  145.7630 C   0  0  0  0  0  2  0  0  0  0  0  0
  192.1050  176.4170  146.8270 C   0  0  0  0  0  1  0  0  0  0  0  0
  191.5010  176.3850  145.5710 O   0  0  0  0  0  0  0  0  0  0  0  0
  2  1  2  0  0  0  0
  3  2  1  0  0  0  0
  4  9  1  0  0  0  0
  4 10  1  0  0  0  0
  5  3  1  6  0  0  0
  5  9  1  0  0  0  0
  6  4  2  0  0  0  0
  7  6  1  0  0  0  0
  8  7  1  0  0  0  0
  8  5  1  0  0  0  0
 11 10  1  0  0  0  0
 11 13  1  0  0  0  0
 13 12  1  6  0  0  0
 15 14  1  6  0  0  0
 15 13  1  0  0  0  0
 16 15  1  0  0  0  0
 17 16  1  0  0  0  0
 18 20  1  0  0  0  0
 18 26  1  1  0  0  0
 19 18  1  0  0  0  0
 20 29  1  6  0  0  0
 21 19  1  0  0  0  0
 21 22  1  0  0  0  0
 22  2  1  1  0  0  0
 22 20  1  0  0  0  0
 23 28  1  0  0  0  0
 24 27  1  0  0  0  0
 26 24  1  0  0  0  0
 26 23  2  0  0  0  0
 27 25  1  0  0  0  0
 28 25  1  0  0  0  0
 29 30  1  0  0  0  0
 32 30  1  0  0  0  0
 32 31  1  0  0  0  0
M  END
>  <MODEL>
7

>  <REMARK>
 VINA RESULT:      -6.5      2.763      8.627
  Name = 
  11 active torsions:
  status: ('A' for Active; 'I' for Inactive)
    1  A    between atoms: C_2  and  C_27
    2  A    between atoms: C_5  and  C_8
    3  A    between atoms: C_5  and  C_25
    4  A    between atoms: C_7  and  O_15
    5  A    between atoms: C_7  and  C_18
    6  A    between atoms: C_9  and  N_22
    7  A    between atoms: C_10  and  C_17
    8  A    between atoms: C_16  and  C_31
    9  A    between atoms: C_18  and  C_21
   10  A    between atoms: C_23  and  C_25
   11  A    between atoms: C_23  and  C_27
                            x       y       z     vdW  Elec       q    Type
                         _______ _______ _______ _____ _____    ______ ____

>  <TORSDO>
F 11

$$$$
=
 OpenBabel11062420353D

 32 34  0  0  1  0  0  0  0  0999 V2000
  190.2890  171.8950  144.4560 O   0  0  0  0  0  0  0  0  0  0  0  0
  190.4610  173.1170  144.7120 C   0  0  0  0  0  0  0  0  0  0  0  0
  189.6880  173.7280  145.7490 N   0  0  0  0  0  2  0  0  0  0  0  0
  188.2890  177.0750  146.8420 C   0  0  0  0  0  0  0  0  0  0  0  0
  189.7380  175.1500  146.0500 C   0  0  2  0  0  3  0  0  0  0  0  0
  189.3430  177.5760  147.5060 C   0  0  0  0  0  3  0  0  0  0  0  0
  190.6780  176.8790  147.5540 C   0  0  0  0  0  2  0  0  0  0  0  0
  190.5380  175.3780  147.3230 C   0  0  0  0  0  2  0  0  0  0  0  0
  188.3190  175.6910  146.2360 C   0  0  0  0  0  2  0  0  0  0  0  0
  187.0030  177.8410  146.8440 C   0  0  0  0  0  2  0  0  0  0  0  0
  185.8850  177.0810  146.1390 C   0  0  0  0  0  2  0  0  0  0  0  0
  185.5780  179.4180  145.3670 C   0  0  0  0  0  1  0  0  0  0  0  0
  185.0880  177.9870  145.2120 C   0  0  1  0  0  3  0  0  0  0  0  0
  186.3260  176.7200  143.5500 O   0  0  0  0  0  1  0  0  0  0  0  0
  185.1850  177.4990  143.7620 C   0  0  2  0  0  3  0  0  0  0  0  0
  185.1080  178.6410  142.7540 C   0  0  0  0  0  2  0  0  0  0  0  0
  186.3540  178.8780  142.1710 O   0  0  0  0  0  1  0  0  0  0  0  0
  191.4430  173.9130  141.5410 C   0  0  2  0  0  3  0  0  0  0  0  0
  192.2140  172.7870  142.0460 N   0  0  0  0  0  2  0  0  0  0  0  0
  190.7560  174.5490  142.7220 C   0  0  1  0  0  3  0  0  0  0  0  0
  192.5100  173.0660  143.3940 N   0  0  0  0  0  2  0  0  0  0  0  0
  191.4420  173.9200  143.9060 C   0  0  2  0  0  3  0  0  0  0  0  0
  189.1340  173.4370  140.7580 C   0  0  0  0  0  3  0  0  0  0  0  0
  190.9350  173.0860  139.1360 C   0  0  0  0  0  2  0  0  0  0  0  0
  188.5610  173.7030  138.3420 C   0  0  0  0  0  2  0  0  0  0  0  0
  190.4520  173.4600  140.5080 C   0  0  0  0  0  0  0  0  0  0  0  0
  190.0790  173.7800  138.0690 C   0  0  0  0  0  2  0  0  0  0  0  0
  188.1930  173.0160  139.6660 C   0  0  0  0  0  2  0  0  0  0  0  0
  191.0040  176.0470  142.7230 C   0  0  0  0  0  2  0  0  0  0  0  0
  189.6830  176.7910  142.7330 C   0  0  0  0  0  2  0  0  0  0  0  0
  191.0830  178.0580  143.8690 C   0  0  0  0  0  1  0  0  0  0  0  0
  189.7240  177.7990  143.6950 O   0  0  0  0  0  0  0  0  0  0  0  0
  1  2  2  0  0  0  0
  2  3  1  0  0  0  0
  4 10  1  0  0  0  0
  4  6  2  0  0  0  0
  5  3  1  1  0  0  0
  5  9  1  0  0  0  0
  5  8  1  0  0  0  0
  6  7  1  0  0  0  0
  8  7  1  0  0  0  0
  9  4  1  0  0  0  0
 11 10  1  0  0  0  0
 13 12  1  6  0  0  0
 13 11  1  0  0  0  0
 15 14  1  1  0  0  0
 15 13  1  0  0  0  0
 16 15  1  0  0  0  0
 17 16  1  0  0  0  0
 18 26  1  6  0  0  0
 18 19  1  0  0  0  0
 18 20  1  0  0  0  0
 19 21  1  0  0  0  0
 20 29  1  6  0  0  0
 20 22  1  0  0  0  0
 21 22  1  0  0  0  0
 22  2  1  6  0  0  0
 24 26  1  0  0  0  0
 25 28  1  0  0  0  0
 26 23  2  0  0  0  0
 27 25  1  0  0  0  0
 27 24  1  0  0  0  0
 28 23  1  0  0  0  0
 29 30  1  0  0  0  0
 30 32  1  0  0  0  0
 32 31  1  0  0  0  0
M  END
>  <MODEL>
8

>  <REMARK>
 VINA RESULT:      -6.3      3.061      4.985
  Name = 
  11 active torsions:
  status: ('A' for Active; 'I' for Inactive)
    1  A    between atoms: C_2  and  C_27
    2  A    between atoms: C_5  and  C_8
    3  A    between atoms: C_5  and  C_25
    4  A    between atoms: C_7  and  O_15
    5  A    between atoms: C_7  and  C_18
    6  A    between atoms: C_9  and  N_22
    7  A    between atoms: C_10  and  C_17
    8  A    between atoms: C_16  and  C_31
    9  A    between atoms: C_18  and  C_21
   10  A    between atoms: C_23  and  C_25
   11  A    between atoms: C_23  and  C_27
                            x       y       z     vdW  Elec       q    Type
                         _______ _______ _______ _____ _____    ______ ____

>  <TORSDO>
F 11

$$$$
=
 OpenBabel11062420353D

 32 34  0  0  1  0  0  0  0  0999 V2000
  194.4180  175.3770  146.5020 O   0  0  0  0  0  0  0  0  0  0  0  0
  193.3550  175.4340  145.8270 C   0  0  0  0  0  0  0  0  0  0  0  0
  192.3090  176.3140  146.2480 N   0  0  0  0  0  2  0  0  0  0  0  0
  188.5730  176.9140  146.0590 C   0  0  0  0  0  0  0  0  0  0  0  0
  191.0080  176.3760  145.5990 C   0  0  2  0  0  3  0  0  0  0  0  0
  188.4700  177.4330  144.8250 C   0  0  0  0  0  3  0  0  0  0  0  0
  189.6430  177.5280  143.8840 C   0  0  0  0  0  2  0  0  0  0  0  0
  190.9680  177.5530  144.6370 C   0  0  0  0  0  2  0  0  0  0  0  0
  189.9110  176.5410  146.6530 C   0  0  0  0  0  2  0  0  0  0  0  0
  187.3510  176.8550  146.9220 C   0  0  0  0  0  2  0  0  0  0  0  0
  186.0730  176.7730  146.0950 C   0  0  0  0  0  2  0  0  0  0  0  0
  185.7010  178.7420  147.5570 C   0  0  0  0  0  1  0  0  0  0  0  0
  185.0840  177.8630  146.4800 C   0  0  1  0  0  3  0  0  0  0  0  0
  183.3260  179.0770  145.3250 O   0  0  0  0  0  1  0  0  0  0  0  0
  184.6620  178.6730  145.2490 C   0  0  2  0  0  3  0  0  0  0  0  0
  184.9390  177.9380  143.9420 C   0  0  0  0  0  2  0  0  0  0  0  0
  185.2830  178.8340  142.9280 O   0  0  0  0  0  1  0  0  0  0  0  0
  194.3740  172.5270  144.3550 C   0  0  2  0  0  3  0  0  0  0  0  0
  195.1780  173.6460  143.8860 N   0  0  0  0  0  2  0  0  0  0  0  0
  193.1570  173.1050  145.0290 C   0  0  1  0  0  3  0  0  0  0  0  0
  194.3000  174.7290  143.6950 N   0  0  0  0  0  2  0  0  0  0  0  0
  193.1850  174.5550  144.6210 C   0  0  2  0  0  3  0  0  0  0  0  0
  194.6540  170.5260  145.8010 C   0  0  0  0  0  3  0  0  0  0  0  0
  196.5800  172.0280  145.6240 C   0  0  0  0  0  2  0  0  0  0  0  0
  196.9180  169.5180  146.1020 C   0  0  0  0  0  2  0  0  0  0  0  0
  195.1620  171.6600  145.2930 C   0  0  0  0  0  0  0  0  0  0  0  0
  197.4920  170.8050  145.4700 C   0  0  0  0  0  2  0  0  0  0  0  0
  195.5120  169.6820  146.6980 C   0  0  0  0  0  2  0  0  0  0  0  0
  191.9000  172.4460  144.4880 C   0  0  0  0  0  2  0  0  0  0  0  0
  191.1030  173.4440  143.6700 C   0  0  0  0  0  2  0  0  0  0  0  0
  189.1630  172.6780  142.9560 C   0  0  0  0  0  1  0  0  0  0  0  0
  190.5050  172.7890  142.5950 O   0  0  0  0  0  0  0  0  0  0  0  0
  2  3  1  0  0  0  0
  2  1  2  0  0  0  0
  4  9  1  0  0  0  0
  4 10  1  0  0  0  0
  5  3  1  1  0  0  0
  5  9  1  0  0  0  0
  6  4  2  0  0  0  0
  7  8  1  0  0  0  0
  7  6  1  0  0  0  0
  8  5  1  0  0  0  0
 11 13  1  0  0  0  0
 11 10  1  0  0  0  0
 13 12  1  1  0  0  0
 15 14  1  1  0  0  0
 15 13  1  0  0  0  0
 16 15  1  0  0  0  0
 17 16  1  0  0  0  0
 18 20  1  0  0  0  0
 18 26  1  1  0  0  0
 19 18  1  0  0  0  0
 20 29  1  6  0  0  0
 21 19  1  0  0  0  0
 21 22  1  0  0  0  0
 22 20  1  0  0  0  0
 22  2  1  1  0  0  0
 23 28  1  0  0  0  0
 25 28  1  0  0  0  0
 26 24  1  0  0  0  0
 26 23  2  0  0  0  0
 27 24  1  0  0  0  0
 27 25  1  0  0  0  0
 30 29  1  0  0  0  0
 32 31  1  0  0  0  0
 32 30  1  0  0  0  0
M  END
>  <MODEL>
9

>  <REMARK>
 VINA RESULT:      -6.3      2.831      4.538
  Name = 
  11 active torsions:
  status: ('A' for Active; 'I' for Inactive)
    1  A    between atoms: C_2  and  C_27
    2  A    between atoms: C_5  and  C_8
    3  A    between atoms: C_5  and  C_25
    4  A    between atoms: C_7  and  O_15
    5  A    between atoms: C_7  and  C_18
    6  A    between atoms: C_9  and  N_22
    7  A    between atoms: C_10  and  C_17
    8  A    between atoms: C_16  and  C_31
    9  A    between atoms: C_18  and  C_21
   10  A    between atoms: C_23  and  C_25
   11  A    between atoms: C_23  and  C_27
                            x       y       z     vdW  Elec       q    Type
                         _______ _______ _______ _____ _____    ______ ____

>  <TORSDO>
F 11

$$$$
