=
 OpenBabel11062422393D

 44 49  0  0  1  0  0  0  0  0999 V2000
  189.7650  173.6150  145.6170 C   0  0  0  0  0  2  0  0  0  0  0  0
  189.3720  173.6930  144.1500 C   0  0  0  0  0  2  0  0  0  0  0  0
  190.3480  172.8860  143.3210 C   0  0  0  0  0  2  0  0  0  0  0  0
  191.6460  173.6650  143.1420 C   0  0  1  0  0  3  0  0  0  0  0  0
  192.8140  172.7350  142.9260 C   0  0  2  0  0  3  0  0  0  0  0  0
  196.0710  172.5940  142.4830 O   0  0  0  0  0  0  0  0  0  0  0  0
  191.6490  174.6230  141.9470 C   0  0  1  0  0  3  0  0  0  0  0  0
  193.3950  173.2250  140.2040 S   0  0  0  0  0  0  0  0  0  0  0  0
  195.2390  173.7390  142.3220 C   0  0  1  0  0  3  0  0  0  0  0  0
  193.4530  172.3620  144.2390 C   0  0  0  0  0  3  0  0  0  0  0  0
  193.0710  174.6280  141.3820 C   0  0  2  0  0  3  0  0  0  0  0  0
  194.6490  171.7620  144.2910 C   0  0  0  0  0  0  0  0  0  0  0  0
  190.7250  174.2530  140.9630 O   0  0  0  0  0  1  0  0  0  0  0  0
  193.7560  173.4800  141.9790 C   0  0  2  0  0  0  0  0  0  0  0  0
  195.4010  171.4660  143.0190 C   0  0  0  0  0  2  0  0  0  0  0  0
  194.4490  170.3600  146.1850 O   0  0  0  0  0  1  0  0  0  0  0  0
  195.2320  171.3580  145.6030 C   0  0  0  0  0  2  0  0  0  0  0  0
  195.3560  174.5850  143.4330 O   0  0  0  0  0  0  0  0  0  0  0  0
  196.3600  177.1540  143.7570 O   0  0  0  0  0  1  0  0  0  0  0  0
  196.6500  175.6270  143.0870 P   0  0  0  0  0  0  0  0  0  0  0  0
  197.9360  175.0640  143.6510 O   0  0  0  0  0  1  0  0  0  0  0  0
  196.8000  175.7790  141.4100 O   0  0  0  0  0  0  0  0  0  0  0  0
  189.5510  174.9410  146.3580 C   0  0  1  0  0  3  0  0  0  0  0  0
  190.4330  175.0880  147.6030 C   0  0  0  0  0  2  0  0  0  0  0  0
  191.6980  175.8570  147.3650 C   0  0  0  0  0  0  0  0  0  0  0  0
  191.8380  176.9650  147.8650 O   0  0  0  0  0  0  0  0  0  0  0  0
  193.1570  176.1060  145.3340 C   0  0  0  0  0  2  0  0  0  0  0  0
  192.7730  175.2330  146.5170 C   0  0  0  0  0  3  0  0  0  0  0  0
  194.0280  176.0830  146.5710 C   0  0  0  0  0  2  0  0  0  0  0  0
  189.5870  176.1770  145.4540 C   0  0  0  0  0  2  0  0  0  0  0  0
  187.8810  177.3770  146.7150 C   0  0  0  0  0  3  0  0  0  0  0  0
  185.7790  177.5930  147.8970 O   0  0  0  0  0  0  0  0  0  0  0  0
  186.5020  178.6920  148.1890 O   0  0  0  0  0  0  0  0  0  0  0  0
  186.6030  178.1330  146.9400 C   0  0  0  0  0  0  0  0  0  0  0  0
  186.1010  176.8430  144.3330 C   0  0  0  0  0  2  0  0  0  0  0  0
  185.2190  178.0040  144.8210 C   0  0  1  0  0  3  0  0  0  0  0  0
  188.3030  176.9390  145.5160 C   0  0  0  0  0  0  0  0  0  0  0  0
  187.5730  177.2260  144.2290 C   0  0  0  0  0  2  0  0  0  0  0  0
  185.8930  178.9200  145.8480 C   0  0  0  0  0  2  0  0  0  0  0  0
  184.7400  178.8460  143.6470 C   0  0  0  0  0  2  0  0  0  0  0  0
  184.1020  177.9820  142.5680 C   0  0  0  0  0  2  0  0  0  0  0  0
  186.0090  178.2560  140.9820 O   0  0  0  0  0  1  0  0  0  0  0  0
  184.6420  178.3160  141.2200 C   0  0  0  0  0  0  0  0  0  0  0  0
  183.8570  178.6440  140.2930 O   0  0  0  0  0  0  0  0  0  0  0  0
  1 23  1  0  0  0  0
  2  1  1  0  0  0  0
  3  2  1  0  0  0  0
  4  3  1  6  0  0  0
  5  4  1  0  0  0  0
  5 10  1  1  0  0  0
  6 15  1  0  0  0  0
  7 13  1  6  0  0  0
  7  4  1  0  0  0  0
  9  6  1  0  0  0  0
  9 18  1  1  0  0  0
 10 12  2  0  0  0  0
 11  8  1  6  0  0  0
 11  7  1  0  0  0  0
 11 14  1  0  0  0  0
 12 17  1  0  0  0  0
 14  8  1  6  0  0  0
 14  9  1  0  0  0  0
 14  5  1  0  0  0  0
 15 12  1  0  0  0  0
 17 16  1  0  0  0  0
 20 18  1  0  0  0  0
 20 21  1  0  0  0  0
 20 19  1  0  0  0  0
 22 20  2  0  0  0  0
 23 30  1  6  0  0  0
 23 24  1  0  0  0  0
 25 24  1  0  0  0  0
 25 26  2  0  0  0  0
 27 28  1  0  0  0  0
 27 29  1  0  0  0  0
 28 29  1  0  0  0  0
 28 25  1  0  0  0  0
 30 37  1  0  0  0  0
 31 34  1  0  0  0  0
 32 33  1  0  0  0  0
 34 32  1  0  0  0  0
 34 33  1  0  0  0  0
 35 36  1  0  0  0  0
 36 40  1  6  0  0  0
 36 39  1  0  0  0  0
 37 31  2  0  0  0  0
 38 35  1  0  0  0  0
 38 37  1  0  0  0  0
 39 34  1  0  0  0  0
 41 40  1  0  0  0  0
 42 43  1  0  0  0  0
 43 41  1  0  0  0  0
 44 43  2  0  0  0  0
M  END
>  <MODEL>
1

>  <REMARK>
 VINA RESULT:      -7.2      0.000      0.000
  Name = 
  15 active torsions:
  status: ('A' for Active; 'I' for Inactive)
    1  A    between atoms: O_2  and  C_23
    2  A    between atoms: O_2  and  P_30
    3  A    between atoms: C_3  and  C_4
    4  A    between atoms: C_3  and  C_33
    5  A    between atoms: C_4  and  C_21
    6  A    between atoms: C_5  and  C_15
    7  A    between atoms: C_5  and  C_28
    8  A    between atoms: C_9  and  C_35
    9  A    between atoms: C_13  and  C_18
   10  A    between atoms: C_15  and  C_35
   11  A    between atoms: C_18  and  C_38
   12  A    between atoms: C_27  and  C_43
   13  A    between atoms: C_28  and  C_38
   14  A    between atoms: C_28  and  C_42
   15  A    between atoms: C_34  and  C_42
                            x       y       z     vdW  Elec       q    Type
                         _______ _______ _______ _____ _____    ______ ____

>  <TORSDO>
F 15

$$$$
=
 OpenBabel11062422393D

 44 49  0  0  1  0  0  0  0  0999 V2000
  189.6930  175.1340  142.0150 C   0  0  0  0  0  2  0  0  0  0  0  0
  189.0860  173.8370  142.5260 C   0  0  0  0  0  2  0  0  0  0  0  0
  190.1820  172.9430  143.0650 C   0  0  0  0  0  2  0  0  0  0  0  0
  191.5450  173.4760  142.6380 C   0  0  1  0  0  3  0  0  0  0  0  0
  192.5300  173.4270  143.7780 C   0  0  2  0  0  3  0  0  0  0  0  0
  195.6100  174.1540  144.6810 O   0  0  0  0  0  0  0  0  0  0  0  0
  192.1960  172.7000  141.4890 C   0  0  1  0  0  3  0  0  0  0  0  0
  194.2570  171.3650  142.9080 S   0  0  0  0  0  0  0  0  0  0  0  0
  195.1150  174.0520  143.3490 C   0  0  1  0  0  3  0  0  0  0  0  0
  192.5000  174.7090  144.5690 C   0  0  0  0  0  3  0  0  0  0  0  0
  193.7050  172.7080  141.7450 C   0  0  2  0  0  3  0  0  0  0  0  0
  193.4540  175.0050  145.4620 C   0  0  0  0  0  0  0  0  0  0  0  0
  191.7160  171.3890  141.3900 O   0  0  0  0  0  1  0  0  0  0  0  0
  193.8870  173.1430  143.1300 C   0  0  2  0  0  0  0  0  0  0  0  0
  194.6060  174.0580  145.6770 C   0  0  0  0  0  2  0  0  0  0  0  0
  194.6340  176.6110  146.7360 O   0  0  0  0  0  1  0  0  0  0  0  0
  193.3680  176.2570  146.2670 C   0  0  0  0  0  2  0  0  0  0  0  0
  194.8970  175.3280  142.8130 O   0  0  0  0  0  0  0  0  0  0  0  0
  197.3940  174.4500  141.9740 O   0  0  0  0  0  1  0  0  0  0  0  0
  196.3660  175.7890  142.1010 P   0  0  0  0  0  0  0  0  0  0  0  0
  196.1190  176.3680  140.7260 O   0  0  0  0  0  0  0  0  0  0  0  0
  197.1040  176.9600  143.0720 O   0  0  0  0  0  1  0  0  0  0  0  0
  189.1620  176.3680  142.7560 C   0  0  1  0  0  3  0  0  0  0  0  0
  190.1380  176.9100  143.8060 C   0  0  0  0  0  2  0  0  0  0  0  0
  189.6400  176.7970  145.2160 C   0  0  0  0  0  0  0  0  0  0  0  0
  189.9870  177.6210  146.0500 O   0  0  0  0  0  0  0  0  0  0  0  0
  189.4030  174.5720  146.3600 C   0  0  0  0  0  2  0  0  0  0  0  0
  188.7110  175.6650  145.5640 C   0  0  0  0  0  3  0  0  0  0  0  0
  188.5350  175.5900  147.0680 C   0  0  0  0  0  2  0  0  0  0  0  0
  188.6090  177.4600  141.8370 C   0  0  0  0  0  2  0  0  0  0  0  0
  186.2890  177.7610  141.1520 C   0  0  0  0  0  3  0  0  0  0  0  0
  184.3600  179.0510  140.4630 O   0  0  0  0  0  0  0  0  0  0  0  0
  184.0700  177.7590  140.2150 O   0  0  0  0  0  0  0  0  0  0  0  0
  184.8300  178.0800  141.3120 C   0  0  0  0  0  0  0  0  0  0  0  0
  185.9960  179.3230  143.7220 C   0  0  0  0  0  2  0  0  0  0  0  0
  184.4810  179.0790  143.6150 C   0  0  1  0  0  3  0  0  0  0  0  0
  187.1830  177.7750  142.1560 C   0  0  0  0  0  0  0  0  0  0  0  0
  186.8080  178.0390  143.5920 C   0  0  0  0  0  2  0  0  0  0  0  0
  184.0890  177.9660  142.6360 C   0  0  0  0  0  2  0  0  0  0  0  0
  183.8880  178.7680  144.9800 C   0  0  0  0  0  2  0  0  0  0  0  0
  184.8520  179.1330  146.1000 C   0  0  0  0  0  2  0  0  0  0  0  0
  184.8580  176.6640  146.4680 O   0  0  0  0  0  0  0  0  0  0  0  0
  185.2400  177.9310  146.8920 C   0  0  0  0  0  0  0  0  0  0  0  0
  185.9230  178.0630  147.9400 O   0  0  0  0  0  1  0  0  0  0  0  0
  1  2  1  0  0  0  0
  1 23  1  0  0  0  0
  2  3  1  0  0  0  0
  4  3  1  1  0  0  0
  4  5  1  0  0  0  0
  5 10  1  6  0  0  0
  6 15  1  0  0  0  0
  7 13  1  1  0  0  0
  7 11  1  0  0  0  0
  7  4  1  0  0  0  0
  9 18  1  1  0  0  0
  9  6  1  0  0  0  0
 10 12  2  0  0  0  0
 11  8  1  1  0  0  0
 11 14  1  0  0  0  0
 12 15  1  0  0  0  0
 12 17  1  0  0  0  0
 14  8  1  1  0  0  0
 14  9  1  0  0  0  0
 14  5  1  0  0  0  0
 17 16  1  0  0  0  0
 19 20  1  0  0  0  0
 20 18  1  0  0  0  0
 20 22  1  0  0  0  0
 21 20  2  0  0  0  0
 23 30  1  6  0  0  0
 23 24  1  0  0  0  0
 24 25  1  0  0  0  0
 25 28  1  0  0  0  0
 25 26  2  0  0  0  0
 27 29  1  0  0  0  0
 28 27  1  0  0  0  0
 28 29  1  0  0  0  0
 30 37  1  0  0  0  0
 31 34  1  0  0  0  0
 31 37  2  0  0  0  0
 32 34  1  0  0  0  0
 33 32  1  0  0  0  0
 33 34  1  0  0  0  0
 34 39  1  0  0  0  0
 36 35  1  0  0  0  0
 36 40  1  1  0  0  0
 37 38  1  0  0  0  0
 38 35  1  0  0  0  0
 39 36  1  0  0  0  0
 40 41  1  0  0  0  0
 41 43  1  0  0  0  0
 42 43  2  0  0  0  0
 43 44  1  0  0  0  0
M  END
>  <MODEL>
2

>  <REMARK>
 VINA RESULT:      -7.1      1.671      4.010
  Name = 
  15 active torsions:
  status: ('A' for Active; 'I' for Inactive)
    1  A    between atoms: O_2  and  C_23
    2  A    between atoms: O_2  and  P_30
    3  A    between atoms: C_3  and  C_4
    4  A    between atoms: C_3  and  C_33
    5  A    between atoms: C_4  and  C_21
    6  A    between atoms: C_5  and  C_15
    7  A    between atoms: C_5  and  C_28
    8  A    between atoms: C_9  and  C_35
    9  A    between atoms: C_13  and  C_18
   10  A    between atoms: C_15  and  C_35
   11  A    between atoms: C_18  and  C_38
   12  A    between atoms: C_27  and  C_43
   13  A    between atoms: C_28  and  C_38
   14  A    between atoms: C_28  and  C_42
   15  A    between atoms: C_34  and  C_42
                            x       y       z     vdW  Elec       q    Type
                         _______ _______ _______ _____ _____    ______ ____

>  <TORSDO>
F 15

$$$$
=
 OpenBabel11062422393D

 44 49  0  0  1  0  0  0  0  0999 V2000
  191.7550  176.6840  146.9950 C   0  0  0  0  0  2  0  0  0  0  0  0
  192.6080  175.4260  146.9790 C   0  0  0  0  0  2  0  0  0  0  0  0
  193.8360  175.6590  146.1240 C   0  0  0  0  0  2  0  0  0  0  0  0
  194.2680  174.3510  145.4700 C   0  0  1  0  0  3  0  0  0  0  0  0
  193.4060  174.0300  144.2750 C   0  0  2  0  0  3  0  0  0  0  0  0
  192.8380  171.8160  141.9080 O   0  0  0  0  0  0  0  0  0  0  0  0
  195.7110  174.3470  144.9570 C   0  0  1  0  0  3  0  0  0  0  0  0
  195.2380  174.4490  142.1630 S   0  0  0  0  0  0  0  0  0  0  0  0
  194.0130  171.9270  142.7050 C   0  0  1  0  0  3  0  0  0  0  0  0
  192.2150  173.2010  144.6800 C   0  0  0  0  0  3  0  0  0  0  0  0
  195.7300  173.4980  143.6840 C   0  0  2  0  0  3  0  0  0  0  0  0
  191.4510  172.5810  143.7710 C   0  0  0  0  0  0  0  0  0  0  0  0
  196.1920  175.6370  144.7020 O   0  0  0  0  0  1  0  0  0  0  0  0
  194.3320  173.3220  143.2850 C   0  0  2  0  0  0  0  0  0  0  0  0
  191.7880  172.6820  142.3060 C   0  0  0  0  0  2  0  0  0  0  0  0
  189.5380  172.5320  145.1610 O   0  0  0  0  0  1  0  0  0  0  0  0
  190.2470  171.8110  144.2000 C   0  0  0  0  0  2  0  0  0  0  0  0
  194.0110  170.9540  143.7130 O   0  0  0  0  0  0  0  0  0  0  0  0
  195.7550  168.8940  144.3640 O   0  0  0  0  0  1  0  0  0  0  0  0
  194.9200  169.6560  143.1050 P   0  0  0  0  0  0  0  0  0  0  0  0
  194.0090  168.6570  142.4260 O   0  0  0  0  0  1  0  0  0  0  0  0
  196.0350  170.2450  141.9800 O   0  0  0  0  0  0  0  0  0  0  0  0
  190.5560  176.5990  146.0420 C   0  0  1  0  0  3  0  0  0  0  0  0
  189.2730  177.2000  146.6270 C   0  0  0  0  0  2  0  0  0  0  0  0
  188.1500  176.2160  146.7690 C   0  0  0  0  0  0  0  0  0  0  0  0
  188.3480  175.1450  147.3270 O   0  0  0  0  0  0  0  0  0  0  0  0
  185.8660  177.1220  147.2950 C   0  0  0  0  0  2  0  0  0  0  0  0
  186.7970  176.5820  146.2220 C   0  0  0  0  0  3  0  0  0  0  0  0
  186.5760  178.0760  146.3580 C   0  0  0  0  0  2  0  0  0  0  0  0
  190.8490  177.0890  144.6220 C   0  0  0  0  0  2  0  0  0  0  0  0
  189.5720  175.5770  143.2000 C   0  0  0  0  0  3  0  0  0  0  0  0
  188.9420  174.5600  141.0950 O   0  0  0  0  0  0  0  0  0  0  0  0
  188.4020  173.8010  142.0680 O   0  0  0  0  0  0  0  0  0  0  0  0
  188.4900  175.1590  142.2450 C   0  0  0  0  0  0  0  0  0  0  0  0
  188.4910  178.0930  141.9230 C   0  0  0  0  0  2  0  0  0  0  0  0
  187.3150  177.2440  141.4100 C   0  0  1  0  0  3  0  0  0  0  0  0
  189.7040  176.8170  143.7000 C   0  0  0  0  0  0  0  0  0  0  0  0
  188.7260  177.9290  143.4200 C   0  0  0  0  0  2  0  0  0  0  0  0
  187.1620  175.8900  142.1130 C   0  0  0  0  0  2  0  0  0  0  0  0
  186.0070  178.0110  141.5260 C   0  0  0  0  0  2  0  0  0  0  0  0
  185.1310  177.4500  142.6380 C   0  0  0  0  0  2  0  0  0  0  0  0
  184.1010  179.2610  144.0120 O   0  0  0  0  0  1  0  0  0  0  0  0
  184.0020  178.3710  142.9510 C   0  0  0  0  0  0  0  0  0  0  0  0
  182.9600  178.3490  142.2460 O   0  0  0  0  0  0  0  0  0  0  0  0
  2  1  1  0  0  0  0
  3  2  1  0  0  0  0
  4  3  1  6  0  0  0
  5 10  1  1  0  0  0
  5  4  1  0  0  0  0
  6 15  1  0  0  0  0
  6  9  1  0  0  0  0
  7 13  1  6  0  0  0
  7  4  1  0  0  0  0
  9 14  1  0  0  0  0
  9 18  1  1  0  0  0
 11  8  1  6  0  0  0
 11  7  1  0  0  0  0
 12 17  1  0  0  0  0
 12 10  2  0  0  0  0
 14  8  1  6  0  0  0
 14 11  1  0  0  0  0
 14  5  1  0  0  0  0
 15 12  1  0  0  0  0
 17 16  1  0  0  0  0
 20 18  1  0  0  0  0
 20 19  1  0  0  0  0
 21 20  1  0  0  0  0
 22 20  2  0  0  0  0
 23 30  1  6  0  0  0
 23 24  1  0  0  0  0
 23  1  1  0  0  0  0
 24 25  1  0  0  0  0
 25 26  2  0  0  0  0
 28 29  1  0  0  0  0
 28 25  1  0  0  0  0
 28 27  1  0  0  0  0
 29 27  1  0  0  0  0
 31 37  2  0  0  0  0
 32 33  1  0  0  0  0
 32 34  1  0  0  0  0
 33 34  1  0  0  0  0
 34 31  1  0  0  0  0
 35 38  1  0  0  0  0
 36 40  1  1  0  0  0
 36 35  1  0  0  0  0
 36 39  1  0  0  0  0
 37 30  1  0  0  0  0
 38 37  1  0  0  0  0
 39 34  1  0  0  0  0
 40 41  1  0  0  0  0
 41 43  1  0  0  0  0
 43 42  1  0  0  0  0
 44 43  2  0  0  0  0
M  END
>  <MODEL>
3

>  <REMARK>
 VINA RESULT:      -6.8      2.364      4.682
  Name = 
  15 active torsions:
  status: ('A' for Active; 'I' for Inactive)
    1  A    between atoms: O_2  and  C_23
    2  A    between atoms: O_2  and  P_30
    3  A    between atoms: C_3  and  C_4
    4  A    between atoms: C_3  and  C_33
    5  A    between atoms: C_4  and  C_21
    6  A    between atoms: C_5  and  C_15
    7  A    between atoms: C_5  and  C_28
    8  A    between atoms: C_9  and  C_35
    9  A    between atoms: C_13  and  C_18
   10  A    between atoms: C_15  and  C_35
   11  A    between atoms: C_18  and  C_38
   12  A    between atoms: C_27  and  C_43
   13  A    between atoms: C_28  and  C_38
   14  A    between atoms: C_28  and  C_42
   15  A    between atoms: C_34  and  C_42
                            x       y       z     vdW  Elec       q    Type
                         _______ _______ _______ _____ _____    ______ ____

>  <TORSDO>
F 15

$$$$
=
 OpenBabel11062422393D

 44 49  0  0  1  0  0  0  0  0999 V2000
  189.5860  174.3150  146.0560 C   0  0  0  0  0  2  0  0  0  0  0  0
  190.2870  173.9040  144.7720 C   0  0  0  0  0  2  0  0  0  0  0  0
  189.4250  174.2710  143.5830 C   0  0  0  0  0  2  0  0  0  0  0  0
  190.0720  173.7670  142.2980 C   0  0  1  0  0  3  0  0  0  0  0  0
  191.5600  173.5920  142.4690 C   0  0  2  0  0  3  0  0  0  0  0  0
  194.3470  172.7590  140.9310 O   0  0  0  0  0  0  0  0  0  0  0  0
  189.5450  172.4130  141.8140 C   0  0  1  0  0  3  0  0  0  0  0  0
  191.7780  170.7740  142.4210 S   0  0  0  0  0  0  0  0  0  0  0  0
  193.0190  172.4810  140.4960 C   0  0  1  0  0  3  0  0  0  0  0  0
  192.2940  174.8570  142.1060 C   0  0  0  0  0  3  0  0  0  0  0  0
  190.7260  171.6760  141.1790 C   0  0  2  0  0  3  0  0  0  0  0  0
  193.6220  174.8700  141.9310 C   0  0  0  0  0  0  0  0  0  0  0  0
  188.9850  171.6560  142.8500 O   0  0  0  0  0  1  0  0  0  0  0  0
  191.9320  172.3970  141.5900 C   0  0  2  0  0  0  0  0  0  0  0  0
  194.4150  173.5980  142.0720 C   0  0  0  0  0  2  0  0  0  0  0  0
  195.3890  176.3330  142.5090 O   0  0  0  0  0  1  0  0  0  0  0  0
  194.3260  176.1490  141.6230 C   0  0  0  0  0  2  0  0  0  0  0  0
  192.6420  173.3710  139.4820 O   0  0  0  0  0  0  0  0  0  0  0  0
  192.8730  170.8790  138.2790 O   0  0  0  0  0  1  0  0  0  0  0  0
  192.9160  172.5510  138.0220 P   0  0  0  0  0  0  0  0  0  0  0  0
  191.8620  172.9320  137.0060 O   0  0  0  0  0  0  0  0  0  0  0  0
  194.4390  172.9790  137.4280 O   0  0  0  0  0  1  0  0  0  0  0  0
  190.2880  175.4790  146.7670 C   0  0  1  0  0  3  0  0  0  0  0  0
  191.6920  175.1240  147.2680 C   0  0  0  0  0  2  0  0  0  0  0  0
  192.7690  176.0300  146.7510 C   0  0  0  0  0  0  0  0  0  0  0  0
  192.9990  177.0880  147.3210 O   0  0  0  0  0  0  0  0  0  0  0  0
  194.9560  175.1450  145.8840 C   0  0  0  0  0  2  0  0  0  0  0  0
  193.5490  175.6030  145.5370 C   0  0  0  0  0  3  0  0  0  0  0  0
  193.8690  174.1230  145.6270 C   0  0  0  0  0  2  0  0  0  0  0  0
  190.2470  176.8010  145.9960 C   0  0  0  0  0  2  0  0  0  0  0  0
  188.0640  177.4030  146.8990 C   0  0  0  0  0  3  0  0  0  0  0  0
  185.7510  176.9970  147.4870 O   0  0  0  0  0  0  0  0  0  0  0  0
  186.1150  178.1360  148.1080 O   0  0  0  0  0  0  0  0  0  0  0  0
  186.6310  177.8520  146.8690 C   0  0  0  0  0  0  0  0  0  0  0  0
  187.0650  177.0060  144.0750 C   0  0  0  0  0  2  0  0  0  0  0  0
  185.8520  177.8700  144.4580 C   0  0  1  0  0  3  0  0  0  0  0  0
  188.8450  177.2850  145.8110 C   0  0  0  0  0  0  0  0  0  0  0  0
  188.3930  177.6690  144.4250 C   0  0  0  0  0  2  0  0  0  0  0  0
  186.0380  178.6850  145.7420 C   0  0  0  0  0  2  0  0  0  0  0  0
  185.4840  178.8140  143.3230 C   0  0  0  0  0  2  0  0  0  0  0  0
  184.3490  178.2500  142.4780 C   0  0  0  0  0  2  0  0  0  0  0  0
  186.0530  178.1940  140.6550 O   0  0  0  0  0  1  0  0  0  0  0  0
  184.7170  178.2170  141.0340 C   0  0  0  0  0  0  0  0  0  0  0  0
  183.8150  178.2010  140.1570 O   0  0  0  0  0  0  0  0  0  0  0  0
  1 23  1  0  0  0  0
  2  1  1  0  0  0  0
  3  2  1  0  0  0  0
  4  5  1  0  0  0  0
  4  3  1  1  0  0  0
  5 10  1  6  0  0  0
  6 15  1  0  0  0  0
  7  4  1  0  0  0  0
  7 13  1  1  0  0  0
  9 18  1  6  0  0  0
  9  6  1  0  0  0  0
  9 14  1  0  0  0  0
 11 14  1  0  0  0  0
 11  7  1  0  0  0  0
 11  8  1  1  0  0  0
 12 15  1  0  0  0  0
 12 10  2  0  0  0  0
 14  8  1  1  0  0  0
 14  5  1  0  0  0  0
 17 12  1  0  0  0  0
 17 16  1  0  0  0  0
 20 19  1  0  0  0  0
 20 18  1  0  0  0  0
 21 20  2  0  0  0  0
 22 20  1  0  0  0  0
 23 30  1  6  0  0  0
 23 24  1  0  0  0  0
 25 24  1  0  0  0  0
 25 26  2  0  0  0  0
 28 29  1  0  0  0  0
 28 27  1  0  0  0  0
 28 25  1  0  0  0  0
 29 27  1  0  0  0  0
 32 33  1  0  0  0  0
 34 31  1  0  0  0  0
 34 32  1  0  0  0  0
 34 33  1  0  0  0  0
 35 38  1  0  0  0  0
 35 36  1  0  0  0  0
 36 40  1  6  0  0  0
 36 39  1  0  0  0  0
 37 30  1  0  0  0  0
 37 31  2  0  0  0  0
 38 37  1  0  0  0  0
 39 34  1  0  0  0  0
 41 40  1  0  0  0  0
 42 43  1  0  0  0  0
 43 41  1  0  0  0  0
 44 43  2  0  0  0  0
M  END
>  <MODEL>
4

>  <REMARK>
 VINA RESULT:      -6.8      2.144      3.367
  Name = 
  15 active torsions:
  status: ('A' for Active; 'I' for Inactive)
    1  A    between atoms: O_2  and  C_23
    2  A    between atoms: O_2  and  P_30
    3  A    between atoms: C_3  and  C_4
    4  A    between atoms: C_3  and  C_33
    5  A    between atoms: C_4  and  C_21
    6  A    between atoms: C_5  and  C_15
    7  A    between atoms: C_5  and  C_28
    8  A    between atoms: C_9  and  C_35
    9  A    between atoms: C_13  and  C_18
   10  A    between atoms: C_15  and  C_35
   11  A    between atoms: C_18  and  C_38
   12  A    between atoms: C_27  and  C_43
   13  A    between atoms: C_28  and  C_38
   14  A    between atoms: C_28  and  C_42
   15  A    between atoms: C_34  and  C_42
                            x       y       z     vdW  Elec       q    Type
                         _______ _______ _______ _____ _____    ______ ____

>  <TORSDO>
F 15

$$$$
=
 OpenBabel11062422393D

 44 49  0  0  1  0  0  0  0  0999 V2000
  189.9860  172.9090  144.9320 C   0  0  0  0  0  2  0  0  0  0  0  0
  189.3670  172.3070  143.6820 C   0  0  0  0  0  2  0  0  0  0  0  0
  190.4560  171.7280  142.8050 C   0  0  0  0  0  2  0  0  0  0  0  0
  191.6400  172.6870  142.7470 C   0  0  1  0  0  3  0  0  0  0  0  0
  192.9480  171.9360  142.7320 C   0  0  2  0  0  3  0  0  0  0  0  0
  196.2210  172.2720  142.7100 O   0  0  0  0  0  0  0  0  0  0  0  0
  191.6630  173.5900  141.5100 C   0  0  1  0  0  3  0  0  0  0  0  0
  193.8080  172.4090  140.0810 S   0  0  0  0  0  0  0  0  0  0  0  0
  195.2610  173.2720  142.3820 C   0  0  1  0  0  3  0  0  0  0  0  0
  193.4550  171.7130  144.1330 C   0  0  0  0  0  3  0  0  0  0  0  0
  193.1320  173.7880  141.1290 C   0  0  2  0  0  3  0  0  0  0  0  0
  194.7080  171.3020  144.3680 C   0  0  0  0  0  0  0  0  0  0  0  0
  190.9410  173.0490  140.4400 O   0  0  0  0  0  1  0  0  0  0  0  0
  193.8900  172.7790  141.8710 C   0  0  2  0  0  0  0  0  0  0  0  0
  195.6560  171.0760  143.2200 C   0  0  0  0  0  2  0  0  0  0  0  0
  196.3840  171.6740  145.9950 O   0  0  0  0  0  1  0  0  0  0  0  0
  195.1630  171.0390  145.7640 C   0  0  0  0  0  2  0  0  0  0  0  0
  195.1060  174.1660  143.4500 O   0  0  0  0  0  0  0  0  0  0  0  0
  197.7040  174.7450  144.2410 O   0  0  0  0  0  1  0  0  0  0  0  0
  196.3870  175.2710  143.3180 P   0  0  0  0  0  0  0  0  0  0  0  0
  196.8080  175.4090  141.8710 O   0  0  0  0  0  0  0  0  0  0  0  0
  195.8760  176.7760  143.8920 O   0  0  0  0  0  1  0  0  0  0  0  0
  189.4510  174.3140  145.2400 C   0  0  1  0  0  3  0  0  0  0  0  0
  189.7330  174.7680  146.6770 C   0  0  0  0  0  2  0  0  0  0  0  0
  190.8540  175.7570  146.7930 C   0  0  0  0  0  0  0  0  0  0  0  0
  190.6080  176.9550  146.8030 O   0  0  0  0  0  0  0  0  0  0  0  0
  193.0850  175.5260  145.6580 C   0  0  0  0  0  2  0  0  0  0  0  0
  192.2630  175.2400  146.9040 C   0  0  0  0  0  3  0  0  0  0  0  0
  193.2390  176.4010  146.8840 C   0  0  0  0  0  2  0  0  0  0  0  0
  189.8280  175.3700  144.1970 C   0  0  0  0  0  2  0  0  0  0  0  0
  188.4450  176.1470  142.3460 C   0  0  0  0  0  3  0  0  0  0  0  0
  187.6660  177.7700  140.7280 O   0  0  0  0  0  0  0  0  0  0  0  0
  187.1870  176.5730  140.3370 O   0  0  0  0  0  0  0  0  0  0  0  0
  187.2980  176.8480  141.6760 C   0  0  0  0  0  0  0  0  0  0  0  0
  187.3000  178.0970  144.3510 C   0  0  0  0  0  2  0  0  0  0  0  0
  186.0860  178.2360  143.4170 C   0  0  1  0  0  3  0  0  0  0  0  0
  188.6210  176.0820  143.6780 C   0  0  0  0  0  0  0  0  0  0  0  0
  187.6340  176.6440  144.6690 C   0  0  0  0  0  2  0  0  0  0  0  0
  185.9700  177.1270  142.3650 C   0  0  0  0  0  2  0  0  0  0  0  0
  184.7940  178.2930  144.2190 C   0  0  0  0  0  2  0  0  0  0  0  0
  184.9860  179.0500  145.5260 C   0  0  0  0  0  2  0  0  0  0  0  0
  184.8340  178.6690  147.9880 O   0  0  0  0  0  1  0  0  0  0  0  0
  184.8180  178.1480  146.7010 C   0  0  0  0  0  0  0  0  0  0  0  0
  184.6510  176.9130  146.5250 O   0  0  0  0  0  0  0  0  0  0  0  0
  1 23  1  0  0  0  0
  2  1  1  0  0  0  0
  3  2  1  0  0  0  0
  4  3  1  6  0  0  0
  5  4  1  0  0  0  0
  5 10  1  1  0  0  0
  6 15  1  0  0  0  0
  7 13  1  6  0  0  0
  7  4  1  0  0  0  0
  9  6  1  0  0  0  0
  9 18  1  1  0  0  0
 10 12  2  0  0  0  0
 11  8  1  6  0  0  0
 11  7  1  0  0  0  0
 11 14  1  0  0  0  0
 12 17  1  0  0  0  0
 14  8  1  6  0  0  0
 14  9  1  0  0  0  0
 14  5  1  0  0  0  0
 15 12  1  0  0  0  0
 17 16  1  0  0  0  0
 20 18  1  0  0  0  0
 20 22  1  0  0  0  0
 20 19  1  0  0  0  0
 21 20  2  0  0  0  0
 23 30  1  6  0  0  0
 23 24  1  0  0  0  0
 24 25  1  0  0  0  0
 25 26  2  0  0  0  0
 25 28  1  0  0  0  0
 27 29  1  0  0  0  0
 27 28  1  0  0  0  0
 29 28  1  0  0  0  0
 31 37  2  0  0  0  0
 32 34  1  0  0  0  0
 33 32  1  0  0  0  0
 33 34  1  0  0  0  0
 34 31  1  0  0  0  0
 34 39  1  0  0  0  0
 35 38  1  0  0  0  0
 36 40  1  1  0  0  0
 36 35  1  0  0  0  0
 37 30  1  0  0  0  0
 37 38  1  0  0  0  0
 39 36  1  0  0  0  0
 40 41  1  0  0  0  0
 41 43  1  0  0  0  0
 43 42  1  0  0  0  0
 44 43  2  0  0  0  0
M  END
>  <MODEL>
5

>  <REMARK>
 VINA RESULT:      -6.6      1.297      2.951
  Name = 
  15 active torsions:
  status: ('A' for Active; 'I' for Inactive)
    1  A    between atoms: O_2  and  C_23
    2  A    between atoms: O_2  and  P_30
    3  A    between atoms: C_3  and  C_4
    4  A    between atoms: C_3  and  C_33
    5  A    between atoms: C_4  and  C_21
    6  A    between atoms: C_5  and  C_15
    7  A    between atoms: C_5  and  C_28
    8  A    between atoms: C_9  and  C_35
    9  A    between atoms: C_13  and  C_18
   10  A    between atoms: C_15  and  C_35
   11  A    between atoms: C_18  and  C_38
   12  A    between atoms: C_27  and  C_43
   13  A    between atoms: C_28  and  C_38
   14  A    between atoms: C_28  and  C_42
   15  A    between atoms: C_34  and  C_42
                            x       y       z     vdW  Elec       q    Type
                         _______ _______ _______ _____ _____    ______ ____

>  <TORSDO>
F 15

$$$$
=
 OpenBabel11062422393D

 44 49  0  0  1  0  0  0  0  0999 V2000
  188.3170  175.6590  146.8100 C   0  0  0  0  0  2  0  0  0  0  0  0
  189.8210  175.4440  146.8470 C   0  0  0  0  0  2  0  0  0  0  0  0
  190.1550  174.0950  146.2470 C   0  0  0  0  0  2  0  0  0  0  0  0
  191.1660  174.2650  145.1180 C   0  0  1  0  0  3  0  0  0  0  0  0
  192.5730  174.3470  145.6550 C   0  0  2  0  0  3  0  0  0  0  0  0
  195.7300  174.7560  144.8240 O   0  0  0  0  0  0  0  0  0  0  0  0
  191.1740  173.1220  144.0980 C   0  0  1  0  0  3  0  0  0  0  0  0
  193.6250  171.8720  144.7840 S   0  0  0  0  0  0  0  0  0  0  0  0
  194.6600  174.4000  143.9530 C   0  0  1  0  0  3  0  0  0  0  0  0
  192.9550  175.7760  145.9430 C   0  0  0  0  0  3  0  0  0  0  0  0
  192.6230  172.9430  143.6400 C   0  0  2  0  0  3  0  0  0  0  0  0
  194.2260  176.1270  146.1800 C   0  0  0  0  0  0  0  0  0  0  0  0
  190.6690  171.9290  144.6290 O   0  0  0  0  0  1  0  0  0  0  0  0
  193.4520  173.6830  144.5930 C   0  0  2  0  0  0  0  0  0  0  0  0
  195.3160  175.0890  146.1390 C   0  0  0  0  0  2  0  0  0  0  0  0
  195.1640  178.1590  145.4170 O   0  0  0  0  0  1  0  0  0  0  0  0
  194.5650  177.5410  146.5140 C   0  0  0  0  0  2  0  0  0  0  0  0
  194.2470  175.5130  143.2090 O   0  0  0  0  0  0  0  0  0  0  0  0
  196.2310  174.2210  141.7580 O   0  0  0  0  0  1  0  0  0  0  0  0
  194.9620  175.3380  141.6810 P   0  0  0  0  0  0  0  0  0  0  0  0
  193.9340  174.8660  140.6760 O   0  0  0  0  0  0  0  0  0  0  0  0
  195.5740  176.8350  141.1860 O   0  0  0  0  0  1  0  0  0  0  0  0
  187.9260  177.0000  146.1770 C   0  0  1  0  0  3  0  0  0  0  0  0
  187.5830  178.0800  147.2090 C   0  0  0  0  0  2  0  0  0  0  0  0
  186.1120  178.3180  147.3750 C   0  0  0  0  0  0  0  0  0  0  0  0
  185.5470  177.9410  148.3930 O   0  0  0  0  0  0  0  0  0  0  0  0
  184.7770  178.0660  145.2610 C   0  0  0  0  0  2  0  0  0  0  0  0
  185.3680  179.0290  146.2780 C   0  0  0  0  0  3  0  0  0  0  0  0
  183.8960  178.6650  146.3370 C   0  0  0  0  0  2  0  0  0  0  0  0
  188.8970  177.4910  145.1000 C   0  0  0  0  0  2  0  0  0  0  0  0
  187.4780  177.7030  143.1300 C   0  0  0  0  0  3  0  0  0  0  0  0
  185.5730  177.1650  141.7370 O   0  0  0  0  0  0  0  0  0  0  0  0
  186.0960  178.3090  141.2520 O   0  0  0  0  0  0  0  0  0  0  0  0
  186.9320  177.3550  141.7750 C   0  0  0  0  0  0  0  0  0  0  0  0
  188.2780  174.8460  142.5560 C   0  0  0  0  0  2  0  0  0  0  0  0
  187.8670  175.0990  141.0950 C   0  0  1  0  0  3  0  0  0  0  0  0
  188.4790  177.0420  143.7370 C   0  0  0  0  0  0  0  0  0  0  0  0
  189.2320  175.9090  143.0900 C   0  0  0  0  0  2  0  0  0  0  0  0
  187.7210  176.5800  140.7290 C   0  0  0  0  0  2  0  0  0  0  0  0
  188.8550  174.4480  140.1380 C   0  0  0  0  0  2  0  0  0  0  0  0
  188.1930  173.3470  139.3210 C   0  0  0  0  0  2  0  0  0  0  0  0
  188.6630  173.8280  136.9180 O   0  0  0  0  0  0  0  0  0  0  0  0
  188.9420  173.0880  138.0590 C   0  0  0  0  0  0  0  0  0  0  0  0
  189.8360  172.2030  138.0310 O   0  0  0  0  0  1  0  0  0  0  0  0
  1  2  1  0  0  0  0
  3  2  1  0  0  0  0
  4  5  1  0  0  0  0
  4  3  1  1  0  0  0
  5 10  1  6  0  0  0
  6 15  1  0  0  0  0
  7 13  1  1  0  0  0
  7  4  1  0  0  0  0
  9 18  1  1  0  0  0
  9 14  1  0  0  0  0
  9  6  1  0  0  0  0
 10 12  2  0  0  0  0
 11  7  1  0  0  0  0
 11 14  1  0  0  0  0
 11  8  1  1  0  0  0
 12 17  1  0  0  0  0
 14  8  1  1  0  0  0
 14  5  1  0  0  0  0
 15 12  1  0  0  0  0
 16 17  1  0  0  0  0
 20 19  1  0  0  0  0
 20 18  1  0  0  0  0
 21 20  2  0  0  0  0
 22 20  1  0  0  0  0
 23 30  1  1  0  0  0
 23  1  1  0  0  0  0
 23 24  1  0  0  0  0
 24 25  1  0  0  0  0
 25 26  2  0  0  0  0
 27 28  1  0  0  0  0
 27 29  1  0  0  0  0
 28 29  1  0  0  0  0
 28 25  1  0  0  0  0
 31 37  2  0  0  0  0
 32 34  1  0  0  0  0
 33 32  1  0  0  0  0
 33 34  1  0  0  0  0
 34 31  1  0  0  0  0
 35 38  1  0  0  0  0
 36 40  1  6  0  0  0
 36 35  1  0  0  0  0
 37 30  1  0  0  0  0
 38 37  1  0  0  0  0
 39 36  1  0  0  0  0
 39 34  1  0  0  0  0
 41 40  1  0  0  0  0
 42 43  2  0  0  0  0
 43 41  1  0  0  0  0
 44 43  1  0  0  0  0
M  END
>  <MODEL>
6

>  <REMARK>
 VINA RESULT:      -6.6      2.332      5.174
  Name = 
  15 active torsions:
  status: ('A' for Active; 'I' for Inactive)
    1  A    between atoms: O_2  and  C_23
    2  A    between atoms: O_2  and  P_30
    3  A    between atoms: C_3  and  C_4
    4  A    between atoms: C_3  and  C_33
    5  A    between atoms: C_4  and  C_21
    6  A    between atoms: C_5  and  C_15
    7  A    between atoms: C_5  and  C_28
    8  A    between atoms: C_9  and  C_35
    9  A    between atoms: C_13  and  C_18
   10  A    between atoms: C_15  and  C_35
   11  A    between atoms: C_18  and  C_38
   12  A    between atoms: C_27  and  C_43
   13  A    between atoms: C_28  and  C_38
   14  A    between atoms: C_28  and  C_42
   15  A    between atoms: C_34  and  C_42
                            x       y       z     vdW  Elec       q    Type
                         _______ _______ _______ _____ _____    ______ ____

>  <TORSDO>
F 15

$$$$
=
 OpenBabel11062422393D

 44 49  0  0  1  0  0  0  0  0999 V2000
  193.3460  176.8990  144.9880 C   0  0  0  0  0  2  0  0  0  0  0  0
  193.8370  175.9260  146.0480 C   0  0  0  0  0  2  0  0  0  0  0  0
  195.1590  175.3290  145.6140 C   0  0  0  0  0  2  0  0  0  0  0  0
  194.9860  173.8420  145.3240 C   0  0  1  0  0  3  0  0  0  0  0  0
  195.0110  173.5710  143.8410 C   0  0  2  0  0  3  0  0  0  0  0  0
  194.7360  171.2260  141.5480 O   0  0  0  0  0  0  0  0  0  0  0  0
  196.0710  172.9490  145.9310 C   0  0  1  0  0  3  0  0  0  0  0  0
  197.4920  172.2400  143.5810 S   0  0  0  0  0  0  0  0  0  0  0  0
  194.9850  171.0330  142.9380 C   0  0  1  0  0  3  0  0  0  0  0  0
  193.6240  173.6410  143.2580 C   0  0  0  0  0  3  0  0  0  0  0  0
  196.3070  171.8010  144.9460 C   0  0  2  0  0  3  0  0  0  0  0  0
  193.3570  173.1890  142.0260 C   0  0  0  0  0  0  0  0  0  0  0  0
  197.2610  173.6450  146.1760 O   0  0  0  0  0  1  0  0  0  0  0  0
  195.6660  172.1960  143.6910 C   0  0  2  0  0  0  0  0  0  0  0  0
  194.4510  172.5690  141.1960 C   0  0  0  0  0  2  0  0  0  0  0  0
  191.6070  172.1270  140.8410 O   0  0  0  0  0  1  0  0  0  0  0  0
  191.9840  173.3210  141.4570 C   0  0  0  0  0  2  0  0  0  0  0  0
  193.8130  170.6300  143.5910 O   0  0  0  0  0  0  0  0  0  0  0  0
  193.5310  168.1680  142.3380 O   0  0  0  0  0  0  0  0  0  0  0  0
  193.9440  168.9490  143.7820 P   0  0  0  0  0  0  0  0  0  0  0  0
  195.3580  168.5780  144.1700 O   0  0  0  0  0  1  0  0  0  0  0  0
  192.8850  168.4500  145.0010 O   0  0  0  0  0  1  0  0  0  0  0  0
  191.8680  176.6920  144.6350 C   0  0  1  0  0  3  0  0  0  0  0  0
  190.9090  177.3920  145.6050 C   0  0  0  0  0  2  0  0  0  0  0  0
  190.3320  176.4840  146.6500 C   0  0  0  0  0  0  0  0  0  0  0  0
  190.7820  176.5040  147.7870 O   0  0  0  0  0  0  0  0  0  0  0  0
  189.6480  174.1300  146.0940 C   0  0  0  0  0  2  0  0  0  0  0  0
  189.1980  175.5720  146.2660 C   0  0  0  0  0  3  0  0  0  0  0  0
  188.9570  174.5600  147.3700 C   0  0  0  0  0  2  0  0  0  0  0  0
  191.5310  176.9630  143.1660 C   0  0  0  0  0  2  0  0  0  0  0  0
  189.6990  175.4390  142.6560 C   0  0  0  0  0  3  0  0  0  0  0  0
  188.1650  174.2740  141.1890 O   0  0  0  0  0  0  0  0  0  0  0  0
  188.0820  173.6730  142.3930 O   0  0  0  0  0  0  0  0  0  0  0  0
  188.2920  175.0280  142.3300 C   0  0  0  0  0  0  0  0  0  0  0  0
  188.2640  177.9000  141.6480 C   0  0  0  0  0  2  0  0  0  0  0  0
  186.9510  177.1160  141.8150 C   0  0  1  0  0  3  0  0  0  0  0  0
  190.0870  176.7070  142.8770 C   0  0  0  0  0  0  0  0  0  0  0  0
  189.1300  177.8700  142.9030 C   0  0  0  0  0  2  0  0  0  0  0  0
  187.0720  175.8630  142.6900 C   0  0  0  0  0  2  0  0  0  0  0  0
  185.8600  178.0110  142.3820 C   0  0  0  0  0  2  0  0  0  0  0  0
  185.5870  177.6950  143.8470 C   0  0  0  0  0  2  0  0  0  0  0  0
  184.0310  178.6610  145.5420 O   0  0  0  0  0  1  0  0  0  0  0  0
  184.9770  178.8610  144.5460 C   0  0  0  0  0  0  0  0  0  0  0  0
  185.3280  180.0310  144.2390 O   0  0  0  0  0  0  0  0  0  0  0  0
  1  2  1  0  0  0  0
  3  2  1  0  0  0  0
  4  3  1  6  0  0  0
  4  7  1  0  0  0  0
  5 10  1  1  0  0  0
  5  4  1  0  0  0  0
  6  9  1  0  0  0  0
  7 13  1  6  0  0  0
  9 18  1  1  0  0  0
  9 14  1  0  0  0  0
 11  8  1  6  0  0  0
 11  7  1  0  0  0  0
 12 10  2  0  0  0  0
 14  8  1  6  0  0  0
 14  5  1  0  0  0  0
 14 11  1  0  0  0  0
 15  6  1  0  0  0  0
 15 12  1  0  0  0  0
 16 17  1  0  0  0  0
 17 12  1  0  0  0  0
 18 20  1  0  0  0  0
 19 20  2  0  0  0  0
 20 21  1  0  0  0  0
 20 22  1  0  0  0  0
 23 30  1  6  0  0  0
 23  1  1  0  0  0  0
 23 24  1  0  0  0  0
 24 25  1  0  0  0  0
 25 26  2  0  0  0  0
 27 28  1  0  0  0  0
 27 29  1  0  0  0  0
 28 25  1  0  0  0  0
 28 29  1  0  0  0  0
 31 37  2  0  0  0  0
 32 34  1  0  0  0  0
 32 33  1  0  0  0  0
 34 33  1  0  0  0  0
 34 31  1  0  0  0  0
 34 39  1  0  0  0  0
 35 36  1  0  0  0  0
 35 38  1  0  0  0  0
 36 40  1  1  0  0  0
 36 39  1  0  0  0  0
 37 38  1  0  0  0  0
 37 30  1  0  0  0  0
 40 41  1  0  0  0  0
 41 43  1  0  0  0  0
 43 42  1  0  0  0  0
 44 43  2  0  0  0  0
M  END
>  <MODEL>
7

>  <REMARK>
 VINA RESULT:      -6.4      2.583      4.948
  Name = 
  15 active torsions:
  status: ('A' for Active; 'I' for Inactive)
    1  A    between atoms: O_2  and  C_23
    2  A    between atoms: O_2  and  P_30
    3  A    between atoms: C_3  and  C_4
    4  A    between atoms: C_3  and  C_33
    5  A    between atoms: C_4  and  C_21
    6  A    between atoms: C_5  and  C_15
    7  A    between atoms: C_5  and  C_28
    8  A    between atoms: C_9  and  C_35
    9  A    between atoms: C_13  and  C_18
   10  A    between atoms: C_15  and  C_35
   11  A    between atoms: C_18  and  C_38
   12  A    between atoms: C_27  and  C_43
   13  A    between atoms: C_28  and  C_38
   14  A    between atoms: C_28  and  C_42
   15  A    between atoms: C_34  and  C_42
                            x       y       z     vdW  Elec       q    Type
                         _______ _______ _______ _____ _____    ______ ____

>  <TORSDO>
F 15

$$$$
=
 OpenBabel11062422393D

 44 49  0  0  1  0  0  0  0  0999 V2000
  189.6930  173.6520  145.5050 C   0  0  0  0  0  2  0  0  0  0  0  0
  190.3350  173.9830  144.1670 C   0  0  0  0  0  2  0  0  0  0  0  0
  190.9760  172.7380  143.5920 C   0  0  0  0  0  2  0  0  0  0  0  0
  192.0290  173.1270  142.5580 C   0  0  1  0  0  3  0  0  0  0  0  0
  193.4030  172.6780  142.9870 C   0  0  2  0  0  3  0  0  0  0  0  0
  196.5920  172.6940  142.1760 O   0  0  0  0  0  0  0  0  0  0  0  0
  191.8050  172.5210  141.1700 C   0  0  1  0  0  3  0  0  0  0  0  0
  193.8920  170.6020  141.1320 S   0  0  0  0  0  0  0  0  0  0  0  0
  195.4920  172.9600  141.3110 C   0  0  1  0  0  3  0  0  0  0  0  0
  194.0900  173.7480  143.7940 C   0  0  0  0  0  3  0  0  0  0  0  0
  193.1880  172.2330  140.5810 C   0  0  2  0  0  3  0  0  0  0  0  0
  195.4010  173.6900  144.0660 C   0  0  0  0  0  0  0  0  0  0  0  0
  191.0310  171.3550  141.2130 O   0  0  0  0  0  1  0  0  0  0  0  0
  194.1370  172.3260  141.6920 C   0  0  2  0  0  0  0  0  0  0  0  0
  196.2300  172.5480  143.5390 C   0  0  0  0  0  2  0  0  0  0  0  0
  195.9910  175.9720  144.2620 O   0  0  0  0  0  1  0  0  0  0  0  0
  196.0410  174.7380  144.9120 C   0  0  0  0  0  2  0  0  0  0  0  0
  195.3610  174.3390  141.1020 O   0  0  0  0  0  0  0  0  0  0  0  0
  196.6410  173.2080  138.9130 O   0  0  0  0  0  1  0  0  0  0  0  0
  196.0760  174.6500  139.5950 P   0  0  0  0  0  0  0  0  0  0  0  0
  195.0690  175.2880  138.6640 O   0  0  0  0  0  0  0  0  0  0  0  0
  197.3780  175.7050  139.8120 O   0  0  0  0  0  1  0  0  0  0  0  0
  189.3150  174.9040  146.3060 C   0  0  1  0  0  3  0  0  0  0  0  0
  190.0890  175.0390  147.6220 C   0  0  0  0  0  2  0  0  0  0  0  0
  191.2530  175.9810  147.5500 C   0  0  0  0  0  0  0  0  0  0  0  0
  191.1900  177.0670  148.1110 O   0  0  0  0  0  0  0  0  0  0  0  0
  192.7660  176.4600  145.6020 C   0  0  0  0  0  2  0  0  0  0  0  0
  192.4790  175.5560  146.7890 C   0  0  0  0  0  3  0  0  0  0  0  0
  193.5440  176.6320  146.8890 C   0  0  0  0  0  2  0  0  0  0  0  0
  189.3100  176.1960  145.4830 C   0  0  0  0  0  2  0  0  0  0  0  0
  187.8190  177.5350  146.8710 C   0  0  0  0  0  3  0  0  0  0  0  0
  185.9400  177.8880  148.3560 O   0  0  0  0  0  0  0  0  0  0  0  0
  186.6830  179.0110  148.3980 O   0  0  0  0  0  0  0  0  0  0  0  0
  186.5830  178.3140  147.2200 C   0  0  0  0  0  0  0  0  0  0  0  0
  185.6750  176.7390  144.8950 C   0  0  0  0  0  2  0  0  0  0  0  0
  184.8670  177.9500  145.3910 C   0  0  1  0  0  3  0  0  0  0  0  0
  188.0420  176.9640  145.6740 C   0  0  0  0  0  0  0  0  0  0  0  0
  187.1030  177.1050  144.5040 C   0  0  0  0  0  2  0  0  0  0  0  0
  185.6880  178.9750  146.1810 C   0  0  0  0  0  2  0  0  0  0  0  0
  184.1860  178.6550  144.2270 C   0  0  0  0  0  2  0  0  0  0  0  0
  185.1880  179.0380  143.1460 C   0  0  0  0  0  2  0  0  0  0  0  0
  185.8870  178.1400  140.9250 O   0  0  0  0  0  0  0  0  0  0  0  0
  184.8820  178.3500  141.8600 C   0  0  0  0  0  0  0  0  0  0  0  0
  183.7120  177.9510  141.6250 O   0  0  0  0  0  1  0  0  0  0  0  0
  1 23  1  0  0  0  0
  2  1  1  0  0  0  0
  3  2  1  0  0  0  0
  4  5  1  0  0  0  0
  4  3  1  1  0  0  0
  5 10  1  6  0  0  0
  6 15  1  0  0  0  0
  7 13  1  1  0  0  0
  7  4  1  0  0  0  0
  9 18  1  1  0  0  0
  9 14  1  0  0  0  0
  9  6  1  0  0  0  0
 10 12  2  0  0  0  0
 11  8  1  1  0  0  0
 11  7  1  0  0  0  0
 11 14  1  0  0  0  0
 12 17  1  0  0  0  0
 14  8  1  1  0  0  0
 14  5  1  0  0  0  0
 15 12  1  0  0  0  0
 16 17  1  0  0  0  0
 19 20  1  0  0  0  0
 20 22  1  0  0  0  0
 20 18  1  0  0  0  0
 21 20  2  0  0  0  0
 23 30  1  6  0  0  0
 23 24  1  0  0  0  0
 25 24  1  0  0  0  0
 25 26  2  0  0  0  0
 27 28  1  0  0  0  0
 27 29  1  0  0  0  0
 28 29  1  0  0  0  0
 28 25  1  0  0  0  0
 30 37  1  0  0  0  0
 31 34  1  0  0  0  0
 32 33  1  0  0  0  0
 34 32  1  0  0  0  0
 34 33  1  0  0  0  0
 35 36  1  0  0  0  0
 36 40  1  6  0  0  0
 36 39  1  0  0  0  0
 37 31  2  0  0  0  0
 38 35  1  0  0  0  0
 38 37  1  0  0  0  0
 39 34  1  0  0  0  0
 41 40  1  0  0  0  0
 42 43  2  0  0  0  0
 43 41  1  0  0  0  0
 44 43  1  0  0  0  0
M  END
>  <MODEL>
8

>  <REMARK>
 VINA RESULT:      -6.3      1.550      2.121
  Name = 
  15 active torsions:
  status: ('A' for Active; 'I' for Inactive)
    1  A    between atoms: O_2  and  C_23
    2  A    between atoms: O_2  and  P_30
    3  A    between atoms: C_3  and  C_4
    4  A    between atoms: C_3  and  C_33
    5  A    between atoms: C_4  and  C_21
    6  A    between atoms: C_5  and  C_15
    7  A    between atoms: C_5  and  C_28
    8  A    between atoms: C_9  and  C_35
    9  A    between atoms: C_13  and  C_18
   10  A    between atoms: C_15  and  C_35
   11  A    between atoms: C_18  and  C_38
   12  A    between atoms: C_27  and  C_43
   13  A    between atoms: C_28  and  C_38
   14  A    between atoms: C_28  and  C_42
   15  A    between atoms: C_34  and  C_42
                            x       y       z     vdW  Elec       q    Type
                         _______ _______ _______ _____ _____    ______ ____

>  <TORSDO>
F 15

$$$$
=
 OpenBabel11062422393D

 44 49  0  0  1  0  0  0  0  0999 V2000
  191.6670  173.3000  141.4620 C   0  0  0  0  0  2  0  0  0  0  0  0
  190.4940  174.2540  141.3000 C   0  0  0  0  0  2  0  0  0  0  0  0
  189.2230  173.5780  141.7680 C   0  0  0  0  0  2  0  0  0  0  0  0
  188.4330  174.5240  142.6670 C   0  0  1  0  0  3  0  0  0  0  0  0
  189.3490  175.4770  143.3920 C   0  0  2  0  0  3  0  0  0  0  0  0
  189.4610  177.9230  145.5900 O   0  0  0  0  0  0  0  0  0  0  0  0
  187.4200  175.4010  141.9260 C   0  0  1  0  0  3  0  0  0  0  0  0
  188.7300  177.9110  142.0950 S   0  0  0  0  0  0  0  0  0  0  0  0
  188.3120  177.4650  144.8840 C   0  0  1  0  0  3  0  0  0  0  0  0
  189.7810  174.9020  144.7160 C   0  0  0  0  0  3  0  0  0  0  0  0
  187.3850  176.7500  142.6480 C   0  0  2  0  0  3  0  0  0  0  0  0
  190.3810  175.6570  145.6460 C   0  0  0  0  0  0  0  0  0  0  0  0
  187.7450  175.5690  140.5740 O   0  0  0  0  0  1  0  0  0  0  0  0
  188.5580  176.7800  143.5230 C   0  0  2  0  0  0  0  0  0  0  0  0
  190.6150  177.1230  145.3920 C   0  0  0  0  0  2  0  0  0  0  0  0
  190.6950  175.9600  147.9710 O   0  0  0  0  0  1  0  0  0  0  0  0
  190.8440  175.0470  146.9260 C   0  0  0  0  0  2  0  0  0  0  0  0
  187.5190  176.6620  145.7140 O   0  0  0  0  0  0  0  0  0  0  0  0
  186.7360  178.3360  147.7870 O   0  0  0  0  0  1  0  0  0  0  0  0
  186.2860  177.6730  146.2960 P   0  0  0  0  0  0  0  0  0  0  0  0
  186.0180  178.7870  145.3080 O   0  0  0  0  0  0  0  0  0  0  0  0
  184.8780  176.7610  146.4990 O   0  0  0  0  0  1  0  0  0  0  0  0
  193.0170  173.9670  141.1710 C   0  0  1  0  0  3  0  0  0  0  0  0
  193.3810  173.9720  139.6820 C   0  0  0  0  0  2  0  0  0  0  0  0
  194.8570  173.9550  139.4170 C   0  0  0  0  0  0  0  0  0  0  0  0
  195.4930  172.9230  139.5870 O   0  0  0  0  0  0  0  0  0  0  0  0
  196.7090  175.6110  139.7960 C   0  0  0  0  0  2  0  0  0  0  0  0
  195.5180  175.2180  138.9370 C   0  0  0  0  0  3  0  0  0  0  0  0
  196.9300  174.9130  138.4710 C   0  0  0  0  0  2  0  0  0  0  0  0
  193.1940  175.3370  141.8310 C   0  0  0  0  0  2  0  0  0  0  0  0
  193.7730  175.9930  144.1060 C   0  0  0  0  0  3  0  0  0  0  0  0
  194.9400  177.3000  145.7770 O   0  0  0  0  0  0  0  0  0  0  0  0
  193.9480  176.6510  146.4170 O   0  0  0  0  0  0  0  0  0  0  0  0
  194.5860  176.0380  145.3690 C   0  0  0  0  0  0  0  0  0  0  0  0
  196.5500  175.0240  143.4110 C   0  0  0  0  0  2  0  0  0  0  0  0
  196.8120  174.9100  144.9230 C   0  0  1  0  0  3  0  0  0  0  0  0
  194.0890  175.2580  143.0260 C   0  0  0  0  0  0  0  0  0  0  0  0
  195.2680  174.3200  142.9820 C   0  0  0  0  0  2  0  0  0  0  0  0
  195.5450  174.9320  145.7860 C   0  0  0  0  0  2  0  0  0  0  0  0
  197.6020  173.6490  145.2380 C   0  0  0  0  0  2  0  0  0  0  0  0
  196.8120  172.7090  146.1380 C   0  0  0  0  0  2  0  0  0  0  0  0
  197.9370  170.9420  144.7810 O   0  0  0  0  0  0  0  0  0  0  0  0
  196.9510  171.2930  145.6940 C   0  0  0  0  0  0  0  0  0  0  0  0
  196.1790  170.4120  146.1540 O   0  0  0  0  0  1  0  0  0  0  0  0
  2  1  1  0  0  0  0
  2  3  1  0  0  0  0
  4  3  1  6  0  0  0
  4  5  1  0  0  0  0
  5 14  1  0  0  0  0
  5 10  1  1  0  0  0
  7 13  1  6  0  0  0
  7 11  1  0  0  0  0
  7  4  1  0  0  0  0
  9  6  1  0  0  0  0
  9 18  1  1  0  0  0
 10 12  2  0  0  0  0
 11  8  1  6  0  0  0
 11 14  1  0  0  0  0
 12 17  1  0  0  0  0
 14  8  1  6  0  0  0
 14  9  1  0  0  0  0
 15  6  1  0  0  0  0
 15 12  1  0  0  0  0
 17 16  1  0  0  0  0
 18 20  1  0  0  0  0
 20 22  1  0  0  0  0
 20 19  1  0  0  0  0
 21 20  2  0  0  0  0
 23 24  1  6  0  0  0
 23  1  1  0  0  0  0
 23 30  1  0  0  0  0
 25 26  2  0  0  0  0
 25 24  1  0  0  0  0
 28 25  1  0  0  0  0
 28 27  1  0  0  0  0
 29 28  1  0  0  0  0
 29 27  1  0  0  0  0
 30 37  1  0  0  0  0
 31 34  1  0  0  0  0
 32 33  1  0  0  0  0
 34 32  1  0  0  0  0
 34 39  1  0  0  0  0
 34 33  1  0  0  0  0
 35 36  1  0  0  0  0
 36 40  1  6  0  0  0
 36 39  1  0  0  0  0
 37 31  2  0  0  0  0
 38 37  1  0  0  0  0
 38 35  1  0  0  0  0
 40 41  1  0  0  0  0
 42 43  2  0  0  0  0
 43 41  1  0  0  0  0
 43 44  1  0  0  0  0
M  END
>  <MODEL>
9

>  <REMARK>
 VINA RESULT:      -6.3      3.068      8.951
  Name = 
  15 active torsions:
  status: ('A' for Active; 'I' for Inactive)
    1  A    between atoms: O_2  and  C_23
    2  A    between atoms: O_2  and  P_30
    3  A    between atoms: C_3  and  C_4
    4  A    between atoms: C_3  and  C_33
    5  A    between atoms: C_4  and  C_21
    6  A    between atoms: C_5  and  C_15
    7  A    between atoms: C_5  and  C_28
    8  A    between atoms: C_9  and  C_35
    9  A    between atoms: C_13  and  C_18
   10  A    between atoms: C_15  and  C_35
   11  A    between atoms: C_18  and  C_38
   12  A    between atoms: C_27  and  C_43
   13  A    between atoms: C_28  and  C_38
   14  A    between atoms: C_28  and  C_42
   15  A    between atoms: C_34  and  C_42
                            x       y       z     vdW  Elec       q    Type
                         _______ _______ _______ _____ _____    ______ ____

>  <TORSDO>
F 15

$$$$
