=
 OpenBabel11062422063D

 34 37  0  0  1  0  0  0  0  0999 V2000
  185.9820  178.5540  144.7020 C   0  0  0  0  0  2  0  0  0  0  0  0
  185.2950  177.8770  139.7930 C   0  0  0  0  0  3  0  0  0  0  0  0
  184.2150  178.2630  140.5220 N   0  0  0  0  0  0  0  0  0  0  0  0
  185.2650  177.5530  142.5520 C   0  0  0  0  0  0  0  0  0  0  0  0
  187.9870  176.3500  145.5950 C   0  0  0  0  0  3  0  0  0  0  0  0
  186.3730  178.2080  146.1340 C   0  0  0  0  0  0  0  0  0  0  0  0
  189.4540  174.4440  144.9750 C   0  0  0  0  0  0  0  0  0  0  0  0
  186.3920  177.1520  141.8160 C   0  0  0  0  0  0  0  0  0  0  0  0
  191.1560  175.7350  142.2850 C   0  0  0  0  0  1  0  0  0  0  0  0
  185.2210  177.9360  147.0820 C   0  0  0  0  0  2  0  0  0  0  0  0
  189.4250  174.5670  143.5470 N   0  0  0  0  0  0  0  0  0  0  0  0
  189.3270  173.4460  142.7900 O   0  0  0  0  0  1  0  0  0  0  0  0
  188.7580  176.2060  141.8480 C   0  0  0  0  0  2  0  0  0  0  0  0
  186.4030  177.3150  140.4260 C   0  0  0  0  0  3  0  0  0  0  0  0
  187.5190  176.5950  142.4990 N   0  0  0  0  0  2  0  0  0  0  0  0
  183.0160  178.5440  142.5870 N   0  0  0  0  0  1  0  0  0  0  0  0
  189.7780  175.8310  142.9080 C   0  0  2  0  0  3  0  0  0  0  0  0
  189.5890  176.9830  147.7870 C   0  0  0  0  0  3  0  0  0  0  0  0
  185.9690  179.2600  147.1480 C   0  0  0  0  0  2  0  0  0  0  0  0
  189.9390  175.8990  146.9660 C   0  0  0  0  0  0  0  0  0  0  0  0
  188.4490  177.7390  147.5160 C   0  0  0  0  0  3  0  0  0  0  0  0
  184.1730  178.1190  141.8730 C   0  0  0  0  0  0  0  0  0  0  0  0
  187.6330  177.4280  146.4170 C   0  0  0  0  0  0  0  0  0  0  0  0
  185.2480  177.3960  144.0420 C   0  0  0  0  0  2  0  0  0  0  0  0
  189.1350  175.5890  145.8530 C   0  0  0  0  0  0  0  0  0  0  0  0
  189.7440  173.3320  145.4950 O   0  0  0  0  0  0  0  0  0  0  0  0
  191.0820  175.1350  147.2320 O   0  0  0  0  0  0  0  0  0  0  0  0
  192.4020  175.6360  147.0620 C   0  0  0  0  0  2  0  0  0  0  0  0
  193.1120  173.7460  145.8120 O   0  0  0  0  0  1  0  0  0  0  0  0
  192.9750  175.1340  145.7480 C   0  0  2  0  0  3  0  0  0  0  0  0
  194.3320  175.7870  145.4660 C   0  0  1  0  0  3  0  0  0  0  0  0
  194.4540  177.1360  146.1590 C   0  0  0  0  0  1  0  0  0  0  0  0
  196.5150  174.7320  144.7140 C   0  0  0  0  0  1  0  0  0  0  0  0
  195.5080  174.8840  145.8450 C   0  0  0  0  0  2  0  0  0  0  0  0
  1  6  1  0  0  0  0
  2 14  2  0  0  0  0
  2  3  1  0  0  0  0
  3 22  2  0  0  0  0
  4 24  1  0  0  0  0
  5 25  2  0  0  0  0
  5 23  1  0  0  0  0
  6 23  1  0  0  0  0
  6 10  1  0  0  0  0
  6 19  1  0  0  0  0
  7 26  2  0  0  0  0
  7 25  1  0  0  0  0
  8 15  1  0  0  0  0
  8  4  2  0  0  0  0
 10 19  1  0  0  0  0
 11  7  1  0  0  0  0
 12 11  1  0  0  0  0
 13 15  1  0  0  0  0
 13 17  1  0  0  0  0
 14  8  1  0  0  0  0
 17  9  1  6  0  0  0
 17 11  1  0  0  0  0
 20 27  1  0  0  0  0
 20 18  2  0  0  0  0
 21 18  1  0  0  0  0
 22  4  1  0  0  0  0
 22 16  1  0  0  0  0
 23 21  2  0  0  0  0
 24  1  1  0  0  0  0
 25 20  1  0  0  0  0
 28 27  1  0  0  0  0
 30 29  1  1  0  0  0
 30 28  1  0  0  0  0
 31 30  1  0  0  0  0
 31 34  1  0  0  0  0
 31 32  1  1  0  0  0
 33 34  1  0  0  0  0
M  END
>  <MODEL>
1

>  <REMARK>
 VINA RESULT:      -8.3      0.000      0.000
  Name = 
  5 active torsions:
  status: ('A' for Active; 'I' for Inactive)
    1  A    between atoms: O_7  and  C_8
    2  A    between atoms: O_7  and  C_26
    3  A    between atoms: C_8  and  C_11
    4  A    between atoms: C_11  and  C_21
    5  A    between atoms: C_21  and  C_27
                            x       y       z     vdW  Elec       q    Type
                         _______ _______ _______ _____ _____    ______ ____

>  <TORSDO>
F 5

$$$$
=
 OpenBabel11062422063D

 34 37  0  0  1  0  0  0  0  0999 V2000
  186.7130  178.1150  145.0290 C   0  0  0  0  0  2  0  0  0  0  0  0
  185.2320  177.9240  140.2540 C   0  0  0  0  0  3  0  0  0  0  0  0
  184.3220  178.3540  141.1680 N   0  0  0  0  0  0  0  0  0  0  0  0
  185.5770  177.3740  142.9560 C   0  0  0  0  0  0  0  0  0  0  0  0
  188.5690  175.6550  145.4460 C   0  0  0  0  0  3  0  0  0  0  0  0
  187.2710  177.6130  146.3550 C   0  0  0  0  0  0  0  0  0  0  0  0
  189.7040  173.6690  144.4770 C   0  0  0  0  0  0  0  0  0  0  0  0
  186.5290  176.9250  142.0270 C   0  0  0  0  0  0  0  0  0  0  0  0
  191.1220  175.0040  141.6460 C   0  0  0  0  0  1  0  0  0  0  0  0
  186.2510  177.3800  147.4520 C   0  0  0  0  0  2  0  0  0  0  0  0
  189.4780  173.9130  143.0820 N   0  0  0  0  0  0  0  0  0  0  0  0
  189.1430  172.8760  142.2770 O   0  0  0  0  0  1  0  0  0  0  0  0
  188.7530  175.7480  141.6230 C   0  0  0  0  0  2  0  0  0  0  0  0
  186.3520  177.2030  140.6660 C   0  0  0  0  0  3  0  0  0  0  0  0
  187.6760  176.2030  142.4860 N   0  0  0  0  0  2  0  0  0  0  0  0
  183.4830  178.5800  143.4100 N   0  0  0  0  0  1  0  0  0  0  0  0
  189.8700  175.1850  142.4820 C   0  0  2  0  0  3  0  0  0  0  0  0
  190.5400  175.9370  147.3970 C   0  0  0  0  0  3  0  0  0  0  0  0
  187.1430  178.6120  147.4890 C   0  0  0  0  0  2  0  0  0  0  0  0
  190.6400  174.8960  146.4610 C   0  0  0  0  0  0  0  0  0  0  0  0
  189.4650  176.8250  147.3600 C   0  0  0  0  0  3  0  0  0  0  0  0
  184.4670  178.1020  142.4960 C   0  0  0  0  0  0  0  0  0  0  0  0
  188.4650  176.6900  146.3840 C   0  0  0  0  0  0  0  0  0  0  0  0
  185.7640  177.0960  144.4160 C   0  0  0  0  0  2  0  0  0  0  0  0
  189.6500  174.7620  145.4690 C   0  0  0  0  0  0  0  0  0  0  0  0
  189.9420  172.4940  144.8690 O   0  0  0  0  0  0  0  0  0  0  0  0
  191.7170  174.0020  146.4920 O   0  0  0  0  0  0  0  0  0  0  0  0
  193.0600  174.4020  146.2470 C   0  0  0  0  0  2  0  0  0  0  0  0
  194.3160  174.7140  144.2560 O   0  0  0  0  0  1  0  0  0  0  0  0
  193.1470  175.1120  144.9070 C   0  0  2  0  0  3  0  0  0  0  0  0
  193.1400  176.6320  145.1000 C   0  0  1  0  0  3  0  0  0  0  0  0
  194.5340  177.1590  145.4080 C   0  0  0  0  0  1  0  0  0  0  0  0
  191.1980  178.0120  144.2240 C   0  0  0  0  0  1  0  0  0  0  0  0
  192.5410  177.3730  143.9030 C   0  0  0  0  0  2  0  0  0  0  0  0
  1  6  1  0  0  0  0
  2 14  2  0  0  0  0
  2  3  1  0  0  0  0
  3 22  2  0  0  0  0
  4 24  1  0  0  0  0
  5 25  2  0  0  0  0
  5 23  1  0  0  0  0
  6 23  1  0  0  0  0
  6 10  1  0  0  0  0
  6 19  1  0  0  0  0
  7 26  2  0  0  0  0
  7 25  1  0  0  0  0
  8 15  1  0  0  0  0
  8  4  2  0  0  0  0
 10 19  1  0  0  0  0
 11  7  1  0  0  0  0
 12 11  1  0  0  0  0
 13 17  1  0  0  0  0
 13 15  1  0  0  0  0
 14  8  1  0  0  0  0
 17  9  1  6  0  0  0
 17 11  1  0  0  0  0
 20 27  1  0  0  0  0
 20 18  2  0  0  0  0
 21 18  1  0  0  0  0
 22  4  1  0  0  0  0
 22 16  1  0  0  0  0
 23 21  2  0  0  0  0
 24  1  1  0  0  0  0
 25 20  1  0  0  0  0
 28 27  1  0  0  0  0
 30 29  1  1  0  0  0
 30 31  1  0  0  0  0
 30 28  1  0  0  0  0
 31 32  1  6  0  0  0
 34 33  1  0  0  0  0
 34 31  1  0  0  0  0
M  END
>  <MODEL>
2

>  <REMARK>
 VINA RESULT:      -8.2      1.145      1.663
  Name = 
  5 active torsions:
  status: ('A' for Active; 'I' for Inactive)
    1  A    between atoms: O_7  and  C_8
    2  A    between atoms: O_7  and  C_26
    3  A    between atoms: C_8  and  C_11
    4  A    between atoms: C_11  and  C_21
    5  A    between atoms: C_21  and  C_27
                            x       y       z     vdW  Elec       q    Type
                         _______ _______ _______ _____ _____    ______ ____

>  <TORSDO>
F 5

$$$$
=
 OpenBabel11062422063D

 34 37  0  0  1  0  0  0  0  0999 V2000
  193.9670  175.1760  144.0670 C   0  0  0  0  0  2  0  0  0  0  0  0
  194.2210  173.7790  139.2700 C   0  0  0  0  0  3  0  0  0  0  0  0
  195.3050  174.4150  139.7880 N   0  0  0  0  0  0  0  0  0  0  0  0
  193.9960  175.2880  141.5920 C   0  0  0  0  0  0  0  0  0  0  0  0
  191.0290  176.0790  144.5390 C   0  0  0  0  0  3  0  0  0  0  0  0
  193.4180  175.8680  145.3090 C   0  0  0  0  0  0  0  0  0  0  0  0
  188.7310  176.3690  143.6400 C   0  0  0  0  0  0  0  0  0  0  0  0
  192.8660  174.6340  141.0740 C   0  0  0  0  0  0  0  0  0  0  0  0
  188.1800  173.3100  142.1740 C   0  0  0  0  0  1  0  0  0  0  0  0
  194.1660  177.1100  145.7550 C   0  0  0  0  0  2  0  0  0  0  0  0
  188.8560  175.6430  142.4090 N   0  0  0  0  0  0  0  0  0  0  0  0
  188.2880  176.1460  141.2860 O   0  0  0  0  0  1  0  0  0  0  0  0
  190.4000  174.0570  141.3500 C   0  0  0  0  0  2  0  0  0  0  0  0
  192.9830  173.8770  139.9030 C   0  0  0  0  0  3  0  0  0  0  0  0
  191.6140  174.7400  141.7590 N   0  0  0  0  0  2  0  0  0  0  0  0
  196.3950  175.8000  141.4240 N   0  0  0  0  0  1  0  0  0  0  0  0
  189.3350  174.2630  142.4110 C   0  0  2  0  0  3  0  0  0  0  0  0
  190.0680  175.7760  147.1380 C   0  0  0  0  0  3  0  0  0  0  0  0
  194.3460  175.7990  146.5070 C   0  0  0  0  0  2  0  0  0  0  0  0
  189.1610  175.9850  146.0870 C   0  0  0  0  0  0  0  0  0  0  0  0
  191.4390  175.7230  146.8920 C   0  0  0  0  0  3  0  0  0  0  0  0
  195.2250  175.1580  140.9240 C   0  0  0  0  0  0  0  0  0  0  0  0
  191.9350  175.8780  145.5880 C   0  0  0  0  0  0  0  0  0  0  0  0
  193.8870  176.0900  142.8530 C   0  0  0  0  0  2  0  0  0  0  0  0
  189.6480  176.1260  144.7730 C   0  0  0  0  0  0  0  0  0  0  0  0
  187.8290  177.2420  143.7540 O   0  0  0  0  0  0  0  0  0  0  0  0
  187.7830  176.0390  146.3260 O   0  0  0  0  0  0  0  0  0  0  0  0
  187.1680  177.0820  147.0720 C   0  0  0  0  0  2  0  0  0  0  0  0
  185.3510  176.3760  145.7150 O   0  0  0  0  0  1  0  0  0  0  0  0
  185.6580  176.9910  146.9300 C   0  0  2  0  0  3  0  0  0  0  0  0
  185.0250  178.3850  146.9920 C   0  0  1  0  0  3  0  0  0  0  0  0
  185.9940  179.4110  147.5620 C   0  0  0  0  0  1  0  0  0  0  0  0
  185.5160  179.6700  144.8580 C   0  0  0  0  0  1  0  0  0  0  0  0
  184.4950  178.8490  145.6330 C   0  0  0  0  0  2  0  0  0  0  0  0
  1  6  1  0  0  0  0
  2  3  2  0  0  0  0
  2 14  1  0  0  0  0
  3 22  1  0  0  0  0
  4 24  1  0  0  0  0
  5 25  2  0  0  0  0
  5 23  1  0  0  0  0
  6 23  1  0  0  0  0
  6 10  1  0  0  0  0
  6 19  1  0  0  0  0
  7 26  2  0  0  0  0
  7 25  1  0  0  0  0
  8  4  1  0  0  0  0
  8 15  1  0  0  0  0
 10 19  1  0  0  0  0
 11 17  1  0  0  0  0
 11  7  1  0  0  0  0
 12 11  1  0  0  0  0
 13 15  1  0  0  0  0
 13 17  1  0  0  0  0
 14  8  2  0  0  0  0
 17  9  1  6  0  0  0
 20 27  1  0  0  0  0
 20 18  2  0  0  0  0
 21 18  1  0  0  0  0
 22 16  1  0  0  0  0
 22  4  2  0  0  0  0
 23 21  2  0  0  0  0
 24  1  1  0  0  0  0
 25 20  1  0  0  0  0
 27 28  1  0  0  0  0
 30 29  1  6  0  0  0
 30 31  1  0  0  0  0
 30 28  1  0  0  0  0
 31 32  1  6  0  0  0
 33 34  1  0  0  0  0
 34 31  1  0  0  0  0
M  END
>  <MODEL>
3

>  <REMARK>
 VINA RESULT:      -7.9      2.939      7.432
  Name = 
  5 active torsions:
  status: ('A' for Active; 'I' for Inactive)
    1  A    between atoms: O_7  and  C_8
    2  A    between atoms: O_7  and  C_26
    3  A    between atoms: C_8  and  C_11
    4  A    between atoms: C_11  and  C_21
    5  A    between atoms: C_21  and  C_27
                            x       y       z     vdW  Elec       q    Type
                         _______ _______ _______ _____ _____    ______ ____

>  <TORSDO>
F 5

$$$$
=
 OpenBabel11062422063D

 34 37  0  0  1  0  0  0  0  0999 V2000
  192.6170  174.3530  145.1900 C   0  0  0  0  0  2  0  0  0  0  0  0
  193.5940  170.3420  142.3640 C   0  0  0  0  0  3  0  0  0  0  0  0
  194.6550  170.9630  142.9460 N   0  0  0  0  0  0  0  0  0  0  0  0
  193.3670  172.9510  143.2890 C   0  0  0  0  0  0  0  0  0  0  0  0
  190.2860  175.8470  143.7730 C   0  0  0  0  0  3  0  0  0  0  0  0
  192.0760  175.7330  145.5430 C   0  0  0  0  0  0  0  0  0  0  0  0
  188.6440  175.9300  141.9120 C   0  0  0  0  0  0  0  0  0  0  0  0
  192.2600  172.3240  142.6950 C   0  0  0  0  0  0  0  0  0  0  0  0
  187.3330  172.7550  142.0140 C   0  0  0  0  0  1  0  0  0  0  0  0
  193.1060  176.8420  145.6280 C   0  0  0  0  0  2  0  0  0  0  0  0
  188.7990  174.6030  141.3890 N   0  0  0  0  0  0  0  0  0  0  0  0
  188.8140  174.4210  140.0460 O   0  0  0  0  0  1  0  0  0  0  0  0
  189.7990  172.4630  142.0520 C   0  0  0  0  0  2  0  0  0  0  0  0
  192.3790  171.0100  142.2290 C   0  0  0  0  0  3  0  0  0  0  0  0
  191.0220  173.0330  142.5880 N   0  0  0  0  0  2  0  0  0  0  0  0
  195.7150  172.8390  144.0130 N   0  0  0  0  0  1  0  0  0  0  0  0
  188.6600  173.4430  142.2650 C   0  0  2  0  0  3  0  0  0  0  0  0
  188.6110  177.3340  145.4330 C   0  0  0  0  0  3  0  0  0  0  0  0
  192.5290  176.2380  146.8990 C   0  0  0  0  0  2  0  0  0  0  0  0
  188.1930  177.0230  144.1290 C   0  0  0  0  0  0  0  0  0  0  0  0
  189.8550  176.9090  145.8990 C   0  0  0  0  0  3  0  0  0  0  0  0
  194.5720  172.2380  143.4090 C   0  0  0  0  0  0  0  0  0  0  0  0
  190.7080  176.1630  145.0710 C   0  0  0  0  0  0  0  0  0  0  0  0
  193.2490  174.3530  143.8050 C   0  0  0  0  0  2  0  0  0  0  0  0
  189.0350  176.2620  143.2970 C   0  0  0  0  0  0  0  0  0  0  0  0
  188.1760  176.8360  141.1700 O   0  0  0  0  0  0  0  0  0  0  0  0
  186.9450  177.4450  143.6540 O   0  0  0  0  0  0  0  0  0  0  0  0
  186.2800  178.6000  144.1510 C   0  0  0  0  0  2  0  0  0  0  0  0
  183.9860  179.2070  144.0720 O   0  0  0  0  0  1  0  0  0  0  0  0
  184.8630  178.2380  144.5620 C   0  0  2  0  0  3  0  0  0  0  0  0
  184.7500  178.1450  146.0870 C   0  0  1  0  0  3  0  0  0  0  0  0
  185.1350  176.7610  146.5900 C   0  0  0  0  0  1  0  0  0  0  0  0
  186.3390  178.6710  147.9960 C   0  0  0  0  0  1  0  0  0  0  0  0
  185.5710  179.2210  146.8020 C   0  0  0  0  0  2  0  0  0  0  0  0
  1  6  1  0  0  0  0
  2  3  1  0  0  0  0
  3 22  2  0  0  0  0
  4 22  1  0  0  0  0
  4 24  1  0  0  0  0
  5 23  1  0  0  0  0
  6 10  1  0  0  0  0
  6 19  1  0  0  0  0
  7 25  1  0  0  0  0
  8  4  2  0  0  0  0
 10 19  1  0  0  0  0
 11  7  1  0  0  0  0
 11 17  1  0  0  0  0
 12 11  1  0  0  0  0
 13 17  1  0  0  0  0
 13 15  1  0  0  0  0
 14  2  2  0  0  0  0
 14  8  1  0  0  0  0
 15  8  1  0  0  0  0
 17  9  1  6  0  0  0
 18 21  1  0  0  0  0
 20 18  2  0  0  0  0
 22 16  1  0  0  0  0
 23  6  1  0  0  0  0
 23 21  2  0  0  0  0
 24  1  1  0  0  0  0
 25  5  2  0  0  0  0
 25 20  1  0  0  0  0
 26  7  2  0  0  0  0
 27 20  1  0  0  0  0
 27 28  1  0  0  0  0
 28 30  1  0  0  0  0
 30 29  1  1  0  0  0
 30 31  1  0  0  0  0
 31 32  1  1  0  0  0
 31 34  1  0  0  0  0
 34 33  1  0  0  0  0
M  END
>  <MODEL>
4

>  <REMARK>
 VINA RESULT:      -7.7      3.242      7.779
  Name = 
  5 active torsions:
  status: ('A' for Active; 'I' for Inactive)
    1  A    between atoms: O_7  and  C_8
    2  A    between atoms: O_7  and  C_26
    3  A    between atoms: C_8  and  C_11
    4  A    between atoms: C_11  and  C_21
    5  A    between atoms: C_21  and  C_27
                            x       y       z     vdW  Elec       q    Type
                         _______ _______ _______ _____ _____    ______ ____

>  <TORSDO>
F 5

$$$$
=
 OpenBabel11062422063D

 34 37  0  0  1  0  0  0  0  0999 V2000
  187.4660  177.7480  144.8170 C   0  0  0  0  0  2  0  0  0  0  0  0
  185.0290  178.0940  140.4620 C   0  0  0  0  0  3  0  0  0  0  0  0
  184.3970  178.5770  141.5640 N   0  0  0  0  0  0  0  0  0  0  0  0
  185.8340  177.3140  143.0040 C   0  0  0  0  0  0  0  0  0  0  0  0
  188.9890  175.0390  144.7300 C   0  0  0  0  0  3  0  0  0  0  0  0
  188.2040  177.0840  145.9740 C   0  0  0  0  0  0  0  0  0  0  0  0
  189.6010  172.9920  143.4630 C   0  0  0  0  0  0  0  0  0  0  0  0
  186.5010  176.8080  141.8760 C   0  0  0  0  0  0  0  0  0  0  0  0
  190.5890  174.3210  140.4520 C   0  0  0  0  0  1  0  0  0  0  0  0
  187.4060  176.9130  147.2520 C   0  0  0  0  0  2  0  0  0  0  0  0
  189.1330  173.3620  142.1590 N   0  0  0  0  0  0  0  0  0  0  0  0
  188.4930  172.4380  141.4010 O   0  0  0  0  0  1  0  0  0  0  0  0
  188.4000  175.3750  140.9630 C   0  0  0  0  0  2  0  0  0  0  0  0
  186.0920  177.2020  140.5970 C   0  0  0  0  0  3  0  0  0  0  0  0
  187.6000  175.9080  142.0520 N   0  0  0  0  0  2  0  0  0  0  0  0
  184.0750  178.7550  143.9410 N   0  0  0  0  0  1  0  0  0  0  0  0
  189.5750  174.6090  141.5420 C   0  0  2  0  0  3  0  0  0  0  0  0
  191.3370  174.9170  146.2290 C   0  0  0  0  0  3  0  0  0  0  0  0
  188.4560  178.0090  147.1490 C   0  0  0  0  0  2  0  0  0  0  0  0
  191.0910  173.9410  145.2510 C   0  0  0  0  0  0  0  0  0  0  0  0
  190.4170  175.9410  146.4570 C   0  0  0  0  0  3  0  0  0  0  0  0
  184.7710  178.2140  142.8210 C   0  0  0  0  0  0  0  0  0  0  0  0
  189.2300  176.0100  145.7110 C   0  0  0  0  0  0  0  0  0  0  0  0
  186.2730  176.9110  144.3790 C   0  0  0  0  0  2  0  0  0  0  0  0
  189.9100  174.0110  144.4880 C   0  0  0  0  0  0  0  0  0  0  0  0
  189.7400  171.7710  143.7470 O   0  0  0  0  0  0  0  0  0  0  0  0
  192.0100  172.9110  145.0170 O   0  0  0  0  0  0  0  0  0  0  0  0
  193.1140  173.0470  144.1310 C   0  0  0  0  0  2  0  0  0  0  0  0
  194.2050  171.8170  145.8440 O   0  0  0  0  0  1  0  0  0  0  0  0
  194.4100  172.8150  144.8890 C   0  0  2  0  0  3  0  0  0  0  0  0
  194.8790  174.1060  145.5650 C   0  0  1  0  0  3  0  0  0  0  0  0
  196.3450  174.0240  145.9660 C   0  0  0  0  0  1  0  0  0  0  0  0
  194.7060  176.6390  145.5010 C   0  0  0  0  0  1  0  0  0  0  0  0
  194.6300  175.3450  144.7020 C   0  0  0  0  0  2  0  0  0  0  0  0
  1  6  1  0  0  0  0
  2 14  2  0  0  0  0
  2  3  1  0  0  0  0
  3 22  2  0  0  0  0
  4 24  1  0  0  0  0
  5 23  1  0  0  0  0
  6 19  1  0  0  0  0
  6 10  1  0  0  0  0
  7 26  2  0  0  0  0
  7 25  1  0  0  0  0
  8 15  1  0  0  0  0
  8  4  2  0  0  0  0
 11  7  1  0  0  0  0
 12 11  1  0  0  0  0
 13 17  1  0  0  0  0
 13 15  1  0  0  0  0
 14  8  1  0  0  0  0
 17  9  1  6  0  0  0
 17 11  1  0  0  0  0
 18 21  1  0  0  0  0
 19 10  1  0  0  0  0
 20 18  2  0  0  0  0
 22  4  1  0  0  0  0
 22 16  1  0  0  0  0
 23  6  1  0  0  0  0
 23 21  2  0  0  0  0
 24  1  1  0  0  0  0
 25  5  2  0  0  0  0
 25 20  1  0  0  0  0
 27 20  1  0  0  0  0
 28 30  1  0  0  0  0
 28 27  1  0  0  0  0
 30 31  1  0  0  0  0
 30 29  1  1  0  0  0
 31 32  1  6  0  0  0
 34 33  1  0  0  0  0
 34 31  1  0  0  0  0
M  END
>  <MODEL>
5

>  <REMARK>
 VINA RESULT:      -7.6      1.527      2.191
  Name = 
  5 active torsions:
  status: ('A' for Active; 'I' for Inactive)
    1  A    between atoms: O_7  and  C_8
    2  A    between atoms: O_7  and  C_26
    3  A    between atoms: C_8  and  C_11
    4  A    between atoms: C_11  and  C_21
    5  A    between atoms: C_21  and  C_27
                            x       y       z     vdW  Elec       q    Type
                         _______ _______ _______ _____ _____    ______ ____

>  <TORSDO>
F 5

$$$$
=
 OpenBabel11062422063D

 34 37  0  0  1  0  0  0  0  0999 V2000
  189.9740  177.0850  146.3890 C   0  0  0  0  0  2  0  0  0  0  0  0
  185.5820  177.9090  144.1390 C   0  0  0  0  0  3  0  0  0  0  0  0
  185.6920  178.2880  145.4400 N   0  0  0  0  0  0  0  0  0  0  0  0
  187.5910  176.8630  145.7480 C   0  0  0  0  0  0  0  0  0  0  0  0
  191.0100  174.3750  145.2710 C   0  0  0  0  0  3  0  0  0  0  0  0
  191.1760  176.2960  146.8930 C   0  0  0  0  0  0  0  0  0  0  0  0
  190.6860  172.4580  143.7250 C   0  0  0  0  0  0  0  0  0  0  0  0
  187.4960  176.4640  144.4050 C   0  0  0  0  0  0  0  0  0  0  0  0
  189.9560  174.0700  140.7800 C   0  0  0  0  0  1  0  0  0  0  0  0
  191.1970  176.0080  148.3820 C   0  0  0  0  0  2  0  0  0  0  0  0
  189.6070  172.9660  142.9280 N   0  0  0  0  0  0  0  0  0  0  0  0
  188.5960  172.1330  142.5810 O   0  0  0  0  0  1  0  0  0  0  0  0
  188.4810  175.1010  142.4910 C   0  0  0  0  0  2  0  0  0  0  0  0
  186.4820  176.9920  143.5980 C   0  0  0  0  0  3  0  0  0  0  0  0
  188.4460  175.5330  143.8770 N   0  0  0  0  0  2  0  0  0  0  0  0
  186.7350  178.2280  147.6050 N   0  0  0  0  0  1  0  0  0  0  0  0
  189.7250  174.2620  142.2660 C   0  0  2  0  0  3  0  0  0  0  0  0
  193.7800  174.0650  145.2140 C   0  0  0  0  0  3  0  0  0  0  0  0
  192.0930  177.0920  147.8000 C   0  0  0  0  0  2  0  0  0  0  0  0
  192.9730  173.1960  144.4620 C   0  0  0  0  0  0  0  0  0  0  0  0
  193.2080  175.0740  145.9870 C   0  0  0  0  0  3  0  0  0  0  0  0
  186.6660  177.7940  146.2500 C   0  0  0  0  0  0  0  0  0  0  0  0
  191.8150  175.2380  146.0270 C   0  0  0  0  0  0  0  0  0  0  0  0
  188.6810  176.3160  146.6180 C   0  0  0  0  0  2  0  0  0  0  0  0
  191.5750  173.3620  144.4840 C   0  0  0  0  0  0  0  0  0  0  0  0
  190.8730  171.2120  143.7920 O   0  0  0  0  0  0  0  0  0  0  0  0
  193.5400  172.1810  143.6830 O   0  0  0  0  0  0  0  0  0  0  0  0
  194.9400  171.9350  143.6350 C   0  0  0  0  0  2  0  0  0  0  0  0
  194.0930  170.0640  144.8280 O   0  0  0  0  0  1  0  0  0  0  0  0
  195.2760  170.7230  144.4880 C   0  0  2  0  0  3  0  0  0  0  0  0
  196.0270  171.1470  145.7540 C   0  0  1  0  0  3  0  0  0  0  0  0
  196.5810  169.9430  146.5020 C   0  0  0  0  0  1  0  0  0  0  0  0
  197.0610  173.3870  146.3560 C   0  0  0  0  0  1  0  0  0  0  0  0
  197.1420  172.1550  145.4650 C   0  0  0  0  0  2  0  0  0  0  0  0
  1 24  1  0  0  0  0
  1  6  1  0  0  0  0
  2  3  1  0  0  0  0
  3 22  2  0  0  0  0
  4 22  1  0  0  0  0
  4 24  1  0  0  0  0
  5 23  1  0  0  0  0
  6 19  1  0  0  0  0
  6 10  1  0  0  0  0
  7 26  2  0  0  0  0
  7 25  1  0  0  0  0
  8  4  2  0  0  0  0
 11  7  1  0  0  0  0
 12 11  1  0  0  0  0
 13 15  1  0  0  0  0
 14  2  2  0  0  0  0
 14  8  1  0  0  0  0
 15  8  1  0  0  0  0
 17  9  1  6  0  0  0
 17 13  1  0  0  0  0
 17 11  1  0  0  0  0
 18 21  1  0  0  0  0
 19 10  1  0  0  0  0
 20 25  1  0  0  0  0
 20 18  2  0  0  0  0
 21 23  2  0  0  0  0
 22 16  1  0  0  0  0
 23  6  1  0  0  0  0
 25  5  2  0  0  0  0
 27 20  1  0  0  0  0
 28 27  1  0  0  0  0
 28 30  1  0  0  0  0
 30 29  1  1  0  0  0
 30 31  1  0  0  0  0
 31 32  1  6  0  0  0
 34 31  1  0  0  0  0
 34 33  1  0  0  0  0
M  END
>  <MODEL>
6

>  <REMARK>
 VINA RESULT:      -7.5      2.516      4.423
  Name = 
  5 active torsions:
  status: ('A' for Active; 'I' for Inactive)
    1  A    between atoms: O_7  and  C_8
    2  A    between atoms: O_7  and  C_26
    3  A    between atoms: C_8  and  C_11
    4  A    between atoms: C_11  and  C_21
    5  A    between atoms: C_21  and  C_27
                            x       y       z     vdW  Elec       q    Type
                         _______ _______ _______ _____ _____    ______ ____

>  <TORSDO>
F 5

$$$$
=
 OpenBabel11062422063D

 34 37  0  0  1  0  0  0  0  0999 V2000
  186.3480  176.8710  142.6820 C   0  0  0  0  0  2  0  0  0  0  0  0
  184.0080  178.2390  146.8870 C   0  0  0  0  0  3  0  0  0  0  0  0
  183.6080  178.8380  145.7340 N   0  0  0  0  0  0  0  0  0  0  0  0
  185.6460  178.2130  144.6430 C   0  0  0  0  0  0  0  0  0  0  0  0
  189.3220  176.4180  143.4690 C   0  0  0  0  0  3  0  0  0  0  0  0
  187.5120  176.6280  141.7290 C   0  0  0  0  0  0  0  0  0  0  0  0
  191.0590  176.3640  145.2430 C   0  0  0  0  0  0  0  0  0  0  0  0
  186.0730  177.5860  145.8250 C   0  0  0  0  0  0  0  0  0  0  0  0
  189.5150  174.4670  147.6560 C   0  0  0  0  0  1  0  0  0  0  0  0
  187.6710  177.6410  140.6130 C   0  0  0  0  0  2  0  0  0  0  0  0
  190.2240  176.4390  146.4070 N   0  0  0  0  0  0  0  0  0  0  0  0
  190.6060  177.2250  147.4430 O   0  0  0  0  0  1  0  0  0  0  0  0
  187.8550  176.1930  146.9980 C   0  0  0  0  0  2  0  0  0  0  0  0
  185.2460  177.6020  146.9530 C   0  0  0  0  0  3  0  0  0  0  0  0
  187.3420  176.9260  145.8530 N   0  0  0  0  0  2  0  0  0  0  0  0
  183.9170  179.4790  143.4370 N   0  0  0  0  0  1  0  0  0  0  0  0
  189.1360  175.4840  146.5970 C   0  0  2  0  0  3  0  0  0  0  0  0
  190.7170  174.5610  141.9260 C   0  0  0  0  0  3  0  0  0  0  0  0
  187.0830  176.2690  140.3190 C   0  0  0  0  0  2  0  0  0  0  0  0
  191.2430  174.9660  143.1630 C   0  0  0  0  0  0  0  0  0  0  0  0
  189.5080  175.0830  141.4650 C   0  0  0  0  0  3  0  0  0  0  0  0
  184.3880  178.8380  144.6200 C   0  0  0  0  0  0  0  0  0  0  0  0
  188.7980  176.0200  142.2310 C   0  0  0  0  0  0  0  0  0  0  0  0
  186.5170  178.1890  143.4240 C   0  0  0  0  0  2  0  0  0  0  0  0
  190.5310  175.8950  143.9450 C   0  0  0  0  0  0  0  0  0  0  0  0
  192.2670  176.7190  145.3250 O   0  0  0  0  0  0  0  0  0  0  0  0
  192.4560  174.4470  143.6320 O   0  0  0  0  0  0  0  0  0  0  0  0
  193.6280  174.3780  142.8310 C   0  0  0  0  0  2  0  0  0  0  0  0
  194.6010  176.1490  141.5830 O   0  0  0  0  0  1  0  0  0  0  0  0
  194.3650  175.7060  142.8860 C   0  0  2  0  0  3  0  0  0  0  0  0
  195.6890  175.5570  143.6420 C   0  0  1  0  0  3  0  0  0  0  0  0
  196.6390  176.7050  143.3310 C   0  0  0  0  0  1  0  0  0  0  0  0
  196.2170  174.2190  145.7340 C   0  0  0  0  0  1  0  0  0  0  0  0
  195.4900  175.4240  145.1540 C   0  0  0  0  0  2  0  0  0  0  0  0
  1 24  1  0  0  0  0
  2 14  1  0  0  0  0
  3  2  2  0  0  0  0
  4  8  1  0  0  0  0
  5 25  1  0  0  0  0
  6 23  1  0  0  0  0
  6  1  1  0  0  0  0
  7 26  2  0  0  0  0
  7 11  1  0  0  0  0
  8 15  1  0  0  0  0
  8 14  2  0  0  0  0
 10  6  1  0  0  0  0
 11 17  1  0  0  0  0
 11 12  1  0  0  0  0
 15 13  1  0  0  0  0
 16 22  1  0  0  0  0
 17 13  1  0  0  0  0
 17  9  1  1  0  0  0
 18 20  1  0  0  0  0
 19 10  1  0  0  0  0
 19  6  1  0  0  0  0
 20 27  1  0  0  0  0
 20 25  2  0  0  0  0
 21 18  2  0  0  0  0
 21 23  1  0  0  0  0
 22  4  2  0  0  0  0
 22  3  1  0  0  0  0
 23  5  2  0  0  0  0
 24  4  1  0  0  0  0
 25  7  1  0  0  0  0
 28 30  1  0  0  0  0
 28 27  1  0  0  0  0
 30 29  1  6  0  0  0
 30 31  1  0  0  0  0
 31 32  1  1  0  0  0
 31 34  1  0  0  0  0
 34 33  1  0  0  0  0
M  END
>  <MODEL>
7

>  <REMARK>
 VINA RESULT:      -7.5      1.996      4.481
  Name = 
  5 active torsions:
  status: ('A' for Active; 'I' for Inactive)
    1  A    between atoms: O_7  and  C_8
    2  A    between atoms: O_7  and  C_26
    3  A    between atoms: C_8  and  C_11
    4  A    between atoms: C_11  and  C_21
    5  A    between atoms: C_21  and  C_27
                            x       y       z     vdW  Elec       q    Type
                         _______ _______ _______ _____ _____    ______ ____

>  <TORSDO>
F 5

$$$$
=
 OpenBabel11062422063D

 34 37  0  0  1  0  0  0  0  0999 V2000
  190.1190  176.9090  146.1980 C   0  0  0  0  0  2  0  0  0  0  0  0
  185.9690  177.2420  143.4230 C   0  0  0  0  0  3  0  0  0  0  0  0
  185.8850  177.6570  144.7150 N   0  0  0  0  0  0  0  0  0  0  0  0
  187.8630  176.4360  145.2900 C   0  0  0  0  0  0  0  0  0  0  0  0
  191.5390  174.2930  145.2980 C   0  0  0  0  0  3  0  0  0  0  0  0
  191.3230  176.2550  146.8640 C   0  0  0  0  0  0  0  0  0  0  0  0
  191.5900  172.3220  143.7880 C   0  0  0  0  0  0  0  0  0  0  0  0
  187.9680  176.0010  143.9590 C   0  0  0  0  0  0  0  0  0  0  0  0
  191.0640  173.7910  140.7260 C   0  0  0  0  0  1  0  0  0  0  0  0
  191.1940  176.0020  148.3540 C   0  0  0  0  0  2  0  0  0  0  0  0
  190.5700  172.7020  142.8540 N   0  0  0  0  0  0  0  0  0  0  0  0
  189.6930  171.7660  142.4180 O   0  0  0  0  0  1  0  0  0  0  0  0
  189.3030  174.7040  142.2180 C   0  0  0  0  0  2  0  0  0  0  0  0
  187.0120  176.4080  143.0220 C   0  0  0  0  0  3  0  0  0  0  0  0
  189.0600  175.1600  143.5760 N   0  0  0  0  0  2  0  0  0  0  0  0
  186.6630  177.7480  146.9890 N   0  0  0  0  0  1  0  0  0  0  0  0
  190.6410  173.9890  142.1680 C   0  0  2  0  0  3  0  0  0  0  0  0
  194.3140  174.2610  145.5750 C   0  0  0  0  0  3  0  0  0  0  0  0
  192.0440  177.1580  147.8460 C   0  0  0  0  0  2  0  0  0  0  0  0
  193.6890  173.3000  144.7630 C   0  0  0  0  0  0  0  0  0  0  0  0
  193.5580  175.2240  146.2430 C   0  0  0  0  0  3  0  0  0  0  0  0
  186.7990  177.2800  145.6490 C   0  0  0  0  0  0  0  0  0  0  0  0
  192.1600  175.2480  146.1140 C   0  0  0  0  0  0  0  0  0  0  0  0
  188.8890  176.0190  146.2990 C   0  0  0  0  0  2  0  0  0  0  0  0
  192.2900  173.3260  144.6150 C   0  0  0  0  0  0  0  0  0  0  0  0
  191.8870  171.1030  143.9160 O   0  0  0  0  0  0  0  0  0  0  0  0
  194.4410  172.3310  144.0890 O   0  0  0  0  0  0  0  0  0  0  0  0
  195.4180  172.6560  143.1070 C   0  0  0  0  0  2  0  0  0  0  0  0
  195.0560  172.6540  140.7600 O   0  0  0  0  0  1  0  0  0  0  0  0
  194.7510  173.3490  141.9310 C   0  0  2  0  0  3  0  0  0  0  0  0
  195.2240  174.8020  141.8220 C   0  0  1  0  0  3  0  0  0  0  0  0
  194.1060  175.7780  142.1590 C   0  0  0  0  0  1  0  0  0  0  0  0
  196.4030  176.4520  143.3490 C   0  0  0  0  0  1  0  0  0  0  0  0
  196.4570  175.0840  142.6830 C   0  0  0  0  0  2  0  0  0  0  0  0
  1 24  1  0  0  0  0
  1  6  1  0  0  0  0
  2  3  1  0  0  0  0
  3 22  2  0  0  0  0
  4 22  1  0  0  0  0
  4 24  1  0  0  0  0
  5 23  1  0  0  0  0
  6 19  1  0  0  0  0
  6 10  1  0  0  0  0
  7 26  2  0  0  0  0
  7 25  1  0  0  0  0
  8  4  2  0  0  0  0
 11  7  1  0  0  0  0
 12 11  1  0  0  0  0
 13 15  1  0  0  0  0
 14  2  2  0  0  0  0
 14  8  1  0  0  0  0
 15  8  1  0  0  0  0
 17  9  1  6  0  0  0
 17 13  1  0  0  0  0
 17 11  1  0  0  0  0
 18 21  1  0  0  0  0
 19 10  1  0  0  0  0
 20 18  2  0  0  0  0
 22 16  1  0  0  0  0
 23 21  2  0  0  0  0
 23  6  1  0  0  0  0
 25 20  1  0  0  0  0
 25  5  2  0  0  0  0
 27 20  1  0  0  0  0
 28 27  1  0  0  0  0
 30 29  1  6  0  0  0
 30 28  1  0  0  0  0
 31 30  1  0  0  0  0
 31 32  1  1  0  0  0
 31 34  1  0  0  0  0
 34 33  1  0  0  0  0
M  END
>  <MODEL>
8

>  <REMARK>
 VINA RESULT:      -7.4      2.385      4.345
  Name = 
  5 active torsions:
  status: ('A' for Active; 'I' for Inactive)
    1  A    between atoms: O_7  and  C_8
    2  A    between atoms: O_7  and  C_26
    3  A    between atoms: C_8  and  C_11
    4  A    between atoms: C_11  and  C_21
    5  A    between atoms: C_21  and  C_27
                            x       y       z     vdW  Elec       q    Type
                         _______ _______ _______ _____ _____    ______ ____

>  <TORSDO>
F 5

$$$$
=
 OpenBabel11062422063D

 34 37  0  0  1  0  0  0  0  0999 V2000
  192.6710  172.6710  142.1960 C   0  0  0  0  0  2  0  0  0  0  0  0
  196.6420  174.8030  144.3680 C   0  0  0  0  0  3  0  0  0  0  0  0
  196.7100  173.4660  144.1290 N   0  0  0  0  0  0  0  0  0  0  0  0
  194.3300  173.3310  143.9140 C   0  0  0  0  0  0  0  0  0  0  0  0
  190.1790  174.1020  143.3830 C   0  0  0  0  0  3  0  0  0  0  0  0
  191.2150  172.2660  142.0040 C   0  0  0  0  0  0  0  0  0  0  0  0
  189.2560  175.8630  144.8730 C   0  0  0  0  0  0  0  0  0  0  0  0
  194.2410  174.7110  144.1560 C   0  0  0  0  0  0  0  0  0  0  0  0
  191.1140  178.5970  143.9340 C   0  0  0  0  0  1  0  0  0  0  0  0
  190.8860  170.8210  142.3280 C   0  0  0  0  0  2  0  0  0  0  0  0
  190.4560  176.5930  145.1620 N   0  0  0  0  0  0  0  0  0  0  0  0
  190.6710  177.0350  146.4250 O   0  0  0  0  0  1  0  0  0  0  0  0
  192.7540  176.7740  144.3230 C   0  0  0  0  0  2  0  0  0  0  0  0
  195.4070  175.4490  144.3850 C   0  0  0  0  0  3  0  0  0  0  0  0
  192.9580  175.3460  144.1490 N   0  0  0  0  0  2  0  0  0  0  0  0
  195.7270  171.3240  143.6520 N   0  0  0  0  0  1  0  0  0  0  0  0
  191.2920  177.0980  144.0770 C   0  0  2  0  0  3  0  0  0  0  0  0
  187.9340  174.2000  141.7330 C   0  0  0  0  0  3  0  0  0  0  0  0
  191.0000  171.2720  140.8790 C   0  0  0  0  0  2  0  0  0  0  0  0
  188.0070  175.0470  142.8500 C   0  0  0  0  0  0  0  0  0  0  0  0
  188.9710  173.3120  141.4470 C   0  0  0  0  0  3  0  0  0  0  0  0
  195.5960  172.7210  143.9010 C   0  0  0  0  0  0  0  0  0  0  0  0
  190.1040  173.2510  142.2730 C   0  0  0  0  0  0  0  0  0  0  0  0
  193.0890  172.5320  143.6530 C   0  0  0  0  0  2  0  0  0  0  0  0
  189.1460  175.0040  143.6750 C   0  0  0  0  0  0  0  0  0  0  0  0
  188.2770  175.9440  145.6640 O   0  0  0  0  0  0  0  0  0  0  0  0
  186.9700  175.9420  143.1430 O   0  0  0  0  0  0  0  0  0  0  0  0
  186.3910  176.7990  142.1670 C   0  0  0  0  0  2  0  0  0  0  0  0
  184.8260  178.5620  141.8820 O   0  0  0  0  0  1  0  0  0  0  0  0
  185.2640  177.6010  142.7950 C   0  0  2  0  0  3  0  0  0  0  0  0
  185.7360  178.2750  144.0870 C   0  0  1  0  0  3  0  0  0  0  0  0
  185.5340  179.7820  144.0340 C   0  0  0  0  0  1  0  0  0  0  0  0
  184.0610  178.6480  145.9590 C   0  0  0  0  0  1  0  0  0  0  0  0
  185.0660  177.6900  145.3330 C   0  0  0  0  0  2  0  0  0  0  0  0
  1 24  1  0  0  0  0
  2 14  1  0  0  0  0
  3  2  2  0  0  0  0
  4  8  1  0  0  0  0
  5 25  1  0  0  0  0
  6  1  1  0  0  0  0
  6 23  1  0  0  0  0
  6 10  1  0  0  0  0
  7 11  1  0  0  0  0
  7 26  2  0  0  0  0
  8 14  2  0  0  0  0
 11 12  1  0  0  0  0
 15  8  1  0  0  0  0
 15 13  1  0  0  0  0
 16 22  1  0  0  0  0
 17  9  1  1  0  0  0
 17 13  1  0  0  0  0
 17 11  1  0  0  0  0
 18 20  1  0  0  0  0
 19  6  1  0  0  0  0
 19 10  1  0  0  0  0
 20 27  1  0  0  0  0
 20 25  2  0  0  0  0
 21 18  2  0  0  0  0
 21 23  1  0  0  0  0
 22  4  2  0  0  0  0
 22  3  1  0  0  0  0
 23  5  2  0  0  0  0
 24  4  1  0  0  0  0
 25  7  1  0  0  0  0
 28 30  1  0  0  0  0
 28 27  1  0  0  0  0
 30 29  1  6  0  0  0
 30 31  1  0  0  0  0
 31 32  1  6  0  0  0
 31 34  1  0  0  0  0
 34 33  1  0  0  0  0
M  END
>  <MODEL>
9

>  <REMARK>
 VINA RESULT:      -7.4      3.222      8.626
  Name = 
  5 active torsions:
  status: ('A' for Active; 'I' for Inactive)
    1  A    between atoms: O_7  and  C_8
    2  A    between atoms: O_7  and  C_26
    3  A    between atoms: C_8  and  C_11
    4  A    between atoms: C_11  and  C_21
    5  A    between atoms: C_21  and  C_27
                            x       y       z     vdW  Elec       q    Type
                         _______ _______ _______ _____ _____    ______ ____

>  <TORSDO>
F 5

$$$$
