=
 OpenBabel11062423103D

 28 31  0  0  1  0  0  0  0  0999 V2000
  194.1480  176.1420  146.4840 C   0  0  0  0  0  3  0  0  0  0  0  0
  192.7690  176.3460  146.4990 C   0  0  0  0  0  3  0  0  0  0  0  0
  190.1070  177.3470  147.6600 C   0  0  0  0  0  1  0  0  0  0  0  0
  189.9140  175.8750  143.1600 C   0  0  1  0  0  3  0  0  0  0  0  0
  190.4670  175.8760  145.6730 C   0  0  0  0  0  0  0  0  0  0  0  0
  194.6850  175.2070  145.6020 C   0  0  0  0  0  3  0  0  0  0  0  0
  189.6760  176.0650  146.9350 C   0  0  2  0  0  3  0  0  0  0  0  0
  192.5160  174.6670  144.7870 C   0  0  0  0  0  0  0  0  0  0  0  0
  188.2520  176.0400  146.5070 N   0  0  0  0  0  0  0  0  0  0  0  0
  191.5230  173.6660  143.6910 S   0  0  0  0  0  0  0  0  0  0  0  0
  189.6190  175.8990  144.6490 C   0  0  0  0  0  0  0  0  0  0  0  0
  193.8670  174.4970  144.7820 N   0  0  0  0  0  0  0  0  0  0  0  0
  191.1810  175.1420  142.6980 C   0  0  0  0  0  2  0  0  0  0  0  0
  188.3340  176.0420  145.1310 O   0  0  0  0  0  0  0  0  0  0  0  0
  191.9300  175.6260  145.6380 C   0  0  0  0  0  0  0  0  0  0  0  0
  188.9860  174.5460  141.1910 C   0  0  0  0  0  1  0  0  0  0  0  0
  188.6730  175.4950  142.3400 C   0  0  2  0  0  3  0  0  0  0  0  0
  186.7090  176.5960  141.5620 O   0  0  0  0  0  0  0  0  0  0  0  0
  188.5570  177.9340  141.7730 O   0  0  0  0  0  1  0  0  0  0  0  0
  187.9270  176.6980  141.8620 C   0  0  0  0  0  0  0  0  0  0  0  0
  187.4730  177.2190  146.8920 C   0  0  0  0  0  2  0  0  0  0  0  0
  185.6220  179.0950  144.0210 C   0  0  0  0  0  2  0  0  0  0  0  0
  184.1030  178.4050  145.8870 C   0  0  0  0  0  3  0  0  0  0  0  0
  186.3630  177.4660  145.8840 C   0  0  1  0  0  3  0  0  0  0  0  0
  184.2460  178.5260  144.3970 C   0  0  1  0  0  3  0  0  0  0  0  0
  185.1150  177.8970  146.5970 C   0  0  0  0  0  3  0  0  0  0  0  0
  186.7890  178.5300  144.8610 C   0  0  0  0  0  2  0  0  0  0  0  0
  183.2460  179.3350  143.8910 F   0  0  0  0  0  0  0  0  0  0  0  0
  1  2  1  0  0  0  0
  4 17  1  6  0  0  0
  4 11  1  0  0  0  0
  5  7  1  0  0  0  0
  6  1  2  0  0  0  0
  7  3  1  6  0  0  0
  8 15  1  0  0  0  0
  9 21  1  0  0  0  0
  9  7  1  0  0  0  0
 10  8  1  0  0  0  0
 11 14  1  0  0  0  0
 11  5  2  0  0  0  0
 12  8  2  0  0  0  0
 12  6  1  0  0  0  0
 13  4  1  0  0  0  0
 13 10  1  0  0  0  0
 14  9  1  0  0  0  0
 15  5  1  0  0  0  0
 15  2  2  0  0  0  0
 17 16  1  6  0  0  0
 18 20  2  0  0  0  0
 19 20  1  0  0  0  0
 20 17  1  0  0  0  0
 22 25  1  0  0  0  0
 22 27  1  0  0  0  0
 23 26  2  0  0  0  0
 24 26  1  0  0  0  0
 24 21  1  1  0  0  0
 25 28  1  1  0  0  0
 25 23  1  0  0  0  0
 27 24  1  0  0  0  0
M  END
>  <MODEL>
1

>  <REMARK>
 VINA RESULT:      -7.9      0.000      0.000
  Name = 
  4 active torsions:
  status: ('A' for Active; 'I' for Inactive)
    1  A    between atoms: C_6  and  C_11
    2  A    between atoms: C_7  and  C_8
    3  A    between atoms: C_7  and  N_20
    4  A    between atoms: C_11  and  C_18
                            x       y       z     vdW  Elec       q    Type
                         _______ _______ _______ _____ _____    ______ ____

>  <TORSDO>
F 4

$$$$
=
 OpenBabel11062423103D

 28 31  0  0  1  0  0  0  0  0999 V2000
  185.5000  179.1510  145.4600 C   0  0  0  0  0  3  0  0  0  0  0  0
  186.6010  178.3050  145.5880 C   0  0  0  0  0  3  0  0  0  0  0  0
  188.8850  176.9030  147.0890 C   0  0  0  0  0  1  0  0  0  0  0  0
  188.0490  175.2730  142.7190 C   0  0  1  0  0  3  0  0  0  0  0  0
  188.4570  176.9490  144.6280 C   0  0  0  0  0  0  0  0  0  0  0  0
  185.0980  179.5520  144.1880 C   0  0  0  0  0  3  0  0  0  0  0  0
  189.4980  177.1090  145.6980 C   0  0  2  0  0  3  0  0  0  0  0  0
  186.8710  178.3180  143.1930 C   0  0  0  0  0  0  0  0  0  0  0  0
  190.5710  176.1430  145.3400 N   0  0  0  0  0  0  0  0  0  0  0  0
  187.7240  177.8430  141.6970 S   0  0  0  0  0  0  0  0  0  0  0  0
  188.8120  175.9260  143.8590 C   0  0  0  0  0  0  0  0  0  0  0  0
  185.7850  179.1320  143.0930 N   0  0  0  0  0  0  0  0  0  0  0  0
  187.0930  176.1570  141.9050 C   0  0  0  0  0  2  0  0  0  0  0  0
  190.0200  175.4260  144.3010 O   0  0  0  0  0  0  0  0  0  0  0  0
  187.2950  177.8580  144.4570 C   0  0  0  0  0  0  0  0  0  0  0  0
  188.5930  174.4700  140.3600 C   0  0  0  0  0  1  0  0  0  0  0  0
  188.9680  174.4170  141.8350 C   0  0  2  0  0  3  0  0  0  0  0  0
  188.0160  172.3140  142.4230 O   0  0  0  0  0  0  0  0  0  0  0  0
  190.2930  172.4460  142.6370 O   0  0  0  0  0  1  0  0  0  0  0  0
  189.0610  173.0080  142.3220 C   0  0  0  0  0  0  0  0  0  0  0  0
  190.9110  175.1830  146.3920 C   0  0  0  0  0  2  0  0  0  0  0  0
  194.6080  176.3700  146.0640 C   0  0  0  0  0  2  0  0  0  0  0  0
  194.2810  173.9750  145.4140 C   0  0  0  0  0  3  0  0  0  0  0  0
  192.4190  175.0870  146.5480 C   0  0  1  0  0  3  0  0  0  0  0  0
  195.1790  174.9450  146.1250 C   0  0  1  0  0  3  0  0  0  0  0  0
  192.9610  174.0420  145.6180 C   0  0  0  0  0  3  0  0  0  0  0  0
  193.0790  176.4460  146.2700 C   0  0  0  0  0  2  0  0  0  0  0  0
  196.4420  174.9180  145.5650 F   0  0  0  0  0  0  0  0  0  0  0  0
  1  2  1  0  0  0  0
  4 17  1  6  0  0  0
  4 11  1  0  0  0  0
  5  7  1  0  0  0  0
  6  1  2  0  0  0  0
  7  3  1  1  0  0  0
  8 15  1  0  0  0  0
  9  7  1  0  0  0  0
  9 21  1  0  0  0  0
 10 13  1  0  0  0  0
 10  8  1  0  0  0  0
 11 14  1  0  0  0  0
 11  5  2  0  0  0  0
 12  8  2  0  0  0  0
 12  6  1  0  0  0  0
 13  4  1  0  0  0  0
 14  9  1  0  0  0  0
 15  5  1  0  0  0  0
 15  2  2  0  0  0  0
 17 16  1  6  0  0  0
 17 20  1  0  0  0  0
 20 18  2  0  0  0  0
 20 19  1  0  0  0  0
 22 25  1  0  0  0  0
 22 27  1  0  0  0  0
 23 26  2  0  0  0  0
 23 25  1  0  0  0  0
 24 21  1  6  0  0  0
 25 28  1  6  0  0  0
 26 24  1  0  0  0  0
 27 24  1  0  0  0  0
M  END
>  <MODEL>
2

>  <REMARK>
 VINA RESULT:      -7.9      3.493      6.784
  Name = 
  4 active torsions:
  status: ('A' for Active; 'I' for Inactive)
    1  A    between atoms: C_6  and  C_11
    2  A    between atoms: C_7  and  C_8
    3  A    between atoms: C_7  and  N_20
    4  A    between atoms: C_11  and  C_18
                            x       y       z     vdW  Elec       q    Type
                         _______ _______ _______ _____ _____    ______ ____

>  <TORSDO>
F 4

$$$$
=
 OpenBabel11062423103D

 28 31  0  0  1  0  0  0  0  0999 V2000
  185.0080  178.0570  147.2770 C   0  0  0  0  0  3  0  0  0  0  0  0
  186.2330  177.6440  146.7560 C   0  0  0  0  0  3  0  0  0  0  0  0
  189.1480  176.6860  146.9010 C   0  0  0  0  0  1  0  0  0  0  0  0
  187.1530  176.4250  142.6110 C   0  0  1  0  0  3  0  0  0  0  0  0
  187.8580  177.4010  144.8840 C   0  0  0  0  0  0  0  0  0  0  0  0
  184.0970  178.6970  146.4400 C   0  0  0  0  0  3  0  0  0  0  0  0
  189.1570  177.5380  145.6250 C   0  0  2  0  0  3  0  0  0  0  0  0
  185.6080  178.5450  144.6100 C   0  0  0  0  0  0  0  0  0  0  0  0
  190.2060  177.1730  144.6380 N   0  0  0  0  0  0  0  0  0  0  0  0
  185.9410  178.9160  142.8940 S   0  0  0  0  0  0  0  0  0  0  0  0
  188.1190  176.8780  143.6910 C   0  0  0  0  0  0  0  0  0  0  0  0
  184.4130  178.9260  145.1390 N   0  0  0  0  0  0  0  0  0  0  0  0
  185.8030  177.1490  142.5150 C   0  0  0  0  0  2  0  0  0  0  0  0
  189.4820  176.7000  143.5650 O   0  0  0  0  0  0  0  0  0  0  0  0
  186.5480  177.8640  145.4090 C   0  0  0  0  0  0  0  0  0  0  0  0
  187.0660  176.9160  140.1090 C   0  0  0  0  0  1  0  0  0  0  0  0
  187.8490  176.2780  141.2490 C   0  0  2  0  0  3  0  0  0  0  0  0
  188.5630  174.5410  139.7850 O   0  0  0  0  0  0  0  0  0  0  0  0
  188.1320  173.8850  141.9370 O   0  0  0  0  0  1  0  0  0  0  0  0
  188.1910  174.8570  140.9450 C   0  0  0  0  0  0  0  0  0  0  0  0
  191.1000  176.0930  145.0610 C   0  0  0  0  0  2  0  0  0  0  0  0
  194.5160  175.6970  143.2280 C   0  0  0  0  0  2  0  0  0  0  0  0
  194.7570  176.0880  145.6890 C   0  0  0  0  0  3  0  0  0  0  0  0
  192.5390  176.4370  144.7170 C   0  0  1  0  0  3  0  0  0  0  0  0
  195.3080  176.4150  144.3310 C   0  0  1  0  0  3  0  0  0  0  0  0
  193.4340  176.1000  145.8730 C   0  0  0  0  0  3  0  0  0  0  0  0
  192.9880  175.6850  143.4540 C   0  0  0  0  0  2  0  0  0  0  0  0
  196.6410  176.0590  144.2630 F   0  0  0  0  0  0  0  0  0  0  0  0
  2  1  1  0  0  0  0
  4 17  1  6  0  0  0
  4 11  1  0  0  0  0
  5 15  1  0  0  0  0
  5  7  1  0  0  0  0
  6  1  2  0  0  0  0
  7  3  1  1  0  0  0
  8 12  2  0  0  0  0
  8 15  1  0  0  0  0
  9 21  1  0  0  0  0
  9  7  1  0  0  0  0
 10  8  1  0  0  0  0
 11  5  2  0  0  0  0
 12  6  1  0  0  0  0
 13  4  1  0  0  0  0
 13 10  1  0  0  0  0
 14 11  1  0  0  0  0
 14  9  1  0  0  0  0
 15  2  2  0  0  0  0
 17 16  1  6  0  0  0
 18 20  2  0  0  0  0
 20 17  1  0  0  0  0
 20 19  1  0  0  0  0
 22 27  1  0  0  0  0
 22 25  1  0  0  0  0
 23 26  2  0  0  0  0
 24 21  1  1  0  0  0
 24 26  1  0  0  0  0
 25 28  1  1  0  0  0
 25 23  1  0  0  0  0
 27 24  1  0  0  0  0
M  END
>  <MODEL>
3

>  <REMARK>
 VINA RESULT:      -7.8      3.531      6.940
  Name = 
  4 active torsions:
  status: ('A' for Active; 'I' for Inactive)
    1  A    between atoms: C_6  and  C_11
    2  A    between atoms: C_7  and  C_8
    3  A    between atoms: C_7  and  N_20
    4  A    between atoms: C_11  and  C_18
                            x       y       z     vdW  Elec       q    Type
                         _______ _______ _______ _____ _____    ______ ____

>  <TORSDO>
F 4

$$$$
=
 OpenBabel11062423103D

 28 31  0  0  1  0  0  0  0  0999 V2000
  185.0030  178.1230  147.2660 C   0  0  0  0  0  3  0  0  0  0  0  0
  186.2240  177.6910  146.7520 C   0  0  0  0  0  3  0  0  0  0  0  0
  189.1320  176.7160  146.9110 C   0  0  0  0  0  1  0  0  0  0  0  0
  187.1290  176.3800  142.6310 C   0  0  1  0  0  3  0  0  0  0  0  0
  187.8440  177.3980  144.8820 C   0  0  0  0  0  0  0  0  0  0  0  0
  184.0950  178.7530  146.4170 C   0  0  0  0  0  3  0  0  0  0  0  0
  189.1450  177.5410  145.6190 C   0  0  2  0  0  3  0  0  0  0  0  0
  185.6020  178.5520  144.5870 C   0  0  0  0  0  0  0  0  0  0  0  0
  190.1910  177.1480  144.6370 N   0  0  0  0  0  0  0  0  0  0  0  0
  185.9350  178.8850  142.8640 S   0  0  0  0  0  0  0  0  0  0  0  0
  188.1000  176.8480  143.7000 C   0  0  0  0  0  0  0  0  0  0  0  0
  184.4110  178.9520  145.1100 N   0  0  0  0  0  0  0  0  0  0  0  0
  185.7840  177.1120  142.5220 C   0  0  0  0  0  2  0  0  0  0  0  0
  189.4620  176.6590  143.5750 O   0  0  0  0  0  0  0  0  0  0  0  0
  186.5390  177.8810  145.4000 C   0  0  0  0  0  0  0  0  0  0  0  0
  187.0220  176.7850  140.1140 C   0  0  0  0  0  1  0  0  0  0  0  0
  187.8220  176.2010  141.2710 C   0  0  2  0  0  3  0  0  0  0  0  0
  188.7360  174.4620  139.9250 O   0  0  0  0  0  0  0  0  0  0  0  0
  187.9610  173.7990  141.9760 O   0  0  0  0  0  1  0  0  0  0  0  0
  188.1900  174.7760  141.0130 C   0  0  0  0  0  0  0  0  0  0  0  0
  191.0770  176.0710  145.0810 C   0  0  0  0  0  2  0  0  0  0  0  0
  190.0710  172.3320  144.6420 C   0  0  0  0  0  2  0  0  0  0  0  0
  192.0460  172.9910  143.2520 C   0  0  0  0  0  3  0  0  0  0  0  0
  190.7780  174.7950  144.3140 C   0  0  1  0  0  3  0  0  0  0  0  0
  190.7730  172.1960  143.2820 C   0  0  1  0  0  3  0  0  0  0  0  0
  192.0480  174.2340  143.7440 C   0  0  0  0  0  3  0  0  0  0  0  0
  190.0980  173.7620  145.2250 C   0  0  0  0  0  2  0  0  0  0  0  0
  191.0390  170.8660  143.0200 F   0  0  0  0  0  0  0  0  0  0  0  0
  2  1  1  0  0  0  0
  4 17  1  6  0  0  0
  4 11  1  0  0  0  0
  5 15  1  0  0  0  0
  5  7  1  0  0  0  0
  6  1  2  0  0  0  0
  7  3  1  1  0  0  0
  8 12  2  0  0  0  0
  8 15  1  0  0  0  0
  9 21  1  0  0  0  0
  9  7  1  0  0  0  0
 10  8  1  0  0  0  0
 11  5  2  0  0  0  0
 12  6  1  0  0  0  0
 13  4  1  0  0  0  0
 13 10  1  0  0  0  0
 14 11  1  0  0  0  0
 14  9  1  0  0  0  0
 15  2  2  0  0  0  0
 17 16  1  6  0  0  0
 18 20  2  0  0  0  0
 20 17  1  0  0  0  0
 20 19  1  0  0  0  0
 22 27  1  0  0  0  0
 23 25  1  0  0  0  0
 23 26  2  0  0  0  0
 24 21  1  1  0  0  0
 24 27  1  0  0  0  0
 25 28  1  1  0  0  0
 25 22  1  0  0  0  0
 26 24  1  0  0  0  0
M  END
>  <MODEL>
4

>  <REMARK>
 VINA RESULT:      -7.6      3.336      6.481
  Name = 
  4 active torsions:
  status: ('A' for Active; 'I' for Inactive)
    1  A    between atoms: C_6  and  C_11
    2  A    between atoms: C_7  and  C_8
    3  A    between atoms: C_7  and  N_20
    4  A    between atoms: C_11  and  C_18
                            x       y       z     vdW  Elec       q    Type
                         _______ _______ _______ _____ _____    ______ ____

>  <TORSDO>
F 4

$$$$
=
 OpenBabel11062423103D

 28 31  0  0  1  0  0  0  0  0999 V2000
  190.0040  172.6290  140.3590 C   0  0  0  0  0  3  0  0  0  0  0  0
  189.4220  173.7600  140.9280 C   0  0  0  0  0  3  0  0  0  0  0  0
  187.3820  176.0470  141.1320 C   0  0  0  0  0  1  0  0  0  0  0  0
  190.1200  175.4460  144.9520 C   0  0  1  0  0  3  0  0  0  0  0  0
  189.4580  175.7080  142.4790 C   0  0  0  0  0  0  0  0  0  0  0  0
  191.2880  172.2560  140.7530 C   0  0  0  0  0  3  0  0  0  0  0  0
  188.6500  176.7020  141.6960 C   0  0  2  0  0  3  0  0  0  0  0  0
  191.4210  174.1180  142.2280 C   0  0  0  0  0  0  0  0  0  0  0  0
  188.4060  177.8290  142.6340 N   0  0  0  0  0  0  0  0  0  0  0  0
  192.3970  175.0460  143.4010 S   0  0  0  0  0  0  0  0  0  0  0  0
  189.5290  176.1370  143.7360 C   0  0  0  0  0  0  0  0  0  0  0  0
  191.9620  173.0010  141.6680 N   0  0  0  0  0  0  0  0  0  0  0  0
  191.2930  174.4830  144.7220 C   0  0  0  0  0  2  0  0  0  0  0  0
  188.8760  177.3480  143.8370 O   0  0  0  0  0  0  0  0  0  0  0  0
  190.1120  174.5150  141.8860 C   0  0  0  0  0  0  0  0  0  0  0  0
  191.5350  176.0190  146.9950 C   0  0  0  0  0  1  0  0  0  0  0  0
  190.3750  176.4340  146.1000 C   0  0  2  0  0  3  0  0  0  0  0  0
  188.8750  177.8720  147.2630 O   0  0  0  0  0  1  0  0  0  0  0  0
  188.2660  175.6640  147.2150 O   0  0  0  0  0  0  0  0  0  0  0  0
  189.1410  176.6980  146.8980 C   0  0  0  0  0  0  0  0  0  0  0  0
  186.9960  178.1720  142.8300 C   0  0  0  0  0  2  0  0  0  0  0  0
  185.2460  176.9250  146.0810 C   0  0  0  0  0  2  0  0  0  0  0  0
  185.1920  179.4140  145.8260 C   0  0  0  0  0  3  0  0  0  0  0  0
  186.6560  178.1700  144.3110 C   0  0  1  0  0  3  0  0  0  0  0  0
  185.3740  178.2800  146.7930 C   0  0  1  0  0  3  0  0  0  0  0  0
  185.8070  179.3620  144.6400 C   0  0  0  0  0  3  0  0  0  0  0  0
  185.9310  176.8710  144.6980 C   0  0  0  0  0  2  0  0  0  0  0  0
  184.4400  178.3690  147.8080 F   0  0  0  0  0  0  0  0  0  0  0  0
  1  6  2  0  0  0  0
  1  2  1  0  0  0  0
  2 15  2  0  0  0  0
  4 17  1  1  0  0  0
  5 11  2  0  0  0  0
  6 12  1  0  0  0  0
  7  3  1  1  0  0  0
  7  5  1  0  0  0  0
  7  9  1  0  0  0  0
  8 10  1  0  0  0  0
  9 21  1  0  0  0  0
  9 14  1  0  0  0  0
 10 13  1  0  0  0  0
 11 14  1  0  0  0  0
 11  4  1  0  0  0  0
 12  8  2  0  0  0  0
 13  4  1  0  0  0  0
 15  8  1  0  0  0  0
 15  5  1  0  0  0  0
 17 20  1  0  0  0  0
 17 16  1  1  0  0  0
 20 19  2  0  0  0  0
 20 18  1  0  0  0  0
 22 25  1  0  0  0  0
 23 25  1  0  0  0  0
 24 21  1  6  0  0  0
 24 26  1  0  0  0  0
 24 27  1  0  0  0  0
 25 28  1  1  0  0  0
 26 23  2  0  0  0  0
 27 22  1  0  0  0  0
M  END
>  <MODEL>
5

>  <REMARK>
 VINA RESULT:      -7.5      2.045      4.452
  Name = 
  4 active torsions:
  status: ('A' for Active; 'I' for Inactive)
    1  A    between atoms: C_6  and  C_11
    2  A    between atoms: C_7  and  C_8
    3  A    between atoms: C_7  and  N_20
    4  A    between atoms: C_11  and  C_18
                            x       y       z     vdW  Elec       q    Type
                         _______ _______ _______ _____ _____    ______ ____

>  <TORSDO>
F 4

$$$$
=
 OpenBabel11062423103D

 28 31  0  0  1  0  0  0  0  0999 V2000
  194.5640  176.6450  145.2480 C   0  0  0  0  0  3  0  0  0  0  0  0
  193.2080  176.6470  144.9260 C   0  0  0  0  0  3  0  0  0  0  0  0
  190.3990  177.8660  144.6790 C   0  0  0  0  0  1  0  0  0  0  0  0
  190.9810  173.6950  142.5090 C   0  0  1  0  0  3  0  0  0  0  0  0
  191.0810  175.4840  144.3540 C   0  0  0  0  0  0  0  0  0  0  0  0
  195.2340  175.4270  145.3520 C   0  0  0  0  0  3  0  0  0  0  0  0
  190.0820  176.4000  145.0010 C   0  0  2  0  0  3  0  0  0  0  0  0
  193.2350  174.2370  144.8550 C   0  0  0  0  0  0  0  0  0  0  0  0
  188.7560  175.9290  144.5210 N   0  0  0  0  0  0  0  0  0  0  0  0
  192.4350  172.6550  144.6440 S   0  0  0  0  0  0  0  0  0  0  0  0
  190.4280  174.7030  143.5000 C   0  0  0  0  0  0  0  0  0  0  0  0
  194.5620  174.2620  145.1560 N   0  0  0  0  0  0  0  0  0  0  0  0
  192.2980  172.9920  142.8690 C   0  0  0  0  0  2  0  0  0  0  0  0
  189.0800  174.9930  143.5620 O   0  0  0  0  0  0  0  0  0  0  0  0
  192.5230  175.4450  144.7060 C   0  0  0  0  0  0  0  0  0  0  0  0
  190.2920  171.2590  142.1970 C   0  0  0  0  0  1  0  0  0  0  0  0
  189.8980  172.7190  142.0240 C   0  0  2  0  0  3  0  0  0  0  0  0
  189.6530  172.1370  139.7280 O   0  0  0  0  0  0  0  0  0  0  0  0
  188.8570  174.2080  140.2970 O   0  0  0  0  0  1  0  0  0  0  0  0
  189.4740  173.0050  140.6210 C   0  0  0  0  0  0  0  0  0  0  0  0
  187.9400  176.9510  143.8640 C   0  0  0  0  0  2  0  0  0  0  0  0
  185.1260  179.0500  145.5540 C   0  0  0  0  0  2  0  0  0  0  0  0
  185.9430  177.1660  146.9840 C   0  0  0  0  0  3  0  0  0  0  0  0
  186.6570  177.1800  144.6430 C   0  0  1  0  0  3  0  0  0  0  0  0
  184.7330  177.9300  146.5290 C   0  0  1  0  0  3  0  0  0  0  0  0
  186.8610  176.8060  146.0820 C   0  0  0  0  0  3  0  0  0  0  0  0
  186.2080  178.6450  144.5290 C   0  0  0  0  0  2  0  0  0  0  0  0
  184.0730  178.4630  147.6190 F   0  0  0  0  0  0  0  0  0  0  0  0
  1  6  1  0  0  0  0
  2  1  2  0  0  0  0
  4 17  1  1  0  0  0
  4 13  1  0  0  0  0
  4 11  1  0  0  0  0
  5 15  1  0  0  0  0
  5  7  1  0  0  0  0
  7  3  1  6  0  0  0
  8 12  1  0  0  0  0
  9  7  1  0  0  0  0
 10  8  1  0  0  0  0
 11 14  1  0  0  0  0
 11  5  2  0  0  0  0
 12  6  2  0  0  0  0
 13 10  1  0  0  0  0
 14  9  1  0  0  0  0
 15  8  2  0  0  0  0
 15  2  1  0  0  0  0
 17 16  1  6  0  0  0
 18 20  2  0  0  0  0
 19 20  1  0  0  0  0
 20 17  1  0  0  0  0
 21  9  1  0  0  0  0
 22 25  1  0  0  0  0
 24 21  1  6  0  0  0
 24 26  1  0  0  0  0
 25 23  1  0  0  0  0
 25 28  1  1  0  0  0
 26 23  2  0  0  0  0
 27 24  1  0  0  0  0
 27 22  1  0  0  0  0
M  END
>  <MODEL>
6

>  <REMARK>
 VINA RESULT:      -7.2      2.118      2.562
  Name = 
  4 active torsions:
  status: ('A' for Active; 'I' for Inactive)
    1  A    between atoms: C_6  and  C_11
    2  A    between atoms: C_7  and  C_8
    3  A    between atoms: C_7  and  N_20
    4  A    between atoms: C_11  and  C_18
                            x       y       z     vdW  Elec       q    Type
                         _______ _______ _______ _____ _____    ______ ____

>  <TORSDO>
F 4

$$$$
=
 OpenBabel11062423103D

 28 31  0  0  1  0  0  0  0  0999 V2000
  184.4490  178.7340  146.0410 C   0  0  0  0  0  3  0  0  0  0  0  0
  185.2140  178.1300  145.0440 C   0  0  0  0  0  3  0  0  0  0  0  0
  185.8050  177.1200  142.2040 C   0  0  0  0  0  1  0  0  0  0  0  0
  189.5180  177.1380  145.1460 C   0  0  1  0  0  3  0  0  0  0  0  0
  187.1290  176.7280  144.2860 C   0  0  0  0  0  0  0  0  0  0  0  0
  184.8040  178.5470  147.3750 C   0  0  0  0  0  3  0  0  0  0  0  0
  186.5340  176.0830  143.0680 C   0  0  2  0  0  3  0  0  0  0  0  0
  186.6290  177.1600  146.7380 C   0  0  0  0  0  0  0  0  0  0  0  0
  187.6720  175.4010  142.3970 N   0  0  0  0  0  0  0  0  0  0  0  0
  188.0000  176.1390  147.2560 S   0  0  0  0  0  0  0  0  0  0  0  0
  188.4470  176.5710  144.2320 C   0  0  0  0  0  0  0  0  0  0  0  0
  185.8750  177.7720  147.6920 N   0  0  0  0  0  0  0  0  0  0  0  0
  189.1400  177.3920  146.6130 C   0  0  0  0  0  2  0  0  0  0  0  0
  188.7690  175.8390  143.1070 O   0  0  0  0  0  0  0  0  0  0  0  0
  186.3290  177.3480  145.3730 C   0  0  0  0  0  0  0  0  0  0  0  0
  191.4400  175.9490  146.3290 C   0  0  0  0  0  1  0  0  0  0  0  0
  190.8510  176.3900  144.9960 C   0  0  2  0  0  3  0  0  0  0  0  0
  193.0310  176.7620  144.1110 O   0  0  0  0  0  1  0  0  0  0  0  0
  191.4590  178.3180  143.5130 O   0  0  0  0  0  0  0  0  0  0  0  0
  191.8430  177.1670  144.1940 C   0  0  0  0  0  0  0  0  0  0  0  0
  187.8840  175.7870  141.0000 C   0  0  0  0  0  2  0  0  0  0  0  0
  188.5700  173.2440  138.1290 C   0  0  0  0  0  2  0  0  0  0  0  0
  188.9030  172.2680  140.4100 C   0  0  0  0  0  3  0  0  0  0  0  0
  188.6420  174.6970  140.2630 C   0  0  1  0  0  3  0  0  0  0  0  0
  189.4360  172.3280  139.0080 C   0  0  1  0  0  3  0  0  0  0  0  0
  188.5250  173.4010  141.0100 C   0  0  0  0  0  3  0  0  0  0  0  0
  188.1090  174.5400  138.8310 C   0  0  0  0  0  2  0  0  0  0  0  0
  189.4810  171.0590  138.4640 F   0  0  0  0  0  0  0  0  0  0  0  0
  1  6  1  0  0  0  0
  2 15  1  0  0  0  0
  2  1  2  0  0  0  0
  4 17  1  1  0  0  0
  4 13  1  0  0  0  0
  5 15  1  0  0  0  0
  6 12  2  0  0  0  0
  7  3  1  6  0  0  0
  7  5  1  0  0  0  0
  8 10  1  0  0  0  0
  8 12  1  0  0  0  0
  9  7  1  0  0  0  0
  9 14  1  0  0  0  0
 11  5  2  0  0  0  0
 11  4  1  0  0  0  0
 13 10  1  0  0  0  0
 14 11  1  0  0  0  0
 15  8  2  0  0  0  0
 17 16  1  1  0  0  0
 18 20  1  0  0  0  0
 19 20  2  0  0  0  0
 20 17  1  0  0  0  0
 21  9  1  0  0  0  0
 22 27  1  0  0  0  0
 22 25  1  0  0  0  0
 23 26  2  0  0  0  0
 24 21  1  1  0  0  0
 24 26  1  0  0  0  0
 25 28  1  6  0  0  0
 25 23  1  0  0  0  0
 27 24  1  0  0  0  0
M  END
>  <MODEL>
7

>  <REMARK>
 VINA RESULT:      -7.2      3.278      6.902
  Name = 
  4 active torsions:
  status: ('A' for Active; 'I' for Inactive)
    1  A    between atoms: C_6  and  C_11
    2  A    between atoms: C_7  and  C_8
    3  A    between atoms: C_7  and  N_20
    4  A    between atoms: C_11  and  C_18
                            x       y       z     vdW  Elec       q    Type
                         _______ _______ _______ _____ _____    ______ ____

>  <TORSDO>
F 4

$$$$
=
 OpenBabel11062423103D

 28 31  0  0  1  0  0  0  0  0999 V2000
  185.0920  178.2410  147.1040 C   0  0  0  0  0  3  0  0  0  0  0  0
  186.3930  177.8820  146.7540 C   0  0  0  0  0  3  0  0  0  0  0  0
  189.3890  177.4210  147.2470 C   0  0  0  0  0  1  0  0  0  0  0  0
  187.7440  175.7430  143.1330 C   0  0  1  0  0  3  0  0  0  0  0  0
  188.1600  177.3810  145.0720 C   0  0  0  0  0  0  0  0  0  0  0  0
  184.1660  178.4980  146.0950 C   0  0  0  0  0  3  0  0  0  0  0  0
  189.3770  177.8940  145.7880 C   0  0  2  0  0  3  0  0  0  0  0  0
  185.8070  178.0790  144.4240 C   0  0  0  0  0  0  0  0  0  0  0  0
  190.5300  177.4300  144.9710 N   0  0  0  0  0  0  0  0  0  0  0  0
  186.2070  178.0210  142.6850 S   0  0  0  0  0  0  0  0  0  0  0  0
  188.5680  176.6000  144.0770 C   0  0  0  0  0  0  0  0  0  0  0  0
  184.5390  178.4140  144.7910 N   0  0  0  0  0  0  0  0  0  0  0  0
  186.3220  176.2170  142.7990 C   0  0  0  0  0  2  0  0  0  0  0  0
  189.9480  176.5910  144.0470 O   0  0  0  0  0  0  0  0  0  0  0  0
  186.7690  177.7760  145.4090 C   0  0  0  0  0  0  0  0  0  0  0  0
  187.8270  175.6690  140.5840 C   0  0  0  0  0  1  0  0  0  0  0  0
  188.5450  175.3380  141.8860 C   0  0  2  0  0  3  0  0  0  0  0  0
  189.5760  173.4640  142.9330 O   0  0  0  0  0  1  0  0  0  0  0  0
  188.6510  173.0450  140.8800 O   0  0  0  0  0  0  0  0  0  0  0  0
  188.9610  173.9040  141.9280 C   0  0  0  0  0  0  0  0  0  0  0  0
  191.5230  176.6410  145.7020 C   0  0  0  0  0  2  0  0  0  0  0  0
  193.5720  173.4500  144.8050 C   0  0  0  0  0  2  0  0  0  0  0  0
  194.1440  175.4230  143.3740 C   0  0  0  0  0  3  0  0  0  0  0  0
  192.1520  175.6080  144.7830 C   0  0  1  0  0  3  0  0  0  0  0  0
  193.9100  173.9400  143.3890 C   0  0  1  0  0  3  0  0  0  0  0  0
  193.3030  176.2200  144.0400 C   0  0  0  0  0  3  0  0  0  0  0  0
  192.6220  174.3850  145.5850 C   0  0  0  0  0  2  0  0  0  0  0  0
  195.0280  173.2800  142.9150 F   0  0  0  0  0  0  0  0  0  0  0  0
  2  1  1  0  0  0  0
  4 17  1  6  0  0  0
  4 11  1  0  0  0  0
  5 15  1  0  0  0  0
  5  7  1  0  0  0  0
  6  1  2  0  0  0  0
  7  3  1  1  0  0  0
  8 12  2  0  0  0  0
  8 15  1  0  0  0  0
  9 21  1  0  0  0  0
  9  7  1  0  0  0  0
 10 13  1  0  0  0  0
 10  8  1  0  0  0  0
 11  5  2  0  0  0  0
 12  6  1  0  0  0  0
 13  4  1  0  0  0  0
 14 11  1  0  0  0  0
 14  9  1  0  0  0  0
 15  2  2  0  0  0  0
 17 16  1  6  0  0  0
 17 20  1  0  0  0  0
 19 20  2  0  0  0  0
 20 18  1  0  0  0  0
 22 27  1  0  0  0  0
 23 25  1  0  0  0  0
 23 26  2  0  0  0  0
 24 27  1  0  0  0  0
 24 21  1  1  0  0  0
 25 28  1  1  0  0  0
 25 22  1  0  0  0  0
 26 24  1  0  0  0  0
M  END
>  <MODEL>
8

>  <REMARK>
 VINA RESULT:      -7.0      3.440      6.797
  Name = 
  4 active torsions:
  status: ('A' for Active; 'I' for Inactive)
    1  A    between atoms: C_6  and  C_11
    2  A    between atoms: C_7  and  C_8
    3  A    between atoms: C_7  and  N_20
    4  A    between atoms: C_11  and  C_18
                            x       y       z     vdW  Elec       q    Type
                         _______ _______ _______ _____ _____    ______ ____

>  <TORSDO>
F 4

$$$$
=
 OpenBabel11062423103D

 28 31  0  0  1  0  0  0  0  0999 V2000
  185.5650  179.3220  143.8420 C   0  0  0  0  0  3  0  0  0  0  0  0
  186.4480  178.3400  143.3970 C   0  0  0  0  0  3  0  0  0  0  0  0
  187.7900  176.5300  141.3110 C   0  0  0  0  0  1  0  0  0  0  0  0
  189.8630  176.5700  145.5710 C   0  0  1  0  0  3  0  0  0  0  0  0
  188.0030  176.4360  143.7980 C   0  0  0  0  0  0  0  0  0  0  0  0
  185.2910  179.4220  145.2050 C   0  0  0  0  0  3  0  0  0  0  0  0
  187.7790  175.6290  142.5520 C   0  0  2  0  0  3  0  0  0  0  0  0
  186.7250  177.5810  145.6690 C   0  0  0  0  0  0  0  0  0  0  0  0
  188.8360  174.5820  142.5740 N   0  0  0  0  0  0  0  0  0  0  0  0
  187.4140  176.4780  146.8930 S   0  0  0  0  0  0  0  0  0  0  0  0
  189.1260  176.0100  144.3670 C   0  0  0  0  0  0  0  0  0  0  0  0
  185.8700  178.5580  146.0790 N   0  0  0  0  0  0  0  0  0  0  0  0
  189.0280  177.2660  146.6550 C   0  0  0  0  0  2  0  0  0  0  0  0
  189.6370  174.9620  143.6290 O   0  0  0  0  0  0  0  0  0  0  0  0
  187.0590  177.4640  144.3040 C   0  0  0  0  0  0  0  0  0  0  0  0
  190.6510  175.2910  147.6320 C   0  0  0  0  0  1  0  0  0  0  0  0
  190.8630  175.5570  146.1480 C   0  0  2  0  0  3  0  0  0  0  0  0
  192.7010  175.9170  144.6770 O   0  0  0  0  0  0  0  0  0  0  0  0
  193.1230  176.3510  146.8860 O   0  0  0  0  0  1  0  0  0  0  0  0
  192.2780  175.9410  145.8610 C   0  0  0  0  0  0  0  0  0  0  0  0
  189.6860  174.5420  141.3820 C   0  0  0  0  0  2  0  0  0  0  0  0
  190.6180  171.2810  139.4650 C   0  0  0  0  0  2  0  0  0  0  0  0
  188.9060  172.6670  138.2770 C   0  0  0  0  0  3  0  0  0  0  0  0
  189.4200  173.2730  140.5910 C   0  0  1  0  0  3  0  0  0  0  0  0
  189.3210  171.2710  138.6420 C   0  0  1  0  0  3  0  0  0  0  0  0
  188.9520  173.6230  139.2090 C   0  0  0  0  0  3  0  0  0  0  0  0
  190.6850  172.4030  140.5230 C   0  0  0  0  0  2  0  0  0  0  0  0
  189.4930  170.5140  137.4990 F   0  0  0  0  0  0  0  0  0  0  0  0
  1  6  1  0  0  0  0
  2  1  2  0  0  0  0
  2 15  1  0  0  0  0
  4 17  1  1  0  0  0
  4 13  1  0  0  0  0
  5 15  1  0  0  0  0
  5 11  2  0  0  0  0
  6 12  2  0  0  0  0
  7  3  1  6  0  0  0
  7  9  1  0  0  0  0
  7  5  1  0  0  0  0
  8 12  1  0  0  0  0
  8 10  1  0  0  0  0
  9 14  1  0  0  0  0
 11  4  1  0  0  0  0
 13 10  1  0  0  0  0
 14 11  1  0  0  0  0
 15  8  2  0  0  0  0
 17 16  1  1  0  0  0
 18 20  2  0  0  0  0
 20 17  1  0  0  0  0
 20 19  1  0  0  0  0
 21  9  1  0  0  0  0
 22 27  1  0  0  0  0
 23 25  1  0  0  0  0
 23 26  2  0  0  0  0
 24 21  1  1  0  0  0
 25 28  1  6  0  0  0
 25 22  1  0  0  0  0
 26 24  1  0  0  0  0
 27 24  1  0  0  0  0
M  END
>  <MODEL>
9

>  <REMARK>
 VINA RESULT:      -6.9      3.536      7.355
  Name = 
  4 active torsions:
  status: ('A' for Active; 'I' for Inactive)
    1  A    between atoms: C_6  and  C_11
    2  A    between atoms: C_7  and  C_8
    3  A    between atoms: C_7  and  N_20
    4  A    between atoms: C_11  and  C_18
                            x       y       z     vdW  Elec       q    Type
                         _______ _______ _______ _____ _____    ______ ____

>  <TORSDO>
F 4

$$$$
