=
 OpenBabel11062422253D

 36 39  0  0  1  0  0  0  0  0999 V2000
  191.5900  173.1150  141.3500 C   0  0  0  0  0  2  0  0  0  0  0  0
  189.9340  174.0640  143.0180 C   0  0  0  0  0  2  0  0  0  0  0  0
  188.0620  172.9540  141.9080 C   0  0  0  0  0  2  0  0  0  0  0  0
  189.6130  172.5100  140.0400 N   0  0  0  0  0  0  0  0  0  0  0  0
  190.8750  174.3700  141.8490 C   0  0  1  0  0  3  0  0  0  0  0  0
  190.6250  172.0050  140.9400 C   0  0  0  0  0  2  0  0  0  0  0  0
  188.4710  172.9430  140.4500 C   0  0  0  0  0  3  0  0  0  0  0  0
  188.5100  174.1380  142.6580 N   0  0  0  0  0  0  0  0  0  0  0  0
  193.2580  175.0490  142.3650 N   0  0  0  0  0  2  0  0  0  0  0  0
  191.4970  176.5830  142.4590 O   0  0  0  0  0  0  0  0  0  0  0  0
  191.8760  175.4000  142.2510 C   0  0  0  0  0  0  0  0  0  0  0  0
  194.2710  175.9690  142.8700 C   0  0  1  0  0  3  0  0  0  0  0  0
  193.8850  174.6730  144.8950 O   0  0  0  0  0  0  0  0  0  0  0  0
  192.8980  176.4000  146.2000 C   0  0  2  0  0  3  0  0  0  0  0  0
  193.7170  176.5230  147.3230 O   0  0  0  0  0  1  0  0  0  0  0  0
  192.8320  174.9510  145.7860 C   0  0  0  0  0  2  0  0  0  0  0  0
  194.3420  175.9130  144.3990 C   0  0  2  0  0  3  0  0  0  0  0  0
  193.5620  177.0440  145.0300 C   0  0  0  0  0  2  0  0  0  0  0  0
  195.6250  175.6000  142.2860 C   0  0  0  0  0  3  0  0  0  0  0  0
  196.6860  176.5150  142.8630 C   0  0  0  0  0  2  0  0  0  0  0  0
  196.1550  176.7600  141.4650 C   0  0  0  0  0  2  0  0  0  0  0  0
  188.1620  175.3840  141.9770 C   0  0  0  0  0  2  0  0  0  0  0  0
  186.9860  176.0490  142.6690 C   0  0  0  0  0  2  0  0  0  0  0  0
  187.2690  177.5290  142.8690 C   0  0  2  0  0  3  0  0  0  0  0  0
  188.3790  177.9960  141.9410 C   0  0  0  0  0  1  0  0  0  0  0  0
  186.6890  178.1460  145.2100 C   0  0  0  0  0  0  0  0  0  0  0  0
  189.2080  177.4040  145.0090 S   0  0  0  0  0  0  0  0  0  0  0  0
  188.4200  177.2520  146.6480 C   0  0  1  0  0  3  0  0  0  0  0  0
  187.6090  177.8020  144.3080 C   0  0  0  0  0  0  0  0  0  0  0  0
  187.1580  178.1050  146.6250 C   0  0  0  0  0  2  0  0  0  0  0  0
  185.1090  179.7390  144.4300 O   0  0  0  0  0  1  0  0  0  0  0  0
  185.2550  178.4180  144.8560 C   0  0  2  0  0  3  0  0  0  0  0  0
  184.3570  178.1620  146.0510 C   0  0  0  0  0  1  0  0  0  0  0  0
  188.0510  175.8010  146.9170 C   0  0  0  0  0  2  0  0  0  0  0  0
  189.2870  174.9980  147.2740 C   0  0  0  0  0  2  0  0  0  0  0  0
  189.4000  173.9100  146.4100 O   0  0  0  0  0  1  0  0  0  0  0  0
  1  5  1  0  0  0  0
  3  8  1  0  0  0  0
  4  7  2  0  0  0  0
  4  6  1  0  0  0  0
  5 11  1  1  0  0  0
  5  2  1  0  0  0  0
  6  1  1  0  0  0  0
  7  3  1  0  0  0  0
  8  2  1  0  0  0  0
 11  9  1  0  0  0  0
 11 10  2  0  0  0  0
 12  9  1  6  0  0  0
 13 16  1  0  0  0  0
 14 15  1  1  0  0  0
 16 14  1  0  0  0  0
 17 12  1  6  0  0  0
 17 13  1  0  0  0  0
 17 18  1  0  0  0  0
 18 14  1  0  0  0  0
 19 20  1  0  0  0  0
 19 12  1  0  0  0  0
 21 19  1  0  0  0  0
 21 20  1  0  0  0  0
 22  8  1  0  0  0  0
 22 23  1  0  0  0  0
 23 24  1  0  0  0  0
 24 25  1  6  0  0  0
 24 29  1  0  0  0  0
 26 30  1  0  0  0  0
 27 28  1  0  0  0  0
 28 34  1  6  0  0  0
 29 27  1  0  0  0  0
 29 26  2  0  0  0  0
 30 28  1  0  0  0  0
 31 32  1  0  0  0  0
 32 26  1  0  0  0  0
 32 33  1  1  0  0  0
 34 35  1  0  0  0  0
 36 35  1  0  0  0  0
M  END
>  <MODEL>
1

>  <REMARK>
 VINA RESULT:      -6.8      0.000      0.000
  Name = 
  11 active torsions:
  status: ('A' for Active; 'I' for Inactive)
    1  A    between atoms: C_1  and  C_5
    2  A    between atoms: C_1  and  N_16
    3  A    between atoms: C_1  and  C_31
    4  A    between atoms: C_3  and  C_9
    5  A    between atoms: C_3  and  C_36
    6  A    between atoms: C_6  and  C_19
    7  A    between atoms: C_7  and  C_29
    8  A    between atoms: C_9  and  C_28
    9  A    between atoms: C_13  and  C_30
   10  A    between atoms: C_27  and  C_29
   11  A    between atoms: N_34  and  C_36
                            x       y       z     vdW  Elec       q    Type
                         _______ _______ _______ _____ _____    ______ ____

>  <TORSDO>
F 11

$$$$
=
 OpenBabel11062422253D

 36 39  0  0  1  0  0  0  0  0999 V2000
  191.3520  172.2110  141.5670 C   0  0  0  0  0  2  0  0  0  0  0  0
  189.1680  172.8870  142.6600 C   0  0  0  0  0  2  0  0  0  0  0  0
  188.1280  173.3180  140.4920 C   0  0  0  0  0  2  0  0  0  0  0  0
  190.3960  173.1720  139.5300 N   0  0  0  0  0  0  0  0  0  0  0  0
  190.6300  173.2650  142.4050 C   0  0  1  0  0  3  0  0  0  0  0  0
  190.6640  171.9380  140.2320 C   0  0  0  0  0  2  0  0  0  0  0  0
  189.2790  173.8050  139.6380 C   0  0  0  0  0  3  0  0  0  0  0  0
  188.2100  173.7110  141.9080 N   0  0  0  0  0  0  0  0  0  0  0  0
  192.2350  174.5710  143.8620 N   0  0  0  0  0  2  0  0  0  0  0  0
  191.1320  172.6670  144.6500 O   0  0  0  0  0  0  0  0  0  0  0  0
  191.3440  173.4640  143.6990 C   0  0  0  0  0  0  0  0  0  0  0  0
  193.0580  174.7580  145.0520 C   0  0  1  0  0  3  0  0  0  0  0  0
  194.7780  173.9970  143.5060 O   0  0  0  0  0  0  0  0  0  0  0  0
  195.2670  171.9220  144.5620 C   0  0  2  0  0  3  0  0  0  0  0  0
  196.6250  171.9850  144.8790 O   0  0  0  0  0  1  0  0  0  0  0  0
  195.0260  172.6350  143.2550 C   0  0  0  0  0  2  0  0  0  0  0  0
  194.4330  174.1080  144.8700 C   0  0  2  0  0  3  0  0  0  0  0  0
  194.4940  172.7500  145.5320 C   0  0  0  0  0  2  0  0  0  0  0  0
  193.2310  176.2440  145.3170 C   0  0  0  0  0  3  0  0  0  0  0  0
  194.4050  176.4530  146.2530 C   0  0  0  0  0  2  0  0  0  0  0  0
  192.9900  176.5280  146.7870 C   0  0  0  0  0  2  0  0  0  0  0  0
  188.4490  175.1460  142.0670 C   0  0  0  0  0  2  0  0  0  0  0  0
  187.2350  175.8130  142.6880 C   0  0  0  0  0  2  0  0  0  0  0  0
  187.4880  177.3030  142.8500 C   0  0  2  0  0  3  0  0  0  0  0  0
  188.6180  177.7610  141.9420 C   0  0  0  0  0  1  0  0  0  0  0  0
  186.8280  177.9950  145.1480 C   0  0  0  0  0  0  0  0  0  0  0  0
  189.3550  177.2620  145.0560 S   0  0  0  0  0  0  0  0  0  0  0  0
  188.5140  177.1600  146.6720 C   0  0  1  0  0  3  0  0  0  0  0  0
  187.7780  177.6260  144.2900 C   0  0  0  0  0  0  0  0  0  0  0  0
  187.2500  178.0040  146.5790 C   0  0  0  0  0  2  0  0  0  0  0  0
  185.2650  179.5510  144.2680 O   0  0  0  0  0  1  0  0  0  0  0  0
  185.4050  178.2450  144.7380 C   0  0  2  0  0  3  0  0  0  0  0  0
  184.4690  178.0200  145.9100 C   0  0  0  0  0  1  0  0  0  0  0  0
  188.1440  175.7160  146.9770 C   0  0  0  0  0  2  0  0  0  0  0  0
  189.3320  174.8040  146.7380 C   0  0  0  0  0  2  0  0  0  0  0  0
  190.2440  174.9460  147.7820 O   0  0  0  0  0  1  0  0  0  0  0  0
  1  5  1  0  0  0  0
  3  8  1  0  0  0  0
  4  7  2  0  0  0  0
  4  6  1  0  0  0  0
  5  2  1  0  0  0  0
  5 11  1  1  0  0  0
  6  1  1  0  0  0  0
  7  3  1  0  0  0  0
  8 22  1  0  0  0  0
  8  2  1  0  0  0  0
 11  9  1  0  0  0  0
 11 10  2  0  0  0  0
 12  9  1  6  0  0  0
 12 19  1  0  0  0  0
 13 17  1  0  0  0  0
 14 15  1  1  0  0  0
 14 18  1  0  0  0  0
 16 13  1  0  0  0  0
 16 14  1  0  0  0  0
 17 12  1  6  0  0  0
 17 18  1  0  0  0  0
 19 20  1  0  0  0  0
 19 21  1  0  0  0  0
 20 21  1  0  0  0  0
 22 23  1  0  0  0  0
 23 24  1  0  0  0  0
 24 25  1  6  0  0  0
 24 29  1  0  0  0  0
 26 30  1  0  0  0  0
 27 28  1  0  0  0  0
 28 34  1  6  0  0  0
 29 27  1  0  0  0  0
 29 26  2  0  0  0  0
 30 28  1  0  0  0  0
 31 32  1  0  0  0  0
 32 26  1  0  0  0  0
 32 33  1  1  0  0  0
 35 34  1  0  0  0  0
 35 36  1  0  0  0  0
M  END
>  <MODEL>
2

>  <REMARK>
 VINA RESULT:      -6.5      1.806      2.531
  Name = 
  11 active torsions:
  status: ('A' for Active; 'I' for Inactive)
    1  A    between atoms: C_1  and  C_5
    2  A    between atoms: C_1  and  N_16
    3  A    between atoms: C_1  and  C_31
    4  A    between atoms: C_3  and  C_9
    5  A    between atoms: C_3  and  C_36
    6  A    between atoms: C_6  and  C_19
    7  A    between atoms: C_7  and  C_29
    8  A    between atoms: C_9  and  C_28
    9  A    between atoms: C_13  and  C_30
   10  A    between atoms: C_27  and  C_29
   11  A    between atoms: N_34  and  C_36
                            x       y       z     vdW  Elec       q    Type
                         _______ _______ _______ _____ _____    ______ ____

>  <TORSDO>
F 11

$$$$
=
 OpenBabel11062422253D

 36 39  0  0  1  0  0  0  0  0999 V2000
  190.9720  171.7150  141.6680 C   0  0  0  0  0  2  0  0  0  0  0  0
  188.6140  172.6240  141.8670 C   0  0  0  0  0  2  0  0  0  0  0  0
  188.5080  173.0850  139.4700 C   0  0  0  0  0  2  0  0  0  0  0  0
  190.9460  172.6990  139.4280 N   0  0  0  0  0  0  0  0  0  0  0  0
  190.0950  172.8570  142.1810 C   0  0  1  0  0  3  0  0  0  0  0  0
  190.8100  171.4670  140.1710 C   0  0  0  0  0  2  0  0  0  0  0  0
  189.9370  173.4360  139.1130 C   0  0  0  0  0  3  0  0  0  0  0  0
  188.0930  173.5110  140.8150 N   0  0  0  0  0  0  0  0  0  0  0  0
  190.6790  174.2970  144.1780 N   0  0  0  0  0  2  0  0  0  0  0  0
  190.0770  172.0520  144.4180 O   0  0  0  0  0  0  0  0  0  0  0  0
  190.2890  173.0270  143.6500 C   0  0  0  0  0  0  0  0  0  0  0  0
  191.0050  174.5050  145.5850 C   0  0  1  0  0  3  0  0  0  0  0  0
  192.7300  175.9490  144.6520 O   0  0  0  0  0  0  0  0  0  0  0  0
  194.5950  174.5300  145.0620 C   0  0  2  0  0  3  0  0  0  0  0  0
  195.4510  175.2770  145.8730 O   0  0  0  0  0  1  0  0  0  0  0  0
  193.9130  175.4480  144.0780 C   0  0  0  0  0  2  0  0  0  0  0  0
  192.4070  175.1030  145.7350 C   0  0  2  0  0  3  0  0  0  0  0  0
  193.4560  174.0230  145.8790 C   0  0  0  0  0  2  0  0  0  0  0  0
  189.9850  175.4450  146.2060 C   0  0  0  0  0  3  0  0  0  0  0  0
  190.3010  175.6270  147.6760 C   0  0  0  0  0  2  0  0  0  0  0  0
  189.1810  174.6980  147.2530 C   0  0  0  0  0  2  0  0  0  0  0  0
  188.3930  174.9210  141.0630 C   0  0  0  0  0  2  0  0  0  0  0  0
  187.5260  175.4510  142.1900 C   0  0  0  0  0  2  0  0  0  0  0  0
  186.7510  176.6710  141.7200 C   0  0  2  0  0  3  0  0  0  0  0  0
  187.4910  177.3810  140.5980 C   0  0  0  0  0  1  0  0  0  0  0  0
  185.3060  178.1660  143.0880 C   0  0  0  0  0  0  0  0  0  0  0  0
  187.6490  177.7920  144.2300 S   0  0  0  0  0  0  0  0  0  0  0  0
  186.2590  178.2640  145.3120 C   0  0  1  0  0  3  0  0  0  0  0  0
  186.4930  177.5980  142.8760 C   0  0  0  0  0  0  0  0  0  0  0  0
  185.1590  178.8240  144.4190 C   0  0  0  0  0  2  0  0  0  0  0  0
  184.4420  178.7080  140.9430 O   0  0  0  0  0  1  0  0  0  0  0  0
  184.1530  178.0390  142.1340 C   0  0  2  0  0  3  0  0  0  0  0  0
  182.8910  178.6110  142.7490 C   0  0  0  0  0  1  0  0  0  0  0  0
  185.7400  177.0440  146.0590 C   0  0  0  0  0  2  0  0  0  0  0  0
  186.1000  177.1310  147.5290 C   0  0  0  0  0  2  0  0  0  0  0  0
  186.7940  178.3160  147.7690 O   0  0  0  0  0  1  0  0  0  0  0  0
  1  5  1  0  0  0  0
  2  5  1  0  0  0  0
  3  8  1  0  0  0  0
  4  6  1  0  0  0  0
  5 11  1  1  0  0  0
  6  1  1  0  0  0  0
  7  4  2  0  0  0  0
  7  3  1  0  0  0  0
  8 22  1  0  0  0  0
  8  2  1  0  0  0  0
 11  9  1  0  0  0  0
 11 10  2  0  0  0  0
 12  9  1  6  0  0  0
 12 19  1  0  0  0  0
 13 17  1  0  0  0  0
 14 15  1  1  0  0  0
 14 18  1  0  0  0  0
 16 13  1  0  0  0  0
 16 14  1  0  0  0  0
 17 12  1  6  0  0  0
 17 18  1  0  0  0  0
 19 21  1  0  0  0  0
 19 20  1  0  0  0  0
 21 20  1  0  0  0  0
 22 23  1  0  0  0  0
 24 25  1  6  0  0  0
 24 23  1  0  0  0  0
 24 29  1  0  0  0  0
 26 30  1  0  0  0  0
 27 28  1  0  0  0  0
 28 34  1  6  0  0  0
 29 26  2  0  0  0  0
 29 27  1  0  0  0  0
 30 28  1  0  0  0  0
 31 32  1  0  0  0  0
 32 33  1  1  0  0  0
 32 26  1  0  0  0  0
 34 35  1  0  0  0  0
 35 36  1  0  0  0  0
M  END
>  <MODEL>
3

>  <REMARK>
 VINA RESULT:      -6.5      1.941      3.553
  Name = 
  11 active torsions:
  status: ('A' for Active; 'I' for Inactive)
    1  A    between atoms: C_1  and  C_5
    2  A    between atoms: C_1  and  N_16
    3  A    between atoms: C_1  and  C_31
    4  A    between atoms: C_3  and  C_9
    5  A    between atoms: C_3  and  C_36
    6  A    between atoms: C_6  and  C_19
    7  A    between atoms: C_7  and  C_29
    8  A    between atoms: C_9  and  C_28
    9  A    between atoms: C_13  and  C_30
   10  A    between atoms: C_27  and  C_29
   11  A    between atoms: N_34  and  C_36
                            x       y       z     vdW  Elec       q    Type
                         _______ _______ _______ _____ _____    ______ ____

>  <TORSDO>
F 11

$$$$
=
 OpenBabel11062422253D

 36 39  0  0  1  0  0  0  0  0999 V2000
  191.6960  172.3960  141.3270 C   0  0  0  0  0  2  0  0  0  0  0  0
  189.7030  172.9650  142.7860 C   0  0  0  0  0  2  0  0  0  0  0  0
  188.2790  173.3230  140.8340 C   0  0  0  0  0  2  0  0  0  0  0  0
  190.3490  173.2890  139.4890 N   0  0  0  0  0  0  0  0  0  0  0  0
  191.0760  173.4180  142.2790 C   0  0  1  0  0  3  0  0  0  0  0  0
  190.8010  172.0760  140.1330 C   0  0  0  0  0  2  0  0  0  0  0  0
  189.2350  173.8630  139.7920 C   0  0  0  0  0  3  0  0  0  0  0  0
  188.5860  173.7320  142.2130 N   0  0  0  0  0  0  0  0  0  0  0  0
  192.7300  174.8880  143.5070 N   0  0  0  0  0  2  0  0  0  0  0  0
  192.0890  172.8000  144.3400 O   0  0  0  0  0  0  0  0  0  0  0  0
  191.9930  173.6640  143.4290 C   0  0  0  0  0  0  0  0  0  0  0  0
  193.7350  175.1440  144.5330 C   0  0  1  0  0  3  0  0  0  0  0  0
  195.1830  176.4720  143.0950 O   0  0  0  0  0  0  0  0  0  0  0  0
  196.1860  174.6750  141.9020 C   0  0  2  0  0  3  0  0  0  0  0  0
  197.5560  174.7960  142.1430 O   0  0  0  0  0  1  0  0  0  0  0  0
  195.5730  176.0500  141.8100 C   0  0  0  0  0  2  0  0  0  0  0  0
  195.1210  175.3180  143.9060 C   0  0  2  0  0  3  0  0  0  0  0  0
  195.5210  174.0990  143.1050 C   0  0  0  0  0  2  0  0  0  0  0  0
  193.3630  176.4040  145.2980 C   0  0  0  0  0  3  0  0  0  0  0  0
  194.3290  176.5930  146.4510 C   0  0  0  0  0  2  0  0  0  0  0  0
  192.9440  176.0350  146.7090 C   0  0  0  0  0  2  0  0  0  0  0  0
  188.7720  175.1780  142.3300 C   0  0  0  0  0  2  0  0  0  0  0  0
  187.4760  175.8400  142.7610 C   0  0  0  0  0  2  0  0  0  0  0  0
  187.7060  177.3220  143.0070 C   0  0  2  0  0  3  0  0  0  0  0  0
  188.8260  177.8480  142.1230 C   0  0  0  0  0  1  0  0  0  0  0  0
  187.0330  177.7400  145.3660 C   0  0  0  0  0  0  0  0  0  0  0  0
  189.6300  177.3570  145.1640 S   0  0  0  0  0  0  0  0  0  0  0  0
  188.8600  177.0190  146.7830 C   0  0  1  0  0  3  0  0  0  0  0  0
  187.9970  177.5680  144.4620 C   0  0  0  0  0  0  0  0  0  0  0  0
  187.4940  177.6930  146.7850 C   0  0  0  0  0  2  0  0  0  0  0  0
  185.2780  179.1140  144.5470 O   0  0  0  0  0  1  0  0  0  0  0  0
  185.5780  177.8320  145.0070 C   0  0  2  0  0  3  0  0  0  0  0  0
  184.7140  177.5040  146.2100 C   0  0  0  0  0  1  0  0  0  0  0  0
  188.6900  175.5200  146.9770 C   0  0  0  0  0  2  0  0  0  0  0  0
  189.5610  174.7570  145.9980 C   0  0  0  0  0  2  0  0  0  0  0  0
  189.4810  173.3920  146.2700 O   0  0  0  0  0  1  0  0  0  0  0  0
  1  5  1  0  0  0  0
  3  8  1  0  0  0  0
  4  7  2  0  0  0  0
  4  6  1  0  0  0  0
  5  2  1  0  0  0  0
  5 11  1  1  0  0  0
  6  1  1  0  0  0  0
  7  3  1  0  0  0  0
  8 22  1  0  0  0  0
  8  2  1  0  0  0  0
 11  9  1  0  0  0  0
 11 10  2  0  0  0  0
 12  9  1  6  0  0  0
 12 19  1  0  0  0  0
 13 17  1  0  0  0  0
 14 15  1  1  0  0  0
 14 18  1  0  0  0  0
 16 14  1  0  0  0  0
 16 13  1  0  0  0  0
 17 12  1  6  0  0  0
 18 17  1  0  0  0  0
 19 20  1  0  0  0  0
 19 21  1  0  0  0  0
 20 21  1  0  0  0  0
 22 23  1  0  0  0  0
 23 24  1  0  0  0  0
 24 25  1  6  0  0  0
 24 29  1  0  0  0  0
 26 30  1  0  0  0  0
 27 28  1  0  0  0  0
 28 30  1  0  0  0  0
 28 34  1  6  0  0  0
 29 27  1  0  0  0  0
 29 26  2  0  0  0  0
 31 32  1  0  0  0  0
 32 26  1  0  0  0  0
 32 33  1  1  0  0  0
 35 36  1  0  0  0  0
 35 34  1  0  0  0  0
M  END
>  <MODEL>
4

>  <REMARK>
 VINA RESULT:      -6.4      1.394      2.592
  Name = 
  11 active torsions:
  status: ('A' for Active; 'I' for Inactive)
    1  A    between atoms: C_1  and  C_5
    2  A    between atoms: C_1  and  N_16
    3  A    between atoms: C_1  and  C_31
    4  A    between atoms: C_3  and  C_9
    5  A    between atoms: C_3  and  C_36
    6  A    between atoms: C_6  and  C_19
    7  A    between atoms: C_7  and  C_29
    8  A    between atoms: C_9  and  C_28
    9  A    between atoms: C_13  and  C_30
   10  A    between atoms: C_27  and  C_29
   11  A    between atoms: N_34  and  C_36
                            x       y       z     vdW  Elec       q    Type
                         _______ _______ _______ _____ _____    ______ ____

>  <TORSDO>
F 11

$$$$
=
 OpenBabel11062422253D

 36 39  0  0  1  0  0  0  0  0999 V2000
  194.1710  173.9380  144.3100 C   0  0  0  0  0  2  0  0  0  0  0  0
  192.6130  175.8540  143.7410 C   0  0  0  0  0  2  0  0  0  0  0  0
  193.7000  177.3210  145.3640 C   0  0  0  0  0  2  0  0  0  0  0  0
  194.8120  175.2990  146.2400 N   0  0  0  0  0  0  0  0  0  0  0  0
  192.7450  174.4780  144.4020 C   0  0  1  0  0  3  0  0  0  0  0  0
  195.2050  174.8840  144.9120 C   0  0  0  0  0  2  0  0  0  0  0  0
  194.1370  176.3740  146.4610 C   0  0  0  0  0  3  0  0  0  0  0  0
  192.4380  176.9520  144.7050 N   0  0  0  0  0  0  0  0  0  0  0  0
  191.7420  173.3800  142.3540 N   0  0  0  0  0  2  0  0  0  0  0  0
  191.0610  172.8030  144.5140 O   0  0  0  0  0  0  0  0  0  0  0  0
  191.7930  173.5140  143.7770 C   0  0  0  0  0  0  0  0  0  0  0  0
  190.7550  172.5520  141.6700 C   0  0  1  0  0  3  0  0  0  0  0  0
  188.5800  173.0870  140.7160 O   0  0  0  0  0  0  0  0  0  0  0  0
  189.2300  173.1160  138.4280 C   0  0  2  0  0  3  0  0  0  0  0  0
  188.9180  174.3980  137.9750 O   0  0  0  0  0  1  0  0  0  0  0  0
  188.1910  172.6730  139.4280 C   0  0  0  0  0  2  0  0  0  0  0  0
  189.9600  173.3790  140.6560 C   0  0  2  0  0  3  0  0  0  0  0  0
  190.4730  173.1690  139.2490 C   0  0  0  0  0  2  0  0  0  0  0  0
  191.4620  171.4130  140.9540 C   0  0  0  0  0  3  0  0  0  0  0  0
  190.6130  170.1610  141.0430 C   0  0  0  0  0  2  0  0  0  0  0  0
  191.8130  170.3270  141.9520 C   0  0  0  0  0  2  0  0  0  0  0  0
  191.3700  176.6940  145.6700 C   0  0  0  0  0  2  0  0  0  0  0  0
  190.1420  177.5170  145.3250 C   0  0  0  0  0  2  0  0  0  0  0  0
  188.9030  176.8860  145.9400 C   0  0  2  0  0  3  0  0  0  0  0  0
  189.2830  175.7390  146.8630 C   0  0  0  0  0  1  0  0  0  0  0  0
  186.6890  176.8170  144.8040 C   0  0  0  0  0  0  0  0  0  0  0  0
  188.5310  175.5720  143.3920 S   0  0  0  0  0  0  0  0  0  0  0  0
  187.0760  176.2070  142.4930 C   0  0  1  0  0  3  0  0  0  0  0  0
  187.9630  176.4280  144.8590 C   0  0  0  0  0  0  0  0  0  0  0  0
  185.9930  176.4910  143.5250 C   0  0  0  0  0  2  0  0  0  0  0  0
  184.8520  177.0320  146.2930 O   0  0  0  0  0  1  0  0  0  0  0  0
  186.0360  177.6400  145.8770 C   0  0  2  0  0  3  0  0  0  0  0  0
  185.7430  179.0380  145.3660 C   0  0  0  0  0  1  0  0  0  0  0  0
  187.4350  177.4920  141.7610 C   0  0  0  0  0  2  0  0  0  0  0  0
  186.1850  178.2960  141.4600 C   0  0  0  0  0  2  0  0  0  0  0  0
  185.5710  177.7900  140.3160 O   0  0  0  0  0  1  0  0  0  0  0  0
  1  5  1  0  0  0  0
  1  6  1  0  0  0  0
  2  5  1  0  0  0  0
  2  8  1  0  0  0  0
  3  7  1  0  0  0  0
  4  7  2  0  0  0  0
  5 11  1  6  0  0  0
  6  4  1  0  0  0  0
  8  3  1  0  0  0  0
  8 22  1  0  0  0  0
  9 11  1  0  0  0  0
 11 10  2  0  0  0  0
 12  9  1  6  0  0  0
 14 15  1  1  0  0  0
 14 18  1  0  0  0  0
 14 16  1  0  0  0  0
 16 13  1  0  0  0  0
 17 13  1  0  0  0  0
 17 12  1  1  0  0  0
 18 17  1  0  0  0  0
 19 20  1  0  0  0  0
 19 12  1  0  0  0  0
 19 21  1  0  0  0  0
 20 21  1  0  0  0  0
 23 22  1  0  0  0  0
 23 24  1  0  0  0  0
 24 25  1  6  0  0  0
 26 29  2  0  0  0  0
 26 32  1  0  0  0  0
 27 29  1  0  0  0  0
 28 34  1  1  0  0  0
 28 27  1  0  0  0  0
 28 30  1  0  0  0  0
 29 24  1  0  0  0  0
 30 26  1  0  0  0  0
 32 33  1  6  0  0  0
 32 31  1  0  0  0  0
 35 34  1  0  0  0  0
 36 35  1  0  0  0  0
M  END
>  <MODEL>
5

>  <REMARK>
 VINA RESULT:      -6.2      2.334      5.940
  Name = 
  11 active torsions:
  status: ('A' for Active; 'I' for Inactive)
    1  A    between atoms: C_1  and  C_5
    2  A    between atoms: C_1  and  N_16
    3  A    between atoms: C_1  and  C_31
    4  A    between atoms: C_3  and  C_9
    5  A    between atoms: C_3  and  C_36
    6  A    between atoms: C_6  and  C_19
    7  A    between atoms: C_7  and  C_29
    8  A    between atoms: C_9  and  C_28
    9  A    between atoms: C_13  and  C_30
   10  A    between atoms: C_27  and  C_29
   11  A    between atoms: N_34  and  C_36
                            x       y       z     vdW  Elec       q    Type
                         _______ _______ _______ _____ _____    ______ ____

>  <TORSDO>
F 11

$$$$
=
 OpenBabel11062422253D

 36 39  0  0  1  0  0  0  0  0999 V2000
  187.9010  174.5170  142.1630 C   0  0  0  0  0  2  0  0  0  0  0  0
  190.3190  175.1270  142.6170 C   0  0  0  0  0  2  0  0  0  0  0  0
  191.0130  172.7870  142.4940 C   0  0  0  0  0  2  0  0  0  0  0  0
  188.6130  172.2150  142.5890 N   0  0  0  0  0  0  0  0  0  0  0  0
  188.9050  175.0200  143.1980 C   0  0  1  0  0  3  0  0  0  0  0  0
  188.2970  173.1730  141.5550 C   0  0  0  0  0  2  0  0  0  0  0  0
  189.8120  172.0330  143.0260 C   0  0  0  0  0  3  0  0  0  0  0  0
  191.2390  174.0970  143.1250 N   0  0  0  0  0  0  0  0  0  0  0  0
  187.0760  176.6730  143.7710 N   0  0  0  0  0  2  0  0  0  0  0  0
  189.3300  177.1480  144.1700 O   0  0  0  0  0  0  0  0  0  0  0  0
  188.4670  176.3430  143.7310 C   0  0  0  0  0  0  0  0  0  0  0  0
  186.5850  177.9900  144.1620 C   0  0  1  0  0  3  0  0  0  0  0  0
  184.4390  178.7600  143.3070 O   0  0  0  0  0  0  0  0  0  0  0  0
  184.6540  177.9190  141.0930 C   0  0  2  0  0  3  0  0  0  0  0  0
  184.5480  179.0370  140.2650 O   0  0  0  0  0  1  0  0  0  0  0  0
  183.7440  178.0900  142.2830 C   0  0  0  0  0  2  0  0  0  0  0  0
  185.8160  178.6460  143.0130 C   0  0  2  0  0  3  0  0  0  0  0  0
  186.0080  177.8920  141.7170 C   0  0  0  0  0  2  0  0  0  0  0  0
  185.6720  177.8490  145.3690 C   0  0  0  0  0  3  0  0  0  0  0  0
  185.7420  179.1140  146.2000 C   0  0  0  0  0  2  0  0  0  0  0  0
  186.5010  177.8780  146.6380 C   0  0  0  0  0  2  0  0  0  0  0  0
  191.2430  174.0100  144.5850 C   0  0  0  0  0  2  0  0  0  0  0  0
  192.5170  173.3400  145.0670 C   0  0  0  0  0  2  0  0  0  0  0  0
  193.2180  174.2250  146.0850 C   0  0  2  0  0  3  0  0  0  0  0  0
  192.2190  175.1260  146.7940 C   0  0  0  0  0  1  0  0  0  0  0  0
  195.5140  174.5320  145.1740 C   0  0  0  0  0  0  0  0  0  0  0  0
  193.9790  176.6000  144.6230 S   0  0  0  0  0  0  0  0  0  0  0  0
  195.4140  176.3110  143.5340 C   0  0  1  0  0  3  0  0  0  0  0  0
  194.3000  175.0270  145.4170 C   0  0  0  0  0  0  0  0  0  0  0  0
  196.3560  175.3650  144.2670 C   0  0  0  0  0  2  0  0  0  0  0  0
  197.0780  173.3070  146.4750 O   0  0  0  0  0  1  0  0  0  0  0  0
  195.9590  173.1800  145.6520 C   0  0  2  0  0  3  0  0  0  0  0  0
  196.2890  172.2840  144.4730 C   0  0  0  0  0  1  0  0  0  0  0  0
  194.9600  175.6710  142.2300 C   0  0  0  0  0  2  0  0  0  0  0  0
  196.1370  175.0400  141.5120 C   0  0  0  0  0  2  0  0  0  0  0  0
  196.2780  175.6200  140.2520 O   0  0  0  0  0  1  0  0  0  0  0  0
  1  5  1  0  0  0  0
  2  8  1  0  0  0  0
  2  5  1  0  0  0  0
  3  7  1  0  0  0  0
  3  8  1  0  0  0  0
  4  7  2  0  0  0  0
  5 11  1  6  0  0  0
  6  1  1  0  0  0  0
  6  4  1  0  0  0  0
  8 22  1  0  0  0  0
 11  9  1  0  0  0  0
 11 10  2  0  0  0  0
 12  9  1  6  0  0  0
 12 19  1  0  0  0  0
 14 15  1  6  0  0  0
 14 18  1  0  0  0  0
 14 16  1  0  0  0  0
 16 13  1  0  0  0  0
 17 13  1  0  0  0  0
 17 12  1  1  0  0  0
 18 17  1  0  0  0  0
 19 20  1  0  0  0  0
 19 21  1  0  0  0  0
 20 21  1  0  0  0  0
 22 23  1  0  0  0  0
 23 24  1  0  0  0  0
 24 25  1  6  0  0  0
 26 29  2  0  0  0  0
 26 32  1  0  0  0  0
 27 29  1  0  0  0  0
 28 34  1  6  0  0  0
 28 30  1  0  0  0  0
 28 27  1  0  0  0  0
 29 24  1  0  0  0  0
 30 26  1  0  0  0  0
 32 33  1  6  0  0  0
 32 31  1  0  0  0  0
 35 34  1  0  0  0  0
 36 35  1  0  0  0  0
M  END
>  <MODEL>
6

>  <REMARK>
 VINA RESULT:      -6.2      2.405      8.177
  Name = 
  11 active torsions:
  status: ('A' for Active; 'I' for Inactive)
    1  A    between atoms: C_1  and  C_5
    2  A    between atoms: C_1  and  N_16
    3  A    between atoms: C_1  and  C_31
    4  A    between atoms: C_3  and  C_9
    5  A    between atoms: C_3  and  C_36
    6  A    between atoms: C_6  and  C_19
    7  A    between atoms: C_7  and  C_29
    8  A    between atoms: C_9  and  C_28
    9  A    between atoms: C_13  and  C_30
   10  A    between atoms: C_27  and  C_29
   11  A    between atoms: N_34  and  C_36
                            x       y       z     vdW  Elec       q    Type
                         _______ _______ _______ _____ _____    ______ ____

>  <TORSDO>
F 11

$$$$
=
 OpenBabel11062422253D

 36 39  0  0  1  0  0  0  0  0999 V2000
  189.3530  175.4590  146.5690 C   0  0  0  0  0  2  0  0  0  0  0  0
  190.8830  174.5650  144.7580 C   0  0  0  0  0  2  0  0  0  0  0  0
  192.8720  175.0390  146.0970 C   0  0  0  0  0  2  0  0  0  0  0  0
  191.3970  176.3630  147.5670 N   0  0  0  0  0  0  0  0  0  0  0  0
  189.9310  175.6900  145.1740 C   0  0  1  0  0  3  0  0  0  0  0  0
  190.4290  175.2920  147.6390 C   0  0  0  0  0  2  0  0  0  0  0  0
  192.4840  176.2730  146.8820 C   0  0  0  0  0  3  0  0  0  0  0  0
  192.2980  174.9700  144.7440 N   0  0  0  0  0  0  0  0  0  0  0  0
  187.9760  176.9730  144.2050 N   0  0  0  0  0  2  0  0  0  0  0  0
  188.6710  174.9300  143.3070 O   0  0  0  0  0  0  0  0  0  0  0  0
  188.8270  175.8230  144.1810 C   0  0  0  0  0  0  0  0  0  0  0  0
  186.8040  177.1110  143.3480 C   0  0  1  0  0  3  0  0  0  0  0  0
  185.5990  179.0510  144.1920 O   0  0  0  0  0  0  0  0  0  0  0  0
  185.1670  178.2330  146.3840 C   0  0  2  0  0  3  0  0  0  0  0  0
  183.7770  178.2400  146.5100 O   0  0  0  0  0  1  0  0  0  0  0  0
  185.6000  179.4140  145.5520 C   0  0  0  0  0  2  0  0  0  0  0  0
  185.6080  177.6400  144.1430 C   0  0  2  0  0  3  0  0  0  0  0  0
  185.5820  177.0720  145.5450 C   0  0  0  0  0  2  0  0  0  0  0  0
  187.1210  178.0700  142.2120 C   0  0  0  0  0  3  0  0  0  0  0  0
  186.0750  177.9220  141.1260 C   0  0  0  0  0  2  0  0  0  0  0  0
  187.4360  177.2800  140.9560 C   0  0  0  0  0  2  0  0  0  0  0  0
  192.5270  176.2010  143.9870 C   0  0  0  0  0  2  0  0  0  0  0  0
  192.9660  175.8710  142.5720 C   0  0  0  0  0  2  0  0  0  0  0  0
  194.4800  175.7490  142.5120 C   0  0  2  0  0  3  0  0  0  0  0  0
  195.0270  176.4190  141.2620 C   0  0  0  0  0  1  0  0  0  0  0  0
  195.7750  173.8480  143.4630 C   0  0  0  0  0  0  0  0  0  0  0  0
  194.0080  173.0160  141.6960 S   0  0  0  0  0  0  0  0  0  0  0  0
  194.5640  171.8140  142.9510 C   0  0  1  0  0  3  0  0  0  0  0  0
  194.8860  174.3030  142.5800 C   0  0  0  0  0  0  0  0  0  0  0  0
  195.8460  172.3610  143.5660 C   0  0  0  0  0  2  0  0  0  0  0  0
  197.8350  174.9500  143.8900 O   0  0  0  0  0  1  0  0  0  0  0  0
  196.5470  174.7460  144.3860 C   0  0  2  0  0  3  0  0  0  0  0  0
  196.6240  174.1380  145.7740 C   0  0  0  0  0  1  0  0  0  0  0  0
  193.5040  171.6600  144.0310 C   0  0  0  0  0  2  0  0  0  0  0  0
  193.4290  170.2180  144.4970 C   0  0  0  0  0  2  0  0  0  0  0  0
  194.2000  170.0620  145.6480 O   0  0  0  0  0  1  0  0  0  0  0  0
  1  6  1  0  0  0  0
  2  5  1  0  0  0  0
  3  7  1  0  0  0  0
  4  6  1  0  0  0  0
  5 11  1  6  0  0  0
  5  1  1  0  0  0  0
  7  4  2  0  0  0  0
  8  2  1  0  0  0  0
  8  3  1  0  0  0  0
 10 11  2  0  0  0  0
 11  9  1  0  0  0  0
 12  9  1  1  0  0  0
 13 16  1  0  0  0  0
 14 15  1  6  0  0  0
 16 14  1  0  0  0  0
 17 12  1  1  0  0  0
 17 13  1  0  0  0  0
 17 18  1  0  0  0  0
 18 14  1  0  0  0  0
 19 12  1  0  0  0  0
 20 19  1  0  0  0  0
 21 20  1  0  0  0  0
 21 19  1  0  0  0  0
 22  8  1  0  0  0  0
 23 22  1  0  0  0  0
 24 25  1  6  0  0  0
 24 23  1  0  0  0  0
 24 29  1  0  0  0  0
 26 30  1  0  0  0  0
 26 32  1  0  0  0  0
 27 29  1  0  0  0  0
 27 28  1  0  0  0  0
 28 30  1  0  0  0  0
 28 34  1  1  0  0  0
 29 26  2  0  0  0  0
 31 32  1  0  0  0  0
 32 33  1  1  0  0  0
 34 35  1  0  0  0  0
 35 36  1  0  0  0  0
M  END
>  <MODEL>
7

>  <REMARK>
 VINA RESULT:      -6.1      2.863      8.163
  Name = 
  11 active torsions:
  status: ('A' for Active; 'I' for Inactive)
    1  A    between atoms: C_1  and  C_5
    2  A    between atoms: C_1  and  N_16
    3  A    between atoms: C_1  and  C_31
    4  A    between atoms: C_3  and  C_9
    5  A    between atoms: C_3  and  C_36
    6  A    between atoms: C_6  and  C_19
    7  A    between atoms: C_7  and  C_29
    8  A    between atoms: C_9  and  C_28
    9  A    between atoms: C_13  and  C_30
   10  A    between atoms: C_27  and  C_29
   11  A    between atoms: N_34  and  C_36
                            x       y       z     vdW  Elec       q    Type
                         _______ _______ _______ _____ _____    ______ ____

>  <TORSDO>
F 11

$$$$
=
 OpenBabel11062422253D

 36 39  0  0  1  0  0  0  0  0999 V2000
  189.5530  173.7360  144.9340 C   0  0  0  0  0  2  0  0  0  0  0  0
  190.0380  174.8100  142.6910 C   0  0  0  0  0  2  0  0  0  0  0  0
  191.8800  173.2640  142.2610 C   0  0  0  0  0  2  0  0  0  0  0  0
  191.7120  172.6210  144.6380 N   0  0  0  0  0  0  0  0  0  0  0  0
  190.0910  174.9710  144.2130 C   0  0  1  0  0  3  0  0  0  0  0  0
  190.2800  172.4530  144.5390 C   0  0  0  0  0  2  0  0  0  0  0  0
  192.4400  172.9880  143.6400 C   0  0  0  0  0  3  0  0  0  0  0  0
  191.3610  174.6280  142.0740 N   0  0  0  0  0  0  0  0  0  0  0  0
  187.9930  176.0420  145.1390 N   0  0  0  0  0  2  0  0  0  0  0  0
  189.8670  177.3130  144.5580 O   0  0  0  0  0  0  0  0  0  0  0  0
  189.3230  176.1790  144.6300 C   0  0  0  0  0  0  0  0  0  0  0  0
  187.1410  177.1840  145.4490 C   0  0  1  0  0  3  0  0  0  0  0  0
  186.0390  176.3410  143.4480 O   0  0  0  0  0  0  0  0  0  0  0  0
  186.2840  178.2860  142.1010 C   0  0  2  0  0  3  0  0  0  0  0  0
  184.9830  178.6610  141.7610 O   0  0  0  0  0  1  0  0  0  0  0  0
  186.3720  176.7820  142.1530 C   0  0  0  0  0  2  0  0  0  0  0  0
  186.1590  177.4560  144.3050 C   0  0  2  0  0  3  0  0  0  0  0  0
  186.5590  178.6800  143.5130 C   0  0  0  0  0  2  0  0  0  0  0  0
  186.3660  176.9030  146.7260 C   0  0  0  0  0  3  0  0  0  0  0  0
  185.1780  177.8400  146.8080 C   0  0  0  0  0  2  0  0  0  0  0  0
  186.4200  178.1210  147.6290 C   0  0  0  0  0  2  0  0  0  0  0  0
  192.3260  175.6450  142.4920 C   0  0  0  0  0  2  0  0  0  0  0  0
  193.7200  175.2690  142.0230 C   0  0  0  0  0  2  0  0  0  0  0  0
  194.7450  176.2110  142.6320 C   0  0  2  0  0  3  0  0  0  0  0  0
  195.6530  176.7890  141.5580 C   0  0  0  0  0  1  0  0  0  0  0  0
  195.1950  175.5190  144.9800 C   0  0  0  0  0  0  0  0  0  0  0  0
  196.8300  174.3230  143.2980 S   0  0  0  0  0  0  0  0  0  0  0  0
  196.5340  173.5030  144.9010 C   0  0  1  0  0  3  0  0  0  0  0  0
  195.5380  175.4990  143.6920 C   0  0  0  0  0  0  0  0  0  0  0  0
  195.9280  174.5410  145.8360 C   0  0  0  0  0  2  0  0  0  0  0  0
  194.5650  177.3920  146.2980 O   0  0  0  0  0  1  0  0  0  0  0  0
  194.0650  176.3510  145.5150 C   0  0  2  0  0  3  0  0  0  0  0  0
  193.1220  175.4970  146.3400 C   0  0  0  0  0  1  0  0  0  0  0  0
  195.5620  172.3460  144.7240 C   0  0  0  0  0  2  0  0  0  0  0  0
  195.9300  171.2000  145.6470 C   0  0  0  0  0  2  0  0  0  0  0  0
  194.7680  170.6040  146.1330 O   0  0  0  0  0  1  0  0  0  0  0  0
  2  5  1  0  0  0  0
  3  7  1  0  0  0  0
  5 11  1  6  0  0  0
  5  1  1  0  0  0  0
  6  4  1  0  0  0  0
  6  1  1  0  0  0  0
  7  4  2  0  0  0  0
  8  3  1  0  0  0  0
  8 22  1  0  0  0  0
  8  2  1  0  0  0  0
 10 11  2  0  0  0  0
 11  9  1  0  0  0  0
 12  9  1  6  0  0  0
 12 19  1  0  0  0  0
 13 17  1  0  0  0  0
 14 15  1  1  0  0  0
 14 16  1  0  0  0  0
 14 18  1  0  0  0  0
 16 13  1  0  0  0  0
 17 12  1  1  0  0  0
 18 17  1  0  0  0  0
 19 20  1  0  0  0  0
 19 21  1  0  0  0  0
 20 21  1  0  0  0  0
 23 22  1  0  0  0  0
 23 24  1  0  0  0  0
 24 25  1  6  0  0  0
 24 29  1  0  0  0  0
 26 32  1  0  0  0  0
 26 30  1  0  0  0  0
 27 29  1  0  0  0  0
 27 28  1  0  0  0  0
 28 34  1  6  0  0  0
 28 30  1  0  0  0  0
 29 26  2  0  0  0  0
 32 31  1  0  0  0  0
 32 33  1  1  0  0  0
 34 35  1  0  0  0  0
 35 36  1  0  0  0  0
M  END
>  <MODEL>
8

>  <REMARK>
 VINA RESULT:      -6.1      2.630      7.548
  Name = 
  11 active torsions:
  status: ('A' for Active; 'I' for Inactive)
    1  A    between atoms: C_1  and  C_5
    2  A    between atoms: C_1  and  N_16
    3  A    between atoms: C_1  and  C_31
    4  A    between atoms: C_3  and  C_9
    5  A    between atoms: C_3  and  C_36
    6  A    between atoms: C_6  and  C_19
    7  A    between atoms: C_7  and  C_29
    8  A    between atoms: C_9  and  C_28
    9  A    between atoms: C_13  and  C_30
   10  A    between atoms: C_27  and  C_29
   11  A    between atoms: N_34  and  C_36
                            x       y       z     vdW  Elec       q    Type
                         _______ _______ _______ _____ _____    ______ ____

>  <TORSDO>
F 11

$$$$
=
 OpenBabel11062422253D

 36 39  0  0  1  0  0  0  0  0999 V2000
  191.9540  171.6110  141.5180 C   0  0  0  0  0  2  0  0  0  0  0  0
  191.4210  171.7760  143.9900 C   0  0  0  0  0  2  0  0  0  0  0  0
  189.0250  171.9410  143.5410 C   0  0  0  0  0  2  0  0  0  0  0  0
  189.6340  172.3110  141.1770 N   0  0  0  0  0  0  0  0  0  0  0  0
  192.0330  172.4780  142.7740 C   0  0  1  0  0  3  0  0  0  0  0  0
  190.5290  171.1770  141.1830 C   0  0  0  0  0  2  0  0  0  0  0  0
  188.9620  172.6720  142.2160 C   0  0  0  0  0  3  0  0  0  0  0  0
  190.1350  172.3530  144.4130 N   0  0  0  0  0  0  0  0  0  0  0  0
  193.8880  173.0450  144.3980 N   0  0  0  0  0  2  0  0  0  0  0  0
  194.2620  172.9480  142.0930 O   0  0  0  0  0  0  0  0  0  0  0  0
  193.4510  172.8450  143.0510 C   0  0  0  0  0  0  0  0  0  0  0  0
  195.2240  173.5240  144.7360 C   0  0  1  0  0  3  0  0  0  0  0  0
  193.9620  175.0470  146.1560 O   0  0  0  0  0  0  0  0  0  0  0  0
  194.3020  177.0290  144.8850 C   0  0  2  0  0  3  0  0  0  0  0  0
  194.9320  177.9180  145.7570 O   0  0  0  0  0  1  0  0  0  0  0  0
  193.3130  176.1910  145.6550 C   0  0  0  0  0  2  0  0  0  0  0  0
  195.1550  174.8940  145.4160 C   0  0  2  0  0  3  0  0  0  0  0  0
  195.2900  176.0170  144.4120 C   0  0  0  0  0  2  0  0  0  0  0  0
  195.8960  172.5290  145.6670 C   0  0  0  0  0  3  0  0  0  0  0  0
  197.1840  173.1290  146.1960 C   0  0  0  0  0  2  0  0  0  0  0  0
  197.2290  172.1050  145.0790 C   0  0  0  0  0  2  0  0  0  0  0  0
  190.1930  173.8060  144.5800 C   0  0  0  0  0  2  0  0  0  0  0  0
  189.5250  174.2110  145.8820 C   0  0  0  0  0  2  0  0  0  0  0  0
  190.0230  175.5790  146.3180 C   0  0  2  0  0  3  0  0  0  0  0  0
  190.3860  175.5750  147.7940 C   0  0  0  0  0  1  0  0  0  0  0  0
  189.0690  177.4210  144.9420 C   0  0  0  0  0  0  0  0  0  0  0  0
  187.4230  176.7140  146.8710 S   0  0  0  0  0  0  0  0  0  0  0  0
  186.6950  177.5220  145.4060 C   0  0  1  0  0  3  0  0  0  0  0  0
  188.9910  176.6280  146.0110 C   0  0  0  0  0  0  0  0  0  0  0  0
  187.8310  178.2010  144.6520 C   0  0  0  0  0  2  0  0  0  0  0  0
  190.7490  178.7300  143.8900 O   0  0  0  0  0  1  0  0  0  0  0  0
  190.2510  177.4330  144.0150 C   0  0  2  0  0  3  0  0  0  0  0  0
  189.8570  176.9010  142.6500 C   0  0  0  0  0  1  0  0  0  0  0  0
  186.0360  176.4840  144.5110 C   0  0  0  0  0  2  0  0  0  0  0  0
  185.7950  177.0550  143.1270 C   0  0  0  0  0  2  0  0  0  0  0  0
  184.5670  177.7140  143.1030 O   0  0  0  0  0  1  0  0  0  0  0  0
  1  5  1  0  0  0  0
  2  8  1  0  0  0  0
  3  8  1  0  0  0  0
  4  6  1  0  0  0  0
  4  7  2  0  0  0  0
  5 11  1  1  0  0  0
  5  2  1  0  0  0  0
  6  1  1  0  0  0  0
  7  3  1  0  0  0  0
  8 22  1  0  0  0  0
 10 11  2  0  0  0  0
 11  9  1  0  0  0  0
 12  9  1  1  0  0  0
 12 19  1  0  0  0  0
 14 16  1  0  0  0  0
 14 15  1  1  0  0  0
 16 13  1  0  0  0  0
 17 12  1  6  0  0  0
 17 13  1  0  0  0  0
 18 14  1  0  0  0  0
 18 17  1  0  0  0  0
 19 20  1  0  0  0  0
 21 19  1  0  0  0  0
 21 20  1  0  0  0  0
 22 23  1  0  0  0  0
 23 24  1  0  0  0  0
 24 25  1  1  0  0  0
 26 29  2  0  0  0  0
 28 34  1  6  0  0  0
 28 27  1  0  0  0  0
 29 24  1  0  0  0  0
 29 27  1  0  0  0  0
 30 26  1  0  0  0  0
 30 28  1  0  0  0  0
 31 32  1  0  0  0  0
 32 33  1  6  0  0  0
 32 26  1  0  0  0  0
 35 34  1  0  0  0  0
 36 35  1  0  0  0  0
M  END
>  <MODEL>
9

>  <REMARK>
 VINA RESULT:      -6.1      2.253      3.767
  Name = 
  11 active torsions:
  status: ('A' for Active; 'I' for Inactive)
    1  A    between atoms: C_1  and  C_5
    2  A    between atoms: C_1  and  N_16
    3  A    between atoms: C_1  and  C_31
    4  A    between atoms: C_3  and  C_9
    5  A    between atoms: C_3  and  C_36
    6  A    between atoms: C_6  and  C_19
    7  A    between atoms: C_7  and  C_29
    8  A    between atoms: C_9  and  C_28
    9  A    between atoms: C_13  and  C_30
   10  A    between atoms: C_27  and  C_29
   11  A    between atoms: N_34  and  C_36
                            x       y       z     vdW  Elec       q    Type
                         _______ _______ _______ _____ _____    ______ ____

>  <TORSDO>
F 11

$$$$
