=
 OpenBabel11072409243D

 39 42  0  0  1  0  0  0  0  0999 V2000
  189.3810  176.3190  144.3380 C   0  0  2  0  0  3  0  0  0  0  0  0
  186.2740  178.4530  144.7490 C   0  0  0  0  0  3  0  0  0  0  0  0
  187.4610  177.9150  144.2430 C   0  0  0  0  0  3  0  0  0  0  0  0
  186.3990  176.9530  146.6450 C   0  0  0  0  0  3  0  0  0  0  0  0
  187.5850  176.4100  146.1360 C   0  0  0  0  0  3  0  0  0  0  0  0
  185.7300  177.9700  145.9470 C   0  0  0  0  0  0  0  0  0  0  0  0
  188.1190  176.8910  144.9320 C   0  0  0  0  0  0  0  0  0  0  0  0
  183.5340  178.9900  145.6230 O   0  0  0  0  0  0  0  0  0  0  0  0
  184.5160  178.5340  146.4740 N   0  0  0  0  0  0  0  0  0  0  0  0
  184.3140  178.5680  147.7060 O   0  0  0  0  0  0  0  0  0  0  0  0
  190.7440  177.9240  142.9250 C   0  0  0  0  0  1  0  0  0  0  0  0
  190.5520  177.3170  144.3090 C   0  0  2  0  0  3  0  0  0  0  0  0
  192.9390  176.6860  144.0540 C   0  0  0  0  0  3  0  0  0  0  0  0
  191.8020  176.6310  144.7470 C   0  0  0  0  0  3  0  0  0  0  0  0
  194.3590  173.1280  143.4710 C   0  0  1  0  0  3  0  0  0  0  0  0
  196.0330  173.7400  145.4550 C   0  0  0  0  0  0  0  0  0  0  0  0
  195.1860  174.3430  142.9640 C   0  0  2  0  0  3  0  0  0  0  0  0
  195.3890  174.6760  146.2010 C   0  0  0  0  0  3  0  0  0  0  0  0
  196.9140  172.1570  143.1960 S   0  0  0  0  0  1  0  0  0  0  0  0
  194.1040  175.9750  144.4970 N   0  0  0  0  0  0  0  0  0  0  0  0
  194.1780  175.5310  145.8820 C   0  0  0  0  0  2  0  0  0  0  0  0
  195.7710  173.3540  143.9720 C   0  0  2  0  0  0  0  0  0  0  0  0
  195.2180  175.7400  143.5850 C   0  0  0  0  0  2  0  0  0  0  0  0
  197.2070  173.0930  146.1170 C   0  0  0  0  0  3  0  0  0  0  0  0
  196.9320  171.7840  146.4650 F   0  0  0  0  0  0  0  0  0  0  0  0
  197.6160  173.8220  147.2200 F   0  0  0  0  0  0  0  0  0  0  0  0
  193.3680  173.4330  144.4010 O   0  0  0  0  0  0  0  0  0  0  0  0
  192.8930  172.2640  144.7740 O   0  0  0  0  0  1  0  0  0  0  0  0
  189.1650  175.7040  143.0240 N   0  0  0  0  0  2  0  0  0  0  0  0
  187.3030  173.9980  141.9990 O   0  0  0  0  0  0  0  0  0  0  0  0
  192.3130  174.8990  141.2190 O   0  0  0  0  0  0  0  0  0  0  0  0
  190.2830  171.0850  140.2540 O   0  0  0  0  0  0  0  0  0  0  0  0
  190.8090  173.9820  142.6910 O   0  0  0  0  0  0  0  0  0  0  0  0
  189.4460  174.2600  143.0340 C   0  0  2  0  0  3  0  0  0  0  0  0
  189.9520  172.2200  140.6920 C   0  0  0  0  0  0  0  0  0  0  0  0
  190.7370  173.4110  140.2460 C   0  0  0  0  0  2  0  0  0  0  0  0
  188.4670  173.5430  142.1350 C   0  0  0  0  0  0  0  0  0  0  0  0
  188.8050  172.3590  141.4750 O   0  0  0  0  0  0  0  0  0  0  0  0
  191.3210  174.1460  141.4000 C   0  0  0  0  0  0  0  0  0  0  0  0
  1 29  1  6  0  0  0
  1  7  1  0  0  0  0
  2  6  1  0  0  0  0
  3  2  2  0  0  0  0
  3  7  1  0  0  0  0
  5  4  1  0  0  0  0
  6  9  1  0  0  0  0
  6  4  2  0  0  0  0
  7  5  2  0  0  0  0
  8  9  2  0  0  0  0
  9 10  2  0  0  0  0
 12 11  1  6  0  0  0
 12  1  1  0  0  0  0
 12 14  1  0  0  0  0
 13 20  1  0  0  0  0
 13 14  2  0  0  0  0
 15 22  1  0  0  0  0
 15 27  1  1  0  0  0
 16 24  1  0  0  0  0
 16 18  2  0  0  0  0
 17 15  1  0  0  0  0
 17 23  1  1  0  0  0
 17 22  1  0  0  0  0
 20 21  1  0  0  0  0
 21 18  1  0  0  0  0
 22 19  1  6  0  0  0
 22 16  1  0  0  0  0
 23 20  1  0  0  0  0
 24 25  1  0  0  0  0
 24 26  1  0  0  0  0
 27 28  1  0  0  0  0
 30 37  2  0  0  0  0
 31 39  2  0  0  0  0
 32 35  2  0  0  0  0
 33 34  1  0  0  0  0
 34 29  1  6  0  0  0
 35 38  1  0  0  0  0
 36 35  1  0  0  0  0
 36 39  1  0  0  0  0
 37 34  1  0  0  0  0
 38 37  1  0  0  0  0
 39 33  1  0  0  0  0
M  END
>  <MODEL>
1

>  <REMARK>
 VINA RESULT:      -7.4      0.000      0.000
  Name = 
  9 active torsions:
  status: ('A' for Active; 'I' for Inactive)
    1  A    between atoms: C_1  and  O_8
    2  A    between atoms: C_3  and  N_27
    3  A    between atoms: C_6  and  C_17
    4  A    between atoms: N_7  and  C_15
    5  A    between atoms: N_7  and  C_22
    6  A    between atoms: C_15  and  C_16
    7  A    between atoms: C_15  and  C_35
    8  A    between atoms: C_16  and  C_26
    9  A    between atoms: C_23  and  N_29
                            x       y       z     vdW  Elec       q    Type
                         _______ _______ _______ _____ _____    ______ ____

>  <TORSDO>
F 9

$$$$
=
 OpenBabel11072409243D

 39 42  0  0  1  0  0  0  0  0999 V2000
  189.6850  176.4830  146.1890 C   0  0  2  0  0  3  0  0  0  0  0  0
  193.4260  175.9250  146.4610 C   0  0  0  0  0  3  0  0  0  0  0  0
  192.0660  176.0060  146.7770 C   0  0  0  0  0  3  0  0  0  0  0  0
  192.9560  176.7190  144.2230 C   0  0  0  0  0  3  0  0  0  0  0  0
  191.5930  176.7960  144.5380 C   0  0  0  0  0  3  0  0  0  0  0  0
  193.8790  176.2730  145.1810 C   0  0  0  0  0  0  0  0  0  0  0  0
  191.1460  176.4380  145.8170 C   0  0  0  0  0  0  0  0  0  0  0  0
  196.0290  175.1140  145.2510 O   0  0  0  0  0  0  0  0  0  0  0  0
  195.2790  176.2030  144.8610 N   0  0  0  0  0  0  0  0  0  0  0  0
  195.8210  177.0990  144.1820 O   0  0  0  0  0  0  0  0  0  0  0  0
  188.9400  174.5110  147.5980 C   0  0  0  0  0  1  0  0  0  0  0  0
  189.0110  175.0990  146.1960 C   0  0  2  0  0  3  0  0  0  0  0  0
  189.4210  173.9930  144.0120 C   0  0  0  0  0  3  0  0  0  0  0  0
  189.7560  174.1780  145.2890 C   0  0  0  0  0  3  0  0  0  0  0  0
  190.0530  173.6190  140.2070 C   0  0  1  0  0  3  0  0  0  0  0  0
  191.0050  171.2130  140.8530 C   0  0  0  0  0  0  0  0  0  0  0  0
  191.2730  173.8850  141.1330 C   0  0  2  0  0  3  0  0  0  0  0  0
  190.3840  170.8740  142.0130 C   0  0  0  0  0  3  0  0  0  0  0  0
  192.2240  172.7830  138.7460 S   0  0  0  0  0  1  0  0  0  0  0  0
  190.1440  173.0640  143.1910 N   0  0  0  0  0  0  0  0  0  0  0  0
  189.6100  171.7210  143.0040 C   0  0  0  0  0  2  0  0  0  0  0  0
  191.2040  172.6350  140.2560 C   0  0  2  0  0  0  0  0  0  0  0  0
  191.4180  173.4440  142.5900 C   0  0  0  0  0  2  0  0  0  0  0  0
  191.6740  170.0870  140.1330 C   0  0  0  0  0  3  0  0  0  0  0  0
  190.7530  169.2890  139.4780 F   0  0  0  0  0  0  0  0  0  0  0  0
  192.4490  169.3370  141.0000 F   0  0  0  0  0  0  0  0  0  0  0  0
  188.9010  173.1820  140.8560 O   0  0  0  0  0  0  0  0  0  0  0  0
  188.1030  172.7900  139.8860 O   0  0  0  0  0  1  0  0  0  0  0  0
  188.9240  177.4490  145.3900 N   0  0  0  0  0  2  0  0  0  0  0  0
  187.0270  178.3350  147.1360 O   0  0  0  0  0  0  0  0  0  0  0  0
  187.6600  178.3940  142.0250 O   0  0  0  0  0  0  0  0  0  0  0  0
  183.7410  178.7270  144.0600 O   0  0  0  0  0  0  0  0  0  0  0  0
  187.1610  177.0370  143.8090 O   0  0  0  0  0  0  0  0  0  0  0  0
  187.5280  177.0280  145.1930 C   0  0  2  0  0  3  0  0  0  0  0  0
  184.9540  178.6540  144.4000 C   0  0  0  0  0  0  0  0  0  0  0  0
  185.9840  179.2330  143.4860 C   0  0  0  0  0  2  0  0  0  0  0  0
  186.6130  177.8810  146.0390 C   0  0  0  0  0  0  0  0  0  0  0  0
  185.2970  178.1510  145.6560 O   0  0  0  0  0  0  0  0  0  0  0  0
  186.9850  178.2130  143.0720 C   0  0  0  0  0  0  0  0  0  0  0  0
  1 29  1  6  0  0  0
  1 12  1  0  0  0  0
  2  3  1  0  0  0  0
  4  5  2  0  0  0  0
  4  6  1  0  0  0  0
  5  7  1  0  0  0  0
  6  2  2  0  0  0  0
  7  1  1  0  0  0  0
  7  3  2  0  0  0  0
  9  6  1  0  0  0  0
  9  8  2  0  0  0  0
 10  9  2  0  0  0  0
 12 11  1  1  0  0  0
 13 14  2  0  0  0  0
 14 12  1  0  0  0  0
 15 22  1  0  0  0  0
 15 27  1  1  0  0  0
 15 17  1  0  0  0  0
 16 18  2  0  0  0  0
 17 23  1  1  0  0  0
 18 21  1  0  0  0  0
 20 13  1  0  0  0  0
 21 20  1  0  0  0  0
 22 19  1  6  0  0  0
 22 16  1  0  0  0  0
 22 17  1  0  0  0  0
 23 20  1  0  0  0  0
 24 16  1  0  0  0  0
 24 26  1  0  0  0  0
 25 24  1  0  0  0  0
 28 27  1  0  0  0  0
 31 39  2  0  0  0  0
 32 35  2  0  0  0  0
 33 34  1  0  0  0  0
 34 29  1  6  0  0  0
 34 37  1  0  0  0  0
 35 38  1  0  0  0  0
 36 35  1  0  0  0  0
 37 30  2  0  0  0  0
 38 37  1  0  0  0  0
 39 36  1  0  0  0  0
 39 33  1  0  0  0  0
M  END
>  <MODEL>
2

>  <REMARK>
 VINA RESULT:      -7.2      3.160      7.076
  Name = 
  9 active torsions:
  status: ('A' for Active; 'I' for Inactive)
    1  A    between atoms: C_1  and  O_8
    2  A    between atoms: C_3  and  N_27
    3  A    between atoms: C_6  and  C_17
    4  A    between atoms: N_7  and  C_15
    5  A    between atoms: N_7  and  C_22
    6  A    between atoms: C_15  and  C_16
    7  A    between atoms: C_15  and  C_35
    8  A    between atoms: C_16  and  C_26
    9  A    between atoms: C_23  and  N_29
                            x       y       z     vdW  Elec       q    Type
                         _______ _______ _______ _____ _____    ______ ____

>  <TORSDO>
F 9

$$$$
=
 OpenBabel11072409243D

 39 42  0  0  1  0  0  0  0  0999 V2000
  189.1890  176.5000  144.9930 C   0  0  2  0  0  3  0  0  0  0  0  0
  189.4740  173.0480  143.4520 C   0  0  0  0  0  3  0  0  0  0  0  0
  189.2770  174.0820  144.3720 C   0  0  0  0  0  3  0  0  0  0  0  0
  190.0130  174.6700  141.7390 C   0  0  0  0  0  3  0  0  0  0  0  0
  189.8100  175.7070  142.6580 C   0  0  0  0  0  3  0  0  0  0  0  0
  189.8350  173.3350  142.1280 C   0  0  0  0  0  0  0  0  0  0  0  0
  189.4400  175.4130  143.9780 C   0  0  0  0  0  0  0  0  0  0  0  0
  189.9900  172.5130  139.8320 O   0  0  0  0  0  0  0  0  0  0  0  0
  190.0520  172.2690  141.1870 N   0  0  0  0  0  0  0  0  0  0  0  0
  190.3520  171.1230  141.5820 O   0  0  0  0  0  0  0  0  0  0  0  0
  189.9190  177.5680  147.1740 C   0  0  0  0  0  1  0  0  0  0  0  0
  190.0160  176.3390  146.2810 C   0  0  2  0  0  3  0  0  0  0  0  0
  192.1190  175.0280  146.4070 C   0  0  0  0  0  3  0  0  0  0  0  0
  191.4400  176.0700  145.9290 C   0  0  0  0  0  3  0  0  0  0  0  0
  194.3620  175.9850  143.3950 C   0  0  1  0  0  3  0  0  0  0  0  0
  196.1340  174.3310  144.5080 C   0  0  0  0  0  0  0  0  0  0  0  0
  194.6950  176.5980  144.7850 C   0  0  2  0  0  3  0  0  0  0  0  0
  195.4030  173.4470  145.2350 C   0  0  0  0  0  3  0  0  0  0  0  0
  196.9880  176.7670  143.1940 S   0  0  0  0  0  1  0  0  0  0  0  0
  193.5010  174.8360  146.0710 N   0  0  0  0  0  0  0  0  0  0  0  0
  193.9590  173.5040  145.6980 C   0  0  0  0  0  2  0  0  0  0  0  0
  195.7180  175.7500  144.0290 C   0  0  2  0  0  0  0  0  0  0  0  0
  194.4420  175.9480  146.1460 C   0  0  0  0  0  2  0  0  0  0  0  0
  197.5470  173.9230  144.2410 C   0  0  0  0  0  3  0  0  0  0  0  0
  197.7260  173.5520  142.9210 F   0  0  0  0  0  0  0  0  0  0  0  0
  197.9390  172.9070  145.0960 F   0  0  0  0  0  0  0  0  0  0  0  0
  193.5200  174.8760  143.4230 O   0  0  0  0  0  0  0  0  0  0  0  0
  193.4690  174.4670  142.1740 O   0  0  0  0  0  1  0  0  0  0  0  0
  187.7640  176.6880  145.2870 N   0  0  0  0  0  2  0  0  0  0  0  0
  186.1010  175.7850  143.3260 O   0  0  0  0  0  0  0  0  0  0  0  0
  185.7750  179.2090  147.1600 O   0  0  0  0  0  0  0  0  0  0  0  0
  183.2370  179.2730  143.5320 O   0  0  0  0  0  0  0  0  0  0  0  0
  186.7000  178.8340  145.0920 O   0  0  0  0  0  0  0  0  0  0  0  0
  187.1360  177.6660  144.3860 C   0  0  2  0  0  3  0  0  0  0  0  0
  184.1330  178.5300  144.0180 C   0  0  0  0  0  0  0  0  0  0  0  0
  184.2530  178.4400  145.5050 C   0  0  0  0  0  2  0  0  0  0  0  0
  186.0180  177.0060  143.6160 C   0  0  0  0  0  0  0  0  0  0  0  0
  184.9020  177.7240  143.1780 O   0  0  0  0  0  0  0  0  0  0  0  0
  185.6110  178.8350  145.9690 C   0  0  0  0  0  0  0  0  0  0  0  0
  1 29  1  1  0  0  0
  1 12  1  0  0  0  0
  2  3  1  0  0  0  0
  4  6  1  0  0  0  0
  4  5  2  0  0  0  0
  5  7  1  0  0  0  0
  6  2  2  0  0  0  0
  7  3  2  0  0  0  0
  7  1  1  0  0  0  0
  8  9  2  0  0  0  0
  9 10  2  0  0  0  0
  9  6  1  0  0  0  0
 12 11  1  1  0  0  0
 14 12  1  0  0  0  0
 14 13  2  0  0  0  0
 15 27  1  1  0  0  0
 15 22  1  0  0  0  0
 15 17  1  0  0  0  0
 16 18  2  0  0  0  0
 17 23  1  1  0  0  0
 18 21  1  0  0  0  0
 20 23  1  0  0  0  0
 20 13  1  0  0  0  0
 21 20  1  0  0  0  0
 22 19  1  6  0  0  0
 22 16  1  0  0  0  0
 22 17  1  0  0  0  0
 24 16  1  0  0  0  0
 24 26  1  0  0  0  0
 25 24  1  0  0  0  0
 28 27  1  0  0  0  0
 30 37  2  0  0  0  0
 32 35  2  0  0  0  0
 33 39  1  0  0  0  0
 34 33  1  0  0  0  0
 34 29  1  1  0  0  0
 35 36  1  0  0  0  0
 36 39  1  0  0  0  0
 37 34  1  0  0  0  0
 38 37  1  0  0  0  0
 38 35  1  0  0  0  0
 39 31  2  0  0  0  0
M  END
>  <MODEL>
3

>  <REMARK>
 VINA RESULT:      -7.1      2.075      5.743
  Name = 
  9 active torsions:
  status: ('A' for Active; 'I' for Inactive)
    1  A    between atoms: C_1  and  O_8
    2  A    between atoms: C_3  and  N_27
    3  A    between atoms: C_6  and  C_17
    4  A    between atoms: N_7  and  C_15
    5  A    between atoms: N_7  and  C_22
    6  A    between atoms: C_15  and  C_16
    7  A    between atoms: C_15  and  C_35
    8  A    between atoms: C_16  and  C_26
    9  A    between atoms: C_23  and  N_29
                            x       y       z     vdW  Elec       q    Type
                         _______ _______ _______ _____ _____    ______ ____

>  <TORSDO>
F 9

$$$$
=
 OpenBabel11072409243D

 39 42  0  0  1  0  0  0  0  0999 V2000
  191.5000  173.9100  143.3410 C   0  0  2  0  0  3  0  0  0  0  0  0
  194.4850  174.5220  145.5980 C   0  0  0  0  0  3  0  0  0  0  0  0
  193.1850  174.5190  145.0830 C   0  0  0  0  0  3  0  0  0  0  0  0
  195.2670  173.3300  143.6420 C   0  0  0  0  0  3  0  0  0  0  0  0
  193.9640  173.3220  143.1270 C   0  0  0  0  0  3  0  0  0  0  0  0
  195.5320  173.9210  144.8860 C   0  0  0  0  0  0  0  0  0  0  0  0
  192.9200  173.9170  143.8490 C   0  0  0  0  0  0  0  0  0  0  0  0
  197.1430  173.3830  146.6430 O   0  0  0  0  0  0  0  0  0  0  0  0
  196.8710  173.9370  145.4110 N   0  0  0  0  0  0  0  0  0  0  0  0
  197.8120  174.4030  144.7360 O   0  0  0  0  0  0  0  0  0  0  0  0
  190.0640  172.0280  144.2500 C   0  0  0  0  0  1  0  0  0  0  0  0
  190.4710  173.4870  144.4050 C   0  0  2  0  0  3  0  0  0  0  0  0
  189.2170  175.5770  144.8750 C   0  0  0  0  0  3  0  0  0  0  0  0
  189.2710  174.3680  144.3150 C   0  0  0  0  0  3  0  0  0  0  0  0
  187.5430  177.7350  142.1260 C   0  0  1  0  0  3  0  0  0  0  0  0
  185.9860  178.6080  144.1080 C   0  0  0  0  0  0  0  0  0  0  0  0
  186.7810  176.4830  142.6440 C   0  0  2  0  0  3  0  0  0  0  0  0
  186.7170  178.4520  145.2430 C   0  0  0  0  0  3  0  0  0  0  0  0
  184.9200  178.1930  141.4470 S   0  0  0  0  0  1  0  0  0  0  0  0
  188.0240  176.3700  144.7950 N   0  0  0  0  0  0  0  0  0  0  0  0
  187.9710  177.6400  145.5070 C   0  0  0  0  0  2  0  0  0  0  0  0
  186.1680  177.8800  142.7470 C   0  0  2  0  0  0  0  0  0  0  0  0
  186.8640  175.8900  144.0520 C   0  0  0  0  0  2  0  0  0  0  0  0
  184.7960  179.5040  144.2330 C   0  0  0  0  0  3  0  0  0  0  0  0
  185.1580  180.8370  144.1590 F   0  0  0  0  0  0  0  0  0  0  0  0
  184.1030  179.2440  145.4020 F   0  0  0  0  0  0  0  0  0  0  0  0
  188.5850  178.1740  142.9400 O   0  0  0  0  0  0  0  0  0  0  0  0
  189.6660  178.0100  142.2090 O   0  0  0  0  0  1  0  0  0  0  0  0
  191.3410  173.1400  142.1030 N   0  0  0  0  0  2  0  0  0  0  0  0
  192.4240  172.7030  139.6400 O   0  0  0  0  0  0  0  0  0  0  0  0
  187.6640  172.9630  141.5900 O   0  0  0  0  0  0  0  0  0  0  0  0
  188.6560  173.6340  137.3270 O   0  0  0  0  0  0  0  0  0  0  0  0
  189.4940  174.2230  141.0100 O   0  0  0  0  0  0  0  0  0  0  0  0
  190.9050  173.9830  140.9780 C   0  0  2  0  0  3  0  0  0  0  0  0
  189.2730  173.3020  138.3760 C   0  0  0  0  0  0  0  0  0  0  0  0
  188.5330  172.5300  139.4210 C   0  0  0  0  0  2  0  0  0  0  0  0
  191.3570  173.3680  139.6750 C   0  0  0  0  0  0  0  0  0  0  0  0
  190.6410  173.5490  138.4890 O   0  0  0  0  0  0  0  0  0  0  0  0
  188.5440  173.2350  140.7320 C   0  0  0  0  0  0  0  0  0  0  0  0
  1 29  1  6  0  0  0
  1  7  1  0  0  0  0
  1 12  1  0  0  0  0
  3  2  1  0  0  0  0
  4  6  1  0  0  0  0
  5  4  2  0  0  0  0
  5  7  1  0  0  0  0
  6  9  1  0  0  0  0
  6  2  2  0  0  0  0
  7  3  2  0  0  0  0
  9  8  2  0  0  0  0
 10  9  2  0  0  0  0
 12 11  1  6  0  0  0
 14 12  1  0  0  0  0
 14 13  2  0  0  0  0
 15 17  1  0  0  0  0
 15 22  1  0  0  0  0
 15 27  1  1  0  0  0
 16 24  1  0  0  0  0
 16 18  2  0  0  0  0
 17 22  1  0  0  0  0
 17 23  1  1  0  0  0
 18 21  1  0  0  0  0
 20 13  1  0  0  0  0
 20 21  1  0  0  0  0
 22 19  1  6  0  0  0
 22 16  1  0  0  0  0
 23 20  1  0  0  0  0
 24 26  1  0  0  0  0
 25 24  1  0  0  0  0
 28 27  1  0  0  0  0
 30 37  2  0  0  0  0
 32 35  2  0  0  0  0
 34 33  1  0  0  0  0
 34 29  1  1  0  0  0
 35 38  1  0  0  0  0
 35 36  1  0  0  0  0
 36 39  1  0  0  0  0
 37 34  1  0  0  0  0
 38 37  1  0  0  0  0
 39 33  1  0  0  0  0
 39 31  2  0  0  0  0
M  END
>  <MODEL>
4

>  <REMARK>
 VINA RESULT:      -7.0      4.692      8.509
  Name = 
  9 active torsions:
  status: ('A' for Active; 'I' for Inactive)
    1  A    between atoms: C_1  and  O_8
    2  A    between atoms: C_3  and  N_27
    3  A    between atoms: C_6  and  C_17
    4  A    between atoms: N_7  and  C_15
    5  A    between atoms: N_7  and  C_22
    6  A    between atoms: C_15  and  C_16
    7  A    between atoms: C_15  and  C_35
    8  A    between atoms: C_16  and  C_26
    9  A    between atoms: C_23  and  N_29
                            x       y       z     vdW  Elec       q    Type
                         _______ _______ _______ _____ _____    ______ ____

>  <TORSDO>
F 9

$$$$
=
 OpenBabel11072409243D

 39 42  0  0  1  0  0  0  0  0999 V2000
  188.9960  176.1240  143.2570 C   0  0  2  0  0  3  0  0  0  0  0  0
  190.4970  173.3470  141.1560 C   0  0  0  0  0  3  0  0  0  0  0  0
  189.9770  174.5830  141.5520 C   0  0  0  0  0  3  0  0  0  0  0  0
  190.1000  172.4650  143.3750 C   0  0  0  0  0  3  0  0  0  0  0  0
  189.5840  173.7050  143.7750 C   0  0  0  0  0  3  0  0  0  0  0  0
  190.5700  172.2840  142.0660 C   0  0  0  0  0  0  0  0  0  0  0  0
  189.5220  174.7670  142.8620 C   0  0  0  0  0  0  0  0  0  0  0  0
  192.2460  170.9380  140.9050 O   0  0  0  0  0  0  0  0  0  0  0  0
  191.0920  171.0080  141.6540 N   0  0  0  0  0  0  0  0  0  0  0  0
  190.5370  169.9490  142.0120 O   0  0  0  0  0  0  0  0  0  0  0  0
  190.4760  178.1240  142.7640 C   0  0  0  0  0  1  0  0  0  0  0  0
  190.0840  177.0710  143.7930 C   0  0  2  0  0  3  0  0  0  0  0  0
  192.1840  176.7250  145.0690 C   0  0  0  0  0  3  0  0  0  0  0  0
  191.2800  176.2780  144.1980 C   0  0  0  0  0  3  0  0  0  0  0  0
  195.1550  175.2620  143.0560 C   0  0  1  0  0  3  0  0  0  0  0  0
  195.6600  173.8810  145.2800 C   0  0  0  0  0  0  0  0  0  0  0  0
  195.4590  176.3240  144.1490 C   0  0  2  0  0  3  0  0  0  0  0  0
  194.4680  173.7740  145.9230 C   0  0  0  0  0  3  0  0  0  0  0  0
  197.8160  174.9070  143.6400 S   0  0  0  0  0  1  0  0  0  0  0  0
  193.3410  175.9400  145.3950 N   0  0  0  0  0  0  0  0  0  0  0  0
  193.1690  174.5320  145.7290 C   0  0  0  0  0  2  0  0  0  0  0  0
  196.0780  174.9280  144.2090 C   0  0  2  0  0  0  0  0  0  0  0  0
  194.6640  176.5540  145.4350 C   0  0  0  0  0  2  0  0  0  0  0  0
  196.7270  172.9460  145.7530 C   0  0  0  0  0  3  0  0  0  0  0  0
  196.2210  171.6810  145.9900 F   0  0  0  0  0  0  0  0  0  0  0  0
  197.3580  173.4450  146.8790 F   0  0  0  0  0  0  0  0  0  0  0  0
  193.8980  174.6680  143.1400 O   0  0  0  0  0  0  0  0  0  0  0  0
  193.9140  173.7270  142.2210 O   0  0  0  0  0  1  0  0  0  0  0  0
  187.8510  176.0470  144.1720 N   0  0  0  0  0  2  0  0  0  0  0  0
  185.6720  176.7800  142.7080 O   0  0  0  0  0  0  0  0  0  0  0  0
  186.8190  176.4560  147.7190 O   0  0  0  0  0  0  0  0  0  0  0  0
  183.6350  179.0410  146.0480 O   0  0  0  0  0  0  0  0  0  0  0  0
  187.1990  177.6780  145.8120 O   0  0  0  0  0  0  0  0  0  0  0  0
  187.2460  177.3650  144.4160 C   0  0  2  0  0  3  0  0  0  0  0  0
  184.4540  178.1860  145.6110 C   0  0  0  0  0  0  0  0  0  0  0  0
  184.8650  177.0680  146.5140 C   0  0  0  0  0  2  0  0  0  0  0  0
  185.8860  177.4310  143.7630 C   0  0  0  0  0  0  0  0  0  0  0  0
  184.8610  178.2290  144.2770 O   0  0  0  0  0  0  0  0  0  0  0  0
  186.3400  177.0380  146.7110 C   0  0  0  0  0  0  0  0  0  0  0  0
  1 12  1  0  0  0  0
  1 29  1  1  0  0  0
  2  3  2  0  0  0  0
  2  6  1  0  0  0  0
  3  7  1  0  0  0  0
  4  5  1  0  0  0  0
  6  4  2  0  0  0  0
  7  1  1  0  0  0  0
  7  5  2  0  0  0  0
  8  9  2  0  0  0  0
  9 10  2  0  0  0  0
  9  6  1  0  0  0  0
 12 11  1  6  0  0  0
 12 14  1  0  0  0  0
 13 20  1  0  0  0  0
 14 13  2  0  0  0  0
 15 27  1  1  0  0  0
 15 17  1  0  0  0  0
 15 22  1  0  0  0  0
 16 24  1  0  0  0  0
 16 18  2  0  0  0  0
 17 22  1  0  0  0  0
 17 23  1  1  0  0  0
 20 23  1  0  0  0  0
 20 21  1  0  0  0  0
 21 18  1  0  0  0  0
 22 19  1  6  0  0  0
 22 16  1  0  0  0  0
 24 25  1  0  0  0  0
 24 26  1  0  0  0  0
 28 27  1  0  0  0  0
 30 37  2  0  0  0  0
 33 39  1  0  0  0  0
 34 29  1  1  0  0  0
 34 33  1  0  0  0  0
 35 32  2  0  0  0  0
 35 36  1  0  0  0  0
 36 39  1  0  0  0  0
 37 38  1  0  0  0  0
 37 34  1  0  0  0  0
 38 35  1  0  0  0  0
 39 31  2  0  0  0  0
M  END
>  <MODEL>
5

>  <REMARK>
 VINA RESULT:      -6.8      1.796      5.796
  Name = 
  9 active torsions:
  status: ('A' for Active; 'I' for Inactive)
    1  A    between atoms: C_1  and  O_8
    2  A    between atoms: C_3  and  N_27
    3  A    between atoms: C_6  and  C_17
    4  A    between atoms: N_7  and  C_15
    5  A    between atoms: N_7  and  C_22
    6  A    between atoms: C_15  and  C_16
    7  A    between atoms: C_15  and  C_35
    8  A    between atoms: C_16  and  C_26
    9  A    between atoms: C_23  and  N_29
                            x       y       z     vdW  Elec       q    Type
                         _______ _______ _______ _____ _____    ______ ____

>  <TORSDO>
F 9

$$$$
=
 OpenBabel11072409243D

 39 42  0  0  1  0  0  0  0  0999 V2000
  188.8290  175.8000  143.0570 C   0  0  2  0  0  3  0  0  0  0  0  0
  185.4630  177.1920  144.1100 C   0  0  0  0  0  3  0  0  0  0  0  0
  186.7080  176.5560  144.1400 C   0  0  0  0  0  3  0  0  0  0  0  0
  185.7470  177.6470  141.7500 C   0  0  0  0  0  3  0  0  0  0  0  0
  186.9970  177.0150  141.7790 C   0  0  0  0  0  3  0  0  0  0  0  0
  184.9780  177.7480  142.9190 C   0  0  0  0  0  0  0  0  0  0  0  0
  187.4800  176.4680  142.9770 C   0  0  0  0  0  0  0  0  0  0  0  0
  182.8700  178.2490  141.7890 O   0  0  0  0  0  0  0  0  0  0  0  0
  183.6910  178.3890  142.8870 N   0  0  0  0  0  0  0  0  0  0  0  0
  183.2790  179.0360  143.8720 O   0  0  0  0  0  0  0  0  0  0  0  0
  190.4410  177.7430  142.8150 C   0  0  0  0  0  1  0  0  0  0  0  0
  189.9010  176.6650  143.7450 C   0  0  2  0  0  3  0  0  0  0  0  0
  192.1110  176.2740  144.8050 C   0  0  0  0  0  3  0  0  0  0  0  0
  191.0140  175.7930  144.2210 C   0  0  0  0  0  3  0  0  0  0  0  0
  195.4470  175.1040  143.2200 C   0  0  1  0  0  3  0  0  0  0  0  0
  195.4670  173.3080  145.1910 C   0  0  0  0  0  0  0  0  0  0  0  0
  195.5080  175.9270  144.5380 C   0  0  2  0  0  3  0  0  0  0  0  0
  194.1650  173.1280  145.5340 C   0  0  0  0  0  3  0  0  0  0  0  0
  197.9220  174.5410  144.2730 S   0  0  0  0  0  1  0  0  0  0  0  0
  193.1720  175.3980  145.2090 N   0  0  0  0  0  0  0  0  0  0  0  0
  192.9360  173.9600  145.2210 C   0  0  0  0  0  2  0  0  0  0  0  0
  196.1020  174.5210  144.4560 C   0  0  2  0  0  0  0  0  0  0  0  0
  194.4540  175.9400  145.6460 C   0  0  0  0  0  2  0  0  0  0  0  0
  196.4090  172.2590  145.6880 C   0  0  0  0  0  3  0  0  0  0  0  0
  195.7360  171.1130  146.0680 F   0  0  0  0  0  0  0  0  0  0  0  0
  197.1850  172.7440  146.7270 F   0  0  0  0  0  0  0  0  0  0  0  0
  194.2030  174.5550  142.9210 O   0  0  0  0  0  0  0  0  0  0  0  0
  193.9070  175.0340  141.7320 O   0  0  0  0  0  1  0  0  0  0  0  0
  189.2940  175.2970  141.7600 N   0  0  0  0  0  2  0  0  0  0  0  0
  188.1260  174.9820  139.3180 O   0  0  0  0  0  0  0  0  0  0  0  0
  191.7720  172.5380  142.0120 O   0  0  0  0  0  0  0  0  0  0  0  0
  189.3950  170.6800  138.7720 O   0  0  0  0  0  0  0  0  0  0  0  0
  189.5100  172.9060  141.8770 O   0  0  0  0  0  0  0  0  0  0  0  0
  188.6980  173.9950  141.4240 C   0  0  2  0  0  3  0  0  0  0  0  0
  189.5050  171.8220  139.2970 C   0  0  0  0  0  0  0  0  0  0  0  0
  190.8330  172.2240  139.8530 C   0  0  0  0  0  2  0  0  0  0  0  0
  188.4190  173.9300  139.9410 C   0  0  0  0  0  0  0  0  0  0  0  0
  188.4380  172.7200  139.2410 O   0  0  0  0  0  0  0  0  0  0  0  0
  190.7380  172.5740  141.2960 C   0  0  0  0  0  0  0  0  0  0  0  0
  1 29  1  6  0  0  0
  1 12  1  0  0  0  0
  2  3  1  0  0  0  0
  4  5  2  0  0  0  0
  4  6  1  0  0  0  0
  5  7  1  0  0  0  0
  6  2  2  0  0  0  0
  7  1  1  0  0  0  0
  7  3  2  0  0  0  0
  8  9  2  0  0  0  0
  9  6  1  0  0  0  0
  9 10  2  0  0  0  0
 12 11  1  6  0  0  0
 12 14  1  0  0  0  0
 13 20  1  0  0  0  0
 14 13  2  0  0  0  0
 15 27  1  1  0  0  0
 15 22  1  0  0  0  0
 15 17  1  0  0  0  0
 16 18  2  0  0  0  0
 16 24  1  0  0  0  0
 17 23  1  1  0  0  0
 20 21  1  0  0  0  0
 20 23  1  0  0  0  0
 21 18  1  0  0  0  0
 22 19  1  6  0  0  0
 22 17  1  0  0  0  0
 22 16  1  0  0  0  0
 24 25  1  0  0  0  0
 24 26  1  0  0  0  0
 28 27  1  0  0  0  0
 30 37  2  0  0  0  0
 32 35  2  0  0  0  0
 34 29  1  6  0  0  0
 34 33  1  0  0  0  0
 35 36  1  0  0  0  0
 36 39  1  0  0  0  0
 37 34  1  0  0  0  0
 38 35  1  0  0  0  0
 38 37  1  0  0  0  0
 39 33  1  0  0  0  0
 39 31  2  0  0  0  0
M  END
>  <MODEL>
6

>  <REMARK>
 VINA RESULT:      -6.7      1.865      2.389
  Name = 
  9 active torsions:
  status: ('A' for Active; 'I' for Inactive)
    1  A    between atoms: C_1  and  O_8
    2  A    between atoms: C_3  and  N_27
    3  A    between atoms: C_6  and  C_17
    4  A    between atoms: N_7  and  C_15
    5  A    between atoms: N_7  and  C_22
    6  A    between atoms: C_15  and  C_16
    7  A    between atoms: C_15  and  C_35
    8  A    between atoms: C_16  and  C_26
    9  A    between atoms: C_23  and  N_29
                            x       y       z     vdW  Elec       q    Type
                         _______ _______ _______ _____ _____    ______ ____

>  <TORSDO>
F 9

$$$$
=
 OpenBabel11072409243D

 39 42  0  0  1  0  0  0  0  0999 V2000
  189.4060  176.7010  146.3410 C   0  0  2  0  0  3  0  0  0  0  0  0
  193.1640  176.1980  146.3800 C   0  0  0  0  0  3  0  0  0  0  0  0
  191.8220  176.2250  146.7690 C   0  0  0  0  0  3  0  0  0  0  0  0
  192.5690  177.1670  144.2430 C   0  0  0  0  0  3  0  0  0  0  0  0
  191.2220  177.1890  144.6290 C   0  0  0  0  0  3  0  0  0  0  0  0
  193.5460  176.6610  145.1130 C   0  0  0  0  0  0  0  0  0  0  0  0
  190.8470  176.7160  145.8950 C   0  0  0  0  0  0  0  0  0  0  0  0
  195.4260  175.6110  143.9580 O   0  0  0  0  0  0  0  0  0  0  0  0
  194.9290  176.6460  144.7200 N   0  0  0  0  0  0  0  0  0  0  0  0
  195.6840  177.5950  145.0170 O   0  0  0  0  0  0  0  0  0  0  0  0
  188.9510  174.5370  147.5810 C   0  0  0  0  0  1  0  0  0  0  0  0
  188.7610  175.3050  146.2800 C   0  0  2  0  0  3  0  0  0  0  0  0
  188.9480  174.7090  143.8780 C   0  0  0  0  0  3  0  0  0  0  0  0
  189.3400  174.5370  145.1410 C   0  0  0  0  0  3  0  0  0  0  0  0
  191.5250  171.8210  143.6930 C   0  0  1  0  0  3  0  0  0  0  0  0
  191.4590  172.2620  141.0640 C   0  0  0  0  0  0  0  0  0  0  0  0
  190.0620  171.5310  143.2550 C   0  0  2  0  0  3  0  0  0  0  0  0
  191.0900  173.5620  140.9200 C   0  0  0  0  0  3  0  0  0  0  0  0
  191.7080  169.5770  142.1190 S   0  0  0  0  0  1  0  0  0  0  0  0
  189.5070  173.9160  142.8220 N   0  0  0  0  0  0  0  0  0  0  0  0
  190.4670  174.5270  141.9100 C   0  0  0  0  0  2  0  0  0  0  0  0
  191.2300  171.3330  142.2890 C   0  0  2  0  0  0  0  0  0  0  0  0
  189.0870  172.5320  142.6330 C   0  0  0  0  0  2  0  0  0  0  0  0
  192.0520  171.6290  139.8460 C   0  0  0  0  0  3  0  0  0  0  0  0
  192.8390  172.5230  139.1440 F   0  0  0  0  0  0  0  0  0  0  0  0
  191.0650  171.0970  139.0350 F   0  0  0  0  0  0  0  0  0  0  0  0
  191.8650  173.1700  143.7690 O   0  0  0  0  0  0  0  0  0  0  0  0
  192.9270  173.2000  144.5450 O   0  0  0  0  0  1  0  0  0  0  0  0
  188.5860  177.7030  145.6520 N   0  0  0  0  0  2  0  0  0  0  0  0
  186.8570  178.6170  147.5510 O   0  0  0  0  0  0  0  0  0  0  0  0
  187.0580  178.6700  142.4040 O   0  0  0  0  0  0  0  0  0  0  0  0
  183.3300  179.0610  144.7610 O   0  0  0  0  0  0  0  0  0  0  0  0
  186.6910  177.3200  144.2250 O   0  0  0  0  0  0  0  0  0  0  0  0
  187.1720  177.3030  145.5730 C   0  0  2  0  0  3  0  0  0  0  0  0
  184.5660  178.9690  144.9980 C   0  0  0  0  0  0  0  0  0  0  0  0
  185.5250  179.5340  144.0010 C   0  0  0  0  0  2  0  0  0  0  0  0
  186.3450  178.1700  146.4920 C   0  0  0  0  0  0  0  0  0  0  0  0
  185.0050  178.4610  146.2210 O   0  0  0  0  0  0  0  0  0  0  0  0
  186.4720  178.4990  143.5050 C   0  0  0  0  0  0  0  0  0  0  0  0
  1 29  1  6  0  0  0
  2  3  1  0  0  0  0
  4  5  2  0  0  0  0
  4  6  1  0  0  0  0
  5  7  1  0  0  0  0
  6  2  2  0  0  0  0
  7  1  1  0  0  0  0
  7  3  2  0  0  0  0
  8  9  2  0  0  0  0
  9 10  2  0  0  0  0
  9  6  1  0  0  0  0
 12  1  1  0  0  0  0
 12 11  1  1  0  0  0
 13 14  2  0  0  0  0
 14 12  1  0  0  0  0
 15 27  1  6  0  0  0
 16 22  1  0  0  0  0
 17 23  1  6  0  0  0
 17 15  1  0  0  0  0
 18 16  2  0  0  0  0
 18 21  1  0  0  0  0
 20 13  1  0  0  0  0
 21 20  1  0  0  0  0
 22 19  1  6  0  0  0
 22 17  1  0  0  0  0
 22 15  1  0  0  0  0
 23 20  1  0  0  0  0
 24 16  1  0  0  0  0
 25 24  1  0  0  0  0
 26 24  1  0  0  0  0
 27 28  1  0  0  0  0
 31 39  2  0  0  0  0
 32 35  2  0  0  0  0
 33 34  1  0  0  0  0
 34 29  1  6  0  0  0
 34 37  1  0  0  0  0
 35 38  1  0  0  0  0
 36 35  1  0  0  0  0
 37 30  2  0  0  0  0
 38 37  1  0  0  0  0
 39 36  1  0  0  0  0
 39 33  1  0  0  0  0
M  END
>  <MODEL>
7

>  <REMARK>
 VINA RESULT:      -6.7      3.222      6.976
  Name = 
  9 active torsions:
  status: ('A' for Active; 'I' for Inactive)
    1  A    between atoms: C_1  and  O_8
    2  A    between atoms: C_3  and  N_27
    3  A    between atoms: C_6  and  C_17
    4  A    between atoms: N_7  and  C_15
    5  A    between atoms: N_7  and  C_22
    6  A    between atoms: C_15  and  C_16
    7  A    between atoms: C_15  and  C_35
    8  A    between atoms: C_16  and  C_26
    9  A    between atoms: C_23  and  N_29
                            x       y       z     vdW  Elec       q    Type
                         _______ _______ _______ _____ _____    ______ ____

>  <TORSDO>
F 9

$$$$
=
 OpenBabel11072409243D

 39 42  0  0  1  0  0  0  0  0999 V2000
  189.0360  175.5300  145.2170 C   0  0  2  0  0  3  0  0  0  0  0  0
  185.7620  177.2540  146.0440 C   0  0  0  0  0  3  0  0  0  0  0  0
  186.8350  176.3580  146.0610 C   0  0  0  0  0  3  0  0  0  0  0  0
  186.7720  178.4340  144.1880 C   0  0  0  0  0  3  0  0  0  0  0  0
  187.8510  177.5400  144.2080 C   0  0  0  0  0  3  0  0  0  0  0  0
  185.7270  178.3020  145.1140 C   0  0  0  0  0  0  0  0  0  0  0  0
  187.8830  176.5000  145.1470 C   0  0  0  0  0  0  0  0  0  0  0  0
  184.6090  180.2800  144.2130 O   0  0  0  0  0  0  0  0  0  0  0  0
  184.6160  179.2150  145.0870 N   0  0  0  0  0  0  0  0  0  0  0  0
  183.6200  179.0240  145.8160 O   0  0  0  0  0  0  0  0  0  0  0  0
  190.0490  177.3900  146.6120 C   0  0  0  0  0  1  0  0  0  0  0  0
  190.0880  175.9050  146.2760 C   0  0  2  0  0  3  0  0  0  0  0  0
  192.3360  174.8880  146.5470 C   0  0  0  0  0  3  0  0  0  0  0  0
  191.4450  175.5240  145.7870 C   0  0  0  0  0  3  0  0  0  0  0  0
  194.4280  176.0230  143.4890 C   0  0  1  0  0  3  0  0  0  0  0  0
  196.0390  174.0040  144.1560 C   0  0  0  0  0  0  0  0  0  0  0  0
  194.9600  176.3610  144.9110 C   0  0  2  0  0  3  0  0  0  0  0  0
  195.2550  173.1150  144.8190 C   0  0  0  0  0  3  0  0  0  0  0  0
  197.1110  176.4920  143.1290 S   0  0  0  0  0  1  0  0  0  0  0  0
  193.6430  174.5800  146.0440 N   0  0  0  0  0  0  0  0  0  0  0  0
  193.8780  173.2780  145.4340 C   0  0  0  0  0  2  0  0  0  0  0  0
  195.7870  175.5220  143.9360 C   0  0  2  0  0  0  0  0  0  0  0  0
  194.7340  175.5400  146.1810 C   0  0  0  0  0  2  0  0  0  0  0  0
  197.3540  173.4700  143.6850 C   0  0  0  0  0  3  0  0  0  0  0  0
  197.2320  172.8320  142.4650 F   0  0  0  0  0  0  0  0  0  0  0  0
  197.9110  172.6270  144.6310 F   0  0  0  0  0  0  0  0  0  0  0  0
  193.4450  175.0380  143.4430 O   0  0  0  0  0  0  0  0  0  0  0  0
  193.2580  174.8170  142.1600 O   0  0  0  0  0  1  0  0  0  0  0  0
  189.6530  175.2820  143.9100 N   0  0  0  0  0  2  0  0  0  0  0  0
  188.8560  176.2770  141.5010 O   0  0  0  0  0  0  0  0  0  0  0  0
  191.2630  172.0240  143.1280 O   0  0  0  0  0  0  0  0  0  0  0  0
  189.0480  172.3320  139.3070 O   0  0  0  0  0  0  0  0  0  0  0  0
  189.2250  173.0790  143.0510 O   0  0  0  0  0  0  0  0  0  0  0  0
  188.8050  174.4480  143.0450 C   0  0  2  0  0  3  0  0  0  0  0  0
  189.3600  173.1020  140.2560 C   0  0  0  0  0  0  0  0  0  0  0  0
  190.6380  172.8450  140.9870 C   0  0  0  0  0  2  0  0  0  0  0  0
  188.7630  175.0320  141.6540 C   0  0  0  0  0  0  0  0  0  0  0  0
  188.5840  174.2310  140.5230 O   0  0  0  0  0  0  0  0  0  0  0  0
  190.4030  172.6370  142.4420 C   0  0  0  0  0  0  0  0  0  0  0  0
  1 29  1  6  0  0  0
  1 12  1  0  0  0  0
  2  3  1  0  0  0  0
  4  5  2  0  0  0  0
  4  6  1  0  0  0  0
  5  7  1  0  0  0  0
  6  2  2  0  0  0  0
  7  1  1  0  0  0  0
  7  3  2  0  0  0  0
  8  9  2  0  0  0  0
  9  6  1  0  0  0  0
  9 10  2  0  0  0  0
 12 11  1  6  0  0  0
 14 12  1  0  0  0  0
 14 13  2  0  0  0  0
 15 27  1  1  0  0  0
 15 22  1  0  0  0  0
 15 17  1  0  0  0  0
 16 18  2  0  0  0  0
 17 23  1  1  0  0  0
 18 21  1  0  0  0  0
 20 23  1  0  0  0  0
 20 13  1  0  0  0  0
 21 20  1  0  0  0  0
 22 19  1  6  0  0  0
 22 16  1  0  0  0  0
 22 17  1  0  0  0  0
 24 16  1  0  0  0  0
 24 26  1  0  0  0  0
 25 24  1  0  0  0  0
 28 27  1  0  0  0  0
 30 37  2  0  0  0  0
 32 35  2  0  0  0  0
 34 33  1  0  0  0  0
 34 29  1  1  0  0  0
 35 38  1  0  0  0  0
 35 36  1  0  0  0  0
 36 39  1  0  0  0  0
 37 34  1  0  0  0  0
 38 37  1  0  0  0  0
 39 33  1  0  0  0  0
 39 31  2  0  0  0  0
M  END
>  <MODEL>
8

>  <REMARK>
 VINA RESULT:      -6.6      1.783      2.399
  Name = 
  9 active torsions:
  status: ('A' for Active; 'I' for Inactive)
    1  A    between atoms: C_1  and  O_8
    2  A    between atoms: C_3  and  N_27
    3  A    between atoms: C_6  and  C_17
    4  A    between atoms: N_7  and  C_15
    5  A    between atoms: N_7  and  C_22
    6  A    between atoms: C_15  and  C_16
    7  A    between atoms: C_15  and  C_35
    8  A    between atoms: C_16  and  C_26
    9  A    between atoms: C_23  and  N_29
                            x       y       z     vdW  Elec       q    Type
                         _______ _______ _______ _____ _____    ______ ____

>  <TORSDO>
F 9

$$$$
=
 OpenBabel11072409243D

 39 42  0  0  1  0  0  0  0  0999 V2000
  189.1420  176.5760  143.8450 C   0  0  2  0  0  3  0  0  0  0  0  0
  192.8540  177.0300  144.4760 C   0  0  0  0  0  3  0  0  0  0  0  0
  191.5980  177.0390  143.8610 C   0  0  0  0  0  3  0  0  0  0  0  0
  191.8940  175.9730  146.4310 C   0  0  0  0  0  3  0  0  0  0  0  0
  190.6340  175.9870  145.8180 C   0  0  0  0  0  3  0  0  0  0  0  0
  193.0080  176.5050  145.7660 C   0  0  0  0  0  0  0  0  0  0  0  0
  190.4840  176.5220  144.5310 C   0  0  0  0  0  0  0  0  0  0  0  0
  194.9930  175.2980  146.5240 O   0  0  0  0  0  0  0  0  0  0  0  0
  194.3040  176.4840  146.3910 N   0  0  0  0  0  0  0  0  0  0  0  0
  194.8430  177.5430  146.7730 O   0  0  0  0  0  0  0  0  0  0  0  0
  188.1950  177.6630  141.7580 C   0  0  0  0  0  1  0  0  0  0  0  0
  189.2410  176.7050  142.3140 C   0  0  2  0  0  3  0  0  0  0  0  0
  190.1170  174.5410  141.4740 C   0  0  0  0  0  3  0  0  0  0  0  0
  189.0880  175.3590  141.6900 C   0  0  0  0  0  3  0  0  0  0  0  0
  191.8770  171.0920  141.6430 C   0  0  1  0  0  3  0  0  0  0  0  0
  190.4190  170.5200  139.4840 C   0  0  0  0  0  0  0  0  0  0  0  0
  190.3940  171.1850  142.1010 C   0  0  2  0  0  3  0  0  0  0  0  0
  190.1580  171.7150  138.8920 C   0  0  0  0  0  3  0  0  0  0  0  0
  190.9480  168.5110  141.5020 S   0  0  0  0  0  1  0  0  0  0  0  0
  189.9240  173.2720  140.8320 N   0  0  0  0  0  0  0  0  0  0  0  0
  190.2780  173.1300  139.4260 C   0  0  0  0  0  2  0  0  0  0  0  0
  190.8130  170.2530  140.9640 C   0  0  2  0  0  0  0  0  0  0  0  0
  189.3390  172.1540  141.5650 C   0  0  0  0  0  2  0  0  0  0  0  0
  190.1810  169.3180  138.6290 C   0  0  0  0  0  3  0  0  0  0  0  0
  191.3690  168.7860  138.1630 F   0  0  0  0  0  0  0  0  0  0  0  0
  189.3290  169.6180  137.5800 F   0  0  0  0  0  0  0  0  0  0  0  0
  192.3290  172.1660  140.8800 O   0  0  0  0  0  0  0  0  0  0  0  0
  193.6350  172.1570  141.0380 O   0  0  0  0  0  1  0  0  0  0  0  0
  188.2530  177.5940  144.4150 N   0  0  0  0  0  2  0  0  0  0  0  0
  188.0060  177.8670  147.1150 O   0  0  0  0  0  0  0  0  0  0  0  0
  185.0580  178.8810  143.0150 O   0  0  0  0  0  0  0  0  0  0  0  0
  183.5040  178.2500  147.1130 O   0  0  0  0  0  0  0  0  0  0  0  0
  185.8860  177.1830  144.3210 O   0  0  0  0  0  0  0  0  0  0  0  0
  187.0850  176.9990  145.0830 C   0  0  2  0  0  3  0  0  0  0  0  0
  184.6330  178.3120  146.5540 C   0  0  0  0  0  0  0  0  0  0  0  0
  184.7860  179.1910  145.3560 C   0  0  0  0  0  2  0  0  0  0  0  0
  186.9660  177.5440  146.4850 C   0  0  0  0  0  0  0  0  0  0  0  0
  185.7310  177.6660  147.1260 O   0  0  0  0  0  0  0  0  0  0  0  0
  185.2580  178.4230  144.1710 C   0  0  0  0  0  0  0  0  0  0  0  0
  1 29  1  1  0  0  0
  1  7  1  0  0  0  0
  2  6  1  0  0  0  0
  3  2  2  0  0  0  0
  3  7  1  0  0  0  0
  5  4  1  0  0  0  0
  6  9  1  0  0  0  0
  6  4  2  0  0  0  0
  7  5  2  0  0  0  0
  9  8  2  0  0  0  0
  9 10  2  0  0  0  0
 12 11  1  6  0  0  0
 12  1  1  0  0  0  0
 13 14  2  0  0  0  0
 14 12  1  0  0  0  0
 15 27  1  6  0  0  0
 15 17  1  0  0  0  0
 16 22  1  0  0  0  0
 17 23  1  6  0  0  0
 18 21  1  0  0  0  0
 18 16  2  0  0  0  0
 20 13  1  0  0  0  0
 20 23  1  0  0  0  0
 21 20  1  0  0  0  0
 22 19  1  1  0  0  0
 22 15  1  0  0  0  0
 22 17  1  0  0  0  0
 24 16  1  0  0  0  0
 25 24  1  0  0  0  0
 26 24  1  0  0  0  0
 27 28  1  0  0  0  0
 31 39  2  0  0  0  0
 33 34  1  0  0  0  0
 34 29  1  6  0  0  0
 34 37  1  0  0  0  0
 35 32  2  0  0  0  0
 35 38  1  0  0  0  0
 36 35  1  0  0  0  0
 37 30  2  0  0  0  0
 37 38  1  0  0  0  0
 39 33  1  0  0  0  0
 39 36  1  0  0  0  0
M  END
>  <MODEL>
9

>  <REMARK>
 VINA RESULT:      -6.6      3.775      7.438
  Name = 
  9 active torsions:
  status: ('A' for Active; 'I' for Inactive)
    1  A    between atoms: C_1  and  O_8
    2  A    between atoms: C_3  and  N_27
    3  A    between atoms: C_6  and  C_17
    4  A    between atoms: N_7  and  C_15
    5  A    between atoms: N_7  and  C_22
    6  A    between atoms: C_15  and  C_16
    7  A    between atoms: C_15  and  C_35
    8  A    between atoms: C_16  and  C_26
    9  A    between atoms: C_23  and  N_29
                            x       y       z     vdW  Elec       q    Type
                         _______ _______ _______ _____ _____    ______ ____

>  <TORSDO>
F 9

$$$$
