=
 OpenBabel11062422093D

 27 30  0  0  1  0  0  0  0  0999 V2000
  184.2810  179.4550  144.9440 C   0  0  0  0  0  2  0  0  0  0  0  0
  185.3460  178.9120  143.9770 C   0  0  1  0  0  3  0  0  0  0  0  0
  183.4860  178.0600  142.7160 O   0  0  0  0  0  1  0  0  0  0  0  0
  187.5460  176.4360  140.7370 C   0  0  0  0  0  3  0  0  0  0  0  0
  186.7250  178.4830  145.9720 N   0  0  0  0  0  0  0  0  0  0  0  0
  188.7180  174.5400  142.8340 C   0  0  0  0  0  3  0  0  0  0  0  0
  188.3420  175.3930  140.5160 C   0  0  0  0  0  3  0  0  0  0  0  0
  188.6270  174.3480  141.5120 C   0  0  0  0  0  3  0  0  0  0  0  0
  187.7320  176.8150  143.1730 C   0  0  0  0  0  0  0  0  0  0  0  0
  184.3030  178.7120  146.2680 C   0  0  0  0  0  2  0  0  0  0  0  0
  185.6740  178.9280  146.8840 C   0  0  0  0  0  2  0  0  0  0  0  0
  184.9260  177.3880  140.7120 O   0  0  0  0  0  1  0  0  0  0  0  0
  186.6260  178.4950  144.6730 C   0  0  0  0  0  0  0  0  0  0  0  0
  187.7410  178.0480  143.9050 N   0  0  0  0  0  2  0  0  0  0  0  0
  186.7810  176.6050  142.0140 C   0  0  1  0  0  3  0  0  0  0  0  0
  188.5790  175.8340  143.5530 C   0  0  0  0  0  0  0  0  0  0  0  0
  184.8090  177.7890  143.0860 C   0  0  1  0  0  3  0  0  0  0  0  0
  185.7000  177.6800  141.8420 C   0  0  2  0  0  3  0  0  0  0  0  0
  189.3850  176.0100  144.8140 C   0  0  2  0  0  3  0  0  0  0  0  0
  190.7310  174.9970  147.6880 C   0  0  0  0  0  2  0  0  0  0  0  0
  189.3270  175.3920  147.2250 C   0  0  0  0  0  2  0  0  0  0  0  0
  190.8940  176.1120  144.5170 C   0  0  2  0  0  3  0  0  0  0  0  0
  191.7370  176.3420  145.7830 C   0  0  1  0  0  3  0  0  0  0  0  0
  191.8030  175.0590  146.6000 C   0  0  0  0  0  2  0  0  0  0  0  0
  189.0200  174.9160  145.8150 C   0  0  0  0  0  2  0  0  0  0  0  0
  193.1600  176.7290  145.4190 C   0  0  0  0  0  1  0  0  0  0  0  0
  191.1080  177.1540  143.6080 O   0  0  0  0  0  1  0  0  0  0  0  0
  1 10  1  0  0  0  0
  2 13  1  0  0  0  0
  2  1  1  1  0  0  0
  5 11  1  0  0  0  0
  6 16  1  0  0  0  0
  7  4  2  0  0  0  0
  7  8  1  0  0  0  0
  8  6  2  0  0  0  0
  9 16  2  0  0  0  0
  9 14  1  0  0  0  0
 10 11  1  0  0  0  0
 13  5  2  0  0  0  0
 14 13  1  0  0  0  0
 15  4  1  6  0  0  0
 15  9  1  0  0  0  0
 17  3  1  6  0  0  0
 17  2  1  0  0  0  0
 18 12  1  6  0  0  0
 18 15  1  0  0  0  0
 18 17  1  0  0  0  0
 19 16  1  6  0  0  0
 19 25  1  0  0  0  0
 21 20  1  0  0  0  0
 22 27  1  6  0  0  0
 22 19  1  0  0  0  0
 22 23  1  0  0  0  0
 23 26  1  6  0  0  0
 23 24  1  0  0  0  0
 24 20  1  0  0  0  0
 25 21  1  0  0  0  0
M  END
>  <MODEL>
1

>  <REMARK>
 VINA RESULT:      -8.4      0.000      0.000
  Name = 
  1 active torsions:
  status: ('A' for Active; 'I' for Inactive)
    1  A    between atoms: C_2  and  C_23
                            x       y       z     vdW  Elec       q    Type
                         _______ _______ _______ _____ _____    ______ ____

>  <TORSDO>
F 1

$$$$
=
 OpenBabel11062422093D

 27 30  0  0  1  0  0  0  0  0999 V2000
  184.8460  177.6480  141.3470 C   0  0  0  0  0  2  0  0  0  0  0  0
  185.1380  177.3590  142.8280 C   0  0  1  0  0  3  0  0  0  0  0  0
  183.6870  179.2210  143.2770 O   0  0  0  0  0  1  0  0  0  0  0  0
  185.6470  177.7810  147.4140 C   0  0  0  0  0  3  0  0  0  0  0  0
  187.4230  176.7800  142.1120 N   0  0  0  0  0  0  0  0  0  0  0  0
  188.6200  178.4440  147.1280 C   0  0  0  0  0  3  0  0  0  0  0  0
  186.5050  178.0460  148.3960 C   0  0  0  0  0  3  0  0  0  0  0  0
  187.8320  178.6480  148.1900 C   0  0  0  0  0  3  0  0  0  0  0  0
  187.0980  177.3750  145.4540 C   0  0  0  0  0  0  0  0  0  0  0  0
  186.0720  178.1960  140.6370 C   0  0  0  0  0  2  0  0  0  0  0  0
  187.1540  177.1340  140.7200 C   0  0  0  0  0  2  0  0  0  0  0  0
  183.6100  178.7810  145.7950 O   0  0  0  0  0  1  0  0  0  0  0  0
  186.5390  176.8340  143.0680 C   0  0  0  0  0  0  0  0  0  0  0  0
  186.9370  176.4390  144.3800 N   0  0  0  0  0  2  0  0  0  0  0  0
  185.9170  178.1570  145.9890 C   0  0  1  0  0  3  0  0  0  0  0  0
  188.3330  177.5600  145.9680 C   0  0  0  0  0  0  0  0  0  0  0  0
  184.8340  178.5570  143.7300 C   0  0  1  0  0  3  0  0  0  0  0  0
  184.6280  178.0540  145.1640 C   0  0  2  0  0  3  0  0  0  0  0  0
  189.5110  176.9000  145.2990 C   0  0  2  0  0  3  0  0  0  0  0  0
  192.3650  176.8690  143.5820 C   0  0  0  0  0  2  0  0  0  0  0  0
  190.8900  177.0810  143.2340 C   0  0  0  0  0  2  0  0  0  0  0  0
  190.5010  176.3200  146.3280 C   0  0  2  0  0  3  0  0  0  0  0  0
  191.6890  175.5960  145.6720 C   0  0  1  0  0  3  0  0  0  0  0  0
  192.6420  176.6140  145.0630 C   0  0  0  0  0  2  0  0  0  0  0  0
  190.1460  177.8660  144.3010 C   0  0  0  0  0  2  0  0  0  0  0  0
  192.4680  174.7960  146.7030 C   0  0  0  0  0  1  0  0  0  0  0  0
  189.8140  175.4390  147.1720 O   0  0  0  0  0  1  0  0  0  0  0  0
  2  1  1  6  0  0  0
  2 13  1  0  0  0  0
  2 17  1  0  0  0  0
  4  7  2  0  0  0  0
  5 13  2  0  0  0  0
  6  8  2  0  0  0  0
  8  7  1  0  0  0  0
  9 16  2  0  0  0  0
  9 15  1  0  0  0  0
 10 11  1  0  0  0  0
 10  1  1  0  0  0  0
 11  5  1  0  0  0  0
 13 14  1  0  0  0  0
 14  9  1  0  0  0  0
 15  4  1  1  0  0  0
 16  6  1  0  0  0  0
 17  3  1  6  0  0  0
 17 18  1  0  0  0  0
 18 12  1  1  0  0  0
 18 15  1  0  0  0  0
 19 16  1  1  0  0  0
 19 22  1  0  0  0  0
 20 24  1  0  0  0  0
 21 20  1  0  0  0  0
 21 25  1  0  0  0  0
 22 27  1  1  0  0  0
 23 22  1  0  0  0  0
 23 26  1  1  0  0  0
 24 23  1  0  0  0  0
 25 19  1  0  0  0  0
M  END
>  <MODEL>
2

>  <REMARK>
 VINA RESULT:      -7.5      1.918      4.365
  Name = 
  1 active torsions:
  status: ('A' for Active; 'I' for Inactive)
    1  A    between atoms: C_2  and  C_23
                            x       y       z     vdW  Elec       q    Type
                         _______ _______ _______ _____ _____    ______ ____

>  <TORSDO>
F 1

$$$$
=
 OpenBabel11062422093D

 27 30  0  0  1  0  0  0  0  0999 V2000
  193.0700  175.4330  146.1870 C   0  0  0  0  0  2  0  0  0  0  0  0
  191.8840  176.1570  145.5290 C   0  0  1  0  0  3  0  0  0  0  0  0
  191.0040  176.3300  147.7580 O   0  0  0  0  0  1  0  0  0  0  0  0
  187.6930  177.9400  144.6790 C   0  0  0  0  0  3  0  0  0  0  0  0
  192.1660  174.5940  143.6460 N   0  0  0  0  0  0  0  0  0  0  0  0
  186.8450  175.4610  143.0970 C   0  0  0  0  0  3  0  0  0  0  0  0
  186.5170  177.7290  144.0910 C   0  0  0  0  0  3  0  0  0  0  0  0
  186.0600  176.4160  143.6100 C   0  0  0  0  0  3  0  0  0  0  0  0
  189.1560  176.1960  143.7140 C   0  0  0  0  0  0  0  0  0  0  0  0
  193.0890  173.9580  145.8250 C   0  0  0  0  0  2  0  0  0  0  0  0
  193.2400  173.8650  144.3170 C   0  0  0  0  0  2  0  0  0  0  0  0
  189.1120  177.9110  147.0780 O   0  0  0  0  0  1  0  0  0  0  0  0
  191.5660  175.6390  144.1410 C   0  0  0  0  0  0  0  0  0  0  0  0
  190.5450  176.2640  143.3640 N   0  0  0  0  0  2  0  0  0  0  0  0
  188.6430  176.8250  144.9920 C   0  0  1  0  0  3  0  0  0  0  0  0
  188.3150  175.5400  142.8860 C   0  0  0  0  0  0  0  0  0  0  0  0
  190.6380  176.1660  146.4160 C   0  0  1  0  0  3  0  0  0  0  0  0
  189.7220  177.3120  145.9680 C   0  0  2  0  0  3  0  0  0  0  0  0
  188.8830  174.7780  141.7170 C   0  0  2  0  0  3  0  0  0  0  0  0
  189.6790  172.0220  140.0250 C   0  0  0  0  0  2  0  0  0  0  0  0
  190.2590  172.7610  141.2320 C   0  0  0  0  0  2  0  0  0  0  0  0
  187.9860  174.8960  140.4690 C   0  0  2  0  0  3  0  0  0  0  0  0
  188.5680  174.1680  139.2450 C   0  0  1  0  0  3  0  0  0  0  0  0
  188.4280  172.6630  139.4240 C   0  0  0  0  0  2  0  0  0  0  0  0
  189.1830  173.3400  142.1350 C   0  0  0  0  0  2  0  0  0  0  0  0
  187.8170  174.5530  137.9820 C   0  0  0  0  0  1  0  0  0  0  0  0
  187.7980  176.2500  140.1720 O   0  0  0  0  0  1  0  0  0  0  0  0
  2  1  1  1  0  0  0
  2 17  1  0  0  0  0
  5 13  2  0  0  0  0
  5 11  1  0  0  0  0
  6  8  2  0  0  0  0
  7  4  2  0  0  0  0
  8  7  1  0  0  0  0
  9 15  1  0  0  0  0
 10  1  1  0  0  0  0
 11 10  1  0  0  0  0
 13  2  1  0  0  0  0
 14  9  1  0  0  0  0
 14 13  1  0  0  0  0
 15  4  1  6  0  0  0
 15 18  1  0  0  0  0
 16  6  1  0  0  0  0
 16  9  2  0  0  0  0
 17  3  1  1  0  0  0
 18 17  1  0  0  0  0
 18 12  1  1  0  0  0
 19 25  1  0  0  0  0
 19 16  1  1  0  0  0
 20 21  1  0  0  0  0
 21 25  1  0  0  0  0
 22 27  1  6  0  0  0
 22 19  1  0  0  0  0
 23 26  1  6  0  0  0
 23 24  1  0  0  0  0
 23 22  1  0  0  0  0
 24 20  1  0  0  0  0
M  END
>  <MODEL>
3

>  <REMARK>
 VINA RESULT:      -7.0      2.434      6.484
  Name = 
  1 active torsions:
  status: ('A' for Active; 'I' for Inactive)
    1  A    between atoms: C_2  and  C_23
                            x       y       z     vdW  Elec       q    Type
                         _______ _______ _______ _____ _____    ______ ____

>  <TORSDO>
F 1

$$$$
=
 OpenBabel11062422093D

 27 30  0  0  1  0  0  0  0  0999 V2000
  187.0290  177.8350  147.2530 C   0  0  0  0  0  2  0  0  0  0  0  0
  188.2400  176.8950  147.1350 C   0  0  1  0  0  3  0  0  0  0  0  0
  189.4730  178.6660  148.1930 O   0  0  0  0  0  1  0  0  0  0  0  0
  192.5560  175.2300  146.8810 C   0  0  0  0  0  3  0  0  0  0  0  0
  187.2890  176.1830  144.9770 N   0  0  0  0  0  0  0  0  0  0  0  0
  192.5060  175.2810  143.8210 C   0  0  0  0  0  3  0  0  0  0  0  0
  193.5370  174.8630  146.0590 C   0  0  0  0  0  3  0  0  0  0  0  0
  193.5730  175.1880  144.6240 C   0  0  0  0  0  3  0  0  0  0  0  0
  190.5750  175.3760  145.4090 C   0  0  0  0  0  0  0  0  0  0  0  0
  186.5890  178.3460  145.8920 C   0  0  0  0  0  2  0  0  0  0  0  0
  186.1870  177.1380  145.0650 C   0  0  0  0  0  2  0  0  0  0  0  0
  191.5660  177.2390  148.5410 O   0  0  0  0  0  1  0  0  0  0  0  0
  188.2000  176.0230  145.8960 C   0  0  0  0  0  0  0  0  0  0  0  0
  189.2090  175.0380  145.6850 N   0  0  0  0  0  2  0  0  0  0  0  0
  191.4200  176.1000  146.4360 C   0  0  1  0  0  3  0  0  0  0  0  0
  191.0880  175.0520  144.2030 C   0  0  0  0  0  0  0  0  0  0  0  0
  189.5720  177.6390  147.2460 C   0  0  1  0  0  3  0  0  0  0  0  0
  190.6620  176.6390  147.6550 C   0  0  2  0  0  3  0  0  0  0  0  0
  190.1730  174.4920  143.1450 C   0  0  2  0  0  3  0  0  0  0  0  0
  188.5660  174.5400  140.2270 C   0  0  0  0  0  2  0  0  0  0  0  0
  188.3780  175.2230  141.5830 C   0  0  0  0  0  2  0  0  0  0  0  0
  190.8190  173.3070  142.4000 C   0  0  2  0  0  3  0  0  0  0  0  0
  189.8880  172.6840  141.3470 C   0  0  1  0  0  3  0  0  0  0  0  0
  189.7760  173.6090  140.1440 C   0  0  0  0  0  2  0  0  0  0  0  0
  189.6960  175.6170  142.2280 C   0  0  0  0  0  2  0  0  0  0  0  0
  190.4410  171.3560  140.8560 C   0  0  0  0  0  1  0  0  0  0  0  0
  191.1980  172.3360  143.3350 O   0  0  0  0  0  1  0  0  0  0  0  0
  2 17  1  0  0  0  0
  2  1  1  6  0  0  0
  5 11  1  0  0  0  0
  5 13  2  0  0  0  0
  6 16  1  0  0  0  0
  6  8  2  0  0  0  0
  7  4  2  0  0  0  0
  8  7  1  0  0  0  0
  9 14  1  0  0  0  0
  9 15  1  0  0  0  0
 10  1  1  0  0  0  0
 11 10  1  0  0  0  0
 13  2  1  0  0  0  0
 14 13  1  0  0  0  0
 15  4  1  1  0  0  0
 15 18  1  0  0  0  0
 16  9  2  0  0  0  0
 17 18  1  0  0  0  0
 17  3  1  1  0  0  0
 18 12  1  1  0  0  0
 19 16  1  1  0  0  0
 20 21  1  0  0  0  0
 21 25  1  0  0  0  0
 22 19  1  0  0  0  0
 22 27  1  1  0  0  0
 23 26  1  6  0  0  0
 23 22  1  0  0  0  0
 24 20  1  0  0  0  0
 24 23  1  0  0  0  0
 25 19  1  0  0  0  0
M  END
>  <MODEL>
4

>  <REMARK>
 VINA RESULT:      -7.0      3.026      5.706
  Name = 
  1 active torsions:
  status: ('A' for Active; 'I' for Inactive)
    1  A    between atoms: C_2  and  C_23
                            x       y       z     vdW  Elec       q    Type
                         _______ _______ _______ _____ _____    ______ ____

>  <TORSDO>
F 1

$$$$
=
 OpenBabel11062422093D

 27 30  0  0  1  0  0  0  0  0999 V2000
  186.1680  177.3710  142.3630 C   0  0  0  0  0  2  0  0  0  0  0  0
  186.9030  176.5920  143.4670 C   0  0  1  0  0  3  0  0  0  0  0  0
  186.6490  178.5910  144.7770 O   0  0  0  0  0  1  0  0  0  0  0  0
  189.3830  175.4980  147.2250 C   0  0  0  0  0  3  0  0  0  0  0  0
  188.2420  175.5870  141.6600 N   0  0  0  0  0  0  0  0  0  0  0  0
  191.9610  175.2920  145.5900 C   0  0  0  0  0  3  0  0  0  0  0  0
  190.5960  175.1980  147.6810 C   0  0  0  0  0  3  0  0  0  0  0  0
  191.8370  175.4070  146.9180 C   0  0  0  0  0  3  0  0  0  0  0  0
  189.5970  175.2600  144.7730 C   0  0  0  0  0  0  0  0  0  0  0  0
  187.0970  177.7060  141.2090 C   0  0  0  0  0  2  0  0  0  0  0  0
  187.5900  176.3920  140.6300 C   0  0  0  0  0  2  0  0  0  0  0  0
  187.4500  177.4870  146.9390 O   0  0  0  0  0  1  0  0  0  0  0  0
  187.9370  175.6250  142.9270 C   0  0  0  0  0  0  0  0  0  0  0  0
  188.6450  174.7680  143.8200 N   0  0  0  0  0  2  0  0  0  0  0  0
  189.1660  176.1710  145.9040 C   0  0  1  0  0  3  0  0  0  0  0  0
  190.8920  174.9090  144.6310 C   0  0  0  0  0  0  0  0  0  0  0  0
  187.5070  177.5130  144.5290 C   0  0  1  0  0  3  0  0  0  0  0  0
  187.7300  176.7030  145.8130 C   0  0  2  0  0  3  0  0  0  0  0  0
  191.3140  174.1480  143.4000 C   0  0  2  0  0  3  0  0  0  0  0  0
  193.3230  173.4550  140.8350 C   0  0  0  0  0  2  0  0  0  0  0  0
  192.2950  174.5440  141.1460 C   0  0  0  0  0  2  0  0  0  0  0  0
  191.8000  172.7270  143.7460 C   0  0  2  0  0  3  0  0  0  0  0  0
  192.1910  171.9100  142.5020 C   0  0  1  0  0  3  0  0  0  0  0  0
  193.5110  172.4190  141.9430 C   0  0  0  0  0  2  0  0  0  0  0  0
  192.3220  174.9740  142.6040 C   0  0  0  0  0  2  0  0  0  0  0  0
  192.3750  170.4440  142.8570 C   0  0  0  0  0  1  0  0  0  0  0  0
  190.7920  172.0630  144.4540 O   0  0  0  0  0  1  0  0  0  0  0  0
  2  1  1  6  0  0  0
  2 17  1  0  0  0  0
  4  7  2  0  0  0  0
  5 13  2  0  0  0  0
  6  8  2  0  0  0  0
  8  7  1  0  0  0  0
  9 15  1  0  0  0  0
 10  1  1  0  0  0  0
 11 10  1  0  0  0  0
 11  5  1  0  0  0  0
 13  2  1  0  0  0  0
 13 14  1  0  0  0  0
 14  9  1  0  0  0  0
 15  4  1  1  0  0  0
 16  9  2  0  0  0  0
 16  6  1  0  0  0  0
 17  3  1  1  0  0  0
 17 18  1  0  0  0  0
 18 15  1  0  0  0  0
 18 12  1  1  0  0  0
 19 22  1  0  0  0  0
 19 16  1  1  0  0  0
 20 21  1  0  0  0  0
 20 24  1  0  0  0  0
 21 25  1  0  0  0  0
 22 27  1  6  0  0  0
 23 26  1  1  0  0  0
 23 22  1  0  0  0  0
 24 23  1  0  0  0  0
 25 19  1  0  0  0  0
M  END
>  <MODEL>
5

>  <REMARK>
 VINA RESULT:      -6.9      2.995      5.201
  Name = 
  1 active torsions:
  status: ('A' for Active; 'I' for Inactive)
    1  A    between atoms: C_2  and  C_23
                            x       y       z     vdW  Elec       q    Type
                         _______ _______ _______ _____ _____    ______ ____

>  <TORSDO>
F 1

$$$$
=
 OpenBabel11062422093D

 27 30  0  0  1  0  0  0  0  0999 V2000
  195.4680  174.6740  141.8070 C   0  0  0  0  0  2  0  0  0  0  0  0
  194.7080  175.3530  142.9580 C   0  0  1  0  0  3  0  0  0  0  0  0
  196.0680  173.9940  144.4000 O   0  0  0  0  0  1  0  0  0  0  0  0
  192.8180  176.2880  147.0840 C   0  0  0  0  0  3  0  0  0  0  0  0
  192.7300  175.2880  141.4920 N   0  0  0  0  0  0  0  0  0  0  0  0
  190.1360  175.0760  146.2450 C   0  0  0  0  0  3  0  0  0  0  0  0
  191.7150  176.1980  147.8230 C   0  0  0  0  0  3  0  0  0  0  0  0
  190.5640  175.3470  147.4850 C   0  0  0  0  0  3  0  0  0  0  0  0
  192.0300  175.8170  144.7880 C   0  0  0  0  0  0  0  0  0  0  0  0
  194.5670  173.7350  141.0250 C   0  0  0  0  0  2  0  0  0  0  0  0
  193.4440  174.5720  140.4380 C   0  0  0  0  0  2  0  0  0  0  0  0
  195.3220  175.1960  146.5300 O   0  0  0  0  0  1  0  0  0  0  0  0
  193.2700  175.6820  142.6110 C   0  0  0  0  0  0  0  0  0  0  0  0
  192.4560  176.3890  143.5440 N   0  0  0  0  0  2  0  0  0  0  0  0
  193.0340  175.4510  145.8600 C   0  0  1  0  0  3  0  0  0  0  0  0
  190.7120  175.5950  144.9770 C   0  0  0  0  0  0  0  0  0  0  0  0
  194.7950  174.5610  144.2650 C   0  0  1  0  0  3  0  0  0  0  0  0
  194.5070  175.5100  145.4350 C   0  0  2  0  0  3  0  0  0  0  0  0
  189.7610  175.8070  143.8270 C   0  0  2  0  0  3  0  0  0  0  0  0
  187.3540  174.9020  141.7090 C   0  0  0  0  0  2  0  0  0  0  0  0
  188.8480  174.6020  141.8490 C   0  0  0  0  0  2  0  0  0  0  0  0
  188.6220  176.7760  144.2000 C   0  0  2  0  0  3  0  0  0  0  0  0
  187.6630  177.0500  143.0290 C   0  0  1  0  0  3  0  0  0  0  0  0
  186.7860  175.8310  142.7830 C   0  0  0  0  0  2  0  0  0  0  0  0
  189.2810  174.4570  143.2990 C   0  0  0  0  0  2  0  0  0  0  0  0
  186.7470  178.2200  143.3450 C   0  0  0  0  0  1  0  0  0  0  0  0
  189.1790  177.9780  144.6500 O   0  0  0  0  0  1  0  0  0  0  0  0
  2  1  1  6  0  0  0
  2 17  1  0  0  0  0
  4  7  2  0  0  0  0
  5 13  2  0  0  0  0
  6  8  2  0  0  0  0
  8  7  1  0  0  0  0
  9 16  2  0  0  0  0
  9 15  1  0  0  0  0
 10  1  1  0  0  0  0
 11 10  1  0  0  0  0
 11  5  1  0  0  0  0
 13  2  1  0  0  0  0
 13 14  1  0  0  0  0
 14  9  1  0  0  0  0
 15  4  1  1  0  0  0
 16  6  1  0  0  0  0
 17  3  1  1  0  0  0
 17 18  1  0  0  0  0
 18 15  1  0  0  0  0
 18 12  1  1  0  0  0
 19 22  1  0  0  0  0
 19 16  1  1  0  0  0
 20 21  1  0  0  0  0
 20 24  1  0  0  0  0
 21 25  1  0  0  0  0
 22 27  1  6  0  0  0
 23 26  1  1  0  0  0
 23 22  1  0  0  0  0
 24 23  1  0  0  0  0
 25 19  1  0  0  0  0
M  END
>  <MODEL>
6

>  <REMARK>
 VINA RESULT:      -6.8      3.114      7.928
  Name = 
  1 active torsions:
  status: ('A' for Active; 'I' for Inactive)
    1  A    between atoms: C_2  and  C_23
                            x       y       z     vdW  Elec       q    Type
                         _______ _______ _______ _____ _____    ______ ____

>  <TORSDO>
F 1

$$$$
=
 OpenBabel11062422093D

 27 30  0  0  1  0  0  0  0  0999 V2000
  190.6170  171.1230  141.8070 C   0  0  0  0  0  2  0  0  0  0  0  0
  189.5800  172.2520  141.6900 C   0  0  1  0  0  3  0  0  0  0  0  0
  190.3770  172.4860  139.4350 O   0  0  0  0  0  1  0  0  0  0  0  0
  187.2780  176.0380  140.3350 C   0  0  0  0  0  3  0  0  0  0  0  0
  190.1240  172.7940  144.0300 N   0  0  0  0  0  0  0  0  0  0  0  0
  188.6800  177.7670  142.4350 C   0  0  0  0  0  3  0  0  0  0  0  0
  187.1010  177.3400  140.5460 C   0  0  0  0  0  3  0  0  0  0  0  0
  188.0070  178.1740  141.3510 C   0  0  0  0  0  3  0  0  0  0  0  0
  188.4970  175.2740  142.3460 C   0  0  0  0  0  0  0  0  0  0  0  0
  191.7590  171.5130  142.7300 C   0  0  0  0  0  2  0  0  0  0  0  0
  191.1630  171.7690  144.1020 C   0  0  0  0  0  2  0  0  0  0  0  0
  188.5150  174.1020  138.7570 O   0  0  0  0  0  1  0  0  0  0  0  0
  189.3770  173.0120  142.9850 C   0  0  0  0  0  0  0  0  0  0  0  0
  188.3870  174.0360  143.0620 N   0  0  0  0  0  2  0  0  0  0  0  0
  188.4840  175.3010  140.8330 C   0  0  1  0  0  3  0  0  0  0  0  0
  188.6300  176.4160  143.0530 C   0  0  0  0  0  0  0  0  0  0  0  0
  189.8790  173.2030  140.5290 C   0  0  1  0  0  3  0  0  0  0  0  0
  188.5860  173.9340  140.1450 C   0  0  2  0  0  3  0  0  0  0  0  0
  188.8150  176.3370  144.5460 C   0  0  2  0  0  3  0  0  0  0  0  0
  190.3460  177.0110  147.4270 C   0  0  0  0  0  2  0  0  0  0  0  0
  190.6200  176.0830  146.2420 C   0  0  0  0  0  2  0  0  0  0  0  0
  187.7440  177.1520  145.2980 C   0  0  2  0  0  3  0  0  0  0  0  0
  187.8790  177.0490  146.8260 C   0  0  1  0  0  3  0  0  0  0  0  0
  189.0790  177.8570  147.2950 C   0  0  0  0  0  2  0  0  0  0  0  0
  190.2500  176.7120  144.9090 C   0  0  0  0  0  2  0  0  0  0  0  0
  186.6470  177.6120  147.5150 C   0  0  0  0  0  1  0  0  0  0  0  0
  186.4770  176.7110  144.9010 O   0  0  0  0  0  1  0  0  0  0  0  0
  1 10  1  0  0  0  0
  2  1  1  1  0  0  0
  2 13  1  0  0  0  0
  4  7  2  0  0  0  0
  5 11  1  0  0  0  0
  6 16  1  0  0  0  0
  7  8  1  0  0  0  0
  8  6  2  0  0  0  0
  9 16  2  0  0  0  0
  9 14  1  0  0  0  0
 10 11  1  0  0  0  0
 13 14  1  0  0  0  0
 13  5  2  0  0  0  0
 15  4  1  1  0  0  0
 15  9  1  0  0  0  0
 17  3  1  6  0  0  0
 17  2  1  0  0  0  0
 18 12  1  6  0  0  0
 18 17  1  0  0  0  0
 18 15  1  0  0  0  0
 19 16  1  6  0  0  0
 19 25  1  0  0  0  0
 19 22  1  0  0  0  0
 21 20  1  0  0  0  0
 22 27  1  6  0  0  0
 22 23  1  0  0  0  0
 23 24  1  0  0  0  0
 23 26  1  1  0  0  0
 24 20  1  0  0  0  0
 25 21  1  0  0  0  0
M  END
>  <MODEL>
7

>  <REMARK>
 VINA RESULT:      -6.8      2.911      5.665
  Name = 
  1 active torsions:
  status: ('A' for Active; 'I' for Inactive)
    1  A    between atoms: C_2  and  C_23
                            x       y       z     vdW  Elec       q    Type
                         _______ _______ _______ _____ _____    ______ ____

>  <TORSDO>
F 1

$$$$
=
 OpenBabel11062422093D

 27 30  0  0  1  0  0  0  0  0999 V2000
  190.8170  170.2340  141.7490 C   0  0  0  0  0  2  0  0  0  0  0  0
  190.0750  171.5280  142.1220 C   0  0  1  0  0  3  0  0  0  0  0  0
  189.6800  171.7510  139.7620 O   0  0  0  0  0  1  0  0  0  0  0  0
  188.1130  175.7220  141.9540 C   0  0  0  0  0  3  0  0  0  0  0  0
  191.7910  171.8360  143.8620 N   0  0  0  0  0  0  0  0  0  0  0  0
  190.6490  177.0650  143.0170 C   0  0  0  0  0  3  0  0  0  0  0  0
  188.2960  177.0210  142.1780 C   0  0  0  0  0  3  0  0  0  0  0  0
  189.6120  177.6420  142.3970 C   0  0  0  0  0  3  0  0  0  0  0  0
  190.0100  174.6480  143.1210 C   0  0  0  0  0  0  0  0  0  0  0  0
  192.3140  170.3700  141.9680 C   0  0  0  0  0  2  0  0  0  0  0  0
  192.5310  170.6460  143.4460 C   0  0  0  0  0  2  0  0  0  0  0  0
  188.0440  173.6970  140.0410 O   0  0  0  0  0  1  0  0  0  0  0  0
  190.6770  172.2370  143.3180 C   0  0  0  0  0  0  0  0  0  0  0  0
  190.0530  173.4080  143.8400 N   0  0  0  0  0  2  0  0  0  0  0  0
  189.2560  174.7640  141.8130 C   0  0  1  0  0  3  0  0  0  0  0  0
  190.6750  175.7090  143.6260 C   0  0  0  0  0  0  0  0  0  0  0  0
  189.9240  172.4790  140.9330 C   0  0  1  0  0  3  0  0  0  0  0  0
  188.7620  173.4400  141.2150 C   0  0  2  0  0  3  0  0  0  0  0  0
  191.5560  175.5150  144.8330 C   0  0  2  0  0  3  0  0  0  0  0  0
  194.4290  175.6610  146.5130 C   0  0  0  0  0  2  0  0  0  0  0  0
  193.8510  174.7530  145.4250 C   0  0  0  0  0  2  0  0  0  0  0  0
  191.2260  176.5240  145.9490 C   0  0  2  0  0  3  0  0  0  0  0  0
  192.0780  176.3170  147.2130 C   0  0  1  0  0  3  0  0  0  0  0  0
  193.5020  176.7910  146.9600 C   0  0  0  0  0  2  0  0  0  0  0  0
  193.0230  175.5170  144.4060 C   0  0  0  0  0  2  0  0  0  0  0  0
  191.5240  177.1240  148.3750 C   0  0  0  0  0  1  0  0  0  0  0  0
  189.8670  176.4190  146.2690 O   0  0  0  0  0  1  0  0  0  0  0  0
  1 10  1  0  0  0  0
  2  1  1  6  0  0  0
  2 13  1  0  0  0  0
  4  7  2  0  0  0  0
  6 16  1  0  0  0  0
  7  8  1  0  0  0  0
  8  6  2  0  0  0  0
  9 16  2  0  0  0  0
  9 14  1  0  0  0  0
 10 11  1  0  0  0  0
 11  5  1  0  0  0  0
 13 14  1  0  0  0  0
 13  5  2  0  0  0  0
 15  4  1  1  0  0  0
 15  9  1  0  0  0  0
 17  3  1  6  0  0  0
 17 18  1  0  0  0  0
 17  2  1  0  0  0  0
 18 12  1  6  0  0  0
 18 15  1  0  0  0  0
 19 16  1  6  0  0  0
 19 22  1  0  0  0  0
 20 24  1  0  0  0  0
 21 20  1  0  0  0  0
 22 27  1  1  0  0  0
 22 23  1  0  0  0  0
 23 26  1  1  0  0  0
 24 23  1  0  0  0  0
 25 19  1  0  0  0  0
 25 21  1  0  0  0  0
M  END
>  <MODEL>
8

>  <REMARK>
 VINA RESULT:      -6.8      3.515      6.093
  Name = 
  1 active torsions:
  status: ('A' for Active; 'I' for Inactive)
    1  A    between atoms: C_2  and  C_23
                            x       y       z     vdW  Elec       q    Type
                         _______ _______ _______ _____ _____    ______ ____

>  <TORSDO>
F 1

$$$$
=
 OpenBabel11062422093D

 27 30  0  0  1  0  0  0  0  0999 V2000
  184.1280  178.8180  145.2290 C   0  0  0  0  0  2  0  0  0  0  0  0
  185.2850  177.9550  145.7570 C   0  0  1  0  0  3  0  0  0  0  0  0
  185.9430  179.9220  146.9700 O   0  0  0  0  0  1  0  0  0  0  0  0
  189.3260  176.5670  147.5500 C   0  0  0  0  0  3  0  0  0  0  0  0
  185.3350  176.9190  143.5230 N   0  0  0  0  0  0  0  0  0  0  0  0
  190.5640  176.2360  144.7710 C   0  0  0  0  0  3  0  0  0  0  0  0
  190.5640  176.1680  147.2690 C   0  0  0  0  0  3  0  0  0  0  0  0
  191.1960  176.3150  145.9480 C   0  0  0  0  0  3  0  0  0  0  0  0
  188.1440  176.3960  145.3860 C   0  0  0  0  0  0  0  0  0  0  0  0
  184.2950  179.1260  143.7510 C   0  0  0  0  0  2  0  0  0  0  0  0
  184.2890  177.8000  143.0100 C   0  0  0  0  0  2  0  0  0  0  0  0
  187.7110  178.6940  148.3500 O   0  0  0  0  0  1  0  0  0  0  0  0
  185.7770  176.9360  144.7480 C   0  0  0  0  0  0  0  0  0  0  0  0
  186.7910  176.0030  145.1150 N   0  0  0  0  0  2  0  0  0  0  0  0
  188.4730  177.2960  146.5570 C   0  0  1  0  0  3  0  0  0  0  0  0
  189.1180  175.9600  144.5600 C   0  0  0  0  0  0  0  0  0  0  0  0
  186.4410  178.7950  146.3040 C   0  0  1  0  0  3  0  0  0  0  0  0
  187.2680  177.9300  147.2640 C   0  0  2  0  0  3  0  0  0  0  0  0
  188.7380  175.2130  143.3070 C   0  0  2  0  0  3  0  0  0  0  0  0
  188.5720  174.7560  140.0120 C   0  0  0  0  0  2  0  0  0  0  0  0
  187.8360  175.6340  141.0250 C   0  0  0  0  0  2  0  0  0  0  0  0
  189.5980  173.9490  143.1130 C   0  0  2  0  0  3  0  0  0  0  0  0
  189.1980  173.1400  141.8680 C   0  0  1  0  0  3  0  0  0  0  0  0
  189.6580  173.8630  140.6110 C   0  0  0  0  0  2  0  0  0  0  0  0
  188.7530  176.1660  142.1140 C   0  0  0  0  0  2  0  0  0  0  0  0
  189.8580  171.7710  141.8790 C   0  0  0  0  0  1  0  0  0  0  0  0
  189.4910  173.1480  144.2560 O   0  0  0  0  0  1  0  0  0  0  0  0
  2  1  1  6  0  0  0
  2 17  1  0  0  0  0
  5 13  2  0  0  0  0
  6  8  2  0  0  0  0
  7  4  2  0  0  0  0
  8  7  1  0  0  0  0
  9 15  1  0  0  0  0
 10  1  1  0  0  0  0
 11  5  1  0  0  0  0
 11 10  1  0  0  0  0
 13 14  1  0  0  0  0
 13  2  1  0  0  0  0
 14  9  1  0  0  0  0
 15 18  1  0  0  0  0
 15  4  1  1  0  0  0
 16  6  1  0  0  0  0
 16  9  2  0  0  0  0
 17  3  1  1  0  0  0
 17 18  1  0  0  0  0
 18 12  1  1  0  0  0
 19 16  1  1  0  0  0
 20 24  1  0  0  0  0
 20 21  1  0  0  0  0
 21 25  1  0  0  0  0
 22 19  1  0  0  0  0
 22 27  1  1  0  0  0
 23 26  1  1  0  0  0
 23 22  1  0  0  0  0
 24 23  1  0  0  0  0
 25 19  1  0  0  0  0
M  END
>  <MODEL>
9

>  <REMARK>
 VINA RESULT:      -6.6      2.278      4.848
  Name = 
  1 active torsions:
  status: ('A' for Active; 'I' for Inactive)
    1  A    between atoms: C_2  and  C_23
                            x       y       z     vdW  Elec       q    Type
                         _______ _______ _______ _____ _____    ______ ____

>  <TORSDO>
F 1

$$$$
