=
 OpenBabel11062420393D

 60 64  0  0  1  0  0  0  0  0999 V2000
  189.3430  172.9280  139.7070 C   0  0  2  0  0  3  0  0  0  0  0  0
  190.6000  170.8990  140.6990 C   0  0  0  0  0  0  0  0  0  0  0  0
  190.9260  170.2720  141.7420 O   0  0  0  0  0  0  0  0  0  0  0  0
  188.1440  175.1850  139.8990 O   0  0  0  0  0  1  0  0  0  0  0  0
  189.7410  172.0410  140.7960 N   0  0  0  0  0  0  0  0  0  0  0  0
  189.3540  172.5840  141.9950 O   0  0  0  0  0  0  0  0  0  0  0  0
  188.7190  173.7870  141.7670 C   0  0  0  0  0  0  0  0  0  0  0  0
  188.6900  174.0410  140.4670 C   0  0  0  0  0  0  0  0  0  0  0  0
  188.3100  172.2420  138.8290 C   0  0  0  0  0  1  0  0  0  0  0  0
  188.1830  174.6760  142.8410 C   0  0  0  0  0  2  0  0  0  0  0  0
  190.9180  177.9220  143.5510 C   0  0  0  0  0  0  0  0  0  0  0  0
  191.3930  176.6540  143.1860 C   0  0  0  0  0  0  0  0  0  0  0  0
  190.4850  175.6150  142.9550 C   0  0  0  0  0  3  0  0  0  0  0  0
  189.5430  178.1470  143.6570 C   0  0  0  0  0  3  0  0  0  0  0  0
  189.1070  175.8320  143.0710 C   0  0  0  0  0  0  0  0  0  0  0  0
  191.8010  178.9640  143.8080 O   0  0  0  0  0  1  0  0  0  0  0  0
  188.6280  177.1160  143.4170 C   0  0  0  0  0  0  0  0  0  0  0  0
  186.7610  178.3420  142.4320 N   0  0  0  0  0  0  0  0  0  0  0  0
  186.0590  177.5350  141.4500 C   0  0  0  0  0  1  0  0  0  0  0  0
  186.8560  178.0650  144.7970 N   0  0  0  0  0  0  0  0  0  0  0  0
  185.7810  179.2370  143.0160 C   0  0  0  0  0  2  0  0  0  0  0  0
  187.1660  177.4520  143.5110 C   0  0  2  0  0  3  0  0  0  0  0  0
  185.8340  179.0530  144.5150 C   0  0  0  0  0  2  0  0  0  0  0  0
  186.1040  176.8220  145.8040 S   0  0  0  0  0  0  0  0  0  0  0  0
  187.4750  176.8270  147.0020 C   0  0  0  0  0  2  0  0  0  0  0  0
  188.3890  175.6430  146.7530 C   0  0  0  0  0  1  0  0  0  0  0  0
  192.8590  176.3960  143.0390 C   0  0  0  0  0  2  0  0  0  0  0  0
  193.2970  175.1780  143.8450 C   0  0  0  0  0  2  0  0  0  0  0  0
  193.3810  175.1570  146.5630 O   0  0  0  0  0  1  0  0  0  0  0  0
  194.2270  177.3590  145.4260 O   0  0  0  0  0  0  0  0  0  0  0  0
  194.1590  175.6700  145.3700 P   0  0  2  0  0  0  0  0  0  0  0  0
  195.7230  175.0000  145.3430 O   0  0  0  0  0  0  0  0  0  0  0  0
  195.8050  172.8400  143.6410 O   0  0  0  0  0  0  0  0  0  0  0  0
  195.5670  173.3040  145.2460 P   0  0  0  0  0  0  0  0  0  0  0  0
  196.7360  172.5380  146.2030 O   0  0  0  0  0  1  0  0  0  0  0  0
  194.1850  172.8580  145.6780 O   0  0  0  0  0  1  0  0  0  0  0  0
  191.0990  170.4250  139.3770 C   0  0  0  0  0  2  0  0  0  0  0  0
  192.0040  169.2220  139.5710 C   0  0  0  0  0  2  0  0  0  0  0  0
  194.5960  170.3080  137.3640 N   0  0  0  0  0  0  0  0  0  0  0  0
  193.5340  170.6830  138.3030 C   0  0  1  0  0  3  0  0  0  0  0  0
  194.6760  168.9010  137.4200 N   0  0  0  0  0  2  0  0  0  0  0  0
  194.2160  168.4750  138.7410 C   0  0  0  0  0  2  0  0  0  0  0  0
  193.4530  169.6190  139.3620 C   0  0  2  0  0  3  0  0  0  0  0  0
  194.1430  172.3610  140.0780 C   0  0  0  0  0  3  0  0  0  0  0  0
  193.2930  174.5070  138.5190 C   0  0  0  0  0  3  0  0  0  0  0  0
  194.2640  173.6640  140.5600 C   0  0  0  0  0  3  0  0  0  0  0  0
  193.8420  174.7380  139.7790 C   0  0  0  0  0  3  0  0  0  0  0  0
  193.1540  173.2030  138.0130 C   0  0  0  0  0  0  0  0  0  0  0  0
  193.5870  172.1100  138.8110 C   0  0  0  0  0  0  0  0  0  0  0  0
  193.2680  172.9990  135.6330 O   0  0  0  0  0  0  0  0  0  0  0  0
  192.5480  173.0420  136.6670 C   0  0  0  0  0  0  0  0  0  0  0  0
  191.1270  172.9130  136.5440 N   0  0  0  0  0  2  0  0  0  0  0  0
  190.4640  172.7050  135.2650 C   0  0  0  0  0  2  0  0  0  0  0  0
  189.4860  171.5480  135.3700 C   0  0  0  0  0  1  0  0  0  0  0  0
  195.9040  170.8270  137.7690 C   0  0  0  0  0  2  0  0  0  0  0  0
  196.4610  171.7110  136.7030 C   0  0  0  0  0  0  0  0  0  0  0  0
  196.3050  171.4200  135.5270 O   0  0  0  0  0  0  0  0  0  0  0  0
  196.4410  174.1870  136.6460 C   0  0  0  0  0  1  0  0  0  0  0  0
  197.4260  172.9950  138.5960 C   0  0  0  0  0  1  0  0  0  0  0  0
  197.2010  172.9520  137.0940 C   0  0  0  0  0  3  0  0  0  0  0  0
  1  9  1  6  0  0  0
  1  8  1  0  0  0  0
  1  5  1  0  0  0  0
  2  5  1  0  0  0  0
  2  3  2  0  0  0  0
  4  8  1  0  0  0  0
  5  6  1  0  0  0  0
  7  6  1  0  0  0  0
  7 10  1  0  0  0  0
  8  7  2  0  0  0  0
 10 15  1  0  0  0  0
 11 14  1  0  0  0  0
 11 16  1  0  0  0  0
 12 11  2  0  0  0  0
 13 15  2  0  0  0  0
 13 12  1  0  0  0  0
 15 17  1  0  0  0  0
 17 14  2  0  0  0  0
 18 21  1  0  0  0  0
 18 22  1  0  0  0  0
 19 18  1  0  0  0  0
 20 24  1  0  0  0  0
 21 23  1  0  0  0  0
 22 17  1  1  0  0  0
 22 20  1  0  0  0  0
 23 20  1  0  0  0  0
 24 25  1  0  0  0  0
 26 25  1  0  0  0  0
 27 12  1  0  0  0  0
 27 28  1  0  0  0  0
 28 31  1  0  0  0  0
 31 30  2  1  0  0  0
 31 29  1  0  0  0  0
 32 31  1  0  0  0  0
 33 34  2  0  0  0  0
 34 32  1  0  0  0  0
 34 36  1  0  0  0  0
 34 35  1  0  0  0  0
 37 38  1  0  0  0  0
 37  2  1  0  0  0  0
 39 41  1  0  0  0  0
 39 55  1  0  0  0  0
 39 40  1  0  0  0  0
 40 49  1  1  0  0  0
 40 43  1  0  0  0  0
 41 42  1  0  0  0  0
 42 43  1  0  0  0  0
 43 38  1  6  0  0  0
 44 46  1  0  0  0  0
 45 47  1  0  0  0  0
 47 46  2  0  0  0  0
 48 45  2  0  0  0  0
 48 49  1  0  0  0  0
 49 44  2  0  0  0  0
 50 51  2  0  0  0  0
 51 48  1  0  0  0  0
 52 51  1  0  0  0  0
 53 54  1  0  0  0  0
 53 52  1  0  0  0  0
 56 60  1  0  0  0  0
 56 55  1  0  0  0  0
 57 56  2  0  0  0  0
 58 60  1  0  0  0  0
 60 59  1  0  0  0  0
M  END
>  <MODEL>
1

>  <REMARK>
 VINA RESULT:      -5.8      0.000      0.000
  Name = 
  19 active torsions:
  status: ('A' for Active; 'I' for Inactive)
    1  A    between atoms: S_2  and  C_24
    2  A    between atoms: S_2  and  N_31
    3  A    between atoms: P_4  and  O_56
    4  A    between atoms: C_8  and  C_33
    5  A    between atoms: C_10  and  C_46
    6  A    between atoms: N_14  and  C_27
    7  A    between atoms: C_16  and  C_41
    8  A    between atoms: C_16  and  C_54
    9  A    between atoms: C_19  and  C_34
   10  A    between atoms: C_21  and  C_27
   11  A    between atoms: C_21  and  C_29
   12  A    between atoms: C_22  and  N_43
   13  A    between atoms: C_28  and  C_32
   14  A    between atoms: C_33  and  C_51
   15  A    between atoms: C_40  and  C_58
   16  A    between atoms: C_46  and  C_55
   17  A    between atoms: C_47  and  C_55
   18  A    between atoms: C_51  and  P_59
   19  A    between atoms: O_56  and  P_59
                            x       y       z     vdW  Elec       q    Type
                         _______ _______ _______ _____ _____    ______ ____

>  <TORSDO>
F 19

$$$$
=
 OpenBabel11062420393D

 60 64  0  0  1  0  0  0  0  0999 V2000
  190.4360  172.4470  142.2170 C   0  0  2  0  0  3  0  0  0  0  0  0
  188.5390  173.2730  140.6680 C   0  0  0  0  0  0  0  0  0  0  0  0
  188.1120  173.3680  139.4870 O   0  0  0  0  0  0  0  0  0  0  0  0
  192.7960  171.5470  142.6530 O   0  0  0  0  0  1  0  0  0  0  0  0
  189.7590  172.5710  140.9290 N   0  0  0  0  0  0  0  0  0  0  0  0
  190.5780  172.1010  139.9340 O   0  0  0  0  0  0  0  0  0  0  0  0
  191.7670  171.6700  140.4850 C   0  0  0  0  0  0  0  0  0  0  0  0
  191.7450  171.8520  141.7970 C   0  0  0  0  0  0  0  0  0  0  0  0
  189.6940  171.4600  143.1020 C   0  0  0  0  0  1  0  0  0  0  0  0
  192.9110  171.1180  139.7010 C   0  0  0  0  0  2  0  0  0  0  0  0
  194.8790  174.3300  137.6200 C   0  0  0  0  0  0  0  0  0  0  0  0
  195.0860  174.1350  138.9930 C   0  0  0  0  0  0  0  0  0  0  0  0
  194.4400  173.0820  139.6480 C   0  0  0  0  0  3  0  0  0  0  0  0
  194.0510  173.4570  136.9100 C   0  0  0  0  0  3  0  0  0  0  0  0
  193.5990  172.2110  138.9430 C   0  0  0  0  0  0  0  0  0  0  0  0
  195.4920  175.3830  136.9520 O   0  0  0  0  0  1  0  0  0  0  0  0
  193.4100  172.3940  137.5550 C   0  0  0  0  0  0  0  0  0  0  0  0
  193.4000  170.5500  135.9550 N   0  0  0  0  0  0  0  0  0  0  0  0
  193.3340  169.2660  136.6300 C   0  0  0  0  0  1  0  0  0  0  0  0
  191.7270  172.2390  135.7960 N   0  0  0  0  0  0  0  0  0  0  0  0
  192.7350  170.3860  134.6770 C   0  0  0  0  0  2  0  0  0  0  0  0
  192.5700  171.4770  136.7100 C   0  0  2  0  0  3  0  0  0  0  0  0
  191.6660  171.4510  134.5820 C   0  0  0  0  0  2  0  0  0  0  0  0
  190.0960  172.2590  136.4770 S   0  0  0  0  0  0  0  0  0  0  0  0
  190.1120  174.0640  136.7120 C   0  0  0  0  0  2  0  0  0  0  0  0
  189.1480  174.7250  135.7460 C   0  0  0  0  0  1  0  0  0  0  0  0
  195.9900  175.0400  139.7700 C   0  0  0  0  0  2  0  0  0  0  0  0
  195.1990  176.0150  140.6350 C   0  0  0  0  0  2  0  0  0  0  0  0
  194.1470  175.7700  143.1310 O   0  0  0  0  0  1  0  0  0  0  0  0
  196.5100  176.8930  143.0080 O   0  0  0  0  0  0  0  0  0  0  0  0
  195.4740  175.7000  142.4060 P   0  0  2  0  0  0  0  0  0  0  0  0
  196.1650  174.1530  142.5750 O   0  0  0  0  0  0  0  0  0  0  0  0
  195.1740  172.6900  144.6830 O   0  0  0  0  0  1  0  0  0  0  0  0
  196.3360  173.8320  144.2420 P   0  0  0  0  0  0  0  0  0  0  0  0
  197.8680  173.1940  144.5760 O   0  0  0  0  0  0  0  0  0  0  0  0
  196.1170  175.0860  145.0630 O   0  0  0  0  0  1  0  0  0  0  0  0
  187.7500  173.8790  141.7780 C   0  0  0  0  0  2  0  0  0  0  0  0
  188.1310  175.3400  141.9420 C   0  0  0  0  0  2  0  0  0  0  0  0
  189.8270  177.5360  144.1920 N   0  0  0  0  0  0  0  0  0  0  0  0
  188.5580  176.9280  143.7790 C   0  0  1  0  0  3  0  0  0  0  0  0
  190.8200  176.9240  143.4020 N   0  0  0  0  0  2  0  0  0  0  0  0
  190.3420  175.5920  143.0290 C   0  0  0  0  0  2  0  0  0  0  0  0
  188.8520  175.5480  143.2590 C   0  0  2  0  0  3  0  0  0  0  0  0
  187.6140  176.4640  146.0670 C   0  0  0  0  0  3  0  0  0  0  0  0
  185.2470  177.8200  145.5040 C   0  0  0  0  0  3  0  0  0  0  0  0
  186.6260  176.5770  147.0450 C   0  0  0  0  0  3  0  0  0  0  0  0
  185.4430  177.2570  146.7640 C   0  0  0  0  0  3  0  0  0  0  0  0
  186.2250  177.7130  144.4990 C   0  0  0  0  0  0  0  0  0  0  0  0
  187.4300  177.0200  144.7890 C   0  0  0  0  0  0  0  0  0  0  0  0
  186.2390  179.5290  142.9420 O   0  0  0  0  0  0  0  0  0  0  0  0
  185.9330  178.3290  143.1800 C   0  0  0  0  0  0  0  0  0  0  0  0
  185.3130  177.5430  142.1560 N   0  0  0  0  0  2  0  0  0  0  0  0
  185.0390  178.0600  140.8230 C   0  0  0  0  0  2  0  0  0  0  0  0
  183.5490  178.3000  140.6570 C   0  0  0  0  0  1  0  0  0  0  0  0
  190.1530  177.2450  145.5900 C   0  0  0  0  0  2  0  0  0  0  0  0
  191.5960  176.8880  145.7190 C   0  0  0  0  0  0  0  0  0  0  0  0
  192.4370  177.5150  145.0940 O   0  0  0  0  0  0  0  0  0  0  0  0
  190.8980  175.4820  147.6360 C   0  0  0  0  0  1  0  0  0  0  0  0
  192.2970  174.5080  145.8220 C   0  0  0  0  0  1  0  0  0  0  0  0
  191.9940  175.7630  146.6230 C   0  0  0  0  0  3  0  0  0  0  0  0
  1  9  1  1  0  0  0
  2  5  1  0  0  0  0
  2 37  1  0  0  0  0
  3  2  2  0  0  0  0
  5  1  1  0  0  0  0
  6  7  1  0  0  0  0
  6  5  1  0  0  0  0
  7  8  2  0  0  0  0
  8  1  1  0  0  0  0
  8  4  1  0  0  0  0
 10  7  1  0  0  0  0
 11 12  1  0  0  0  0
 12 13  2  0  0  0  0
 12 27  1  0  0  0  0
 14 17  1  0  0  0  0
 14 11  2  0  0  0  0
 15 13  1  0  0  0  0
 15 10  1  0  0  0  0
 16 11  1  0  0  0  0
 17 15  2  0  0  0  0
 18 19  1  0  0  0  0
 18 22  1  0  0  0  0
 20 24  1  0  0  0  0
 20 22  1  0  0  0  0
 21 18  1  0  0  0  0
 22 17  1  6  0  0  0
 23 21  1  0  0  0  0
 23 20  1  0  0  0  0
 24 25  1  0  0  0  0
 26 25  1  0  0  0  0
 27 28  1  0  0  0  0
 28 31  1  0  0  0  0
 31 32  1  0  0  0  0
 31 30  2  1  0  0  0
 31 29  1  0  0  0  0
 32 34  1  0  0  0  0
 34 35  2  0  0  0  0
 34 33  1  0  0  0  0
 34 36  1  0  0  0  0
 37 38  1  0  0  0  0
 39 55  1  0  0  0  0
 40 39  1  0  0  0  0
 40 49  1  1  0  0  0
 41 39  1  0  0  0  0
 42 43  1  0  0  0  0
 42 41  1  0  0  0  0
 43 38  1  6  0  0  0
 43 40  1  0  0  0  0
 44 46  1  0  0  0  0
 45 47  1  0  0  0  0
 47 46  2  0  0  0  0
 48 49  1  0  0  0  0
 48 45  2  0  0  0  0
 49 44  2  0  0  0  0
 50 51  2  0  0  0  0
 51 48  1  0  0  0  0
 52 51  1  0  0  0  0
 53 52  1  0  0  0  0
 54 53  1  0  0  0  0
 55 56  1  0  0  0  0
 56 60  1  0  0  0  0
 57 56  2  0  0  0  0
 59 60  1  0  0  0  0
 60 58  1  0  0  0  0
M  END
>  <MODEL>
2

>  <REMARK>
 VINA RESULT:      -5.5      2.553      8.711
  Name = 
  19 active torsions:
  status: ('A' for Active; 'I' for Inactive)
    1  A    between atoms: S_2  and  C_24
    2  A    between atoms: S_2  and  N_31
    3  A    between atoms: P_4  and  O_56
    4  A    between atoms: C_8  and  C_33
    5  A    between atoms: C_10  and  C_46
    6  A    between atoms: N_14  and  C_27
    7  A    between atoms: C_16  and  C_41
    8  A    between atoms: C_16  and  C_54
    9  A    between atoms: C_19  and  C_34
   10  A    between atoms: C_21  and  C_27
   11  A    between atoms: C_21  and  C_29
   12  A    between atoms: C_22  and  N_43
   13  A    between atoms: C_28  and  C_32
   14  A    between atoms: C_33  and  C_51
   15  A    between atoms: C_40  and  C_58
   16  A    between atoms: C_46  and  C_55
   17  A    between atoms: C_47  and  C_55
   18  A    between atoms: C_51  and  P_59
   19  A    between atoms: O_56  and  P_59
                            x       y       z     vdW  Elec       q    Type
                         _______ _______ _______ _____ _____    ______ ____

>  <TORSDO>
F 19

$$$$
=
 OpenBabel11062420393D

 60 64  0  0  1  0  0  0  0  0999 V2000
  189.9840  171.4650  140.8410 C   0  0  2  0  0  3  0  0  0  0  0  0
  189.9970  171.9980  138.3120 C   0  0  0  0  0  0  0  0  0  0  0  0
  189.7040  172.8270  137.4100 O   0  0  0  0  0  0  0  0  0  0  0  0
  189.2490  171.8950  143.2590 O   0  0  0  0  0  1  0  0  0  0  0  0
  189.7860  172.3370  139.6870 N   0  0  0  0  0  0  0  0  0  0  0  0
  189.1430  173.4830  140.0820 O   0  0  0  0  0  0  0  0  0  0  0  0
  188.9010  173.4260  141.4390 C   0  0  0  0  0  0  0  0  0  0  0  0
  189.3560  172.2820  141.9280 C   0  0  0  0  0  0  0  0  0  0  0  0
  191.4680  171.3050  141.1230 C   0  0  0  0  0  1  0  0  0  0  0  0
  188.1950  174.4870  142.2160 C   0  0  0  0  0  2  0  0  0  0  0  0
  191.0810  177.2770  143.7670 C   0  0  0  0  0  0  0  0  0  0  0  0
  191.4910  176.0440  143.2400 C   0  0  0  0  0  0  0  0  0  0  0  0
  190.5360  175.1540  142.7370 C   0  0  0  0  0  3  0  0  0  0  0  0
  189.7270  177.6210  143.7620 C   0  0  0  0  0  3  0  0  0  0  0  0
  189.1760  175.4890  142.7410 C   0  0  0  0  0  0  0  0  0  0  0  0
  192.0100  178.1680  144.2930 O   0  0  0  0  0  1  0  0  0  0  0  0
  188.7670  176.7420  143.2500 C   0  0  0  0  0  0  0  0  0  0  0  0
  187.0650  178.0570  142.0940 N   0  0  0  0  0  0  0  0  0  0  0  0
  186.3440  177.2530  141.1250 C   0  0  0  0  0  1  0  0  0  0  0  0
  187.0180  177.9240  144.4730 N   0  0  0  0  0  0  0  0  0  0  0  0
  186.1400  179.0680  142.5700 C   0  0  0  0  0  2  0  0  0  0  0  0
  187.3370  177.2070  143.2440 C   0  0  2  0  0  3  0  0  0  0  0  0
  186.1020  178.9760  144.0780 C   0  0  0  0  0  2  0  0  0  0  0  0
  186.1110  176.8160  145.5090 S   0  0  0  0  0  0  0  0  0  0  0  0
  187.2900  176.9850  146.8860 C   0  0  0  0  0  2  0  0  0  0  0  0
  188.3920  175.9510  146.7590 C   0  0  0  0  0  1  0  0  0  0  0  0
  192.9380  175.6640  143.2090 C   0  0  0  0  0  2  0  0  0  0  0  0
  193.1360  174.1850  143.5220 C   0  0  0  0  0  2  0  0  0  0  0  0
  193.7920  172.4580  145.5180 O   0  0  0  0  0  0  0  0  0  0  0  0
  192.5570  174.6400  146.2750 O   0  0  0  0  0  1  0  0  0  0  0  0
  193.6950  173.9430  145.2370 P   0  0  2  0  0  0  0  0  0  0  0  0
  195.2160  174.6850  145.4160 O   0  0  0  0  0  0  0  0  0  0  0  0
  196.2880  174.7300  142.8820 O   0  0  0  0  0  0  0  0  0  0  0  0
  196.3070  173.9110  144.3580 P   0  0  0  0  0  0  0  0  0  0  0  0
  197.8820  173.9620  144.9770 O   0  0  0  0  0  1  0  0  0  0  0  0
  195.9030  172.4710  144.1170 O   0  0  0  0  0  1  0  0  0  0  0  0
  190.5810  170.6810  137.9280 C   0  0  0  0  0  2  0  0  0  0  0  0
  191.3150  170.8100  136.6050 C   0  0  0  0  0  2  0  0  0  0  0  0
  194.6780  171.4430  135.5760 N   0  0  0  0  0  0  0  0  0  0  0  0
  193.5520  171.8330  136.4320 C   0  0  1  0  0  3  0  0  0  0  0  0
  194.2790  170.2500  134.9400 N   0  0  0  0  0  2  0  0  0  0  0  0
  193.3110  169.5780  135.8060 C   0  0  0  0  0  2  0  0  0  0  0  0
  192.8010  170.5850  136.8080 C   0  0  2  0  0  3  0  0  0  0  0  0
  194.3190  172.2040  138.8010 C   0  0  0  0  0  3  0  0  0  0  0  0
  194.2670  174.9740  138.5180 C   0  0  0  0  0  3  0  0  0  0  0  0
  194.7020  173.0210  139.8650 C   0  0  0  0  0  3  0  0  0  0  0  0
  194.6780  174.4060  139.7230 C   0  0  0  0  0  3  0  0  0  0  0  0
  193.8710  174.1720  137.4330 C   0  0  0  0  0  0  0  0  0  0  0  0
  193.8970  172.7600  137.5810 C   0  0  0  0  0  0  0  0  0  0  0  0
  194.2520  175.0930  135.2580 O   0  0  0  0  0  0  0  0  0  0  0  0
  193.4350  174.8560  136.1890 C   0  0  0  0  0  0  0  0  0  0  0  0
  192.0620  175.2330  136.0350 N   0  0  0  0  0  2  0  0  0  0  0  0
  191.5490  175.8630  134.8270 C   0  0  0  0  0  2  0  0  0  0  0  0
  191.7630  177.3640  134.8940 C   0  0  0  0  0  1  0  0  0  0  0  0
  195.8820  171.1340  136.3490 C   0  0  0  0  0  2  0  0  0  0  0  0
  197.0890  171.6880  135.6680 C   0  0  0  0  0  0  0  0  0  0  0  0
  197.3770  171.3160  134.5410 O   0  0  0  0  0  0  0  0  0  0  0  0
  197.5040  174.1080  135.9930 C   0  0  0  0  0  1  0  0  0  0  0  0
  197.8320  172.5240  137.8840 C   0  0  0  0  0  1  0  0  0  0  0  0
  197.9290  172.7030  136.3780 C   0  0  0  0  0  3  0  0  0  0  0  0
  1  9  1  1  0  0  0
  1  8  1  0  0  0  0
  2  5  1  0  0  0  0
  3  2  2  0  0  0  0
  5  6  1  0  0  0  0
  5  1  1  0  0  0  0
  6  7  1  0  0  0  0
  7  8  2  0  0  0  0
  7 10  1  0  0  0  0
  8  4  1  0  0  0  0
 10 15  1  0  0  0  0
 11 16  1  0  0  0  0
 12 11  2  0  0  0  0
 13 15  2  0  0  0  0
 13 12  1  0  0  0  0
 14 11  1  0  0  0  0
 15 17  1  0  0  0  0
 17 14  2  0  0  0  0
 18 21  1  0  0  0  0
 18 22  1  0  0  0  0
 19 18  1  0  0  0  0
 20 24  1  0  0  0  0
 21 23  1  0  0  0  0
 22 17  1  1  0  0  0
 22 20  1  0  0  0  0
 23 20  1  0  0  0  0
 24 25  1  0  0  0  0
 26 25  1  0  0  0  0
 27 12  1  0  0  0  0
 27 28  1  0  0  0  0
 28 31  1  0  0  0  0
 31 32  1  0  0  0  0
 31 29  2  1  0  0  0
 31 30  1  0  0  0  0
 33 34  2  0  0  0  0
 34 35  1  0  0  0  0
 34 32  1  0  0  0  0
 36 34  1  0  0  0  0
 37  2  1  0  0  0  0
 38 37  1  0  0  0  0
 39 55  1  0  0  0  0
 39 40  1  0  0  0  0
 40 43  1  0  0  0  0
 40 49  1  1  0  0  0
 41 39  1  0  0  0  0
 41 42  1  0  0  0  0
 42 43  1  0  0  0  0
 43 38  1  6  0  0  0
 44 46  1  0  0  0  0
 45 47  1  0  0  0  0
 47 46  2  0  0  0  0
 48 49  1  0  0  0  0
 48 45  2  0  0  0  0
 49 44  2  0  0  0  0
 50 51  2  0  0  0  0
 51 48  1  0  0  0  0
 52 51  1  0  0  0  0
 53 54  1  0  0  0  0
 53 52  1  0  0  0  0
 56 55  1  0  0  0  0
 56 60  1  0  0  0  0
 57 56  2  0  0  0  0
 58 60  1  0  0  0  0
 60 59  1  0  0  0  0
M  END
>  <MODEL>
3

>  <REMARK>
 VINA RESULT:      -5.4      1.568      2.122
  Name = 
  19 active torsions:
  status: ('A' for Active; 'I' for Inactive)
    1  A    between atoms: S_2  and  C_24
    2  A    between atoms: S_2  and  N_31
    3  A    between atoms: P_4  and  O_56
    4  A    between atoms: C_8  and  C_33
    5  A    between atoms: C_10  and  C_46
    6  A    between atoms: N_14  and  C_27
    7  A    between atoms: C_16  and  C_41
    8  A    between atoms: C_16  and  C_54
    9  A    between atoms: C_19  and  C_34
   10  A    between atoms: C_21  and  C_27
   11  A    between atoms: C_21  and  C_29
   12  A    between atoms: C_22  and  N_43
   13  A    between atoms: C_28  and  C_32
   14  A    between atoms: C_33  and  C_51
   15  A    between atoms: C_40  and  C_58
   16  A    between atoms: C_46  and  C_55
   17  A    between atoms: C_47  and  C_55
   18  A    between atoms: C_51  and  P_59
   19  A    between atoms: O_56  and  P_59
                            x       y       z     vdW  Elec       q    Type
                         _______ _______ _______ _____ _____    ______ ____

>  <TORSDO>
F 19

$$$$
=
 OpenBabel11062420393D

 60 64  0  0  1  0  0  0  0  0999 V2000
  189.3950  172.8750  139.8140 C   0  0  2  0  0  3  0  0  0  0  0  0
  190.5490  170.8530  140.9380 C   0  0  0  0  0  0  0  0  0  0  0  0
  190.8010  170.2510  142.0160 O   0  0  0  0  0  0  0  0  0  0  0  0
  188.2340  175.1590  139.8690 O   0  0  0  0  0  1  0  0  0  0  0  0
  189.7100  172.0140  140.9510 N   0  0  0  0  0  0  0  0  0  0  0  0
  189.2660  172.6010  142.1080 O   0  0  0  0  0  0  0  0  0  0  0  0
  188.6700  173.8080  141.8080 C   0  0  0  0  0  0  0  0  0  0  0  0
  188.7220  174.0220  140.5020 C   0  0  0  0  0  0  0  0  0  0  0  0
  188.4010  172.1820  138.8970 C   0  0  0  0  0  1  0  0  0  0  0  0
  188.0920  174.7390  142.8220 C   0  0  0  0  0  2  0  0  0  0  0  0
  190.8220  177.9870  143.5400 C   0  0  0  0  0  0  0  0  0  0  0  0
  191.2990  176.7190  143.1780 C   0  0  0  0  0  0  0  0  0  0  0  0
  190.3930  175.6790  142.9440 C   0  0  0  0  0  3  0  0  0  0  0  0
  189.4470  178.2120  143.6400 C   0  0  0  0  0  3  0  0  0  0  0  0
  189.0140  175.8960  143.0540 C   0  0  0  0  0  0  0  0  0  0  0  0
  191.7040  179.0300  143.7990 O   0  0  0  0  0  1  0  0  0  0  0  0
  188.5330  177.1800  143.3970 C   0  0  0  0  0  0  0  0  0  0  0  0
  186.6900  178.4790  142.4620 N   0  0  0  0  0  0  0  0  0  0  0  0
  186.0050  177.7440  141.4130 C   0  0  0  0  0  1  0  0  0  0  0  0
  186.7360  178.0400  144.8030 N   0  0  0  0  0  0  0  0  0  0  0  0
  185.7010  179.3370  143.0860 C   0  0  0  0  0  2  0  0  0  0  0  0
  187.0710  177.5160  143.4850 C   0  0  2  0  0  3  0  0  0  0  0  0
  185.7230  179.0500  144.5700 C   0  0  0  0  0  2  0  0  0  0  0  0
  185.9600  176.7350  145.7090 S   0  0  0  0  0  0  0  0  0  0  0  0
  187.4700  176.3630  146.6540 C   0  0  0  0  0  2  0  0  0  0  0  0
  188.1490  177.6490  147.0830 C   0  0  0  0  0  1  0  0  0  0  0  0
  192.7660  176.4620  143.0370 C   0  0  0  0  0  2  0  0  0  0  0  0
  193.3920  176.0510  144.3650 C   0  0  0  0  0  2  0  0  0  0  0  0
  196.0640  175.5430  144.3400 O   0  0  0  0  0  1  0  0  0  0  0  0
  194.6590  174.2790  142.5270 O   0  0  0  0  0  0  0  0  0  0  0  0
  194.7370  174.8490  144.1170 P   0  0  2  0  0  0  0  0  0  0  0  0
  194.5330  173.5770  145.2290 O   0  0  0  0  0  0  0  0  0  0  0  0
  197.0460  173.4730  146.3440 O   0  0  0  0  0  1  0  0  0  0  0  0
  195.9890  172.6890  145.2870 P   0  0  0  0  0  0  0  0  0  0  0  0
  195.7140  171.1230  145.8680 O   0  0  0  0  0  1  0  0  0  0  0  0
  196.6380  172.6180  143.9200 O   0  0  0  0  0  0  0  0  0  0  0  0
  191.1150  170.3290  139.6620 C   0  0  0  0  0  2  0  0  0  0  0  0
  192.6040  170.0860  139.8220 C   0  0  0  0  0  2  0  0  0  0  0  0
  195.3920  171.7070  138.2830 N   0  0  0  0  0  0  0  0  0  0  0  0
  193.9910  171.2870  138.1740 C   0  0  1  0  0  3  0  0  0  0  0  0
  195.7790  171.4060  139.6040 N   0  0  0  0  0  2  0  0  0  0  0  0
  194.5830  171.4420  140.4450 C   0  0  0  0  0  2  0  0  0  0  0  0
  193.3750  171.3620  139.5440 C   0  0  2  0  0  3  0  0  0  0  0  0
  192.3660  173.0350  137.3730 C   0  0  0  0  0  3  0  0  0  0  0  0
  192.6120  172.2280  134.7180 C   0  0  0  0  0  3  0  0  0  0  0  0
  191.6630  173.7060  136.3730 C   0  0  0  0  0  3  0  0  0  0  0  0
  191.7870  173.3040  135.0440 C   0  0  0  0  0  3  0  0  0  0  0  0
  193.3250  171.5310  135.7090 C   0  0  0  0  0  0  0  0  0  0  0  0
  193.1970  171.9440  137.0620 C   0  0  0  0  0  0  0  0  0  0  0  0
  193.6840  169.2330  135.1530 O   0  0  0  0  0  0  0  0  0  0  0  0
  194.1710  170.3890  135.2800 C   0  0  0  0  0  0  0  0  0  0  0  0
  195.5560  170.6080  134.9870 N   0  0  0  0  0  2  0  0  0  0  0  0
  196.4380  169.5500  134.5150 C   0  0  0  0  0  2  0  0  0  0  0  0
  197.6200  169.4030  135.4560 C   0  0  0  0  0  1  0  0  0  0  0  0
  195.5520  173.1530  138.1090 C   0  0  0  0  0  2  0  0  0  0  0  0
  196.4650  173.4360  136.9620 C   0  0  0  0  0  0  0  0  0  0  0  0
  197.4470  172.7330  136.7770 O   0  0  0  0  0  0  0  0  0  0  0  0
  195.8270  174.0730  134.6550 C   0  0  0  0  0  1  0  0  0  0  0  0
  195.0050  175.4080  136.5880 C   0  0  0  0  0  1  0  0  0  0  0  0
  196.1590  174.5800  136.0470 C   0  0  0  0  0  3  0  0  0  0  0  0
  1  9  1  6  0  0  0
  1  8  1  0  0  0  0
  1  5  1  0  0  0  0
  2  5  1  0  0  0  0
  2  3  2  0  0  0  0
  4  8  1  0  0  0  0
  5  6  1  0  0  0  0
  7  6  1  0  0  0  0
  7 10  1  0  0  0  0
  8  7  2  0  0  0  0
 10 15  1  0  0  0  0
 11 14  1  0  0  0  0
 11 16  1  0  0  0  0
 12 11  2  0  0  0  0
 13 15  2  0  0  0  0
 13 12  1  0  0  0  0
 15 17  1  0  0  0  0
 17 14  2  0  0  0  0
 18 21  1  0  0  0  0
 18 22  1  0  0  0  0
 19 18  1  0  0  0  0
 20 24  1  0  0  0  0
 21 23  1  0  0  0  0
 22 17  1  1  0  0  0
 22 20  1  0  0  0  0
 23 20  1  0  0  0  0
 24 25  1  0  0  0  0
 25 26  1  0  0  0  0
 27 12  1  0  0  0  0
 27 28  1  0  0  0  0
 31 30  2  6  0  0  0
 31 29  1  0  0  0  0
 31 28  1  0  0  0  0
 31 32  1  0  0  0  0
 32 34  1  0  0  0  0
 34 35  1  0  0  0  0
 34 33  1  0  0  0  0
 36 34  2  0  0  0  0
 37 38  1  0  0  0  0
 37  2  1  0  0  0  0
 39 41  1  0  0  0  0
 40 49  1  6  0  0  0
 40 39  1  0  0  0  0
 40 43  1  0  0  0  0
 41 42  1  0  0  0  0
 43 38  1  1  0  0  0
 43 42  1  0  0  0  0
 45 47  2  0  0  0  0
 45 48  1  0  0  0  0
 46 44  2  0  0  0  0
 47 46  1  0  0  0  0
 48 49  2  0  0  0  0
 49 44  1  0  0  0  0
 50 51  2  0  0  0  0
 51 48  1  0  0  0  0
 52 51  1  0  0  0  0
 53 52  1  0  0  0  0
 53 54  1  0  0  0  0
 55 39  1  0  0  0  0
 56 55  1  0  0  0  0
 57 56  2  0  0  0  0
 58 60  1  0  0  0  0
 60 59  1  0  0  0  0
 60 56  1  0  0  0  0
M  END
>  <MODEL>
4

>  <REMARK>
 VINA RESULT:      -5.4      1.482      2.586
  Name = 
  19 active torsions:
  status: ('A' for Active; 'I' for Inactive)
    1  A    between atoms: S_2  and  C_24
    2  A    between atoms: S_2  and  N_31
    3  A    between atoms: P_4  and  O_56
    4  A    between atoms: C_8  and  C_33
    5  A    between atoms: C_10  and  C_46
    6  A    between atoms: N_14  and  C_27
    7  A    between atoms: C_16  and  C_41
    8  A    between atoms: C_16  and  C_54
    9  A    between atoms: C_19  and  C_34
   10  A    between atoms: C_21  and  C_27
   11  A    between atoms: C_21  and  C_29
   12  A    between atoms: C_22  and  N_43
   13  A    between atoms: C_28  and  C_32
   14  A    between atoms: C_33  and  C_51
   15  A    between atoms: C_40  and  C_58
   16  A    between atoms: C_46  and  C_55
   17  A    between atoms: C_47  and  C_55
   18  A    between atoms: C_51  and  P_59
   19  A    between atoms: O_56  and  P_59
                            x       y       z     vdW  Elec       q    Type
                         _______ _______ _______ _____ _____    ______ ____

>  <TORSDO>
F 19

$$$$
=
 OpenBabel11062420393D

 60 64  0  0  1  0  0  0  0  0999 V2000
  189.3130  173.1180  139.4390 C   0  0  2  0  0  3  0  0  0  0  0  0
  190.6680  171.1000  140.3210 C   0  0  0  0  0  0  0  0  0  0  0  0
  191.0380  170.4420  141.3290 O   0  0  0  0  0  0  0  0  0  0  0  0
  188.0290  175.3130  139.7500 O   0  0  0  0  0  1  0  0  0  0  0  0
  189.7660  172.2010  140.4820 N   0  0  0  0  0  0  0  0  0  0  0  0
  189.3800  172.6760  141.7100 O   0  0  0  0  0  0  0  0  0  0  0  0
  188.6930  173.8610  141.5460 C   0  0  0  0  0  0  0  0  0  0  0  0
  188.6300  174.1690  140.2590 C   0  0  0  0  0  0  0  0  0  0  0  0
  188.2930  172.4290  138.5490 C   0  0  0  0  0  1  0  0  0  0  0  0
  188.1420  174.6790  142.6660 C   0  0  0  0  0  2  0  0  0  0  0  0
  190.8240  177.9220  143.5660 C   0  0  0  0  0  0  0  0  0  0  0  0
  191.3210  176.6750  143.1610 C   0  0  0  0  0  0  0  0  0  0  0  0
  190.4300  175.6370  142.8680 C   0  0  0  0  0  3  0  0  0  0  0  0
  189.4450  178.1280  143.6510 C   0  0  0  0  0  3  0  0  0  0  0  0
  189.0470  175.8350  142.9620 C   0  0  0  0  0  0  0  0  0  0  0  0
  191.6890  178.9630  143.8840 O   0  0  0  0  0  1  0  0  0  0  0  0
  188.5470  177.0990  143.3490 C   0  0  0  0  0  0  0  0  0  0  0  0
  186.6950  178.3730  142.3980 N   0  0  0  0  0  0  0  0  0  0  0  0
  186.0280  177.6290  141.3440 C   0  0  0  0  0  1  0  0  0  0  0  0
  186.7270  177.9360  144.7400 N   0  0  0  0  0  0  0  0  0  0  0  0
  185.6900  179.2180  143.0130 C   0  0  0  0  0  2  0  0  0  0  0  0
  187.0790  177.4150  143.4250 C   0  0  2  0  0  3  0  0  0  0  0  0
  185.7030  178.9330  144.4980 C   0  0  0  0  0  2  0  0  0  0  0  0
  185.9610  176.6220  145.6400 S   0  0  0  0  0  0  0  0  0  0  0  0
  187.1410  176.7480  147.0200 C   0  0  0  0  0  2  0  0  0  0  0  0
  188.3170  175.8210  146.7880 C   0  0  0  0  0  1  0  0  0  0  0  0
  192.7930  176.4390  143.0360 C   0  0  0  0  0  2  0  0  0  0  0  0
  193.1160  175.5340  141.8520 C   0  0  0  0  0  2  0  0  0  0  0  0
  194.7860  174.4140  143.6840 O   0  0  0  0  0  1  0  0  0  0  0  0
  195.2710  173.7910  141.1870 O   0  0  0  0  0  0  0  0  0  0  0  0
  194.1030  174.0950  142.3710 P   0  0  2  0  0  0  0  0  0  0  0  0
  193.0580  172.7630  142.5500 O   0  0  0  0  0  0  0  0  0  0  0  0
  191.8380  171.1400  144.4060 O   0  0  0  0  0  0  0  0  0  0  0  0
  192.8990  172.4390  144.2170 P   0  0  0  0  0  0  0  0  0  0  0  0
  194.3920  172.0130  144.8910 O   0  0  0  0  0  1  0  0  0  0  0  0
  192.3320  173.6360  144.9530 O   0  0  0  0  0  1  0  0  0  0  0  0
  191.1620  170.7050  138.9710 C   0  0  0  0  0  2  0  0  0  0  0  0
  192.6770  170.7980  138.9300 C   0  0  0  0  0  2  0  0  0  0  0  0
  194.7030  173.4340  137.6220 N   0  0  0  0  0  0  0  0  0  0  0  0
  194.5670  172.0000  137.9000 C   0  0  1  0  0  3  0  0  0  0  0  0
  193.4550  174.0060  137.9420 N   0  0  0  0  0  2  0  0  0  0  0  0
  192.4310  172.9760  137.7740 C   0  0  0  0  0  2  0  0  0  0  0  0
  193.1170  171.6330  137.7430 C   0  0  2  0  0  3  0  0  0  0  0  0
  195.2020  170.5750  135.9240 C   0  0  0  0  0  3  0  0  0  0  0  0
  197.7320  170.0430  136.9610 C   0  0  0  0  0  3  0  0  0  0  0  0
  196.1000  169.7900  135.2020 C   0  0  0  0  0  3  0  0  0  0  0  0
  197.3670  169.5250  135.7190 C   0  0  0  0  0  3  0  0  0  0  0  0
  196.8420  170.8310  137.7110 C   0  0  0  0  0  0  0  0  0  0  0  0
  195.5520  171.1000  137.1810 C   0  0  0  0  0  0  0  0  0  0  0  0
  197.9160  172.4310  139.1290 O   0  0  0  0  0  0  0  0  0  0  0  0
  197.3040  171.3330  139.0300 C   0  0  0  0  0  0  0  0  0  0  0  0
  197.0320  170.5690  140.2110 N   0  0  0  0  0  2  0  0  0  0  0  0
  197.4100  171.0170  141.5430 C   0  0  0  0  0  2  0  0  0  0  0  0
  196.4400  170.4610  142.5710 C   0  0  0  0  0  1  0  0  0  0  0  0
  194.9460  173.7040  136.2020 C   0  0  0  0  0  2  0  0  0  0  0  0
  195.6770  174.9950  136.0400 C   0  0  0  0  0  0  0  0  0  0  0  0
  195.0540  176.0420  135.9560 O   0  0  0  0  0  0  0  0  0  0  0  0
  197.7520  175.3890  137.3340 C   0  0  0  0  0  1  0  0  0  0  0  0
  197.6920  173.6160  135.5890 C   0  0  0  0  0  1  0  0  0  0  0  0
  197.1730  174.9870  135.9900 C   0  0  0  0  0  3  0  0  0  0  0  0
  1  9  1  6  0  0  0
  1  8  1  0  0  0  0
  1  5  1  0  0  0  0
  2  5  1  0  0  0  0
  2  3  2  0  0  0  0
  4  8  1  0  0  0  0
  5  6  1  0  0  0  0
  7  6  1  0  0  0  0
  7 10  1  0  0  0  0
  8  7  2  0  0  0  0
 10 15  1  0  0  0  0
 11 14  1  0  0  0  0
 11 16  1  0  0  0  0
 12 11  2  0  0  0  0
 13 15  2  0  0  0  0
 13 12  1  0  0  0  0
 15 17  1  0  0  0  0
 17 14  2  0  0  0  0
 18 21  1  0  0  0  0
 18 22  1  0  0  0  0
 19 18  1  0  0  0  0
 20 24  1  0  0  0  0
 21 23  1  0  0  0  0
 22 17  1  1  0  0  0
 22 20  1  0  0  0  0
 23 20  1  0  0  0  0
 24 25  1  0  0  0  0
 26 25  1  0  0  0  0
 27 12  1  0  0  0  0
 28 31  1  0  0  0  0
 28 27  1  0  0  0  0
 31 30  2  6  0  0  0
 31 32  1  0  0  0  0
 31 29  1  0  0  0  0
 32 34  1  0  0  0  0
 34 33  2  0  0  0  0
 34 35  1  0  0  0  0
 34 36  1  0  0  0  0
 37  2  1  0  0  0  0
 38 37  1  0  0  0  0
 39 40  1  0  0  0  0
 39 41  1  0  0  0  0
 40 49  1  6  0  0  0
 42 41  1  0  0  0  0
 43 42  1  0  0  0  0
 43 40  1  0  0  0  0
 43 38  1  1  0  0  0
 44 49  1  0  0  0  0
 45 48  1  0  0  0  0
 46 47  1  0  0  0  0
 46 44  2  0  0  0  0
 47 45  2  0  0  0  0
 48 51  1  0  0  0  0
 49 48  2  0  0  0  0
 51 50  2  0  0  0  0
 51 52  1  0  0  0  0
 52 53  1  0  0  0  0
 53 54  1  0  0  0  0
 55 39  1  0  0  0  0
 56 55  1  0  0  0  0
 57 56  2  0  0  0  0
 59 60  1  0  0  0  0
 60 56  1  0  0  0  0
 60 58  1  0  0  0  0
M  END
>  <MODEL>
5

>  <REMARK>
 VINA RESULT:      -5.2      1.792      3.571
  Name = 
  19 active torsions:
  status: ('A' for Active; 'I' for Inactive)
    1  A    between atoms: S_2  and  C_24
    2  A    between atoms: S_2  and  N_31
    3  A    between atoms: P_4  and  O_56
    4  A    between atoms: C_8  and  C_33
    5  A    between atoms: C_10  and  C_46
    6  A    between atoms: N_14  and  C_27
    7  A    between atoms: C_16  and  C_41
    8  A    between atoms: C_16  and  C_54
    9  A    between atoms: C_19  and  C_34
   10  A    between atoms: C_21  and  C_27
   11  A    between atoms: C_21  and  C_29
   12  A    between atoms: C_22  and  N_43
   13  A    between atoms: C_28  and  C_32
   14  A    between atoms: C_33  and  C_51
   15  A    between atoms: C_40  and  C_58
   16  A    between atoms: C_46  and  C_55
   17  A    between atoms: C_47  and  C_55
   18  A    between atoms: C_51  and  P_59
   19  A    between atoms: O_56  and  P_59
                            x       y       z     vdW  Elec       q    Type
                         _______ _______ _______ _____ _____    ______ ____

>  <TORSDO>
F 19

$$$$
=
 OpenBabel11062420393D

 60 64  0  0  1  0  0  0  0  0999 V2000
  189.2890  173.0510  139.7240 C   0  0  2  0  0  3  0  0  0  0  0  0
  190.4400  171.1170  140.9960 C   0  0  0  0  0  0  0  0  0  0  0  0
  190.6370  170.5610  142.1090 O   0  0  0  0  0  0  0  0  0  0  0  0
  188.0340  175.2830  139.6170 O   0  0  0  0  0  1  0  0  0  0  0  0
  189.5550  172.2400  140.9090 N   0  0  0  0  0  0  0  0  0  0  0  0
  189.0030  172.8430  142.0110 O   0  0  0  0  0  0  0  0  0  0  0  0
  188.3820  174.0130  141.6280 C   0  0  0  0  0  0  0  0  0  0  0  0
  188.5210  174.1890  140.3220 C   0  0  0  0  0  0  0  0  0  0  0  0
  188.3940  172.2880  138.7620 C   0  0  0  0  0  1  0  0  0  0  0  0
  187.6930  174.9500  142.5640 C   0  0  0  0  0  2  0  0  0  0  0  0
  190.4340  178.0310  143.7920 C   0  0  0  0  0  0  0  0  0  0  0  0
  190.9080  176.8220  143.2630 C   0  0  0  0  0  0  0  0  0  0  0  0
  189.9990  175.8360  142.8660 C   0  0  0  0  0  3  0  0  0  0  0  0
  189.0590  178.2550  143.8950 C   0  0  0  0  0  3  0  0  0  0  0  0
  188.6190  176.0510  142.9770 C   0  0  0  0  0  0  0  0  0  0  0  0
  191.3190  179.0170  144.2150 O   0  0  0  0  0  1  0  0  0  0  0  0
  188.1420  177.2790  143.4890 C   0  0  0  0  0  0  0  0  0  0  0  0
  186.2920  178.5890  142.5840 N   0  0  0  0  0  0  0  0  0  0  0  0
  185.5970  177.8660  141.5350 C   0  0  0  0  0  1  0  0  0  0  0  0
  186.3590  178.1270  144.9210 N   0  0  0  0  0  0  0  0  0  0  0  0
  185.3100  179.4420  143.2260 C   0  0  0  0  0  2  0  0  0  0  0  0
  186.6810  177.6150  143.5940 C   0  0  2  0  0  3  0  0  0  0  0  0
  185.3460  179.1400  144.7070 C   0  0  0  0  0  2  0  0  0  0  0  0
  185.5900  176.8140  145.8200 S   0  0  0  0  0  0  0  0  0  0  0  0
  185.5480  177.7690  147.3690 C   0  0  0  0  0  2  0  0  0  0  0  0
  186.8990  178.4070  147.6250 C   0  0  0  0  0  1  0  0  0  0  0  0
  192.3750  176.5700  143.1170 C   0  0  0  0  0  2  0  0  0  0  0  0
  192.7510  175.1660  143.5780 C   0  0  0  0  0  2  0  0  0  0  0  0
  194.8920  175.4190  145.2360 O   0  0  0  0  0  0  0  0  0  0  0  0
  193.0870  173.6740  145.9820 O   0  0  0  0  0  1  0  0  0  0  0  0
  193.3980  175.1800  145.2790 P   0  0  2  0  0  0  0  0  0  0  0  0
  192.6180  176.4240  146.1390 O   0  0  0  0  0  0  0  0  0  0  0  0
  190.1160  176.9890  147.1360 O   0  0  0  0  0  1  0  0  0  0  0  0
  191.2470  175.7570  146.9040 P   0  0  0  0  0  0  0  0  0  0  0  0
  190.5420  174.5600  145.9350 O   0  0  0  0  0  0  0  0  0  0  0  0
  191.6070  175.1710  148.2540 O   0  0  0  0  0  1  0  0  0  0  0  0
  191.1190  170.5790  139.7830 C   0  0  0  0  0  2  0  0  0  0  0  0
  192.4050  169.8790  140.1820 C   0  0  0  0  0  2  0  0  0  0  0  0
  193.9960  173.0770  140.2520 N   0  0  0  0  0  0  0  0  0  0  0  0
  193.7980  171.7800  140.9070 C   0  0  1  0  0  3  0  0  0  0  0  0
  193.3230  172.9880  139.0170 N   0  0  0  0  0  2  0  0  0  0  0  0
  193.2960  171.5820  138.6180 C   0  0  0  0  0  2  0  0  0  0  0  0
  193.6010  170.7440  139.8350 C   0  0  2  0  0  3  0  0  0  0  0  0
  194.6520  171.9660  143.2680 C   0  0  0  0  0  3  0  0  0  0  0  0
  196.7370  170.1820  142.7890 C   0  0  0  0  0  3  0  0  0  0  0  0
  195.5270  171.6240  144.2990 C   0  0  0  0  0  3  0  0  0  0  0  0
  196.5680  170.7290  144.0600 C   0  0  0  0  0  3  0  0  0  0  0  0
  195.8720  170.5170  141.7320 C   0  0  0  0  0  0  0  0  0  0  0  0
  194.8110  171.4280  141.9790 C   0  0  0  0  0  0  0  0  0  0  0  0
  195.6770  168.7570  140.1240 O   0  0  0  0  0  0  0  0  0  0  0  0
  196.1280  169.9010  140.4060 C   0  0  0  0  0  0  0  0  0  0  0  0
  196.8810  170.6230  139.4250 N   0  0  0  0  0  2  0  0  0  0  0  0
  197.1330  170.1070  138.0880 C   0  0  0  0  0  2  0  0  0  0  0  0
  196.7800  171.1580  137.0510 C   0  0  0  0  0  1  0  0  0  0  0  0
  195.4060  173.3390  139.9540 C   0  0  0  0  0  2  0  0  0  0  0  0
  195.7870  174.7040  140.4210 C   0  0  0  0  0  0  0  0  0  0  0  0
  195.8080  175.6350  139.6300 O   0  0  0  0  0  0  0  0  0  0  0  0
  197.4500  174.2360  142.1960 C   0  0  0  0  0  1  0  0  0  0  0  0
  196.2170  176.3980  142.1850 C   0  0  0  0  0  1  0  0  0  0  0  0
  196.1340  174.9150  141.8610 C   0  0  0  0  0  3  0  0  0  0  0  0
  1  9  1  6  0  0  0
  1  8  1  0  0  0  0
  1  5  1  0  0  0  0
  2  3  2  0  0  0  0
  4  8  1  0  0  0  0
  5  2  1  0  0  0  0
  5  6  1  0  0  0  0
  7  6  1  0  0  0  0
  7 10  1  0  0  0  0
  8  7  2  0  0  0  0
 10 15  1  0  0  0  0
 11 14  1  0  0  0  0
 11 16  1  0  0  0  0
 12 11  2  0  0  0  0
 13 15  2  0  0  0  0
 13 12  1  0  0  0  0
 15 17  1  0  0  0  0
 17 14  2  0  0  0  0
 18 21  1  0  0  0  0
 18 22  1  0  0  0  0
 19 18  1  0  0  0  0
 20 24  1  0  0  0  0
 21 23  1  0  0  0  0
 22 17  1  1  0  0  0
 22 20  1  0  0  0  0
 23 20  1  0  0  0  0
 24 25  1  0  0  0  0
 25 26  1  0  0  0  0
 27 12  1  0  0  0  0
 27 28  1  0  0  0  0
 28 31  1  0  0  0  0
 31 29  2  6  0  0  0
 31 30  1  0  0  0  0
 31 32  1  0  0  0  0
 32 34  1  0  0  0  0
 34 33  1  0  0  0  0
 34 36  1  0  0  0  0
 35 34  2  0  0  0  0
 37 38  1  0  0  0  0
 37  2  1  0  0  0  0
 39 40  1  0  0  0  0
 40 49  1  6  0  0  0
 41 39  1  0  0  0  0
 42 41  1  0  0  0  0
 42 43  1  0  0  0  0
 43 38  1  1  0  0  0
 43 40  1  0  0  0  0
 44 46  1  0  0  0  0
 45 47  1  0  0  0  0
 47 46  2  0  0  0  0
 48 49  1  0  0  0  0
 48 45  2  0  0  0  0
 49 44  2  0  0  0  0
 50 51  2  0  0  0  0
 51 48  1  0  0  0  0
 52 51  1  0  0  0  0
 53 52  1  0  0  0  0
 54 53  1  0  0  0  0
 55 39  1  0  0  0  0
 55 56  1  0  0  0  0
 56 60  1  0  0  0  0
 57 56  2  0  0  0  0
 60 59  1  0  0  0  0
 60 58  1  0  0  0  0
M  END
>  <MODEL>
6

>  <REMARK>
 VINA RESULT:      -5.0      2.183      3.702
  Name = 
  19 active torsions:
  status: ('A' for Active; 'I' for Inactive)
    1  A    between atoms: S_2  and  C_24
    2  A    between atoms: S_2  and  N_31
    3  A    between atoms: P_4  and  O_56
    4  A    between atoms: C_8  and  C_33
    5  A    between atoms: C_10  and  C_46
    6  A    between atoms: N_14  and  C_27
    7  A    between atoms: C_16  and  C_41
    8  A    between atoms: C_16  and  C_54
    9  A    between atoms: C_19  and  C_34
   10  A    between atoms: C_21  and  C_27
   11  A    between atoms: C_21  and  C_29
   12  A    between atoms: C_22  and  N_43
   13  A    between atoms: C_28  and  C_32
   14  A    between atoms: C_33  and  C_51
   15  A    between atoms: C_40  and  C_58
   16  A    between atoms: C_46  and  C_55
   17  A    between atoms: C_47  and  C_55
   18  A    between atoms: C_51  and  P_59
   19  A    between atoms: O_56  and  P_59
                            x       y       z     vdW  Elec       q    Type
                         _______ _______ _______ _____ _____    ______ ____

>  <TORSDO>
F 19

$$$$
=
 OpenBabel11062420393D

 60 64  0  0  1  0  0  0  0  0999 V2000
  196.0360  175.7910  143.0210 C   0  0  2  0  0  3  0  0  0  0  0  0
  194.2300  175.5130  144.8500 C   0  0  0  0  0  0  0  0  0  0  0  0
  193.7770  174.7940  145.7800 O   0  0  0  0  0  0  0  0  0  0  0  0
  197.9410  174.9170  141.5460 O   0  0  0  0  0  1  0  0  0  0  0  0
  195.4310  175.1260  144.1720 N   0  0  0  0  0  0  0  0  0  0  0  0
  196.0550  173.9230  144.3880 O   0  0  0  0  0  0  0  0  0  0  0  0
  197.0450  173.7470  143.4440 C   0  0  0  0  0  0  0  0  0  0  0  0
  197.0760  174.7880  142.6250 C   0  0  0  0  0  0  0  0  0  0  0  0
  196.7160  177.0760  143.4620 C   0  0  0  0  0  1  0  0  0  0  0  0
  197.9190  172.5400  143.3520 C   0  0  0  0  0  2  0  0  0  0  0  0
  196.5130  170.0050  140.1710 C   0  0  0  0  0  0  0  0  0  0  0  0
  197.3700  171.0820  139.9010 C   0  0  0  0  0  0  0  0  0  0  0  0
  197.8190  171.8900  140.9510 C   0  0  0  0  0  3  0  0  0  0  0  0
  196.1330  169.7300  141.4870 C   0  0  0  0  0  3  0  0  0  0  0  0
  197.4320  171.6250  142.2710 C   0  0  0  0  0  0  0  0  0  0  0  0
  196.0360  169.2020  139.1410 O   0  0  0  0  0  1  0  0  0  0  0  0
  196.5870  170.5260  142.5440 C   0  0  0  0  0  0  0  0  0  0  0  0
  197.0370  169.1040  144.4770 N   0  0  0  0  0  0  0  0  0  0  0  0
  197.9410  169.7520  145.4100 C   0  0  0  0  0  1  0  0  0  0  0  0
  194.7840  169.6710  143.9470 N   0  0  0  0  0  0  0  0  0  0  0  0
  196.1740  168.2420  145.2620 C   0  0  0  0  0  2  0  0  0  0  0  0
  196.1660  170.1360  143.9340 C   0  0  2  0  0  3  0  0  0  0  0  0
  194.7450  168.6090  144.9330 C   0  0  0  0  0  2  0  0  0  0  0  0
  193.7890  170.9900  144.5750 S   0  0  0  0  0  0  0  0  0  0  0  0
  193.2710  171.5190  142.9120 C   0  0  0  0  0  2  0  0  0  0  0  0
  192.8370  172.9710  142.9370 C   0  0  0  0  0  1  0  0  0  0  0  0
  197.8130  171.3800  138.5040 C   0  0  0  0  0  2  0  0  0  0  0  0
  196.6640  171.9120  137.6530 C   0  0  0  0  0  2  0  0  0  0  0  0
  197.6230  174.4000  138.1890 O   0  0  0  0  0  0  0  0  0  0  0  0
  195.4510  173.7250  139.4870 O   0  0  0  0  0  1  0  0  0  0  0  0
  196.3130  173.6570  138.0340 P   0  0  2  0  0  0  0  0  0  0  0  0
  195.4020  174.3130  136.7550 O   0  0  0  0  0  0  0  0  0  0  0  0
  192.8310  173.7970  137.5900 O   0  0  0  0  0  1  0  0  0  0  0  0
  193.9920  175.0100  137.4170 P   0  0  0  0  0  0  0  0  0  0  0  0
  194.3090  175.6690  138.9440 O   0  0  0  0  0  1  0  0  0  0  0  0
  193.4360  176.0840  136.5050 O   0  0  0  0  0  0  0  0  0  0  0  0
  193.5160  176.7700  144.4870 C   0  0  0  0  0  2  0  0  0  0  0  0
  192.4320  176.4690  143.4680 C   0  0  0  0  0  2  0  0  0  0  0  0
  188.8800  176.7140  143.1720 N   0  0  0  0  0  0  0  0  0  0  0  0
  190.0600  175.8440  143.2210 C   0  0  1  0  0  3  0  0  0  0  0  0
  189.3530  178.0150  143.4340 N   0  0  0  0  0  2  0  0  0  0  0  0
  190.5640  177.9000  144.2460 C   0  0  0  0  0  2  0  0  0  0  0  0
  191.0690  176.4820  144.1340 C   0  0  2  0  0  3  0  0  0  0  0  0
  189.9980  173.8590  144.7690 C   0  0  0  0  0  3  0  0  0  0  0  0
  188.9350  172.1980  142.8010 C   0  0  0  0  0  3  0  0  0  0  0  0
  189.6970  172.5300  145.0660 C   0  0  0  0  0  3  0  0  0  0  0  0
  189.1630  171.7000  144.0830 C   0  0  0  0  0  3  0  0  0  0  0  0
  189.2350  173.5330  142.4750 C   0  0  0  0  0  0  0  0  0  0  0  0
  189.7780  174.3770  143.4800 C   0  0  0  0  0  0  0  0  0  0  0  0
  188.1080  174.8650  140.8400 O   0  0  0  0  0  0  0  0  0  0  0  0
  188.9740  173.9820  141.0840 C   0  0  0  0  0  0  0  0  0  0  0  0
  189.7300  173.4180  140.0070 N   0  0  0  0  0  2  0  0  0  0  0  0
  189.5660  173.8400  138.6240 C   0  0  0  0  0  2  0  0  0  0  0  0
  189.1590  172.6570  137.7650 C   0  0  0  0  0  1  0  0  0  0  0  0
  187.9090  176.3920  144.2210 C   0  0  0  0  0  2  0  0  0  0  0  0
  186.5390  176.8120  143.8020 C   0  0  0  0  0  0  0  0  0  0  0  0
  186.0270  176.3190  142.8090 O   0  0  0  0  0  0  0  0  0  0  0  0
  186.3440  177.8680  146.0340 C   0  0  0  0  0  1  0  0  0  0  0  0
  185.9210  179.2100  143.9820 C   0  0  0  0  0  1  0  0  0  0  0  0
  185.8070  177.8330  144.6150 C   0  0  0  0  0  3  0  0  0  0  0  0
  1  9  1  1  0  0  0
  1  5  1  0  0  0  0
  2  3  2  0  0  0  0
  4  8  1  0  0  0  0
  5  6  1  0  0  0  0
  5  2  1  0  0  0  0
  7  6  1  0  0  0  0
  8  1  1  0  0  0  0
  8  7  2  0  0  0  0
 10  7  1  0  0  0  0
 11 14  1  0  0  0  0
 12 11  2  0  0  0  0
 12 13  1  0  0  0  0
 13 15  2  0  0  0  0
 14 17  2  0  0  0  0
 15 17  1  0  0  0  0
 15 10  1  0  0  0  0
 16 11  1  0  0  0  0
 18 21  1  0  0  0  0
 18 19  1  0  0  0  0
 20 24  1  0  0  0  0
 20 23  1  0  0  0  0
 22 17  1  6  0  0  0
 22 20  1  0  0  0  0
 22 18  1  0  0  0  0
 23 21  1  0  0  0  0
 25 26  1  0  0  0  0
 25 24  1  0  0  0  0
 27 12  1  0  0  0  0
 28 31  1  0  0  0  0
 28 27  1  0  0  0  0
 31 29  2  1  0  0  0
 31 30  1  0  0  0  0
 32 34  1  0  0  0  0
 32 31  1  0  0  0  0
 34 33  1  0  0  0  0
 34 35  1  0  0  0  0
 36 34  2  0  0  0  0
 37  2  1  0  0  0  0
 38 37  1  0  0  0  0
 39 40  1  0  0  0  0
 39 41  1  0  0  0  0
 39 55  1  0  0  0  0
 40 49  1  1  0  0  0
 40 43  1  0  0  0  0
 41 42  1  0  0  0  0
 43 38  1  6  0  0  0
 43 42  1  0  0  0  0
 44 46  1  0  0  0  0
 45 47  1  0  0  0  0
 47 46  2  0  0  0  0
 48 45  2  0  0  0  0
 48 49  1  0  0  0  0
 49 44  2  0  0  0  0
 50 51  2  0  0  0  0
 51 48  1  0  0  0  0
 52 51  1  0  0  0  0
 53 52  1  0  0  0  0
 54 53  1  0  0  0  0
 56 55  1  0  0  0  0
 56 60  1  0  0  0  0
 57 56  2  0  0  0  0
 59 60  1  0  0  0  0
 60 58  1  0  0  0  0
M  END
>  <MODEL>
7

>  <REMARK>
 VINA RESULT:      -4.9      3.803      9.648
  Name = 
  19 active torsions:
  status: ('A' for Active; 'I' for Inactive)
    1  A    between atoms: S_2  and  C_24
    2  A    between atoms: S_2  and  N_31
    3  A    between atoms: P_4  and  O_56
    4  A    between atoms: C_8  and  C_33
    5  A    between atoms: C_10  and  C_46
    6  A    between atoms: N_14  and  C_27
    7  A    between atoms: C_16  and  C_41
    8  A    between atoms: C_16  and  C_54
    9  A    between atoms: C_19  and  C_34
   10  A    between atoms: C_21  and  C_27
   11  A    between atoms: C_21  and  C_29
   12  A    between atoms: C_22  and  N_43
   13  A    between atoms: C_28  and  C_32
   14  A    between atoms: C_33  and  C_51
   15  A    between atoms: C_40  and  C_58
   16  A    between atoms: C_46  and  C_55
   17  A    between atoms: C_47  and  C_55
   18  A    between atoms: C_51  and  P_59
   19  A    between atoms: O_56  and  P_59
                            x       y       z     vdW  Elec       q    Type
                         _______ _______ _______ _____ _____    ______ ____

>  <TORSDO>
F 19

$$$$
=
 OpenBabel11062420393D

 60 64  0  0  1  0  0  0  0  0999 V2000
  195.8880  175.5380  142.8570 C   0  0  2  0  0  3  0  0  0  0  0  0
  194.3210  175.2730  144.8960 C   0  0  0  0  0  0  0  0  0  0  0  0
  193.9570  174.5410  145.8540 O   0  0  0  0  0  0  0  0  0  0  0  0
  197.5440  174.6360  141.1210 O   0  0  0  0  0  1  0  0  0  0  0  0
  195.4040  174.8580  144.0560 N   0  0  0  0  0  0  0  0  0  0  0  0
  195.9930  173.6230  144.1530 O   0  0  0  0  0  0  0  0  0  0  0  0
  196.8450  173.4380  143.0840 C   0  0  0  0  0  0  0  0  0  0  0  0
  196.8200  174.5060  142.3000 C   0  0  0  0  0  0  0  0  0  0  0  0
  196.6800  176.7750  143.2450 C   0  0  0  0  0  1  0  0  0  0  0  0
  197.6400  172.1980  142.8420 C   0  0  0  0  0  2  0  0  0  0  0  0
  195.4020  169.5320  140.3130 C   0  0  0  0  0  0  0  0  0  0  0  0
  196.2500  170.5000  139.7570 C   0  0  0  0  0  0  0  0  0  0  0  0
  196.9720  171.3530  140.5980 C   0  0  0  0  0  3  0  0  0  0  0  0
  195.3030  169.4060  141.7000 C   0  0  0  0  0  3  0  0  0  0  0  0
  196.8670  171.2400  141.9900 C   0  0  0  0  0  0  0  0  0  0  0  0
  194.6570  168.6870  139.4970 O   0  0  0  0  0  1  0  0  0  0  0  0
  196.0300  170.2480  142.5490 C   0  0  0  0  0  0  0  0  0  0  0  0
  196.7930  168.9620  144.4790 N   0  0  0  0  0  0  0  0  0  0  0  0
  197.9240  169.6020  145.1260 C   0  0  0  0  0  1  0  0  0  0  0  0
  194.5250  169.6860  144.3830 N   0  0  0  0  0  0  0  0  0  0  0  0
  196.0650  168.2530  145.5140 C   0  0  0  0  0  2  0  0  0  0  0  0
  195.8990  170.0190  144.0290 C   0  0  2  0  0  3  0  0  0  0  0  0
  194.6280  168.7210  145.4600 C   0  0  0  0  0  2  0  0  0  0  0  0
  193.7880  171.1400  145.0670 S   0  0  0  0  0  0  0  0  0  0  0  0
  192.6330  171.3280  143.6730 C   0  0  0  0  0  2  0  0  0  0  0  0
  193.0160  172.5330  142.8370 C   0  0  0  0  0  1  0  0  0  0  0  0
  196.3940  170.6350  138.2740 C   0  0  0  0  0  2  0  0  0  0  0  0
  195.8370  171.9640  137.7750 C   0  0  0  0  0  2  0  0  0  0  0  0
  193.2100  171.3290  138.0750 O   0  0  0  0  0  1  0  0  0  0  0  0
  194.3140  170.5370  135.8350 O   0  0  0  0  0  0  0  0  0  0  0  0
  194.2000  171.7490  137.0090 P   0  0  2  0  0  0  0  0  0  0  0  0
  193.7350  173.2300  136.3120 O   0  0  0  0  0  0  0  0  0  0  0  0
  194.6980  174.3650  138.6250 O   0  0  0  0  0  1  0  0  0  0  0  0
  193.3770  174.3180  137.5760 P   0  0  0  0  0  0  0  0  0  0  0  0
  193.1190  175.8780  136.9710 O   0  0  0  0  0  0  0  0  0  0  0  0
  192.1580  173.8670  138.3540 O   0  0  0  0  0  1  0  0  0  0  0  0
  193.6270  176.5720  144.6670 C   0  0  0  0  0  2  0  0  0  0  0  0
  192.4590  176.3700  143.7190 C   0  0  0  0  0  2  0  0  0  0  0  0
  189.1040  177.3390  144.4770 N   0  0  0  0  0  0  0  0  0  0  0  0
  189.9970  176.5120  143.6590 C   0  0  1  0  0  3  0  0  0  0  0  0
  189.9300  177.9660  145.4310 N   0  0  0  0  0  2  0  0  0  0  0  0
  191.0950  177.1090  145.6510 C   0  0  0  0  0  2  0  0  0  0  0  0
  191.1820  176.1340  144.5040 C   0  0  2  0  0  3  0  0  0  0  0  0
  189.7380  174.0530  143.1890 C   0  0  0  0  0  3  0  0  0  0  0  0
  187.6460  174.4860  141.4020 C   0  0  0  0  0  3  0  0  0  0  0  0
  189.1120  172.9690  142.5720 C   0  0  0  0  0  3  0  0  0  0  0  0
  188.0640  173.1860  141.6790 C   0  0  0  0  0  3  0  0  0  0  0  0
  188.2650  175.5950  142.0060 C   0  0  0  0  0  0  0  0  0  0  0  0
  189.3320  175.3710  142.9160 C   0  0  0  0  0  0  0  0  0  0  0  0
  188.5600  177.8490  141.2620 O   0  0  0  0  0  0  0  0  0  0  0  0
  187.7680  176.9470  141.6460 C   0  0  0  0  0  0  0  0  0  0  0  0
  186.3640  177.2250  141.7180 N   0  0  0  0  0  2  0  0  0  0  0  0
  185.7950  178.5090  141.3360 C   0  0  0  0  0  2  0  0  0  0  0  0
  184.4420  178.3030  140.6810 C   0  0  0  0  0  1  0  0  0  0  0  0
  188.1270  176.5370  145.2170 C   0  0  0  0  0  2  0  0  0  0  0  0
  187.0100  177.4010  145.6990 C   0  0  0  0  0  0  0  0  0  0  0  0
  186.4200  178.1290  144.9160 O   0  0  0  0  0  0  0  0  0  0  0  0
  186.6590  178.7480  147.7480 C   0  0  0  0  0  1  0  0  0  0  0  0
  185.2360  176.7540  147.3120 C   0  0  0  0  0  1  0  0  0  0  0  0
  186.6210  177.3560  147.1440 C   0  0  0  0  0  3  0  0  0  0  0  0
  1  9  1  1  0  0  0
  1  5  1  0  0  0  0
  2  3  2  0  0  0  0
  4  8  1  0  0  0  0
  5  6  1  0  0  0  0
  5  2  1  0  0  0  0
  7  6  1  0  0  0  0
  8  1  1  0  0  0  0
  8  7  2  0  0  0  0
 10  7  1  0  0  0  0
 11 14  1  0  0  0  0
 12 11  2  0  0  0  0
 12 13  1  0  0  0  0
 13 15  2  0  0  0  0
 14 17  2  0  0  0  0
 15 17  1  0  0  0  0
 15 10  1  0  0  0  0
 16 11  1  0  0  0  0
 18 19  1  0  0  0  0
 18 21  1  0  0  0  0
 20 24  1  0  0  0  0
 20 23  1  0  0  0  0
 22 17  1  6  0  0  0
 22 20  1  0  0  0  0
 22 18  1  0  0  0  0
 23 21  1  0  0  0  0
 25 24  1  0  0  0  0
 26 25  1  0  0  0  0
 27 12  1  0  0  0  0
 28 27  1  0  0  0  0
 31 30  2  6  0  0  0
 31 28  1  0  0  0  0
 31 29  1  0  0  0  0
 32 31  1  0  0  0  0
 32 34  1  0  0  0  0
 34 36  1  0  0  0  0
 34 33  1  0  0  0  0
 35 34  2  0  0  0  0
 37  2  1  0  0  0  0
 38 37  1  0  0  0  0
 39 55  1  0  0  0  0
 39 41  1  0  0  0  0
 40 49  1  1  0  0  0
 40 39  1  0  0  0  0
 40 43  1  0  0  0  0
 41 42  1  0  0  0  0
 43 38  1  6  0  0  0
 43 42  1  0  0  0  0
 45 47  2  0  0  0  0
 45 48  1  0  0  0  0
 46 44  2  0  0  0  0
 47 46  1  0  0  0  0
 48 49  2  0  0  0  0
 49 44  1  0  0  0  0
 50 51  2  0  0  0  0
 51 52  1  0  0  0  0
 51 48  1  0  0  0  0
 53 52  1  0  0  0  0
 54 53  1  0  0  0  0
 55 56  1  0  0  0  0
 56 60  1  0  0  0  0
 57 56  2  0  0  0  0
 60 59  1  0  0  0  0
 60 58  1  0  0  0  0
M  END
>  <MODEL>
8

>  <REMARK>
 VINA RESULT:      -4.8      3.780     10.070
  Name = 
  19 active torsions:
  status: ('A' for Active; 'I' for Inactive)
    1  A    between atoms: S_2  and  C_24
    2  A    between atoms: S_2  and  N_31
    3  A    between atoms: P_4  and  O_56
    4  A    between atoms: C_8  and  C_33
    5  A    between atoms: C_10  and  C_46
    6  A    between atoms: N_14  and  C_27
    7  A    between atoms: C_16  and  C_41
    8  A    between atoms: C_16  and  C_54
    9  A    between atoms: C_19  and  C_34
   10  A    between atoms: C_21  and  C_27
   11  A    between atoms: C_21  and  C_29
   12  A    between atoms: C_22  and  N_43
   13  A    between atoms: C_28  and  C_32
   14  A    between atoms: C_33  and  C_51
   15  A    between atoms: C_40  and  C_58
   16  A    between atoms: C_46  and  C_55
   17  A    between atoms: C_47  and  C_55
   18  A    between atoms: C_51  and  P_59
   19  A    between atoms: O_56  and  P_59
                            x       y       z     vdW  Elec       q    Type
                         _______ _______ _______ _____ _____    ______ ____

>  <TORSDO>
F 19

$$$$
=
 OpenBabel11062420393D

 60 64  0  0  1  0  0  0  0  0999 V2000
  190.0860  174.1640  141.4210 C   0  0  2  0  0  3  0  0  0  0  0  0
  191.2680  172.0920  142.4170 C   0  0  0  0  0  0  0  0  0  0  0  0
  191.4070  171.3410  143.4190 O   0  0  0  0  0  0  0  0  0  0  0  0
  188.6720  176.2930  141.6090 O   0  0  0  0  0  1  0  0  0  0  0  0
  190.3080  173.1540  142.4520 N   0  0  0  0  0  0  0  0  0  0  0  0
  189.6130  173.4940  143.5850 O   0  0  0  0  0  0  0  0  0  0  0  0
  188.9370  174.6770  143.3680 C   0  0  0  0  0  0  0  0  0  0  0  0
  189.1790  175.1130  142.1400 C   0  0  0  0  0  0  0  0  0  0  0  0
  189.3450  173.5510  140.2440 C   0  0  0  0  0  1  0  0  0  0  0  0
  188.0940  175.3680  144.3880 C   0  0  0  0  0  2  0  0  0  0  0  0
  190.6060  176.9590  147.4990 C   0  0  0  0  0  0  0  0  0  0  0  0
  191.0410  175.8870  146.7070 C   0  0  0  0  0  0  0  0  0  0  0  0
  190.2100  175.3890  145.6970 C   0  0  0  0  0  3  0  0  0  0  0  0
  189.3580  177.5390  147.2600 C   0  0  0  0  0  3  0  0  0  0  0  0
  188.9540  175.9600  145.4610 C   0  0  0  0  0  0  0  0  0  0  0  0
  191.4050  177.4560  148.5220 O   0  0  0  0  0  1  0  0  0  0  0  0
  188.5250  177.0550  146.2460 C   0  0  0  0  0  0  0  0  0  0  0  0
  186.2860  177.4960  147.1140 N   0  0  0  0  0  0  0  0  0  0  0  0
  186.2730  178.6710  147.9660 C   0  0  0  0  0  1  0  0  0  0  0  0
  186.6180  177.3660  144.7580 N   0  0  0  0  0  0  0  0  0  0  0  0
  184.9780  177.4140  146.4940 C   0  0  0  0  0  2  0  0  0  0  0  0
  187.2170  177.7620  146.0270 C   0  0  2  0  0  3  0  0  0  0  0  0
  185.1880  177.3420  144.9990 C   0  0  0  0  0  2  0  0  0  0  0  0
  186.9210  178.6680  143.6020 S   0  0  0  0  0  0  0  0  0  0  0  0
  185.3230  178.4270  142.7640 C   0  0  0  0  0  2  0  0  0  0  0  0
  185.5430  178.1640  141.2870 C   0  0  0  0  0  1  0  0  0  0  0  0
  192.3850  175.2670  146.9250 C   0  0  0  0  0  2  0  0  0  0  0  0
  193.5100  176.2040  146.5010 C   0  0  0  0  0  2  0  0  0  0  0  0
  195.2500  176.5170  144.4340 O   0  0  0  0  0  1  0  0  0  0  0  0
  192.7600  177.1440  143.9180 O   0  0  0  0  0  0  0  0  0  0  0  0
  193.8220  176.0960  144.7110 P   0  0  2  0  0  0  0  0  0  0  0  0
  193.5680  174.4860  144.2190 O   0  0  0  0  0  0  0  0  0  0  0  0
  195.7760  174.2410  145.8420 O   0  0  0  0  0  1  0  0  0  0  0  0
  195.0210  173.6250  144.4630 P   0  0  0  0  0  0  0  0  0  0  0  0
  194.7090  171.9800  144.7130 O   0  0  0  0  0  1  0  0  0  0  0  0
  195.9570  173.7920  143.2840 O   0  0  0  0  0  0  0  0  0  0  0  0
  192.0940  171.8440  141.2010 C   0  0  0  0  0  2  0  0  0  0  0  0
  192.1500  170.3550  140.9120 C   0  0  0  0  0  2  0  0  0  0  0  0
  191.1470  171.5890  137.7120 N   0  0  0  0  0  0  0  0  0  0  0  0
  192.2440  171.3400  138.6530 C   0  0  1  0  0  3  0  0  0  0  0  0
  190.0010  171.0220  138.3030 N   0  0  0  0  0  2  0  0  0  0  0  0
  190.4350  169.9310  139.1750 C   0  0  0  0  0  2  0  0  0  0  0  0
  191.9110  170.1000  139.4360 C   0  0  2  0  0  3  0  0  0  0  0  0
  194.1420  170.2340  137.4210 C   0  0  0  0  0  3  0  0  0  0  0  0
  195.6720  172.5610  137.4330 C   0  0  0  0  0  3  0  0  0  0  0  0
  195.3950  170.2470  136.8090 C   0  0  0  0  0  3  0  0  0  0  0  0
  196.1590  171.4120  136.8120 C   0  0  0  0  0  3  0  0  0  0  0  0
  194.4150  172.5710  138.0630 C   0  0  0  0  0  0  0  0  0  0  0  0
  193.6380  171.3820  138.0560 C   0  0  0  0  0  0  0  0  0  0  0  0
  193.1900  174.6250  138.1240 O   0  0  0  0  0  0  0  0  0  0  0  0
  193.9750  173.8320  138.7120 C   0  0  0  0  0  0  0  0  0  0  0  0
  194.4340  174.1430  140.0330 N   0  0  0  0  0  2  0  0  0  0  0  0
  194.0090  175.3350  140.7530 C   0  0  0  0  0  2  0  0  0  0  0  0
  195.1830  176.2820  140.9230 C   0  0  0  0  0  1  0  0  0  0  0  0
  191.3490  170.9100  136.4300 C   0  0  0  0  0  2  0  0  0  0  0  0
  190.7560  171.7130  135.3210 C   0  0  0  0  0  0  0  0  0  0  0  0
  189.5640  171.6220  135.0730 O   0  0  0  0  0  0  0  0  0  0  0  0
  191.5630  174.0430  135.0790 C   0  0  0  0  0  1  0  0  0  0  0  0
  193.0750  172.1400  134.5430 C   0  0  0  0  0  1  0  0  0  0  0  0
  191.6360  172.6290  134.5290 C   0  0  0  0  0  3  0  0  0  0  0  0
  1  9  1  6  0  0  0
  1  8  1  0  0  0  0
  1  5  1  0  0  0  0
  2  5  1  0  0  0  0
  2  3  2  0  0  0  0
  4  8  1  0  0  0  0
  5  6  1  0  0  0  0
  7  6  1  0  0  0  0
  7 10  1  0  0  0  0
  8  7  2  0  0  0  0
 10 15  1  0  0  0  0
 11 16  1  0  0  0  0
 12 27  1  0  0  0  0
 12 11  2  0  0  0  0
 13 12  1  0  0  0  0
 14 11  1  0  0  0  0
 15 13  2  0  0  0  0
 15 17  1  0  0  0  0
 17 14  2  0  0  0  0
 18 19  1  0  0  0  0
 20 23  1  0  0  0  0
 20 22  1  0  0  0  0
 21 18  1  0  0  0  0
 22 17  1  1  0  0  0
 22 18  1  0  0  0  0
 23 21  1  0  0  0  0
 24 20  1  0  0  0  0
 25 24  1  0  0  0  0
 26 25  1  0  0  0  0
 28 27  1  0  0  0  0
 29 31  1  0  0  0  0
 31 30  2  6  0  0  0
 31 28  1  0  0  0  0
 32 34  1  0  0  0  0
 32 31  1  0  0  0  0
 34 35  1  0  0  0  0
 34 33  1  0  0  0  0
 36 34  2  0  0  0  0
 37  2  1  0  0  0  0
 38 37  1  0  0  0  0
 39 41  1  0  0  0  0
 39 40  1  0  0  0  0
 40 49  1  6  0  0  0
 40 43  1  0  0  0  0
 41 42  1  0  0  0  0
 42 43  1  0  0  0  0
 43 38  1  1  0  0  0
 44 49  1  0  0  0  0
 45 48  1  0  0  0  0
 46 47  1  0  0  0  0
 46 44  2  0  0  0  0
 47 45  2  0  0  0  0
 48 51  1  0  0  0  0
 49 48  2  0  0  0  0
 50 51  2  0  0  0  0
 51 52  1  0  0  0  0
 52 53  1  0  0  0  0
 53 54  1  0  0  0  0
 55 39  1  0  0  0  0
 56 55  1  0  0  0  0
 57 56  2  0  0  0  0
 60 59  1  0  0  0  0
 60 58  1  0  0  0  0
 60 56  1  0  0  0  0
M  END
>  <MODEL>
9

>  <REMARK>
 VINA RESULT:      -4.7      2.025      3.873
  Name = 
  19 active torsions:
  status: ('A' for Active; 'I' for Inactive)
    1  A    between atoms: S_2  and  C_24
    2  A    between atoms: S_2  and  N_31
    3  A    between atoms: P_4  and  O_56
    4  A    between atoms: C_8  and  C_33
    5  A    between atoms: C_10  and  C_46
    6  A    between atoms: N_14  and  C_27
    7  A    between atoms: C_16  and  C_41
    8  A    between atoms: C_16  and  C_54
    9  A    between atoms: C_19  and  C_34
   10  A    between atoms: C_21  and  C_27
   11  A    between atoms: C_21  and  C_29
   12  A    between atoms: C_22  and  N_43
   13  A    between atoms: C_28  and  C_32
   14  A    between atoms: C_33  and  C_51
   15  A    between atoms: C_40  and  C_58
   16  A    between atoms: C_46  and  C_55
   17  A    between atoms: C_47  and  C_55
   18  A    between atoms: C_51  and  P_59
   19  A    between atoms: O_56  and  P_59
                            x       y       z     vdW  Elec       q    Type
                         _______ _______ _______ _____ _____    ______ ____

>  <TORSDO>
F 19

$$$$
