=
 OpenBabel11062422003D

 35 38  0  0  1  0  0  0  0  0999 V2000
  188.8110  173.1270  142.5490 N   0  0  0  0  0  0  0  0  0  0  0  0
  189.4750  172.0200  142.4850 C   0  0  0  0  0  3  0  0  0  0  0  0
  189.3770  174.4030  142.1880 C   0  0  1  0  0  3  0  0  0  0  0  0
  188.6880  174.9180  141.0750 O   0  0  0  0  0  0  0  0  0  0  0  0
  188.3580  175.4630  142.3290 C   0  0  2  0  0  3  0  0  0  0  0  0
  189.0420  176.8040  142.4860 C   0  0  0  0  0  2  0  0  0  0  0  0
  188.1670  177.9030  141.9140 C   0  0  0  0  0  2  0  0  0  0  0  0
  186.7850  177.7020  142.3210 N   0  0  0  0  0  2  0  0  0  0  0  0
  185.0000  178.7210  143.6880 C   0  0  0  0  0  0  0  0  0  0  0  0
  185.8640  176.5080  144.6960 C   0  0  0  0  0  1  0  0  0  0  0  0
  186.4890  178.6920  143.3530 C   0  0  1  0  0  3  0  0  0  0  0  0
  184.5130  179.9790  144.0490 O   0  0  0  0  0  1  0  0  0  0  0  0
  184.1670  177.9270  142.8890 O   0  0  0  0  0  1  0  0  0  0  0  0
  185.9600  178.0310  144.6390 C   0  0  1  0  0  0  0  0  0  0  0  0
  186.2820  178.7890  145.9220 C   0  0  0  0  0  2  0  0  0  0  0  0
  184.2320  178.4920  147.1020 O   0  0  0  0  0  0  0  0  0  0  0  0
  186.0780  177.5310  148.0720 O   0  0  0  0  0  1  0  0  0  0  0  0
  185.4710  178.2750  147.0650 C   0  0  0  0  0  0  0  0  0  0  0  0
  190.8970  171.9470  142.0200 C   0  0  0  0  0  2  0  0  0  0  0  0
  191.7160  171.3140  143.0370 N   0  0  0  0  0  2  0  0  0  0  0  0
  193.0890  171.7170  142.7790 C   0  0  0  0  0  2  0  0  0  0  0  0
  194.7440  173.7320  143.6040 S   0  0  0  0  0  0  0  0  0  0  0  0
  192.6450  172.7650  144.9240 N   0  0  0  0  0  2  0  0  0  0  0  0
  193.6990  172.2950  144.0410 C   0  0  1  0  0  3  0  0  0  0  0  0
  192.6310  174.1730  145.1070 C   0  0  0  0  0  0  0  0  0  0  0  0
  193.6100  174.8100  144.4680 C   0  0  0  0  0  0  0  0  0  0  0  0
  189.1260  176.5320  146.6570 C   0  0  0  0  0  3  0  0  0  0  0  0
  189.1290  175.0640  146.3890 C   0  0  0  0  0  2  0  0  0  0  0  0
  190.0980  177.1450  147.3290 C   0  0  0  0  0  3  0  0  0  0  0  0
  191.3340  176.4970  147.8060 C   0  0  0  0  0  3  0  0  0  0  0  0
  191.5850  174.8150  145.9400 C   0  0  0  0  0  0  0  0  0  0  0  0
  190.3070  174.6410  145.5750 C   0  0  0  0  0  3  0  0  0  0  0  0
  191.9720  175.4860  147.2060 C   0  0  0  0  0  3  0  0  0  0  0  0
  193.7370  176.2930  144.3470 C   0  0  0  0  0  2  0  0  0  0  0  0
  195.0810  176.6600  144.4670 O   0  0  0  0  0  1  0  0  0  0  0  0
  2  1  2  0  0  0  0
  3  5  1  0  0  0  0
  3  1  1  1  0  0  0
  4  3  1  0  0  0  0
  4  5  1  0  0  0  0
  5  6  1  6  0  0  0
  7  8  1  0  0  0  0
  7  6  1  0  0  0  0
  9 12  1  0  0  0  0
  9 14  1  0  0  0  0
 11  8  1  6  0  0  0
 11  9  1  0  0  0  0
 11 14  1  0  0  0  0
 13  9  1  0  0  0  0
 14 10  1  1  0  0  0
 14 15  1  0  0  0  0
 15 18  1  0  0  0  0
 18 16  2  0  0  0  0
 18 17  1  0  0  0  0
 19  2  1  0  0  0  0
 19 20  1  0  0  0  0
 21 20  1  0  0  0  0
 22 24  1  0  0  0  0
 22 26  1  0  0  0  0
 23 25  1  0  0  0  0
 24 21  1  6  0  0  0
 24 23  1  0  0  0  0
 25 31  1  0  0  0  0
 26 25  2  0  0  0  0
 27 29  2  0  0  0  0
 28 27  1  0  0  0  0
 29 30  1  0  0  0  0
 31 33  1  0  0  0  0
 32 31  2  0  0  0  0
 32 28  1  0  0  0  0
 33 30  2  0  0  0  0
 34 35  1  0  0  0  0
 34 26  1  0  0  0  0
M  END
>  <MODEL>
1

>  <REMARK>
 VINA RESULT:      -6.3      0.000      0.000
  Name = 
  13 active torsions:
  status: ('A' for Active; 'I' for Inactive)
    1  A    between atoms: N_1  and  C_17
    2  A    between atoms: C_2  and  C_30
    3  A    between atoms: C_9  and  N_25
    4  A    between atoms: C_10  and  C_24
    5  A    between atoms: C_10  and  N_32
    6  A    between atoms: C_12  and  C_18
    7  A    between atoms: C_12  and  N_25
    8  A    between atoms: C_13  and  C_33
    9  A    between atoms: C_18  and  C_21
   10  A    between atoms: C_23  and  C_26
   11  A    between atoms: C_23  and  C_27
   12  A    between atoms: C_29  and  C_31
   13  A    between atoms: N_32  and  C_33
                            x       y       z     vdW  Elec       q    Type
                         _______ _______ _______ _____ _____    ______ ____

>  <TORSDO>
F 13

$$$$
=
 OpenBabel11062422003D

 35 38  0  0  1  0  0  0  0  0999 V2000
  191.5550  171.5050  143.6340 N   0  0  0  0  0  0  0  0  0  0  0  0
  192.7580  171.3680  144.0840 C   0  0  0  0  0  3  0  0  0  0  0  0
  191.0730  172.7280  143.0410 C   0  0  1  0  0  3  0  0  0  0  0  0
  190.4260  172.4310  141.8270 O   0  0  0  0  0  0  0  0  0  0  0  0
  189.6010  172.6900  142.9360 C   0  0  2  0  0  3  0  0  0  0  0  0
  189.0640  174.1020  142.8400 C   0  0  0  0  0  2  0  0  0  0  0  0
  187.9860  174.1770  141.7750 C   0  0  0  0  0  2  0  0  0  0  0  0
  187.6380  175.5650  141.5160 N   0  0  0  0  0  2  0  0  0  0  0  0
  187.8960  177.6610  142.7940 C   0  0  0  0  0  0  0  0  0  0  0  0
  185.7450  177.6410  141.3690 C   0  0  0  0  0  1  0  0  0  0  0  0
  187.4280  176.2080  142.8100 C   0  0  1  0  0  3  0  0  0  0  0  0
  188.4060  178.1170  144.0120 O   0  0  0  0  0  1  0  0  0  0  0  0
  188.5530  178.0900  141.6340 O   0  0  0  0  0  1  0  0  0  0  0  0
  186.4110  177.3590  142.7140 C   0  0  1  0  0  0  0  0  0  0  0  0
  185.6130  177.6110  143.9890 C   0  0  0  0  0  2  0  0  0  0  0  0
  183.6220  178.9120  143.8150 O   0  0  0  0  0  0  0  0  0  0  0  0
  185.5740  180.1110  143.9750 O   0  0  0  0  0  1  0  0  0  0  0  0
  184.8770  178.9070  143.9110 C   0  0  0  0  0  0  0  0  0  0  0  0
  193.7810  172.4620  144.0260 C   0  0  0  0  0  2  0  0  0  0  0  0
  194.0520  172.9540  145.3640 N   0  0  0  0  0  2  0  0  0  0  0  0
  195.2330  173.7970  145.2670 C   0  0  0  0  0  2  0  0  0  0  0  0
  194.5180  176.0980  143.9720 S   0  0  0  0  0  0  0  0  0  0  0  0
  193.6420  175.2800  146.3480 N   0  0  0  0  0  2  0  0  0  0  0  0
  194.8560  175.2390  145.5510 C   0  0  1  0  0  3  0  0  0  0  0  0
  192.5270  175.8430  145.6720 C   0  0  0  0  0  0  0  0  0  0  0  0
  192.8020  176.2670  144.4400 C   0  0  0  0  0  0  0  0  0  0  0  0
  188.1460  175.6820  146.6880 C   0  0  0  0  0  3  0  0  0  0  0  0
  189.1570  174.6480  147.0560 C   0  0  0  0  0  2  0  0  0  0  0  0
  188.3490  176.9860  146.8650 C   0  0  0  0  0  3  0  0  0  0  0  0
  189.6080  177.5870  147.3460 C   0  0  0  0  0  3  0  0  0  0  0  0
  191.2010  175.9110  146.3320 C   0  0  0  0  0  0  0  0  0  0  0  0
  190.4340  174.8120  146.3000 C   0  0  0  0  0  3  0  0  0  0  0  0
  190.8400  177.1170  147.1180 C   0  0  0  0  0  3  0  0  0  0  0  0
  191.7910  176.7420  143.4480 C   0  0  0  0  0  2  0  0  0  0  0  0
  191.6280  178.1260  143.5710 O   0  0  0  0  0  1  0  0  0  0  0  0
  1  2  2  0  0  0  0
  3  1  1  1  0  0  0
  4  5  1  0  0  0  0
  4  3  1  0  0  0  0
  5  6  1  6  0  0  0
  5  3  1  0  0  0  0
  7  6  1  0  0  0  0
  8  7  1  0  0  0  0
  9 11  1  0  0  0  0
  9 12  1  0  0  0  0
 11  8  1  6  0  0  0
 13  9  1  0  0  0  0
 14 10  1  6  0  0  0
 14  9  1  0  0  0  0
 14 11  1  0  0  0  0
 14 15  1  0  0  0  0
 16 18  2  0  0  0  0
 18 17  1  0  0  0  0
 18 15  1  0  0  0  0
 19  2  1  0  0  0  0
 19 20  1  0  0  0  0
 21 20  1  0  0  0  0
 22 26  1  0  0  0  0
 22 24  1  0  0  0  0
 24 21  1  6  0  0  0
 24 23  1  0  0  0  0
 25 31  1  0  0  0  0
 25 23  1  0  0  0  0
 26 25  2  0  0  0  0
 27 29  2  0  0  0  0
 27 28  1  0  0  0  0
 29 30  1  0  0  0  0
 31 33  1  0  0  0  0
 32 31  2  0  0  0  0
 32 28  1  0  0  0  0
 33 30  2  0  0  0  0
 34 35  1  0  0  0  0
 34 26  1  0  0  0  0
M  END
>  <MODEL>
2

>  <REMARK>
 VINA RESULT:      -6.1      1.909      2.993
  Name = 
  13 active torsions:
  status: ('A' for Active; 'I' for Inactive)
    1  A    between atoms: N_1  and  C_17
    2  A    between atoms: C_2  and  C_30
    3  A    between atoms: C_9  and  N_25
    4  A    between atoms: C_10  and  C_24
    5  A    between atoms: C_10  and  N_32
    6  A    between atoms: C_12  and  C_18
    7  A    between atoms: C_12  and  N_25
    8  A    between atoms: C_13  and  C_33
    9  A    between atoms: C_18  and  C_21
   10  A    between atoms: C_23  and  C_26
   11  A    between atoms: C_23  and  C_27
   12  A    between atoms: C_29  and  C_31
   13  A    between atoms: N_32  and  C_33
                            x       y       z     vdW  Elec       q    Type
                         _______ _______ _______ _____ _____    ______ ____

>  <TORSDO>
F 13

$$$$
=
 OpenBabel11062422003D

 35 38  0  0  1  0  0  0  0  0999 V2000
  187.8180  175.9990  140.7450 N   0  0  0  0  0  0  0  0  0  0  0  0
  188.1770  174.7580  140.7190 C   0  0  0  0  0  3  0  0  0  0  0  0
  187.9080  176.8180  141.9280 C   0  0  1  0  0  3  0  0  0  0  0  0
  188.5820  178.0130  141.6150 O   0  0  0  0  0  0  0  0  0  0  0  0
  187.1820  178.0860  141.7180 C   0  0  2  0  0  3  0  0  0  0  0  0
  186.8110  178.6840  143.0580 C   0  0  0  0  0  2  0  0  0  0  0  0
  185.3060  178.8490  143.1540 C   0  0  0  0  0  2  0  0  0  0  0  0
  184.8460  178.4620  144.4780 N   0  0  0  0  0  2  0  0  0  0  0  0
  185.4020  178.8570  146.8510 C   0  0  0  0  0  0  0  0  0  0  0  0
  185.3260  176.3450  146.2680 C   0  0  0  0  0  1  0  0  0  0  0  0
  185.9200  178.7710  145.4170 C   0  0  1  0  0  3  0  0  0  0  0  0
  186.0750  179.7810  147.6540 O   0  0  0  0  0  1  0  0  0  0  0  0
  184.0150  178.7680  147.0170 O   0  0  0  0  0  1  0  0  0  0  0  0
  186.1580  177.6180  146.4090 C   0  0  1  0  0  0  0  0  0  0  0  0
  187.5910  177.4990  146.9150 C   0  0  0  0  0  2  0  0  0  0  0  0
  188.5980  176.2090  145.1810 O   0  0  0  0  0  0  0  0  0  0  0  0
  188.4860  175.1870  147.2340 O   0  0  0  0  0  1  0  0  0  0  0  0
  188.2440  176.2640  146.3870 C   0  0  0  0  0  0  0  0  0  0  0  0
  188.7340  174.0450  141.9140 C   0  0  0  0  0  2  0  0  0  0  0  0
  189.2710  172.7580  141.5130 N   0  0  0  0  0  2  0  0  0  0  0  0
  189.3020  171.9270  142.7050 C   0  0  0  0  0  2  0  0  0  0  0  0
  191.8250  172.0780  141.6620 S   0  0  0  0  0  0  0  0  0  0  0  0
  191.1600  172.2640  144.2320 N   0  0  0  0  0  2  0  0  0  0  0  0
  190.7350  171.5580  143.0350 C   0  0  1  0  0  3  0  0  0  0  0  0
  192.1830  173.2220  144.0030 C   0  0  0  0  0  0  0  0  0  0  0  0
  192.5990  173.2750  142.7400 C   0  0  0  0  0  0  0  0  0  0  0  0
  193.1200  176.5580  146.8740 C   0  0  0  0  0  3  0  0  0  0  0  0
  192.1070  175.4840  147.0980 C   0  0  0  0  0  2  0  0  0  0  0  0
  194.3540  176.3080  146.4420 C   0  0  0  0  0  3  0  0  0  0  0  0
  194.8550  174.9810  146.0370 C   0  0  0  0  0  3  0  0  0  0  0  0
  192.6920  174.0620  145.1150 C   0  0  0  0  0  0  0  0  0  0  0  0
  191.7920  174.7360  145.8450 C   0  0  0  0  0  3  0  0  0  0  0  0
  194.1330  174.0100  145.4670 C   0  0  0  0  0  3  0  0  0  0  0  0
  193.5370  174.2960  142.1850 C   0  0  0  0  0  2  0  0  0  0  0  0
  192.8280  175.4560  141.8550 O   0  0  0  0  0  1  0  0  0  0  0  0
  2  1  2  0  0  0  0
  2 19  1  0  0  0  0
  3  1  1  6  0  0  0
  4  5  1  0  0  0  0
  4  3  1  0  0  0  0
  5  3  1  0  0  0  0
  5  6  1  1  0  0  0
  6  7  1  0  0  0  0
  7  8  1  0  0  0  0
  9 13  1  0  0  0  0
  9 12  1  0  0  0  0
 11  8  1  6  0  0  0
 11 14  1  0  0  0  0
 11  9  1  0  0  0  0
 14 10  1  6  0  0  0
 14  9  1  0  0  0  0
 14 15  1  0  0  0  0
 16 18  2  0  0  0  0
 18 15  1  0  0  0  0
 18 17  1  0  0  0  0
 20 19  1  0  0  0  0
 20 21  1  0  0  0  0
 22 26  1  0  0  0  0
 22 24  1  0  0  0  0
 24 21  1  6  0  0  0
 24 23  1  0  0  0  0
 25 23  1  0  0  0  0
 25 31  1  0  0  0  0
 26 25  2  0  0  0  0
 27 28  1  0  0  0  0
 29 27  2  0  0  0  0
 30 29  1  0  0  0  0
 31 33  1  0  0  0  0
 31 32  2  0  0  0  0
 32 28  1  0  0  0  0
 33 30  2  0  0  0  0
 34 26  1  0  0  0  0
 35 34  1  0  0  0  0
M  END
>  <MODEL>
3

>  <REMARK>
 VINA RESULT:      -6.0      1.946      3.212
  Name = 
  13 active torsions:
  status: ('A' for Active; 'I' for Inactive)
    1  A    between atoms: N_1  and  C_17
    2  A    between atoms: C_2  and  C_30
    3  A    between atoms: C_9  and  N_25
    4  A    between atoms: C_10  and  C_24
    5  A    between atoms: C_10  and  N_32
    6  A    between atoms: C_12  and  C_18
    7  A    between atoms: C_12  and  N_25
    8  A    between atoms: C_13  and  C_33
    9  A    between atoms: C_18  and  C_21
   10  A    between atoms: C_23  and  C_26
   11  A    between atoms: C_23  and  C_27
   12  A    between atoms: C_29  and  C_31
   13  A    between atoms: N_32  and  C_33
                            x       y       z     vdW  Elec       q    Type
                         _______ _______ _______ _____ _____    ______ ____

>  <TORSDO>
F 13

$$$$
=
 OpenBabel11062422003D

 35 38  0  0  1  0  0  0  0  0999 V2000
  191.5110  173.1080  140.7950 N   0  0  0  0  0  0  0  0  0  0  0  0
  190.6070  173.4540  139.9410 C   0  0  0  0  0  3  0  0  0  0  0  0
  191.2020  172.4770  142.0550 C   0  0  1  0  0  3  0  0  0  0  0  0
  191.6600  171.1470  142.0310 O   0  0  0  0  0  0  0  0  0  0  0  0
  192.4490  172.0740  142.7350 C   0  0  2  0  0  3  0  0  0  0  0  0
  192.1900  171.9260  144.2190 C   0  0  0  0  0  2  0  0  0  0  0  0
  193.2720  172.6390  145.0080 C   0  0  0  0  0  2  0  0  0  0  0  0
  193.3020  174.0490  144.6510 N   0  0  0  0  0  2  0  0  0  0  0  0
  193.5330  176.2560  145.7320 C   0  0  0  0  0  0  0  0  0  0  0  0
  191.4180  176.1010  144.2620 C   0  0  0  0  0  1  0  0  0  0  0  0
  193.0610  174.8110  145.8730 C   0  0  1  0  0  3  0  0  0  0  0  0
  194.0140  176.8250  146.9140 O   0  0  0  0  0  1  0  0  0  0  0  0
  194.2190  176.5740  144.5540 O   0  0  0  0  0  1  0  0  0  0  0  0
  192.0500  175.9480  145.6440 C   0  0  1  0  0  0  0  0  0  0  0  0
  191.2220  176.3190  146.8690 C   0  0  0  0  0  2  0  0  0  0  0  0
  189.0940  175.2880  146.5550 O   0  0  0  0  0  1  0  0  0  0  0  0
  189.1450  177.5630  146.2460 O   0  0  0  0  0  0  0  0  0  0  0  0
  189.7660  176.3530  146.5400 C   0  0  0  0  0  0  0  0  0  0  0  0
  189.1430  173.2240  140.1640 C   0  0  0  0  0  2  0  0  0  0  0  0
  188.4470  174.4970  140.2150 N   0  0  0  0  0  2  0  0  0  0  0  0
  188.2770  174.8250  141.6210 C   0  0  0  0  0  2  0  0  0  0  0  0
  187.1030  177.0980  140.6530 S   0  0  0  0  0  0  0  0  0  0  0  0
  187.8990  176.6680  143.1560 N   0  0  0  0  0  2  0  0  0  0  0  0
  188.3020  176.3300  141.8010 C   0  0  1  0  0  3  0  0  0  0  0  0
  186.6660  177.3690  143.2320 C   0  0  0  0  0  0  0  0  0  0  0  0
  186.1170  177.6260  142.0470 C   0  0  0  0  0  0  0  0  0  0  0  0
  185.8370  179.1340  147.2880 C   0  0  0  0  0  3  0  0  0  0  0  0
  185.2320  179.5960  146.0040 C   0  0  0  0  0  2  0  0  0  0  0  0
  185.9040  177.8510  147.6340 C   0  0  0  0  0  3  0  0  0  0  0  0
  185.4920  176.7220  146.7780 C   0  0  0  0  0  3  0  0  0  0  0  0
  186.0920  177.7430  144.5480 C   0  0  0  0  0  0  0  0  0  0  0  0
  185.9470  179.0490  144.8140 C   0  0  0  0  0  3  0  0  0  0  0  0
  185.5700  176.6800  145.4430 C   0  0  0  0  0  3  0  0  0  0  0  0
  184.7530  178.1950  141.8360 C   0  0  0  0  0  2  0  0  0  0  0  0
  184.4140  178.1110  140.4810 O   0  0  0  0  0  1  0  0  0  0  0  0
  2 19  1  0  0  0  0
  2  1  2  0  0  0  0
  3  1  1  6  0  0  0
  3  5  1  0  0  0  0
  4  3  1  0  0  0  0
  4  5  1  0  0  0  0
  5  6  1  1  0  0  0
  6  7  1  0  0  0  0
  8  7  1  0  0  0  0
  9 11  1  0  0  0  0
  9 12  1  0  0  0  0
 11  8  1  6  0  0  0
 13  9  1  0  0  0  0
 14 10  1  6  0  0  0
 14  9  1  0  0  0  0
 14 11  1  0  0  0  0
 14 15  1  0  0  0  0
 17 18  2  0  0  0  0
 18 16  1  0  0  0  0
 18 15  1  0  0  0  0
 19 20  1  0  0  0  0
 20 21  1  0  0  0  0
 22 24  1  0  0  0  0
 22 26  1  0  0  0  0
 23 25  1  0  0  0  0
 24 21  1  1  0  0  0
 24 23  1  0  0  0  0
 25 31  1  0  0  0  0
 26 25  2  0  0  0  0
 27 29  2  0  0  0  0
 28 27  1  0  0  0  0
 30 29  1  0  0  0  0
 31 32  2  0  0  0  0
 31 33  1  0  0  0  0
 32 28  1  0  0  0  0
 33 30  2  0  0  0  0
 34 26  1  0  0  0  0
 35 34  1  0  0  0  0
M  END
>  <MODEL>
4

>  <REMARK>
 VINA RESULT:      -5.9      2.512      6.744
  Name = 
  13 active torsions:
  status: ('A' for Active; 'I' for Inactive)
    1  A    between atoms: N_1  and  C_17
    2  A    between atoms: C_2  and  C_30
    3  A    between atoms: C_9  and  N_25
    4  A    between atoms: C_10  and  C_24
    5  A    between atoms: C_10  and  N_32
    6  A    between atoms: C_12  and  C_18
    7  A    between atoms: C_12  and  N_25
    8  A    between atoms: C_13  and  C_33
    9  A    between atoms: C_18  and  C_21
   10  A    between atoms: C_23  and  C_26
   11  A    between atoms: C_23  and  C_27
   12  A    between atoms: C_29  and  C_31
   13  A    between atoms: N_32  and  C_33
                            x       y       z     vdW  Elec       q    Type
                         _______ _______ _______ _____ _____    ______ ____

>  <TORSDO>
F 13

$$$$
=
 OpenBabel11062422003D

 35 38  0  0  1  0  0  0  0  0999 V2000
  190.5330  170.9270  141.7530 N   0  0  0  0  0  0  0  0  0  0  0  0
  191.7290  170.4510  141.8580 C   0  0  0  0  0  3  0  0  0  0  0  0
  190.1960  172.2860  142.0960 C   0  0  1  0  0  3  0  0  0  0  0  0
  190.2590  173.0850  140.9390 O   0  0  0  0  0  0  0  0  0  0  0  0
  188.9780  172.7000  141.3700 C   0  0  2  0  0  3  0  0  0  0  0  0
  188.3270  173.8580  142.0970 C   0  0  0  0  0  2  0  0  0  0  0  0
  188.2280  175.0590  141.1750 C   0  0  0  0  0  2  0  0  0  0  0  0
  187.5080  176.1360  141.8360 N   0  0  0  0  0  2  0  0  0  0  0  0
  188.9520  177.6160  143.1840 C   0  0  0  0  0  0  0  0  0  0  0  0
  186.4950  178.4050  143.1560 C   0  0  0  0  0  1  0  0  0  0  0  0
  188.1290  176.3320  143.1440 C   0  0  1  0  0  3  0  0  0  0  0  0
  190.0800  177.5550  144.0070 O   0  0  0  0  0  1  0  0  0  0  0  0
  189.0920  178.3040  141.9730 O   0  0  0  0  0  1  0  0  0  0  0  0
  187.5880  177.5900  143.8470 C   0  0  1  0  0  0  0  0  0  0  0  0
  187.5900  177.5180  145.3700 C   0  0  0  0  0  2  0  0  0  0  0  0
  185.3910  176.7700  145.9080 O   0  0  0  0  0  0  0  0  0  0  0  0
  185.8560  178.9490  146.4620 O   0  0  0  0  0  1  0  0  0  0  0  0
  186.2160  177.7210  145.9170 C   0  0  0  0  0  0  0  0  0  0  0  0
  192.8930  171.2660  142.3360 C   0  0  0  0  0  2  0  0  0  0  0  0
  193.3140  170.8020  143.6450 N   0  0  0  0  0  2  0  0  0  0  0  0
  194.7480  171.0250  143.7260 C   0  0  0  0  0  2  0  0  0  0  0  0
  195.9090  173.4680  144.1350 S   0  0  0  0  0  0  0  0  0  0  0  0
  193.8090  172.4750  145.4330 N   0  0  0  0  0  2  0  0  0  0  0  0
  195.0500  172.0130  144.8370 C   0  0  1  0  0  3  0  0  0  0  0  0
  193.5410  173.8520  145.2150 C   0  0  0  0  0  0  0  0  0  0  0  0
  194.4950  174.4850  144.5350 C   0  0  0  0  0  0  0  0  0  0  0  0
  190.0900  175.3040  147.7120 C   0  0  0  0  0  3  0  0  0  0  0  0
  191.2570  176.1310  147.2860 C   0  0  0  0  0  2  0  0  0  0  0  0
  189.4190  174.5160  146.8740 C   0  0  0  0  0  3  0  0  0  0  0  0
  189.7830  174.2770  145.4650 C   0  0  0  0  0  3  0  0  0  0  0  0
  192.2880  174.4660  145.7170 C   0  0  0  0  0  0  0  0  0  0  0  0
  192.3800  175.2970  146.7650 C   0  0  0  0  0  3  0  0  0  0  0  0
  191.0240  174.2610  144.9660 C   0  0  0  0  0  3  0  0  0  0  0  0
  194.4010  175.8850  144.0220 C   0  0  0  0  0  2  0  0  0  0  0  0
  195.3340  176.6910  144.6830 O   0  0  0  0  0  1  0  0  0  0  0  0
  1  2  2  0  0  0  0
  2 19  1  0  0  0  0
  3  1  1  6  0  0  0
  4  5  1  0  0  0  0
  4  3  1  0  0  0  0
  5  3  1  0  0  0  0
  5  6  1  1  0  0  0
  7  8  1  0  0  0  0
  7  6  1  0  0  0  0
  9 14  1  0  0  0  0
  9 12  1  0  0  0  0
 11  8  1  6  0  0  0
 11  9  1  0  0  0  0
 11 14  1  0  0  0  0
 13  9  1  0  0  0  0
 14 10  1  6  0  0  0
 14 15  1  0  0  0  0
 15 18  1  0  0  0  0
 16 18  2  0  0  0  0
 18 17  1  0  0  0  0
 19 20  1  0  0  0  0
 20 21  1  0  0  0  0
 22 26  1  0  0  0  0
 22 24  1  0  0  0  0
 24 21  1  6  0  0  0
 24 23  1  0  0  0  0
 25 23  1  0  0  0  0
 25 31  1  0  0  0  0
 26 25  2  0  0  0  0
 28 27  1  0  0  0  0
 29 27  2  0  0  0  0
 30 29  1  0  0  0  0
 31 32  2  0  0  0  0
 32 28  1  0  0  0  0
 33 30  2  0  0  0  0
 33 31  1  0  0  0  0
 34 26  1  0  0  0  0
 34 35  1  0  0  0  0
M  END
>  <MODEL>
5

>  <REMARK>
 VINA RESULT:      -5.8      1.611      2.598
  Name = 
  13 active torsions:
  status: ('A' for Active; 'I' for Inactive)
    1  A    between atoms: N_1  and  C_17
    2  A    between atoms: C_2  and  C_30
    3  A    between atoms: C_9  and  N_25
    4  A    between atoms: C_10  and  C_24
    5  A    between atoms: C_10  and  N_32
    6  A    between atoms: C_12  and  C_18
    7  A    between atoms: C_12  and  N_25
    8  A    between atoms: C_13  and  C_33
    9  A    between atoms: C_18  and  C_21
   10  A    between atoms: C_23  and  C_26
   11  A    between atoms: C_23  and  C_27
   12  A    between atoms: C_29  and  C_31
   13  A    between atoms: N_32  and  C_33
                            x       y       z     vdW  Elec       q    Type
                         _______ _______ _______ _____ _____    ______ ____

>  <TORSDO>
F 13

$$$$
=
 OpenBabel11062422003D

 35 38  0  0  1  0  0  0  0  0999 V2000
  188.7890  172.2510  142.5690 N   0  0  0  0  0  0  0  0  0  0  0  0
  187.9770  172.8930  141.7970 C   0  0  0  0  0  3  0  0  0  0  0  0
  190.2070  172.5090  142.6060 C   0  0  1  0  0  3  0  0  0  0  0  0
  190.4970  173.3460  143.7000 O   0  0  0  0  0  0  0  0  0  0  0  0
  190.7820  171.9790  143.8590 C   0  0  2  0  0  3  0  0  0  0  0  0
  192.2680  171.7530  143.6770 C   0  0  0  0  0  2  0  0  0  0  0  0
  193.0490  172.6760  144.5940 C   0  0  0  0  0  2  0  0  0  0  0  0
  193.7970  173.6430  143.8060 N   0  0  0  0  0  2  0  0  0  0  0  0
  194.7330  175.9260  143.8980 C   0  0  0  0  0  0  0  0  0  0  0  0
  192.6020  175.7980  142.4480 C   0  0  0  0  0  1  0  0  0  0  0  0
  193.8560  174.8800  144.5810 C   0  0  1  0  0  3  0  0  0  0  0  0
  195.4180  176.7690  144.7760 O   0  0  0  0  0  1  0  0  0  0  0  0
  195.4260  175.5060  142.7560 O   0  0  0  0  0  1  0  0  0  0  0  0
  193.2240  176.0580  143.8190 C   0  0  1  0  0  0  0  0  0  0  0  0
  192.6040  177.1310  144.7070 C   0  0  0  0  0  2  0  0  0  0  0  0
  190.5090  176.1380  145.2630 O   0  0  0  0  0  1  0  0  0  0  0  0
  190.3910  178.0450  143.9890 O   0  0  0  0  0  0  0  0  0  0  0  0
  191.1140  177.0660  144.6640 C   0  0  0  0  0  0  0  0  0  0  0  0
  188.4230  173.9810  140.8670 C   0  0  0  0  0  2  0  0  0  0  0  0
  188.0900  175.2760  141.4290 N   0  0  0  0  0  2  0  0  0  0  0  0
  187.4950  176.0570  140.3570 C   0  0  0  0  0  2  0  0  0  0  0  0
  185.5740  178.0000  140.4680 S   0  0  0  0  0  0  0  0  0  0  0  0
  187.5040  177.5770  142.2500 N   0  0  0  0  0  2  0  0  0  0  0  0
  187.2950  177.4880  140.8150 C   0  0  1  0  0  3  0  0  0  0  0  0
  186.3330  177.9030  142.9840 C   0  0  0  0  0  0  0  0  0  0  0  0
  185.2600  178.1070  142.2240 C   0  0  0  0  0  0  0  0  0  0  0  0
  186.1580  177.0700  147.4030 C   0  0  0  0  0  3  0  0  0  0  0  0
  187.4020  177.1170  146.5810 C   0  0  0  0  0  2  0  0  0  0  0  0
  185.2100  178.0030  147.3340 C   0  0  0  0  0  3  0  0  0  0  0  0
  185.2080  179.1350  146.3880 C   0  0  0  0  0  3  0  0  0  0  0  0
  186.3680  177.9820  144.4650 C   0  0  0  0  0  0  0  0  0  0  0  0
  187.1140  177.0780  145.1170 C   0  0  0  0  0  3  0  0  0  0  0  0
  185.7140  179.1250  145.1500 C   0  0  0  0  0  3  0  0  0  0  0  0
  183.8680  178.2970  142.7330 C   0  0  0  0  0  2  0  0  0  0  0  0
  182.9650  178.2200  141.6680 O   0  0  0  0  0  1  0  0  0  0  0  0
  2  1  2  0  0  0  0
  3  1  1  1  0  0  0
  3  4  1  0  0  0  0
  3  5  1  0  0  0  0
  4  5  1  0  0  0  0
  5  6  1  6  0  0  0
  6  7  1  0  0  0  0
  8  7  1  0  0  0  0
  9 11  1  0  0  0  0
  9 12  1  0  0  0  0
 11  8  1  6  0  0  0
 13  9  1  0  0  0  0
 14 10  1  6  0  0  0
 14  9  1  0  0  0  0
 14 11  1  0  0  0  0
 14 15  1  0  0  0  0
 17 18  2  0  0  0  0
 18 15  1  0  0  0  0
 18 16  1  0  0  0  0
 19 20  1  0  0  0  0
 19  2  1  0  0  0  0
 21 20  1  0  0  0  0
 22 24  1  0  0  0  0
 22 26  1  0  0  0  0
 23 25  1  0  0  0  0
 24 21  1  1  0  0  0
 24 23  1  0  0  0  0
 25 31  1  0  0  0  0
 26 34  1  0  0  0  0
 26 25  2  0  0  0  0
 28 27  1  0  0  0  0
 29 27  2  0  0  0  0
 30 29  1  0  0  0  0
 31 32  2  0  0  0  0
 31 33  1  0  0  0  0
 32 28  1  0  0  0  0
 33 30  2  0  0  0  0
 35 34  1  0  0  0  0
M  END
>  <MODEL>
6

>  <REMARK>
 VINA RESULT:      -5.8      2.908      7.304
  Name = 
  13 active torsions:
  status: ('A' for Active; 'I' for Inactive)
    1  A    between atoms: N_1  and  C_17
    2  A    between atoms: C_2  and  C_30
    3  A    between atoms: C_9  and  N_25
    4  A    between atoms: C_10  and  C_24
    5  A    between atoms: C_10  and  N_32
    6  A    between atoms: C_12  and  C_18
    7  A    between atoms: C_12  and  N_25
    8  A    between atoms: C_13  and  C_33
    9  A    between atoms: C_18  and  C_21
   10  A    between atoms: C_23  and  C_26
   11  A    between atoms: C_23  and  C_27
   12  A    between atoms: C_29  and  C_31
   13  A    between atoms: N_32  and  C_33
                            x       y       z     vdW  Elec       q    Type
                         _______ _______ _______ _____ _____    ______ ____

>  <TORSDO>
F 13

$$$$
=
 OpenBabel11062422003D

 35 38  0  0  1  0  0  0  0  0999 V2000
  188.9420  172.4230  142.6470 N   0  0  0  0  0  0  0  0  0  0  0  0
  188.2920  173.0950  141.7550 C   0  0  0  0  0  3  0  0  0  0  0  0
  189.8960  173.0270  143.5440 C   0  0  1  0  0  3  0  0  0  0  0  0
  189.8020  172.4100  144.8050 O   0  0  0  0  0  0  0  0  0  0  0  0
  190.8770  172.0170  143.9880 C   0  0  2  0  0  3  0  0  0  0  0  0
  192.1390  172.7110  144.4570 C   0  0  0  0  0  2  0  0  0  0  0  0
  193.2410  171.6910  144.6750 C   0  0  0  0  0  2  0  0  0  0  0  0
  194.5290  172.3620  144.7610 N   0  0  0  0  0  2  0  0  0  0  0  0
  195.3650  174.5890  145.4190 C   0  0  0  0  0  0  0  0  0  0  0  0
  196.4870  173.7190  143.2640 C   0  0  0  0  0  1  0  0  0  0  0  0
  194.2750  173.7980  144.7000 C   0  0  1  0  0  3  0  0  0  0  0  0
  194.9190  175.7630  146.0310 O   0  0  0  0  0  1  0  0  0  0  0  0
  196.3220  173.8400  146.1130 O   0  0  0  0  0  1  0  0  0  0  0  0
  195.3650  174.5350  143.9020 C   0  0  1  0  0  0  0  0  0  0  0  0
  194.8900  175.7990  143.1930 C   0  0  0  0  0  2  0  0  0  0  0  0
  196.1860  176.7000  141.4060 O   0  0  0  0  0  0  0  0  0  0  0  0
  196.9490  177.1790  143.5180 O   0  0  0  0  0  1  0  0  0  0  0  0
  196.0450  176.5730  142.6510 C   0  0  0  0  0  0  0  0  0  0  0  0
  188.4530  174.5730  141.5680 C   0  0  0  0  0  2  0  0  0  0  0  0
  187.4900  175.2810  142.3900 N   0  0  0  0  0  2  0  0  0  0  0  0
  187.1610  176.5090  141.6840 C   0  0  0  0  0  2  0  0  0  0  0  0
  186.1700  178.4940  143.2840 S   0  0  0  0  0  0  0  0  0  0  0  0
  188.5160  177.2660  143.5520 N   0  0  0  0  0  2  0  0  0  0  0  0
  187.6200  177.7050  142.4960 C   0  0  1  0  0  3  0  0  0  0  0  0
  187.9950  177.4450  144.8610 C   0  0  0  0  0  0  0  0  0  0  0  0
  186.7950  178.0190  144.8900 C   0  0  0  0  0  0  0  0  0  0  0  0
  191.1920  176.5330  147.8940 C   0  0  0  0  0  3  0  0  0  0  0  0
  190.2450  177.6840  147.9570 C   0  0  0  0  0  2  0  0  0  0  0  0
  190.8000  175.2880  147.6300 C   0  0  0  0  0  3  0  0  0  0  0  0
  189.4240  174.8940  147.2730 C   0  0  0  0  0  3  0  0  0  0  0  0
  188.7680  177.0010  146.0470 C   0  0  0  0  0  0  0  0  0  0  0  0
  189.5420  177.9090  146.6590 C   0  0  0  0  0  3  0  0  0  0  0  0
  188.5460  175.6390  146.5920 C   0  0  0  0  0  3  0  0  0  0  0  0
  185.9440  178.1750  146.1080 C   0  0  0  0  0  2  0  0  0  0  0  0
  184.6200  178.4180  145.7270 O   0  0  0  0  0  1  0  0  0  0  0  0
  2  1  2  0  0  0  0
  3  1  1  6  0  0  0
  3  5  1  0  0  0  0
  3  4  1  0  0  0  0
  5  6  1  1  0  0  0
  5  4  1  0  0  0  0
  6  7  1  0  0  0  0
  7  8  1  0  0  0  0
  9 12  1  0  0  0  0
  9 13  1  0  0  0  0
 11  8  1  1  0  0  0
 11  9  1  0  0  0  0
 14 10  1  6  0  0  0
 14 11  1  0  0  0  0
 14  9  1  0  0  0  0
 15 14  1  0  0  0  0
 16 18  2  0  0  0  0
 18 15  1  0  0  0  0
 18 17  1  0  0  0  0
 19  2  1  0  0  0  0
 19 20  1  0  0  0  0
 21 20  1  0  0  0  0
 22 26  1  0  0  0  0
 23 25  1  0  0  0  0
 24 21  1  1  0  0  0
 24 22  1  0  0  0  0
 24 23  1  0  0  0  0
 25 26  2  0  0  0  0
 25 31  1  0  0  0  0
 26 34  1  0  0  0  0
 27 28  1  0  0  0  0
 29 27  2  0  0  0  0
 30 29  1  0  0  0  0
 31 33  1  0  0  0  0
 31 32  2  0  0  0  0
 32 28  1  0  0  0  0
 33 30  2  0  0  0  0
 35 34  1  0  0  0  0
M  END
>  <MODEL>
7

>  <REMARK>
 VINA RESULT:      -5.7      2.542      7.886
  Name = 
  13 active torsions:
  status: ('A' for Active; 'I' for Inactive)
    1  A    between atoms: N_1  and  C_17
    2  A    between atoms: C_2  and  C_30
    3  A    between atoms: C_9  and  N_25
    4  A    between atoms: C_10  and  C_24
    5  A    between atoms: C_10  and  N_32
    6  A    between atoms: C_12  and  C_18
    7  A    between atoms: C_12  and  N_25
    8  A    between atoms: C_13  and  C_33
    9  A    between atoms: C_18  and  C_21
   10  A    between atoms: C_23  and  C_26
   11  A    between atoms: C_23  and  C_27
   12  A    between atoms: C_29  and  C_31
   13  A    between atoms: N_32  and  C_33
                            x       y       z     vdW  Elec       q    Type
                         _______ _______ _______ _____ _____    ______ ____

>  <TORSDO>
F 13

$$$$
=
 OpenBabel11062422003D

 35 38  0  0  1  0  0  0  0  0999 V2000
  192.9500  176.3700  146.9780 N   0  0  0  0  0  0  0  0  0  0  0  0
  194.0880  176.7870  146.5330 C   0  0  0  0  0  3  0  0  0  0  0  0
  191.8530  176.0090  146.1130 C   0  0  1  0  0  3  0  0  0  0  0  0
  191.6710  174.6140  146.1530 O   0  0  0  0  0  0  0  0  0  0  0  0
  190.7720  175.3900  146.9050 C   0  0  2  0  0  3  0  0  0  0  0  0
  189.4630  175.5080  146.1520 C   0  0  0  0  0  2  0  0  0  0  0  0
  188.3210  175.7200  147.1270 C   0  0  0  0  0  2  0  0  0  0  0  0
  187.7050  177.0180  146.8980 N   0  0  0  0  0  2  0  0  0  0  0  0
  185.6580  178.0760  146.0130 C   0  0  0  0  0  0  0  0  0  0  0  0
  187.6490  178.2790  144.3840 C   0  0  0  0  0  1  0  0  0  0  0  0
  186.4470  176.7820  146.1950 C   0  0  1  0  0  3  0  0  0  0  0  0
  184.2710  177.9160  146.0420 O   0  0  0  0  0  1  0  0  0  0  0  0
  186.1750  179.2140  146.6440 O   0  0  0  0  0  1  0  0  0  0  0  0
  186.4150  177.4980  144.8320 C   0  0  1  0  0  0  0  0  0  0  0  0
  185.5640  176.8090  143.7720 C   0  0  0  0  0  2  0  0  0  0  0  0
  184.6810  178.6790  142.5850 O   0  0  0  0  0  1  0  0  0  0  0  0
  186.1430  177.3610  141.4040 O   0  0  0  0  0  0  0  0  0  0  0  0
  185.4260  177.6650  142.5570 C   0  0  0  0  0  0  0  0  0  0  0  0
  194.3910  176.9280  145.0720 C   0  0  0  0  0  2  0  0  0  0  0  0
  195.2740  175.8580  144.6470 N   0  0  0  0  0  2  0  0  0  0  0  0
  195.6390  176.1400  143.2680 C   0  0  0  0  0  2  0  0  0  0  0  0
  195.1700  173.4460  143.3220 S   0  0  0  0  0  0  0  0  0  0  0  0
  193.8070  175.2630  141.9360 N   0  0  0  0  0  2  0  0  0  0  0  0
  195.1690  175.0090  142.3730 C   0  0  1  0  0  3  0  0  0  0  0  0
  192.8570  174.3370  142.4440 C   0  0  0  0  0  0  0  0  0  0  0  0
  193.3890  173.3790  143.1990 C   0  0  0  0  0  0  0  0  0  0  0  0
  188.3890  174.8500  142.6020 C   0  0  0  0  0  3  0  0  0  0  0  0
  189.3740  175.9360  142.3230 C   0  0  0  0  0  2  0  0  0  0  0  0
  188.4370  173.6600  142.0070 C   0  0  0  0  0  3  0  0  0  0  0  0
  189.5000  173.2200  141.0840 C   0  0  0  0  0  3  0  0  0  0  0  0
  191.4150  174.4880  142.1310 C   0  0  0  0  0  0  0  0  0  0  0  0
  190.7700  175.5340  142.6680 C   0  0  0  0  0  3  0  0  0  0  0  0
  190.7860  173.5840  141.1370 C   0  0  0  0  0  3  0  0  0  0  0  0
  192.6140  172.3790  143.9930 C   0  0  0  0  0  2  0  0  0  0  0  0
  193.4080  171.8900  145.0350 O   0  0  0  0  0  1  0  0  0  0  0  0
  2  1  2  0  0  0  0
  3  4  1  0  0  0  0
  3  5  1  0  0  0  0
  3  1  1  1  0  0  0
  4  5  1  0  0  0  0
  5  6  1  6  0  0  0
  6  7  1  0  0  0  0
  8  7  1  0  0  0  0
  9 12  1  0  0  0  0
  9 11  1  0  0  0  0
  9 13  1  0  0  0  0
 11  8  1  1  0  0  0
 14 10  1  6  0  0  0
 14  9  1  0  0  0  0
 14 11  1  0  0  0  0
 15 14  1  0  0  0  0
 17 18  2  0  0  0  0
 18 16  1  0  0  0  0
 18 15  1  0  0  0  0
 19  2  1  0  0  0  0
 20 19  1  0  0  0  0
 21 20  1  0  0  0  0
 23 24  1  0  0  0  0
 23 25  1  0  0  0  0
 24 21  1  1  0  0  0
 24 22  1  0  0  0  0
 25 26  2  0  0  0  0
 26 22  1  0  0  0  0
 26 34  1  0  0  0  0
 28 27  1  0  0  0  0
 28 32  1  0  0  0  0
 29 27  2  0  0  0  0
 30 33  2  0  0  0  0
 30 29  1  0  0  0  0
 31 25  1  0  0  0  0
 31 32  2  0  0  0  0
 33 31  1  0  0  0  0
 34 35  1  0  0  0  0
M  END
>  <MODEL>
8

>  <REMARK>
 VINA RESULT:      -5.7      2.322      4.803
  Name = 
  13 active torsions:
  status: ('A' for Active; 'I' for Inactive)
    1  A    between atoms: N_1  and  C_17
    2  A    between atoms: C_2  and  C_30
    3  A    between atoms: C_9  and  N_25
    4  A    between atoms: C_10  and  C_24
    5  A    between atoms: C_10  and  N_32
    6  A    between atoms: C_12  and  C_18
    7  A    between atoms: C_12  and  N_25
    8  A    between atoms: C_13  and  C_33
    9  A    between atoms: C_18  and  C_21
   10  A    between atoms: C_23  and  C_26
   11  A    between atoms: C_23  and  C_27
   12  A    between atoms: C_29  and  C_31
   13  A    between atoms: N_32  and  C_33
                            x       y       z     vdW  Elec       q    Type
                         _______ _______ _______ _____ _____    ______ ____

>  <TORSDO>
F 13

$$$$
=
 OpenBabel11062422003D

 35 38  0  0  1  0  0  0  0  0999 V2000
  190.3160  171.6390  140.2440 N   0  0  0  0  0  0  0  0  0  0  0  0
  189.5480  172.2890  139.4350 C   0  0  0  0  0  3  0  0  0  0  0  0
  190.1860  171.7120  141.6790 C   0  0  1  0  0  3  0  0  0  0  0  0
  190.2950  170.4170  142.2200 O   0  0  0  0  0  0  0  0  0  0  0  0
  191.4300  171.2400  142.3200 C   0  0  2  0  0  3  0  0  0  0  0  0
  191.5170  171.8010  143.7240 C   0  0  0  0  0  2  0  0  0  0  0  0
  192.8810  171.5020  144.3180 C   0  0  0  0  0  2  0  0  0  0  0  0
  193.4470  172.7100  144.8980 N   0  0  0  0  0  2  0  0  0  0  0  0
  193.5220  175.0270  144.0490 C   0  0  0  0  0  0  0  0  0  0  0  0
  195.4640  174.5130  145.6690 C   0  0  0  0  0  1  0  0  0  0  0  0
  193.8720  173.5640  143.7920 C   0  0  1  0  0  3  0  0  0  0  0  0
  193.2110  175.7590  142.9010 O   0  0  0  0  0  1  0  0  0  0  0  0
  192.7580  175.2930  145.1920 O   0  0  0  0  0  1  0  0  0  0  0  0
  194.9560  174.5640  144.2300 C   0  0  1  0  0  0  0  0  0  0  0  0
  195.9280  174.9720  143.1280 C   0  0  0  0  0  2  0  0  0  0  0  0
  197.7600  176.4920  142.9980 O   0  0  0  0  0  0  0  0  0  0  0  0
  195.9910  177.1850  144.2870 O   0  0  0  0  0  1  0  0  0  0  0  0
  196.6190  176.2500  143.4710 C   0  0  0  0  0  0  0  0  0  0  0  0
  188.4350  173.1770  139.9020 C   0  0  0  0  0  2  0  0  0  0  0  0
  188.8730  174.5600  139.8980 N   0  0  0  0  0  2  0  0  0  0  0  0
  187.9160  175.3050  140.6990 C   0  0  0  0  0  2  0  0  0  0  0  0
  189.6450  175.2620  142.8180 S   0  0  0  0  0  0  0  0  0  0  0  0
  187.0030  175.5600  142.9350 N   0  0  0  0  0  2  0  0  0  0  0  0
  187.9940  174.8510  142.1440 C   0  0  1  0  0  3  0  0  0  0  0  0
  187.5580  176.4420  143.9000 C   0  0  0  0  0  0  0  0  0  0  0  0
  188.8880  176.4340  143.9350 C   0  0  0  0  0  0  0  0  0  0  0  0
  184.2940  178.0350  146.5570 C   0  0  0  0  0  3  0  0  0  0  0  0
  185.6400  177.5840  147.0170 C   0  0  0  0  0  2  0  0  0  0  0  0
  184.1210  178.8440  145.5130 C   0  0  0  0  0  3  0  0  0  0  0  0
  185.1980  179.3180  144.6250 C   0  0  0  0  0  3  0  0  0  0  0  0
  186.6770  177.2760  144.7530 C   0  0  0  0  0  0  0  0  0  0  0  0
  186.3640  176.8060  145.9690 C   0  0  0  0  0  3  0  0  0  0  0  0
  186.3060  178.6400  144.3020 C   0  0  0  0  0  3  0  0  0  0  0  0
  189.7340  177.3770  144.7270 C   0  0  0  0  0  2  0  0  0  0  0  0
  190.5090  178.1530  143.8600 O   0  0  0  0  0  1  0  0  0  0  0  0
  2 19  1  0  0  0  0
  2  1  2  0  0  0  0
  3  1  1  6  0  0  0
  3  4  1  0  0  0  0
  3  5  1  0  0  0  0
  4  5  1  0  0  0  0
  5  6  1  1  0  0  0
  6  7  1  0  0  0  0
  7  8  1  0  0  0  0
  9 14  1  0  0  0  0
  9 13  1  0  0  0  0
 11  9  1  0  0  0  0
 11 14  1  0  0  0  0
 11  8  1  1  0  0  0
 12  9  1  0  0  0  0
 14 10  1  1  0  0  0
 15 18  1  0  0  0  0
 15 14  1  0  0  0  0
 16 18  2  0  0  0  0
 18 17  1  0  0  0  0
 20 19  1  0  0  0  0
 20 21  1  0  0  0  0
 22 26  1  0  0  0  0
 23 25  1  0  0  0  0
 24 21  1  6  0  0  0
 24 22  1  0  0  0  0
 24 23  1  0  0  0  0
 25 26  2  0  0  0  0
 25 31  1  0  0  0  0
 26 34  1  0  0  0  0
 27 28  1  0  0  0  0
 29 27  2  0  0  0  0
 30 29  1  0  0  0  0
 31 32  2  0  0  0  0
 32 28  1  0  0  0  0
 33 30  2  0  0  0  0
 33 31  1  0  0  0  0
 35 34  1  0  0  0  0
M  END
>  <MODEL>
9

>  <REMARK>
 VINA RESULT:      -5.7      3.082      7.389
  Name = 
  13 active torsions:
  status: ('A' for Active; 'I' for Inactive)
    1  A    between atoms: N_1  and  C_17
    2  A    between atoms: C_2  and  C_30
    3  A    between atoms: C_9  and  N_25
    4  A    between atoms: C_10  and  C_24
    5  A    between atoms: C_10  and  N_32
    6  A    between atoms: C_12  and  C_18
    7  A    between atoms: C_12  and  N_25
    8  A    between atoms: C_13  and  C_33
    9  A    between atoms: C_18  and  C_21
   10  A    between atoms: C_23  and  C_26
   11  A    between atoms: C_23  and  C_27
   12  A    between atoms: C_29  and  C_31
   13  A    between atoms: N_32  and  C_33
                            x       y       z     vdW  Elec       q    Type
                         _______ _______ _______ _____ _____    ______ ____

>  <TORSDO>
F 13

$$$$
