=
 OpenBabel11062420113D

 35 38  0  0  1  0  0  0  0  0999 V2000
  190.9900  175.7280  145.8370 C   0  0  1  0  0  3  0  0  0  0  0  0
  190.3010  176.8020  143.5330 C   0  0  2  0  0  3  0  0  0  0  0  0
  190.9410  174.3460  143.7440 C   0  0  0  0  0  0  0  0  0  0  0  0
  190.9280  174.4240  145.0770 C   0  0  0  0  0  3  0  0  0  0  0  0
  190.4620  178.0180  145.5440 O   0  0  0  0  0  0  0  0  0  0  0  0
  191.0110  175.6000  142.8980 C   0  0  2  0  0  3  0  0  0  0  0  0
  190.5590  176.9220  145.0140 C   0  0  0  0  0  0  0  0  0  0  0  0
  186.5250  176.5280  144.0180 C   0  0  0  0  0  3  0  0  0  0  0  0
  185.9600  176.7530  142.6370 C   0  0  2  0  0  3  0  0  0  0  0  0
  187.0260  176.9870  141.5970 C   0  0  0  0  0  0  0  0  0  0  0  0
  188.4490  177.0010  141.9620 C   0  0  0  0  0  3  0  0  0  0  0  0
  186.6990  177.1500  140.3910 O   0  0  0  0  0  0  0  0  0  0  0  0
  188.8360  176.7980  143.2210 C   0  0  0  0  0  0  0  0  0  0  0  0
  187.8350  176.5490  144.2800 C   0  0  0  0  0  3  0  0  0  0  0  0
  185.6670  179.1060  142.9340 O   0  0  0  0  0  1  0  0  0  0  0  0
  184.9860  177.9200  142.6610 C   0  0  0  0  0  2  0  0  0  0  0  0
  193.6760  176.0600  143.7340 S   0  0  0  0  0  0  0  0  0  0  0  0
  194.4060  175.0600  141.4040 C   0  0  0  0  0  2  0  0  0  0  0  0
  192.9250  174.9780  141.3610 C   0  0  0  0  0  2  0  0  0  0  0  0
  194.8860  175.5460  142.5320 C   0  0  1  0  0  3  0  0  0  0  0  0
  192.4210  175.9620  142.4080 C   0  0  1  0  0  3  0  0  0  0  0  0
  197.4680  176.0010  142.8470 C   0  0  0  0  0  3  0  0  0  0  0  0
  196.2890  175.7940  142.7070 C   0  0  0  0  0  0  0  0  0  0  0  0
  190.2400  175.6500  147.1750 C   0  0  0  0  0  3  0  0  0  0  0  0
  189.1420  174.5990  147.1690 C   0  0  0  0  0  1  0  0  0  0  0  0
  191.1960  175.3960  148.3270 C   0  0  0  0  0  1  0  0  0  0  0  0
  190.8860  173.0470  143.1450 N   0  0  0  0  0  2  0  0  0  0  0  0
  189.8020  172.5350  142.3600 C   0  0  0  0  0  0  0  0  0  0  0  0
  188.6950  173.1360  142.3170 O   0  0  0  0  0  0  0  0  0  0  0  0
  191.5710  169.5740  139.9950 O   0  0  0  0  0  0  0  0  0  0  0  0
  191.0380  170.3760  142.2210 C   0  0  0  0  0  2  0  0  0  0  0  0
  190.2910  171.5760  140.1500 C   0  0  0  0  0  3  0  0  0  0  0  0
  191.0320  170.7360  139.4240 C   0  0  0  0  0  3  0  0  0  0  0  0
  191.2550  169.1610  141.3260 C   0  0  0  0  0  2  0  0  0  0  0  0
  189.9730  171.2710  141.5870 C   0  0  2  0  0  3  0  0  0  0  0  0
  1 24  1  1  0  0  0
  2 13  1  1  0  0  0
  2  7  1  0  0  0  0
  3  4  2  0  0  0  0
  4  1  1  0  0  0  0
  6  2  1  0  0  0  0
  6  3  1  1  0  0  0
  7  5  2  0  0  0  0
  7  1  1  0  0  0  0
  8 14  2  0  0  0  0
  9 16  1  1  0  0  0
  9  8  1  0  0  0  0
 10 11  1  0  0  0  0
 10  9  1  0  0  0  0
 11 13  2  0  0  0  0
 12 10  2  0  0  0  0
 13 14  1  0  0  0  0
 16 15  1  0  0  0  0
 18 20  1  0  0  0  0
 19 18  1  0  0  0  0
 20 23  1  6  0  0  0
 20 17  1  0  0  0  0
 21 19  1  6  0  0  0
 21  6  1  0  0  0  0
 21 17  1  0  0  0  0
 23 22  3  0  0  0  0
 24 26  1  0  0  0  0
 25 24  1  0  0  0  0
 27  3  1  0  0  0  0
 28 27  1  0  0  0  0
 29 28  2  0  0  0  0
 30 34  1  0  0  0  0
 32 35  1  0  0  0  0
 33 30  1  0  0  0  0
 33 32  2  0  0  0  0
 34 31  1  0  0  0  0
 35 31  1  0  0  0  0
 35 28  1  1  0  0  0
M  END
>  <MODEL>
1

>  <REMARK>
 VINA RESULT:      -6.8      0.000      0.000
  Name = 
  7 active torsions:
  status: ('A' for Active; 'I' for Inactive)
    1  A    between atoms: C_1  and  C_6
    2  A    between atoms: C_3  and  C_27
    3  A    between atoms: N_10  and  C_16
    4  A    between atoms: C_11  and  C_35
    5  A    between atoms: C_13  and  C_18
    6  A    between atoms: C_22  and  C_29
    7  A    between atoms: C_28  and  C_33
                            x       y       z     vdW  Elec       q    Type
                         _______ _______ _______ _____ _____    ______ ____

>  <TORSDO>
F 7

$$$$
=
 OpenBabel11062420113D

 35 38  0  0  1  0  0  0  0  0999 V2000
  194.6800  175.8490  143.5060 C   0  0  1  0  0  3  0  0  0  0  0  0
  193.7570  174.2240  145.3630 C   0  0  2  0  0  3  0  0  0  0  0  0
  192.5930  174.5140  143.1150 C   0  0  0  0  0  0  0  0  0  0  0  0
  193.6260  175.2100  142.6350 C   0  0  0  0  0  3  0  0  0  0  0  0
  195.6570  175.5860  145.6480 O   0  0  0  0  0  0  0  0  0  0  0  0
  192.4250  174.3140  144.6080 C   0  0  2  0  0  3  0  0  0  0  0  0
  194.7720  175.2310  144.8850 C   0  0  0  0  0  0  0  0  0  0  0  0
  196.2360  171.3320  145.6050 C   0  0  0  0  0  3  0  0  0  0  0  0
  195.4100  170.1120  145.2780 C   0  0  2  0  0  3  0  0  0  0  0  0
  193.9700  170.4410  144.9760 C   0  0  0  0  0  0  0  0  0  0  0  0
  193.4830  171.8260  145.0310 C   0  0  0  0  0  3  0  0  0  0  0  0
  193.1730  169.5210  144.6470 O   0  0  0  0  0  0  0  0  0  0  0  0
  194.3040  172.8290  145.3410 C   0  0  0  0  0  0  0  0  0  0  0  0
  195.7290  172.5670  145.6330 C   0  0  0  0  0  3  0  0  0  0  0  0
  196.5350  169.4510  147.2810 O   0  0  0  0  0  1  0  0  0  0  0  0
  195.4910  169.1110  146.4200 C   0  0  0  0  0  2  0  0  0  0  0  0
  189.6960  175.0290  144.8440 S   0  0  0  0  0  0  0  0  0  0  0  0
  190.2700  175.7490  147.3180 C   0  0  0  0  0  2  0  0  0  0  0  0
  191.5680  175.2560  146.7960 C   0  0  0  0  0  2  0  0  0  0  0  0
  189.2740  175.6560  146.4570 C   0  0  1  0  0  3  0  0  0  0  0  0
  191.4530  175.2950  145.2790 C   0  0  1  0  0  3  0  0  0  0  0  0
  186.8810  176.6310  147.0020 C   0  0  0  0  0  3  0  0  0  0  0  0
  187.9720  176.1830  146.7550 C   0  0  0  0  0  0  0  0  0  0  0  0
  196.0470  175.9050  142.8080 C   0  0  0  0  0  3  0  0  0  0  0  0
  196.6270  174.5250  142.5470 C   0  0  0  0  0  1  0  0  0  0  0  0
  195.9690  176.6900  141.5110 C   0  0  0  0  0  1  0  0  0  0  0  0
  191.6560  173.9660  142.1830 N   0  0  0  0  0  2  0  0  0  0  0  0
  191.6880  172.6350  141.6530 C   0  0  0  0  0  0  0  0  0  0  0  0
  192.6960  171.8970  141.8170 O   0  0  0  0  0  0  0  0  0  0  0  0
  188.2620  172.5580  139.2550 O   0  0  0  0  0  0  0  0  0  0  0  0
  190.6760  172.3720  139.3900 C   0  0  0  0  0  2  0  0  0  0  0  0
  189.2400  172.6910  141.4210 C   0  0  0  0  0  3  0  0  0  0  0  0
  188.1880  172.8680  140.6200 C   0  0  0  0  0  3  0  0  0  0  0  0
  189.4050  171.9250  138.6770 C   0  0  0  0  0  2  0  0  0  0  0  0
  190.5190  172.1090  140.8880 C   0  0  2  0  0  3  0  0  0  0  0  0
  1 24  1  6  0  0  0
  1  7  1  0  0  0  0
  2 13  1  6  0  0  0
  4  3  2  0  0  0  0
  4  1  1  0  0  0  0
  6  3  1  6  0  0  0
  6 21  1  0  0  0  0
  6  2  1  0  0  0  0
  7  2  1  0  0  0  0
  7  5  2  0  0  0  0
  8 14  2  0  0  0  0
  9  8  1  0  0  0  0
  9 16  1  1  0  0  0
 10 11  1  0  0  0  0
 10  9  1  0  0  0  0
 11 13  2  0  0  0  0
 12 10  2  0  0  0  0
 13 14  1  0  0  0  0
 16 15  1  0  0  0  0
 17 21  1  0  0  0  0
 17 20  1  0  0  0  0
 19 18  1  0  0  0  0
 20 23  1  6  0  0  0
 20 18  1  0  0  0  0
 21 19  1  1  0  0  0
 23 22  3  0  0  0  0
 25 24  1  0  0  0  0
 26 24  1  0  0  0  0
 27  3  1  0  0  0  0
 28 29  2  0  0  0  0
 28 27  1  0  0  0  0
 30 33  1  0  0  0  0
 31 35  1  0  0  0  0
 33 32  2  0  0  0  0
 34 30  1  0  0  0  0
 34 31  1  0  0  0  0
 35 32  1  0  0  0  0
 35 28  1  1  0  0  0
M  END
>  <MODEL>
2

>  <REMARK>
 VINA RESULT:      -6.6      3.347      7.361
  Name = 
  7 active torsions:
  status: ('A' for Active; 'I' for Inactive)
    1  A    between atoms: C_1  and  C_6
    2  A    between atoms: C_3  and  C_27
    3  A    between atoms: N_10  and  C_16
    4  A    between atoms: C_11  and  C_35
    5  A    between atoms: C_13  and  C_18
    6  A    between atoms: C_22  and  C_29
    7  A    between atoms: C_28  and  C_33
                            x       y       z     vdW  Elec       q    Type
                         _______ _______ _______ _____ _____    ______ ____

>  <TORSDO>
F 7

$$$$
=
 OpenBabel11062420113D

 35 38  0  0  1  0  0  0  0  0999 V2000
  194.2740  175.4220  142.9980 C   0  0  1  0  0  3  0  0  0  0  0  0
  192.4730  173.5980  143.6040 C   0  0  2  0  0  3  0  0  0  0  0  0
  191.8490  176.0330  143.1900 C   0  0  0  0  0  0  0  0  0  0  0  0
  193.0760  176.3040  142.7390 C   0  0  0  0  0  3  0  0  0  0  0  0
  194.7830  173.1590  143.4760 O   0  0  0  0  0  0  0  0  0  0  0  0
  191.5850  174.7830  144.0030 C   0  0  2  0  0  3  0  0  0  0  0  0
  193.9050  173.9980  143.3490 C   0  0  0  0  0  0  0  0  0  0  0  0
  190.1510  171.3290  141.5970 C   0  0  0  0  0  3  0  0  0  0  0  0
  190.7420  171.3340  140.2090 C   0  0  2  0  0  3  0  0  0  0  0  0
  191.9840  172.1820  140.1020 C   0  0  0  0  0  0  0  0  0  0  0  0
  192.5010  172.9160  141.2650 C   0  0  0  0  0  3  0  0  0  0  0  0
  192.6060  172.2470  139.0080 O   0  0  0  0  0  0  0  0  0  0  0  0
  191.8900  172.8450  142.4470 C   0  0  0  0  0  0  0  0  0  0  0  0
  190.6770  172.0180  142.6140 C   0  0  0  0  0  3  0  0  0  0  0  0
  189.3190  173.1150  139.4880 O   0  0  0  0  0  1  0  0  0  0  0  0
  189.6990  171.8030  139.2050 C   0  0  0  0  0  2  0  0  0  0  0  0
  192.2470  176.6140  146.0590 S   0  0  0  0  0  0  0  0  0  0  0  0
  190.1760  175.6370  147.3710 C   0  0  0  0  0  2  0  0  0  0  0  0
  190.1690  174.8680  146.1020 C   0  0  0  0  0  2  0  0  0  0  0  0
  191.1330  176.5420  147.4460 C   0  0  1  0  0  3  0  0  0  0  0  0
  191.5720  175.0000  145.5240 C   0  0  1  0  0  3  0  0  0  0  0  0
  191.5470  177.9430  149.6460 C   0  0  0  0  0  3  0  0  0  0  0  0
  191.3540  177.3030  148.6430 C   0  0  0  0  0  0  0  0  0  0  0  0
  195.2940  175.4870  141.8520 C   0  0  0  0  0  3  0  0  0  0  0  0
  194.6380  175.6960  140.4970 C   0  0  0  0  0  1  0  0  0  0  0  0
  196.3310  176.5680  142.0990 C   0  0  0  0  0  1  0  0  0  0  0  0
  190.7990  176.9550  142.8830 N   0  0  0  0  0  2  0  0  0  0  0  0
  189.4570  176.6030  142.5230 C   0  0  0  0  0  0  0  0  0  0  0  0
  189.1550  175.4120  142.2400 O   0  0  0  0  0  0  0  0  0  0  0  0
  185.6770  178.3750  142.2710 O   0  0  0  0  0  0  0  0  0  0  0  0
  187.4700  177.5590  143.6850 C   0  0  0  0  0  2  0  0  0  0  0  0
  187.6330  177.5630  141.1830 C   0  0  0  0  0  3  0  0  0  0  0  0
  186.3530  177.9340  141.1230 C   0  0  0  0  0  3  0  0  0  0  0  0
  186.3430  178.5720  143.5190 C   0  0  0  0  0  2  0  0  0  0  0  0
  188.3980  177.6530  142.4730 C   0  0  2  0  0  3  0  0  0  0  0  0
  1 24  1  6  0  0  0
  1  7  1  0  0  0  0
  2 13  1  6  0  0  0
  2  6  1  0  0  0  0
  4  1  1  0  0  0  0
  4  3  2  0  0  0  0
  6  3  1  6  0  0  0
  6 21  1  0  0  0  0
  7  5  2  0  0  0  0
  7  2  1  0  0  0  0
  8 14  2  0  0  0  0
  9 16  1  6  0  0  0
  9  8  1  0  0  0  0
 10  9  1  0  0  0  0
 10 11  1  0  0  0  0
 11 13  2  0  0  0  0
 12 10  2  0  0  0  0
 13 14  1  0  0  0  0
 16 15  1  0  0  0  0
 17 20  1  0  0  0  0
 18 20  1  0  0  0  0
 19 18  1  0  0  0  0
 20 23  1  1  0  0  0
 21 17  1  0  0  0  0
 21 19  1  6  0  0  0
 23 22  3  0  0  0  0
 24 26  1  0  0  0  0
 25 24  1  0  0  0  0
 27  3  1  0  0  0  0
 28 27  1  0  0  0  0
 29 28  2  0  0  0  0
 30 34  1  0  0  0  0
 32 35  1  0  0  0  0
 33 32  2  0  0  0  0
 33 30  1  0  0  0  0
 34 31  1  0  0  0  0
 35 28  1  1  0  0  0
 35 31  1  0  0  0  0
M  END
>  <MODEL>
3

>  <REMARK>
 VINA RESULT:      -6.4      1.962      6.654
  Name = 
  7 active torsions:
  status: ('A' for Active; 'I' for Inactive)
    1  A    between atoms: C_1  and  C_6
    2  A    between atoms: C_3  and  C_27
    3  A    between atoms: N_10  and  C_16
    4  A    between atoms: C_11  and  C_35
    5  A    between atoms: C_13  and  C_18
    6  A    between atoms: C_22  and  C_29
    7  A    between atoms: C_28  and  C_33
                            x       y       z     vdW  Elec       q    Type
                         _______ _______ _______ _____ _____    ______ ____

>  <TORSDO>
F 7

$$$$
=
 OpenBabel11062420113D

 35 38  0  0  1  0  0  0  0  0999 V2000
  190.9740  175.6730  145.8900 C   0  0  1  0  0  3  0  0  0  0  0  0
  190.5840  177.2660  143.8290 C   0  0  2  0  0  3  0  0  0  0  0  0
  190.6970  174.7340  143.5800 C   0  0  0  0  0  0  0  0  0  0  0  0
  190.6650  174.5700  144.9050 C   0  0  0  0  0  3  0  0  0  0  0  0
  190.9380  178.0370  146.0260 O   0  0  0  0  0  0  0  0  0  0  0  0
  191.0470  176.0780  142.9770 C   0  0  2  0  0  3  0  0  0  0  0  0
  190.8210  177.0590  145.3040 C   0  0  0  0  0  0  0  0  0  0  0  0
  187.4430  178.2130  141.8790 C   0  0  0  0  0  3  0  0  0  0  0  0
  186.3790  178.3520  142.9400 C   0  0  2  0  0  3  0  0  0  0  0  0
  186.9000  178.0920  144.3320 C   0  0  0  0  0  0  0  0  0  0  0  0
  188.3040  177.7260  144.5570 C   0  0  0  0  0  3  0  0  0  0  0  0
  186.1290  178.2120  145.3210 O   0  0  0  0  0  0  0  0  0  0  0  0
  189.1580  177.6230  143.5390 C   0  0  0  0  0  0  0  0  0  0  0  0
  188.7070  177.8810  142.1550 C   0  0  0  0  0  3  0  0  0  0  0  0
  184.0110  178.1190  142.7110 O   0  0  0  0  0  1  0  0  0  0  0  0
  185.2160  177.4210  142.6330 C   0  0  0  0  0  2  0  0  0  0  0  0
  193.7120  176.1840  143.9260 S   0  0  0  0  0  0  0  0  0  0  0  0
  194.3920  175.0180  141.6590 C   0  0  0  0  0  2  0  0  0  0  0  0
  192.9180  175.1440  141.5480 C   0  0  0  0  0  2  0  0  0  0  0  0
  194.8870  175.4670  142.7960 C   0  0  1  0  0  3  0  0  0  0  0  0
  192.5140  176.2220  142.5450 C   0  0  1  0  0  3  0  0  0  0  0  0
  197.4920  175.5640  143.2210 C   0  0  0  0  0  3  0  0  0  0  0  0
  196.3030  175.5200  143.0310 C   0  0  0  0  0  0  0  0  0  0  0  0
  190.1880  175.5110  147.1990 C   0  0  0  0  0  3  0  0  0  0  0  0
  189.1330  174.4210  147.1170 C   0  0  0  0  0  1  0  0  0  0  0  0
  191.1190  175.2460  148.3690 C   0  0  0  0  0  1  0  0  0  0  0  0
  190.3920  173.6050  142.7540 N   0  0  0  0  0  2  0  0  0  0  0  0
  189.2420  173.4760  141.9100 C   0  0  0  0  0  0  0  0  0  0  0  0
  188.2810  174.2860  141.9980 O   0  0  0  0  0  0  0  0  0  0  0  0
  189.7360  171.3410  138.3470 O   0  0  0  0  0  0  0  0  0  0  0  0
  190.5610  171.8380  140.5730 C   0  0  0  0  0  2  0  0  0  0  0  0
  188.4300  172.8150  139.6850 C   0  0  0  0  0  3  0  0  0  0  0  0
  188.7130  172.2900  138.4910 C   0  0  0  0  0  3  0  0  0  0  0  0
  190.4330  170.7950  139.4680 C   0  0  0  0  0  2  0  0  0  0  0  0
  189.1680  172.3670  140.9150 C   0  0  2  0  0  3  0  0  0  0  0  0
  1 24  1  1  0  0  0
  2 13  1  1  0  0  0
  2  7  1  0  0  0  0
  3  4  2  0  0  0  0
  4  1  1  0  0  0  0
  6  3  1  1  0  0  0
  6  2  1  0  0  0  0
  7  1  1  0  0  0  0
  7  5  2  0  0  0  0
  8 14  2  0  0  0  0
  8  9  1  0  0  0  0
  9 16  1  6  0  0  0
  9 10  1  0  0  0  0
 10 11  1  0  0  0  0
 10 12  2  0  0  0  0
 13 11  2  0  0  0  0
 14 13  1  0  0  0  0
 16 15  1  0  0  0  0
 18 20  1  0  0  0  0
 19 18  1  0  0  0  0
 20 23  1  6  0  0  0
 20 17  1  0  0  0  0
 21 19  1  6  0  0  0
 21  6  1  0  0  0  0
 21 17  1  0  0  0  0
 23 22  3  0  0  0  0
 24 26  1  0  0  0  0
 25 24  1  0  0  0  0
 27  3  1  0  0  0  0
 28 29  2  0  0  0  0
 28 27  1  0  0  0  0
 30 33  1  0  0  0  0
 30 34  1  0  0  0  0
 31 35  1  0  0  0  0
 32 35  1  0  0  0  0
 33 32  2  0  0  0  0
 34 31  1  0  0  0  0
 35 28  1  1  0  0  0
M  END
>  <MODEL>
4

>  <REMARK>
 VINA RESULT:      -6.4      1.265      1.760
  Name = 
  7 active torsions:
  status: ('A' for Active; 'I' for Inactive)
    1  A    between atoms: C_1  and  C_6
    2  A    between atoms: C_3  and  C_27
    3  A    between atoms: N_10  and  C_16
    4  A    between atoms: C_11  and  C_35
    5  A    between atoms: C_13  and  C_18
    6  A    between atoms: C_22  and  C_29
    7  A    between atoms: C_28  and  C_33
                            x       y       z     vdW  Elec       q    Type
                         _______ _______ _______ _____ _____    ______ ____

>  <TORSDO>
F 7

$$$$
=
 OpenBabel11062420113D

 35 38  0  0  1  0  0  0  0  0999 V2000
  190.4490  173.1510  142.3430 C   0  0  1  0  0  3  0  0  0  0  0  0
  191.4500  175.5790  142.5500 C   0  0  2  0  0  3  0  0  0  0  0  0
  189.3760  174.8540  143.8400 C   0  0  0  0  0  0  0  0  0  0  0  0
  189.5650  173.5800  143.4890 C   0  0  0  0  0  3  0  0  0  0  0  0
  192.3220  173.9270  141.1170 O   0  0  0  0  0  0  0  0  0  0  0  0
  190.0680  175.9720  143.0870 C   0  0  2  0  0  3  0  0  0  0  0  0
  191.4780  174.1930  141.9580 C   0  0  0  0  0  0  0  0  0  0  0  0
  193.1320  175.7830  145.9700 C   0  0  0  0  0  3  0  0  0  0  0  0
  194.5620  176.1440  145.6550 C   0  0  2  0  0  3  0  0  0  0  0  0
  194.8180  176.3000  144.1770 C   0  0  0  0  0  0  0  0  0  0  0  0
  193.7430  176.0890  143.1980 C   0  0  0  0  0  3  0  0  0  0  0  0
  195.9610  176.6390  143.7720 O   0  0  0  0  0  0  0  0  0  0  0  0
  192.5120  175.7620  143.5910 C   0  0  0  0  0  0  0  0  0  0  0  0
  192.2010  175.6100  145.0280 C   0  0  0  0  0  3  0  0  0  0  0  0
  195.2860  173.8660  145.6270 O   0  0  0  0  0  1  0  0  0  0  0  0
  195.5000  175.1000  146.2420 C   0  0  0  0  0  2  0  0  0  0  0  0
  187.4950  176.0060  141.9060 S   0  0  0  0  0  0  0  0  0  0  0  0
  187.8810  178.5900  141.5330 C   0  0  0  0  0  2  0  0  0  0  0  0
  189.1280  178.1530  142.2070 C   0  0  0  0  0  2  0  0  0  0  0  0
  186.9960  177.6270  141.3620 C   0  0  1  0  0  3  0  0  0  0  0  0
  189.2060  176.6450  142.0090 C   0  0  1  0  0  3  0  0  0  0  0  0
  184.7570  178.0370  140.0230 C   0  0  0  0  0  3  0  0  0  0  0  0
  185.7780  177.8460  140.6330 C   0  0  0  0  0  0  0  0  0  0  0  0
  191.0870  171.7770  142.5900 C   0  0  0  0  0  3  0  0  0  0  0  0
  191.3530  171.5120  144.0630 C   0  0  0  0  0  1  0  0  0  0  0  0
  190.2340  170.6630  142.0080 C   0  0  0  0  0  1  0  0  0  0  0  0
  188.5060  175.1280  144.9420 N   0  0  0  0  0  2  0  0  0  0  0  0
  188.4100  176.3770  145.6390 C   0  0  0  0  0  0  0  0  0  0  0  0
  189.2640  177.2860  145.4580 O   0  0  0  0  0  0  0  0  0  0  0  0
  185.2050  178.2410  147.5750 O   0  0  0  0  0  0  0  0  0  0  0  0
  185.9470  176.6760  145.8770 C   0  0  0  0  0  2  0  0  0  0  0  0
  187.5480  177.8530  147.4070 C   0  0  0  0  0  3  0  0  0  0  0  0
  186.5320  178.5850  147.8680 C   0  0  0  0  0  3  0  0  0  0  0  0
  184.8640  177.0350  146.8870 C   0  0  0  0  0  2  0  0  0  0  0  0
  187.2930  176.6110  146.6000 C   0  0  2  0  0  3  0  0  0  0  0  0
  1 24  1  1  0  0  0
  1  4  1  0  0  0  0
  2  6  1  0  0  0  0
  2 13  1  1  0  0  0
  3 27  1  0  0  0  0
  4  3  2  0  0  0  0
  5  7  2  0  0  0  0
  6  3  1  6  0  0  0
  7  1  1  0  0  0  0
  7  2  1  0  0  0  0
  9  8  1  0  0  0  0
  9 16  1  6  0  0  0
 10  9  1  0  0  0  0
 11 13  2  0  0  0  0
 11 10  1  0  0  0  0
 12 10  2  0  0  0  0
 13 14  1  0  0  0  0
 14  8  2  0  0  0  0
 15 16  1  0  0  0  0
 17 21  1  0  0  0  0
 18 19  1  0  0  0  0
 20 23  1  6  0  0  0
 20 18  1  0  0  0  0
 20 17  1  0  0  0  0
 21 19  1  1  0  0  0
 21  6  1  0  0  0  0
 22 23  3  0  0  0  0
 24 25  1  0  0  0  0
 26 24  1  0  0  0  0
 27 28  1  0  0  0  0
 29 28  2  0  0  0  0
 30 33  1  0  0  0  0
 31 35  1  0  0  0  0
 31 34  1  0  0  0  0
 32 33  2  0  0  0  0
 34 30  1  0  0  0  0
 35 28  1  6  0  0  0
 35 32  1  0  0  0  0
M  END
>  <MODEL>
5

>  <REMARK>
 VINA RESULT:      -6.3      2.903      7.737
  Name = 
  7 active torsions:
  status: ('A' for Active; 'I' for Inactive)
    1  A    between atoms: C_1  and  C_6
    2  A    between atoms: C_3  and  C_27
    3  A    between atoms: N_10  and  C_16
    4  A    between atoms: C_11  and  C_35
    5  A    between atoms: C_13  and  C_18
    6  A    between atoms: C_22  and  C_29
    7  A    between atoms: C_28  and  C_33
                            x       y       z     vdW  Elec       q    Type
                         _______ _______ _______ _____ _____    ______ ____

>  <TORSDO>
F 7

$$$$
=
 OpenBabel11062420113D

 35 38  0  0  1  0  0  0  0  0999 V2000
  191.3970  174.1240  145.4290 C   0  0  1  0  0  3  0  0  0  0  0  0
  192.8950  173.8090  143.2850 C   0  0  2  0  0  3  0  0  0  0  0  0
  190.7560  175.1930  143.2520 C   0  0  0  0  0  0  0  0  0  0  0  0
  190.6600  175.1340  144.5820 C   0  0  0  0  0  3  0  0  0  0  0  0
  193.3520  172.7880  145.3580 O   0  0  0  0  0  0  0  0  0  0  0  0
  191.6450  174.2240  142.4990 C   0  0  2  0  0  3  0  0  0  0  0  0
  192.6090  173.5360  144.7410 C   0  0  0  0  0  0  0  0  0  0  0  0
  195.4740  176.4970  144.1140 C   0  0  0  0  0  3  0  0  0  0  0  0
  196.1530  176.7750  142.7950 C   0  0  2  0  0  3  0  0  0  0  0  0
  195.6000  175.9440  141.6640 C   0  0  0  0  0  0  0  0  0  0  0  0
  194.5250  174.9700  141.8970 C   0  0  0  0  0  3  0  0  0  0  0  0
  196.0470  176.1000  140.4970 O   0  0  0  0  0  0  0  0  0  0  0  0
  194.0030  174.8010  143.1110 C   0  0  0  0  0  0  0  0  0  0  0  0
  194.4960  175.5980  144.2540 C   0  0  0  0  0  3  0  0  0  0  0  0
  197.9070  175.2220  143.2690 O   0  0  0  0  0  1  0  0  0  0  0  0
  197.6510  176.5500  142.9280 C   0  0  0  0  0  2  0  0  0  0  0  0
  190.5940  173.1250  140.1120 S   0  0  0  0  0  0  0  0  0  0  0  0
  191.2230  170.7660  141.1150 C   0  0  0  0  0  2  0  0  0  0  0  0
  191.6670  171.7140  142.1660 C   0  0  0  0  0  2  0  0  0  0  0  0
  190.7100  171.3480  140.0480 C   0  0  1  0  0  3  0  0  0  0  0  0
  190.9120  173.0100  141.9090 C   0  0  1  0  0  3  0  0  0  0  0  0
  189.6510  169.9450  138.0770 C   0  0  0  0  0  3  0  0  0  0  0  0
  190.1320  170.5830  138.9790 C   0  0  0  0  0  0  0  0  0  0  0  0
  191.7360  174.6770  146.8210 C   0  0  0  0  0  3  0  0  0  0  0  0
  192.6900  175.8590  146.7630 C   0  0  0  0  0  1  0  0  0  0  0  0
  190.4790  175.0610  147.5800 C   0  0  0  0  0  1  0  0  0  0  0  0
  189.9980  176.1930  142.5650 N   0  0  0  0  0  2  0  0  0  0  0  0
  188.6400  176.0570  142.1270 C   0  0  0  0  0  0  0  0  0  0  0  0
  188.0690  174.9340  142.1320 O   0  0  0  0  0  0  0  0  0  0  0  0
  185.4570  178.4750  140.8970 O   0  0  0  0  0  0  0  0  0  0  0  0
  186.8960  177.7400  142.7050 C   0  0  0  0  0  2  0  0  0  0  0  0
  187.2040  176.9540  140.3440 C   0  0  0  0  0  3  0  0  0  0  0  0
  186.0660  177.5690  140.0160 C   0  0  0  0  0  3  0  0  0  0  0  0
  186.0750  178.8830  142.1190 C   0  0  0  0  0  2  0  0  0  0  0  0
  187.8880  177.2530  141.6490 C   0  0  2  0  0  3  0  0  0  0  0  0
  1 24  1  1  0  0  0
  2 13  1  1  0  0  0
  2  7  1  0  0  0  0
  3  4  2  0  0  0  0
  4  1  1  0  0  0  0
  6  3  1  1  0  0  0
  6  2  1  0  0  0  0
  7  5  2  0  0  0  0
  7  1  1  0  0  0  0
  8 14  2  0  0  0  0
  9 16  1  1  0  0  0
  9  8  1  0  0  0  0
 10 11  1  0  0  0  0
 10  9  1  0  0  0  0
 11 13  2  0  0  0  0
 12 10  2  0  0  0  0
 13 14  1  0  0  0  0
 16 15  1  0  0  0  0
 17 21  1  0  0  0  0
 18 19  1  0  0  0  0
 20 23  1  1  0  0  0
 20 17  1  0  0  0  0
 20 18  1  0  0  0  0
 21 19  1  6  0  0  0
 21  6  1  0  0  0  0
 22 23  3  0  0  0  0
 24 26  1  0  0  0  0
 25 24  1  0  0  0  0
 27  3  1  0  0  0  0
 28 29  2  0  0  0  0
 28 27  1  0  0  0  0
 30 34  1  0  0  0  0
 32 35  1  0  0  0  0
 33 32  2  0  0  0  0
 33 30  1  0  0  0  0
 34 31  1  0  0  0  0
 35 28  1  1  0  0  0
 35 31  1  0  0  0  0
M  END
>  <MODEL>
6

>  <REMARK>
 VINA RESULT:      -6.3      2.730      6.968
  Name = 
  7 active torsions:
  status: ('A' for Active; 'I' for Inactive)
    1  A    between atoms: C_1  and  C_6
    2  A    between atoms: C_3  and  C_27
    3  A    between atoms: N_10  and  C_16
    4  A    between atoms: C_11  and  C_35
    5  A    between atoms: C_13  and  C_18
    6  A    between atoms: C_22  and  C_29
    7  A    between atoms: C_28  and  C_33
                            x       y       z     vdW  Elec       q    Type
                         _______ _______ _______ _____ _____    ______ ____

>  <TORSDO>
F 7

$$$$
=
 OpenBabel11062420113D

 35 38  0  0  1  0  0  0  0  0999 V2000
  189.8720  172.3980  141.0070 C   0  0  1  0  0  3  0  0  0  0  0  0
  189.5950  173.7530  143.2490 C   0  0  2  0  0  3  0  0  0  0  0  0
  191.7330  173.8430  141.8670 C   0  0  0  0  0  0  0  0  0  0  0  0
  191.1460  173.1940  140.8580 C   0  0  0  0  0  3  0  0  0  0  0  0
  187.9510  172.3030  142.3890 O   0  0  0  0  0  0  0  0  0  0  0  0
  191.1280  173.8210  143.2550 C   0  0  2  0  0  3  0  0  0  0  0  0
  189.0540  172.7970  142.2160 C   0  0  0  0  0  0  0  0  0  0  0  0
  188.0300  176.8520  141.6640 C   0  0  0  0  0  3  0  0  0  0  0  0
  187.8270  177.7950  142.8250 C   0  0  2  0  0  3  0  0  0  0  0  0
  188.2950  177.2210  144.1380 C   0  0  0  0  0  0  0  0  0  0  0  0
  188.8640  175.8680  144.2110 C   0  0  0  0  0  3  0  0  0  0  0  0
  188.2220  177.9150  145.1870 O   0  0  0  0  0  0  0  0  0  0  0  0
  188.9890  175.1170  143.1180 C   0  0  0  0  0  0  0  0  0  0  0  0
  188.5600  175.6330  141.8020 C   0  0  0  0  0  3  0  0  0  0  0  0
  185.5750  177.0610  143.1460 O   0  0  0  0  0  1  0  0  0  0  0  0
  186.3610  178.1910  142.9180 C   0  0  0  0  0  2  0  0  0  0  0  0
  192.3220  171.2570  143.3760 S   0  0  0  0  0  0  0  0  0  0  0  0
  193.7460  172.1960  145.3890 C   0  0  0  0  0  2  0  0  0  0  0  0
  192.9110  173.3560  144.9920 C   0  0  0  0  0  2  0  0  0  0  0  0
  193.5630  171.1220  144.6460 C   0  0  1  0  0  3  0  0  0  0  0  0
  191.7420  172.7810  144.2040 C   0  0  1  0  0  3  0  0  0  0  0  0
  194.7570  168.8350  145.2120 C   0  0  0  0  0  3  0  0  0  0  0  0
  194.2090  169.8770  144.9530 C   0  0  0  0  0  0  0  0  0  0  0  0
  189.0360  172.4030  139.7190 C   0  0  0  0  0  3  0  0  0  0  0  0
  188.9310  173.7860  139.0960 C   0  0  0  0  0  1  0  0  0  0  0  0
  189.5850  171.4170  138.7040 C   0  0  0  0  0  1  0  0  0  0  0  0
  192.9450  174.5550  141.5960 N   0  0  0  0  0  2  0  0  0  0  0  0
  193.3040  175.8290  142.1450 C   0  0  0  0  0  0  0  0  0  0  0  0
  192.4570  176.5300  142.7610 O   0  0  0  0  0  0  0  0  0  0  0  0
  197.4850  175.9500  142.1400 O   0  0  0  0  0  0  0  0  0  0  0  0
  195.4410  175.5860  140.8860 C   0  0  0  0  0  2  0  0  0  0  0  0
  195.4290  176.2890  143.2930 C   0  0  0  0  0  3  0  0  0  0  0  0
  196.7530  176.1220  143.3240 C   0  0  0  0  0  3  0  0  0  0  0  0
  196.8860  176.0720  140.8490 C   0  0  0  0  0  2  0  0  0  0  0  0
  194.6940  176.3460  141.9830 C   0  0  2  0  0  3  0  0  0  0  0  0
  1 24  1  6  0  0  0
  1  7  1  0  0  0  0
  2 13  1  6  0  0  0
  2  6  1  0  0  0  0
  4  1  1  0  0  0  0
  4  3  2  0  0  0  0
  6  3  1  6  0  0  0
  6 21  1  0  0  0  0
  7  5  2  0  0  0  0
  7  2  1  0  0  0  0
  8 14  2  0  0  0  0
  8  9  1  0  0  0  0
  9 16  1  1  0  0  0
  9 10  1  0  0  0  0
 10 11  1  0  0  0  0
 10 12  2  0  0  0  0
 13 11  2  0  0  0  0
 14 13  1  0  0  0  0
 16 15  1  0  0  0  0
 17 21  1  0  0  0  0
 17 20  1  0  0  0  0
 19 18  1  0  0  0  0
 20 23  1  1  0  0  0
 20 18  1  0  0  0  0
 21 19  1  6  0  0  0
 23 22  3  0  0  0  0
 25 24  1  0  0  0  0
 26 24  1  0  0  0  0
 27  3  1  0  0  0  0
 27 28  1  0  0  0  0
 28 29  2  0  0  0  0
 30 33  1  0  0  0  0
 31 35  1  0  0  0  0
 32 33  2  0  0  0  0
 34 31  1  0  0  0  0
 34 30  1  0  0  0  0
 35 28  1  1  0  0  0
 35 32  1  0  0  0  0
M  END
>  <MODEL>
7

>  <REMARK>
 VINA RESULT:      -6.2      2.652      5.673
  Name = 
  7 active torsions:
  status: ('A' for Active; 'I' for Inactive)
    1  A    between atoms: C_1  and  C_6
    2  A    between atoms: C_3  and  C_27
    3  A    between atoms: N_10  and  C_16
    4  A    between atoms: C_11  and  C_35
    5  A    between atoms: C_13  and  C_18
    6  A    between atoms: C_22  and  C_29
    7  A    between atoms: C_28  and  C_33
                            x       y       z     vdW  Elec       q    Type
                         _______ _______ _______ _____ _____    ______ ____

>  <TORSDO>
F 7

$$$$
=
 OpenBabel11062420113D

 35 38  0  0  1  0  0  0  0  0999 V2000
  191.0090  174.7290  143.1460 C   0  0  1  0  0  3  0  0  0  0  0  0
  193.2010  175.9350  143.9700 C   0  0  2  0  0  3  0  0  0  0  0  0
  192.7980  173.4480  144.3500 C   0  0  0  0  0  0  0  0  0  0  0  0
  191.7330  173.4660  143.5460 C   0  0  0  0  0  3  0  0  0  0  0  0
  191.4210  177.0490  142.9030 O   0  0  0  0  0  0  0  0  0  0  0  0
  193.3600  174.7370  144.9150 C   0  0  2  0  0  3  0  0  0  0  0  0
  191.8530  175.9750  143.2950 C   0  0  0  0  0  0  0  0  0  0  0  0
  196.6850  176.5060  142.5200 C   0  0  0  0  0  3  0  0  0  0  0  0
  196.5340  176.1680  141.0570 C   0  0  2  0  0  3  0  0  0  0  0  0
  195.1310  175.7520  140.6910 C   0  0  0  0  0  0  0  0  0  0  0  0
  194.0740  175.6860  141.7090 C   0  0  0  0  0  3  0  0  0  0  0  0
  194.8520  175.4790  139.4940 O   0  0  0  0  0  0  0  0  0  0  0  0
  194.3230  176.0000  142.9790 C   0  0  0  0  0  0  0  0  0  0  0  0
  195.6760  176.4290  143.3920 C   0  0  0  0  0  3  0  0  0  0  0  0
  197.4040  173.9970  141.5500 O   0  0  0  0  0  1  0  0  0  0  0  0
  197.5210  175.0760  140.6740 C   0  0  0  0  0  2  0  0  0  0  0  0
  193.2290  176.7880  146.8620 S   0  0  0  0  0  0  0  0  0  0  0  0
  190.9730  175.6710  147.6500 C   0  0  0  0  0  2  0  0  0  0  0  0
  191.4020  174.8110  146.5200 C   0  0  0  0  0  2  0  0  0  0  0  0
  191.7770  176.6890  147.8880 C   0  0  1  0  0  3  0  0  0  0  0  0
  192.8920  175.0680  146.3400 C   0  0  1  0  0  3  0  0  0  0  0  0
  191.4040  178.2890  149.9560 C   0  0  0  0  0  3  0  0  0  0  0  0
  191.5730  177.5610  149.0100 C   0  0  0  0  0  0  0  0  0  0  0  0
  190.3880  174.6170  141.7460 C   0  0  0  0  0  3  0  0  0  0  0  0
  191.0360  173.5310  140.9040 C   0  0  0  0  0  1  0  0  0  0  0  0
  188.8890  174.3870  141.8270 C   0  0  0  0  0  1  0  0  0  0  0  0
  193.3890  172.1820  144.6610 N   0  0  0  0  0  2  0  0  0  0  0  0
  194.6430  171.7020  144.1600 C   0  0  0  0  0  0  0  0  0  0  0  0
  195.2320  172.2940  143.2170 O   0  0  0  0  0  0  0  0  0  0  0  0
  197.0670  169.2860  146.5650 O   0  0  0  0  0  0  0  0  0  0  0  0
  194.9110  170.3450  146.2340 C   0  0  0  0  0  2  0  0  0  0  0  0
  196.7500  170.4920  144.5370 C   0  0  0  0  0  3  0  0  0  0  0  0
  197.5690  169.8970  145.4070 C   0  0  0  0  0  3  0  0  0  0  0  0
  195.6660  169.1530  146.8110 C   0  0  0  0  0  2  0  0  0  0  0  0
  195.2630  170.4800  144.7520 C   0  0  2  0  0  3  0  0  0  0  0  0
  1 24  1  6  0  0  0
  1  7  1  0  0  0  0
  1  4  1  0  0  0  0
  2 13  1  6  0  0  0
  2  6  1  0  0  0  0
  3 27  1  0  0  0  0
  4  3  2  0  0  0  0
  5  7  2  0  0  0  0
  6  3  1  6  0  0  0
  6 21  1  0  0  0  0
  7  2  1  0  0  0  0
  8 14  2  0  0  0  0
  9 16  1  1  0  0  0
  9  8  1  0  0  0  0
 10  9  1  0  0  0  0
 10 11  1  0  0  0  0
 11 13  2  0  0  0  0
 12 10  2  0  0  0  0
 13 14  1  0  0  0  0
 16 15  1  0  0  0  0
 17 20  1  0  0  0  0
 18 20  1  0  0  0  0
 19 18  1  0  0  0  0
 20 23  1  1  0  0  0
 21 19  1  6  0  0  0
 21 17  1  0  0  0  0
 23 22  3  0  0  0  0
 24 26  1  0  0  0  0
 25 24  1  0  0  0  0
 28 27  1  0  0  0  0
 29 28  2  0  0  0  0
 30 34  1  0  0  0  0
 31 34  1  0  0  0  0
 32 35  1  0  0  0  0
 32 33  2  0  0  0  0
 33 30  1  0  0  0  0
 35 28  1  1  0  0  0
 35 31  1  0  0  0  0
M  END
>  <MODEL>
8

>  <REMARK>
 VINA RESULT:      -6.1      3.757      6.996
  Name = 
  7 active torsions:
  status: ('A' for Active; 'I' for Inactive)
    1  A    between atoms: C_1  and  C_6
    2  A    between atoms: C_3  and  C_27
    3  A    between atoms: N_10  and  C_16
    4  A    between atoms: C_11  and  C_35
    5  A    between atoms: C_13  and  C_18
    6  A    between atoms: C_22  and  C_29
    7  A    between atoms: C_28  and  C_33
                            x       y       z     vdW  Elec       q    Type
                         _______ _______ _______ _____ _____    ______ ____

>  <TORSDO>
F 7

$$$$
=
 OpenBabel11062420113D

 35 38  0  0  1  0  0  0  0  0999 V2000
  190.8680  172.2100  143.2170 C   0  0  1  0  0  3  0  0  0  0  0  0
  191.0650  174.0200  145.1220 C   0  0  2  0  0  3  0  0  0  0  0  0
  192.6020  174.0190  143.0900 C   0  0  0  0  0  0  0  0  0  0  0  0
  191.8590  173.0870  142.4890 C   0  0  0  0  0  3  0  0  0  0  0  0
  189.5340  172.2310  145.1740 O   0  0  0  0  0  0  0  0  0  0  0  0
  192.4800  174.2600  144.5810 C   0  0  2  0  0  3  0  0  0  0  0  0
  190.4140  172.7910  144.5390 C   0  0  0  0  0  0  0  0  0  0  0  0
  189.4020  177.0550  143.5150 C   0  0  0  0  0  3  0  0  0  0  0  0
  188.5550  177.6390  144.6190 C   0  0  2  0  0  3  0  0  0  0  0  0
  188.6600  176.8660  145.9100 C   0  0  0  0  0  0  0  0  0  0  0  0
  189.5040  175.6670  146.0070 C   0  0  0  0  0  3  0  0  0  0  0  0
  188.0360  177.2640  146.9300 O   0  0  0  0  0  0  0  0  0  0  0  0
  190.2050  175.2360  144.9600 C   0  0  0  0  0  0  0  0  0  0  0  0
  190.1520  175.9610  143.6730 C   0  0  0  0  0  3  0  0  0  0  0  0
  186.5930  176.4330  143.9780 O   0  0  0  0  0  1  0  0  0  0  0  0
  187.1030  177.7170  144.1720 C   0  0  0  0  0  2  0  0  0  0  0  0
  193.9080  171.8370  144.9080 S   0  0  0  0  0  0  0  0  0  0  0  0
  195.9110  173.3250  145.7650 C   0  0  0  0  0  2  0  0  0  0  0  0
  194.8590  174.3210  145.4480 C   0  0  0  0  0  2  0  0  0  0  0  0
  195.5670  172.0780  145.5100 C   0  0  1  0  0  3  0  0  0  0  0  0
  193.5450  173.5510  145.4320 C   0  0  1  0  0  3  0  0  0  0  0  0
  197.1430  170.0540  146.1390 C   0  0  0  0  0  3  0  0  0  0  0  0
  196.4210  170.9760  145.8550 C   0  0  0  0  0  0  0  0  0  0  0  0
  189.6840  171.8150  142.3240 C   0  0  0  0  0  3  0  0  0  0  0  0
  188.7290  172.9710  142.0740 C   0  0  0  0  0  1  0  0  0  0  0  0
  190.1600  171.2400  141.0030 C   0  0  0  0  0  1  0  0  0  0  0  0
  193.5110  174.7790  142.2870 N   0  0  0  0  0  2  0  0  0  0  0  0
  194.7810  174.3210  141.8060 C   0  0  0  0  0  0  0  0  0  0  0  0
  195.2940  173.2580  142.2460 O   0  0  0  0  0  0  0  0  0  0  0  0
  197.5250  175.2880  138.8010 O   0  0  0  0  0  0  0  0  0  0  0  0
  195.2900  174.5420  139.3760 C   0  0  0  0  0  2  0  0  0  0  0  0
  196.9790  175.1800  141.1160 C   0  0  0  0  0  3  0  0  0  0  0  0
  197.8970  175.2850  140.1530 C   0  0  0  0  0  3  0  0  0  0  0  0
  196.1580  175.3110  138.3870 C   0  0  0  0  0  2  0  0  0  0  0  0
  195.5170  175.1120  140.7770 C   0  0  2  0  0  3  0  0  0  0  0  0
  1 24  1  6  0  0  0
  1  7  1  0  0  0  0
  2 13  1  6  0  0  0
  4  3  2  0  0  0  0
  4  1  1  0  0  0  0
  6  3  1  6  0  0  0
  6  2  1  0  0  0  0
  6 21  1  0  0  0  0
  7  2  1  0  0  0  0
  7  5  2  0  0  0  0
  8 14  2  0  0  0  0
  8  9  1  0  0  0  0
  9 16  1  6  0  0  0
  9 10  1  0  0  0  0
 10 11  1  0  0  0  0
 10 12  2  0  0  0  0
 13 11  2  0  0  0  0
 14 13  1  0  0  0  0
 15 16  1  0  0  0  0
 17 21  1  0  0  0  0
 17 20  1  0  0  0  0
 19 18  1  0  0  0  0
 20 18  1  0  0  0  0
 20 23  1  1  0  0  0
 21 19  1  6  0  0  0
 23 22  3  0  0  0  0
 25 24  1  0  0  0  0
 26 24  1  0  0  0  0
 27  3  1  0  0  0  0
 28 29  2  0  0  0  0
 28 27  1  0  0  0  0
 30 33  1  0  0  0  0
 31 35  1  0  0  0  0
 33 32  2  0  0  0  0
 34 30  1  0  0  0  0
 34 31  1  0  0  0  0
 35 32  1  0  0  0  0
 35 28  1  1  0  0  0
M  END
>  <MODEL>
9

>  <REMARK>
 VINA RESULT:      -6.0      3.174      5.334
  Name = 
  7 active torsions:
  status: ('A' for Active; 'I' for Inactive)
    1  A    between atoms: C_1  and  C_6
    2  A    between atoms: C_3  and  C_27
    3  A    between atoms: N_10  and  C_16
    4  A    between atoms: C_11  and  C_35
    5  A    between atoms: C_13  and  C_18
    6  A    between atoms: C_22  and  C_29
    7  A    between atoms: C_28  and  C_33
                            x       y       z     vdW  Elec       q    Type
                         _______ _______ _______ _____ _____    ______ ____

>  <TORSDO>
F 7

$$$$
