=
 OpenBabel11062420113D

 52 55  0  0  1  0  0  0  0  0999 V2000
  187.4850  177.9010  146.4780 O   0  0  0  0  0  0  0  0  0  0  0  0
  183.8550  179.0590  143.7910 C   0  0  0  0  0  2  0  0  0  0  0  0
  186.7380  176.7280  144.5450 C   0  0  0  0  0  2  0  0  0  0  0  0
  185.2560  178.3410  145.7610 C   0  0  0  0  0  2  0  0  0  0  0  0
  186.6840  178.0240  145.3410 C   0  0  1  0  0  3  0  0  0  0  0  0
  184.7240  179.5160  144.9560 C   0  0  0  0  0  2  0  0  0  0  0  0
  186.3180  176.9580  143.0970 C   0  0  2  0  0  3  0  0  0  0  0  0
  184.9270  177.0690  143.0240 O   0  0  0  0  0  0  0  0  0  0  0  0
  184.6830  178.4050  142.6960 C   0  0  0  0  0  2  0  0  0  0  0  0
  186.7510  175.8370  142.2730 N   0  0  0  0  0  2  0  0  0  0  0  0
  188.7900  176.7990  141.6640 O   0  0  0  0  0  0  0  0  0  0  0  0
  188.0060  175.8170  141.5920 C   0  0  0  0  0  0  0  0  0  0  0  0
  188.4040  174.6110  140.8070 C   0  0  0  0  0  2  0  0  0  0  0  0
  189.2660  173.6650  141.6400 C   0  0  1  0  0  3  0  0  0  0  0  0
  187.2230  172.4610  141.8600 O   0  0  0  0  0  0  0  0  0  0  0  0
  188.8940  171.8240  143.3000 O   0  0  0  0  0  1  0  0  0  0  0  0
  188.4030  172.6250  142.2720 C   0  0  0  0  0  0  0  0  0  0  0  0
  190.3420  173.0070  140.7890 C   0  0  0  0  0  2  0  0  0  0  0  0
  193.0920  173.2070  139.9980 N   0  0  0  0  0  0  0  0  0  0  0  0
  194.4110  173.3450  139.5350 N   0  0  0  0  0  2  0  0  0  0  0  0
  192.8250  172.7350  141.1820 C   0  0  0  0  0  0  0  0  0  0  0  0
  191.4730  172.6370  141.6270 N   0  0  0  0  0  2  0  0  0  0  0  0
  195.5190  173.0290  140.3790 C   0  0  0  0  0  0  0  0  0  0  0  0
  195.3040  172.5370  141.5940 C   0  0  0  0  0  3  0  0  0  0  0  0
  193.9190  172.2570  142.1020 C   0  0  0  0  0  2  0  0  0  0  0  0
  197.9410  173.4760  139.5670 N   0  0  0  0  0  0  0  0  0  0  0  0
  196.8600  173.2780  139.9290 C   0  0  0  0  0  0  0  0  0  0  0  0
  188.2790  176.7790  146.2340 C   0  0  0  0  0  2  0  0  0  0  0  0
  191.9570  174.7770  144.7180 O   0  0  0  0  0  0  0  0  0  0  0  0
  190.6280  176.0500  146.3580 N   0  0  0  0  0  0  0  0  0  0  0  0
  192.2570  175.0920  147.7480 O   0  0  0  0  0  0  0  0  0  0  0  0
  193.2630  175.9170  142.2560 C   0  0  0  0  0  1  0  0  0  0  0  0
  189.7370  177.1910  146.1250 C   0  0  1  0  0  3  0  0  0  0  0  0
  191.4420  176.0310  147.5450 C   0  0  0  0  0  0  0  0  0  0  0  0
  193.0080  176.6700  143.5500 C   0  0  2  0  0  3  0  0  0  0  0  0
  193.0130  175.7320  144.7690 C   0  0  2  0  0  3  0  0  0  0  0  0
  190.0000  177.8410  144.7680 C   0  0  0  0  0  2  0  0  0  0  0  0
  191.3640  178.0970  144.5980 O   0  0  0  0  0  0  0  0  0  0  0  0
  190.7460  175.0040  145.3750 C   0  0  0  0  0  0  0  0  0  0  0  0
  189.7410  174.3080  145.0740 O   0  0  0  0  0  0  0  0  0  0  0  0
  191.6900  177.4290  143.4150 C   0  0  0  0  0  2  0  0  0  0  0  0
  191.3280  177.0690  148.5150 N   0  0  0  0  0  1  0  0  0  0  0  0
  195.9020  173.6440  145.4710 C   0  0  0  0  0  0  0  0  0  0  0  0
  196.5290  174.7480  145.0160 N   0  0  0  0  0  0  0  0  0  0  0  0
  194.5290  173.7800  145.4670 C   0  0  0  0  0  2  0  0  0  0  0  0
  194.3310  175.0610  144.9890 C   0  0  0  0  0  0  0  0  0  0  0  0
  195.5580  175.6320  144.7170 C   0  0  0  0  0  3  0  0  0  0  0  0
  196.6240  172.3980  145.8640 C   0  0  0  0  0  2  0  0  0  0  0  0
  196.3040  171.2600  144.9040 C   0  0  0  0  0  2  0  0  0  0  0  0
  196.2210  168.8760  145.6250 O   0  0  0  0  0  0  0  0  0  0  0  0
  195.6360  170.1330  145.6180 C   0  0  0  0  0  0  0  0  0  0  0  0
  194.5230  170.3120  146.1780 O   0  0  0  0  0  1  0  0  0  0  0  0
  2  6  1  0  0  0  0
  3  5  1  0  0  0  0
  5  4  1  0  0  0  0
  5  1  1  1  0  0  0
  6  4  1  0  0  0  0
  7 10  1  6  0  0  0
  7  3  1  0  0  0  0
  8  7  1  0  0  0  0
  9  8  1  0  0  0  0
  9  2  1  0  0  0  0
 12 11  2  0  0  0  0
 12 10  1  0  0  0  0
 13 12  1  0  0  0  0
 13 14  1  0  0  0  0
 14 18  1  6  0  0  0
 14 17  1  0  0  0  0
 15 17  2  0  0  0  0
 17 16  1  0  0  0  0
 18 22  1  0  0  0  0
 19 21  2  0  0  0  0
 20 19  1  0  0  0  0
 20 23  1  0  0  0  0
 21 22  1  0  0  0  0
 21 25  1  0  0  0  0
 23 24  2  0  0  0  0
 24 25  1  0  0  0  0
 26 27  3  0  0  0  0
 27 23  1  0  0  0  0
 28  1  1  0  0  0  0
 29 36  1  0  0  0  0
 29 39  1  0  0  0  0
 30 34  1  0  0  0  0
 33 28  1  6  0  0  0
 33 30  1  0  0  0  0
 34 31  2  0  0  0  0
 34 42  1  0  0  0  0
 35 32  1  6  0  0  0
 35 36  1  0  0  0  0
 36 46  1  6  0  0  0
 37 33  1  0  0  0  0
 38 37  1  0  0  0  0
 39 30  1  0  0  0  0
 40 39  2  0  0  0  0
 41 35  1  0  0  0  0
 41 38  1  0  0  0  0
 43 48  1  0  0  0  0
 44 43  2  0  0  0  0
 45 43  1  0  0  0  0
 46 45  1  0  0  0  0
 47 46  2  0  0  0  0
 47 44  1  0  0  0  0
 49 51  1  0  0  0  0
 49 48  1  0  0  0  0
 51 50  2  0  0  0  0
 51 52  1  0  0  0  0
M  END
>  <MODEL>
1

>  <REMARK>
 VINA RESULT:      -7.3      0.000      0.000
  Name = 
  14 active torsions:
  status: ('A' for Active; 'I' for Inactive)
    1  A    between atoms: C_10  and  C_50
    2  A    between atoms: N_11  and  C_39
    3  A    between atoms: C_12  and  C_27
    4  A    between atoms: O_16  and  C_17
    5  A    between atoms: O_16  and  C_50
    6  A    between atoms: C_18  and  N_22
    7  A    between atoms: C_18  and  C_32
    8  A    between atoms: C_25  and  C_31
    9  A    between atoms: C_26  and  C_35
   10  A    between atoms: C_27  and  C_52
   11  A    between atoms: C_28  and  C_52
   12  A    between atoms: C_32  and  C_43
   13  A    between atoms: C_32  and  C_49
   14  A    between atoms: C_49  and  C_51
                            x       y       z     vdW  Elec       q    Type
                         _______ _______ _______ _____ _____    ______ ____

>  <TORSDO>
F 14

$$$$
=
 OpenBabel11062420113D

 52 55  0  0  1  0  0  0  0  0999 V2000
  187.8550  177.5900  147.0770 O   0  0  0  0  0  0  0  0  0  0  0  0
  184.1830  179.0480  144.6020 C   0  0  0  0  0  2  0  0  0  0  0  0
  187.0230  176.5940  145.0800 C   0  0  0  0  0  2  0  0  0  0  0  0
  185.6190  178.1390  146.4650 C   0  0  0  0  0  2  0  0  0  0  0  0
  187.0260  177.8240  145.9780 C   0  0  1  0  0  3  0  0  0  0  0  0
  185.0960  179.3880  145.7730 C   0  0  0  0  0  2  0  0  0  0  0  0
  186.5690  176.9500  143.6680 C   0  0  2  0  0  3  0  0  0  0  0  0
  185.1800  177.1010  143.6470 O   0  0  0  0  0  0  0  0  0  0  0  0
  184.9620  178.4640  143.4340 C   0  0  0  0  0  2  0  0  0  0  0  0
  186.9480  175.8890  142.7450 N   0  0  0  0  0  2  0  0  0  0  0  0
  188.5390  177.1630  141.6030 O   0  0  0  0  0  0  0  0  0  0  0  0
  187.9510  176.0580  141.7420 C   0  0  0  0  0  0  0  0  0  0  0  0
  188.3230  174.9090  140.8650 C   0  0  0  0  0  2  0  0  0  0  0  0
  189.3280  173.9890  141.5520 C   0  0  1  0  0  3  0  0  0  0  0  0
  189.3220  171.7940  142.4760 O   0  0  0  0  0  1  0  0  0  0  0  0
  187.2540  172.6350  141.9410 O   0  0  0  0  0  0  0  0  0  0  0  0
  188.6410  172.7460  142.0100 C   0  0  0  0  0  0  0  0  0  0  0  0
  190.4790  173.6370  140.6200 C   0  0  0  0  0  2  0  0  0  0  0  0
  192.8720  174.1170  139.1130 N   0  0  0  0  0  0  0  0  0  0  0  0
  193.9960  174.3350  138.3000 N   0  0  0  0  0  2  0  0  0  0  0  0
  192.9040  174.3200  140.3990 C   0  0  0  0  0  0  0  0  0  0  0  0
  191.7320  174.1140  141.1870 N   0  0  0  0  0  2  0  0  0  0  0  0
  195.2080  174.8520  138.8500 C   0  0  0  0  0  0  0  0  0  0  0  0
  195.2990  175.0690  140.1580 C   0  0  0  0  0  3  0  0  0  0  0  0
  194.1710  174.7460  141.0950 C   0  0  0  0  0  2  0  0  0  0  0  0
  197.2030  175.4290  137.2970 N   0  0  0  0  0  0  0  0  0  0  0  0
  196.3120  175.1710  137.9900 C   0  0  0  0  0  0  0  0  0  0  0  0
  189.1470  177.8310  146.6060 C   0  0  0  0  0  2  0  0  0  0  0  0
  191.9980  175.1240  144.5130 O   0  0  0  0  0  0  0  0  0  0  0  0
  190.1570  175.6510  146.0650 N   0  0  0  0  0  0  0  0  0  0  0  0
  189.6930  173.4060  145.5650 O   0  0  0  0  0  0  0  0  0  0  0  0
  194.9330  175.4510  145.0990 C   0  0  0  0  0  1  0  0  0  0  0  0
  190.0800  176.7220  147.0630 C   0  0  1  0  0  3  0  0  0  0  0  0
  189.5960  174.3630  146.3790 C   0  0  0  0  0  0  0  0  0  0  0  0
  193.8550  175.1500  146.1270 C   0  0  2  0  0  3  0  0  0  0  0  0
  192.6800  174.3710  145.5110 C   0  0  2  0  0  3  0  0  0  0  0  0
  191.4600  177.2940  147.3810 C   0  0  0  0  0  2  0  0  0  0  0  0
  192.3660  176.2680  147.6670 O   0  0  0  0  0  0  0  0  0  0  0  0
  190.8520  175.8600  144.8220 C   0  0  0  0  0  0  0  0  0  0  0  0
  190.4500  176.7410  144.0160 O   0  0  0  0  0  0  0  0  0  0  0  0
  193.4050  176.4680  146.7530 C   0  0  0  0  0  2  0  0  0  0  0  0
  188.9120  174.1550  147.6120 N   0  0  0  0  0  1  0  0  0  0  0  0
  193.9970  171.0820  144.7050 C   0  0  0  0  0  0  0  0  0  0  0  0
  193.1040  171.2170  143.7050 N   0  0  0  0  0  0  0  0  0  0  0  0
  194.0160  172.1780  145.5440 C   0  0  0  0  0  2  0  0  0  0  0  0
  193.0760  173.0260  144.9910 C   0  0  0  0  0  0  0  0  0  0  0  0
  192.5300  172.4220  143.8770 C   0  0  0  0  0  3  0  0  0  0  0  0
  194.8160  169.8510  144.9100 C   0  0  0  0  0  2  0  0  0  0  0  0
  194.5980  169.2810  146.3050 C   0  0  0  0  0  2  0  0  0  0  0  0
  195.9930  168.3070  148.1270 O   0  0  0  0  0  1  0  0  0  0  0  0
  195.8060  168.5410  146.7720 C   0  0  0  0  0  0  0  0  0  0  0  0
  196.6770  168.1660  145.9430 O   0  0  0  0  0  0  0  0  0  0  0  0
  2  6  1  0  0  0  0
  3  5  1  0  0  0  0
  5  4  1  0  0  0  0
  5  1  1  1  0  0  0
  6  4  1  0  0  0  0
  7 10  1  6  0  0  0
  7  3  1  0  0  0  0
  8  7  1  0  0  0  0
  9  8  1  0  0  0  0
  9  2  1  0  0  0  0
 11 12  2  0  0  0  0
 12 10  1  0  0  0  0
 13 14  1  0  0  0  0
 13 12  1  0  0  0  0
 14 18  1  6  0  0  0
 14 17  1  0  0  0  0
 16 17  2  0  0  0  0
 17 15  1  0  0  0  0
 18 22  1  0  0  0  0
 19 21  2  0  0  0  0
 20 23  1  0  0  0  0
 20 19  1  0  0  0  0
 21 25  1  0  0  0  0
 21 22  1  0  0  0  0
 23 24  2  0  0  0  0
 24 25  1  0  0  0  0
 26 27  3  0  0  0  0
 27 23  1  0  0  0  0
 28  1  1  0  0  0  0
 29 39  1  0  0  0  0
 29 36  1  0  0  0  0
 30 34  1  0  0  0  0
 30 33  1  0  0  0  0
 31 34  2  0  0  0  0
 33 28  1  6  0  0  0
 33 37  1  0  0  0  0
 34 42  1  0  0  0  0
 35 32  1  6  0  0  0
 35 41  1  0  0  0  0
 36 46  1  6  0  0  0
 36 35  1  0  0  0  0
 37 38  1  0  0  0  0
 39 30  1  0  0  0  0
 40 39  2  0  0  0  0
 41 38  1  0  0  0  0
 43 48  1  0  0  0  0
 43 45  1  0  0  0  0
 44 47  1  0  0  0  0
 44 43  2  0  0  0  0
 46 45  1  0  0  0  0
 47 46  2  0  0  0  0
 48 49  1  0  0  0  0
 49 51  1  0  0  0  0
 51 50  1  0  0  0  0
 52 51  2  0  0  0  0
M  END
>  <MODEL>
2

>  <REMARK>
 VINA RESULT:      -7.3      1.688      2.324
  Name = 
  14 active torsions:
  status: ('A' for Active; 'I' for Inactive)
    1  A    between atoms: C_10  and  C_50
    2  A    between atoms: N_11  and  C_39
    3  A    between atoms: C_12  and  C_27
    4  A    between atoms: O_16  and  C_17
    5  A    between atoms: O_16  and  C_50
    6  A    between atoms: C_18  and  N_22
    7  A    between atoms: C_18  and  C_32
    8  A    between atoms: C_25  and  C_31
    9  A    between atoms: C_26  and  C_35
   10  A    between atoms: C_27  and  C_52
   11  A    between atoms: C_28  and  C_52
   12  A    between atoms: C_32  and  C_43
   13  A    between atoms: C_32  and  C_49
   14  A    between atoms: C_49  and  C_51
                            x       y       z     vdW  Elec       q    Type
                         _______ _______ _______ _____ _____    ______ ____

>  <TORSDO>
F 14

$$$$
=
 OpenBabel11062420113D

 52 55  0  0  1  0  0  0  0  0999 V2000
  188.0160  177.6720  146.9960 O   0  0  0  0  0  0  0  0  0  0  0  0
  184.1380  178.8410  144.6880 C   0  0  0  0  0  2  0  0  0  0  0  0
  187.1470  176.5790  145.0670 C   0  0  0  0  0  2  0  0  0  0  0  0
  185.7220  178.0680  146.4910 C   0  0  0  0  0  2  0  0  0  0  0  0
  187.1190  177.8280  145.9370 C   0  0  1  0  0  3  0  0  0  0  0  0
  185.0870  179.2650  145.8010 C   0  0  0  0  0  2  0  0  0  0  0  0
  186.6000  176.8710  143.6740 C   0  0  2  0  0  3  0  0  0  0  0  0
  185.2050  176.9360  143.7230 O   0  0  0  0  0  0  0  0  0  0  0  0
  184.8910  178.2780  143.4930 C   0  0  0  0  0  2  0  0  0  0  0  0
  186.9970  175.8140  142.7550 N   0  0  0  0  0  2  0  0  0  0  0  0
  188.4870  177.1390  141.5390 O   0  0  0  0  0  0  0  0  0  0  0  0
  187.9570  176.0120  141.7150 C   0  0  0  0  0  0  0  0  0  0  0  0
  188.3520  174.8660  140.8440 C   0  0  0  0  0  2  0  0  0  0  0  0
  189.4140  173.9990  141.5150 C   0  0  1  0  0  3  0  0  0  0  0  0
  189.5960  171.6910  142.0730 O   0  0  0  0  0  1  0  0  0  0  0  0
  187.4530  172.5070  141.9760 O   0  0  0  0  0  0  0  0  0  0  0  0
  188.8310  172.6700  141.8640 C   0  0  0  0  0  0  0  0  0  0  0  0
  190.6270  173.8180  140.6130 C   0  0  0  0  0  2  0  0  0  0  0  0
  193.1640  174.1750  139.3220 N   0  0  0  0  0  0  0  0  0  0  0  0
  194.3670  174.3210  138.6140 N   0  0  0  0  0  2  0  0  0  0  0  0
  193.0470  174.5500  140.5640 C   0  0  0  0  0  0  0  0  0  0  0  0
  191.7980  174.4110  141.2410 N   0  0  0  0  0  2  0  0  0  0  0  0
  195.4990  174.9500  139.2170 C   0  0  0  0  0  0  0  0  0  0  0  0
  195.4380  175.3450  140.4840 C   0  0  0  0  0  3  0  0  0  0  0  0
  194.2180  175.1110  141.3290 C   0  0  0  0  0  2  0  0  0  0  0  0
  197.6440  175.3820  137.8250 N   0  0  0  0  0  0  0  0  0  0  0  0
  196.6860  175.1890  138.4450 C   0  0  0  0  0  0  0  0  0  0  0  0
  189.2800  177.7800  146.4110 C   0  0  0  0  0  2  0  0  0  0  0  0
  192.1870  175.0580  144.4200 O   0  0  0  0  0  0  0  0  0  0  0  0
  190.2820  175.5930  145.8900 N   0  0  0  0  0  0  0  0  0  0  0  0
  189.8110  173.3610  145.3380 O   0  0  0  0  0  0  0  0  0  0  0  0
  195.0960  175.3340  145.1490 C   0  0  0  0  0  1  0  0  0  0  0  0
  190.1740  176.6520  146.8970 C   0  0  1  0  0  3  0  0  0  0  0  0
  189.6890  174.3090  146.1600 C   0  0  0  0  0  0  0  0  0  0  0  0
  193.9660  175.0360  146.1190 C   0  0  2  0  0  3  0  0  0  0  0  0
  192.8110  174.2820  145.4390 C   0  0  2  0  0  3  0  0  0  0  0  0
  191.5450  177.1990  147.2880 C   0  0  0  0  0  2  0  0  0  0  0  0
  192.4220  176.1560  147.6020 O   0  0  0  0  0  0  0  0  0  0  0  0
  191.0390  175.8080  144.6830 C   0  0  0  0  0  0  0  0  0  0  0  0
  190.6880  176.7040  143.8720 O   0  0  0  0  0  0  0  0  0  0  0  0
  193.5050  176.3520  146.7420 C   0  0  0  0  0  2  0  0  0  0  0  0
  188.9440  174.0960  147.3560 N   0  0  0  0  0  1  0  0  0  0  0  0
  193.4780  171.1600  143.7050 C   0  0  0  0  0  0  0  0  0  0  0  0
  194.2010  170.9540  144.8250 N   0  0  0  0  0  2  0  0  0  0  0  0
  192.8470  172.3870  143.7060 C   0  0  0  0  0  3  0  0  0  0  0  0
  193.2120  172.9390  144.9190 C   0  0  0  0  0  0  0  0  0  0  0  0
  194.0370  172.0540  145.5830 C   0  0  0  0  0  3  0  0  0  0  0  0
  193.4340  170.1920  142.5710 C   0  0  0  0  0  2  0  0  0  0  0  0
  193.2410  170.9160  141.2450 C   0  0  0  0  0  2  0  0  0  0  0  0
  192.7050  168.7060  140.2260 O   0  0  0  0  0  1  0  0  0  0  0  0
  192.4740  170.0720  140.2840 C   0  0  0  0  0  0  0  0  0  0  0  0
  191.6490  170.6030  139.4950 O   0  0  0  0  0  0  0  0  0  0  0  0
  2  6  1  0  0  0  0
  3  5  1  0  0  0  0
  5  4  1  0  0  0  0
  5  1  1  1  0  0  0
  6  4  1  0  0  0  0
  7 10  1  6  0  0  0
  7  8  1  0  0  0  0
  7  3  1  0  0  0  0
  9  8  1  0  0  0  0
  9  2  1  0  0  0  0
 11 12  2  0  0  0  0
 12 10  1  0  0  0  0
 13 14  1  0  0  0  0
 13 12  1  0  0  0  0
 14 18  1  6  0  0  0
 14 17  1  0  0  0  0
 17 16  2  0  0  0  0
 17 15  1  0  0  0  0
 18 22  1  0  0  0  0
 19 21  2  0  0  0  0
 20 23  1  0  0  0  0
 20 19  1  0  0  0  0
 21 22  1  0  0  0  0
 21 25  1  0  0  0  0
 23 24  2  0  0  0  0
 24 25  1  0  0  0  0
 26 27  3  0  0  0  0
 27 23  1  0  0  0  0
 28  1  1  0  0  0  0
 29 39  1  0  0  0  0
 29 36  1  0  0  0  0
 30 34  1  0  0  0  0
 30 33  1  0  0  0  0
 31 34  2  0  0  0  0
 33 28  1  6  0  0  0
 33 37  1  0  0  0  0
 34 42  1  0  0  0  0
 35 32  1  6  0  0  0
 35 41  1  0  0  0  0
 36 46  1  6  0  0  0
 36 35  1  0  0  0  0
 37 38  1  0  0  0  0
 39 30  1  0  0  0  0
 40 39  2  0  0  0  0
 41 38  1  0  0  0  0
 43 45  2  0  0  0  0
 43 44  1  0  0  0  0
 44 47  1  0  0  0  0
 45 46  1  0  0  0  0
 46 47  2  0  0  0  0
 48 43  1  0  0  0  0
 49 48  1  0  0  0  0
 50 51  1  0  0  0  0
 51 49  1  0  0  0  0
 52 51  2  0  0  0  0
M  END
>  <MODEL>
3

>  <REMARK>
 VINA RESULT:      -7.3      1.991      2.862
  Name = 
  14 active torsions:
  status: ('A' for Active; 'I' for Inactive)
    1  A    between atoms: C_10  and  C_50
    2  A    between atoms: N_11  and  C_39
    3  A    between atoms: C_12  and  C_27
    4  A    between atoms: O_16  and  C_17
    5  A    between atoms: O_16  and  C_50
    6  A    between atoms: C_18  and  N_22
    7  A    between atoms: C_18  and  C_32
    8  A    between atoms: C_25  and  C_31
    9  A    between atoms: C_26  and  C_35
   10  A    between atoms: C_27  and  C_52
   11  A    between atoms: C_28  and  C_52
   12  A    between atoms: C_32  and  C_43
   13  A    between atoms: C_32  and  C_49
   14  A    between atoms: C_49  and  C_51
                            x       y       z     vdW  Elec       q    Type
                         _______ _______ _______ _____ _____    ______ ____

>  <TORSDO>
F 14

$$$$
=
 OpenBabel11062420113D

 52 55  0  0  1  0  0  0  0  0999 V2000
  187.5890  177.8340  146.6010 O   0  0  0  0  0  0  0  0  0  0  0  0
  183.7890  179.0410  144.1860 C   0  0  0  0  0  2  0  0  0  0  0  0
  186.7520  176.7370  144.6600 C   0  0  0  0  0  2  0  0  0  0  0  0
  185.3150  178.2600  146.0350 C   0  0  0  0  0  2  0  0  0  0  0  0
  186.7220  177.9940  145.5190 C   0  0  1  0  0  3  0  0  0  0  0  0
  184.7150  179.4600  145.3190 C   0  0  0  0  0  2  0  0  0  0  0  0
  186.2450  177.0260  143.2510 C   0  0  2  0  0  3  0  0  0  0  0  0
  184.8500  177.1120  143.2640 O   0  0  0  0  0  0  0  0  0  0  0  0
  184.5630  178.4560  143.0150 C   0  0  0  0  0  2  0  0  0  0  0  0
  186.6490  175.9540  142.3520 N   0  0  0  0  0  2  0  0  0  0  0  0
  188.5340  177.0650  141.5340 O   0  0  0  0  0  0  0  0  0  0  0  0
  187.8130  176.0330  141.5280 C   0  0  0  0  0  0  0  0  0  0  0  0
  188.1930  174.8740  140.6680 C   0  0  0  0  0  2  0  0  0  0  0  0
  189.2990  174.0430  141.3130 C   0  0  1  0  0  3  0  0  0  0  0  0
  187.4680  172.6820  141.9950 O   0  0  0  0  0  0  0  0  0  0  0  0
  189.5440  171.7560  142.3110 O   0  0  0  0  0  1  0  0  0  0  0  0
  188.7180  172.7970  141.8940 C   0  0  0  0  0  0  0  0  0  0  0  0
  190.3850  173.6940  140.3050 C   0  0  0  0  0  2  0  0  0  0  0  0
  191.2640  171.6160  138.5320 N   0  0  0  0  0  0  0  0  0  0  0  0
  191.7530  170.5730  137.7290 N   0  0  0  0  0  2  0  0  0  0  0  0
  190.2650  172.3630  138.1580 C   0  0  0  0  0  0  0  0  0  0  0  0
  189.7790  173.3950  139.0150 N   0  0  0  0  0  2  0  0  0  0  0  0
  191.1240  170.2500  136.4880 C   0  0  0  0  0  0  0  0  0  0  0  0
  190.1050  170.9840  136.0540 C   0  0  0  0  0  3  0  0  0  0  0  0
  189.6120  172.1830  136.8110 C   0  0  0  0  0  2  0  0  0  0  0  0
  191.9230  168.1970  135.1190 N   0  0  0  0  0  0  0  0  0  0  0  0
  191.5670  169.1140  135.7310 C   0  0  0  0  0  0  0  0  0  0  0  0
  188.3340  176.6940  146.2950 C   0  0  0  0  0  2  0  0  0  0  0  0
  191.8680  174.5760  144.6050 O   0  0  0  0  0  0  0  0  0  0  0  0
  190.6670  175.9060  146.2970 N   0  0  0  0  0  0  0  0  0  0  0  0
  192.3480  174.9250  147.6080 O   0  0  0  0  0  0  0  0  0  0  0  0
  193.0610  175.6470  142.0560 C   0  0  0  0  0  1  0  0  0  0  0  0
  189.7940  177.0660  146.0970 C   0  0  1  0  0  3  0  0  0  0  0  0
  191.5470  175.8820  147.4370 C   0  0  0  0  0  0  0  0  0  0  0  0
  192.8990  176.4250  143.3510 C   0  0  2  0  0  3  0  0  0  0  0  0
  192.9490  175.5030  144.5810 C   0  0  2  0  0  3  0  0  0  0  0  0
  189.9950  177.6900  144.7180 C   0  0  0  0  0  2  0  0  0  0  0  0
  191.3530  177.9080  144.4680 O   0  0  0  0  0  0  0  0  0  0  0  0
  190.7030  174.8430  145.3260 C   0  0  0  0  0  0  0  0  0  0  0  0
  189.6650  174.1690  145.0920 O   0  0  0  0  0  0  0  0  0  0  0  0
  191.5950  177.2160  143.2780 C   0  0  0  0  0  2  0  0  0  0  0  0
  191.5140  176.9360  148.3950 N   0  0  0  0  0  1  0  0  0  0  0  0
  195.8370  173.3150  144.8420 C   0  0  0  0  0  0  0  0  0  0  0  0
  196.4370  174.5040  145.0540 N   0  0  0  0  0  2  0  0  0  0  0  0
  194.4800  173.4420  144.6290 C   0  0  0  0  0  3  0  0  0  0  0  0
  194.2610  174.8020  144.7370 C   0  0  0  0  0  0  0  0  0  0  0  0
  195.4630  175.4300  144.9910 C   0  0  0  0  0  3  0  0  0  0  0  0
  196.5830  172.0230  144.7770 C   0  0  0  0  0  2  0  0  0  0  0  0
  196.5920  171.3340  146.1350 C   0  0  0  0  0  2  0  0  0  0  0  0
  195.6730  169.2930  147.2320 O   0  0  0  0  0  1  0  0  0  0  0  0
  195.7150  170.1260  146.1240 C   0  0  0  0  0  0  0  0  0  0  0  0
  195.0470  169.8400  145.0960 O   0  0  0  0  0  0  0  0  0  0  0  0
  2  6  1  0  0  0  0
  3  5  1  0  0  0  0
  5  4  1  0  0  0  0
  5  1  1  1  0  0  0
  6  4  1  0  0  0  0
  7 10  1  6  0  0  0
  7  8  1  0  0  0  0
  7  3  1  0  0  0  0
  9  8  1  0  0  0  0
  9  2  1  0  0  0  0
 12 11  2  0  0  0  0
 12 10  1  0  0  0  0
 13 14  1  0  0  0  0
 13 12  1  0  0  0  0
 14 18  1  6  0  0  0
 14 17  1  0  0  0  0
 17 15  2  0  0  0  0
 17 16  1  0  0  0  0
 20 19  1  0  0  0  0
 21 19  2  0  0  0  0
 21 22  1  0  0  0  0
 22 18  1  0  0  0  0
 23 20  1  0  0  0  0
 24 23  2  0  0  0  0
 24 25  1  0  0  0  0
 25 21  1  0  0  0  0
 26 27  3  0  0  0  0
 27 23  1  0  0  0  0
 28  1  1  0  0  0  0
 29 39  1  0  0  0  0
 30 34  1  0  0  0  0
 33 28  1  6  0  0  0
 33 30  1  0  0  0  0
 34 31  2  0  0  0  0
 34 42  1  0  0  0  0
 35 32  1  6  0  0  0
 35 36  1  0  0  0  0
 36 29  1  0  0  0  0
 36 46  1  6  0  0  0
 37 33  1  0  0  0  0
 38 37  1  0  0  0  0
 39 30  1  0  0  0  0
 40 39  2  0  0  0  0
 41 35  1  0  0  0  0
 41 38  1  0  0  0  0
 43 44  1  0  0  0  0
 45 46  1  0  0  0  0
 45 43  2  0  0  0  0
 46 47  2  0  0  0  0
 47 44  1  0  0  0  0
 48 43  1  0  0  0  0
 48 49  1  0  0  0  0
 51 49  1  0  0  0  0
 51 50  1  0  0  0  0
 52 51  2  0  0  0  0
M  END
>  <MODEL>
4

>  <REMARK>
 VINA RESULT:      -7.3      2.036      2.639
  Name = 
  14 active torsions:
  status: ('A' for Active; 'I' for Inactive)
    1  A    between atoms: C_10  and  C_50
    2  A    between atoms: N_11  and  C_39
    3  A    between atoms: C_12  and  C_27
    4  A    between atoms: O_16  and  C_17
    5  A    between atoms: O_16  and  C_50
    6  A    between atoms: C_18  and  N_22
    7  A    between atoms: C_18  and  C_32
    8  A    between atoms: C_25  and  C_31
    9  A    between atoms: C_26  and  C_35
   10  A    between atoms: C_27  and  C_52
   11  A    between atoms: C_28  and  C_52
   12  A    between atoms: C_32  and  C_43
   13  A    between atoms: C_32  and  C_49
   14  A    between atoms: C_49  and  C_51
                            x       y       z     vdW  Elec       q    Type
                         _______ _______ _______ _____ _____    ______ ____

>  <TORSDO>
F 14

$$$$
=
 OpenBabel11062420113D

 52 55  0  0  1  0  0  0  0  0999 V2000
  188.3170  176.0790  146.7530 O   0  0  0  0  0  0  0  0  0  0  0  0
  184.4410  178.6660  146.8670 C   0  0  0  0  0  2  0  0  0  0  0  0
  186.8050  176.4230  144.9460 C   0  0  0  0  0  2  0  0  0  0  0  0
  186.1390  176.8580  147.3210 C   0  0  0  0  0  2  0  0  0  0  0  0
  187.2780  176.9000  146.3120 C   0  0  1  0  0  3  0  0  0  0  0  0
  185.6850  178.2710  147.6530 C   0  0  0  0  0  2  0  0  0  0  0  0
  186.0570  177.5300  144.2100 C   0  0  2  0  0  3  0  0  0  0  0  0
  184.7670  177.6500  144.7320 O   0  0  0  0  0  0  0  0  0  0  0  0
  184.7520  178.8800  145.3950 C   0  0  0  0  0  2  0  0  0  0  0  0
  185.9700  177.2090  142.7920 N   0  0  0  0  0  2  0  0  0  0  0  0
  187.3450  178.9640  142.0940 O   0  0  0  0  0  0  0  0  0  0  0  0
  186.6500  177.9610  141.7850 C   0  0  0  0  0  0  0  0  0  0  0  0
  186.5550  177.5410  140.3560 C   0  0  0  0  0  2  0  0  0  0  0  0
  187.0170  176.0980  140.1690 C   0  0  1  0  0  3  0  0  0  0  0  0
  186.6910  176.6060  137.8650 O   0  0  0  0  0  0  0  0  0  0  0  0
  187.8170  174.6500  138.2860 O   0  0  0  0  0  1  0  0  0  0  0  0
  187.1590  175.8000  138.7140 C   0  0  0  0  0  0  0  0  0  0  0  0
  188.3340  175.8440  140.8870 C   0  0  0  0  0  2  0  0  0  0  0  0
  190.1280  173.6490  140.4480 N   0  0  0  0  0  0  0  0  0  0  0  0
  191.0530  172.6280  140.1780 N   0  0  0  0  0  2  0  0  0  0  0  0
  189.1760  173.5000  141.3250 C   0  0  0  0  0  0  0  0  0  0  0  0
  188.2730  174.5720  141.5910 N   0  0  0  0  0  2  0  0  0  0  0  0
  191.0210  171.4000  140.9070 C   0  0  0  0  0  0  0  0  0  0  0  0
  190.0670  171.1920  141.8070 C   0  0  0  0  0  3  0  0  0  0  0  0
  188.9800  172.1980  142.0570 C   0  0  0  0  0  2  0  0  0  0  0  0
  192.8610  169.6120  140.5230 N   0  0  0  0  0  0  0  0  0  0  0  0
  192.0390  170.4100  140.6950 C   0  0  0  0  0  0  0  0  0  0  0  0
  188.9390  175.6330  145.5850 C   0  0  0  0  0  2  0  0  0  0  0  0
  193.0110  176.6180  144.0760 O   0  0  0  0  0  0  0  0  0  0  0  0
  191.1740  175.0980  144.7010 N   0  0  0  0  0  0  0  0  0  0  0  0
  192.3500  173.7720  143.1640 O   0  0  0  0  0  0  0  0  0  0  0  0
  194.9420  177.9140  145.9880 C   0  0  0  0  0  1  0  0  0  0  0  0
  190.3350  175.1240  145.9030 C   0  0  1  0  0  3  0  0  0  0  0  0
  191.5850  173.8280  144.1630 C   0  0  0  0  0  0  0  0  0  0  0  0
  194.2610  176.5720  146.1950 C   0  0  2  0  0  3  0  0  0  0  0  0
  193.9450  175.8800  144.8580 C   0  0  2  0  0  3  0  0  0  0  0  0
  190.9630  175.9680  147.0090 C   0  0  0  0  0  2  0  0  0  0  0  0
  192.2960  175.6020  147.2140 O   0  0  0  0  0  0  0  0  0  0  0  0
  191.6460  176.3260  144.1140 C   0  0  0  0  0  0  0  0  0  0  0  0
  190.8220  177.1650  143.6640 O   0  0  0  0  0  0  0  0  0  0  0  0
  193.0070  176.7920  147.0380 C   0  0  0  0  0  2  0  0  0  0  0  0
  191.1210  172.6140  144.7470 N   0  0  0  0  0  1  0  0  0  0  0  0
  196.7020  175.4500  142.5320 C   0  0  0  0  0  0  0  0  0  0  0  0
  197.1300  174.6580  143.5350 N   0  0  0  0  0  2  0  0  0  0  0  0
  195.4870  176.0410  142.8100 C   0  0  0  0  0  3  0  0  0  0  0  0
  195.1680  175.5520  144.0630 C   0  0  0  0  0  0  0  0  0  0  0  0
  196.1810  174.7160  144.4880 C   0  0  0  0  0  3  0  0  0  0  0  0
  197.4980  175.7050  141.2950 C   0  0  0  0  0  2  0  0  0  0  0  0
  197.6020  174.4440  140.4470 C   0  0  0  0  0  2  0  0  0  0  0  0
  195.6300  175.2630  139.1620 O   0  0  0  0  0  0  0  0  0  0  0  0
  196.3330  174.1970  139.7030 C   0  0  0  0  0  0  0  0  0  0  0  0
  195.8770  173.0280  139.6030 O   0  0  0  0  0  1  0  0  0  0  0  0
  2  6  1  0  0  0  0
  3  5  1  0  0  0  0
  4  6  1  0  0  0  0
  5  1  1  1  0  0  0
  5  4  1  0  0  0  0
  7 10  1  6  0  0  0
  7  8  1  0  0  0  0
  7  3  1  0  0  0  0
  8  9  1  0  0  0  0
  9  2  1  0  0  0  0
 12 11  2  0  0  0  0
 12 10  1  0  0  0  0
 13 12  1  0  0  0  0
 14 13  1  6  0  0  0
 14 18  1  0  0  0  0
 15 17  2  0  0  0  0
 16 17  1  0  0  0  0
 17 14  1  0  0  0  0
 18 22  1  0  0  0  0
 19 21  2  0  0  0  0
 20 19  1  0  0  0  0
 20 23  1  0  0  0  0
 21 22  1  0  0  0  0
 21 25  1  0  0  0  0
 23 24  2  0  0  0  0
 24 25  1  0  0  0  0
 26 27  3  0  0  0  0
 27 23  1  0  0  0  0
 28  1  1  0  0  0  0
 29 39  1  0  0  0  0
 29 36  1  0  0  0  0
 30 33  1  0  0  0  0
 31 34  2  0  0  0  0
 33 28  1  6  0  0  0
 33 37  1  0  0  0  0
 34 30  1  0  0  0  0
 34 42  1  0  0  0  0
 35 32  1  6  0  0  0
 35 41  1  0  0  0  0
 36 46  1  6  0  0  0
 36 35  1  0  0  0  0
 37 38  1  0  0  0  0
 39 30  1  0  0  0  0
 40 39  2  0  0  0  0
 41 38  1  0  0  0  0
 43 45  2  0  0  0  0
 43 44  1  0  0  0  0
 44 47  1  0  0  0  0
 45 46  1  0  0  0  0
 46 47  2  0  0  0  0
 48 43  1  0  0  0  0
 49 48  1  0  0  0  0
 50 51  2  0  0  0  0
 51 49  1  0  0  0  0
 52 51  1  0  0  0  0
M  END
>  <MODEL>
5

>  <REMARK>
 VINA RESULT:      -7.1      2.449      4.034
  Name = 
  14 active torsions:
  status: ('A' for Active; 'I' for Inactive)
    1  A    between atoms: C_10  and  C_50
    2  A    between atoms: N_11  and  C_39
    3  A    between atoms: C_12  and  C_27
    4  A    between atoms: O_16  and  C_17
    5  A    between atoms: O_16  and  C_50
    6  A    between atoms: C_18  and  N_22
    7  A    between atoms: C_18  and  C_32
    8  A    between atoms: C_25  and  C_31
    9  A    between atoms: C_26  and  C_35
   10  A    between atoms: C_27  and  C_52
   11  A    between atoms: C_28  and  C_52
   12  A    between atoms: C_32  and  C_43
   13  A    between atoms: C_32  and  C_49
   14  A    between atoms: C_49  and  C_51
                            x       y       z     vdW  Elec       q    Type
                         _______ _______ _______ _____ _____    ______ ____

>  <TORSDO>
F 14

$$$$
=
 OpenBabel11062420113D

 52 55  0  0  1  0  0  0  0  0999 V2000
  187.2330  176.9400  146.9500 O   0  0  0  0  0  0  0  0  0  0  0  0
  183.7660  179.0300  144.6380 C   0  0  0  0  0  2  0  0  0  0  0  0
  186.5600  176.4810  144.7120 C   0  0  0  0  0  2  0  0  0  0  0  0
  185.0520  177.6650  146.3230 C   0  0  0  0  0  2  0  0  0  0  0  0
  186.4930  177.4520  145.8820 C   0  0  1  0  0  3  0  0  0  0  0  0
  184.5840  179.0560  145.9220 C   0  0  0  0  0  2  0  0  0  0  0  0
  186.2180  177.1810  143.4010 C   0  0  2  0  0  3  0  0  0  0  0  0
  184.8360  177.3590  143.3110 O   0  0  0  0  0  0  0  0  0  0  0  0
  184.6340  178.7370  143.4250 C   0  0  0  0  0  2  0  0  0  0  0  0
  186.6700  176.3720  142.2770 N   0  0  0  0  0  2  0  0  0  0  0  0
  188.1790  177.9600  141.4670 O   0  0  0  0  0  0  0  0  0  0  0  0
  187.6640  176.8180  141.3520 C   0  0  0  0  0  0  0  0  0  0  0  0
  188.1130  175.9120  140.2540 C   0  0  0  0  0  2  0  0  0  0  0  0
  188.4840  174.5320  140.7890 C   0  0  1  0  0  3  0  0  0  0  0  0
  187.8530  172.4950  139.7290 O   0  0  0  0  0  1  0  0  0  0  0  0
  189.3110  173.8060  138.5360 O   0  0  0  0  0  0  0  0  0  0  0  0
  188.5330  173.5530  139.6630 C   0  0  0  0  0  0  0  0  0  0  0  0
  189.8210  174.5630  141.5140 C   0  0  0  0  0  2  0  0  0  0  0  0
  191.7380  172.5530  140.7980 N   0  0  0  0  0  0  0  0  0  0  0  0
  192.7080  171.6250  140.3850 N   0  0  0  0  0  2  0  0  0  0  0  0
  190.9730  172.3340  141.8290 C   0  0  0  0  0  0  0  0  0  0  0  0
  190.0190  173.3140  142.2350 N   0  0  0  0  0  2  0  0  0  0  0  0
  192.9340  170.4240  141.1240 C   0  0  0  0  0  0  0  0  0  0  0  0
  192.1760  170.1470  142.1790 C   0  0  0  0  0  3  0  0  0  0  0  0
  191.0470  171.0420  142.6020 C   0  0  0  0  0  2  0  0  0  0  0  0
  194.8600  168.8230  140.4510 N   0  0  0  0  0  0  0  0  0  0  0  0
  194.0000  169.5380  140.7510 C   0  0  0  0  0  0  0  0  0  0  0  0
  188.4680  177.5860  146.8700 C   0  0  0  0  0  2  0  0  0  0  0  0
  191.9700  175.8850  144.7080 O   0  0  0  0  0  0  0  0  0  0  0  0
  189.9540  175.7710  146.1210 N   0  0  0  0  0  0  0  0  0  0  0  0
  190.0160  173.5920  145.2520 O   0  0  0  0  0  0  0  0  0  0  0  0
  194.7190  176.6880  145.6360 C   0  0  0  0  0  1  0  0  0  0  0  0
  189.5810  176.6250  147.2530 C   0  0  1  0  0  3  0  0  0  0  0  0
  189.6600  174.3630  146.1830 C   0  0  0  0  0  0  0  0  0  0  0  0
  193.6600  176.0130  146.4910 C   0  0  2  0  0  3  0  0  0  0  0  0
  192.7250  175.1280  145.6490 C   0  0  2  0  0  3  0  0  0  0  0  0
  190.7810  177.3990  147.7920 C   0  0  0  0  0  2  0  0  0  0  0  0
  191.8620  176.5410  148.0160 O   0  0  0  0  0  0  0  0  0  0  0  0
  190.6750  176.3170  145.0010 C   0  0  0  0  0  0  0  0  0  0  0  0
  190.1520  177.2210  144.2970 O   0  0  0  0  0  0  0  0  0  0  0  0
  192.8970  177.0920  147.2550 C   0  0  0  0  0  2  0  0  0  0  0  0
  188.9500  173.8220  147.2940 N   0  0  0  0  0  1  0  0  0  0  0  0
  194.4180  172.1110  144.5420 C   0  0  0  0  0  0  0  0  0  0  0  0
  194.3860  172.7900  143.3770 N   0  0  0  0  0  0  0  0  0  0  0  0
  193.8290  172.8110  145.5750 C   0  0  0  0  0  2  0  0  0  0  0  0
  193.4330  173.9940  144.9810 C   0  0  0  0  0  0  0  0  0  0  0  0
  193.7770  173.9600  143.6450 C   0  0  0  0  0  3  0  0  0  0  0  0
  194.9690  170.7290  144.6670 C   0  0  0  0  0  2  0  0  0  0  0  0
  195.5860  170.5140  146.0430 C   0  0  0  0  0  2  0  0  0  0  0  0
  196.8480  168.7470  144.8190 O   0  0  0  0  0  0  0  0  0  0  0  0
  196.5780  169.4000  146.0120 C   0  0  0  0  0  0  0  0  0  0  0  0
  197.1380  169.0240  147.0750 O   0  0  0  0  0  1  0  0  0  0  0  0
  2  6  1  0  0  0  0
  3  5  1  0  0  0  0
  5  4  1  0  0  0  0
  5  1  1  1  0  0  0
  6  4  1  0  0  0  0
  7 10  1  6  0  0  0
  7  3  1  0  0  0  0
  8  7  1  0  0  0  0
  8  9  1  0  0  0  0
  9  2  1  0  0  0  0
 12 11  2  0  0  0  0
 12 10  1  0  0  0  0
 13 12  1  0  0  0  0
 14 13  1  6  0  0  0
 14 18  1  0  0  0  0
 16 17  2  0  0  0  0
 17 15  1  0  0  0  0
 17 14  1  0  0  0  0
 18 22  1  0  0  0  0
 19 21  2  0  0  0  0
 20 19  1  0  0  0  0
 20 23  1  0  0  0  0
 21 22  1  0  0  0  0
 21 25  1  0  0  0  0
 23 24  2  0  0  0  0
 24 25  1  0  0  0  0
 26 27  3  0  0  0  0
 27 23  1  0  0  0  0
 28  1  1  0  0  0  0
 29 39  1  0  0  0  0
 29 36  1  0  0  0  0
 30 34  1  0  0  0  0
 30 33  1  0  0  0  0
 31 34  2  0  0  0  0
 33 28  1  6  0  0  0
 33 37  1  0  0  0  0
 34 42  1  0  0  0  0
 35 32  1  6  0  0  0
 35 41  1  0  0  0  0
 36 46  1  6  0  0  0
 36 35  1  0  0  0  0
 37 38  1  0  0  0  0
 39 30  1  0  0  0  0
 40 39  2  0  0  0  0
 41 38  1  0  0  0  0
 43 48  1  0  0  0  0
 43 45  1  0  0  0  0
 44 47  1  0  0  0  0
 44 43  2  0  0  0  0
 46 45  1  0  0  0  0
 47 46  2  0  0  0  0
 48 49  1  0  0  0  0
 50 51  2  0  0  0  0
 51 49  1  0  0  0  0
 51 52  1  0  0  0  0
M  END
>  <MODEL>
6

>  <REMARK>
 VINA RESULT:      -6.9      2.001      2.539
  Name = 
  14 active torsions:
  status: ('A' for Active; 'I' for Inactive)
    1  A    between atoms: C_10  and  C_50
    2  A    between atoms: N_11  and  C_39
    3  A    between atoms: C_12  and  C_27
    4  A    between atoms: O_16  and  C_17
    5  A    between atoms: O_16  and  C_50
    6  A    between atoms: C_18  and  N_22
    7  A    between atoms: C_18  and  C_32
    8  A    between atoms: C_25  and  C_31
    9  A    between atoms: C_26  and  C_35
   10  A    between atoms: C_27  and  C_52
   11  A    between atoms: C_28  and  C_52
   12  A    between atoms: C_32  and  C_43
   13  A    between atoms: C_32  and  C_49
   14  A    between atoms: C_49  and  C_51
                            x       y       z     vdW  Elec       q    Type
                         _______ _______ _______ _____ _____    ______ ____

>  <TORSDO>
F 14

$$$$
=
 OpenBabel11062420113D

 52 55  0  0  1  0  0  0  0  0999 V2000
  196.4940  172.7610  144.6850 O   0  0  0  0  0  0  0  0  0  0  0  0
  196.8390  168.3550  146.1690 C   0  0  0  0  0  2  0  0  0  0  0  0
  195.6930  170.8290  143.5470 C   0  0  0  0  0  2  0  0  0  0  0  0
  197.4180  170.6700  145.3560 C   0  0  0  0  0  2  0  0  0  0  0  0
  196.1830  171.4120  144.8650 C   0  0  1  0  0  3  0  0  0  0  0  0
  197.0660  169.8100  146.5590 C   0  0  0  0  0  2  0  0  0  0  0  0
  194.8880  169.5550  143.7790 C   0  0  2  0  0  3  0  0  0  0  0  0
  195.7560  168.4940  144.0470 O   0  0  0  0  0  0  0  0  0  0  0  0
  195.5450  168.1780  145.3910 C   0  0  0  0  0  2  0  0  0  0  0  0
  194.1050  169.2430  142.5910 N   0  0  0  0  0  2  0  0  0  0  0  0
  192.1190  168.8310  143.7490 O   0  0  0  0  0  0  0  0  0  0  0  0
  192.7190  168.8990  142.6450 C   0  0  0  0  0  0  0  0  0  0  0  0
  191.9700  168.6410  141.3800 C   0  0  0  0  0  2  0  0  0  0  0  0
  192.5090  169.4900  140.2320 C   0  0  1  0  0  3  0  0  0  0  0  0
  191.7280  168.3440  138.2960 O   0  0  0  0  0  0  0  0  0  0  0  0
  193.9810  168.1660  138.6940 O   0  0  0  0  0  1  0  0  0  0  0  0
  192.7120  168.6340  139.0270 C   0  0  0  0  0  0  0  0  0  0  0  0
  191.5650  170.6380  139.9050 C   0  0  0  0  0  2  0  0  0  0  0  0
  190.0380  173.0560  140.1350 N   0  0  0  0  0  0  0  0  0  0  0  0
  189.3030  174.2520  140.1590 N   0  0  0  0  0  2  0  0  0  0  0  0
  190.1550  172.3000  141.1890 C   0  0  0  0  0  0  0  0  0  0  0  0
  190.8880  171.0770  141.1170 N   0  0  0  0  0  2  0  0  0  0  0  0
  188.5970  174.6540  141.3340 C   0  0  0  0  0  0  0  0  0  0  0  0
  188.6890  173.9240  142.4400 C   0  0  0  0  0  3  0  0  0  0  0  0
  189.5530  172.6980  142.5120 C   0  0  0  0  0  2  0  0  0  0  0  0
  187.0920  176.7650  141.2890 N   0  0  0  0  0  0  0  0  0  0  0  0
  187.7630  175.8220  141.3100 C   0  0  0  0  0  0  0  0  0  0  0  0
  195.7490  173.1530  143.5710 C   0  0  0  0  0  2  0  0  0  0  0  0
  191.7270  174.4640  144.9620 O   0  0  0  0  0  0  0  0  0  0  0  0
  193.6880  174.4950  143.4690 N   0  0  0  0  0  0  0  0  0  0  0  0
  192.0220  175.3270  142.0400 O   0  0  0  0  0  0  0  0  0  0  0  0
  191.5420  175.8250  147.6420 C   0  0  0  0  0  1  0  0  0  0  0  0
  195.1090  174.5070  143.8260 C   0  0  1  0  0  3  0  0  0  0  0  0
  193.2450  175.2730  142.3410 C   0  0  0  0  0  0  0  0  0  0  0  0
  192.3860  176.2940  146.4690 C   0  0  2  0  0  3  0  0  0  0  0  0
  191.7720  175.8790  145.1210 C   0  0  2  0  0  3  0  0  0  0  0  0
  195.3200  174.9230  145.2800 C   0  0  0  0  0  2  0  0  0  0  0  0
  194.6180  176.0980  145.5650 O   0  0  0  0  0  0  0  0  0  0  0  0
  192.7370  173.7810  144.2810 C   0  0  0  0  0  0  0  0  0  0  0  0
  192.8340  172.5330  144.4120 O   0  0  0  0  0  0  0  0  0  0  0  0
  193.8020  175.7530  146.6460 C   0  0  0  0  0  2  0  0  0  0  0  0
  194.1860  175.9830  141.5400 N   0  0  0  0  0  1  0  0  0  0  0  0
  188.2990  176.8920  144.7940 C   0  0  0  0  0  0  0  0  0  0  0  0
  188.8970  177.9570  144.2230 N   0  0  0  0  0  0  0  0  0  0  0  0
  189.2070  175.9490  145.2270 C   0  0  0  0  0  2  0  0  0  0  0  0
  190.4290  176.4890  144.8740 C   0  0  0  0  0  0  0  0  0  0  0  0
  190.2200  177.7110  144.2690 C   0  0  0  0  0  3  0  0  0  0  0  0
  186.8230  176.7930  144.9910 C   0  0  0  0  0  2  0  0  0  0  0  0
  186.2180  178.1650  145.2580 C   0  0  0  0  0  2  0  0  0  0  0  0
  185.9640  177.5760  147.6670 O   0  0  0  0  0  1  0  0  0  0  0  0
  185.4340  178.1630  146.5280 C   0  0  0  0  0  0  0  0  0  0  0  0
  184.2750  178.6540  146.5550 O   0  0  0  0  0  0  0  0  0  0  0  0
  2  6  1  0  0  0  0
  3  7  1  0  0  0  0
  3  5  1  0  0  0  0
  4  6  1  0  0  0  0
  5  1  1  6  0  0  0
  5  4  1  0  0  0  0
  7 10  1  6  0  0  0
  7  8  1  0  0  0  0
  8  9  1  0  0  0  0
  9  2  1  0  0  0  0
 10 12  1  0  0  0  0
 12 11  2  0  0  0  0
 13 12  1  0  0  0  0
 14 18  1  6  0  0  0
 14 13  1  0  0  0  0
 15 17  2  0  0  0  0
 16 17  1  0  0  0  0
 17 14  1  0  0  0  0
 18 22  1  0  0  0  0
 19 20  1  0  0  0  0
 19 21  2  0  0  0  0
 20 23  1  0  0  0  0
 21 25  1  0  0  0  0
 22 21  1  0  0  0  0
 23 24  2  0  0  0  0
 24 25  1  0  0  0  0
 26 27  3  0  0  0  0
 27 23  1  0  0  0  0
 28  1  1  0  0  0  0
 29 36  1  0  0  0  0
 30 33  1  0  0  0  0
 30 39  1  0  0  0  0
 31 34  2  0  0  0  0
 33 28  1  1  0  0  0
 33 37  1  0  0  0  0
 34 30  1  0  0  0  0
 35 41  1  0  0  0  0
 35 32  1  1  0  0  0
 36 46  1  1  0  0  0
 36 35  1  0  0  0  0
 37 38  1  0  0  0  0
 38 41  1  0  0  0  0
 39 40  2  0  0  0  0
 39 29  1  0  0  0  0
 42 34  1  0  0  0  0
 43 48  1  0  0  0  0
 43 45  1  0  0  0  0
 44 47  1  0  0  0  0
 44 43  2  0  0  0  0
 46 45  1  0  0  0  0
 47 46  2  0  0  0  0
 48 49  1  0  0  0  0
 49 51  1  0  0  0  0
 51 52  2  0  0  0  0
 51 50  1  0  0  0  0
M  END
>  <MODEL>
7

>  <REMARK>
 VINA RESULT:      -6.8      2.625      8.706
  Name = 
  14 active torsions:
  status: ('A' for Active; 'I' for Inactive)
    1  A    between atoms: C_10  and  C_50
    2  A    between atoms: N_11  and  C_39
    3  A    between atoms: C_12  and  C_27
    4  A    between atoms: O_16  and  C_17
    5  A    between atoms: O_16  and  C_50
    6  A    between atoms: C_18  and  N_22
    7  A    between atoms: C_18  and  C_32
    8  A    between atoms: C_25  and  C_31
    9  A    between atoms: C_26  and  C_35
   10  A    between atoms: C_27  and  C_52
   11  A    between atoms: C_28  and  C_52
   12  A    between atoms: C_32  and  C_43
   13  A    between atoms: C_32  and  C_49
   14  A    between atoms: C_49  and  C_51
                            x       y       z     vdW  Elec       q    Type
                         _______ _______ _______ _____ _____    ______ ____

>  <TORSDO>
F 14

$$$$
=
 OpenBabel11062420113D

 52 55  0  0  1  0  0  0  0  0999 V2000
  193.2540  175.0640  146.0660 O   0  0  0  0  0  0  0  0  0  0  0  0
  197.3640  173.2820  144.7740 C   0  0  0  0  0  2  0  0  0  0  0  0
  193.6130  173.4830  144.3220 C   0  0  0  0  0  2  0  0  0  0  0  0
  195.4770  174.8920  145.2260 C   0  0  0  0  0  2  0  0  0  0  0  0
  194.1870  174.1570  145.5610 C   0  0  1  0  0  3  0  0  0  0  0  0
  196.6670  174.1510  145.8130 C   0  0  0  0  0  2  0  0  0  0  0  0
  194.3340  172.1720  144.0290 C   0  0  2  0  0  3  0  0  0  0  0  0
  195.5720  172.4390  143.4400 O   0  0  0  0  0  0  0  0  0  0  0  0
  196.5220  172.0730  144.3980 C   0  0  0  0  0  2  0  0  0  0  0  0
  193.5370  171.3620  143.1180 N   0  0  0  0  0  2  0  0  0  0  0  0
  194.4060  169.3170  143.8370 O   0  0  0  0  0  0  0  0  0  0  0  0
  193.6130  169.9360  143.0810 C   0  0  0  0  0  0  0  0  0  0  0  0
  192.7270  169.1710  142.1550 C   0  0  0  0  0  2  0  0  0  0  0  0
  192.2510  170.0410  140.9950 C   0  0  1  0  0  3  0  0  0  0  0  0
  192.0250  169.3500  138.7280 O   0  0  0  0  0  0  0  0  0  0  0  0
  194.1480  169.2040  139.5870 O   0  0  0  0  0  1  0  0  0  0  0  0
  192.7960  169.5100  139.7120 C   0  0  0  0  0  0  0  0  0  0  0  0
  190.7310  170.0970  140.9360 C   0  0  0  0  0  2  0  0  0  0  0  0
  189.4480  172.0140  139.2300 N   0  0  0  0  0  0  0  0  0  0  0  0
  188.8200  172.8900  138.3300 N   0  0  0  0  0  2  0  0  0  0  0  0
  189.6550  172.3380  140.4750 C   0  0  0  0  0  0  0  0  0  0  0  0
  190.2710  171.4090  141.3650 N   0  0  0  0  0  2  0  0  0  0  0  0
  188.3240  174.1560  138.7670 C   0  0  0  0  0  0  0  0  0  0  0  0
  188.5140  174.5410  140.0240 C   0  0  0  0  0  3  0  0  0  0  0  0
  189.2810  173.6990  141.0040 C   0  0  0  0  0  2  0  0  0  0  0  0
  186.9960  175.6670  137.1310 N   0  0  0  0  0  0  0  0  0  0  0  0
  187.5890  174.9930  137.8610 C   0  0  0  0  0  0  0  0  0  0  0  0
  192.1870  175.0160  145.1680 C   0  0  0  0  0  2  0  0  0  0  0  0
  187.8660  175.9470  144.6210 O   0  0  0  0  0  0  0  0  0  0  0  0
  190.2820  176.3010  144.2830 N   0  0  0  0  0  0  0  0  0  0  0  0
  189.4050  177.3380  142.3700 O   0  0  0  0  0  0  0  0  0  0  0  0
  186.2930  176.7880  147.0460 C   0  0  0  0  0  1  0  0  0  0  0  0
  191.3570  176.2830  145.2800 C   0  0  1  0  0  3  0  0  0  0  0  0
  190.3390  177.2610  143.2110 C   0  0  0  0  0  0  0  0  0  0  0  0
  187.5310  177.4860  146.5100 C   0  0  2  0  0  3  0  0  0  0  0  0
  187.6750  177.3090  144.9890 C   0  0  2  0  0  3  0  0  0  0  0  0
  190.8110  176.4310  146.6980 C   0  0  0  0  0  2  0  0  0  0  0  0
  189.9330  177.5160  146.7790 O   0  0  0  0  0  0  0  0  0  0  0  0
  189.1460  175.4270  144.4190 C   0  0  0  0  0  0  0  0  0  0  0  0
  189.3080  174.1780  144.3940 O   0  0  0  0  0  0  0  0  0  0  0  0
  188.7480  176.9580  147.2670 C   0  0  0  0  0  2  0  0  0  0  0  0
  191.4620  178.1290  143.0800 N   0  0  0  0  0  1  0  0  0  0  0  0
  184.8500  178.2560  142.9100 C   0  0  0  0  0  0  0  0  0  0  0  0
  185.1110  179.4460  143.4890 N   0  0  0  0  0  2  0  0  0  0  0  0
  185.7100  177.2650  143.3350 C   0  0  0  0  0  3  0  0  0  0  0  0
  186.5480  177.9200  144.2180 C   0  0  0  0  0  0  0  0  0  0  0  0
  186.1650  179.2430  144.3010 C   0  0  0  0  0  3  0  0  0  0  0  0
  183.7110  178.0370  141.9700 C   0  0  0  0  0  2  0  0  0  0  0  0
  182.4340  178.6660  142.5100 C   0  0  0  0  0  2  0  0  0  0  0  0
  181.1760  179.4670  140.5130 O   0  0  0  0  0  0  0  0  0  0  0  0
  181.3190  178.5330  141.5280 C   0  0  0  0  0  0  0  0  0  0  0  0
  180.4840  177.5980  141.6430 O   0  0  0  0  0  1  0  0  0  0  0  0
  2  6  1  0  0  0  0
  3  5  1  0  0  0  0
  4  5  1  0  0  0  0
  4  6  1  0  0  0  0
  5  1  1  6  0  0  0
  7 10  1  6  0  0  0
  7  3  1  0  0  0  0
  8  7  1  0  0  0  0
  8  9  1  0  0  0  0
  9  2  1  0  0  0  0
 12 10  1  0  0  0  0
 12 11  2  0  0  0  0
 13 12  1  0  0  0  0
 14 18  1  6  0  0  0
 14 13  1  0  0  0  0
 15 17  2  0  0  0  0
 16 17  1  0  0  0  0
 17 14  1  0  0  0  0
 18 22  1  0  0  0  0
 19 21  2  0  0  0  0
 20 23  1  0  0  0  0
 20 19  1  0  0  0  0
 21 25  1  0  0  0  0
 21 22  1  0  0  0  0
 23 24  2  0  0  0  0
 24 25  1  0  0  0  0
 26 27  3  0  0  0  0
 27 23  1  0  0  0  0
 28  1  1  0  0  0  0
 29 36  1  0  0  0  0
 30 39  1  0  0  0  0
 30 33  1  0  0  0  0
 31 34  2  0  0  0  0
 33 28  1  1  0  0  0
 33 37  1  0  0  0  0
 34 30  1  0  0  0  0
 35 32  1  1  0  0  0
 35 41  1  0  0  0  0
 36 46  1  6  0  0  0
 36 35  1  0  0  0  0
 37 38  1  0  0  0  0
 38 41  1  0  0  0  0
 39 29  1  0  0  0  0
 40 39  2  0  0  0  0
 42 34  1  0  0  0  0
 43 45  2  0  0  0  0
 43 44  1  0  0  0  0
 44 47  1  0  0  0  0
 45 46  1  0  0  0  0
 46 47  2  0  0  0  0
 48 49  1  0  0  0  0
 48 43  1  0  0  0  0
 50 51  2  0  0  0  0
 51 52  1  0  0  0  0
 51 49  1  0  0  0  0
M  END
>  <MODEL>
8

>  <REMARK>
 VINA RESULT:      -6.6      2.707      9.014
  Name = 
  14 active torsions:
  status: ('A' for Active; 'I' for Inactive)
    1  A    between atoms: C_10  and  C_50
    2  A    between atoms: N_11  and  C_39
    3  A    between atoms: C_12  and  C_27
    4  A    between atoms: O_16  and  C_17
    5  A    between atoms: O_16  and  C_50
    6  A    between atoms: C_18  and  N_22
    7  A    between atoms: C_18  and  C_32
    8  A    between atoms: C_25  and  C_31
    9  A    between atoms: C_26  and  C_35
   10  A    between atoms: C_27  and  C_52
   11  A    between atoms: C_28  and  C_52
   12  A    between atoms: C_32  and  C_43
   13  A    between atoms: C_32  and  C_49
   14  A    between atoms: C_49  and  C_51
                            x       y       z     vdW  Elec       q    Type
                         _______ _______ _______ _____ _____    ______ ____

>  <TORSDO>
F 14

$$$$
=
 OpenBabel11062420113D

 52 55  0  0  1  0  0  0  0  0999 V2000
  187.4900  177.7300  146.7310 O   0  0  0  0  0  0  0  0  0  0  0  0
  183.7560  179.0430  144.2670 C   0  0  0  0  0  2  0  0  0  0  0  0
  186.7270  176.7420  144.7020 C   0  0  0  0  0  2  0  0  0  0  0  0
  185.2300  178.1690  146.1170 C   0  0  0  0  0  2  0  0  0  0  0  0
  186.6560  177.9460  145.6320 C   0  0  1  0  0  3  0  0  0  0  0  0
  184.6410  179.4040  145.4530 C   0  0  0  0  0  2  0  0  0  0  0  0
  186.2620  177.1090  143.2970 C   0  0  2  0  0  3  0  0  0  0  0  0
  184.8670  177.1810  143.2690 O   0  0  0  0  0  0  0  0  0  0  0  0
  184.5730  178.5350  143.0900 C   0  0  0  0  0  2  0  0  0  0  0  0
  186.7070  176.0960  142.3500 N   0  0  0  0  0  2  0  0  0  0  0  0
  187.6310  177.6150  140.8350 O   0  0  0  0  0  0  0  0  0  0  0  0
  187.3970  176.4160  141.1410 C   0  0  0  0  0  0  0  0  0  0  0  0
  187.8670  175.3200  140.2430 C   0  0  0  0  0  2  0  0  0  0  0  0
  188.5040  174.1850  141.0400 C   0  0  1  0  0  3  0  0  0  0  0  0
  187.1450  172.3210  141.6290 O   0  0  0  0  0  1  0  0  0  0  0  0
  187.8740  172.3490  139.4530 O   0  0  0  0  0  0  0  0  0  0  0  0
  187.8080  172.9010  140.7300 C   0  0  0  0  0  0  0  0  0  0  0  0
  189.9900  174.0620  140.7330 C   0  0  0  0  0  2  0  0  0  0  0  0
  191.7740  172.0730  139.6890 N   0  0  0  0  0  0  0  0  0  0  0  0
  192.6480  171.1450  139.1000 N   0  0  0  0  0  2  0  0  0  0  0  0
  191.4330  171.9960  140.9430 C   0  0  0  0  0  0  0  0  0  0  0  0
  190.5640  172.9750  141.5120 N   0  0  0  0  0  2  0  0  0  0  0  0
  193.2500  170.1110  139.8790 C   0  0  0  0  0  0  0  0  0  0  0  0
  192.9310  169.9810  141.1620 C   0  0  0  0  0  3  0  0  0  0  0  0
  191.9150  170.8690  141.8200 C   0  0  0  0  0  2  0  0  0  0  0  0
  195.0080  168.5320  138.8100 N   0  0  0  0  0  0  0  0  0  0  0  0
  194.2240  169.2370  139.2870 C   0  0  0  0  0  0  0  0  0  0  0  0
  188.2420  176.6040  146.3910 C   0  0  0  0  0  2  0  0  0  0  0  0
  191.8570  174.4620  144.9180 O   0  0  0  0  0  0  0  0  0  0  0  0
  190.5810  175.8450  146.5100 N   0  0  0  0  0  0  0  0  0  0  0  0
  192.2240  174.9400  147.9190 O   0  0  0  0  0  0  0  0  0  0  0  0
  193.1290  175.4400  142.3710 C   0  0  0  0  0  1  0  0  0  0  0  0
  189.7030  176.9860  146.2300 C   0  0  1  0  0  3  0  0  0  0  0  0
  191.4190  175.8790  147.6800 C   0  0  0  0  0  0  0  0  0  0  0  0
  192.9120  176.2690  143.6250 C   0  0  2  0  0  3  0  0  0  0  0  0
  192.9280  175.4000  144.8950 C   0  0  2  0  0  3  0  0  0  0  0  0
  189.9470  177.5540  144.8350 C   0  0  0  0  0  2  0  0  0  0  0  0
  191.3110  177.7790  144.6240 O   0  0  0  0  0  0  0  0  0  0  0  0
  190.6640  174.7440  145.5850 C   0  0  0  0  0  0  0  0  0  0  0  0
  189.6420  174.0480  145.3440 O   0  0  0  0  0  0  0  0  0  0  0  0
  191.6030  177.0400  143.4730 C   0  0  0  0  0  2  0  0  0  0  0  0
  191.3400  176.9720  148.5920 N   0  0  0  0  0  1  0  0  0  0  0  0
  195.8900  173.3130  145.1520 C   0  0  0  0  0  0  0  0  0  0  0  0
  196.3320  174.4100  145.8000 N   0  0  0  0  0  2  0  0  0  0  0  0
  194.5940  173.4550  144.7020 C   0  0  0  0  0  3  0  0  0  0  0  0
  194.2410  174.7220  145.1260 C   0  0  0  0  0  0  0  0  0  0  0  0
  195.3120  175.2870  145.7870 C   0  0  0  0  0  3  0  0  0  0  0  0
  196.7430  172.1150  144.8980 C   0  0  0  0  0  2  0  0  0  0  0  0
  196.7050  171.1600  146.0840 C   0  0  0  0  0  2  0  0  0  0  0  0
  196.0490  169.1970  144.6960 O   0  0  0  0  0  0  0  0  0  0  0  0
  195.8130  169.9980  145.8030 C   0  0  0  0  0  0  0  0  0  0  0  0
  194.8220  169.7680  146.5460 O   0  0  0  0  0  1  0  0  0  0  0  0
  2  6  1  0  0  0  0
  3  5  1  0  0  0  0
  5  4  1  0  0  0  0
  5  1  1  1  0  0  0
  6  4  1  0  0  0  0
  7 10  1  6  0  0  0
  7  3  1  0  0  0  0
  8  7  1  0  0  0  0
  9  8  1  0  0  0  0
  9  2  1  0  0  0  0
 11 12  2  0  0  0  0
 12 10  1  0  0  0  0
 13 12  1  0  0  0  0
 14 13  1  6  0  0  0
 16 17  2  0  0  0  0
 17 14  1  0  0  0  0
 17 15  1  0  0  0  0
 18 14  1  0  0  0  0
 18 22  1  0  0  0  0
 19 21  2  0  0  0  0
 20 19  1  0  0  0  0
 20 23  1  0  0  0  0
 21 22  1  0  0  0  0
 21 25  1  0  0  0  0
 23 24  2  0  0  0  0
 24 25  1  0  0  0  0
 26 27  3  0  0  0  0
 27 23  1  0  0  0  0
 28  1  1  0  0  0  0
 29 39  1  0  0  0  0
 30 34  1  0  0  0  0
 33 28  1  6  0  0  0
 33 30  1  0  0  0  0
 34 31  2  0  0  0  0
 34 42  1  0  0  0  0
 35 32  1  6  0  0  0
 35 36  1  0  0  0  0
 36 29  1  0  0  0  0
 36 46  1  6  0  0  0
 37 33  1  0  0  0  0
 38 37  1  0  0  0  0
 39 30  1  0  0  0  0
 40 39  2  0  0  0  0
 41 35  1  0  0  0  0
 41 38  1  0  0  0  0
 43 44  1  0  0  0  0
 45 46  1  0  0  0  0
 45 43  2  0  0  0  0
 46 47  2  0  0  0  0
 47 44  1  0  0  0  0
 48 43  1  0  0  0  0
 48 49  1  0  0  0  0
 50 51  2  0  0  0  0
 51 49  1  0  0  0  0
 51 52  1  0  0  0  0
M  END
>  <MODEL>
9

>  <REMARK>
 VINA RESULT:      -6.6      1.564      1.645
  Name = 
  14 active torsions:
  status: ('A' for Active; 'I' for Inactive)
    1  A    between atoms: C_10  and  C_50
    2  A    between atoms: N_11  and  C_39
    3  A    between atoms: C_12  and  C_27
    4  A    between atoms: O_16  and  C_17
    5  A    between atoms: O_16  and  C_50
    6  A    between atoms: C_18  and  N_22
    7  A    between atoms: C_18  and  C_32
    8  A    between atoms: C_25  and  C_31
    9  A    between atoms: C_26  and  C_35
   10  A    between atoms: C_27  and  C_52
   11  A    between atoms: C_28  and  C_52
   12  A    between atoms: C_32  and  C_43
   13  A    between atoms: C_32  and  C_49
   14  A    between atoms: C_49  and  C_51
                            x       y       z     vdW  Elec       q    Type
                         _______ _______ _______ _____ _____    ______ ____

>  <TORSDO>
F 14

$$$$
