=
 OpenBabel11072409273D

 39 42  0  0  1  0  0  0  0  0999 V2000
  190.9640  172.0210  141.9660 N   0  0  0  0  0  2  0  0  0  0  0  0
  189.8370  174.1590  141.8580 C   0  0  2  0  0  3  0  0  0  0  0  0
  189.9520  172.7810  141.3380 C   0  0  0  0  0  0  0  0  0  0  0  0
  191.6230  172.8580  142.9510 C   0  0  2  0  0  3  0  0  0  0  0  0
  191.6880  172.1620  144.2240 N   0  0  0  0  0  1  0  0  0  0  0  0
  189.2250  176.4850  143.7240 C   0  0  2  0  0  3  0  0  0  0  0  0
  189.2530  172.3260  140.3950 O   0  0  0  0  0  0  0  0  0  0  0  0
  193.7610  175.6810  143.1490 C   0  0  2  0  0  3  0  0  0  0  0  0
  190.7460  174.1110  143.0850 C   0  0  1  0  0  3  0  0  0  0  0  0
  193.3690  175.6080  144.5970 C   0  0  2  0  0  3  0  0  0  0  0  0
  188.4160  174.4730  142.3190 C   0  0  0  0  0  2  0  0  0  0  0  0
  190.6340  176.6530  143.1420 C   0  0  0  0  0  2  0  0  0  0  0  0
  191.9930  175.4080  144.6600 O   0  0  0  0  0  0  0  0  0  0  0  0
  188.2230  175.9540  142.6780 C   0  0  2  0  0  3  0  0  0  0  0  0
  191.5270  175.4170  143.3300 C   0  0  1  0  0  0  0  0  0  0  0  0
  192.5900  175.5060  142.4080 O   0  0  0  0  0  0  0  0  0  0  0  0
  194.7250  174.6250  142.8300 N   0  0  0  0  0  0  0  0  0  0  0  0
  194.5920  174.3240  141.5150 O   0  0  0  0  0  1  0  0  0  0  0  0
  196.3350  175.2530  143.0200 S   0  0  0  0  0  0  0  0  0  0  0  0
  196.3440  176.7400  142.7990 O   0  0  0  0  0  0  0  0  0  0  0  0
  197.3460  174.5270  141.9000 F   0  0  0  0  0  0  0  0  0  0  0  0
  196.8430  174.9480  144.4010 O   0  0  0  0  0  0  0  0  0  0  0  0
  187.4140  176.4620  140.4980 O   0  0  0  0  0  0  0  0  0  0  0  0
  188.0760  176.8230  141.4580 C   0  0  0  0  0  3  0  0  0  0  0  0
  193.7570  176.8810  145.3430 C   0  0  0  0  0  2  0  0  0  0  0  0
  194.6220  176.5980  146.4010 O   0  0  0  0  0  1  0  0  0  0  0  0
  188.7400  177.7990  144.3200 C   0  0  0  0  0  2  0  0  0  0  0  0
  188.0390  177.5590  145.6510 C   0  0  2  0  0  3  0  0  0  0  0  0
  188.1810  176.1130  146.1000 C   0  0  0  0  0  1  0  0  0  0  0  0
  184.5390  178.7640  146.6250 C   0  0  0  0  0  3  0  0  0  0  0  0
  183.9130  178.7470  145.3770 C   0  0  0  0  0  3  0  0  0  0  0  0
  186.6010  177.9830  145.6030 C   0  0  0  0  0  0  0  0  0  0  0  0
  186.4910  178.4110  148.0330 N   0  0  0  0  0  1  0  0  0  0  0  0
  184.6190  178.3490  144.2360 C   0  0  0  0  0  0  0  0  0  0  0  0
  185.8780  178.3850  146.7470 C   0  0  0  0  0  0  0  0  0  0  0  0
  185.9620  177.9690  144.3590 C   0  0  0  0  0  3  0  0  0  0  0  0
  183.9550  178.3330  142.9230 C   0  0  0  0  0  0  0  0  0  0  0  0
  184.6440  177.9050  141.7950 O   0  0  0  0  0  0  0  0  0  0  0  0
  182.7570  178.7060  142.8100 O   0  0  0  0  0  1  0  0  0  0  0  0
  1  4  1  0  0  0  0
  2 11  1  1  0  0  0
  2  9  1  0  0  0  0
  3  2  1  0  0  0  0
  3  1  1  0  0  0  0
  4  9  1  0  0  0  0
  4  5  1  1  0  0  0
  6 27  1  6  0  0  0
  7  3  2  0  0  0  0
  8 17  1  6  0  0  0
  8 10  1  0  0  0  0
  9 15  1  0  0  0  0
 10 13  1  0  0  0  0
 10 25  1  0  0  0  0
 11 14  1  0  0  0  0
 12 15  1  0  0  0  0
 12  6  1  0  0  0  0
 14  6  1  0  0  0  0
 15 13  1  0  0  0  0
 16  8  1  0  0  0  0
 16 15  1  0  0  0  0
 17 19  1  0  0  0  0
 18 17  1  0  0  0  0
 19 22  2  0  0  0  0
 20 19  2  0  0  0  0
 21 19  1  0  0  0  0
 23 24  2  0  0  0  0
 24 14  1  0  0  0  0
 25 26  1  0  0  0  0
 27 28  1  0  0  0  0
 28 29  1  0  0  0  0
 30 35  1  0  0  0  0
 31 30  2  0  0  0  0
 32 28  1  0  0  0  0
 32 35  2  0  0  0  0
 34 36  2  0  0  0  0
 34 31  1  0  0  0  0
 35 33  1  0  0  0  0
 36 32  1  0  0  0  0
 37 34  1  0  0  0  0
 38 37  2  0  0  0  0
 39 37  1  0  0  0  0
M  END
>  <MODEL>
1

>  <REMARK>
 VINA RESULT:      -8.2      0.000      0.000
  Name = 
  8 active torsions:
  status: ('A' for Active; 'I' for Inactive)
    1  A    between atoms: N_1  and  C_17
    2  A    between atoms: N_1  and  S_19
    3  A    between atoms: C_2  and  C_27
    4  A    between atoms: C_9  and  C_11
    5  A    between atoms: C_9  and  C_25
    6  A    between atoms: C_15  and  C_28
    7  A    between atoms: C_16  and  C_25
    8  A    between atoms: C_20  and  C_34
                            x       y       z     vdW  Elec       q    Type
                         _______ _______ _______ _____ _____    ______ ____

>  <TORSDO>
F 8

$$$$
=
 OpenBabel11072409273D

 39 42  0  0  1  0  0  0  0  0999 V2000
  192.4230  176.5060  146.4360 N   0  0  0  0  0  2  0  0  0  0  0  0
  190.0230  176.5550  146.7410 C   0  0  2  0  0  3  0  0  0  0  0  0
  191.3620  176.6810  147.3530 C   0  0  0  0  0  0  0  0  0  0  0  0
  191.8590  176.2220  145.1290 C   0  0  2  0  0  3  0  0  0  0  0  0
  192.4580  177.0950  144.1350 N   0  0  0  0  0  1  0  0  0  0  0  0
  187.5500  177.1860  145.0830 C   0  0  2  0  0  3  0  0  0  0  0  0
  191.5570  176.8810  148.5800 O   0  0  0  0  0  0  0  0  0  0  0  0
  190.0850  173.6770  143.4090 C   0  0  2  0  0  3  0  0  0  0  0  0
  190.3580  176.5220  145.2500 C   0  0  1  0  0  3  0  0  0  0  0  0
  189.9260  174.7720  142.3940 C   0  0  2  0  0  3  0  0  0  0  0  0
  189.1570  177.7810  147.0170 C   0  0  0  0  0  2  0  0  0  0  0  0
  187.9740  175.7340  144.8350 C   0  0  0  0  0  2  0  0  0  0  0  0
  189.5700  175.9350  143.0710 O   0  0  0  0  0  0  0  0  0  0  0  0
  187.7010  177.5930  146.5630 C   0  0  2  0  0  3  0  0  0  0  0  0
  189.4490  175.5870  144.4300 C   0  0  1  0  0  0  0  0  0  0  0  0
  189.8290  174.2480  144.6580 O   0  0  0  0  0  0  0  0  0  0  0  0
  191.4490  173.1410  143.3680 N   0  0  0  0  0  0  0  0  0  0  0  0
  191.8720  172.9810  144.6470 O   0  0  0  0  0  1  0  0  0  0  0  0
  191.4100  171.5500  142.6700 S   0  0  0  0  0  0  0  0  0  0  0  0
  190.0040  171.1860  142.2810 O   0  0  0  0  0  0  0  0  0  0  0  0
  191.9720  170.4420  143.7920 F   0  0  0  0  0  0  0  0  0  0  0  0
  192.2950  171.5020  141.4560 O   0  0  0  0  0  0  0  0  0  0  0  0
  185.6890  176.8190  147.5750 O   0  0  0  0  0  0  0  0  0  0  0  0
  186.9080  176.7490  147.5250 C   0  0  0  0  0  3  0  0  0  0  0  0
  188.8670  174.4150  141.3550 C   0  0  0  0  0  2  0  0  0  0  0  0
  187.8560  173.6340  141.9180 O   0  0  0  0  0  1  0  0  0  0  0  0
  186.1220  177.4080  144.6050 C   0  0  0  0  0  2  0  0  0  0  0  0
  186.0280  178.6690  143.7540 C   0  0  2  0  0  3  0  0  0  0  0  0
  185.3820  179.8100  144.5240 C   0  0  0  0  0  1  0  0  0  0  0  0
  185.2700  177.8200  140.1000 C   0  0  0  0  0  3  0  0  0  0  0  0
  183.8810  177.9580  140.0940 C   0  0  0  0  0  3  0  0  0  0  0  0
  185.3210  178.4090  142.4570 C   0  0  0  0  0  0  0  0  0  0  0  0
  187.4140  177.8970  141.2480 N   0  0  0  0  0  1  0  0  0  0  0  0
  183.2010  178.3210  141.2620 C   0  0  0  0  0  0  0  0  0  0  0  0
  185.9970  178.0440  141.2730 C   0  0  0  0  0  0  0  0  0  0  0  0
  183.9300  178.5450  142.4380 C   0  0  0  0  0  3  0  0  0  0  0  0
  181.7370  178.4640  141.2520 C   0  0  0  0  0  0  0  0  0  0  0  0
  180.9890  177.9460  140.2020 O   0  0  0  0  0  0  0  0  0  0  0  0
  181.1470  179.0580  142.1950 O   0  0  0  0  0  1  0  0  0  0  0  0
  1  3  1  0  0  0  0
  2 11  1  6  0  0  0
  2  3  1  0  0  0  0
  3  7  2  0  0  0  0
  4  5  1  6  0  0  0
  4  9  1  0  0  0  0
  4  1  1  0  0  0  0
  6 27  1  1  0  0  0
  6 14  1  0  0  0  0
  8 17  1  1  0  0  0
  8 16  1  0  0  0  0
  9  2  1  0  0  0  0
 10 13  1  0  0  0  0
 10  8  1  0  0  0  0
 12  6  1  0  0  0  0
 13 15  1  0  0  0  0
 14 11  1  0  0  0  0
 14 24  1  0  0  0  0
 15 16  1  0  0  0  0
 15 12  1  0  0  0  0
 15  9  1  0  0  0  0
 17 18  1  0  0  0  0
 19 17  1  0  0  0  0
 19 21  1  0  0  0  0
 20 19  2  0  0  0  0
 22 19  2  0  0  0  0
 24 23  2  0  0  0  0
 25 26  1  0  0  0  0
 25 10  1  0  0  0  0
 28 29  1  0  0  0  0
 28 27  1  0  0  0  0
 30 35  1  0  0  0  0
 31 30  2  0  0  0  0
 31 34  1  0  0  0  0
 32 28  1  0  0  0  0
 33 35  1  0  0  0  0
 34 36  2  0  0  0  0
 35 32  2  0  0  0  0
 36 32  1  0  0  0  0
 37 34  1  0  0  0  0
 37 39  1  0  0  0  0
 38 37  2  0  0  0  0
M  END
>  <MODEL>
2

>  <REMARK>
 VINA RESULT:      -7.8      3.022      5.292
  Name = 
  8 active torsions:
  status: ('A' for Active; 'I' for Inactive)
    1  A    between atoms: N_1  and  C_17
    2  A    between atoms: N_1  and  S_19
    3  A    between atoms: C_2  and  C_27
    4  A    between atoms: C_9  and  C_11
    5  A    between atoms: C_9  and  C_25
    6  A    between atoms: C_15  and  C_28
    7  A    between atoms: C_16  and  C_25
    8  A    between atoms: C_20  and  C_34
                            x       y       z     vdW  Elec       q    Type
                         _______ _______ _______ _____ _____    ______ ____

>  <TORSDO>
F 8

$$$$
=
 OpenBabel11072409273D

 39 42  0  0  1  0  0  0  0  0999 V2000
  193.3820  170.9640  142.8860 N   0  0  0  0  0  2  0  0  0  0  0  0
  191.3810  172.3160  142.7260 C   0  0  2  0  0  3  0  0  0  0  0  0
  192.0880  171.0800  142.3300 C   0  0  0  0  0  0  0  0  0  0  0  0
  193.6460  172.1450  143.6860 C   0  0  2  0  0  3  0  0  0  0  0  0
  194.1240  171.7510  145.0000 N   0  0  0  0  0  1  0  0  0  0  0  0
  189.8970  174.3590  144.4250 C   0  0  2  0  0  3  0  0  0  0  0  0
  191.6140  170.2240  141.5390 O   0  0  0  0  0  0  0  0  0  0  0  0
  194.2250  175.6250  143.3210 C   0  0  2  0  0  3  0  0  0  0  0  0
  192.2980  172.8680  143.8180 C   0  0  1  0  0  3  0  0  0  0  0  0
  194.0230  175.5970  144.8090 C   0  0  2  0  0  3  0  0  0  0  0  0
  190.0180  172.0160  143.3430 C   0  0  0  0  0  2  0  0  0  0  0  0
  191.0160  175.0590  143.6440 C   0  0  0  0  0  2  0  0  0  0  0  0
  192.9090  174.8060  145.0760 O   0  0  0  0  0  0  0  0  0  0  0  0
  189.1830  173.2840  143.5810 C   0  0  2  0  0  3  0  0  0  0  0  0
  192.3940  174.4060  143.8280 C   0  0  1  0  0  0  0  0  0  0  0  0
  193.2190  174.8300  142.7660 O   0  0  0  0  0  0  0  0  0  0  0  0
  195.5440  175.0860  142.9770 N   0  0  0  0  0  0  0  0  0  0  0  0
  195.4010  174.3110  141.8740 O   0  0  0  0  0  1  0  0  0  0  0  0
  196.5850  176.3980  142.5130 S   0  0  0  0  0  0  0  0  0  0  0  0
  197.9360  175.8740  142.1110 O   0  0  0  0  0  0  0  0  0  0  0  0
  196.7680  177.4420  143.8090 F   0  0  0  0  0  0  0  0  0  0  0  0
  195.9780  177.1530  141.3640 O   0  0  0  0  0  0  0  0  0  0  0  0
  188.0430  173.0420  141.5050 O   0  0  0  0  0  0  0  0  0  0  0  0
  188.5560  173.8000  142.3140 C   0  0  0  0  0  3  0  0  0  0  0  0
  193.8260  177.0020  145.3690 C   0  0  0  0  0  2  0  0  0  0  0  0
  194.5600  177.1810  146.5430 O   0  0  0  0  0  1  0  0  0  0  0  0
  188.9010  175.3820  144.9520 C   0  0  0  0  0  2  0  0  0  0  0  0
  189.2310  176.7750  144.4280 C   0  0  2  0  0  3  0  0  0  0  0  0
  190.0990  177.5450  145.4110 C   0  0  0  0  0  1  0  0  0  0  0  0
  186.5030  178.6330  142.4920 C   0  0  0  0  0  3  0  0  0  0  0  0
  185.6420  178.9730  143.5360 C   0  0  0  0  0  3  0  0  0  0  0  0
  187.9910  177.5390  144.0710 C   0  0  0  0  0  0  0  0  0  0  0  0
  188.5370  177.5870  141.6620 N   0  0  0  0  0  1  0  0  0  0  0  0
  185.9450  178.6030  144.8520 C   0  0  0  0  0  0  0  0  0  0  0  0
  187.6760  177.9190  142.7480 C   0  0  0  0  0  0  0  0  0  0  0  0
  187.1220  177.8870  145.1090 C   0  0  0  0  0  3  0  0  0  0  0  0
  185.0340  178.9630  145.9510 C   0  0  0  0  0  0  0  0  0  0  0  0
  185.5360  179.2210  147.2200 O   0  0  0  0  0  1  0  0  0  0  0  0
  183.7930  179.0410  145.7500 O   0  0  0  0  0  0  0  0  0  0  0  0
  1  4  1  0  0  0  0
  2 11  1  1  0  0  0
  2  9  1  0  0  0  0
  3  2  1  0  0  0  0
  3  1  1  0  0  0  0
  4  9  1  0  0  0  0
  4  5  1  1  0  0  0
  6 27  1  6  0  0  0
  7  3  2  0  0  0  0
  8 17  1  1  0  0  0
  8 10  1  0  0  0  0
  9 15  1  0  0  0  0
 10 13  1  0  0  0  0
 10 25  1  0  0  0  0
 11 14  1  0  0  0  0
 12 15  1  0  0  0  0
 12  6  1  0  0  0  0
 14  6  1  0  0  0  0
 15 13  1  0  0  0  0
 16  8  1  0  0  0  0
 16 15  1  0  0  0  0
 18 17  1  0  0  0  0
 19 17  1  0  0  0  0
 19 21  1  0  0  0  0
 20 19  2  0  0  0  0
 22 19  2  0  0  0  0
 23 24  2  0  0  0  0
 24 14  1  0  0  0  0
 25 26  1  0  0  0  0
 28 27  1  0  0  0  0
 28 29  1  0  0  0  0
 30 35  2  0  0  0  0
 30 31  1  0  0  0  0
 31 34  2  0  0  0  0
 32 28  1  0  0  0  0
 32 36  2  0  0  0  0
 33 35  1  0  0  0  0
 34 36  1  0  0  0  0
 34 37  1  0  0  0  0
 35 32  1  0  0  0  0
 37 38  1  0  0  0  0
 39 37  2  0  0  0  0
M  END
>  <MODEL>
3

>  <REMARK>
 VINA RESULT:      -7.7      2.072      2.819
  Name = 
  8 active torsions:
  status: ('A' for Active; 'I' for Inactive)
    1  A    between atoms: N_1  and  C_17
    2  A    between atoms: N_1  and  S_19
    3  A    between atoms: C_2  and  C_27
    4  A    between atoms: C_9  and  C_11
    5  A    between atoms: C_9  and  C_25
    6  A    between atoms: C_15  and  C_28
    7  A    between atoms: C_16  and  C_25
    8  A    between atoms: C_20  and  C_34
                            x       y       z     vdW  Elec       q    Type
                         _______ _______ _______ _____ _____    ______ ____

>  <TORSDO>
F 8

$$$$
=
 OpenBabel11072409273D

 39 42  0  0  1  0  0  0  0  0999 V2000
  188.6540  176.0070  141.5540 N   0  0  0  0  0  2  0  0  0  0  0  0
  190.0160  174.4930  142.8610 C   0  0  2  0  0  3  0  0  0  0  0  0
  189.2530  174.7280  141.6180 C   0  0  0  0  0  0  0  0  0  0  0  0
  188.9610  176.7190  142.7800 C   0  0  2  0  0  3  0  0  0  0  0  0
  189.4820  178.0380  142.4650 N   0  0  0  0  0  1  0  0  0  0  0  0
  192.2080  174.6740  144.9650 C   0  0  2  0  0  3  0  0  0  0  0  0
  189.1020  173.8670  140.7130 O   0  0  0  0  0  0  0  0  0  0  0  0
  188.2080  176.6510  146.2450 C   0  0  2  0  0  3  0  0  0  0  0  0
  190.0410  175.8870  143.4860 C   0  0  1  0  0  3  0  0  0  0  0  0
  189.3450  177.6320  146.2930 C   0  0  2  0  0  3  0  0  0  0  0  0
  191.4530  174.0660  142.5700 C   0  0  0  0  0  2  0  0  0  0  0  0
  190.8380  174.7960  145.6420 C   0  0  0  0  0  2  0  0  0  0  0  0
  190.3740  177.1330  145.4990 O   0  0  0  0  0  0  0  0  0  0  0  0
  192.2080  173.6250  143.8340 C   0  0  2  0  0  3  0  0  0  0  0  0
  189.9420  175.8800  145.0230 C   0  0  1  0  0  0  0  0  0  0  0  0
  188.6110  175.6110  145.4050 O   0  0  0  0  0  0  0  0  0  0  0  0
  187.0040  177.2960  145.7120 N   0  0  0  0  0  0  0  0  0  0  0  0
  186.3840  176.4080  144.8970 O   0  0  0  0  0  1  0  0  0  0  0  0
  185.9010  177.6010  147.0200 S   0  0  0  0  0  0  0  0  0  0  0  0
  186.1730  178.9500  147.6270 O   0  0  0  0  0  0  0  0  0  0  0  0
  186.0990  176.4240  148.1950 F   0  0  0  0  0  0  0  0  0  0  0  0
  184.4860  177.5520  146.5180 O   0  0  0  0  0  0  0  0  0  0  0  0
  191.4960  171.3840  143.4610 O   0  0  0  0  0  0  0  0  0  0  0  0
  191.8270  172.2370  144.2720 C   0  0  0  0  0  3  0  0  0  0  0  0
  189.8320  177.8470  147.7220 C   0  0  0  0  0  2  0  0  0  0  0  0
  191.0140  177.1420  147.9600 O   0  0  0  0  0  1  0  0  0  0  0  0
  193.2800  174.3550  145.9970 C   0  0  0  0  0  2  0  0  0  0  0  0
  194.3570  175.4340  146.0060 C   0  0  2  0  0  3  0  0  0  0  0  0
  193.7530  176.8200  145.8420 C   0  0  0  0  0  1  0  0  0  0  0  0
  197.4990  174.1760  144.2190 C   0  0  0  0  0  3  0  0  0  0  0  0
  197.3200  174.7540  142.9610 C   0  0  0  0  0  3  0  0  0  0  0  0
  195.4130  175.1690  144.9750 C   0  0  0  0  0  0  0  0  0  0  0  0
  196.7640  173.7750  146.5040 N   0  0  0  0  0  1  0  0  0  0  0  0
  196.1930  175.5420  142.6980 C   0  0  0  0  0  0  0  0  0  0  0  0
  196.5540  174.3770  145.2290 C   0  0  0  0  0  0  0  0  0  0  0  0
  195.2460  175.7440  143.7110 C   0  0  0  0  0  3  0  0  0  0  0  0
  196.0090  176.1490  141.3710 C   0  0  0  0  0  0  0  0  0  0  0  0
  196.9960  176.0270  140.4010 O   0  0  0  0  0  0  0  0  0  0  0  0
  194.9550  176.7860  141.1020 O   0  0  0  0  0  1  0  0  0  0  0  0
  1  3  1  0  0  0  0
  1  4  1  0  0  0  0
  2 11  1  6  0  0  0
  2  9  1  0  0  0  0
  3  2  1  0  0  0  0
  4  5  1  6  0  0  0
  4  9  1  0  0  0  0
  6 12  1  0  0  0  0
  6 27  1  1  0  0  0
  7  3  2  0  0  0  0
  8 17  1  6  0  0  0
  8 10  1  0  0  0  0
  9 15  1  0  0  0  0
 10 25  1  0  0  0  0
 11 14  1  0  0  0  0
 13 10  1  0  0  0  0
 14 24  1  0  0  0  0
 14  6  1  0  0  0  0
 15 16  1  0  0  0  0
 15 13  1  0  0  0  0
 15 12  1  0  0  0  0
 16  8  1  0  0  0  0
 17 19  1  0  0  0  0
 18 17  1  0  0  0  0
 19 20  2  0  0  0  0
 19 21  1  0  0  0  0
 22 19  2  0  0  0  0
 23 24  2  0  0  0  0
 25 26  1  0  0  0  0
 27 28  1  0  0  0  0
 29 28  1  0  0  0  0
 30 35  1  0  0  0  0
 31 30  2  0  0  0  0
 32 35  2  0  0  0  0
 32 28  1  0  0  0  0
 34 31  1  0  0  0  0
 34 36  2  0  0  0  0
 35 33  1  0  0  0  0
 36 32  1  0  0  0  0
 37 34  1  0  0  0  0
 38 37  2  0  0  0  0
 39 37  1  0  0  0  0
M  END
>  <MODEL>
4

>  <REMARK>
 VINA RESULT:      -7.6      3.995      8.317
  Name = 
  8 active torsions:
  status: ('A' for Active; 'I' for Inactive)
    1  A    between atoms: N_1  and  C_17
    2  A    between atoms: N_1  and  S_19
    3  A    between atoms: C_2  and  C_27
    4  A    between atoms: C_9  and  C_11
    5  A    between atoms: C_9  and  C_25
    6  A    between atoms: C_15  and  C_28
    7  A    between atoms: C_16  and  C_25
    8  A    between atoms: C_20  and  C_34
                            x       y       z     vdW  Elec       q    Type
                         _______ _______ _______ _____ _____    ______ ____

>  <TORSDO>
F 8

$$$$
=
 OpenBabel11072409273D

 39 42  0  0  1  0  0  0  0  0999 V2000
  193.9470  170.9330  143.6430 N   0  0  0  0  0  2  0  0  0  0  0  0
  191.8850  172.1980  143.5910 C   0  0  2  0  0  3  0  0  0  0  0  0
  192.6350  171.0140  143.1240 C   0  0  0  0  0  0  0  0  0  0  0  0
  194.1780  172.0890  144.4890 C   0  0  2  0  0  3  0  0  0  0  0  0
  194.7060  171.6610  145.7730 N   0  0  0  0  0  1  0  0  0  0  0  0
  190.3540  174.0950  145.4130 C   0  0  2  0  0  3  0  0  0  0  0  0
  192.1800  170.1720  142.3070 O   0  0  0  0  0  0  0  0  0  0  0  0
  194.5910  175.6050  144.2660 C   0  0  2  0  0  3  0  0  0  0  0  0
  192.8030  172.7430  144.6840 C   0  0  1  0  0  3  0  0  0  0  0  0
  194.4290  175.5030  145.7560 C   0  0  2  0  0  3  0  0  0  0  0  0
  190.5520  171.8090  144.2260 C   0  0  0  0  0  2  0  0  0  0  0  0
  191.4200  174.8790  144.6380 C   0  0  0  0  0  2  0  0  0  0  0  0
  193.3580  174.6510  146.0130 O   0  0  0  0  0  0  0  0  0  0  0  0
  189.6670  173.0260  144.5390 C   0  0  2  0  0  3  0  0  0  0  0  0
  192.8310  174.2820  144.7610 C   0  0  1  0  0  0  0  0  0  0  0  0
  193.6080  174.7900  143.7000 O   0  0  0  0  0  0  0  0  0  0  0  0
  195.9240  175.1430  143.8670 N   0  0  0  0  0  0  0  0  0  0  0  0
  195.7740  173.9830  143.1820 O   0  0  0  0  0  1  0  0  0  0  0  0
  196.6040  176.2820  142.7450 S   0  0  0  0  0  0  0  0  0  0  0  0
  197.2130  177.4420  143.4840 O   0  0  0  0  0  0  0  0  0  0  0  0
  195.3950  176.8510  141.7360 F   0  0  0  0  0  0  0  0  0  0  0  0
  197.6570  175.6110  141.9090 O   0  0  0  0  0  0  0  0  0  0  0  0
  188.6280  172.8290  142.4070 O   0  0  0  0  0  0  0  0  0  0  0  0
  188.9860  173.5680  143.3120 C   0  0  0  0  0  3  0  0  0  0  0  0
  194.1840  176.8720  146.3820 C   0  0  0  0  0  2  0  0  0  0  0  0
  194.9120  177.8630  145.7210 O   0  0  0  0  0  1  0  0  0  0  0  0
  189.3270  175.0480  146.0090 C   0  0  0  0  0  2  0  0  0  0  0  0
  189.6650  176.4920  145.6580 C   0  0  2  0  0  3  0  0  0  0  0  0
  190.2030  177.2440  146.8650 C   0  0  0  0  0  1  0  0  0  0  0  0
  187.2940  178.1790  143.1720 C   0  0  0  0  0  3  0  0  0  0  0  0
  186.2470  178.5340  144.0250 C   0  0  0  0  0  3  0  0  0  0  0  0
  188.4930  177.2000  145.0450 C   0  0  0  0  0  0  0  0  0  0  0  0
  189.4700  177.1660  142.7760 N   0  0  0  0  0  1  0  0  0  0  0  0
  186.3120  178.2280  145.3900 C   0  0  0  0  0  0  0  0  0  0  0  0
  188.4170  177.5150  143.6710 C   0  0  0  0  0  0  0  0  0  0  0  0
  187.4390  177.5620  145.8900 C   0  0  0  0  0  3  0  0  0  0  0  0
  185.2070  178.6040  146.2860 C   0  0  0  0  0  0  0  0  0  0  0  0
  183.9850  179.0040  145.7610 O   0  0  0  0  0  0  0  0  0  0  0  0
  185.3590  178.5660  147.5360 O   0  0  0  0  0  1  0  0  0  0  0  0
  1  4  1  0  0  0  0
  2 11  1  1  0  0  0
  2  9  1  0  0  0  0
  3  2  1  0  0  0  0
  3  1  1  0  0  0  0
  4  9  1  0  0  0  0
  4  5  1  1  0  0  0
  6 27  1  6  0  0  0
  7  3  2  0  0  0  0
  8 17  1  1  0  0  0
  8 10  1  0  0  0  0
  9 15  1  0  0  0  0
 10 13  1  0  0  0  0
 10 25  1  0  0  0  0
 11 14  1  0  0  0  0
 12 15  1  0  0  0  0
 12  6  1  0  0  0  0
 14  6  1  0  0  0  0
 15 13  1  0  0  0  0
 16  8  1  0  0  0  0
 16 15  1  0  0  0  0
 18 17  1  0  0  0  0
 19 20  2  0  0  0  0
 19 17  1  0  0  0  0
 21 19  1  0  0  0  0
 22 19  2  0  0  0  0
 23 24  2  0  0  0  0
 24 14  1  0  0  0  0
 26 25  1  0  0  0  0
 28 27  1  0  0  0  0
 28 29  1  0  0  0  0
 30 35  2  0  0  0  0
 30 31  1  0  0  0  0
 31 34  2  0  0  0  0
 32 28  1  0  0  0  0
 32 36  2  0  0  0  0
 33 35  1  0  0  0  0
 34 36  1  0  0  0  0
 34 37  1  0  0  0  0
 35 32  1  0  0  0  0
 37 39  1  0  0  0  0
 38 37  2  0  0  0  0
M  END
>  <MODEL>
5

>  <REMARK>
 VINA RESULT:      -7.5      2.281      3.141
  Name = 
  8 active torsions:
  status: ('A' for Active; 'I' for Inactive)
    1  A    between atoms: N_1  and  C_17
    2  A    between atoms: N_1  and  S_19
    3  A    between atoms: C_2  and  C_27
    4  A    between atoms: C_9  and  C_11
    5  A    between atoms: C_9  and  C_25
    6  A    between atoms: C_15  and  C_28
    7  A    between atoms: C_16  and  C_25
    8  A    between atoms: C_20  and  C_34
                            x       y       z     vdW  Elec       q    Type
                         _______ _______ _______ _____ _____    ______ ____

>  <TORSDO>
F 8

$$$$
=
 OpenBabel11072409273D

 39 42  0  0  1  0  0  0  0  0999 V2000
  195.8850  174.1320  143.2500 N   0  0  0  0  0  2  0  0  0  0  0  0
  194.2270  174.9970  144.7850 C   0  0  2  0  0  3  0  0  0  0  0  0
  195.6190  174.5500  144.5730 C   0  0  0  0  0  0  0  0  0  0  0  0
  194.6630  174.2490  142.4760 C   0  0  2  0  0  3  0  0  0  0  0  0
  194.9280  174.9750  141.2470 N   0  0  0  0  0  1  0  0  0  0  0  0
  191.7020  176.6920  144.6590 C   0  0  2  0  0  3  0  0  0  0  0  0
  196.4860  174.4980  145.4840 O   0  0  0  0  0  0  0  0  0  0  0  0
  191.4530  172.7690  142.1910 C   0  0  2  0  0  3  0  0  0  0  0  0
  193.6900  175.0490  143.3540 C   0  0  1  0  0  3  0  0  0  0  0  0
  191.2090  173.9750  141.3310 C   0  0  2  0  0  3  0  0  0  0  0  0
  194.1680  176.4030  145.3760 C   0  0  0  0  0  2  0  0  0  0  0  0
  191.3540  175.2320  144.3460 C   0  0  0  0  0  2  0  0  0  0  0  0
  191.7260  175.0850  141.9920 O   0  0  0  0  0  0  0  0  0  0  0  0
  192.7450  176.8130  145.7890 C   0  0  2  0  0  3  0  0  0  0  0  0
  192.2150  174.6220  143.2290 C   0  0  1  0  0  0  0  0  0  0  0  0
  192.1240  173.2190  143.3310 O   0  0  0  0  0  0  0  0  0  0  0  0
  192.2750  171.7900  141.4730 N   0  0  0  0  0  0  0  0  0  0  0  0
  193.1130  171.2130  142.3690 O   0  0  0  0  0  1  0  0  0  0  0  0
  191.2490  170.5170  140.8820 S   0  0  0  0  0  0  0  0  0  0  0  0
  192.0770  169.4310  140.2530 O   0  0  0  0  0  0  0  0  0  0  0  0
  190.2030  171.1410  139.7340 F   0  0  0  0  0  0  0  0  0  0  0  0
  190.4430  169.9430  142.0130 O   0  0  0  0  0  0  0  0  0  0  0  0
  191.8990  176.8680  148.0140 O   0  0  0  0  0  0  0  0  0  0  0  0
  192.3260  176.1880  147.0930 C   0  0  0  0  0  3  0  0  0  0  0  0
  189.7210  174.1660  141.0520 C   0  0  0  0  0  2  0  0  0  0  0  0
  188.9590  173.2070  141.7220 O   0  0  0  0  0  1  0  0  0  0  0  0
  190.4420  177.4740  145.0010 C   0  0  0  0  0  2  0  0  0  0  0  0
  189.2130  176.8070  144.3950 C   0  0  2  0  0  3  0  0  0  0  0  0
  188.9590  177.2970  142.9780 C   0  0  0  0  0  1  0  0  0  0  0  0
  186.6500  176.4740  147.2180 C   0  0  0  0  0  3  0  0  0  0  0  0
  185.6930  177.3990  146.7980 C   0  0  0  0  0  3  0  0  0  0  0  0
  188.0040  176.9820  145.2640 C   0  0  0  0  0  0  0  0  0  0  0  0
  188.7630  175.3060  146.9130 N   0  0  0  0  0  1  0  0  0  0  0  0
  185.8800  178.1220  145.6130 C   0  0  0  0  0  0  0  0  0  0  0  0
  187.8040  176.2590  146.4600 C   0  0  0  0  0  0  0  0  0  0  0  0
  187.0370  177.9060  144.8530 C   0  0  0  0  0  3  0  0  0  0  0  0
  184.8690  179.0970  145.1740 C   0  0  0  0  0  0  0  0  0  0  0  0
  185.2040  180.0900  144.2620 O   0  0  0  0  0  0  0  0  0  0  0  0
  183.6920  179.0400  145.6200 O   0  0  0  0  0  1  0  0  0  0  0  0
  1  3  1  0  0  0  0
  2 11  1  6  0  0  0
  3  2  1  0  0  0  0
  3  7  2  0  0  0  0
  4  5  1  6  0  0  0
  4  1  1  0  0  0  0
  4  9  1  0  0  0  0
  6 27  1  1  0  0  0
  6 14  1  0  0  0  0
  8 17  1  6  0  0  0
  8 16  1  0  0  0  0
  9  2  1  0  0  0  0
 10 13  1  0  0  0  0
 10  8  1  0  0  0  0
 11 14  1  0  0  0  0
 12  6  1  0  0  0  0
 13 15  1  0  0  0  0
 14 24  1  0  0  0  0
 15 16  1  0  0  0  0
 15  9  1  0  0  0  0
 15 12  1  0  0  0  0
 17 18  1  0  0  0  0
 19 17  1  0  0  0  0
 19 22  2  0  0  0  0
 20 19  2  0  0  0  0
 21 19  1  0  0  0  0
 24 23  2  0  0  0  0
 25 10  1  0  0  0  0
 25 26  1  0  0  0  0
 28 27  1  0  0  0  0
 28 32  1  0  0  0  0
 29 28  1  0  0  0  0
 31 30  1  0  0  0  0
 32 35  1  0  0  0  0
 34 31  2  0  0  0  0
 35 33  1  0  0  0  0
 35 30  2  0  0  0  0
 36 32  2  0  0  0  0
 36 34  1  0  0  0  0
 37 34  1  0  0  0  0
 37 39  1  0  0  0  0
 38 37  2  0  0  0  0
M  END
>  <MODEL>
6

>  <REMARK>
 VINA RESULT:      -7.5      2.594      5.061
  Name = 
  8 active torsions:
  status: ('A' for Active; 'I' for Inactive)
    1  A    between atoms: N_1  and  C_17
    2  A    between atoms: N_1  and  S_19
    3  A    between atoms: C_2  and  C_27
    4  A    between atoms: C_9  and  C_11
    5  A    between atoms: C_9  and  C_25
    6  A    between atoms: C_15  and  C_28
    7  A    between atoms: C_16  and  C_25
    8  A    between atoms: C_20  and  C_34
                            x       y       z     vdW  Elec       q    Type
                         _______ _______ _______ _____ _____    ______ ____

>  <TORSDO>
F 8

$$$$
=
 OpenBabel11072409273D

 39 42  0  0  1  0  0  0  0  0999 V2000
  195.2380  174.9640  143.8500 N   0  0  0  0  0  2  0  0  0  0  0  0
  193.1550  175.0650  145.0780 C   0  0  2  0  0  3  0  0  0  0  0  0
  194.6320  175.1040  145.1190 C   0  0  0  0  0  0  0  0  0  0  0  0
  194.1930  174.7950  142.8580 C   0  0  2  0  0  3  0  0  0  0  0  0
  194.4050  175.7200  141.7590 N   0  0  0  0  0  1  0  0  0  0  0  0
  190.2720  175.8940  144.5670 C   0  0  2  0  0  3  0  0  0  0  0  0
  195.3020  175.2060  146.1800 O   0  0  0  0  0  0  0  0  0  0  0  0
  191.7450  172.4410  141.8360 C   0  0  2  0  0  3  0  0  0  0  0  0
  192.8790  175.1330  143.5770 C   0  0  1  0  0  3  0  0  0  0  0  0
  191.2640  173.6130  141.0290 C   0  0  2  0  0  3  0  0  0  0  0  0
  192.5390  176.2940  145.7410 C   0  0  0  0  0  2  0  0  0  0  0  0
  190.4810  174.4510  144.0910 C   0  0  0  0  0  2  0  0  0  0  0  0
  191.2690  174.7330  141.8550 O   0  0  0  0  0  0  0  0  0  0  0  0
  191.0130  176.1850  145.8880 C   0  0  2  0  0  3  0  0  0  0  0  0
  191.6690  174.2890  143.1300 C   0  0  1  0  0  0  0  0  0  0  0  0
  192.0300  172.9260  143.1150 O   0  0  0  0  0  0  0  0  0  0  0  0
  192.9510  171.8680  141.2320 N   0  0  0  0  0  0  0  0  0  0  0  0
  193.7120  171.3540  142.2290 O   0  0  0  0  0  1  0  0  0  0  0  0
  192.4950  170.5230  140.2300 S   0  0  0  0  0  0  0  0  0  0  0  0
  192.6810  170.8670  138.7780 O   0  0  0  0  0  0  0  0  0  0  0  0
  190.8850  170.1520  140.5030 F   0  0  0  0  0  0  0  0  0  0  0  0
  193.3330  169.3230  140.5720 O   0  0  0  0  0  0  0  0  0  0  0  0
  191.2370  175.2960  148.0850 O   0  0  0  0  0  0  0  0  0  0  0  0
  190.6120  175.2980  147.0360 C   0  0  0  0  0  3  0  0  0  0  0  0
  189.8660  173.3670  140.4720 C   0  0  0  0  0  2  0  0  0  0  0  0
  189.1010  172.6060  141.3590 O   0  0  0  0  0  1  0  0  0  0  0  0
  188.7860  176.1940  144.7030 C   0  0  0  0  0  2  0  0  0  0  0  0
  188.2980  177.0400  143.5320 C   0  0  2  0  0  3  0  0  0  0  0  0
  189.4180  177.8990  142.9660 C   0  0  0  0  0  1  0  0  0  0  0  0
  185.1500  179.2110  143.3780 C   0  0  0  0  0  3  0  0  0  0  0  0
  184.9080  179.3970  144.7400 C   0  0  0  0  0  3  0  0  0  0  0  0
  187.1050  177.8660  143.9070 C   0  0  0  0  0  0  0  0  0  0  0  0
  186.4660  178.2770  141.5560 N   0  0  0  0  0  1  0  0  0  0  0  0
  185.7570  178.8250  145.6950 C   0  0  0  0  0  0  0  0  0  0  0  0
  186.2420  178.4500  142.9540 C   0  0  0  0  0  0  0  0  0  0  0  0
  186.8520  178.0620  145.2690 C   0  0  0  0  0  3  0  0  0  0  0  0
  185.4980  179.0230  147.1300 C   0  0  0  0  0  0  0  0  0  0  0  0
  186.4240  179.6880  147.9230 O   0  0  0  0  0  1  0  0  0  0  0  0
  184.4340  178.5930  147.6510 O   0  0  0  0  0  0  0  0  0  0  0  0
  1  3  1  0  0  0  0
  2  3  1  0  0  0  0
  2 11  1  1  0  0  0
  3  7  2  0  0  0  0
  4  5  1  6  0  0  0
  4  9  1  0  0  0  0
  4  1  1  0  0  0  0
  6 27  1  1  0  0  0
  6 14  1  0  0  0  0
  8 17  1  6  0  0  0
  8 16  1  0  0  0  0
  9  2  1  0  0  0  0
 10  8  1  0  0  0  0
 10 13  1  0  0  0  0
 11 14  1  0  0  0  0
 12  6  1  0  0  0  0
 13 15  1  0  0  0  0
 14 24  1  0  0  0  0
 15  9  1  0  0  0  0
 15 12  1  0  0  0  0
 16 15  1  0  0  0  0
 17 18  1  0  0  0  0
 19 21  1  0  0  0  0
 19 22  2  0  0  0  0
 19 17  1  0  0  0  0
 20 19  2  0  0  0  0
 24 23  2  0  0  0  0
 25 10  1  0  0  0  0
 25 26  1  0  0  0  0
 28 32  1  0  0  0  0
 28 27  1  0  0  0  0
 29 28  1  0  0  0  0
 30 31  1  0  0  0  0
 31 34  2  0  0  0  0
 32 36  2  0  0  0  0
 33 35  1  0  0  0  0
 34 37  1  0  0  0  0
 35 30  2  0  0  0  0
 35 32  1  0  0  0  0
 36 34  1  0  0  0  0
 37 39  2  0  0  0  0
 37 38  1  0  0  0  0
M  END
>  <MODEL>
7

>  <REMARK>
 VINA RESULT:      -7.3      2.988      5.087
  Name = 
  8 active torsions:
  status: ('A' for Active; 'I' for Inactive)
    1  A    between atoms: N_1  and  C_17
    2  A    between atoms: N_1  and  S_19
    3  A    between atoms: C_2  and  C_27
    4  A    between atoms: C_9  and  C_11
    5  A    between atoms: C_9  and  C_25
    6  A    between atoms: C_15  and  C_28
    7  A    between atoms: C_16  and  C_25
    8  A    between atoms: C_20  and  C_34
                            x       y       z     vdW  Elec       q    Type
                         _______ _______ _______ _____ _____    ______ ____

>  <TORSDO>
F 8

$$$$
=
 OpenBabel11072409273D

 39 42  0  0  1  0  0  0  0  0999 V2000
  195.0920  176.0230  144.6020 N   0  0  0  0  0  2  0  0  0  0  0  0
  192.8330  176.1610  145.4590 C   0  0  2  0  0  3  0  0  0  0  0  0
  194.2270  176.6480  145.5280 C   0  0  0  0  0  0  0  0  0  0  0  0
  194.3310  175.0420  143.8510 C   0  0  2  0  0  3  0  0  0  0  0  0
  194.5540  175.2300  142.4290 N   0  0  0  0  0  1  0  0  0  0  0  0
  190.0030  175.6860  144.4470 C   0  0  2  0  0  3  0  0  0  0  0  0
  194.6310  177.5030  146.3580 O   0  0  0  0  0  0  0  0  0  0  0  0
  192.7090  171.9180  144.2890 C   0  0  2  0  0  3  0  0  0  0  0  0
  192.8570  175.3130  144.1870 C   0  0  1  0  0  3  0  0  0  0  0  0
  192.1590  172.2560  142.9330 C   0  0  2  0  0  3  0  0  0  0  0  0
  191.8440  177.3060  145.2600 C   0  0  0  0  0  2  0  0  0  0  0  0
  190.6120  174.3560  144.9060 C   0  0  0  0  0  2  0  0  0  0  0  0
  191.7540  173.5880  142.9550 O   0  0  0  0  0  0  0  0  0  0  0  0
  190.3810  176.8530  145.3820 C   0  0  2  0  0  3  0  0  0  0  0  0
  191.9750  174.0520  144.2660 C   0  0  1  0  0  0  0  0  0  0  0  0
  192.6180  173.0800  145.0590 O   0  0  0  0  0  0  0  0  0  0  0  0
  194.1070  171.4920  144.1780 N   0  0  0  0  0  0  0  0  0  0  0  0
  194.7750  171.9720  145.2560 O   0  0  0  0  0  1  0  0  0  0  0  0
  194.1810  169.7600  144.2960 S   0  0  0  0  0  0  0  0  0  0  0  0
  194.6530  169.1680  142.9970 O   0  0  0  0  0  0  0  0  0  0  0  0
  192.6550  169.1660  144.6450 F   0  0  0  0  0  0  0  0  0  0  0  0
  195.1200  169.3610  145.4000 O   0  0  0  0  0  0  0  0  0  0  0  0
  190.0730  177.5650  147.6330 O   0  0  0  0  0  0  0  0  0  0  0  0
  189.9590  176.6650  146.8150 C   0  0  0  0  0  3  0  0  0  0  0  0
  190.9880  171.3490  142.5680 C   0  0  0  0  0  2  0  0  0  0  0  0
  189.8830  172.0980  142.1600 O   0  0  0  0  0  1  0  0  0  0  0  0
  188.4910  175.5600  144.3240 C   0  0  0  0  0  2  0  0  0  0  0  0
  187.9650  176.4510  143.2050 C   0  0  2  0  0  3  0  0  0  0  0  0
  189.1040  177.0850  142.4210 C   0  0  0  0  0  1  0  0  0  0  0  0
  185.4160  179.2960  143.4380 C   0  0  0  0  0  3  0  0  0  0  0  0
  185.2620  179.3820  144.8230 C   0  0  0  0  0  3  0  0  0  0  0  0
  187.0110  177.4860  143.7240 C   0  0  0  0  0  0  0  0  0  0  0  0
  186.4230  178.2900  141.4640 N   0  0  0  0  0  1  0  0  0  0  0  0
  185.9780  178.5270  145.6680 C   0  0  0  0  0  0  0  0  0  0  0  0
  186.2850  178.3540  142.8810 C   0  0  0  0  0  0  0  0  0  0  0  0
  186.8500  177.5820  145.1100 C   0  0  0  0  0  3  0  0  0  0  0  0
  185.8130  178.6200  147.1280 C   0  0  0  0  0  0  0  0  0  0  0  0
  186.9270  178.6670  147.9570 O   0  0  0  0  0  1  0  0  0  0  0  0
  184.6620  178.6590  147.6380 O   0  0  0  0  0  0  0  0  0  0  0  0
  1  3  1  0  0  0  0
  2 11  1  6  0  0  0
  2  3  1  0  0  0  0
  3  7  2  0  0  0  0
  4  5  1  6  0  0  0
  4  9  1  0  0  0  0
  4  1  1  0  0  0  0
  6 27  1  1  0  0  0
  6 12  1  0  0  0  0
  6 14  1  0  0  0  0
  8 17  1  6  0  0  0
  8 16  1  0  0  0  0
  9 15  1  0  0  0  0
  9  2  1  0  0  0  0
 10 13  1  0  0  0  0
 10  8  1  0  0  0  0
 11 14  1  0  0  0  0
 13 15  1  0  0  0  0
 14 24  1  0  0  0  0
 15 12  1  0  0  0  0
 15 16  1  0  0  0  0
 17 19  1  0  0  0  0
 17 18  1  0  0  0  0
 19 21  1  0  0  0  0
 19 22  2  0  0  0  0
 20 19  2  0  0  0  0
 24 23  2  0  0  0  0
 25 10  1  0  0  0  0
 26 25  1  0  0  0  0
 28 32  1  0  0  0  0
 28 27  1  0  0  0  0
 29 28  1  0  0  0  0
 30 31  1  0  0  0  0
 31 34  2  0  0  0  0
 32 36  2  0  0  0  0
 33 35  1  0  0  0  0
 34 37  1  0  0  0  0
 35 30  2  0  0  0  0
 35 32  1  0  0  0  0
 36 34  1  0  0  0  0
 37 39  2  0  0  0  0
 37 38  1  0  0  0  0
M  END
>  <MODEL>
8

>  <REMARK>
 VINA RESULT:      -7.3      3.103      5.001
  Name = 
  8 active torsions:
  status: ('A' for Active; 'I' for Inactive)
    1  A    between atoms: N_1  and  C_17
    2  A    between atoms: N_1  and  S_19
    3  A    between atoms: C_2  and  C_27
    4  A    between atoms: C_9  and  C_11
    5  A    between atoms: C_9  and  C_25
    6  A    between atoms: C_15  and  C_28
    7  A    between atoms: C_16  and  C_25
    8  A    between atoms: C_20  and  C_34
                            x       y       z     vdW  Elec       q    Type
                         _______ _______ _______ _____ _____    ______ ____

>  <TORSDO>
F 8

$$$$
=
 OpenBabel11072409273D

 39 42  0  0  1  0  0  0  0  0999 V2000
  187.9400  176.6620  140.9050 N   0  0  0  0  0  2  0  0  0  0  0  0
  188.8480  174.7090  142.0090 C   0  0  2  0  0  3  0  0  0  0  0  0
  188.1820  175.2730  140.8160 C   0  0  0  0  0  0  0  0  0  0  0  0
  188.4130  177.1290  142.1950 C   0  0  2  0  0  3  0  0  0  0  0  0
  189.2640  178.2920  142.0140 N   0  0  0  0  0  1  0  0  0  0  0  0
  190.9940  174.0770  144.0710 C   0  0  2  0  0  3  0  0  0  0  0  0
  187.8170  174.5870  139.8260 O   0  0  0  0  0  0  0  0  0  0  0  0
  187.6440  176.8760  145.6480 C   0  0  2  0  0  3  0  0  0  0  0  0
  189.2330  175.9710  142.7810 C   0  0  1  0  0  3  0  0  0  0  0  0
  188.9980  177.5130  145.7770 C   0  0  2  0  0  3  0  0  0  0  0  0
  190.1240  173.9570  141.6410 C   0  0  0  0  0  2  0  0  0  0  0  0
  189.6990  174.4760  144.7870 C   0  0  0  0  0  2  0  0  0  0  0  0
  189.8660  176.8540  144.9100 O   0  0  0  0  0  0  0  0  0  0  0  0
  190.7270  173.1970  142.8320 C   0  0  2  0  0  3  0  0  0  0  0  0
  189.1230  175.8190  144.3110 C   0  0  1  0  0  0  0  0  0  0  0  0
  187.7660  175.8660  144.6900 O   0  0  0  0  0  0  0  0  0  0  0  0
  186.6550  177.8670  145.2150 N   0  0  0  0  0  0  0  0  0  0  0  0
  185.8540  177.2800  144.2930 O   0  0  0  0  0  1  0  0  0  0  0  0
  185.6310  178.2670  146.5610 S   0  0  0  0  0  0  0  0  0  0  0  0
  184.4250  179.0330  146.0890 O   0  0  0  0  0  0  0  0  0  0  0  0
  186.4880  179.2110  147.6460 F   0  0  0  0  0  0  0  0  0  0  0  0
  185.1860  177.0110  147.2570 O   0  0  0  0  0  0  0  0  0  0  0  0
  189.8960  171.0350  142.2840 O   0  0  0  0  0  0  0  0  0  0  0  0
  189.9920  171.9160  143.1240 C   0  0  0  0  0  3  0  0  0  0  0  0
  189.5140  177.4330  147.2100 C   0  0  0  0  0  2  0  0  0  0  0  0
  190.7420  176.7700  147.2640 O   0  0  0  0  0  1  0  0  0  0  0  0
  191.9380  173.3760  145.0380 C   0  0  0  0  0  2  0  0  0  0  0  0
  193.2390  172.9950  144.3400 C   0  0  2  0  0  3  0  0  0  0  0  0
  193.9470  171.8640  145.0690 C   0  0  0  0  0  1  0  0  0  0  0  0
  195.8630  175.4320  142.9920 C   0  0  0  0  0  3  0  0  0  0  0  0
  195.7650  176.4540  143.9380 C   0  0  0  0  0  3  0  0  0  0  0  0
  194.1370  174.1820  144.1590 C   0  0  0  0  0  0  0  0  0  0  0  0
  195.1790  173.2680  142.1140 N   0  0  0  0  0  1  0  0  0  0  0  0
  194.8580  176.3510  144.9990 C   0  0  0  0  0  0  0  0  0  0  0  0
  195.0560  174.2960  143.0940 C   0  0  0  0  0  0  0  0  0  0  0  0
  194.0490  175.2120  145.1020 C   0  0  0  0  0  3  0  0  0  0  0  0
  194.7580  177.4310  145.9940 C   0  0  0  0  0  0  0  0  0  0  0  0
  195.3550  178.6620  145.7550 O   0  0  0  0  0  0  0  0  0  0  0  0
  194.1300  177.2490  147.0710 O   0  0  0  0  0  1  0  0  0  0  0  0
  1  4  1  0  0  0  0
  2 11  1  6  0  0  0
  2  9  1  0  0  0  0
  3  1  1  0  0  0  0
  3  2  1  0  0  0  0
  4  5  1  6  0  0  0
  4  9  1  0  0  0  0
  6 12  1  0  0  0  0
  6 27  1  1  0  0  0
  7  3  2  0  0  0  0
  8 17  1  6  0  0  0
  8 10  1  0  0  0  0
  9 15  1  0  0  0  0
 10 25  1  0  0  0  0
 11 14  1  0  0  0  0
 13 10  1  0  0  0  0
 14 24  1  0  0  0  0
 14  6  1  0  0  0  0
 15 16  1  0  0  0  0
 15 12  1  0  0  0  0
 15 13  1  0  0  0  0
 16  8  1  0  0  0  0
 17 19  1  0  0  0  0
 18 17  1  0  0  0  0
 19 22  2  0  0  0  0
 19 21  1  0  0  0  0
 20 19  2  0  0  0  0
 23 24  2  0  0  0  0
 25 26  1  0  0  0  0
 28 27  1  0  0  0  0
 28 29  1  0  0  0  0
 30 35  2  0  0  0  0
 30 31  1  0  0  0  0
 31 34  2  0  0  0  0
 32 28  1  0  0  0  0
 32 36  2  0  0  0  0
 33 35  1  0  0  0  0
 34 36  1  0  0  0  0
 34 37  1  0  0  0  0
 35 32  1  0  0  0  0
 37 39  1  0  0  0  0
 38 37  2  0  0  0  0
M  END
>  <MODEL>
9

>  <REMARK>
 VINA RESULT:      -7.2      3.855      8.045
  Name = 
  8 active torsions:
  status: ('A' for Active; 'I' for Inactive)
    1  A    between atoms: N_1  and  C_17
    2  A    between atoms: N_1  and  S_19
    3  A    between atoms: C_2  and  C_27
    4  A    between atoms: C_9  and  C_11
    5  A    between atoms: C_9  and  C_25
    6  A    between atoms: C_15  and  C_28
    7  A    between atoms: C_16  and  C_25
    8  A    between atoms: C_20  and  C_34
                            x       y       z     vdW  Elec       q    Type
                         _______ _______ _______ _____ _____    ______ ____

>  <TORSDO>
F 8

$$$$
