=
 OpenBabel11062420173D

 25 27  0  0  1  0  0  0  0  0999 V2000
  190.7300  174.9710  145.9610 C   0  0  1  0  0  3  0  0  0  0  0  0
  189.4470  172.4160  143.4410 C   0  0  0  0  0  3  0  0  0  0  0  0
  189.4690  173.1690  142.2630 C   0  0  0  0  0  0  0  0  0  0  0  0
  190.3200  175.0730  143.4960 C   0  0  0  0  0  3  0  0  0  0  0  0
  189.9100  174.4960  142.2900 C   0  0  0  0  0  3  0  0  0  0  0  0
  190.2970  174.3240  144.6780 C   0  0  0  0  0  0  0  0  0  0  0  0
  189.8560  172.9920  144.6470 C   0  0  0  0  0  3  0  0  0  0  0  0
  188.2820  173.4520  140.2440 O   0  0  0  0  0  1  0  0  0  0  0  0
  189.0550  172.5500  140.9750 C   0  0  0  0  0  2  0  0  0  0  0  0
  192.2160  175.1580  146.0060 C   0  0  0  0  0  0  0  0  0  0  0  0
  192.7220  176.3480  146.4310 N   0  0  0  0  0  0  0  0  0  0  0  0
  194.0630  176.5680  146.5090 C   0  0  0  0  0  3  0  0  0  0  0  0
  193.0880  174.1200  145.6490 C   0  0  0  0  0  3  0  0  0  0  0  0
  194.9610  175.5590  146.1550 C   0  0  0  0  0  3  0  0  0  0  0  0
  194.4660  174.3270  145.7230 C   0  0  0  0  0  3  0  0  0  0  0  0
  190.0410  176.2380  146.1770 N   0  0  0  0  0  2  0  0  0  0  0  0
  188.7600  176.3320  146.8080 C   0  0  0  0  0  0  0  0  0  0  0  0
  188.2100  175.2960  147.2660 O   0  0  0  0  0  0  0  0  0  0  0  0
  188.1060  177.5640  146.9570 O   0  0  0  0  0  0  0  0  0  0  0  0
  184.2880  178.5650  145.4890 C   0  0  0  0  0  3  0  0  0  0  0  0
  185.3690  178.5280  144.6070 C   0  0  0  0  0  3  0  0  0  0  0  0
  185.7560  177.9440  147.3110 C   0  0  0  0  0  3  0  0  0  0  0  0
  184.4810  178.2710  146.8420 C   0  0  0  0  0  3  0  0  0  0  0  0
  186.8490  177.9090  146.4370 C   0  0  0  0  0  0  0  0  0  0  0  0
  186.6450  178.2010  145.0780 C   0  0  0  0  0  3  0  0  0  0  0  0
  1 10  1  0  0  0  0
  1 16  1  6  0  0  0
  2  7  1  0  0  0  0
  3  5  1  0  0  0  0
  3  2  2  0  0  0  0
  4  6  1  0  0  0  0
  5  4  2  0  0  0  0
  6  1  1  0  0  0  0
  7  6  2  0  0  0  0
  8  9  1  0  0  0  0
  9  3  1  0  0  0  0
 10 11  1  0  0  0  0
 11 12  2  0  0  0  0
 13 15  1  0  0  0  0
 13 10  2  0  0  0  0
 14 12  1  0  0  0  0
 15 14  2  0  0  0  0
 16 17  1  0  0  0  0
 17 19  1  0  0  0  0
 17 18  2  0  0  0  0
 20 23  1  0  0  0  0
 21 25  1  0  0  0  0
 21 20  2  0  0  0  0
 23 22  2  0  0  0  0
 24 19  1  0  0  0  0
 24 22  1  0  0  0  0
 25 24  2  0  0  0  0
M  END
>  <MODEL>
1

>  <REMARK>
 VINA RESULT:      -6.7      0.000      0.000
  Name = 
  6 active torsions:
  status: ('A' for Active; 'I' for Inactive)
    1  A    between atoms: C_2  and  C_4
    2  A    between atoms: C_2  and  N_9
    3  A    between atoms: C_2  and  C_13
    4  A    between atoms: C_5  and  C_25
    5  A    between atoms: O_18  and  C_19
    6  A    between atoms: O_18  and  C_21
                            x       y       z     vdW  Elec       q    Type
                         _______ _______ _______ _____ _____    ______ ____

>  <TORSDO>
F 6

$$$$
=
 OpenBabel11062420173D

 25 27  0  0  1  0  0  0  0  0999 V2000
  188.2230  177.6200  144.6090 C   0  0  1  0  0  3  0  0  0  0  0  0
  187.7660  176.4360  141.0160 C   0  0  0  0  0  3  0  0  0  0  0  0
  188.2040  175.1110  141.1140 C   0  0  0  0  0  0  0  0  0  0  0  0
  188.6340  175.4280  143.4760 C   0  0  0  0  0  3  0  0  0  0  0  0
  188.6320  174.6060  142.3450 C   0  0  0  0  0  3  0  0  0  0  0  0
  188.2000  176.7550  143.3830 C   0  0  0  0  0  0  0  0  0  0  0  0
  187.7670  177.2580  142.1460 C   0  0  0  0  0  3  0  0  0  0  0  0
  188.2980  172.8950  140.3100 O   0  0  0  0  0  1  0  0  0  0  0  0
  188.1810  174.2290  139.9160 C   0  0  0  0  0  2  0  0  0  0  0  0
  186.8470  177.8040  145.1760 C   0  0  0  0  0  0  0  0  0  0  0  0
  186.1490  178.9310  144.8700 N   0  0  0  0  0  0  0  0  0  0  0  0
  184.8910  179.1420  145.3420 C   0  0  0  0  0  3  0  0  0  0  0  0
  186.2610  176.8210  145.9850 C   0  0  0  0  0  3  0  0  0  0  0  0
  184.2780  178.1890  146.1570 C   0  0  0  0  0  3  0  0  0  0  0  0
  184.9710  177.0200  146.4770 C   0  0  0  0  0  3  0  0  0  0  0  0
  189.1330  177.0890  145.6180 N   0  0  0  0  0  2  0  0  0  0  0  0
  190.5550  177.2280  145.5370 C   0  0  0  0  0  0  0  0  0  0  0  0
  191.0660  177.8920  144.5970 O   0  0  0  0  0  0  0  0  0  0  0  0
  191.4010  176.6630  146.5020 O   0  0  0  0  0  0  0  0  0  0  0  0
  194.7570  174.2280  145.7630 C   0  0  0  0  0  3  0  0  0  0  0  0
  194.9500  175.5520  146.1630 C   0  0  0  0  0  3  0  0  0  0  0  0
  192.3590  174.5520  145.8590 C   0  0  0  0  0  3  0  0  0  0  0  0
  193.4610  173.7270  145.6110 C   0  0  0  0  0  3  0  0  0  0  0  0
  192.5400  175.8820  146.2560 C   0  0  0  0  0  0  0  0  0  0  0  0
  193.8460  176.3750  146.4100 C   0  0  0  0  0  3  0  0  0  0  0  0
  1 10  1  0  0  0  0
  1 16  1  1  0  0  0
  2  3  2  0  0  0  0
  2  7  1  0  0  0  0
  3  5  1  0  0  0  0
  5  4  2  0  0  0  0
  6  4  1  0  0  0  0
  6  1  1  0  0  0  0
  7  6  2  0  0  0  0
  9  8  1  0  0  0  0
  9  3  1  0  0  0  0
 10 13  1  0  0  0  0
 11 10  2  0  0  0  0
 11 12  1  0  0  0  0
 12 14  2  0  0  0  0
 13 15  2  0  0  0  0
 14 15  1  0  0  0  0
 17 16  1  0  0  0  0
 17 19  1  0  0  0  0
 18 17  2  0  0  0  0
 20 21  1  0  0  0  0
 21 25  2  0  0  0  0
 22 24  2  0  0  0  0
 23 20  2  0  0  0  0
 23 22  1  0  0  0  0
 24 25  1  0  0  0  0
 24 19  1  0  0  0  0
M  END
>  <MODEL>
2

>  <REMARK>
 VINA RESULT:      -6.7      2.095      6.565
  Name = 
  6 active torsions:
  status: ('A' for Active; 'I' for Inactive)
    1  A    between atoms: C_2  and  C_4
    2  A    between atoms: C_2  and  N_9
    3  A    between atoms: C_2  and  C_13
    4  A    between atoms: C_5  and  C_25
    5  A    between atoms: O_18  and  C_19
    6  A    between atoms: O_18  and  C_21
                            x       y       z     vdW  Elec       q    Type
                         _______ _______ _______ _____ _____    ______ ____

>  <TORSDO>
F 6

$$$$
=
 OpenBabel11062420173D

 25 27  0  0  1  0  0  0  0  0999 V2000
  189.7880  175.3140  142.8020 C   0  0  1  0  0  3  0  0  0  0  0  0
  193.2280  176.2030  144.1800 C   0  0  0  0  0  3  0  0  0  0  0  0
  192.9300  176.4040  145.5310 C   0  0  0  0  0  0  0  0  0  0  0  0
  190.6050  175.8830  145.0970 C   0  0  0  0  0  3  0  0  0  0  0  0
  191.6200  176.2390  145.9900 C   0  0  0  0  0  3  0  0  0  0  0  0
  190.8970  175.6830  143.7430 C   0  0  0  0  0  0  0  0  0  0  0  0
  192.2140  175.8470  143.2860 C   0  0  0  0  0  3  0  0  0  0  0  0
  194.8210  177.7550  145.9360 O   0  0  0  0  0  1  0  0  0  0  0  0
  194.0130  176.7600  146.4870 C   0  0  0  0  0  2  0  0  0  0  0  0
  189.9380  173.9090  142.3030 C   0  0  0  0  0  0  0  0  0  0  0  0
  190.1380  173.6940  140.9740 N   0  0  0  0  0  0  0  0  0  0  0  0
  190.2980  172.4410  140.4690 C   0  0  0  0  0  3  0  0  0  0  0  0
  189.9070  172.8210  143.1860 C   0  0  0  0  0  3  0  0  0  0  0  0
  190.2650  171.3330  141.3170 C   0  0  0  0  0  3  0  0  0  0  0  0
  190.0700  171.5280  142.6850 C   0  0  0  0  0  3  0  0  0  0  0  0
  188.4800  175.5090  143.4190 N   0  0  0  0  0  2  0  0  0  0  0  0
  187.3400  175.9830  142.6960 C   0  0  0  0  0  0  0  0  0  0  0  0
  187.4240  176.1850  141.4560 O   0  0  0  0  0  0  0  0  0  0  0  0
  186.1090  176.2020  143.3330 O   0  0  0  0  0  0  0  0  0  0  0  0
  185.2660  179.0180  146.3490 C   0  0  0  0  0  3  0  0  0  0  0  0
  185.5630  179.4670  145.0610 C   0  0  0  0  0  3  0  0  0  0  0  0
  185.5370  176.7280  145.6100 C   0  0  0  0  0  3  0  0  0  0  0  0
  185.2520  177.6480  146.6240 C   0  0  0  0  0  3  0  0  0  0  0  0
  185.8410  177.1670  144.3160 C   0  0  0  0  0  0  0  0  0  0  0  0
  185.8490  178.5460  144.0480 C   0  0  0  0  0  3  0  0  0  0  0  0
  1 16  1  1  0  0  0
  1  6  1  0  0  0  0
  2  3  1  0  0  0  0
  3  5  2  0  0  0  0
  3  9  1  0  0  0  0
  4  5  1  0  0  0  0
  6  4  2  0  0  0  0
  7  6  1  0  0  0  0
  7  2  2  0  0  0  0
  8  9  1  0  0  0  0
 10  1  1  0  0  0  0
 10 13  1  0  0  0  0
 11 10  2  0  0  0  0
 12 11  1  0  0  0  0
 12 14  2  0  0  0  0
 14 15  1  0  0  0  0
 15 13  2  0  0  0  0
 17 19  1  0  0  0  0
 17 16  1  0  0  0  0
 18 17  2  0  0  0  0
 19 24  1  0  0  0  0
 20 23  1  0  0  0  0
 21 20  2  0  0  0  0
 22 23  2  0  0  0  0
 24 22  1  0  0  0  0
 25 24  2  0  0  0  0
 25 21  1  0  0  0  0
M  END
>  <MODEL>
3

>  <REMARK>
 VINA RESULT:      -6.4      2.544      5.022
  Name = 
  6 active torsions:
  status: ('A' for Active; 'I' for Inactive)
    1  A    between atoms: C_2  and  C_4
    2  A    between atoms: C_2  and  N_9
    3  A    between atoms: C_2  and  C_13
    4  A    between atoms: C_5  and  C_25
    5  A    between atoms: O_18  and  C_19
    6  A    between atoms: O_18  and  C_21
                            x       y       z     vdW  Elec       q    Type
                         _______ _______ _______ _____ _____    ______ ____

>  <TORSDO>
F 6

$$$$
=
 OpenBabel11062420173D

 25 27  0  0  1  0  0  0  0  0999 V2000
  186.9520  177.9980  143.7370 C   0  0  1  0  0  3  0  0  0  0  0  0
  183.3150  178.2580  142.6280 C   0  0  0  0  0  3  0  0  0  0  0  0
  183.4570  178.2230  141.2370 C   0  0  0  0  0  0  0  0  0  0  0  0
  185.8590  178.0280  141.4870 C   0  0  0  0  0  3  0  0  0  0  0  0
  184.7280  178.1020  140.6680 C   0  0  0  0  0  3  0  0  0  0  0  0
  185.7220  178.0660  142.8800 C   0  0  0  0  0  0  0  0  0  0  0  0
  184.4440  178.1840  143.4480 C   0  0  0  0  0  3  0  0  0  0  0  0
  181.1040  178.0930  141.1340 O   0  0  0  0  0  1  0  0  0  0  0  0
  182.2530  178.2780  140.3650 C   0  0  0  0  0  2  0  0  0  0  0  0
  186.6030  177.9770  145.1940 C   0  0  0  0  0  0  0  0  0  0  0  0
  186.1310  179.1110  145.7800 N   0  0  0  0  0  0  0  0  0  0  0  0
  185.7810  179.1450  147.0940 C   0  0  0  0  0  3  0  0  0  0  0  0
  186.7250  176.8040  145.9510 C   0  0  0  0  0  3  0  0  0  0  0  0
  185.8970  177.9980  147.8800 C   0  0  0  0  0  3  0  0  0  0  0  0
  186.3710  176.8200  147.3010 C   0  0  0  0  0  3  0  0  0  0  0  0
  187.7820  176.8500  143.3860 N   0  0  0  0  0  2  0  0  0  0  0  0
  189.0510  176.9740  142.7370 C   0  0  0  0  0  0  0  0  0  0  0  0
  189.5270  178.1170  142.5070 O   0  0  0  0  0  0  0  0  0  0  0  0
  189.8000  175.8460  142.3730 O   0  0  0  0  0  0  0  0  0  0  0  0
  189.5370  172.0120  144.0970 C   0  0  0  0  0  3  0  0  0  0  0  0
  188.9890  172.2300  142.8300 C   0  0  0  0  0  3  0  0  0  0  0  0
  190.2380  174.3280  144.1880 C   0  0  0  0  0  3  0  0  0  0  0  0
  190.1630  173.0610  144.7750 C   0  0  0  0  0  3  0  0  0  0  0  0
  189.6880  174.5590  142.9220 C   0  0  0  0  0  0  0  0  0  0  0  0
  189.0650  173.4970  142.2450 C   0  0  0  0  0  3  0  0  0  0  0  0
  1 16  1  6  0  0  0
  1 10  1  0  0  0  0
  2  7  1  0  0  0  0
  3  2  2  0  0  0  0
  4  6  1  0  0  0  0
  5  3  1  0  0  0  0
  5  4  2  0  0  0  0
  6  7  2  0  0  0  0
  6  1  1  0  0  0  0
  9  8  1  0  0  0  0
  9  3  1  0  0  0  0
 10 11  2  0  0  0  0
 10 13  1  0  0  0  0
 11 12  1  0  0  0  0
 12 14  2  0  0  0  0
 13 15  2  0  0  0  0
 15 14  1  0  0  0  0
 17 16  1  0  0  0  0
 18 17  2  0  0  0  0
 19 17  1  0  0  0  0
 19 24  1  0  0  0  0
 20 23  1  0  0  0  0
 21 20  2  0  0  0  0
 22 23  2  0  0  0  0
 24 22  1  0  0  0  0
 25 21  1  0  0  0  0
 25 24  2  0  0  0  0
M  END
>  <MODEL>
4

>  <REMARK>
 VINA RESULT:      -6.4      3.122      7.100
  Name = 
  6 active torsions:
  status: ('A' for Active; 'I' for Inactive)
    1  A    between atoms: C_2  and  C_4
    2  A    between atoms: C_2  and  N_9
    3  A    between atoms: C_2  and  C_13
    4  A    between atoms: C_5  and  C_25
    5  A    between atoms: O_18  and  C_19
    6  A    between atoms: O_18  and  C_21
                            x       y       z     vdW  Elec       q    Type
                         _______ _______ _______ _____ _____    ______ ____

>  <TORSDO>
F 6

$$$$
=
 OpenBabel11062420173D

 25 27  0  0  1  0  0  0  0  0999 V2000
  190.5810  175.8090  143.1600 C   0  0  1  0  0  3  0  0  0  0  0  0
  194.0390  176.4770  144.6140 C   0  0  0  0  0  3  0  0  0  0  0  0
  194.8560  175.8980  143.6380 C   0  0  0  0  0  0  0  0  0  0  0  0
  192.8920  175.2840  142.3600 C   0  0  0  0  0  3  0  0  0  0  0  0
  194.2820  175.3070  142.5080 C   0  0  0  0  0  3  0  0  0  0  0  0
  192.0700  175.8580  143.3360 C   0  0  0  0  0  0  0  0  0  0  0  0
  192.6490  176.4540  144.4670 C   0  0  0  0  0  3  0  0  0  0  0  0
  196.8120  177.1890  143.3710 O   0  0  0  0  0  1  0  0  0  0  0  0
  196.3360  175.9430  143.7820 C   0  0  0  0  0  2  0  0  0  0  0  0
  190.0670  174.4030  143.2280 C   0  0  0  0  0  0  0  0  0  0  0  0
  189.4680  173.8620  142.1320 N   0  0  0  0  0  0  0  0  0  0  0  0
  189.0000  172.5840  142.1310 C   0  0  0  0  0  3  0  0  0  0  0  0
  190.2230  173.6300  144.3860 C   0  0  0  0  0  3  0  0  0  0  0  0
  189.1310  171.7880  143.2690 C   0  0  0  0  0  3  0  0  0  0  0  0
  189.7490  172.3170  144.4030 C   0  0  0  0  0  3  0  0  0  0  0  0
  189.9010  176.6560  144.1340 N   0  0  0  0  0  2  0  0  0  0  0  0
  188.7020  177.3790  143.8370 C   0  0  0  0  0  0  0  0  0  0  0  0
  188.1510  177.2440  142.7130 O   0  0  0  0  0  0  0  0  0  0  0  0
  188.1020  178.2210  144.7850 O   0  0  0  0  0  0  0  0  0  0  0  0
  184.1690  177.9930  146.2730 C   0  0  0  0  0  3  0  0  0  0  0  0
  185.0820  176.9890  146.6020 C   0  0  0  0  0  3  0  0  0  0  0  0
  185.8760  179.1140  144.9720 C   0  0  0  0  0  3  0  0  0  0  0  0
  184.5660  179.0570  145.4590 C   0  0  0  0  0  3  0  0  0  0  0  0
  186.7980  178.1110  145.2910 C   0  0  0  0  0  0  0  0  0  0  0  0
  186.3910  177.0470  146.1140 C   0  0  0  0  0  3  0  0  0  0  0  0
  1 10  1  0  0  0  0
  1  6  1  0  0  0  0
  1 16  1  1  0  0  0
  3  9  1  0  0  0  0
  3  2  2  0  0  0  0
  4  5  2  0  0  0  0
  4  6  1  0  0  0  0
  5  3  1  0  0  0  0
  6  7  2  0  0  0  0
  7  2  1  0  0  0  0
  8  9  1  0  0  0  0
 10 13  1  0  0  0  0
 11 10  2  0  0  0  0
 12 11  1  0  0  0  0
 12 14  2  0  0  0  0
 13 15  2  0  0  0  0
 14 15  1  0  0  0  0
 17 16  1  0  0  0  0
 17 19  1  0  0  0  0
 18 17  2  0  0  0  0
 19 24  1  0  0  0  0
 20 21  1  0  0  0  0
 22 24  2  0  0  0  0
 22 23  1  0  0  0  0
 23 20  2  0  0  0  0
 24 25  1  0  0  0  0
 25 21  2  0  0  0  0
M  END
>  <MODEL>
5

>  <REMARK>
 VINA RESULT:      -6.3      2.816      4.807
  Name = 
  6 active torsions:
  status: ('A' for Active; 'I' for Inactive)
    1  A    between atoms: C_2  and  C_4
    2  A    between atoms: C_2  and  N_9
    3  A    between atoms: C_2  and  C_13
    4  A    between atoms: C_5  and  C_25
    5  A    between atoms: O_18  and  C_19
    6  A    between atoms: O_18  and  C_21
                            x       y       z     vdW  Elec       q    Type
                         _______ _______ _______ _____ _____    ______ ____

>  <TORSDO>
F 6

$$$$
=
 OpenBabel11062420173D

 25 27  0  0  1  0  0  0  0  0999 V2000
  189.1560  175.6330  142.1530 C   0  0  1  0  0  3  0  0  0  0  0  0
  190.2570  174.6540  145.6670 C   0  0  0  0  0  3  0  0  0  0  0  0
  191.3970  175.4490  145.8210 C   0  0  0  0  0  0  0  0  0  0  0  0
  191.0600  176.3610  143.6030 C   0  0  0  0  0  3  0  0  0  0  0  0
  191.7950  176.3060  144.7910 C   0  0  0  0  0  3  0  0  0  0  0  0
  189.9200  175.5650  143.4430 C   0  0  0  0  0  0  0  0  0  0  0  0
  189.5220  174.7080  144.4800 C   0  0  0  0  0  3  0  0  0  0  0  0
  191.2890  175.2910  148.1720 O   0  0  0  0  0  1  0  0  0  0  0  0
  192.1670  175.4090  147.0940 C   0  0  0  0  0  2  0  0  0  0  0  0
  189.3460  174.3900  141.3370 C   0  0  0  0  0  0  0  0  0  0  0  0
  188.2680  173.8230  140.7300 N   0  0  0  0  0  0  0  0  0  0  0  0
  188.3850  172.7060  139.9630 C   0  0  0  0  0  3  0  0  0  0  0  0
  190.6170  173.8250  141.1650 C   0  0  0  0  0  3  0  0  0  0  0  0
  189.6340  172.1110  139.7760 C   0  0  0  0  0  3  0  0  0  0  0  0
  190.7570  172.6790  140.3810 C   0  0  0  0  0  3  0  0  0  0  0  0
  187.7380  175.8870  142.3880 N   0  0  0  0  0  2  0  0  0  0  0  0
  187.1840  177.2040  142.4610 C   0  0  0  0  0  0  0  0  0  0  0  0
  187.9180  178.2050  142.2520 O   0  0  0  0  0  0  0  0  0  0  0  0
  185.8240  177.4110  142.7350 O   0  0  0  0  0  0  0  0  0  0  0  0
  184.1850  178.2920  146.5130 C   0  0  0  0  0  3  0  0  0  0  0  0
  183.7830  179.0400  145.4040 C   0  0  0  0  0  3  0  0  0  0  0  0
  185.6550  176.9890  145.0980 C   0  0  0  0  0  3  0  0  0  0  0  0
  185.1200  177.2660  146.3600 C   0  0  0  0  0  3  0  0  0  0  0  0
  185.2640  177.7350  143.9800 C   0  0  0  0  0  0  0  0  0  0  0  0
  184.3200  178.7630  144.1430 C   0  0  0  0  0  3  0  0  0  0  0  0
  1 16  1  1  0  0  0
  1  6  1  0  0  0  0
  2  3  1  0  0  0  0
  3  9  1  0  0  0  0
  4  5  1  0  0  0  0
  5  3  2  0  0  0  0
  6  4  2  0  0  0  0
  6  7  1  0  0  0  0
  7  2  2  0  0  0  0
  9  8  1  0  0  0  0
 10  1  1  0  0  0  0
 11 10  2  0  0  0  0
 12 11  1  0  0  0  0
 13 10  1  0  0  0  0
 14 12  2  0  0  0  0
 14 15  1  0  0  0  0
 15 13  2  0  0  0  0
 16 17  1  0  0  0  0
 17 19  1  0  0  0  0
 18 17  2  0  0  0  0
 19 24  1  0  0  0  0
 21 20  2  0  0  0  0
 22 23  2  0  0  0  0
 23 20  1  0  0  0  0
 24 25  2  0  0  0  0
 24 22  1  0  0  0  0
 25 21  1  0  0  0  0
M  END
>  <MODEL>
6

>  <REMARK>
 VINA RESULT:      -6.3      2.642      5.135
  Name = 
  6 active torsions:
  status: ('A' for Active; 'I' for Inactive)
    1  A    between atoms: C_2  and  C_4
    2  A    between atoms: C_2  and  N_9
    3  A    between atoms: C_2  and  C_13
    4  A    between atoms: C_5  and  C_25
    5  A    between atoms: O_18  and  C_19
    6  A    between atoms: O_18  and  C_21
                            x       y       z     vdW  Elec       q    Type
                         _______ _______ _______ _____ _____    ______ ____

>  <TORSDO>
F 6

$$$$
=
 OpenBabel11062420173D

 25 27  0  0  1  0  0  0  0  0999 V2000
  188.0450  177.6050  144.5940 C   0  0  1  0  0  3  0  0  0  0  0  0
  187.7990  176.1820  141.0680 C   0  0  0  0  0  3  0  0  0  0  0  0
  186.9530  177.1160  140.4610 C   0  0  0  0  0  0  0  0  0  0  0  0
  186.8380  178.3600  142.5370 C   0  0  0  0  0  3  0  0  0  0  0  0
  186.4780  178.2070  141.1950 C   0  0  0  0  0  3  0  0  0  0  0  0
  187.6820  177.4260  143.1500 C   0  0  0  0  0  0  0  0  0  0  0  0
  188.1610  176.3340  142.4090 C   0  0  0  0  0  3  0  0  0  0  0  0
  187.1660  175.8090  138.5100 O   0  0  0  0  0  1  0  0  0  0  0  0
  186.5870  176.9690  139.0270 C   0  0  0  0  0  2  0  0  0  0  0  0
  186.8240  177.7470  145.4520 C   0  0  0  0  0  0  0  0  0  0  0  0
  186.0560  176.6510  145.7010 N   0  0  0  0  0  0  0  0  0  0  0  0
  184.9480  176.7170  146.4860 C   0  0  0  0  0  3  0  0  0  0  0  0
  186.4810  178.9790  146.0250 C   0  0  0  0  0  3  0  0  0  0  0  0
  184.5720  177.9300  147.0670 C   0  0  0  0  0  3  0  0  0  0  0  0
  185.3470  179.0670  146.8340 C   0  0  0  0  0  3  0  0  0  0  0  0
  188.8880  176.5140  145.0710 N   0  0  0  0  0  2  0  0  0  0  0  0
  189.7420  176.6300  146.2130 C   0  0  0  0  0  0  0  0  0  0  0  0
  189.7350  177.6880  146.8950 O   0  0  0  0  0  0  0  0  0  0  0  0
  190.5750  175.5750  146.6140 O   0  0  0  0  0  0  0  0  0  0  0  0
  194.7050  175.1550  145.9070 C   0  0  0  0  0  3  0  0  0  0  0  0
  194.2350  176.3100  146.5350 C   0  0  0  0  0  3  0  0  0  0  0  0
  192.4400  174.3140  145.7620 C   0  0  0  0  0  3  0  0  0  0  0  0
  193.8080  174.1560  145.5210 C   0  0  0  0  0  3  0  0  0  0  0  0
  191.9560  175.4700  146.3860 C   0  0  0  0  0  0  0  0  0  0  0  0
  192.8660  176.4670  146.7750 C   0  0  0  0  0  3  0  0  0  0  0  0
  1 16  1  1  0  0  0
  1 10  1  0  0  0  0
  2  7  1  0  0  0  0
  3  2  2  0  0  0  0
  3  5  1  0  0  0  0
  4  6  1  0  0  0  0
  5  4  2  0  0  0  0
  6  1  1  0  0  0  0
  7  6  2  0  0  0  0
  8  9  1  0  0  0  0
  9  3  1  0  0  0  0
 10 11  2  0  0  0  0
 10 13  1  0  0  0  0
 11 12  1  0  0  0  0
 12 14  2  0  0  0  0
 13 15  2  0  0  0  0
 15 14  1  0  0  0  0
 16 17  1  0  0  0  0
 17 19  1  0  0  0  0
 17 18  2  0  0  0  0
 20 21  1  0  0  0  0
 21 25  2  0  0  0  0
 22 24  2  0  0  0  0
 23 22  1  0  0  0  0
 23 20  2  0  0  0  0
 24 19  1  0  0  0  0
 24 25  1  0  0  0  0
M  END
>  <MODEL>
7

>  <REMARK>
 VINA RESULT:      -6.3      2.346      6.684
  Name = 
  6 active torsions:
  status: ('A' for Active; 'I' for Inactive)
    1  A    between atoms: C_2  and  C_4
    2  A    between atoms: C_2  and  N_9
    3  A    between atoms: C_2  and  C_13
    4  A    between atoms: C_5  and  C_25
    5  A    between atoms: O_18  and  C_19
    6  A    between atoms: O_18  and  C_21
                            x       y       z     vdW  Elec       q    Type
                         _______ _______ _______ _____ _____    ______ ____

>  <TORSDO>
F 6

$$$$
=
 OpenBabel11062420173D

 25 27  0  0  1  0  0  0  0  0999 V2000
  187.3040  178.1400  144.1310 C   0  0  1  0  0  3  0  0  0  0  0  0
  183.8220  178.1710  142.5840 C   0  0  0  0  0  3  0  0  0  0  0  0
  184.1350  178.1670  141.2210 C   0  0  0  0  0  0  0  0  0  0  0  0
  186.4960  178.1310  141.7640 C   0  0  0  0  0  3  0  0  0  0  0  0
  185.4720  178.1410  140.8120 C   0  0  0  0  0  3  0  0  0  0  0  0
  186.1870  178.1380  143.1290 C   0  0  0  0  0  0  0  0  0  0  0  0
  184.8440  178.1610  143.5360 C   0  0  0  0  0  3  0  0  0  0  0  0
  181.8170  177.9610  140.8360 O   0  0  0  0  0  1  0  0  0  0  0  0
  183.0470  178.1540  140.2060 C   0  0  0  0  0  2  0  0  0  0  0  0
  186.7840  178.0210  145.5310 C   0  0  0  0  0  0  0  0  0  0  0  0
  186.2680  179.1220  146.1430 N   0  0  0  0  0  0  0  0  0  0  0  0
  185.7650  179.0690  147.4060 C   0  0  0  0  0  3  0  0  0  0  0  0
  186.7920  176.7920  146.2050 C   0  0  0  0  0  3  0  0  0  0  0  0
  185.7630  177.8630  148.1100 C   0  0  0  0  0  3  0  0  0  0  0  0
  186.2800  176.7180  147.5010 C   0  0  0  0  0  3  0  0  0  0  0  0
  188.2740  177.0870  143.8480 N   0  0  0  0  0  2  0  0  0  0  0  0
  189.6780  177.2370  144.0820 C   0  0  0  0  0  0  0  0  0  0  0  0
  190.1150  178.2890  144.6190 O   0  0  0  0  0  0  0  0  0  0  0  0
  190.5870  176.2200  143.7540 O   0  0  0  0  0  0  0  0  0  0  0  0
  194.0950  175.1870  145.8430 C   0  0  0  0  0  3  0  0  0  0  0  0
  192.8650  174.7040  146.2950 C   0  0  0  0  0  3  0  0  0  0  0  0
  192.9740  176.3380  144.0310 C   0  0  0  0  0  3  0  0  0  0  0  0
  194.1500  176.0040  144.7110 C   0  0  0  0  0  3  0  0  0  0  0  0
  191.7350  175.8640  144.4780 C   0  0  0  0  0  0  0  0  0  0  0  0
  191.6900  175.0400  145.6140 C   0  0  0  0  0  3  0  0  0  0  0  0
  1 16  1  6  0  0  0
  1 10  1  0  0  0  0
  2  7  1  0  0  0  0
  3  2  2  0  0  0  0
  4  6  1  0  0  0  0
  5  3  1  0  0  0  0
  5  4  2  0  0  0  0
  6  7  2  0  0  0  0
  6  1  1  0  0  0  0
  9  8  1  0  0  0  0
  9  3  1  0  0  0  0
 10 11  2  0  0  0  0
 10 13  1  0  0  0  0
 11 12  1  0  0  0  0
 12 14  2  0  0  0  0
 13 15  2  0  0  0  0
 15 14  1  0  0  0  0
 16 17  1  0  0  0  0
 17 18  2  0  0  0  0
 19 17  1  0  0  0  0
 19 24  1  0  0  0  0
 20 21  1  0  0  0  0
 22 24  2  0  0  0  0
 22 23  1  0  0  0  0
 23 20  2  0  0  0  0
 24 25  1  0  0  0  0
 25 21  2  0  0  0  0
M  END
>  <MODEL>
8

>  <REMARK>
 VINA RESULT:      -6.3      2.979      7.151
  Name = 
  6 active torsions:
  status: ('A' for Active; 'I' for Inactive)
    1  A    between atoms: C_2  and  C_4
    2  A    between atoms: C_2  and  N_9
    3  A    between atoms: C_2  and  C_13
    4  A    between atoms: C_5  and  C_25
    5  A    between atoms: O_18  and  C_19
    6  A    between atoms: O_18  and  C_21
                            x       y       z     vdW  Elec       q    Type
                         _______ _______ _______ _____ _____    ______ ____

>  <TORSDO>
F 6

$$$$
=
 OpenBabel11062420173D

 25 27  0  0  1  0  0  0  0  0999 V2000
  190.0190  176.0060  143.7630 C   0  0  1  0  0  3  0  0  0  0  0  0
  192.0700  176.3900  146.9510 C   0  0  0  0  0  3  0  0  0  0  0  0
  191.1860  177.1220  147.7510 C   0  0  0  0  0  0  0  0  0  0  0  0
  189.5550  177.1070  145.9600 C   0  0  0  0  0  3  0  0  0  0  0  0
  189.9270  177.4750  147.2570 C   0  0  0  0  0  3  0  0  0  0  0  0
  190.4370  176.3780  145.1550 C   0  0  0  0  0  0  0  0  0  0  0  0
  191.6990  176.0220  145.6550 C   0  0  0  0  0  3  0  0  0  0  0  0
  190.9090  178.6630  149.5150 O   0  0  0  0  0  1  0  0  0  0  0  0
  191.5710  177.4940  149.1390 C   0  0  0  0  0  2  0  0  0  0  0  0
  190.1500  174.5320  143.5270 C   0  0  0  0  0  0  0  0  0  0  0  0
  190.7510  174.0930  142.3860 N   0  0  0  0  0  0  0  0  0  0  0  0
  190.9130  172.7680  142.1290 C   0  0  0  0  0  3  0  0  0  0  0  0
  189.6950  173.6040  144.4730 C   0  0  0  0  0  3  0  0  0  0  0  0
  190.4650  171.8150  143.0450 C   0  0  0  0  0  3  0  0  0  0  0  0
  189.8540  172.2400  144.2260 C   0  0  0  0  0  3  0  0  0  0  0  0
  188.6620  176.4580  143.4760 N   0  0  0  0  0  2  0  0  0  0  0  0
  188.3760  177.6020  142.6640 C   0  0  0  0  0  0  0  0  0  0  0  0
  189.3170  178.2250  142.1060 O   0  0  0  0  0  0  0  0  0  0  0  0
  187.0600  178.0350  142.4490 O   0  0  0  0  0  0  0  0  0  0  0  0
  184.1610  179.0410  145.3330 C   0  0  0  0  0  3  0  0  0  0  0  0
  185.4970  178.9250  145.7210 C   0  0  0  0  0  3  0  0  0  0  0  0
  184.7760  178.4880  143.0580 C   0  0  0  0  0  3  0  0  0  0  0  0
  183.8000  178.8240  144.0010 C   0  0  0  0  0  3  0  0  0  0  0  0
  186.1180  178.3640  143.4360 C   0  0  0  0  0  0  0  0  0  0  0  0
  186.4720  178.5880  144.7770 C   0  0  0  0  0  3  0  0  0  0  0  0
  1 16  1  1  0  0  0
  1  6  1  0  0  0  0
  2  3  1  0  0  0  0
  3  9  1  0  0  0  0
  4  5  1  0  0  0  0
  5  3  2  0  0  0  0
  6  7  1  0  0  0  0
  6  4  2  0  0  0  0
  7  2  2  0  0  0  0
  9  8  1  0  0  0  0
 10  1  1  0  0  0  0
 10 13  1  0  0  0  0
 11 10  2  0  0  0  0
 12 11  1  0  0  0  0
 12 14  2  0  0  0  0
 14 15  1  0  0  0  0
 15 13  2  0  0  0  0
 17 16  1  0  0  0  0
 18 17  2  0  0  0  0
 19 17  1  0  0  0  0
 19 24  1  0  0  0  0
 20 21  1  0  0  0  0
 22 24  2  0  0  0  0
 22 23  1  0  0  0  0
 23 20  2  0  0  0  0
 24 25  1  0  0  0  0
 25 21  2  0  0  0  0
M  END
>  <MODEL>
9

>  <REMARK>
 VINA RESULT:      -6.3      2.521      5.141
  Name = 
  6 active torsions:
  status: ('A' for Active; 'I' for Inactive)
    1  A    between atoms: C_2  and  C_4
    2  A    between atoms: C_2  and  N_9
    3  A    between atoms: C_2  and  C_13
    4  A    between atoms: C_5  and  C_25
    5  A    between atoms: O_18  and  C_19
    6  A    between atoms: O_18  and  C_21
                            x       y       z     vdW  Elec       q    Type
                         _______ _______ _______ _____ _____    ______ ____

>  <TORSDO>
F 6

$$$$
