=
 OpenBabel11062420183D

 61 66  0  0  1  0  0  0  0  0999 V2000
  190.9620  174.6950  145.5260 C   0  0  1  0  0  3  0  0  0  0  0  0
  194.1270  175.1220  143.4250 C   0  0  2  0  0  3  0  0  0  0  0  0
  193.3840  175.3820  144.7550 C   0  0  1  0  0  3  0  0  0  0  0  0
  193.1670  174.2380  142.7010 C   0  0  0  0  0  0  0  0  0  0  0  0
  193.4020  173.6680  141.6000 O   0  0  0  0  0  0  0  0  0  0  0  0
  191.8990  175.1310  144.3840 C   0  0  1  0  0  3  0  0  0  0  0  0
  191.9240  174.2180  143.2970 O   0  0  0  0  0  0  0  0  0  0  0  0
  196.5140  175.6030  144.0970 C   0  0  0  0  0  2  0  0  0  0  0  0
  196.0910  174.2310  142.1410 C   0  0  0  0  0  2  0  0  0  0  0  0
  197.7510  177.2970  142.9530 F   0  0  0  0  0  0  0  0  0  0  0  0
  196.8880  175.4430  141.7140 C   0  0  2  0  0  0  0  0  0  0  0  0
  197.5180  175.9330  143.0010 C   0  0  2  0  0  3  0  0  0  0  0  0
  196.0270  176.4040  141.2020 F   0  0  0  0  0  0  0  0  0  0  0  0
  195.5570  174.5540  143.5280 C   0  0  2  0  0  3  0  0  0  0  0  0
  197.9310  175.0770  140.6710 C   0  0  0  0  0  2  0  0  0  0  0  0
  195.5000  175.2140  138.1440 O   0  0  0  0  0  0  0  0  0  0  0  0
  196.5410  174.6890  138.6190 C   0  0  0  0  0  0  0  0  0  0  0  0
  197.4620  175.4870  139.3540 N   0  0  0  0  0  2  0  0  0  0  0  0
  196.8450  173.2570  138.3050 C   0  0  0  0  0  2  0  0  0  0  0  0
  195.7950  172.3480  138.9320 C   0  0  0  0  0  2  0  0  0  0  0  0
  196.1550  170.3810  137.8420 O   0  0  0  0  0  1  0  0  0  0  0  0
  195.2770  171.4110  137.9440 N   0  0  0  0  0  0  0  0  0  0  0  0
  195.1830  172.0830  136.6440 C   0  0  0  0  0  2  0  0  0  0  0  0
  192.8710  171.9780  137.2290 O   0  0  0  0  0  1  0  0  0  0  0  0
  193.7550  172.4760  136.2730 C   0  0  0  0  0  2  0  0  0  0  0  0
  194.7110  175.1690  146.7200 F   0  0  0  0  0  0  0  0  0  0  0  0
  193.8670  174.4580  145.8810 C   0  0  0  0  0  2  0  0  0  0  0  0
  190.5010  175.6480  147.7960 O   0  0  0  0  0  0  0  0  0  0  0  0
  190.5620  175.8710  146.4350 C   0  0  0  0  0  0  0  0  0  0  0  0
  191.5820  176.2660  147.2810 O   0  0  0  0  0  0  0  0  0  0  0  0
  189.6990  177.0200  145.9220 C   0  0  0  0  0  3  0  0  0  0  0  0
  188.3960  176.5870  145.7540 F   0  0  0  0  0  0  0  0  0  0  0  0
  190.1740  177.4950  144.7090 F   0  0  0  0  0  0  0  0  0  0  0  0
  189.6920  174.0230  145.0040 C   0  0  0  0  0  2  0  0  0  0  0  0
  189.1680  172.4380  141.5430 C   0  0  0  0  0  2  0  0  0  0  0  0
  188.6320  174.9180  141.4170 C   0  0  1  0  0  3  0  0  0  0  0  0
  188.7670  175.0010  142.9400 C   0  0  0  0  0  2  0  0  0  0  0  0
  189.1750  172.5420  143.0620 C   0  0  0  0  0  2  0  0  0  0  0  0
  189.6830  173.9170  143.4870 C   0  0  2  0  0  3  0  0  0  0  0  0
  188.2440  173.5030  140.9470 C   0  0  1  0  0  3  0  0  0  0  0  0
  189.4540  173.3780  138.6880 C   0  0  0  0  0  0  0  0  0  0  0  0
  190.5860  173.3610  139.2520 O   0  0  0  0  0  0  0  0  0  0  0  0
  188.2610  173.4210  139.4860 N   0  0  0  0  0  2  0  0  0  0  0  0
  189.3550  173.3660  137.2110 C   0  0  0  0  0  0  0  0  0  0  0  0
  189.3660  172.2020  136.5760 C   0  0  0  0  0  2  0  0  0  0  0  0
  189.1040  174.6050  136.4410 C   0  0  0  0  0  0  0  0  0  0  0  0
  190.1140  175.1800  135.6800 O   0  0  0  0  0  0  0  0  0  0  0  0
  187.9740  175.1650  136.4830 O   0  0  0  0  0  1  0  0  0  0  0  0
  187.6590  175.9840  140.8920 C   0  0  0  0  0  2  0  0  0  0  0  0
  187.0480  176.8620  141.9880 C   0  0  0  0  0  2  0  0  0  0  0  0
  186.3680  178.0860  141.3850 C   0  0  1  0  0  3  0  0  0  0  0  0
  185.1870  177.7330  140.4680 C   0  0  0  0  0  2  0  0  0  0  0  0
  184.4030  178.8680  140.2530 O   0  0  0  0  0  1  0  0  0  0  0  0
  186.1400  179.1090  142.3360 O   0  0  0  0  0  0  0  0  0  0  0  0
  184.6010  177.4580  147.2040 C   0  0  0  0  0  1  0  0  0  0  0  0
  186.1930  178.7010  145.9040 O   0  0  0  0  0  0  0  0  0  0  0  0
  185.7330  178.5550  143.5630 C   0  0  2  0  0  3  0  0  0  0  0  0
  184.8900  178.7290  146.4270 C   0  0  1  0  0  3  0  0  0  0  0  0
  184.7350  179.5140  144.1980 C   0  0  1  0  0  3  0  0  0  0  0  0
  183.9280  178.8410  145.2710 C   0  0  0  0  0  2  0  0  0  0  0  0
  186.1600  179.4560  144.7130 C   0  0  1  0  0  3  0  0  0  0  0  0
  1 34  1  6  0  0  0
  1 29  1  0  0  0  0
  2  4  1  6  0  0  0
  2 14  1  0  0  0  0
  2  3  1  0  0  0  0
  3 27  1  1  0  0  0
  4  7  1  0  0  0  0
  5  4  2  0  0  0  0
  6  3  1  0  0  0  0
  6  1  1  1  0  0  0
  7  6  1  0  0  0  0
 11 13  1  6  0  0  0
 11  9  1  0  0  0  0
 11 12  1  0  0  0  0
 12 10  1  6  0  0  0
 12  8  1  0  0  0  0
 14  9  1  6  0  0  0
 14  8  1  0  0  0  0
 15 11  1  0  0  0  0
 16 17  2  0  0  0  0
 17 18  1  0  0  0  0
 18 15  1  0  0  0  0
 19 17  1  0  0  0  0
 19 20  1  0  0  0  0
 21 22  1  0  0  0  0
 22 20  1  0  0  0  0
 23 22  1  0  0  0  0
 25 23  1  0  0  0  0
 25 24  1  0  0  0  0
 27 26  1  0  0  0  0
 29 30  1  0  0  0  0
 29 28  1  0  0  0  0
 30 28  1  0  0  0  0
 31 29  1  0  0  0  0
 32 31  1  0  0  0  0
 33 31  1  0  0  0  0
 35 38  1  0  0  0  0
 36 49  1  1  0  0  0
 36 37  1  0  0  0  0
 37 39  1  0  0  0  0
 38 39  1  0  0  0  0
 39 34  1  1  0  0  0
 40 43  1  6  0  0  0
 40 36  1  0  0  0  0
 40 35  1  0  0  0  0
 41 42  2  0  0  0  0
 41 43  1  0  0  0  0
 44 41  1  0  0  0  0
 45 44  2  0  0  0  0
 46 48  1  0  0  0  0
 46 44  1  0  0  0  0
 47 46  2  0  0  0  0
 49 50  1  0  0  0  0
 51 52  1  1  0  0  0
 51 50  1  0  0  0  0
 51 54  1  0  0  0  0
 53 52  1  0  0  0  0
 56 58  1  0  0  0  0
 57 54  1  6  0  0  0
 57 59  1  0  0  0  0
 57 61  1  0  0  0  0
 58 55  1  6  0  0  0
 59 61  1  0  0  0  0
 59 60  1  1  0  0  0
 60 58  1  0  0  0  0
 61 56  1  1  0  0  0
M  END
>  <MODEL>
1

>  <REMARK>
 VINA RESULT:      -6.5      0.000      0.000
  Name = 
  23 active torsions:
  status: ('A' for Active; 'I' for Inactive)
    1  A    between atoms: C_1  and  C_16
    2  A    between atoms: C_1  and  C_33
    3  A    between atoms: C_2  and  C_54
    4  A    between atoms: C_3  and  C_6
    5  A    between atoms: C_3  and  C_40
    6  A    between atoms: C_3  and  C_47
    7  A    between atoms: C_5  and  C_10
    8  A    between atoms: C_5  and  O_19
    9  A    between atoms: C_5  and  C_31
   10  A    between atoms: C_6  and  C_50
   11  A    between atoms: C_7  and  C_42
   12  A    between atoms: C_7  and  N_56
   13  A    between atoms: C_9  and  C_12
   14  A    between atoms: C_10  and  C_21
   15  A    between atoms: C_12  and  C_14
   16  A    between atoms: C_13  and  C_37
   17  A    between atoms: C_17  and  N_27
   18  A    between atoms: C_17  and  C_61
   19  A    between atoms: O_19  and  C_39
   20  A    between atoms: C_21  and  C_22
   21  A    between atoms: C_24  and  C_40
   22  A    between atoms: N_27  and  C_33
   23  A    between atoms: N_51  and  C_55
                            x       y       z     vdW  Elec       q    Type
                         _______ _______ _______ _____ _____    ______ ____

>  <TORSDO>
F 23

$$$$
=
 OpenBabel11062420183D

 61 66  0  0  1  0  0  0  0  0999 V2000
  190.9910  176.6760  145.6930 C   0  0  1  0  0  3  0  0  0  0  0  0
  188.0470  177.6160  143.4420 C   0  0  2  0  0  3  0  0  0  0  0  0
  188.5460  177.0960  144.8090 C   0  0  1  0  0  3  0  0  0  0  0  0
  189.3260  177.9690  142.7580 C   0  0  0  0  0  0  0  0  0  0  0  0
  189.4090  178.5510  141.6430 O   0  0  0  0  0  0  0  0  0  0  0  0
  190.0050  176.6610  144.5100 C   0  0  1  0  0  3  0  0  0  0  0  0
  190.4270  177.4600  143.4150 O   0  0  0  0  0  0  0  0  0  0  0  0
  186.1880  178.7060  144.7610 C   0  0  0  0  0  2  0  0  0  0  0  0
  186.0010  178.5710  142.3450 C   0  0  0  0  0  2  0  0  0  0  0  0
  184.1930  177.4810  145.2360 F   0  0  0  0  0  0  0  0  0  0  0  0
  184.8270  177.8430  142.9580 C   0  0  2  0  0  0  0  0  0  0  0  0
  184.7500  178.4010  144.3650 C   0  0  2  0  0  3  0  0  0  0  0  0
  185.0960  176.4820  142.9950 F   0  0  0  0  0  0  0  0  0  0  0  0
  187.0090  178.7550  143.4700 C   0  0  2  0  0  3  0  0  0  0  0  0
  183.5500  178.0960  142.1740 C   0  0  0  0  0  2  0  0  0  0  0  0
  180.6650  179.2900  143.7770 O   0  0  0  0  0  0  0  0  0  0  0  0
  181.3610  179.1870  142.7330 C   0  0  0  0  0  0  0  0  0  0  0  0
  182.7800  179.1440  142.8310 N   0  0  0  0  0  2  0  0  0  0  0  0
  180.6840  179.2260  141.3970 C   0  0  0  0  0  2  0  0  0  0  0  0
  179.4950  178.2750  141.3850 C   0  0  0  0  0  2  0  0  0  0  0  0
  178.7380  178.5950  139.2610 O   0  0  0  0  0  1  0  0  0  0  0  0
  178.4200  178.8130  140.5610 N   0  0  0  0  0  0  0  0  0  0  0  0
  178.3180  180.2580  140.7870 C   0  0  0  0  0  2  0  0  0  0  0  0
  179.3530  181.7750  139.2620 O   0  0  0  0  0  1  0  0  0  0  0  0
  178.1800  181.0600  139.4950 C   0  0  0  0  0  2  0  0  0  0  0  0
  188.0790  177.5810  147.0930 F   0  0  0  0  0  0  0  0  0  0  0  0
  188.4730  178.1720  145.9020 C   0  0  0  0  0  2  0  0  0  0  0  0
  191.7010  175.1740  147.5670 O   0  0  0  0  0  0  0  0  0  0  0  0
  190.6850  175.5750  146.7240 C   0  0  0  0  0  0  0  0  0  0  0  0
  190.7660  176.0270  148.0290 O   0  0  0  0  0  0  0  0  0  0  0  0
  189.5840  174.5440  146.4890 C   0  0  0  0  0  3  0  0  0  0  0  0
  188.9930  174.2100  147.6940 F   0  0  0  0  0  0  0  0  0  0  0  0
  190.0960  173.3960  145.9050 F   0  0  0  0  0  0  0  0  0  0  0  0
  192.4420  176.5300  145.2340 C   0  0  0  0  0  2  0  0  0  0  0  0
  193.6510  175.3140  141.7960 C   0  0  0  0  0  2  0  0  0  0  0  0
  193.3490  173.3130  143.3320 C   0  0  1  0  0  3  0  0  0  0  0  0
  193.1090  174.2740  144.4990 C   0  0  0  0  0  2  0  0  0  0  0  0
  193.5250  176.2300  143.0050 C   0  0  0  0  0  2  0  0  0  0  0  0
  192.5700  175.6160  144.0250 C   0  0  2  0  0  3  0  0  0  0  0  0
  194.2070  173.9530  142.2220 C   0  0  1  0  0  3  0  0  0  0  0  0
  193.3010  172.9570  140.0380 C   0  0  0  0  0  0  0  0  0  0  0  0
  192.2790  173.7020  140.0780 O   0  0  0  0  0  0  0  0  0  0  0  0
  194.3000  173.0630  141.0640 N   0  0  0  0  0  2  0  0  0  0  0  0
  193.4660  171.9730  138.9450 C   0  0  0  0  0  0  0  0  0  0  0  0
  194.6790  171.5090  138.6760 C   0  0  0  0  0  2  0  0  0  0  0  0
  192.2990  171.3920  138.2430 C   0  0  0  0  0  0  0  0  0  0  0  0
  192.1160  171.6030  136.8830 O   0  0  0  0  0  0  0  0  0  0  0  0
  191.4450  170.7140  138.8780 O   0  0  0  0  0  1  0  0  0  0  0  0
  193.9460  171.9860  143.8250 C   0  0  0  0  0  2  0  0  0  0  0  0
  192.8980  170.9170  144.1500 C   0  0  0  0  0  2  0  0  0  0  0  0
  191.8870  170.7880  143.0170 C   0  0  1  0  0  3  0  0  0  0  0  0
  191.8770  169.3940  142.3690 C   0  0  0  0  0  2  0  0  0  0  0  0
  190.6530  169.1810  141.7320 O   0  0  0  0  0  1  0  0  0  0  0  0
  190.6240  171.3370  143.3460 O   0  0  0  0  0  0  0  0  0  0  0  0
  188.3750  174.4110  139.5660 C   0  0  0  0  0  1  0  0  0  0  0  0
  188.0580  172.7350  141.2580 O   0  0  0  0  0  0  0  0  0  0  0  0
  190.1260  172.0970  142.2720 C   0  0  2  0  0  3  0  0  0  0  0  0
  188.2790  174.1070  141.0500 C   0  0  1  0  0  3  0  0  0  0  0  0
  189.7120  173.4570  142.8200 C   0  0  1  0  0  3  0  0  0  0  0  0
  189.5760  174.4750  141.7240 C   0  0  0  0  0  2  0  0  0  0  0  0
  188.6560  172.4190  142.4960 C   0  0  1  0  0  3  0  0  0  0  0  0
  1 34  1  6  0  0  0
  1 29  1  0  0  0  0
  2  4  1  6  0  0  0
  2 14  1  0  0  0  0
  2  3  1  0  0  0  0
  3 27  1  1  0  0  0
  4  7  1  0  0  0  0
  5  4  2  0  0  0  0
  6  3  1  0  0  0  0
  6  1  1  1  0  0  0
  7  6  1  0  0  0  0
  9 11  1  0  0  0  0
 11 13  1  1  0  0  0
 11 12  1  0  0  0  0
 12  8  1  0  0  0  0
 12 10  1  1  0  0  0
 14  9  1  6  0  0  0
 14  8  1  0  0  0  0
 15 18  1  0  0  0  0
 15 11  1  0  0  0  0
 17 18  1  0  0  0  0
 17 16  2  0  0  0  0
 19 17  1  0  0  0  0
 20 19  1  0  0  0  0
 21 22  1  0  0  0  0
 22 23  1  0  0  0  0
 22 20  1  0  0  0  0
 24 25  1  0  0  0  0
 25 23  1  0  0  0  0
 27 26  1  0  0  0  0
 28 30  1  0  0  0  0
 29 28  1  0  0  0  0
 29 30  1  0  0  0  0
 31 29  1  0  0  0  0
 31 32  1  0  0  0  0
 33 31  1  0  0  0  0
 35 40  1  0  0  0  0
 35 38  1  0  0  0  0
 36 49  1  1  0  0  0
 36 37  1  0  0  0  0
 38 39  1  0  0  0  0
 39 37  1  0  0  0  0
 39 34  1  1  0  0  0
 40 43  1  6  0  0  0
 40 36  1  0  0  0  0
 41 42  2  0  0  0  0
 41 43  1  0  0  0  0
 44 41  1  0  0  0  0
 45 44  2  0  0  0  0
 46 48  1  0  0  0  0
 46 44  1  0  0  0  0
 47 46  2  0  0  0  0
 49 50  1  0  0  0  0
 51 52  1  1  0  0  0
 51 54  1  0  0  0  0
 51 50  1  0  0  0  0
 53 52  1  0  0  0  0
 57 61  1  0  0  0  0
 57 59  1  0  0  0  0
 57 54  1  1  0  0  0
 58 55  1  6  0  0  0
 58 56  1  0  0  0  0
 58 60  1  0  0  0  0
 59 60  1  6  0  0  0
 61 56  1  6  0  0  0
 61 59  1  0  0  0  0
M  END
>  <MODEL>
2

>  <REMARK>
 VINA RESULT:      -6.3      3.532      9.869
  Name = 
  23 active torsions:
  status: ('A' for Active; 'I' for Inactive)
    1  A    between atoms: C_1  and  C_16
    2  A    between atoms: C_1  and  C_33
    3  A    between atoms: C_2  and  C_54
    4  A    between atoms: C_3  and  C_6
    5  A    between atoms: C_3  and  C_40
    6  A    between atoms: C_3  and  C_47
    7  A    between atoms: C_5  and  C_10
    8  A    between atoms: C_5  and  O_19
    9  A    between atoms: C_5  and  C_31
   10  A    between atoms: C_6  and  C_50
   11  A    between atoms: C_7  and  C_42
   12  A    between atoms: C_7  and  N_56
   13  A    between atoms: C_9  and  C_12
   14  A    between atoms: C_10  and  C_21
   15  A    between atoms: C_12  and  C_14
   16  A    between atoms: C_13  and  C_37
   17  A    between atoms: C_17  and  N_27
   18  A    between atoms: C_17  and  C_61
   19  A    between atoms: O_19  and  C_39
   20  A    between atoms: C_21  and  C_22
   21  A    between atoms: C_24  and  C_40
   22  A    between atoms: N_27  and  C_33
   23  A    between atoms: N_51  and  C_55
                            x       y       z     vdW  Elec       q    Type
                         _______ _______ _______ _____ _____    ______ ____

>  <TORSDO>
F 23

$$$$
=
 OpenBabel11062420183D

 61 66  0  0  1  0  0  0  0  0999 V2000
  190.9900  175.0760  144.5750 C   0  0  1  0  0  3  0  0  0  0  0  0
  187.5600  176.3900  143.5140 C   0  0  2  0  0  3  0  0  0  0  0  0
  188.8720  176.6160  144.2990 C   0  0  1  0  0  3  0  0  0  0  0  0
  187.8390  175.1050  142.8070 C   0  0  0  0  0  0  0  0  0  0  0  0
  187.0850  174.5790  141.9440 O   0  0  0  0  0  0  0  0  0  0  0  0
  189.4620  175.1870  144.4190 C   0  0  1  0  0  3  0  0  0  0  0  0
  188.9560  174.4670  143.3050 O   0  0  0  0  0  0  0  0  0  0  0  0
  187.2960  178.8900  143.2680 C   0  0  0  0  0  2  0  0  0  0  0  0
  185.6040  177.4260  142.3310 C   0  0  0  0  0  2  0  0  0  0  0  0
  185.8220  180.0770  144.7260 F   0  0  0  0  0  0  0  0  0  0  0  0
  184.9440  178.3350  143.3430 C   0  0  2  0  0  0  0  0  0  0  0  0
  185.9130  179.4920  143.4750 C   0  0  2  0  0  3  0  0  0  0  0  0
  184.8250  177.6660  144.5540 F   0  0  0  0  0  0  0  0  0  0  0  0
  187.0990  177.5340  142.5890 C   0  0  2  0  0  3  0  0  0  0  0  0
  183.5750  178.7890  142.8670 C   0  0  0  0  0  2  0  0  0  0  0  0
  182.6310  177.5340  139.7280 O   0  0  0  0  0  0  0  0  0  0  0  0
  182.3180  178.1050  140.8060 C   0  0  0  0  0  0  0  0  0  0  0  0
  182.9970  177.7630  142.0090 N   0  0  0  0  0  2  0  0  0  0  0  0
  181.1580  179.0520  140.8210 C   0  0  0  0  0  2  0  0  0  0  0  0
  180.0500  178.5100  141.7150 C   0  0  0  0  0  2  0  0  0  0  0  0
  178.6880  177.0860  140.5740 O   0  0  0  0  0  1  0  0  0  0  0  0
  178.8080  178.3800  140.9640 N   0  0  0  0  0  0  0  0  0  0  0  0
  178.8740  179.2300  139.7720 C   0  0  0  0  0  2  0  0  0  0  0  0
  177.7130  181.0910  140.7140 O   0  0  0  0  0  1  0  0  0  0  0  0
  177.6920  180.1890  139.6520 C   0  0  0  0  0  2  0  0  0  0  0  0
  190.3900  178.4380  144.5050 F   0  0  0  0  0  0  0  0  0  0  0  0
  189.8230  177.5790  143.5760 C   0  0  0  0  0  2  0  0  0  0  0  0
  190.5410  176.0820  146.8240 O   0  0  0  0  0  0  0  0  0  0  0  0
  191.4850  175.6460  145.9160 C   0  0  0  0  0  0  0  0  0  0  0  0
  191.1080  174.8730  146.9990 O   0  0  0  0  0  0  0  0  0  0  0  0
  192.8670  176.2790  146.0530 C   0  0  0  0  0  3  0  0  0  0  0  0
  192.9760  176.8970  147.2860 F   0  0  0  0  0  0  0  0  0  0  0  0
  193.0840  177.2200  145.0580 F   0  0  0  0  0  0  0  0  0  0  0  0
  191.4790  173.6340  144.4430 C   0  0  0  0  0  2  0  0  0  0  0  0
  192.7660  172.7550  140.9310 C   0  0  0  0  0  2  0  0  0  0  0  0
  194.0300  174.7790  141.8030 C   0  0  1  0  0  3  0  0  0  0  0  0
  193.0730  174.8330  142.9960 C   0  0  0  0  0  2  0  0  0  0  0  0
  191.7680  172.9190  142.0690 C   0  0  0  0  0  2  0  0  0  0  0  0
  192.4740  173.4690  143.3050 C   0  0  2  0  0  3  0  0  0  0  0  0
  193.3840  174.1080  140.5740 C   0  0  1  0  0  3  0  0  0  0  0  0
  194.1480  174.3310  138.1340 C   0  0  0  0  0  0  0  0  0  0  0  0
  193.0650  174.8990  137.8080 O   0  0  0  0  0  0  0  0  0  0  0  0
  194.3650  173.9440  139.5000 N   0  0  0  0  0  2  0  0  0  0  0  0
  195.1840  174.0550  137.1150 C   0  0  0  0  0  0  0  0  0  0  0  0
  195.0200  174.5270  135.8860 C   0  0  0  0  0  2  0  0  0  0  0  0
  196.4590  173.3870  137.4670 C   0  0  0  0  0  0  0  0  0  0  0  0
  196.4830  172.0360  137.7860 O   0  0  0  0  0  1  0  0  0  0  0  0
  197.5350  174.0440  137.4990 O   0  0  0  0  0  0  0  0  0  0  0  0
  194.5790  176.1750  141.4720 C   0  0  0  0  0  2  0  0  0  0  0  0
  195.7550  176.6050  142.3540 C   0  0  0  0  0  2  0  0  0  0  0  0
  196.7420  175.4570  142.5360 C   0  0  1  0  0  3  0  0  0  0  0  0
  197.7500  175.3370  141.3810 C   0  0  0  0  0  2  0  0  0  0  0  0
  197.2420  175.9730  140.2470 O   0  0  0  0  0  1  0  0  0  0  0  0
  197.2780  175.3980  143.8450 O   0  0  0  0  0  0  0  0  0  0  0  0
  197.1300  170.4120  145.8230 C   0  0  0  0  0  1  0  0  0  0  0  0
  197.1780  172.7690  146.2890 O   0  0  0  0  0  0  0  0  0  0  0  0
  197.3430  174.0650  144.2870 C   0  0  2  0  0  3  0  0  0  0  0  0
  196.3540  171.7170  145.8540 C   0  0  1  0  0  3  0  0  0  0  0  0
  195.9160  173.5500  144.4190 C   0  0  1  0  0  3  0  0  0  0  0  0
  195.8730  172.0490  144.4640 C   0  0  0  0  0  2  0  0  0  0  0  0
  196.6970  173.9360  145.6590 C   0  0  1  0  0  3  0  0  0  0  0  0
  1 34  1  1  0  0  0
  1 29  1  0  0  0  0
  2  4  1  6  0  0  0
  2  3  1  0  0  0  0
  3 27  1  6  0  0  0
  3  6  1  0  0  0  0
  4  7  1  0  0  0  0
  5  4  2  0  0  0  0
  6  1  1  6  0  0  0
  7  6  1  0  0  0  0
  8 12  1  0  0  0  0
  9 11  1  0  0  0  0
 11 12  1  0  0  0  0
 11 13  1  1  0  0  0
 12 10  1  1  0  0  0
 14  9  1  1  0  0  0
 14  8  1  0  0  0  0
 14  2  1  0  0  0  0
 15 11  1  0  0  0  0
 16 17  2  0  0  0  0
 17 19  1  0  0  0  0
 17 18  1  0  0  0  0
 18 15  1  0  0  0  0
 19 20  1  0  0  0  0
 21 22  1  0  0  0  0
 22 20  1  0  0  0  0
 23 22  1  0  0  0  0
 25 23  1  0  0  0  0
 25 24  1  0  0  0  0
 27 26  1  0  0  0  0
 28 30  1  0  0  0  0
 29 31  1  0  0  0  0
 29 28  1  0  0  0  0
 29 30  1  0  0  0  0
 31 32  1  0  0  0  0
 33 31  1  0  0  0  0
 35 38  1  0  0  0  0
 36 49  1  6  0  0  0
 36 37  1  0  0  0  0
 37 39  1  0  0  0  0
 38 39  1  0  0  0  0
 39 34  1  1  0  0  0
 40 43  1  6  0  0  0
 40 35  1  0  0  0  0
 40 36  1  0  0  0  0
 41 43  1  0  0  0  0
 42 41  2  0  0  0  0
 44 46  1  0  0  0  0
 44 41  1  0  0  0  0
 45 44  2  0  0  0  0
 46 48  2  0  0  0  0
 46 47  1  0  0  0  0
 49 50  1  0  0  0  0
 50 51  1  0  0  0  0
 51 52  1  6  0  0  0
 51 54  1  0  0  0  0
 53 52  1  0  0  0  0
 57 54  1  6  0  0  0
 57 59  1  0  0  0  0
 57 61  1  0  0  0  0
 58 55  1  6  0  0  0
 58 56  1  0  0  0  0
 59 60  1  1  0  0  0
 59 61  1  0  0  0  0
 60 58  1  0  0  0  0
 61 56  1  1  0  0  0
M  END
>  <MODEL>
3

>  <REMARK>
 VINA RESULT:      -6.3      3.458     10.409
  Name = 
  23 active torsions:
  status: ('A' for Active; 'I' for Inactive)
    1  A    between atoms: C_1  and  C_16
    2  A    between atoms: C_1  and  C_33
    3  A    between atoms: C_2  and  C_54
    4  A    between atoms: C_3  and  C_6
    5  A    between atoms: C_3  and  C_40
    6  A    between atoms: C_3  and  C_47
    7  A    between atoms: C_5  and  C_10
    8  A    between atoms: C_5  and  O_19
    9  A    between atoms: C_5  and  C_31
   10  A    between atoms: C_6  and  C_50
   11  A    between atoms: C_7  and  C_42
   12  A    between atoms: C_7  and  N_56
   13  A    between atoms: C_9  and  C_12
   14  A    between atoms: C_10  and  C_21
   15  A    between atoms: C_12  and  C_14
   16  A    between atoms: C_13  and  C_37
   17  A    between atoms: C_17  and  N_27
   18  A    between atoms: C_17  and  C_61
   19  A    between atoms: O_19  and  C_39
   20  A    between atoms: C_21  and  C_22
   21  A    between atoms: C_24  and  C_40
   22  A    between atoms: N_27  and  C_33
   23  A    between atoms: N_51  and  C_55
                            x       y       z     vdW  Elec       q    Type
                         _______ _______ _______ _____ _____    ______ ____

>  <TORSDO>
F 23

$$$$
=
 OpenBabel11062420183D

 61 66  0  0  1  0  0  0  0  0999 V2000
  187.2440  176.8920  143.4550 C   0  0  1  0  0  3  0  0  0  0  0  0
  190.8140  176.8390  144.8220 C   0  0  2  0  0  3  0  0  0  0  0  0
  189.2990  176.6930  145.0890 C   0  0  1  0  0  3  0  0  0  0  0  0
  190.8530  176.9880  143.3370 C   0  0  0  0  0  0  0  0  0  0  0  0
  191.9070  177.0200  142.6440 O   0  0  0  0  0  0  0  0  0  0  0  0
  188.6550  177.3660  143.8490 C   0  0  1  0  0  3  0  0  0  0  0  0
  189.6060  177.2330  142.8030 O   0  0  0  0  0  0  0  0  0  0  0  0
  192.2590  176.0940  146.7550 C   0  0  0  0  0  2  0  0  0  0  0  0
  192.9580  175.5770  144.4900 C   0  0  0  0  0  2  0  0  0  0  0  0
  194.2030  177.3540  147.3380 F   0  0  0  0  0  0  0  0  0  0  0  0
  194.0340  176.4140  145.1450 C   0  0  2  0  0  0  0  0  0  0  0  0
  193.7680  176.2490  146.6270 C   0  0  2  0  0  3  0  0  0  0  0  0
  193.8750  177.7420  144.7730 F   0  0  0  0  0  0  0  0  0  0  0  0
  191.7260  175.7230  145.3700 C   0  0  2  0  0  3  0  0  0  0  0  0
  195.4210  175.9310  144.7570 C   0  0  0  0  0  2  0  0  0  0  0  0
  196.2200  177.1150  141.5520 O   0  0  0  0  0  0  0  0  0  0  0  0
  196.5600  176.4980  142.5940 C   0  0  0  0  0  0  0  0  0  0  0  0
  196.0340  176.8980  143.8540 N   0  0  0  0  0  2  0  0  0  0  0  0
  197.6010  175.4250  142.5020 C   0  0  0  0  0  2  0  0  0  0  0  0
  197.2040  174.3990  141.4490 C   0  0  0  0  0  2  0  0  0  0  0  0
  195.6530  172.9440  142.2620 O   0  0  0  0  0  1  0  0  0  0  0  0
  195.7830  174.0900  141.5490 N   0  0  0  0  0  0  0  0  0  0  0  0
  195.2410  173.8760  140.2040 C   0  0  0  0  0  2  0  0  0  0  0  0
  192.9840  174.5670  140.5580 O   0  0  0  0  0  1  0  0  0  0  0  0
  194.1380  174.8650  139.8360 C   0  0  0  0  0  2  0  0  0  0  0  0
  188.7290  174.9330  146.5880 F   0  0  0  0  0  0  0  0  0  0  0  0
  188.8740  175.2250  145.2400 C   0  0  0  0  0  2  0  0  0  0  0  0
  186.5690  179.1580  144.2810 O   0  0  0  0  0  0  0  0  0  0  0  0
  186.1750  177.9730  143.6920 C   0  0  0  0  0  0  0  0  0  0  0  0
  186.3950  179.1170  142.9460 O   0  0  0  0  0  0  0  0  0  0  0  0
  184.7010  177.6160  143.8630 C   0  0  0  0  0  3  0  0  0  0  0  0
  184.0390  177.7800  142.6600 F   0  0  0  0  0  0  0  0  0  0  0  0
  184.1030  178.4220  144.8200 F   0  0  0  0  0  0  0  0  0  0  0  0
  187.1740  176.4430  141.9950 C   0  0  0  0  0  2  0  0  0  0  0  0
  188.2910  172.7670  141.9690 C   0  0  0  0  0  2  0  0  0  0  0  0
  189.0990  173.9020  139.8440 C   0  0  1  0  0  3  0  0  0  0  0  0
  188.2780  175.1380  140.2200 C   0  0  0  0  0  2  0  0  0  0  0  0
  187.3980  173.9700  142.2420 C   0  0  0  0  0  2  0  0  0  0  0  0
  188.0640  175.2410  141.7230 C   0  0  2  0  0  3  0  0  0  0  0  0
  188.5220  172.6140  140.4640 C   0  0  1  0  0  3  0  0  0  0  0  0
  190.6910  171.2890  140.8140 C   0  0  0  0  0  0  0  0  0  0  0  0
  191.1040  172.1200  141.6740 O   0  0  0  0  0  0  0  0  0  0  0  0
  189.4040  171.4760  140.2050 N   0  0  0  0  0  2  0  0  0  0  0  0
  191.5320  170.1340  140.4260 C   0  0  0  0  0  0  0  0  0  0  0  0
  191.1000  168.9080  140.6880 C   0  0  0  0  0  2  0  0  0  0  0  0
  192.7700  170.3090  139.6340 C   0  0  0  0  0  0  0  0  0  0  0  0
  193.6410  169.2450  139.4400 O   0  0  0  0  0  1  0  0  0  0  0  0
  193.0590  171.4340  139.1410 O   0  0  0  0  0  0  0  0  0  0  0  0
  189.2550  173.7860  138.3210 C   0  0  0  0  0  2  0  0  0  0  0  0
  190.7110  173.7790  137.8440 C   0  0  0  0  0  2  0  0  0  0  0  0
  190.9380  172.6750  136.8170 C   0  0  1  0  0  3  0  0  0  0  0  0
  189.6630  171.8800  136.4910 C   0  0  0  0  0  2  0  0  0  0  0  0
  189.3410  172.0420  135.1420 O   0  0  0  0  0  1  0  0  0  0  0  0
  191.7090  173.1060  135.7110 O   0  0  0  0  0  0  0  0  0  0  0  0
  196.4090  175.4040  136.9050 C   0  0  0  0  0  1  0  0  0  0  0  0
  195.2380  173.7650  135.5960 O   0  0  0  0  0  0  0  0  0  0  0  0
  192.9140  173.6840  136.1500 C   0  0  2  0  0  3  0  0  0  0  0  0
  195.4910  175.1400  135.7250 C   0  0  1  0  0  3  0  0  0  0  0  0
  193.1710  174.9220  135.3020 C   0  0  1  0  0  3  0  0  0  0  0  0
  194.1720  175.8360  135.9490 C   0  0  0  0  0  2  0  0  0  0  0  0
  193.9480  173.6490  135.0350 C   0  0  1  0  0  3  0  0  0  0  0  0
  1 34  1  6  0  0  0
  1 29  1  0  0  0  0
  2  4  1  6  0  0  0
  2  3  1  0  0  0  0
  2 14  1  0  0  0  0
  3 27  1  6  0  0  0
  5  4  2  0  0  0  0
  6  1  1  6  0  0  0
  6  3  1  0  0  0  0
  7  4  1  0  0  0  0
  7  6  1  0  0  0  0
  9 11  1  0  0  0  0
 11 13  1  6  0  0  0
 11 12  1  0  0  0  0
 12  8  1  0  0  0  0
 12 10  1  1  0  0  0
 14  9  1  6  0  0  0
 14  8  1  0  0  0  0
 15 11  1  0  0  0  0
 16 17  2  0  0  0  0
 17 18  1  0  0  0  0
 18 15  1  0  0  0  0
 19 17  1  0  0  0  0
 20 22  1  0  0  0  0
 20 19  1  0  0  0  0
 22 21  1  0  0  0  0
 23 22  1  0  0  0  0
 25 23  1  0  0  0  0
 25 24  1  0  0  0  0
 27 26  1  0  0  0  0
 29 31  1  0  0  0  0
 29 28  1  0  0  0  0
 30 29  1  0  0  0  0
 30 28  1  0  0  0  0
 31 33  1  0  0  0  0
 32 31  1  0  0  0  0
 35 38  1  0  0  0  0
 36 49  1  6  0  0  0
 36 37  1  0  0  0  0
 36 40  1  0  0  0  0
 37 39  1  0  0  0  0
 39 34  1  6  0  0  0
 39 38  1  0  0  0  0
 40 43  1  1  0  0  0
 40 35  1  0  0  0  0
 41 42  2  0  0  0  0
 43 41  1  0  0  0  0
 44 45  2  0  0  0  0
 44 41  1  0  0  0  0
 46 44  1  0  0  0  0
 47 46  1  0  0  0  0
 48 46  2  0  0  0  0
 50 49  1  0  0  0  0
 51 52  1  6  0  0  0
 51 50  1  0  0  0  0
 53 52  1  0  0  0  0
 54 51  1  0  0  0  0
 56 58  1  0  0  0  0
 57 54  1  6  0  0  0
 58 60  1  0  0  0  0
 58 55  1  1  0  0  0
 59 60  1  1  0  0  0
 59 57  1  0  0  0  0
 61 59  1  0  0  0  0
 61 56  1  1  0  0  0
 61 57  1  0  0  0  0
M  END
>  <MODEL>
4

>  <REMARK>
 VINA RESULT:      -6.2      2.413      6.839
  Name = 
  23 active torsions:
  status: ('A' for Active; 'I' for Inactive)
    1  A    between atoms: C_1  and  C_16
    2  A    between atoms: C_1  and  C_33
    3  A    between atoms: C_2  and  C_54
    4  A    between atoms: C_3  and  C_6
    5  A    between atoms: C_3  and  C_40
    6  A    between atoms: C_3  and  C_47
    7  A    between atoms: C_5  and  C_10
    8  A    between atoms: C_5  and  O_19
    9  A    between atoms: C_5  and  C_31
   10  A    between atoms: C_6  and  C_50
   11  A    between atoms: C_7  and  C_42
   12  A    between atoms: C_7  and  N_56
   13  A    between atoms: C_9  and  C_12
   14  A    between atoms: C_10  and  C_21
   15  A    between atoms: C_12  and  C_14
   16  A    between atoms: C_13  and  C_37
   17  A    between atoms: C_17  and  N_27
   18  A    between atoms: C_17  and  C_61
   19  A    between atoms: O_19  and  C_39
   20  A    between atoms: C_21  and  C_22
   21  A    between atoms: C_24  and  C_40
   22  A    between atoms: N_27  and  C_33
   23  A    between atoms: N_51  and  C_55
                            x       y       z     vdW  Elec       q    Type
                         _______ _______ _______ _____ _____    ______ ____

>  <TORSDO>
F 23

$$$$
=
 OpenBabel11062420183D

 61 66  0  0  1  0  0  0  0  0999 V2000
  190.9590  174.7630  144.5090 C   0  0  1  0  0  3  0  0  0  0  0  0
  187.5860  176.3900  143.7430 C   0  0  2  0  0  3  0  0  0  0  0  0
  188.9920  176.5070  144.3750 C   0  0  1  0  0  3  0  0  0  0  0  0
  187.6540  175.0540  143.0810 C   0  0  0  0  0  0  0  0  0  0  0  0
  186.7610  174.5770  142.3290 O   0  0  0  0  0  0  0  0  0  0  0  0
  189.4430  175.0290  144.5080 C   0  0  1  0  0  3  0  0  0  0  0  0
  188.7480  174.3220  143.4920 O   0  0  0  0  0  0  0  0  0  0  0  0
  187.3860  178.8940  143.4760 C   0  0  0  0  0  2  0  0  0  0  0  0
  185.6460  177.4670  142.5700 C   0  0  0  0  0  2  0  0  0  0  0  0
  185.9600  180.1340  144.9370 F   0  0  0  0  0  0  0  0  0  0  0  0
  185.0210  178.4020  143.5810 C   0  0  2  0  0  0  0  0  0  0  0  0
  186.0220  179.5340  143.6910 C   0  0  2  0  0  3  0  0  0  0  0  0
  184.8970  177.7490  144.7990 F   0  0  0  0  0  0  0  0  0  0  0  0
  187.1460  177.5370  142.8120 C   0  0  2  0  0  3  0  0  0  0  0  0
  183.6590  178.8890  143.1150 C   0  0  0  0  0  2  0  0  0  0  0  0
  182.1890  177.9410  140.0720 O   0  0  0  0  0  0  0  0  0  0  0  0
  182.0640  178.2600  141.2830 C   0  0  0  0  0  0  0  0  0  0  0  0
  183.0750  177.9000  142.2160 N   0  0  0  0  0  2  0  0  0  0  0  0
  180.7960  178.9150  141.7380 C   0  0  0  0  0  2  0  0  0  0  0  0
  180.2620  179.8360  140.6490 C   0  0  0  0  0  2  0  0  0  0  0  0
  178.3880  178.8760  141.5150 O   0  0  0  0  0  1  0  0  0  0  0  0
  178.8050  179.8270  140.6430 N   0  0  0  0  0  0  0  0  0  0  0  0
  178.3300  179.4800  139.3000 C   0  0  0  0  0  2  0  0  0  0  0  0
  177.9040  177.7340  137.7290 O   0  0  0  0  0  1  0  0  0  0  0  0
  178.3200  177.9760  139.0370 C   0  0  0  0  0  2  0  0  0  0  0  0
  190.2820  176.6000  142.3750 F   0  0  0  0  0  0  0  0  0  0  0  0
  189.9520  177.3320  143.5060 C   0  0  0  0  0  2  0  0  0  0  0  0
  193.0400  175.2920  145.7990 O   0  0  0  0  0  0  0  0  0  0  0  0
  191.6750  175.4580  145.6810 C   0  0  0  0  0  0  0  0  0  0  0  0
  192.5640  176.4330  145.2630 O   0  0  0  0  0  0  0  0  0  0  0  0
  190.9430  175.7980  146.9760 C   0  0  0  0  0  3  0  0  0  0  0  0
  191.2730  177.0800  147.3770 F   0  0  0  0  0  0  0  0  0  0  0  0
  191.2810  174.9100  147.9850 F   0  0  0  0  0  0  0  0  0  0  0  0
  191.2820  173.2690  144.5540 C   0  0  0  0  0  2  0  0  0  0  0  0
  191.3470  171.8180  140.9970 C   0  0  0  0  0  2  0  0  0  0  0  0
  193.2090  173.5290  141.2370 C   0  0  1  0  0  3  0  0  0  0  0  0
  192.6470  173.9150  142.6070 C   0  0  0  0  0  2  0  0  0  0  0  0
  190.7540  172.3160  142.3080 C   0  0  0  0  0  2  0  0  0  0  0  0
  191.8710  172.7720  143.2430 C   0  0  2  0  0  3  0  0  0  0  0  0
  192.1260  172.9430  140.3100 C   0  0  1  0  0  3  0  0  0  0  0  0
  192.3710  172.9320  137.7560 C   0  0  0  0  0  0  0  0  0  0  0  0
  191.5320  173.8720  137.6340 O   0  0  0  0  0  0  0  0  0  0  0  0
  192.7190  172.4550  139.0650 N   0  0  0  0  0  2  0  0  0  0  0  0
  192.9850  172.3180  136.5580 C   0  0  0  0  0  0  0  0  0  0  0  0
  194.1860  172.7260  136.1710 C   0  0  0  0  0  2  0  0  0  0  0  0
  192.3560  171.1690  135.8680 C   0  0  0  0  0  0  0  0  0  0  0  0
  191.2340  171.3520  135.0710 O   0  0  0  0  0  0  0  0  0  0  0  0
  192.8230  170.0060  136.0110 O   0  0  0  0  0  1  0  0  0  0  0  0
  193.9390  174.7150  140.5870 C   0  0  0  0  0  2  0  0  0  0  0  0
  194.5630  175.6870  141.5930 C   0  0  0  0  0  2  0  0  0  0  0  0
  195.8700  175.1280  142.1460 C   0  0  1  0  0  3  0  0  0  0  0  0
  197.1000  175.5360  141.3200 C   0  0  0  0  0  2  0  0  0  0  0  0
  196.6890  176.0680  140.0960 O   0  0  0  0  0  1  0  0  0  0  0  0
  195.9770  175.2780  143.5500 O   0  0  0  0  0  0  0  0  0  0  0  0
  196.1770  170.4770  145.9390 C   0  0  0  0  0  1  0  0  0  0  0  0
  196.8350  171.8280  144.0640 O   0  0  0  0  0  0  0  0  0  0  0  0
  195.8990  174.0250  144.1830 C   0  0  2  0  0  3  0  0  0  0  0  0
  197.0880  171.5760  145.4230 C   0  0  1  0  0  3  0  0  0  0  0  0
  197.0530  173.9320  145.1720 C   0  0  1  0  0  3  0  0  0  0  0  0
  196.8230  172.8490  146.1870 C   0  0  0  0  0  2  0  0  0  0  0  0
  197.1280  173.1920  143.8510 C   0  0  1  0  0  3  0  0  0  0  0  0
  1 34  1  1  0  0  0
  1 29  1  0  0  0  0
  2  4  1  6  0  0  0
  2  3  1  0  0  0  0
  3 27  1  6  0  0  0
  3  6  1  0  0  0  0
  4  7  1  0  0  0  0
  5  4  2  0  0  0  0
  6  1  1  6  0  0  0
  7  6  1  0  0  0  0
  8 12  1  0  0  0  0
  9 11  1  0  0  0  0
 11 12  1  0  0  0  0
 11 13  1  1  0  0  0
 12 10  1  1  0  0  0
 14  9  1  1  0  0  0
 14  8  1  0  0  0  0
 14  2  1  0  0  0  0
 15 11  1  0  0  0  0
 16 17  2  0  0  0  0
 17 19  1  0  0  0  0
 17 18  1  0  0  0  0
 18 15  1  0  0  0  0
 20 19  1  0  0  0  0
 22 20  1  0  0  0  0
 22 21  1  0  0  0  0
 23 22  1  0  0  0  0
 24 25  1  0  0  0  0
 25 23  1  0  0  0  0
 26 27  1  0  0  0  0
 29 28  1  0  0  0  0
 29 31  1  0  0  0  0
 30 29  1  0  0  0  0
 30 28  1  0  0  0  0
 31 32  1  0  0  0  0
 31 33  1  0  0  0  0
 35 38  1  0  0  0  0
 36 49  1  6  0  0  0
 36 37  1  0  0  0  0
 37 39  1  0  0  0  0
 38 39  1  0  0  0  0
 39 34  1  1  0  0  0
 40 43  1  6  0  0  0
 40 35  1  0  0  0  0
 40 36  1  0  0  0  0
 41 43  1  0  0  0  0
 42 41  2  0  0  0  0
 44 41  1  0  0  0  0
 45 44  2  0  0  0  0
 46 48  1  0  0  0  0
 46 44  1  0  0  0  0
 47 46  2  0  0  0  0
 49 50  1  0  0  0  0
 50 51  1  0  0  0  0
 51 52  1  6  0  0  0
 51 54  1  0  0  0  0
 53 52  1  0  0  0  0
 56 58  1  0  0  0  0
 57 54  1  6  0  0  0
 57 59  1  0  0  0  0
 58 55  1  1  0  0  0
 58 60  1  0  0  0  0
 59 60  1  1  0  0  0
 61 56  1  1  0  0  0
 61 57  1  0  0  0  0
 61 59  1  0  0  0  0
M  END
>  <MODEL>
5

>  <REMARK>
 VINA RESULT:      -6.0      3.490     10.188
  Name = 
  23 active torsions:
  status: ('A' for Active; 'I' for Inactive)
    1  A    between atoms: C_1  and  C_16
    2  A    between atoms: C_1  and  C_33
    3  A    between atoms: C_2  and  C_54
    4  A    between atoms: C_3  and  C_6
    5  A    between atoms: C_3  and  C_40
    6  A    between atoms: C_3  and  C_47
    7  A    between atoms: C_5  and  C_10
    8  A    between atoms: C_5  and  O_19
    9  A    between atoms: C_5  and  C_31
   10  A    between atoms: C_6  and  C_50
   11  A    between atoms: C_7  and  C_42
   12  A    between atoms: C_7  and  N_56
   13  A    between atoms: C_9  and  C_12
   14  A    between atoms: C_10  and  C_21
   15  A    between atoms: C_12  and  C_14
   16  A    between atoms: C_13  and  C_37
   17  A    between atoms: C_17  and  N_27
   18  A    between atoms: C_17  and  C_61
   19  A    between atoms: O_19  and  C_39
   20  A    between atoms: C_21  and  C_22
   21  A    between atoms: C_24  and  C_40
   22  A    between atoms: N_27  and  C_33
   23  A    between atoms: N_51  and  C_55
                            x       y       z     vdW  Elec       q    Type
                         _______ _______ _______ _____ _____    ______ ____

>  <TORSDO>
F 23

$$$$
=
 OpenBabel11062420183D

 61 66  0  0  1  0  0  0  0  0999 V2000
  196.0560  174.2540  143.9010 C   0  0  1  0  0  3  0  0  0  0  0  0
  192.4830  175.2950  144.7780 C   0  0  2  0  0  3  0  0  0  0  0  0
  193.7700  174.5370  145.1760 C   0  0  1  0  0  3  0  0  0  0  0  0
  192.9010  175.9700  143.5130 C   0  0  0  0  0  0  0  0  0  0  0  0
  192.2020  176.8070  142.8800 O   0  0  0  0  0  0  0  0  0  0  0  0
  194.5240  174.3880  143.8290 C   0  0  1  0  0  3  0  0  0  0  0  0
  194.0900  175.4750  143.0240 O   0  0  0  0  0  0  0  0  0  0  0  0
  191.1050  175.4520  146.8890 C   0  0  0  0  0  2  0  0  0  0  0  0
  190.8550  177.1610  145.1850 C   0  0  0  0  0  2  0  0  0  0  0  0
  188.8240  174.7450  146.8730 F   0  0  0  0  0  0  0  0  0  0  0  0
  189.5140  176.4980  145.4000 C   0  0  2  0  0  0  0  0  0  0  0  0
  189.6430  175.8560  146.7650 C   0  0  2  0  0  3  0  0  0  0  0  0
  189.3190  175.5270  144.4270 F   0  0  0  0  0  0  0  0  0  0  0  0
  191.8810  176.2430  145.8330 C   0  0  2  0  0  3  0  0  0  0  0  0
  188.3830  177.5120  145.3510 C   0  0  0  0  0  2  0  0  0  0  0  0
  185.2090  176.5840  146.5260 O   0  0  0  0  0  0  0  0  0  0  0  0
  186.0450  177.4870  146.2620 C   0  0  0  0  0  0  0  0  0  0  0  0
  187.4360  177.2300  146.4220 N   0  0  0  0  0  2  0  0  0  0  0  0
  185.5530  178.8520  145.8910 C   0  0  0  0  0  2  0  0  0  0  0  0
  185.8700  179.1440  144.4300 C   0  0  0  0  0  2  0  0  0  0  0  0
  183.5970  179.0260  144.4740 O   0  0  0  0  0  1  0  0  0  0  0  0
  184.6540  179.1140  143.6290 N   0  0  0  0  0  0  0  0  0  0  0  0
  184.6720  177.9280  142.7680 C   0  0  0  0  0  2  0  0  0  0  0  0
  186.0940  177.8840  140.8510 O   0  0  0  0  0  1  0  0  0  0  0  0
  184.8250  178.2630  141.2870 C   0  0  0  0  0  2  0  0  0  0  0  0
  194.5550  176.6560  145.9260 F   0  0  0  0  0  0  0  0  0  0  0  0
  194.5930  175.3020  146.2220 C   0  0  0  0  0  2  0  0  0  0  0  0
  197.8520  172.6230  144.5210 O   0  0  0  0  0  0  0  0  0  0  0  0
  196.4990  172.8850  144.4470 C   0  0  0  0  0  0  0  0  0  0  0  0
  197.1930  172.9830  145.6390 O   0  0  0  0  0  0  0  0  0  0  0  0
  195.5990  171.6570  144.3490 C   0  0  0  0  0  3  0  0  0  0  0  0
  196.2500  170.5580  144.8800 F   0  0  0  0  0  0  0  0  0  0  0  0
  195.2660  171.3890  143.0310 F   0  0  0  0  0  0  0  0  0  0  0  0
  196.7180  174.4790  142.5420 C   0  0  0  0  0  2  0  0  0  0  0  0
  194.8310  175.5860  139.3830 C   0  0  0  0  0  2  0  0  0  0  0  0
  195.1070  173.0600  139.3520 C   0  0  1  0  0  3  0  0  0  0  0  0
  196.0180  173.1680  140.5760 C   0  0  0  0  0  2  0  0  0  0  0  0
  195.8360  175.6560  140.5250 C   0  0  0  0  0  2  0  0  0  0  0  0
  195.7170  174.4110  141.4000 C   0  0  2  0  0  3  0  0  0  0  0  0
  195.1070  174.3560  138.5150 C   0  0  1  0  0  3  0  0  0  0  0  0
  192.7050  174.1560  137.6330 C   0  0  0  0  0  0  0  0  0  0  0  0
  192.2330  174.1690  138.8070 O   0  0  0  0  0  0  0  0  0  0  0  0
  194.1230  174.2730  137.4350 N   0  0  0  0  0  2  0  0  0  0  0  0
  191.8060  174.0100  136.4670 C   0  0  0  0  0  0  0  0  0  0  0  0
  191.4720  175.0890  135.7730 C   0  0  0  0  0  2  0  0  0  0  0  0
  191.3840  172.6780  135.9770 C   0  0  0  0  0  0  0  0  0  0  0  0
  192.0730  172.0540  134.9450 O   0  0  0  0  0  0  0  0  0  0  0  0
  190.3800  172.1020  136.4790 O   0  0  0  0  0  1  0  0  0  0  0  0
  195.4660  171.8310  138.5040 C   0  0  0  0  0  2  0  0  0  0  0  0
  194.9140  170.5130  139.0570 C   0  0  0  0  0  2  0  0  0  0  0  0
  193.4360  170.6500  139.4050 C   0  0  1  0  0  3  0  0  0  0  0  0
  192.5040  170.0720  138.3280 C   0  0  0  0  0  2  0  0  0  0  0  0
  193.2590  169.6400  137.2360 O   0  0  0  0  0  1  0  0  0  0  0  0
  193.1530  170.2820  140.7430 O   0  0  0  0  0  0  0  0  0  0  0  0
  188.8210  172.7010  142.7870 C   0  0  0  0  0  1  0  0  0  0  0  0
  190.6120  171.1380  143.1330 O   0  0  0  0  0  0  0  0  0  0  0  0
  191.9530  170.8770  141.1710 C   0  0  2  0  0  3  0  0  0  0  0  0
  190.3020  172.5050  143.0600 C   0  0  1  0  0  3  0  0  0  0  0  0
  192.3030  172.2050  141.8290 C   0  0  1  0  0  3  0  0  0  0  0  0
  191.1040  173.1030  141.9320 C   0  0  0  0  0  2  0  0  0  0  0  0
  191.9450  171.0080  142.6870 C   0  0  1  0  0  3  0  0  0  0  0  0
  1 34  1  6  0  0  0
  1 29  1  0  0  0  0
  2  4  1  6  0  0  0
  2  3  1  0  0  0  0
  2 14  1  0  0  0  0
  3 27  1  1  0  0  0
  5  4  2  0  0  0  0
  6  1  1  1  0  0  0
  6  3  1  0  0  0  0
  7  4  1  0  0  0  0
  7  6  1  0  0  0  0
  9 11  1  0  0  0  0
 11 13  1  6  0  0  0
 11 12  1  0  0  0  0
 12 10  1  6  0  0  0
 12  8  1  0  0  0  0
 14  9  1  6  0  0  0
 14  8  1  0  0  0  0
 15 11  1  0  0  0  0
 15 18  1  0  0  0  0
 17 18  1  0  0  0  0
 17 16  2  0  0  0  0
 19 17  1  0  0  0  0
 20 19  1  0  0  0  0
 22 20  1  0  0  0  0
 22 21  1  0  0  0  0
 23 22  1  0  0  0  0
 24 25  1  0  0  0  0
 25 23  1  0  0  0  0
 26 27  1  0  0  0  0
 28 30  1  0  0  0  0
 29 28  1  0  0  0  0
 29 30  1  0  0  0  0
 31 29  1  0  0  0  0
 31 32  1  0  0  0  0
 33 31  1  0  0  0  0
 35 38  1  0  0  0  0
 36 49  1  6  0  0  0
 36 37  1  0  0  0  0
 37 39  1  0  0  0  0
 38 39  1  0  0  0  0
 39 34  1  1  0  0  0
 40 43  1  6  0  0  0
 40 36  1  0  0  0  0
 40 35  1  0  0  0  0
 41 42  2  0  0  0  0
 43 41  1  0  0  0  0
 44 41  1  0  0  0  0
 45 44  2  0  0  0  0
 46 44  1  0  0  0  0
 46 48  1  0  0  0  0
 47 46  2  0  0  0  0
 49 50  1  0  0  0  0
 50 51  1  0  0  0  0
 51 52  1  6  0  0  0
 51 54  1  0  0  0  0
 53 52  1  0  0  0  0
 57 54  1  1  0  0  0
 57 59  1  0  0  0  0
 57 61  1  0  0  0  0
 58 55  1  6  0  0  0
 58 56  1  0  0  0  0
 59 60  1  6  0  0  0
 59 61  1  0  0  0  0
 60 58  1  0  0  0  0
 61 56  1  6  0  0  0
M  END
>  <MODEL>
6

>  <REMARK>
 VINA RESULT:      -6.0      2.774      8.723
  Name = 
  23 active torsions:
  status: ('A' for Active; 'I' for Inactive)
    1  A    between atoms: C_1  and  C_16
    2  A    between atoms: C_1  and  C_33
    3  A    between atoms: C_2  and  C_54
    4  A    between atoms: C_3  and  C_6
    5  A    between atoms: C_3  and  C_40
    6  A    between atoms: C_3  and  C_47
    7  A    between atoms: C_5  and  C_10
    8  A    between atoms: C_5  and  O_19
    9  A    between atoms: C_5  and  C_31
   10  A    between atoms: C_6  and  C_50
   11  A    between atoms: C_7  and  C_42
   12  A    between atoms: C_7  and  N_56
   13  A    between atoms: C_9  and  C_12
   14  A    between atoms: C_10  and  C_21
   15  A    between atoms: C_12  and  C_14
   16  A    between atoms: C_13  and  C_37
   17  A    between atoms: C_17  and  N_27
   18  A    between atoms: C_17  and  C_61
   19  A    between atoms: O_19  and  C_39
   20  A    between atoms: C_21  and  C_22
   21  A    between atoms: C_24  and  C_40
   22  A    between atoms: N_27  and  C_33
   23  A    between atoms: N_51  and  C_55
                            x       y       z     vdW  Elec       q    Type
                         _______ _______ _______ _____ _____    ______ ____

>  <TORSDO>
F 23

$$$$
=
 OpenBabel11062420183D

 61 66  0  0  1  0  0  0  0  0999 V2000
  187.4780  177.4310  144.9500 C   0  0  1  0  0  3  0  0  0  0  0  0
  188.1160  174.9210  142.1380 C   0  0  2  0  0  3  0  0  0  0  0  0
  187.4400  176.2290  142.6070 C   0  0  1  0  0  3  0  0  0  0  0  0
  188.9400  174.5530  143.3280 C   0  0  0  0  0  0  0  0  0  0  0  0
  189.7670  173.6030  143.3640 O   0  0  0  0  0  0  0  0  0  0  0  0
  187.4830  176.1130  144.1530 C   0  0  1  0  0  3  0  0  0  0  0  0
  188.5970  175.2830  144.4460 O   0  0  0  0  0  0  0  0  0  0  0  0
  188.0300  174.5430  139.6410 C   0  0  0  0  0  2  0  0  0  0  0  0
  190.0610  173.9950  140.8500 C   0  0  0  0  0  2  0  0  0  0  0  0
  187.6450  172.3450  138.7870 F   0  0  0  0  0  0  0  0  0  0  0  0
  189.5500  172.7410  140.1780 C   0  0  2  0  0  0  0  0  0  0  0  0
  188.6380  173.2620  139.0870 C   0  0  2  0  0  3  0  0  0  0  0  0
  188.8260  171.9900  141.0930 F   0  0  0  0  0  0  0  0  0  0  0  0
  188.9060  174.9840  140.8160 C   0  0  2  0  0  3  0  0  0  0  0  0
  190.6930  171.9100  139.6180 C   0  0  0  0  0  2  0  0  0  0  0  0
  192.8350  174.2800  138.1650 O   0  0  0  0  0  0  0  0  0  0  0  0
  192.5380  173.0760  138.3790 C   0  0  0  0  0  0  0  0  0  0  0  0
  191.9100  172.7120  139.6030 N   0  0  0  0  0  2  0  0  0  0  0  0
  192.9540  172.0330  137.3890 C   0  0  0  0  0  2  0  0  0  0  0  0
  194.4730  171.9610  137.3100 C   0  0  0  0  0  2  0  0  0  0  0  0
  194.3810  171.5050  135.0810 O   0  0  0  0  0  1  0  0  0  0  0  0
  194.9330  172.3530  135.9840 N   0  0  0  0  0  0  0  0  0  0  0  0
  196.3920  172.2260  135.9220 C   0  0  0  0  0  2  0  0  0  0  0  0
  197.3850  170.0640  135.7270 O   0  0  0  0  0  1  0  0  0  0  0  0
  196.8590  171.1180  134.9820 C   0  0  0  0  0  2  0  0  0  0  0  0
  187.3930  178.1000  141.1350 F   0  0  0  0  0  0  0  0  0  0  0  0
  188.1740  177.4780  142.0970 C   0  0  0  0  0  2  0  0  0  0  0  0
  185.5050  176.4030  146.1020 O   0  0  0  0  0  0  0  0  0  0  0  0
  186.2800  177.5290  145.9120 C   0  0  0  0  0  0  0  0  0  0  0  0
  186.4250  176.7300  147.0310 O   0  0  0  0  0  0  0  0  0  0  0  0
  185.5800  178.8580  146.1830 C   0  0  0  0  0  3  0  0  0  0  0  0
  184.2090  178.6840  146.1220 F   0  0  0  0  0  0  0  0  0  0  0  0
  185.9540  179.8150  145.2520 F   0  0  0  0  0  0  0  0  0  0  0  0
  188.7670  177.6270  145.7480 C   0  0  0  0  0  2  0  0  0  0  0  0
  191.8930  177.7630  143.5190 C   0  0  0  0  0  2  0  0  0  0  0  0
  192.2430  176.0320  145.3460 C   0  0  1  0  0  3  0  0  0  0  0  0
  190.9430  176.5000  146.0050 C   0  0  0  0  0  2  0  0  0  0  0  0
  190.6720  178.2740  144.2710 C   0  0  0  0  0  2  0  0  0  0  0  0
  189.9870  177.1190  144.9970 C   0  0  2  0  0  3  0  0  0  0  0  0
  192.8940  177.1430  144.4980 C   0  0  1  0  0  3  0  0  0  0  0  0
  193.9810  175.6830  142.6900 C   0  0  0  0  0  0  0  0  0  0  0  0
  192.8520  175.2850  142.2800 O   0  0  0  0  0  0  0  0  0  0  0  0
  194.0530  176.6260  143.7710 N   0  0  0  0  0  2  0  0  0  0  0  0
  195.2240  175.1740  142.0710 C   0  0  0  0  0  0  0  0  0  0  0  0
  195.1400  174.4390  140.9690 C   0  0  0  0  0  2  0  0  0  0  0  0
  196.5600  175.5770  142.5680 C   0  0  0  0  0  0  0  0  0  0  0  0
  196.9490  176.9100  142.5450 O   0  0  0  0  0  0  0  0  0  0  0  0
  197.3680  174.7100  143.0010 O   0  0  0  0  0  1  0  0  0  0  0  0
  193.2160  175.4640  146.3890 C   0  0  0  0  0  2  0  0  0  0  0  0
  193.3720  173.9410  146.3280 C   0  0  0  0  0  2  0  0  0  0  0  0
  194.6630  173.5580  145.6130 C   0  0  1  0  0  3  0  0  0  0  0  0
  195.8520  174.4570  145.9890 C   0  0  0  0  0  2  0  0  0  0  0  0
  196.9370  173.6660  146.3730 O   0  0  0  0  0  1  0  0  0  0  0  0
  194.9030  172.1630  145.6270 O   0  0  0  0  0  0  0  0  0  0  0  0
  191.5870  169.6540  142.2340 C   0  0  0  0  0  1  0  0  0  0  0  0
  192.9600  171.5790  142.6630 O   0  0  0  0  0  0  0  0  0  0  0  0
  193.9490  171.4950  144.8380 C   0  0  2  0  0  3  0  0  0  0  0  0
  192.9940  170.2210  142.3060 C   0  0  1  0  0  3  0  0  0  0  0  0
  194.6960  170.5320  143.9240 C   0  0  1  0  0  3  0  0  0  0  0  0
  193.7790  169.4830  143.3610 C   0  0  0  0  0  2  0  0  0  0  0  0
  194.1550  171.8350  143.3690 C   0  0  1  0  0  3  0  0  0  0  0  0
  1 34  1  1  0  0  0
  1 29  1  0  0  0  0
  2  3  1  0  0  0  0
  2  4  1  1  0  0  0
  3 27  1  1  0  0  0
  3  6  1  0  0  0  0
  4  5  2  0  0  0  0
  4  7  1  0  0  0  0
  6  7  1  0  0  0  0
  6  1  1  1  0  0  0
 11  9  1  0  0  0  0
 11 13  1  1  0  0  0
 12 10  1  1  0  0  0
 12  8  1  0  0  0  0
 12 11  1  0  0  0  0
 14  8  1  6  0  0  0
 14  9  1  0  0  0  0
 14  2  1  0  0  0  0
 15 11  1  0  0  0  0
 16 17  2  0  0  0  0
 17 18  1  0  0  0  0
 18 15  1  0  0  0  0
 19 17  1  0  0  0  0
 20 19  1  0  0  0  0
 21 22  1  0  0  0  0
 22 20  1  0  0  0  0
 23 22  1  0  0  0  0
 25 24  1  0  0  0  0
 25 23  1  0  0  0  0
 26 27  1  0  0  0  0
 28 30  1  0  0  0  0
 29 28  1  0  0  0  0
 29 31  1  0  0  0  0
 29 30  1  0  0  0  0
 32 31  1  0  0  0  0
 33 31  1  0  0  0  0
 35 38  1  0  0  0  0
 35 40  1  0  0  0  0
 36 37  1  0  0  0  0
 36 49  1  1  0  0  0
 38 39  1  0  0  0  0
 39 34  1  1  0  0  0
 39 37  1  0  0  0  0
 40 43  1  6  0  0  0
 40 36  1  0  0  0  0
 41 43  1  0  0  0  0
 42 41  2  0  0  0  0
 44 46  1  0  0  0  0
 44 41  1  0  0  0  0
 45 44  2  0  0  0  0
 46 48  1  0  0  0  0
 47 46  2  0  0  0  0
 50 49  1  0  0  0  0
 51 54  1  0  0  0  0
 51 52  1  1  0  0  0
 51 50  1  0  0  0  0
 52 53  1  0  0  0  0
 57 54  1  1  0  0  0
 58 55  1  1  0  0  0
 58 56  1  0  0  0  0
 58 60  1  0  0  0  0
 59 60  1  6  0  0  0
 59 57  1  0  0  0  0
 61 56  1  6  0  0  0
 61 59  1  0  0  0  0
 61 57  1  0  0  0  0
M  END
>  <MODEL>
7

>  <REMARK>
 VINA RESULT:      -6.0      3.257      7.837
  Name = 
  23 active torsions:
  status: ('A' for Active; 'I' for Inactive)
    1  A    between atoms: C_1  and  C_16
    2  A    between atoms: C_1  and  C_33
    3  A    between atoms: C_2  and  C_54
    4  A    between atoms: C_3  and  C_6
    5  A    between atoms: C_3  and  C_40
    6  A    between atoms: C_3  and  C_47
    7  A    between atoms: C_5  and  C_10
    8  A    between atoms: C_5  and  O_19
    9  A    between atoms: C_5  and  C_31
   10  A    between atoms: C_6  and  C_50
   11  A    between atoms: C_7  and  C_42
   12  A    between atoms: C_7  and  N_56
   13  A    between atoms: C_9  and  C_12
   14  A    between atoms: C_10  and  C_21
   15  A    between atoms: C_12  and  C_14
   16  A    between atoms: C_13  and  C_37
   17  A    between atoms: C_17  and  N_27
   18  A    between atoms: C_17  and  C_61
   19  A    between atoms: O_19  and  C_39
   20  A    between atoms: C_21  and  C_22
   21  A    between atoms: C_24  and  C_40
   22  A    between atoms: N_27  and  C_33
   23  A    between atoms: N_51  and  C_55
                            x       y       z     vdW  Elec       q    Type
                         _______ _______ _______ _____ _____    ______ ____

>  <TORSDO>
F 23

$$$$
=
 OpenBabel11062420183D

 61 66  0  0  1  0  0  0  0  0999 V2000
  187.5800  176.6430  143.4370 C   0  0  1  0  0  3  0  0  0  0  0  0
  191.2150  176.6050  144.6210 C   0  0  2  0  0  3  0  0  0  0  0  0
  189.7140  176.7060  144.9780 C   0  0  1  0  0  3  0  0  0  0  0  0
  191.1670  176.3140  143.1580 C   0  0  0  0  0  0  0  0  0  0  0  0
  192.1690  176.0300  142.4470 O   0  0  0  0  0  0  0  0  0  0  0  0
  189.0520  177.0570  143.6200 C   0  0  1  0  0  3  0  0  0  0  0  0
  189.9140  176.5260  142.6240 O   0  0  0  0  0  0  0  0  0  0  0  0
  192.6520  176.2830  146.6740 C   0  0  0  0  0  2  0  0  0  0  0  0
  193.2510  175.1370  144.6210 C   0  0  0  0  0  2  0  0  0  0  0  0
  194.6990  177.4960  146.8920 F   0  0  0  0  0  0  0  0  0  0  0  0
  194.4020  176.0300  145.0250 C   0  0  2  0  0  0  0  0  0  0  0  0
  194.1640  176.2810  146.5000 C   0  0  2  0  0  3  0  0  0  0  0  0
  194.3320  177.2220  144.3170 F   0  0  0  0  0  0  0  0  0  0  0  0
  192.0560  175.6050  145.4390 C   0  0  2  0  0  3  0  0  0  0  0  0
  195.7400  175.3560  144.7700 C   0  0  0  0  0  2  0  0  0  0  0  0
  197.1900  172.4180  146.0290 O   0  0  0  0  0  0  0  0  0  0  0  0
  196.1790  173.0230  145.5850 C   0  0  0  0  0  0  0  0  0  0  0  0
  196.0180  174.4130  145.8460 N   0  0  0  0  0  2  0  0  0  0  0  0
  195.1090  172.2440  144.8860 C   0  0  0  0  0  2  0  0  0  0  0  0
  194.5980  171.1290  145.7890 C   0  0  0  0  0  2  0  0  0  0  0  0
  195.2570  169.5890  144.2460 O   0  0  0  0  0  1  0  0  0  0  0  0
  194.1940  169.9750  144.9960 N   0  0  0  0  0  0  0  0  0  0  0  0
  193.1000  170.3640  144.1020 C   0  0  0  0  0  2  0  0  0  0  0  0
  193.3840  170.8840  141.7900 O   0  0  0  0  0  1  0  0  0  0  0  0
  193.2600  169.8220  142.6840 C   0  0  0  0  0  2  0  0  0  0  0  0
  188.3240  174.8020  144.6480 F   0  0  0  0  0  0  0  0  0  0  0  0
  189.1690  175.4000  145.5710 C   0  0  0  0  0  2  0  0  0  0  0  0
  185.8690  177.3470  145.1250 O   0  0  0  0  0  0  0  0  0  0  0  0
  186.6040  177.6870  144.0070 C   0  0  0  0  0  0  0  0  0  0  0  0
  186.9620  178.1220  145.2700 O   0  0  0  0  0  0  0  0  0  0  0  0
  185.9890  178.7710  143.1260 C   0  0  0  0  0  3  0  0  0  0  0  0
  186.9910  179.4520  142.4570 F   0  0  0  0  0  0  0  0  0  0  0  0
  185.2610  179.6740  143.8850 F   0  0  0  0  0  0  0  0  0  0  0  0
  187.2300  176.3920  141.9710 C   0  0  0  0  0  2  0  0  0  0  0  0
  188.5330  172.8290  141.3610 C   0  0  0  0  0  2  0  0  0  0  0  0
  188.5780  174.1220  139.1740 C   0  0  1  0  0  3  0  0  0  0  0  0
  187.8280  175.2650  139.8620 C   0  0  0  0  0  2  0  0  0  0  0  0
  187.6860  173.9380  141.9700 C   0  0  0  0  0  2  0  0  0  0  0  0
  188.0740  175.2830  141.3630 C   0  0  2  0  0  3  0  0  0  0  0  0
  188.3050  172.7630  139.8490 C   0  0  1  0  0  3  0  0  0  0  0  0
  190.5770  171.6940  139.3200 C   0  0  0  0  0  0  0  0  0  0  0  0
  191.1930  172.5970  139.9570 O   0  0  0  0  0  0  0  0  0  0  0  0
  189.1420  171.7170  139.2600 N   0  0  0  0  0  2  0  0  0  0  0  0
  191.3270  170.6220  138.6290 C   0  0  0  0  0  0  0  0  0  0  0  0
  191.3090  169.3950  139.1340 C   0  0  0  0  0  2  0  0  0  0  0  0
  191.9800  170.8530  137.3200 C   0  0  0  0  0  0  0  0  0  0  0  0
  191.2200  171.0040  136.1680 O   0  0  0  0  0  0  0  0  0  0  0  0
  193.2380  170.8950  137.2340 O   0  0  0  0  0  1  0  0  0  0  0  0
  188.2700  174.0870  137.6700 C   0  0  0  0  0  2  0  0  0  0  0  0
  189.5170  174.1120  136.7800 C   0  0  0  0  0  2  0  0  0  0  0  0
  189.2820  174.9750  135.5440 C   0  0  1  0  0  3  0  0  0  0  0  0
  188.0780  175.9190  135.6850 C   0  0  0  0  0  2  0  0  0  0  0  0
  188.4100  177.1810  135.1880 O   0  0  0  0  0  1  0  0  0  0  0  0
  190.4750  175.5490  135.0440 O   0  0  0  0  0  0  0  0  0  0  0  0
  195.0320  173.6650  137.1600 C   0  0  0  0  0  1  0  0  0  0  0  0
  193.7850  174.1590  135.1670 O   0  0  0  0  0  0  0  0  0  0  0  0
  191.5950  174.9750  135.6720 C   0  0  2  0  0  3  0  0  0  0  0  0
  194.5280  174.7360  136.2100 C   0  0  1  0  0  3  0  0  0  0  0  0
  192.6030  176.0880  135.9290 C   0  0  1  0  0  3  0  0  0  0  0  0
  193.6210  175.6830  136.9560 C   0  0  0  0  0  2  0  0  0  0  0  0
  192.8240  175.1190  134.7850 C   0  0  1  0  0  3  0  0  0  0  0  0
  1 34  1  6  0  0  0
  1 29  1  0  0  0  0
  2  4  1  6  0  0  0
  2  3  1  0  0  0  0
  2 14  1  0  0  0  0
  3 27  1  6  0  0  0
  5  4  2  0  0  0  0
  6  1  1  1  0  0  0
  6  3  1  0  0  0  0
  7  4  1  0  0  0  0
  7  6  1  0  0  0  0
  9 11  1  0  0  0  0
 11 13  1  6  0  0  0
 11 12  1  0  0  0  0
 12  8  1  0  0  0  0
 12 10  1  6  0  0  0
 14  9  1  6  0  0  0
 14  8  1  0  0  0  0
 15 11  1  0  0  0  0
 15 18  1  0  0  0  0
 17 18  1  0  0  0  0
 17 16  2  0  0  0  0
 19 17  1  0  0  0  0
 19 20  1  0  0  0  0
 21 22  1  0  0  0  0
 22 20  1  0  0  0  0
 23 22  1  0  0  0  0
 24 25  1  0  0  0  0
 25 23  1  0  0  0  0
 26 27  1  0  0  0  0
 28 30  1  0  0  0  0
 29 28  1  0  0  0  0
 29 30  1  0  0  0  0
 31 33  1  0  0  0  0
 31 29  1  0  0  0  0
 32 31  1  0  0  0  0
 35 38  1  0  0  0  0
 36 49  1  6  0  0  0
 36 40  1  0  0  0  0
 36 37  1  0  0  0  0
 37 39  1  0  0  0  0
 39 38  1  0  0  0  0
 39 34  1  1  0  0  0
 40 43  1  6  0  0  0
 40 35  1  0  0  0  0
 41 42  2  0  0  0  0
 43 41  1  0  0  0  0
 44 45  2  0  0  0  0
 44 41  1  0  0  0  0
 46 44  1  0  0  0  0
 47 46  2  0  0  0  0
 48 46  1  0  0  0  0
 50 49  1  0  0  0  0
 51 52  1  1  0  0  0
 51 50  1  0  0  0  0
 53 52  1  0  0  0  0
 54 51  1  0  0  0  0
 56 58  1  0  0  0  0
 57 54  1  6  0  0  0
 57 59  1  0  0  0  0
 58 60  1  0  0  0  0
 58 55  1  1  0  0  0
 59 60  1  1  0  0  0
 61 56  1  1  0  0  0
 61 57  1  0  0  0  0
 61 59  1  0  0  0  0
M  END
>  <MODEL>
8

>  <REMARK>
 VINA RESULT:      -5.7      2.791      6.575
  Name = 
  23 active torsions:
  status: ('A' for Active; 'I' for Inactive)
    1  A    between atoms: C_1  and  C_16
    2  A    between atoms: C_1  and  C_33
    3  A    between atoms: C_2  and  C_54
    4  A    between atoms: C_3  and  C_6
    5  A    between atoms: C_3  and  C_40
    6  A    between atoms: C_3  and  C_47
    7  A    between atoms: C_5  and  C_10
    8  A    between atoms: C_5  and  O_19
    9  A    between atoms: C_5  and  C_31
   10  A    between atoms: C_6  and  C_50
   11  A    between atoms: C_7  and  C_42
   12  A    between atoms: C_7  and  N_56
   13  A    between atoms: C_9  and  C_12
   14  A    between atoms: C_10  and  C_21
   15  A    between atoms: C_12  and  C_14
   16  A    between atoms: C_13  and  C_37
   17  A    between atoms: C_17  and  N_27
   18  A    between atoms: C_17  and  C_61
   19  A    between atoms: O_19  and  C_39
   20  A    between atoms: C_21  and  C_22
   21  A    between atoms: C_24  and  C_40
   22  A    between atoms: N_27  and  C_33
   23  A    between atoms: N_51  and  C_55
                            x       y       z     vdW  Elec       q    Type
                         _______ _______ _______ _____ _____    ______ ____

>  <TORSDO>
F 23

$$$$
=
 OpenBabel11062420183D

 61 66  0  0  1  0  0  0  0  0999 V2000
  191.0940  175.3550  144.8190 C   0  0  1  0  0  3  0  0  0  0  0  0
  187.6490  176.3280  143.4780 C   0  0  2  0  0  3  0  0  0  0  0  0
  188.8870  176.7030  144.3230 C   0  0  1  0  0  3  0  0  0  0  0  0
  188.0690  175.0310  142.8700 C   0  0  0  0  0  0  0  0  0  0  0  0
  187.4140  174.3980  141.9980 O   0  0  0  0  0  0  0  0  0  0  0  0
  189.5750  175.3340  144.5670 C   0  0  1  0  0  3  0  0  0  0  0  0
  189.1970  174.5140  143.4710 O   0  0  0  0  0  0  0  0  0  0  0  0
  187.3440  178.7920  143.0090 C   0  0  0  0  0  2  0  0  0  0  0  0
  185.6660  177.2250  142.2250 C   0  0  0  0  0  2  0  0  0  0  0  0
  185.8650  180.0850  144.3690 F   0  0  0  0  0  0  0  0  0  0  0  0
  185.0020  178.2110  143.1580 C   0  0  2  0  0  0  0  0  0  0  0  0
  185.9540  179.3890  143.1750 C   0  0  2  0  0  3  0  0  0  0  0  0
  184.9040  177.6530  144.4250 F   0  0  0  0  0  0  0  0  0  0  0  0
  187.1620  177.3770  142.4570 C   0  0  2  0  0  3  0  0  0  0  0  0
  183.6210  178.6010  142.6570 C   0  0  0  0  0  2  0  0  0  0  0  0
  182.3640  177.4660  139.5830 O   0  0  0  0  0  0  0  0  0  0  0  0
  182.1560  177.8440  140.7660 C   0  0  0  0  0  0  0  0  0  0  0  0
  183.1140  177.5550  141.7770 N   0  0  0  0  0  2  0  0  0  0  0  0
  180.8500  178.4920  141.1070 C   0  0  0  0  0  2  0  0  0  0  0  0
  179.7800  178.0740  140.1070 C   0  0  0  0  0  2  0  0  0  0  0  0
  178.9960  180.1840  139.7600 O   0  0  0  0  0  1  0  0  0  0  0  0
  178.6240  178.9560  140.1990 N   0  0  0  0  0  0  0  0  0  0  0  0
  178.2090  179.0610  141.6020 C   0  0  0  0  0  2  0  0  0  0  0  0
  177.9130  177.7160  143.5510 O   0  0  0  0  0  1  0  0  0  0  0  0
  177.6920  177.7440  142.1750 C   0  0  0  0  0  2  0  0  0  0  0  0
  190.4910  178.4480  144.5410 F   0  0  0  0  0  0  0  0  0  0  0  0
  189.8060  177.6950  143.5990 C   0  0  0  0  0  2  0  0  0  0  0  0
  192.6360  175.2630  146.7900 O   0  0  0  0  0  0  0  0  0  0  0  0
  191.4410  175.7200  146.2730 C   0  0  0  0  0  0  0  0  0  0  0  0
  192.5510  176.5400  146.3690 O   0  0  0  0  0  0  0  0  0  0  0  0
  190.3550  176.0200  147.3020 C   0  0  0  0  0  3  0  0  0  0  0  0
  189.5480  174.9090  147.4660 F   0  0  0  0  0  0  0  0  0  0  0  0
  189.5720  177.0900  146.9010 F   0  0  0  0  0  0  0  0  0  0  0  0
  191.7530  174.0190  144.4770 C   0  0  0  0  0  2  0  0  0  0  0  0
  194.6510  175.2810  142.2930 C   0  0  0  0  0  2  0  0  0  0  0  0
  194.3100  172.7980  141.8770 C   0  0  1  0  0  3  0  0  0  0  0  0
  193.3090  172.7650  143.0340 C   0  0  0  0  0  2  0  0  0  0  0  0
  193.7410  175.1770  143.5090 C   0  0  0  0  0  2  0  0  0  0  0  0
  192.6640  174.1240  143.2640 C   0  0  2  0  0  3  0  0  0  0  0  0
  195.3360  173.9380  142.0320 C   0  0  1  0  0  3  0  0  0  0  0  0
  195.6990  174.1660  139.5020 C   0  0  0  0  0  0  0  0  0  0  0  0
  194.4550  174.2620  139.2940 O   0  0  0  0  0  0  0  0  0  0  0  0
  196.1880  174.0310  140.8460 N   0  0  0  0  0  2  0  0  0  0  0  0
  196.6500  174.1820  138.3680 C   0  0  0  0  0  0  0  0  0  0  0  0
  197.8280  173.5900  138.5090 C   0  0  0  0  0  2  0  0  0  0  0  0
  196.2650  174.7180  137.0420 C   0  0  0  0  0  0  0  0  0  0  0  0
  195.2870  174.0900  136.2830 O   0  0  0  0  0  0  0  0  0  0  0  0
  196.8380  175.7420  136.5780 O   0  0  0  0  0  1  0  0  0  0  0  0
  194.9910  171.4330  141.6990 C   0  0  0  0  0  2  0  0  0  0  0  0
  194.0220  170.2470  141.7260 C   0  0  0  0  0  2  0  0  0  0  0  0
  193.7070  169.7740  140.3110 C   0  0  1  0  0  3  0  0  0  0  0  0
  194.7570  168.8020  139.7490 C   0  0  0  0  0  2  0  0  0  0  0  0
  195.9210  169.5030  139.4270 O   0  0  0  0  0  1  0  0  0  0  0  0
  192.3520  169.3970  140.1490 O   0  0  0  0  0  0  0  0  0  0  0  0
  189.3620  173.6380  138.7850 C   0  0  0  0  0  1  0  0  0  0  0  0
  191.4470  172.4710  138.5290 O   0  0  0  0  0  0  0  0  0  0  0  0
  191.5520  170.5300  139.9200 C   0  0  2  0  0  3  0  0  0  0  0  0
  190.0900  172.4600  138.1640 C   0  0  1  0  0  3  0  0  0  0  0  0
  190.6510  170.2290  138.7290 C   0  0  1  0  0  3  0  0  0  0  0  0
  189.4850  171.1740  138.6670 C   0  0  0  0  0  2  0  0  0  0  0  0
  191.8630  171.1230  138.5540 C   0  0  1  0  0  3  0  0  0  0  0  0
  1 34  1  1  0  0  0
  1 29  1  0  0  0  0
  2  4  1  6  0  0  0
  2  3  1  0  0  0  0
  3 27  1  6  0  0  0
  3  6  1  0  0  0  0
  4  7  1  0  0  0  0
  5  4  2  0  0  0  0
  6  1  1  6  0  0  0
  7  6  1  0  0  0  0
  8 12  1  0  0  0  0
  9 11  1  0  0  0  0
 11 12  1  0  0  0  0
 11 13  1  1  0  0  0
 12 10  1  1  0  0  0
 14  9  1  1  0  0  0
 14  8  1  0  0  0  0
 14  2  1  0  0  0  0
 15 11  1  0  0  0  0
 16 17  2  0  0  0  0
 17 19  1  0  0  0  0
 17 18  1  0  0  0  0
 18 15  1  0  0  0  0
 20 22  1  0  0  0  0
 20 19  1  0  0  0  0
 21 22  1  0  0  0  0
 22 23  1  0  0  0  0
 23 25  1  0  0  0  0
 25 24  1  0  0  0  0
 27 26  1  0  0  0  0
 29 30  1  0  0  0  0
 29 28  1  0  0  0  0
 29 31  1  0  0  0  0
 30 28  1  0  0  0  0
 31 32  1  0  0  0  0
 33 31  1  0  0  0  0
 35 38  1  0  0  0  0
 36 49  1  1  0  0  0
 36 40  1  0  0  0  0
 36 37  1  0  0  0  0
 37 39  1  0  0  0  0
 39 38  1  0  0  0  0
 39 34  1  1  0  0  0
 40 43  1  6  0  0  0
 40 35  1  0  0  0  0
 41 43  1  0  0  0  0
 42 41  2  0  0  0  0
 44 45  2  0  0  0  0
 44 41  1  0  0  0  0
 46 44  1  0  0  0  0
 47 46  2  0  0  0  0
 48 46  1  0  0  0  0
 49 50  1  0  0  0  0
 51 52  1  1  0  0  0
 51 50  1  0  0  0  0
 53 52  1  0  0  0  0
 54 51  1  0  0  0  0
 57 54  1  6  0  0  0
 58 56  1  0  0  0  0
 58 60  1  0  0  0  0
 58 55  1  1  0  0  0
 59 60  1  1  0  0  0
 59 57  1  0  0  0  0
 61 56  1  1  0  0  0
 61 59  1  0  0  0  0
 61 57  1  0  0  0  0
M  END
>  <MODEL>
9

>  <REMARK>
 VINA RESULT:      -5.7      3.319     10.378
  Name = 
  23 active torsions:
  status: ('A' for Active; 'I' for Inactive)
    1  A    between atoms: C_1  and  C_16
    2  A    between atoms: C_1  and  C_33
    3  A    between atoms: C_2  and  C_54
    4  A    between atoms: C_3  and  C_6
    5  A    between atoms: C_3  and  C_40
    6  A    between atoms: C_3  and  C_47
    7  A    between atoms: C_5  and  C_10
    8  A    between atoms: C_5  and  O_19
    9  A    between atoms: C_5  and  C_31
   10  A    between atoms: C_6  and  C_50
   11  A    between atoms: C_7  and  C_42
   12  A    between atoms: C_7  and  N_56
   13  A    between atoms: C_9  and  C_12
   14  A    between atoms: C_10  and  C_21
   15  A    between atoms: C_12  and  C_14
   16  A    between atoms: C_13  and  C_37
   17  A    between atoms: C_17  and  N_27
   18  A    between atoms: C_17  and  C_61
   19  A    between atoms: O_19  and  C_39
   20  A    between atoms: C_21  and  C_22
   21  A    between atoms: C_24  and  C_40
   22  A    between atoms: N_27  and  C_33
   23  A    between atoms: N_51  and  C_55
                            x       y       z     vdW  Elec       q    Type
                         _______ _______ _______ _____ _____    ______ ____

>  <TORSDO>
F 23

$$$$
