=
 OpenBabel11062419363D

 42 45  0  0  1  0  0  0  0  0999 V2000
  191.6640  175.8610  143.7470 N   0  0  0  0  0  2  0  0  0  0  0  0
  190.6490  176.0420  142.9670 C   0  0  0  0  0  0  0  0  0  0  0  0
  189.9430  177.3370  142.9790 C   0  0  0  0  0  0  0  0  0  0  0  0
  190.3470  178.2790  143.7680 N   0  0  0  0  0  2  0  0  0  0  0  0
  187.6180  177.4720  142.1740 C   0  0  0  0  0  0  0  0  0  0  0  0
  186.7230  177.8320  141.0430 C   0  0  0  0  0  1  0  0  0  0  0  0
  188.9060  177.5770  142.0100 N   0  0  0  0  0  0  0  0  0  0  0  0
  186.9850  176.9660  143.4370 C   0  0  0  0  0  2  0  0  0  0  0  0
  186.6390  178.1190  144.3700 C   0  0  0  0  0  2  0  0  0  0  0  0
  187.2130  179.0880  148.7050 O   0  0  0  0  0  0  0  0  0  0  0  0
  187.1060  177.7810  146.7380 N   0  0  0  0  0  0  0  0  0  0  0  0
  186.5920  178.7080  147.6770 C   0  0  0  0  0  0  0  0  0  0  0  0
  185.2950  179.1620  147.3570 N   0  0  0  0  0  0  0  0  0  0  0  0
  184.8990  178.4800  146.1300 C   0  0  0  0  0  3  0  0  0  0  0  0
  186.0980  177.6090  145.6980 C   0  0  1  0  0  3  0  0  0  0  0  0
  188.2560  175.6040  146.6990 C   0  0  0  0  0  3  0  0  0  0  0  0
  190.6400  175.4490  147.0930 C   0  0  0  0  0  3  0  0  0  0  0  0
  189.5410  177.6060  147.1410 C   0  0  0  0  0  3  0  0  0  0  0  0
  190.7020  176.8360  147.2540 C   0  0  0  0  0  3  0  0  0  0  0  0
  189.4170  174.8320  146.8180 C   0  0  0  0  0  0  0  0  0  0  0  0
  189.3540  173.4870  146.6730 F   0  0  0  0  0  0  0  0  0  0  0  0
  188.3070  176.9970  146.8630 C   0  0  0  0  0  0  0  0  0  0  0  0
  190.3060  175.0020  141.9360 C   0  0  0  0  0  2  0  0  0  0  0  0
  189.3310  173.8940  142.3920 C   0  0  2  0  0  0  0  0  0  0  0  0
  188.0780  173.8750  141.5280 C   0  0  0  0  0  1  0  0  0  0  0  0
  188.9270  174.2220  143.6730 F   0  0  0  0  0  0  0  0  0  0  0  0
  191.4720  171.7110  141.3650 C   0  0  0  0  0  2  0  0  0  0  0  0
  189.9340  172.4730  142.4600 C   0  0  2  0  0  3  0  0  0  0  0  0
  191.3860  172.4980  142.5910 N   0  0  0  0  0  0  0  0  0  0  0  0
  189.9720  171.7120  141.1510 C   0  0  0  0  0  2  0  0  0  0  0  0
  191.7230  171.6180  143.7000 C   0  0  0  0  0  2  0  0  0  0  0  0
  192.4560  172.4080  144.7760 C   0  0  0  0  0  2  0  0  0  0  0  0
  194.5720  171.7840  145.7390 O   0  0  0  0  0  1  0  0  0  0  0  0
  193.9770  172.3280  144.5970 C   0  0  2  0  0  3  0  0  0  0  0  0
  196.0130  174.9530  142.5990 C   0  0  0  0  0  2  0  0  0  0  0  0
  194.6050  174.7370  145.2020 C   0  0  0  0  0  2  0  0  0  0  0  0
  196.8720  177.0360  143.3860 O   0  0  0  0  0  1  0  0  0  0  0  0
  194.6040  173.6140  144.2540 N   0  0  0  0  0  0  0  0  0  0  0  0
  195.0560  173.8400  142.9040 C   0  0  0  0  0  0  0  0  0  0  0  0
  194.7130  173.0590  141.9760 O   0  0  0  0  0  0  0  0  0  0  0  0
  195.8230  175.6280  144.9980 C   0  0  0  0  0  2  0  0  0  0  0  0
  195.8300  176.1230  143.5600 C   0  0  2  0  0  3  0  0  0  0  0  0
  2  3  1  0  0  0  0
  2  1  2  0  0  0  0
  3  4  2  0  0  0  0
  5  8  1  0  0  0  0
  6  5  1  0  0  0  0
  7  5  2  0  0  0  0
  7  3  1  0  0  0  0
  8  9  1  0  0  0  0
 11 22  1  0  0  0  0
 11 12  1  0  0  0  0
 12 10  2  0  0  0  0
 13 12  1  0  0  0  0
 14 13  2  0  0  0  0
 15  9  1  6  0  0  0
 15 14  1  0  0  0  0
 15 11  1  0  0  0  0
 16 20  2  0  0  0  0
 16 22  1  0  0  0  0
 17 19  2  0  0  0  0
 18 19  1  0  0  0  0
 20 17  1  0  0  0  0
 21 20  1  0  0  0  0
 22 18  2  0  0  0  0
 23 24  1  0  0  0  0
 23  2  1  0  0  0  0
 24 25  1  6  0  0  0
 24 26  1  0  0  0  0
 27 29  1  0  0  0  0
 28 24  1  6  0  0  0
 28 29  1  0  0  0  0
 29 31  1  0  0  0  0
 30 27  1  0  0  0  0
 30 28  1  0  0  0  0
 31 32  1  0  0  0  0
 34 32  1  0  0  0  0
 34 33  1  1  0  0  0
 35 39  1  0  0  0  0
 35 42  1  0  0  0  0
 38 34  1  0  0  0  0
 38 36  1  0  0  0  0
 39 38  1  0  0  0  0
 40 39  2  0  0  0  0
 41 36  1  0  0  0  0
 42 37  1  1  0  0  0
 42 41  1  0  0  0  0
M  END
>  <MODEL>
1

>  <REMARK>
 VINA RESULT:      -6.9      0.000      0.000
  Name = 
  13 active torsions:
  status: ('A' for Active; 'I' for Inactive)
    1  A    between atoms: C_4  and  C_25
    2  A    between atoms: C_5  and  C_12
    3  A    between atoms: C_5  and  C_30
    4  A    between atoms: C_6  and  C_32
    5  A    between atoms: C_6  and  C_41
    6  A    between atoms: C_13  and  C_25
    7  A    between atoms: C_13  and  C_42
    8  A    between atoms: N_15  and  C_38
    9  A    between atoms: N_19  and  C_41
   10  A    between atoms: N_21  and  C_22
   11  A    between atoms: C_22  and  C_23
   12  A    between atoms: C_23  and  C_30
   13  A    between atoms: N_27  and  C_32
                            x       y       z     vdW  Elec       q    Type
                         _______ _______ _______ _____ _____    ______ ____

>  <TORSDO>
F 13

$$$$
=
 OpenBabel11062419363D

 42 45  0  0  1  0  0  0  0  0999 V2000
  184.2590  178.2370  141.7640 N   0  0  0  0  0  2  0  0  0  0  0  0
  185.3680  177.8500  142.3040 C   0  0  0  0  0  0  0  0  0  0  0  0
  186.6190  177.9140  141.5260 C   0  0  0  0  0  0  0  0  0  0  0  0
  187.7150  178.2830  142.1060 N   0  0  0  0  0  2  0  0  0  0  0  0
  187.1830  176.3420  139.7140 C   0  0  0  0  0  0  0  0  0  0  0  0
  187.0090  176.0020  138.2780 C   0  0  0  0  0  1  0  0  0  0  0  0
  186.6260  177.4270  140.1720 N   0  0  0  0  0  0  0  0  0  0  0  0
  188.0260  175.4290  140.5560 C   0  0  0  0  0  2  0  0  0  0  0  0
  188.1180  174.0440  139.9300 C   0  0  0  0  0  2  0  0  0  0  0  0
  190.6000  170.3210  139.7310 O   0  0  0  0  0  0  0  0  0  0  0  0
  189.9730  172.5180  140.3400 N   0  0  0  0  0  0  0  0  0  0  0  0
  190.2250  171.4800  139.4100 C   0  0  0  0  0  0  0  0  0  0  0  0
  190.0290  171.8750  138.0700 N   0  0  0  0  0  0  0  0  0  0  0  0
  189.6360  173.2800  138.0960 C   0  0  0  0  0  3  0  0  0  0  0  0
  189.5580  173.6920  139.5810 C   0  0  1  0  0  3  0  0  0  0  0  0
  191.5130  172.9080  142.2220 C   0  0  0  0  0  3  0  0  0  0  0  0
  190.8190  172.4910  144.5040 C   0  0  0  0  0  3  0  0  0  0  0  0
  189.2800  172.0950  142.6770 C   0  0  0  0  0  3  0  0  0  0  0  0
  189.5610  172.0910  144.0470 C   0  0  0  0  0  3  0  0  0  0  0  0
  191.7960  172.8980  143.5920 C   0  0  0  0  0  0  0  0  0  0  0  0
  193.0190  173.2760  144.0330 F   0  0  0  0  0  0  0  0  0  0  0  0
  190.2540  172.5030  141.7520 C   0  0  0  0  0  0  0  0  0  0  0  0
  185.4030  177.5030  143.7680 C   0  0  0  0  0  2  0  0  0  0  0  0
  185.2890  178.6930  144.7470 C   0  0  2  0  0  0  0  0  0  0  0  0
  183.8330  179.0120  145.0550 C   0  0  0  0  0  1  0  0  0  0  0  0
  185.8100  179.7950  144.0950 F   0  0  0  0  0  0  0  0  0  0  0  0
  185.8470  177.1070  147.5000 C   0  0  0  0  0  2  0  0  0  0  0  0
  186.0740  178.5370  146.0680 C   0  0  2  0  0  3  0  0  0  0  0  0
  186.5890  177.1840  146.2450 N   0  0  0  0  0  0  0  0  0  0  0  0
  185.2370  178.4830  147.3290 C   0  0  0  0  0  2  0  0  0  0  0  0
  188.0000  177.3110  146.5780 C   0  0  0  0  0  2  0  0  0  0  0  0
  188.7450  176.0600  146.1340 C   0  0  0  0  0  2  0  0  0  0  0  0
  189.4800  175.5610  143.8960 O   0  0  0  0  0  1  0  0  0  0  0  0
  189.7410  176.3660  145.0090 C   0  0  2  0  0  3  0  0  0  0  0  0
  193.6090  176.4690  144.7600 C   0  0  0  0  0  2  0  0  0  0  0  0
  191.5230  175.6620  146.7100 C   0  0  0  0  0  2  0  0  0  0  0  0
  195.1900  175.4520  146.2280 O   0  0  0  0  0  1  0  0  0  0  0  0
  191.1510  176.2420  145.4120 N   0  0  0  0  0  0  0  0  0  0  0  0
  192.1710  176.8680  144.6090 C   0  0  0  0  0  0  0  0  0  0  0  0
  191.8600  177.7040  143.7180 O   0  0  0  0  0  0  0  0  0  0  0  0
  192.8890  174.9900  146.6420 C   0  0  0  0  0  2  0  0  0  0  0  0
  193.9140  176.0160  146.1830 C   0  0  2  0  0  3  0  0  0  0  0  0
  1  2  2  0  0  0  0
  2 23  1  0  0  0  0
  3  4  2  0  0  0  0
  3  2  1  0  0  0  0
  5  7  2  0  0  0  0
  5  8  1  0  0  0  0
  6  5  1  0  0  0  0
  7  3  1  0  0  0  0
  9  8  1  0  0  0  0
 11 22  1  0  0  0  0
 12 10  2  0  0  0  0
 12 11  1  0  0  0  0
 13 14  2  0  0  0  0
 13 12  1  0  0  0  0
 14 15  1  0  0  0  0
 15  9  1  1  0  0  0
 15 11  1  0  0  0  0
 16 20  1  0  0  0  0
 18 19  2  0  0  0  0
 19 17  1  0  0  0  0
 20 21  1  0  0  0  0
 20 17  2  0  0  0  0
 22 16  2  0  0  0  0
 22 18  1  0  0  0  0
 23 24  1  0  0  0  0
 24 25  1  1  0  0  0
 26 24  1  0  0  0  0
 28 24  1  6  0  0  0
 28 29  1  0  0  0  0
 28 30  1  0  0  0  0
 29 31  1  0  0  0  0
 29 27  1  0  0  0  0
 30 27  1  0  0  0  0
 32 31  1  0  0  0  0
 34 33  1  6  0  0  0
 34 38  1  0  0  0  0
 34 32  1  0  0  0  0
 35 42  1  0  0  0  0
 38 36  1  0  0  0  0
 39 35  1  0  0  0  0
 39 38  1  0  0  0  0
 40 39  2  0  0  0  0
 41 36  1  0  0  0  0
 42 37  1  6  0  0  0
 42 41  1  0  0  0  0
M  END
>  <MODEL>
2

>  <REMARK>
 VINA RESULT:      -6.6      2.781      6.805
  Name = 
  13 active torsions:
  status: ('A' for Active; 'I' for Inactive)
    1  A    between atoms: C_4  and  C_25
    2  A    between atoms: C_5  and  C_12
    3  A    between atoms: C_5  and  C_30
    4  A    between atoms: C_6  and  C_32
    5  A    between atoms: C_6  and  C_41
    6  A    between atoms: C_13  and  C_25
    7  A    between atoms: C_13  and  C_42
    8  A    between atoms: N_15  and  C_38
    9  A    between atoms: N_19  and  C_41
   10  A    between atoms: N_21  and  C_22
   11  A    between atoms: C_22  and  C_23
   12  A    between atoms: C_23  and  C_30
   13  A    between atoms: N_27  and  C_32
                            x       y       z     vdW  Elec       q    Type
                         _______ _______ _______ _____ _____    ______ ____

>  <TORSDO>
F 13

$$$$
=
 OpenBabel11062419363D

 42 45  0  0  1  0  0  0  0  0999 V2000
  190.9260  173.6760  145.1860 N   0  0  0  0  0  2  0  0  0  0  0  0
  191.5350  174.6710  145.7430 C   0  0  0  0  0  0  0  0  0  0  0  0
  190.7780  175.8880  146.0880 C   0  0  0  0  0  0  0  0  0  0  0  0
  190.0080  175.8880  147.1280 N   0  0  0  0  0  2  0  0  0  0  0  0
  190.5080  177.4460  144.1990 C   0  0  0  0  0  0  0  0  0  0  0  0
  190.8530  178.7790  143.6410 C   0  0  0  0  0  1  0  0  0  0  0  0
  191.0180  177.0970  145.3450 N   0  0  0  0  0  0  0  0  0  0  0  0
  189.6130  176.5550  143.3870 C   0  0  0  0  0  2  0  0  0  0  0  0
  188.8650  177.3540  142.3290 C   0  0  0  0  0  2  0  0  0  0  0  0
  184.8950  178.6360  140.7000 O   0  0  0  0  0  0  0  0  0  0  0  0
  186.4480  177.6080  142.1570 N   0  0  0  0  0  0  0  0  0  0  0  0
  185.8740  177.8660  140.8880 C   0  0  0  0  0  0  0  0  0  0  0  0
  186.5020  177.1590  139.8410 N   0  0  0  0  0  0  0  0  0  0  0  0
  187.5580  176.3540  140.4460 C   0  0  0  0  0  3  0  0  0  0  0  0
  187.5530  176.6780  141.9550 C   0  0  1  0  0  3  0  0  0  0  0  0
  185.6030  177.0530  144.4030 C   0  0  0  0  0  3  0  0  0  0  0  0
  184.9440  178.7960  145.9500 C   0  0  0  0  0  3  0  0  0  0  0  0
  185.7670  179.3770  143.7480 C   0  0  0  0  0  3  0  0  0  0  0  0
  185.2750  179.7640  144.9980 C   0  0  0  0  0  3  0  0  0  0  0  0
  185.1060  177.4400  145.6510 C   0  0  0  0  0  0  0  0  0  0  0  0
  184.7740  176.5010  146.5690 F   0  0  0  0  0  0  0  0  0  0  0  0
  185.9350  178.0180  143.4380 C   0  0  0  0  0  0  0  0  0  0  0  0
  192.9630  174.5160  146.1890 C   0  0  0  0  0  2  0  0  0  0  0  0
  194.0240  175.2350  145.3260 C   0  0  2  0  0  0  0  0  0  0  0  0
  194.5520  176.4770  146.0290 C   0  0  0  0  0  1  0  0  0  0  0  0
  193.3790  175.6670  144.1820 F   0  0  0  0  0  0  0  0  0  0  0  0
  195.7940  172.5540  145.6190 C   0  0  0  0  0  2  0  0  0  0  0  0
  195.2090  174.3550  144.8700 C   0  0  2  0  0  3  0  0  0  0  0  0
  194.8080  172.9740  144.6280 N   0  0  0  0  0  0  0  0  0  0  0  0
  196.2000  173.9750  145.9510 C   0  0  0  0  0  2  0  0  0  0  0  0
  195.3230  172.6110  143.3160 C   0  0  0  0  0  2  0  0  0  0  0  0
  194.4560  173.2390  142.2340 C   0  0  0  0  0  2  0  0  0  0  0  0
  193.8520  172.0570  140.2260 O   0  0  0  0  0  1  0  0  0  0  0  0
  193.5340  172.2040  141.5790 C   0  0  2  0  0  3  0  0  0  0  0  0
  189.7690  171.6210  142.3000 C   0  0  0  0  0  2  0  0  0  0  0  0
  191.5480  173.8110  141.3830 C   0  0  0  0  0  2  0  0  0  0  0  0
  187.9410  173.0470  141.7370 O   0  0  0  0  0  1  0  0  0  0  0  0
  192.1000  172.4970  141.7400 N   0  0  0  0  0  0  0  0  0  0  0  0
  191.2620  171.5520  142.4330 C   0  0  0  0  0  0  0  0  0  0  0  0
  191.7720  170.6100  143.0970 O   0  0  0  0  0  0  0  0  0  0  0  0
  190.0930  173.6970  140.9460 C   0  0  0  0  0  2  0  0  0  0  0  0
  189.2960  173.0520  142.0700 C   0  0  2  0  0  3  0  0  0  0  0  0
  1  2  2  0  0  0  0
  2  3  1  0  0  0  0
  2 23  1  0  0  0  0
  3  4  2  0  0  0  0
  5  7  2  0  0  0  0
  6  5  1  0  0  0  0
  7  3  1  0  0  0  0
  8  5  1  0  0  0  0
  9  8  1  0  0  0  0
 10 12  2  0  0  0  0
 11 22  1  0  0  0  0
 12 11  1  0  0  0  0
 13 14  2  0  0  0  0
 13 12  1  0  0  0  0
 14 15  1  0  0  0  0
 15 11  1  0  0  0  0
 15  9  1  6  0  0  0
 16 20  1  0  0  0  0
 18 19  2  0  0  0  0
 19 17  1  0  0  0  0
 20 17  2  0  0  0  0
 20 21  1  0  0  0  0
 22 18  1  0  0  0  0
 22 16  2  0  0  0  0
 24 25  1  1  0  0  0
 24 23  1  0  0  0  0
 26 24  1  0  0  0  0
 27 30  1  0  0  0  0
 28 24  1  1  0  0  0
 28 30  1  0  0  0  0
 29 28  1  0  0  0  0
 29 27  1  0  0  0  0
 31 29  1  0  0  0  0
 32 31  1  0  0  0  0
 34 33  1  6  0  0  0
 34 38  1  0  0  0  0
 34 32  1  0  0  0  0
 35 39  1  0  0  0  0
 36 38  1  0  0  0  0
 38 39  1  0  0  0  0
 39 40  2  0  0  0  0
 41 36  1  0  0  0  0
 41 42  1  0  0  0  0
 42 37  1  6  0  0  0
 42 35  1  0  0  0  0
M  END
>  <MODEL>
3

>  <REMARK>
 VINA RESULT:      -6.5      2.765      5.537
  Name = 
  13 active torsions:
  status: ('A' for Active; 'I' for Inactive)
    1  A    between atoms: C_4  and  C_25
    2  A    between atoms: C_5  and  C_12
    3  A    between atoms: C_5  and  C_30
    4  A    between atoms: C_6  and  C_32
    5  A    between atoms: C_6  and  C_41
    6  A    between atoms: C_13  and  C_25
    7  A    between atoms: C_13  and  C_42
    8  A    between atoms: N_15  and  C_38
    9  A    between atoms: N_19  and  C_41
   10  A    between atoms: N_21  and  C_22
   11  A    between atoms: C_22  and  C_23
   12  A    between atoms: C_23  and  C_30
   13  A    between atoms: N_27  and  C_32
                            x       y       z     vdW  Elec       q    Type
                         _______ _______ _______ _____ _____    ______ ____

>  <TORSDO>
F 13

$$$$
=
 OpenBabel11062419363D

 42 45  0  0  1  0  0  0  0  0999 V2000
  188.1490  172.9570  141.0470 N   0  0  0  0  0  2  0  0  0  0  0  0
  189.1710  172.7910  141.8210 C   0  0  0  0  0  0  0  0  0  0  0  0
  190.1600  171.7430  141.5080 C   0  0  0  0  0  0  0  0  0  0  0  0
  190.4830  171.5170  140.2760 N   0  0  0  0  0  2  0  0  0  0  0  0
  192.1250  171.1330  142.8640 C   0  0  0  0  0  0  0  0  0  0  0  0
  192.6160  170.4240  144.0740 C   0  0  0  0  0  1  0  0  0  0  0  0
  190.8520  171.0900  142.5870 N   0  0  0  0  0  0  0  0  0  0  0  0
  193.1340  171.8340  142.0020 C   0  0  0  0  0  2  0  0  0  0  0  0
  193.2820  173.2920  142.4150 C   0  0  0  0  0  2  0  0  0  0  0  0
  195.8360  172.0850  145.8900 O   0  0  0  0  0  0  0  0  0  0  0  0
  194.7340  173.5100  144.3600 N   0  0  0  0  0  0  0  0  0  0  0  0
  195.5830  172.4310  144.7060 C   0  0  0  0  0  0  0  0  0  0  0  0
  196.1390  171.7790  143.5850 N   0  0  0  0  0  0  0  0  0  0  0  0
  195.6470  172.4780  142.4020 C   0  0  0  0  0  3  0  0  0  0  0  0
  194.6940  173.5840  142.9030 C   0  0  1  0  0  3  0  0  0  0  0  0
  194.7960  175.7240  145.4360 C   0  0  0  0  0  3  0  0  0  0  0  0
  193.0610  176.4050  146.9830 C   0  0  0  0  0  3  0  0  0  0  0  0
  192.9710  174.2190  145.9440 C   0  0  0  0  0  3  0  0  0  0  0  0
  192.4220  175.1750  146.8040 C   0  0  0  0  0  3  0  0  0  0  0  0
  194.2500  176.6790  146.3000 C   0  0  0  0  0  0  0  0  0  0  0  0
  194.8760  177.8650  146.4820 F   0  0  0  0  0  0  0  0  0  0  0  0
  194.1640  174.4840  145.2530 C   0  0  0  0  0  0  0  0  0  0  0  0
  189.4340  173.7740  142.9290 C   0  0  0  0  0  2  0  0  0  0  0  0
  189.9170  175.1750  142.4900 C   0  0  2  0  0  0  0  0  0  0  0  0
  188.7750  175.9870  141.8970 C   0  0  0  0  0  1  0  0  0  0  0  0
  190.8360  174.9780  141.4760 F   0  0  0  0  0  0  0  0  0  0  0  0
  191.2410  177.9390  143.4930 C   0  0  0  0  0  2  0  0  0  0  0  0
  190.6250  176.0010  143.5860 C   0  0  2  0  0  3  0  0  0  0  0  0
  189.9750  177.2870  143.8110 N   0  0  0  0  0  0  0  0  0  0  0  0
  191.9430  176.6320  143.1860 C   0  0  0  0  0  2  0  0  0  0  0  0
  189.7680  177.4080  145.2470 C   0  0  0  0  0  2  0  0  0  0  0  0
  188.6380  176.4850  145.6820 C   0  0  0  0  0  2  0  0  0  0  0  0
  187.0080  176.4480  147.4510 O   0  0  0  0  0  1  0  0  0  0  0  0
  187.5460  177.2480  146.4390 C   0  0  2  0  0  3  0  0  0  0  0  0
  184.2440  178.9980  145.4080 C   0  0  0  0  0  2  0  0  0  0  0  0
  186.4580  177.4900  144.1330 C   0  0  0  0  0  2  0  0  0  0  0  0
  183.1140  178.8570  143.3110 O   0  0  0  0  0  1  0  0  0  0  0  0
  186.4760  177.7710  145.5750 N   0  0  0  0  0  0  0  0  0  0  0  0
  185.5400  178.7270  146.1110 C   0  0  0  0  0  0  0  0  0  0  0  0
  185.7640  179.2890  147.2170 O   0  0  0  0  0  0  0  0  0  0  0  0
  185.0330  177.4720  143.5930 C   0  0  0  0  0  2  0  0  0  0  0  0
  184.3790  178.8100  143.9010 C   0  0  2  0  0  3  0  0  0  0  0  0
  1  2  2  0  0  0  0
  2 23  1  0  0  0  0
  3  2  1  0  0  0  0
  3  7  1  0  0  0  0
  4  3  2  0  0  0  0
  5  6  1  0  0  0  0
  7  5  2  0  0  0  0
  8  9  1  0  0  0  0
  8  5  1  0  0  0  0
 11 12  1  0  0  0  0
 11 22  1  0  0  0  0
 12 10  2  0  0  0  0
 13 12  1  0  0  0  0
 14 15  1  0  0  0  0
 14 13  2  0  0  0  0
 15  9  1  6  0  0  0
 15 11  1  0  0  0  0
 16 20  1  0  0  0  0
 18 19  2  0  0  0  0
 19 17  1  0  0  0  0
 20 21  1  0  0  0  0
 20 17  2  0  0  0  0
 22 16  2  0  0  0  0
 22 18  1  0  0  0  0
 24 25  1  6  0  0  0
 24 23  1  0  0  0  0
 26 24  1  0  0  0  0
 27 29  1  0  0  0  0
 28 24  1  6  0  0  0
 28 29  1  0  0  0  0
 29 31  1  0  0  0  0
 30 27  1  0  0  0  0
 30 28  1  0  0  0  0
 31 32  1  0  0  0  0
 32 34  1  0  0  0  0
 34 33  1  1  0  0  0
 35 39  1  0  0  0  0
 36 38  1  0  0  0  0
 38 39  1  0  0  0  0
 38 34  1  0  0  0  0
 39 40  2  0  0  0  0
 41 42  1  0  0  0  0
 41 36  1  0  0  0  0
 42 37  1  6  0  0  0
 42 35  1  0  0  0  0
M  END
>  <MODEL>
4

>  <REMARK>
 VINA RESULT:      -6.5      2.253      8.275
  Name = 
  13 active torsions:
  status: ('A' for Active; 'I' for Inactive)
    1  A    between atoms: C_4  and  C_25
    2  A    between atoms: C_5  and  C_12
    3  A    between atoms: C_5  and  C_30
    4  A    between atoms: C_6  and  C_32
    5  A    between atoms: C_6  and  C_41
    6  A    between atoms: C_13  and  C_25
    7  A    between atoms: C_13  and  C_42
    8  A    between atoms: N_15  and  C_38
    9  A    between atoms: N_19  and  C_41
   10  A    between atoms: N_21  and  C_22
   11  A    between atoms: C_22  and  C_23
   12  A    between atoms: C_23  and  C_30
   13  A    between atoms: N_27  and  C_32
                            x       y       z     vdW  Elec       q    Type
                         _______ _______ _______ _____ _____    ______ ____

>  <TORSDO>
F 13

$$$$
=
 OpenBabel11062419363D

 42 45  0  0  1  0  0  0  0  0999 V2000
  194.5470  177.3750  146.1590 N   0  0  0  0  0  2  0  0  0  0  0  0
  194.4340  176.1210  145.8660 C   0  0  0  0  0  0  0  0  0  0  0  0
  193.1820  175.4090  146.1820 C   0  0  0  0  0  0  0  0  0  0  0  0
  193.1110  174.1300  146.0020 N   0  0  0  0  0  2  0  0  0  0  0  0
  191.1290  176.7700  146.2500 C   0  0  0  0  0  0  0  0  0  0  0  0
  190.0910  177.3930  147.1110 C   0  0  0  0  0  1  0  0  0  0  0  0
  192.1100  176.1280  146.8180 N   0  0  0  0  0  0  0  0  0  0  0  0
  191.0100  176.9490  144.7650 C   0  0  0  0  0  2  0  0  0  0  0  0
  189.6530  177.5300  144.3940 C   0  0  0  0  0  2  0  0  0  0  0  0
  186.6330  177.0810  141.1170 O   0  0  0  0  0  0  0  0  0  0  0  0
  187.5240  177.0570  143.3070 N   0  0  0  0  0  0  0  0  0  0  0  0
  187.5170  176.7100  141.9340 C   0  0  0  0  0  0  0  0  0  0  0  0
  188.6020  175.8880  141.5630 N   0  0  0  0  0  0  0  0  0  0  0  0
  189.3820  175.6460  142.7710 C   0  0  0  0  0  3  0  0  0  0  0  0
  188.7040  176.4430  143.9060 C   0  0  1  0  0  3  0  0  0  0  0  0
  185.8150  177.0510  145.0800 C   0  0  0  0  0  3  0  0  0  0  0  0
  184.4360  178.9990  145.4850 C   0  0  0  0  0  3  0  0  0  0  0  0
  186.1050  179.0380  143.7310 C   0  0  0  0  0  3  0  0  0  0  0  0
  185.0910  179.6760  144.4520 C   0  0  0  0  0  3  0  0  0  0  0  0
  184.7960  177.6860  145.7980 C   0  0  0  0  0  0  0  0  0  0  0  0
  184.1540  177.0260  146.7900 F   0  0  0  0  0  0  0  0  0  0  0  0
  186.4760  177.7190  144.0380 C   0  0  0  0  0  0  0  0  0  0  0  0
  195.5050  175.4450  145.0540 C   0  0  0  0  0  2  0  0  0  0  0  0
  195.4940  175.7440  143.5380 C   0  0  2  0  0  0  0  0  0  0  0  0
  196.5800  176.7460  143.1690 C   0  0  0  0  0  1  0  0  0  0  0  0
  194.2820  176.3480  143.2610 F   0  0  0  0  0  0  0  0  0  0  0  0
  196.6960  172.8150  142.9210 C   0  0  0  0  0  2  0  0  0  0  0  0
  195.6010  174.5050  142.6220 C   0  0  2  0  0  3  0  0  0  0  0  0
  195.3740  173.2620  143.3490 N   0  0  0  0  0  0  0  0  0  0  0  0
  197.0040  174.1140  142.2050 C   0  0  0  0  0  2  0  0  0  0  0  0
  194.3890  172.5050  142.5910 C   0  0  0  0  0  2  0  0  0  0  0  0
  193.0500  173.2290  142.6230 C   0  0  0  0  0  2  0  0  0  0  0  0
  192.3660  170.9900  142.0680 O   0  0  0  0  0  1  0  0  0  0  0  0
  191.8910  172.2880  142.2760 C   0  0  2  0  0  3  0  0  0  0  0  0
  188.8850  172.5790  139.8450 C   0  0  0  0  0  2  0  0  0  0  0  0
  191.6680  173.5820  140.0760 C   0  0  0  0  0  2  0  0  0  0  0  0
  188.8790  173.4910  137.6400 O   0  0  0  0  0  1  0  0  0  0  0  0
  191.0890  172.7310  141.1250 N   0  0  0  0  0  0  0  0  0  0  0  0
  189.6680  172.4880  141.1210 C   0  0  0  0  0  0  0  0  0  0  0  0
  189.0790  172.1220  142.1730 O   0  0  0  0  0  0  0  0  0  0  0  0
  190.9910  173.3380  138.7330 C   0  0  0  0  0  2  0  0  0  0  0  0
  189.4990  173.5940  138.8860 C   0  0  2  0  0  3  0  0  0  0  0  0
  2  1  2  0  0  0  0
  2  3  1  0  0  0  0
  3  7  1  0  0  0  0
  4  3  2  0  0  0  0
  5  7  2  0  0  0  0
  5  6  1  0  0  0  0
  8  5  1  0  0  0  0
  9  8  1  0  0  0  0
 10 12  2  0  0  0  0
 11 15  1  0  0  0  0
 11 22  1  0  0  0  0
 12 11  1  0  0  0  0
 13 12  1  0  0  0  0
 13 14  2  0  0  0  0
 14 15  1  0  0  0  0
 15  9  1  6  0  0  0
 16 20  1  0  0  0  0
 17 20  2  0  0  0  0
 18 22  1  0  0  0  0
 18 19  2  0  0  0  0
 19 17  1  0  0  0  0
 20 21  1  0  0  0  0
 22 16  2  0  0  0  0
 23  2  1  0  0  0  0
 24 25  1  6  0  0  0
 24 23  1  0  0  0  0
 26 24  1  0  0  0  0
 27 29  1  0  0  0  0
 28 29  1  0  0  0  0
 28 24  1  1  0  0  0
 30 28  1  0  0  0  0
 30 27  1  0  0  0  0
 31 32  1  0  0  0  0
 31 29  1  0  0  0  0
 34 33  1  6  0  0  0
 34 32  1  0  0  0  0
 35 39  1  0  0  0  0
 36 38  1  0  0  0  0
 38 34  1  0  0  0  0
 39 38  1  0  0  0  0
 39 40  2  0  0  0  0
 41 42  1  0  0  0  0
 41 36  1  0  0  0  0
 42 37  1  6  0  0  0
 42 35  1  0  0  0  0
M  END
>  <MODEL>
5

>  <REMARK>
 VINA RESULT:      -6.5      2.907      5.951
  Name = 
  13 active torsions:
  status: ('A' for Active; 'I' for Inactive)
    1  A    between atoms: C_4  and  C_25
    2  A    between atoms: C_5  and  C_12
    3  A    between atoms: C_5  and  C_30
    4  A    between atoms: C_6  and  C_32
    5  A    between atoms: C_6  and  C_41
    6  A    between atoms: C_13  and  C_25
    7  A    between atoms: C_13  and  C_42
    8  A    between atoms: N_15  and  C_38
    9  A    between atoms: N_19  and  C_41
   10  A    between atoms: N_21  and  C_22
   11  A    between atoms: C_22  and  C_23
   12  A    between atoms: C_23  and  C_30
   13  A    between atoms: N_27  and  C_32
                            x       y       z     vdW  Elec       q    Type
                         _______ _______ _______ _____ _____    ______ ____

>  <TORSDO>
F 13

$$$$
=
 OpenBabel11062419363D

 42 45  0  0  1  0  0  0  0  0999 V2000
  185.0050  177.9370  141.1170 N   0  0  0  0  0  2  0  0  0  0  0  0
  185.9710  177.4540  141.8270 C   0  0  0  0  0  0  0  0  0  0  0  0
  187.3120  177.3110  141.2320 C   0  0  0  0  0  0  0  0  0  0  0  0
  188.2680  178.0980  141.6090 N   0  0  0  0  0  2  0  0  0  0  0  0
  188.0500  175.0330  140.6490 C   0  0  0  0  0  0  0  0  0  0  0  0
  188.1770  174.0160  139.5730 C   0  0  0  0  0  1  0  0  0  0  0  0
  187.5700  176.2060  140.3460 N   0  0  0  0  0  0  0  0  0  0  0  0
  188.5200  174.6640  142.0250 C   0  0  0  0  0  2  0  0  0  0  0  0
  190.0360  174.7540  142.1240 C   0  0  0  0  0  2  0  0  0  0  0  0
  192.7490  172.4120  144.8110 O   0  0  0  0  0  0  0  0  0  0  0  0
  191.9480  173.4140  142.8260 N   0  0  0  0  0  0  0  0  0  0  0  0
  191.8260  172.5950  143.9740 C   0  0  0  0  0  0  0  0  0  0  0  0
  190.5610  171.9800  144.0860 N   0  0  0  0  0  0  0  0  0  0  0  0
  189.7820  172.3980  142.9250 C   0  0  0  0  0  3  0  0  0  0  0  0
  190.6710  173.3700  142.1200 C   0  0  1  0  0  3  0  0  0  0  0  0
  193.2310  174.4090  140.9750 C   0  0  0  0  0  3  0  0  0  0  0  0
  195.4800  175.2360  141.3230 C   0  0  0  0  0  3  0  0  0  0  0  0
  194.2470  174.2610  143.1660 C   0  0  0  0  0  3  0  0  0  0  0  0
  195.4060  174.8640  142.6690 C   0  0  0  0  0  3  0  0  0  0  0  0
  194.3930  175.0070  140.4760 C   0  0  0  0  0  0  0  0  0  0  0  0
  194.4680  175.3570  139.1700 F   0  0  0  0  0  0  0  0  0  0  0  0
  193.1490  174.0280  142.3230 C   0  0  0  0  0  0  0  0  0  0  0  0
  185.7650  177.2070  143.2970 C   0  0  0  0  0  2  0  0  0  0  0  0
  185.5040  178.4600  144.1630 C   0  0  2  0  0  0  0  0  0  0  0  0
  184.0310  178.8430  144.1420 C   0  0  0  0  0  1  0  0  0  0  0  0
  186.1960  179.5010  143.5740 F   0  0  0  0  0  0  0  0  0  0  0  0
  185.6930  176.8460  146.9490 C   0  0  0  0  0  2  0  0  0  0  0  0
  185.9920  178.3630  145.6250 C   0  0  2  0  0  3  0  0  0  0  0  0
  186.6710  177.1020  145.8960 N   0  0  0  0  0  0  0  0  0  0  0  0
  184.9170  178.1150  146.6630 C   0  0  0  0  0  2  0  0  0  0  0  0
  187.9330  177.4330  146.5410 C   0  0  0  0  0  2  0  0  0  0  0  0
  188.5790  176.1650  147.0830 C   0  0  0  0  0  2  0  0  0  0  0  0
  189.3480  174.0710  146.1790 O   0  0  0  0  0  1  0  0  0  0  0  0
  189.4170  175.4570  146.0120 C   0  0  2  0  0  3  0  0  0  0  0  0
  192.6860  177.0210  144.6350 C   0  0  0  0  0  2  0  0  0  0  0  0
  191.7600  175.5600  147.0450 C   0  0  0  0  0  2  0  0  0  0  0  0
  194.9010  176.7480  145.4810 O   0  0  0  0  0  1  0  0  0  0  0  0
  190.8200  175.8980  145.9670 N   0  0  0  0  0  0  0  0  0  0  0  0
  191.2320  176.8330  144.9510 C   0  0  0  0  0  0  0  0  0  0  0  0
  190.3740  177.4490  144.2620 O   0  0  0  0  0  0  0  0  0  0  0  0
  193.1860  175.4590  146.5210 C   0  0  0  0  0  2  0  0  0  0  0  0
  193.5580  176.7790  145.8620 C   0  0  2  0  0  3  0  0  0  0  0  0
  1  2  2  0  0  0  0
  2 23  1  0  0  0  0
  3  4  2  0  0  0  0
  3  2  1  0  0  0  0
  5  8  1  0  0  0  0
  6  5  1  0  0  0  0
  7  5  2  0  0  0  0
  7  3  1  0  0  0  0
  8  9  1  0  0  0  0
 11 12  1  0  0  0  0
 12 13  1  0  0  0  0
 12 10  2  0  0  0  0
 14 13  2  0  0  0  0
 15  9  1  1  0  0  0
 15 11  1  0  0  0  0
 15 14  1  0  0  0  0
 16 22  1  0  0  0  0
 17 19  2  0  0  0  0
 19 18  1  0  0  0  0
 20 16  2  0  0  0  0
 20 17  1  0  0  0  0
 21 20  1  0  0  0  0
 22 11  1  0  0  0  0
 22 18  2  0  0  0  0
 23 24  1  0  0  0  0
 24 25  1  6  0  0  0
 26 24  1  0  0  0  0
 28 24  1  6  0  0  0
 28 29  1  0  0  0  0
 28 30  1  0  0  0  0
 29 31  1  0  0  0  0
 29 27  1  0  0  0  0
 30 27  1  0  0  0  0
 31 32  1  0  0  0  0
 34 33  1  1  0  0  0
 34 32  1  0  0  0  0
 35 39  1  0  0  0  0
 35 42  1  0  0  0  0
 38 34  1  0  0  0  0
 38 36  1  0  0  0  0
 39 38  1  0  0  0  0
 40 39  2  0  0  0  0
 41 36  1  0  0  0  0
 42 37  1  6  0  0  0
 42 41  1  0  0  0  0
M  END
>  <MODEL>
6

>  <REMARK>
 VINA RESULT:      -6.4      2.542      6.524
  Name = 
  13 active torsions:
  status: ('A' for Active; 'I' for Inactive)
    1  A    between atoms: C_4  and  C_25
    2  A    between atoms: C_5  and  C_12
    3  A    between atoms: C_5  and  C_30
    4  A    between atoms: C_6  and  C_32
    5  A    between atoms: C_6  and  C_41
    6  A    between atoms: C_13  and  C_25
    7  A    between atoms: C_13  and  C_42
    8  A    between atoms: N_15  and  C_38
    9  A    between atoms: N_19  and  C_41
   10  A    between atoms: N_21  and  C_22
   11  A    between atoms: C_22  and  C_23
   12  A    between atoms: C_23  and  C_30
   13  A    between atoms: N_27  and  C_32
                            x       y       z     vdW  Elec       q    Type
                         _______ _______ _______ _____ _____    ______ ____

>  <TORSDO>
F 13

$$$$
=
 OpenBabel11062419363D

 42 45  0  0  1  0  0  0  0  0999 V2000
  194.1810  177.1710  146.8880 N   0  0  0  0  0  2  0  0  0  0  0  0
  193.9400  176.1990  146.0700 C   0  0  0  0  0  0  0  0  0  0  0  0
  195.0240  175.6780  145.2170 C   0  0  0  0  0  0  0  0  0  0  0  0
  195.3960  176.3480  144.1750 N   0  0  0  0  0  2  0  0  0  0  0  0
  195.5930  173.2810  145.2220 C   0  0  0  0  0  0  0  0  0  0  0  0
  196.4970  172.2290  145.7570 C   0  0  0  0  0  1  0  0  0  0  0  0
  195.7440  174.5060  145.6390 N   0  0  0  0  0  0  0  0  0  0  0  0
  194.5250  172.8640  144.2540 C   0  0  0  0  0  2  0  0  0  0  0  0
  193.4260  172.0820  144.9600 C   0  0  0  0  0  2  0  0  0  0  0  0
  193.0030  171.3010  140.5700 O   0  0  0  0  0  0  0  0  0  0  0  0
  192.3740  171.5010  142.8400 N   0  0  0  0  0  0  0  0  0  0  0  0
  193.1820  171.0160  141.7840 C   0  0  0  0  0  0  0  0  0  0  0  0
  194.2140  170.1590  142.2220 N   0  0  0  0  0  0  0  0  0  0  0  0
  194.0810  170.0420  143.6700 C   0  0  0  0  0  3  0  0  0  0  0  0
  192.9040  170.9520  144.0830 C   0  0  1  0  0  3  0  0  0  0  0  0
  191.1680  173.6060  142.4190 C   0  0  0  0  0  3  0  0  0  0  0  0
  188.7490  173.6870  142.4720 C   0  0  0  0  0  3  0  0  0  0  0  0
  189.9020  171.6000  142.8950 C   0  0  0  0  0  3  0  0  0  0  0  0
  188.7110  172.3220  142.7690 C   0  0  0  0  0  3  0  0  0  0  0  0
  189.9770  174.3300  142.2990 C   0  0  0  0  0  0  0  0  0  0  0  0
  190.0140  175.6550  142.0220 F   0  0  0  0  0  0  0  0  0  0  0  0
  191.1420  172.2360  142.7210 C   0  0  0  0  0  0  0  0  0  0  0  0
  192.6100  175.4960  146.1190 C   0  0  0  0  0  2  0  0  0  0  0  0
  191.3800  176.3500  145.7390 C   0  0  2  0  0  0  0  0  0  0  0  0
  191.5950  177.0600  144.4100 C   0  0  0  0  0  1  0  0  0  0  0  0
  191.2660  177.3340  146.7030 F   0  0  0  0  0  0  0  0  0  0  0  0
  189.1640  174.5230  147.2070 C   0  0  0  0  0  2  0  0  0  0  0  0
  190.0350  175.5900  145.7080 C   0  0  2  0  0  3  0  0  0  0  0  0
  189.1830  175.9360  146.8390 N   0  0  0  0  0  0  0  0  0  0  0  0
  190.1000  174.1250  146.0840 C   0  0  0  0  0  2  0  0  0  0  0  0
  187.8740  176.2640  146.2950 C   0  0  0  0  0  2  0  0  0  0  0  0
  187.9900  176.5130  144.7970 C   0  0  0  0  0  2  0  0  0  0  0  0
  187.0650  178.6010  145.5560 O   0  0  0  0  0  1  0  0  0  0  0  0
  187.4970  177.9140  144.4180 C   0  0  2  0  0  3  0  0  0  0  0  0
  185.7910  178.4410  140.9770 C   0  0  0  0  0  2  0  0  0  0  0  0
  185.0540  177.5810  143.7200 C   0  0  0  0  0  2  0  0  0  0  0  0
  183.4530  178.4730  140.5010 O   0  0  0  0  0  1  0  0  0  0  0  0
  186.4460  177.9170  143.3880 N   0  0  0  0  0  0  0  0  0  0  0  0
  186.8170  178.0650  142.0030 C   0  0  0  0  0  0  0  0  0  0  0  0
  188.0220  177.9540  141.6490 O   0  0  0  0  0  0  0  0  0  0  0  0
  184.0790  178.2970  142.7930 C   0  0  0  0  0  2  0  0  0  0  0  0
  184.4080  177.9210  141.3560 C   0  0  2  0  0  3  0  0  0  0  0  0
  2 23  1  0  0  0  0
  2  1  2  0  0  0  0
  3  7  1  0  0  0  0
  3  2  1  0  0  0  0
  4  3  2  0  0  0  0
  5  7  2  0  0  0  0
  5  6  1  0  0  0  0
  8  9  1  0  0  0  0
  8  5  1  0  0  0  0
 10 12  2  0  0  0  0
 11 15  1  0  0  0  0
 12 13  1  0  0  0  0
 12 11  1  0  0  0  0
 13 14  2  0  0  0  0
 14 15  1  0  0  0  0
 15  9  1  1  0  0  0
 16 22  1  0  0  0  0
 17 19  2  0  0  0  0
 19 18  1  0  0  0  0
 20 16  2  0  0  0  0
 20 17  1  0  0  0  0
 21 20  1  0  0  0  0
 22 11  1  0  0  0  0
 22 18  2  0  0  0  0
 24 25  1  6  0  0  0
 24 23  1  0  0  0  0
 24 26  1  0  0  0  0
 28 24  1  1  0  0  0
 28 30  1  0  0  0  0
 28 29  1  0  0  0  0
 29 27  1  0  0  0  0
 30 27  1  0  0  0  0
 31 29  1  0  0  0  0
 32 31  1  0  0  0  0
 34 32  1  0  0  0  0
 34 33  1  1  0  0  0
 35 42  1  0  0  0  0
 35 39  1  0  0  0  0
 38 36  1  0  0  0  0
 38 34  1  0  0  0  0
 39 38  1  0  0  0  0
 40 39  2  0  0  0  0
 41 36  1  0  0  0  0
 42 37  1  6  0  0  0
 42 41  1  0  0  0  0
M  END
>  <MODEL>
7

>  <REMARK>
 VINA RESULT:      -6.4      2.733      8.552
  Name = 
  13 active torsions:
  status: ('A' for Active; 'I' for Inactive)
    1  A    between atoms: C_4  and  C_25
    2  A    between atoms: C_5  and  C_12
    3  A    between atoms: C_5  and  C_30
    4  A    between atoms: C_6  and  C_32
    5  A    between atoms: C_6  and  C_41
    6  A    between atoms: C_13  and  C_25
    7  A    between atoms: C_13  and  C_42
    8  A    between atoms: N_15  and  C_38
    9  A    between atoms: N_19  and  C_41
   10  A    between atoms: N_21  and  C_22
   11  A    between atoms: C_22  and  C_23
   12  A    between atoms: C_23  and  C_30
   13  A    between atoms: N_27  and  C_32
                            x       y       z     vdW  Elec       q    Type
                         _______ _______ _______ _____ _____    ______ ____

>  <TORSDO>
F 13

$$$$
=
 OpenBabel11062419363D

 42 45  0  0  1  0  0  0  0  0999 V2000
  189.5570  174.0490  143.3810 N   0  0  0  0  0  2  0  0  0  0  0  0
  189.5700  174.8040  142.3310 C   0  0  0  0  0  0  0  0  0  0  0  0
  189.2400  176.2350  142.4570 C   0  0  0  0  0  0  0  0  0  0  0  0
  189.9580  176.9920  143.2230 N   0  0  0  0  0  2  0  0  0  0  0  0
  186.9700  177.0310  141.9230 C   0  0  0  0  0  0  0  0  0  0  0  0
  186.0970  177.6760  140.9080 C   0  0  0  0  0  1  0  0  0  0  0  0
  188.2150  176.7950  141.6170 N   0  0  0  0  0  0  0  0  0  0  0  0
  186.3570  176.6520  143.2390 C   0  0  0  0  0  2  0  0  0  0  0  0
  186.5910  177.7380  144.2800 C   0  0  0  0  0  2  0  0  0  0  0  0
  187.0810  179.0430  148.5360 O   0  0  0  0  0  0  0  0  0  0  0  0
  187.0080  177.5860  146.6760 N   0  0  0  0  0  0  0  0  0  0  0  0
  186.4800  178.5850  147.5290 C   0  0  0  0  0  0  0  0  0  0  0  0
  185.1920  179.0170  147.1470 N   0  0  0  0  0  0  0  0  0  0  0  0
  184.8170  178.2430  145.9690 C   0  0  0  0  0  3  0  0  0  0  0  0
  186.0200  177.3350  145.6330 C   0  0  1  0  0  3  0  0  0  0  0  0
  189.4300  177.4530  147.1030 C   0  0  0  0  0  3  0  0  0  0  0  0
  190.5410  175.3120  147.3130 C   0  0  0  0  0  3  0  0  0  0  0  0
  188.1580  175.4060  146.8910 C   0  0  0  0  0  3  0  0  0  0  0  0
  189.3220  174.6610  147.1050 C   0  0  0  0  0  3  0  0  0  0  0  0
  190.5950  176.7090  147.3100 C   0  0  0  0  0  0  0  0  0  0  0  0
  191.7780  177.3400  147.5010 F   0  0  0  0  0  0  0  0  0  0  0  0
  188.2010  176.8090  146.8880 C   0  0  0  0  0  0  0  0  0  0  0  0
  190.0860  174.2580  141.0270 C   0  0  0  0  0  2  0  0  0  0  0  0
  189.1840  173.2200  140.3240 C   0  0  2  0  0  0  0  0  0  0  0  0
  188.9190  173.6150  138.8770 C   0  0  0  0  0  1  0  0  0  0  0  0
  187.9640  173.2480  140.9750 F   0  0  0  0  0  0  0  0  0  0  0  0
  191.4060  171.0020  139.5870 C   0  0  0  0  0  2  0  0  0  0  0  0
  189.6910  171.7620  140.3770 C   0  0  2  0  0  3  0  0  0  0  0  0
  191.0720  171.6770  140.8380 N   0  0  0  0  0  0  0  0  0  0  0  0
  190.0000  171.1240  139.0390 C   0  0  0  0  0  2  0  0  0  0  0  0
  191.1010  170.6780  141.8950 C   0  0  0  0  0  2  0  0  0  0  0  0
  191.7750  171.2600  143.1310 C   0  0  0  0  0  2  0  0  0  0  0  0
  194.1760  171.2660  142.9550 O   0  0  0  0  0  1  0  0  0  0  0  0
  193.0360  172.0520  142.7650 C   0  0  2  0  0  3  0  0  0  0  0  0
  193.9910  175.7440  143.4610 C   0  0  0  0  0  2  0  0  0  0  0  0
  192.7900  173.4450  144.9010 C   0  0  0  0  0  2  0  0  0  0  0  0
  194.0790  176.8520  145.5730 O   0  0  0  0  0  1  0  0  0  0  0  0
  193.1680  173.3280  143.4860 N   0  0  0  0  0  0  0  0  0  0  0  0
  193.4900  174.5240  142.7490 C   0  0  0  0  0  0  0  0  0  0  0  0
  193.4270  174.5360  141.4900 O   0  0  0  0  0  0  0  0  0  0  0  0
  193.6160  174.5150  145.6050 C   0  0  0  0  0  2  0  0  0  0  0  0
  193.4250  175.8350  144.8750 C   0  0  2  0  0  3  0  0  0  0  0  0
  2  3  1  0  0  0  0
  2  1  2  0  0  0  0
  3  4  2  0  0  0  0
  5  8  1  0  0  0  0
  6  5  1  0  0  0  0
  7  5  2  0  0  0  0
  7  3  1  0  0  0  0
  8  9  1  0  0  0  0
 11 22  1  0  0  0  0
 11 12  1  0  0  0  0
 12 10  2  0  0  0  0
 13 12  1  0  0  0  0
 14 13  2  0  0  0  0
 15  9  1  6  0  0  0
 15 14  1  0  0  0  0
 15 11  1  0  0  0  0
 16 20  1  0  0  0  0
 18 19  2  0  0  0  0
 19 17  1  0  0  0  0
 20 17  2  0  0  0  0
 20 21  1  0  0  0  0
 22 18  1  0  0  0  0
 22 16  2  0  0  0  0
 23  2  1  0  0  0  0
 24 25  1  6  0  0  0
 24 26  1  0  0  0  0
 24 23  1  0  0  0  0
 27 29  1  0  0  0  0
 28 24  1  6  0  0  0
 28 29  1  0  0  0  0
 29 31  1  0  0  0  0
 30 27  1  0  0  0  0
 30 28  1  0  0  0  0
 31 32  1  0  0  0  0
 34 33  1  1  0  0  0
 34 32  1  0  0  0  0
 34 38  1  0  0  0  0
 35 42  1  0  0  0  0
 36 41  1  0  0  0  0
 38 36  1  0  0  0  0
 39 35  1  0  0  0  0
 39 38  1  0  0  0  0
 40 39  2  0  0  0  0
 42 37  1  1  0  0  0
 42 41  1  0  0  0  0
M  END
>  <MODEL>
8

>  <REMARK>
 VINA RESULT:      -6.4      1.631      2.026
  Name = 
  13 active torsions:
  status: ('A' for Active; 'I' for Inactive)
    1  A    between atoms: C_4  and  C_25
    2  A    between atoms: C_5  and  C_12
    3  A    between atoms: C_5  and  C_30
    4  A    between atoms: C_6  and  C_32
    5  A    between atoms: C_6  and  C_41
    6  A    between atoms: C_13  and  C_25
    7  A    between atoms: C_13  and  C_42
    8  A    between atoms: N_15  and  C_38
    9  A    between atoms: N_19  and  C_41
   10  A    between atoms: N_21  and  C_22
   11  A    between atoms: C_22  and  C_23
   12  A    between atoms: C_23  and  C_30
   13  A    between atoms: N_27  and  C_32
                            x       y       z     vdW  Elec       q    Type
                         _______ _______ _______ _____ _____    ______ ____

>  <TORSDO>
F 13

$$$$
=
 OpenBabel11062419363D

 42 45  0  0  1  0  0  0  0  0999 V2000
  187.8540  173.2870  141.8320 N   0  0  0  0  0  2  0  0  0  0  0  0
  188.5900  174.1320  141.1860 C   0  0  0  0  0  0  0  0  0  0  0  0
  188.6230  175.5430  141.6120 C   0  0  0  0  0  0  0  0  0  0  0  0
  189.6380  175.9860  142.2810 N   0  0  0  0  0  2  0  0  0  0  0  0
  186.5410  176.8470  141.8030 C   0  0  0  0  0  0  0  0  0  0  0  0
  185.6350  177.8260  141.1480 C   0  0  0  0  0  1  0  0  0  0  0  0
  187.5930  176.4370  141.1530 N   0  0  0  0  0  0  0  0  0  0  0  0
  186.1710  176.3530  143.1710 C   0  0  0  0  0  2  0  0  0  0  0  0
  185.9620  177.5160  144.1310 C   0  0  0  0  0  2  0  0  0  0  0  0
  187.0000  178.8040  148.2930 O   0  0  0  0  0  0  0  0  0  0  0  0
  186.7950  177.3800  146.4170 N   0  0  0  0  0  0  0  0  0  0  0  0
  186.2980  178.2890  147.3820 C   0  0  0  0  0  0  0  0  0  0  0  0
  184.9200  178.5560  147.2370 N   0  0  0  0  0  0  0  0  0  0  0  0
  184.4510  177.7580  146.1090 C   0  0  0  0  0  3  0  0  0  0  0  0
  185.6840  177.0200  145.5430 C   0  0  1  0  0  3  0  0  0  0  0  0
  189.1420  177.3500  145.6700 C   0  0  0  0  0  3  0  0  0  0  0  0
  190.6430  175.5780  146.3550 C   0  0  0  0  0  3  0  0  0  0  0  0
  188.3410  175.5750  147.1060 C   0  0  0  0  0  3  0  0  0  0  0  0
  189.6090  174.9870  147.0860 C   0  0  0  0  0  3  0  0  0  0  0  0
  190.4090  176.7590  145.6450 C   0  0  0  0  0  0  0  0  0  0  0  0
  191.4070  177.3260  144.9270 F   0  0  0  0  0  0  0  0  0  0  0  0
  188.0950  176.7620  146.3970 C   0  0  0  0  0  0  0  0  0  0  0  0
  189.5340  173.6390  140.1240 C   0  0  0  0  0  2  0  0  0  0  0  0
  190.7200  172.7810  140.6180 C   0  0  2  0  0  0  0  0  0  0  0  0
  190.2800  171.3520  140.9050 C   0  0  0  0  0  1  0  0  0  0  0  0
  191.1280  173.3230  141.8230 F   0  0  0  0  0  0  0  0  0  0  0  0
  192.5790  174.2210  138.4100 C   0  0  0  0  0  2  0  0  0  0  0  0
  191.9540  172.7660  139.6900 C   0  0  2  0  0  3  0  0  0  0  0  0
  192.7670  173.9680  139.8350 N   0  0  0  0  0  0  0  0  0  0  0  0
  191.6770  173.0180  138.2220 C   0  0  0  0  0  2  0  0  0  0  0  0
  194.1410  173.5270  140.0230 C   0  0  0  0  0  2  0  0  0  0  0  0
  194.3820  173.2150  141.4940 C   0  0  0  0  0  2  0  0  0  0  0  0
  196.6090  173.2940  142.4020 O   0  0  0  0  0  1  0  0  0  0  0  0
  195.5030  174.0830  142.0780 C   0  0  2  0  0  3  0  0  0  0  0  0
  195.5660  176.8790  144.7630 C   0  0  0  0  0  2  0  0  0  0  0  0
  193.9650  174.4740  144.0900 C   0  0  0  0  0  2  0  0  0  0  0  0
  194.3400  176.9620  146.8090 O   0  0  0  0  0  1  0  0  0  0  0  0
  195.0890  174.8880  143.2390 N   0  0  0  0  0  0  0  0  0  0  0  0
  195.6680  176.1930  143.4340 C   0  0  0  0  0  0  0  0  0  0  0  0
  196.3320  176.7420  142.5140 O   0  0  0  0  0  0  0  0  0  0  0  0
  194.1460  174.9660  145.5200 C   0  0  0  0  0  2  0  0  0  0  0  0
  194.2910  176.4800  145.4990 C   0  0  2  0  0  3  0  0  0  0  0  0
  2  3  1  0  0  0  0
  2  1  2  0  0  0  0
  3  4  2  0  0  0  0
  5  8  1  0  0  0  0
  6  5  1  0  0  0  0
  7  3  1  0  0  0  0
  7  5  2  0  0  0  0
  8  9  1  0  0  0  0
 11 12  1  0  0  0  0
 12 10  2  0  0  0  0
 13 12  1  0  0  0  0
 14 13  2  0  0  0  0
 15  9  1  6  0  0  0
 15 14  1  0  0  0  0
 15 11  1  0  0  0  0
 16 22  1  0  0  0  0
 17 19  2  0  0  0  0
 19 18  1  0  0  0  0
 20 16  2  0  0  0  0
 20 17  1  0  0  0  0
 21 20  1  0  0  0  0
 22 11  1  0  0  0  0
 22 18  2  0  0  0  0
 23 24  1  0  0  0  0
 23  2  1  0  0  0  0
 24 25  1  1  0  0  0
 24 26  1  0  0  0  0
 27 29  1  0  0  0  0
 28 29  1  0  0  0  0
 28 24  1  1  0  0  0
 29 31  1  0  0  0  0
 30 27  1  0  0  0  0
 30 28  1  0  0  0  0
 31 32  1  0  0  0  0
 32 34  1  0  0  0  0
 34 33  1  1  0  0  0
 34 38  1  0  0  0  0
 35 42  1  0  0  0  0
 36 41  1  0  0  0  0
 38 39  1  0  0  0  0
 38 36  1  0  0  0  0
 39 35  1  0  0  0  0
 40 39  2  0  0  0  0
 42 41  1  0  0  0  0
 42 37  1  1  0  0  0
M  END
>  <MODEL>
9

>  <REMARK>
 VINA RESULT:      -6.4      1.954      2.773
  Name = 
  13 active torsions:
  status: ('A' for Active; 'I' for Inactive)
    1  A    between atoms: C_4  and  C_25
    2  A    between atoms: C_5  and  C_12
    3  A    between atoms: C_5  and  C_30
    4  A    between atoms: C_6  and  C_32
    5  A    between atoms: C_6  and  C_41
    6  A    between atoms: C_13  and  C_25
    7  A    between atoms: C_13  and  C_42
    8  A    between atoms: N_15  and  C_38
    9  A    between atoms: N_19  and  C_41
   10  A    between atoms: N_21  and  C_22
   11  A    between atoms: C_22  and  C_23
   12  A    between atoms: C_23  and  C_30
   13  A    between atoms: N_27  and  C_32
                            x       y       z     vdW  Elec       q    Type
                         _______ _______ _______ _____ _____    ______ ____

>  <TORSDO>
F 13

$$$$
