=
 OpenBabel11062419243D

 38 43  0  0  1  0  0  0  0  0999 V2000
  189.5630  173.5000  142.2110 C   0  0  2  0  0  3  0  0  0  0  0  0
  190.6020  175.1540  143.7940 C   0  0  2  0  0  0  0  0  0  0  0  0
  190.4670  176.6170  144.2210 C   0  0  1  0  0  3  0  0  0  0  0  0
  192.7900  171.4490  142.6430 C   0  0  0  0  0  0  0  0  0  0  0  0
  193.7430  173.1320  143.7190 N   0  0  0  0  0  0  0  0  0  0  0  0
  189.8560  171.1410  142.5100 O   0  0  0  0  0  0  0  0  0  0  0  0
  193.9540  171.9460  143.1730 C   0  0  0  0  0  0  0  0  0  0  0  0
  194.6440  173.2260  144.8570 C   0  0  1  0  0  3  0  0  0  0  0  0
  191.8160  172.4190  142.8520 C   0  0  0  0  0  0  0  0  0  0  0  0
  195.3950  171.9630  144.7890 N   0  0  0  0  0  0  0  0  0  0  0  0
  188.3300  173.1330  141.6680 O   0  0  0  0  0  1  0  0  0  0  0  0
  192.4370  173.4390  143.5840 C   0  0  0  0  0  0  0  0  0  0  0  0
  191.7500  174.4300  144.4760 C   0  0  0  0  0  2  0  0  0  0  0  0
  194.9750  171.2260  143.8350 N   0  0  0  0  0  0  0  0  0  0  0  0
  191.0000  176.2500  142.8330 C   0  0  0  0  0  2  0  0  0  0  0  0
  192.6000  170.1750  142.1220 O   0  0  0  0  0  1  0  0  0  0  0  0
  190.3810  172.2870  142.5420 C   0  0  0  0  0  0  0  0  0  0  0  0
  189.3360  174.3730  143.4330 C   0  0  0  0  0  2  0  0  0  0  0  0
  189.0430  177.1290  144.1980 C   0  0  0  0  0  0  0  0  0  0  0  0
  188.4890  177.6500  143.0050 C   0  0  0  0  0  3  0  0  0  0  0  0
  188.2810  177.1640  145.3940 C   0  0  0  0  0  0  0  0  0  0  0  0
  185.1720  178.6410  144.2600 N   0  0  0  0  0  0  0  0  0  0  0  0
  184.4470  179.1670  143.2140 O   0  0  0  0  0  1  0  0  0  0  0  0
  187.1880  178.1700  142.9720 C   0  0  0  0  0  3  0  0  0  0  0  0
  186.9850  177.6910  145.3320 C   0  0  0  0  0  0  0  0  0  0  0  0
  183.5430  178.8820  145.8650 O   0  0  0  0  0  0  0  0  0  0  0  0
  184.6990  178.5210  145.5200 C   0  0  0  0  0  0  0  0  0  0  0  0
  186.4430  178.1780  144.1490 C   0  0  0  0  0  0  0  0  0  0  0  0
  185.8360  177.8340  146.5630 S   0  0  0  0  0  0  0  0  0  0  0  0
  189.6500  177.5720  147.4540 C   0  0  0  0  0  1  0  0  0  0  0  0
  188.6400  175.3210  147.0500 C   0  0  0  0  0  1  0  0  0  0  0  0
  188.8210  176.7020  146.6390 N   0  0  0  0  0  0  0  0  0  0  0  0
  195.5740  174.4310  144.7270 C   0  0  0  0  0  2  0  0  0  0  0  0
  195.2940  175.4990  145.7800 C   0  0  0  0  0  2  0  0  0  0  0  0
  195.3050  177.8320  145.3060 F   0  0  0  0  0  0  0  0  0  0  0  0
  194.2810  176.4460  143.8440 F   0  0  0  0  0  0  0  0  0  0  0  0
  194.5480  176.6820  145.1810 C   0  0  0  0  0  0  0  0  0  0  0  0
  193.3550  176.8500  145.8560 F   0  0  0  0  0  0  0  0  0  0  0  0
  1 11  1  1  0  0  0
  1 17  1  0  0  0  0
  1 18  1  0  0  0  0
  2 15  1  6  0  0  0
  2  3  1  0  0  0  0
  2 13  1  0  0  0  0
  3 19  1  6  0  0  0
  4  9  1  0  0  0  0
  4  7  2  0  0  0  0
  5  8  1  0  0  0  0
  6 17  2  0  0  0  0
  7  5  1  0  0  0  0
  7 14  1  0  0  0  0
  8 33  1  6  0  0  0
  9 12  2  0  0  0  0
 10  8  1  0  0  0  0
 12  5  1  0  0  0  0
 12 13  1  0  0  0  0
 14 10  2  0  0  0  0
 15  3  1  0  0  0  0
 16  4  1  0  0  0  0
 17  9  1  0  0  0  0
 18  2  1  0  0  0  0
 19 21  1  0  0  0  0
 20 19  2  0  0  0  0
 21 32  1  0  0  0  0
 22 27  1  0  0  0  0
 23 22  1  0  0  0  0
 24 20  1  0  0  0  0
 24 28  2  0  0  0  0
 25 21  2  0  0  0  0
 25 29  1  0  0  0  0
 27 26  2  0  0  0  0
 27 29  1  0  0  0  0
 28 22  1  0  0  0  0
 28 25  1  0  0  0  0
 32 31  1  0  0  0  0
 32 30  1  0  0  0  0
 33 34  1  0  0  0  0
 36 37  1  0  0  0  0
 37 35  1  0  0  0  0
 37 34  1  0  0  0  0
 37 38  1  0  0  0  0
M  END
>  <MODEL>
1

>  <REMARK>
 VINA RESULT:      -8.0      0.000      0.000
  Name = 
  5 active torsions:
  status: ('A' for Active; 'I' for Inactive)
    1  A    between atoms: C_1  and  C_5
    2  A    between atoms: C_6  and  N_36
    3  A    between atoms: C_9  and  C_26
    4  A    between atoms: C_9  and  C_35
    5  A    between atoms: C_15  and  C_35
                            x       y       z     vdW  Elec       q    Type
                         _______ _______ _______ _____ _____    ______ ____

>  <TORSDO>
F 5

$$$$
=
 OpenBabel11062419243D

 38 43  0  0  1  0  0  0  0  0999 V2000
  189.0210  177.6180  146.2790 C   0  0  2  0  0  3  0  0  0  0  0  0
  189.3190  176.7500  143.9390 C   0  0  2  0  0  0  0  0  0  0  0  0
  190.4300  176.3550  142.9640 C   0  0  1  0  0  3  0  0  0  0  0  0
  185.4900  178.6670  145.1660 C   0  0  0  0  0  0  0  0  0  0  0  0
  185.9930  178.2090  143.0600 N   0  0  0  0  0  0  0  0  0  0  0  0
  186.9250  177.4150  147.4230 O   0  0  0  0  0  0  0  0  0  0  0  0
  185.0880  178.7520  143.8570 C   0  0  0  0  0  0  0  0  0  0  0  0
  185.2610  177.6210  141.9490 C   0  0  1  0  0  3  0  0  0  0  0  0
  186.7410  178.0610  145.1560 C   0  0  0  0  0  0  0  0  0  0  0  0
  183.8670  177.9900  142.2400 N   0  0  0  0  0  0  0  0  0  0  0  0
  189.5660  177.5160  147.5610 O   0  0  0  0  0  1  0  0  0  0  0  0
  187.0010  177.7320  143.8190 C   0  0  0  0  0  0  0  0  0  0  0  0
  187.9270  176.6550  143.3370 C   0  0  0  0  0  2  0  0  0  0  0  0
  183.7760  178.6170  143.3480 N   0  0  0  0  0  0  0  0  0  0  0  0
  190.2110  177.8200  143.3550 C   0  0  0  0  0  2  0  0  0  0  0  0
  184.7340  178.9990  146.2830 O   0  0  0  0  0  1  0  0  0  0  0  0
  187.5220  177.6670  146.3410 C   0  0  0  0  0  0  0  0  0  0  0  0
  189.5100  176.4580  145.4290 C   0  0  0  0  0  2  0  0  0  0  0  0
  191.6350  175.7320  143.6350 C   0  0  0  0  0  0  0  0  0  0  0  0
  192.6980  176.5440  144.0940 C   0  0  0  0  0  3  0  0  0  0  0  0
  191.7420  174.3210  143.7340 C   0  0  0  0  0  0  0  0  0  0  0  0
  194.9670  173.9240  145.3390 N   0  0  0  0  0  0  0  0  0  0  0  0
  196.0880  174.5280  145.8630 O   0  0  0  0  0  1  0  0  0  0  0  0
  193.8430  175.9850  144.6780 C   0  0  0  0  0  3  0  0  0  0  0  0
  192.8980  173.7890  144.3200 C   0  0  0  0  0  0  0  0  0  0  0  0
  195.6020  171.7570  145.7700 O   0  0  0  0  0  0  0  0  0  0  0  0
  194.7730  172.5870  145.3140 C   0  0  0  0  0  0  0  0  0  0  0  0
  193.9250  174.5980  144.7890 C   0  0  0  0  0  0  0  0  0  0  0  0
  193.2970  172.1720  144.6070 S   0  0  0  0  0  0  0  0  0  0  0  0
  189.6710  172.9570  144.1050 C   0  0  0  0  0  1  0  0  0  0  0  0
  190.7720  172.9730  141.8600 C   0  0  0  0  0  1  0  0  0  0  0  0
  190.7170  173.4550  143.2290 N   0  0  0  0  0  0  0  0  0  0  0  0
  185.7210  178.2050  140.6140 C   0  0  0  0  0  2  0  0  0  0  0  0
  186.9490  177.4900  140.0570 C   0  0  0  0  0  2  0  0  0  0  0  0
  187.2700  175.5800  138.6730 F   0  0  0  0  0  0  0  0  0  0  0  0
  185.2700  176.6310  138.6030 F   0  0  0  0  0  0  0  0  0  0  0  0
  186.6360  176.8070  138.7340 C   0  0  0  0  0  0  0  0  0  0  0  0
  187.0900  177.6020  137.7000 F   0  0  0  0  0  0  0  0  0  0  0  0
  1 17  1  0  0  0  0
  1 11  1  1  0  0  0
  2 13  1  6  0  0  0
  2 18  1  0  0  0  0
  3 15  1  0  0  0  0
  3 19  1  1  0  0  0
  3  2  1  0  0  0  0
  4 16  1  0  0  0  0
  5 12  1  0  0  0  0
  5  7  1  0  0  0  0
  7  4  2  0  0  0  0
  8 33  1  6  0  0  0
  8 10  1  0  0  0  0
  8  5  1  0  0  0  0
  9  4  1  0  0  0  0
  9 17  1  0  0  0  0
 10 14  2  0  0  0  0
 12  9  2  0  0  0  0
 13 12  1  0  0  0  0
 14  7  1  0  0  0  0
 15  2  1  0  0  0  0
 17  6  2  0  0  0  0
 18  1  1  0  0  0  0
 19 21  2  0  0  0  0
 19 20  1  0  0  0  0
 20 24  2  0  0  0  0
 21 25  1  0  0  0  0
 22 23  1  0  0  0  0
 24 28  1  0  0  0  0
 25 29  1  0  0  0  0
 25 28  2  0  0  0  0
 27 22  1  0  0  0  0
 27 26  2  0  0  0  0
 28 22  1  0  0  0  0
 29 27  1  0  0  0  0
 31 32  1  0  0  0  0
 32 21  1  0  0  0  0
 32 30  1  0  0  0  0
 34 33  1  0  0  0  0
 35 37  1  0  0  0  0
 36 37  1  0  0  0  0
 37 34  1  0  0  0  0
 38 37  1  0  0  0  0
M  END
>  <MODEL>
2

>  <REMARK>
 VINA RESULT:      -7.8      3.957      8.899
  Name = 
  5 active torsions:
  status: ('A' for Active; 'I' for Inactive)
    1  A    between atoms: C_1  and  C_5
    2  A    between atoms: C_6  and  N_36
    3  A    between atoms: C_9  and  C_26
    4  A    between atoms: C_9  and  C_35
    5  A    between atoms: C_15  and  C_35
                            x       y       z     vdW  Elec       q    Type
                         _______ _______ _______ _____ _____    ______ ____

>  <TORSDO>
F 5

$$$$
=
 OpenBabel11062419243D

 38 43  0  0  1  0  0  0  0  0999 V2000
  189.2990  177.4460  146.2100 C   0  0  2  0  0  3  0  0  0  0  0  0
  189.2300  176.7820  143.7870 C   0  0  2  0  0  0  0  0  0  0  0  0
  190.1760  176.4460  142.6320 C   0  0  1  0  0  3  0  0  0  0  0  0
  185.6890  178.6810  145.7100 C   0  0  0  0  0  0  0  0  0  0  0  0
  185.8710  178.3990  143.5220 N   0  0  0  0  0  0  0  0  0  0  0  0
  187.3800  177.1970  147.6230 O   0  0  0  0  0  0  0  0  0  0  0  0
  185.1100  178.8920  144.4840 C   0  0  0  0  0  0  0  0  0  0  0  0
  184.9680  177.9320  142.4830 C   0  0  1  0  0  3  0  0  0  0  0  0
  186.9020  178.0460  145.4680 C   0  0  0  0  0  0  0  0  0  0  0  0
  183.6440  178.3090  143.0020 N   0  0  0  0  0  0  0  0  0  0  0  0
  190.0150  177.2170  147.3870 O   0  0  0  0  0  1  0  0  0  0  0  0
  186.9570  177.8310  144.0850 C   0  0  0  0  0  0  0  0  0  0  0  0
  187.7640  176.7770  143.3860 C   0  0  0  0  0  2  0  0  0  0  0  0
  183.7350  178.8380  144.1600 N   0  0  0  0  0  0  0  0  0  0  0  0
  190.0710  177.8760  143.1720 C   0  0  0  0  0  2  0  0  0  0  0  0
  185.1110  178.9320  146.9490 O   0  0  0  0  0  1  0  0  0  0  0  0
  187.8270  177.5280  146.4920 C   0  0  0  0  0  0  0  0  0  0  0  0
  189.6180  176.3540  145.2040 C   0  0  0  0  0  2  0  0  0  0  0  0
  191.4380  175.7350  143.0670 C   0  0  0  0  0  0  0  0  0  0  0  0
  192.5760  176.4750  143.4670 C   0  0  0  0  0  3  0  0  0  0  0  0
  191.5150  174.3200  142.9990 C   0  0  0  0  0  0  0  0  0  0  0  0
  194.9090  173.7000  144.1130 N   0  0  0  0  0  0  0  0  0  0  0  0
  196.1050  174.2250  144.5470 O   0  0  0  0  0  1  0  0  0  0  0  0
  193.7690  175.8380  143.8310 C   0  0  0  0  0  3  0  0  0  0  0  0
  192.7210  173.7100  143.3670 C   0  0  0  0  0  0  0  0  0  0  0  0
  195.5300  171.4890  144.2220 O   0  0  0  0  0  0  0  0  0  0  0  0
  194.6740  172.3770  143.9710 C   0  0  0  0  0  0  0  0  0  0  0  0
  193.8250  174.4460  143.7810 C   0  0  0  0  0  0  0  0  0  0  0  0
  193.1060  172.0650  143.4250 S   0  0  0  0  0  0  0  0  0  0  0  0
  189.4570  172.9760  143.4910 C   0  0  0  0  0  1  0  0  0  0  0  0
  190.2860  173.1800  141.1410 C   0  0  0  0  0  1  0  0  0  0  0  0
  190.4090  173.5310  142.5450 N   0  0  0  0  0  0  0  0  0  0  0  0
  185.2570  178.6200  141.1490 C   0  0  0  0  0  2  0  0  0  0  0  0
  185.4210  177.6250  140.0040 C   0  0  0  0  0  2  0  0  0  0  0  0
  187.6880  178.1790  140.4760 F   0  0  0  0  0  0  0  0  0  0  0  0
  187.1690  176.0110  140.1050 F   0  0  0  0  0  0  0  0  0  0  0  0
  186.8880  177.3180  139.7470 C   0  0  0  0  0  0  0  0  0  0  0  0
  187.1540  177.4840  138.4020 F   0  0  0  0  0  0  0  0  0  0  0  0
  1 17  1  0  0  0  0
  1 11  1  1  0  0  0
  2 15  1  1  0  0  0
  2 18  1  0  0  0  0
  3 19  1  1  0  0  0
  3 15  1  0  0  0  0
  3  2  1  0  0  0  0
  4 16  1  0  0  0  0
  5 12  1  0  0  0  0
  5  7  1  0  0  0  0
  7  4  2  0  0  0  0
  8 33  1  6  0  0  0
  8 10  1  0  0  0  0
  8  5  1  0  0  0  0
  9  4  1  0  0  0  0
  9 17  1  0  0  0  0
 10 14  2  0  0  0  0
 12  9  2  0  0  0  0
 13  2  1  0  0  0  0
 13 12  1  0  0  0  0
 14  7  1  0  0  0  0
 17  6  2  0  0  0  0
 18  1  1  0  0  0  0
 19 20  1  0  0  0  0
 20 24  2  0  0  0  0
 21 19  2  0  0  0  0
 21 25  1  0  0  0  0
 22 23  1  0  0  0  0
 25 29  1  0  0  0  0
 25 28  2  0  0  0  0
 27 22  1  0  0  0  0
 27 26  2  0  0  0  0
 28 24  1  0  0  0  0
 28 22  1  0  0  0  0
 29 27  1  0  0  0  0
 31 32  1  0  0  0  0
 32 21  1  0  0  0  0
 32 30  1  0  0  0  0
 34 33  1  0  0  0  0
 37 34  1  0  0  0  0
 37 36  1  0  0  0  0
 37 35  1  0  0  0  0
 38 37  1  0  0  0  0
M  END
>  <MODEL>
3

>  <REMARK>
 VINA RESULT:      -7.8      3.656      8.854
  Name = 
  5 active torsions:
  status: ('A' for Active; 'I' for Inactive)
    1  A    between atoms: C_1  and  C_5
    2  A    between atoms: C_6  and  N_36
    3  A    between atoms: C_9  and  C_26
    4  A    between atoms: C_9  and  C_35
    5  A    between atoms: C_15  and  C_35
                            x       y       z     vdW  Elec       q    Type
                         _______ _______ _______ _____ _____    ______ ____

>  <TORSDO>
F 5

$$$$
=
 OpenBabel11062419243D

 38 43  0  0  1  0  0  0  0  0999 V2000
  192.9490  176.1650  145.6860 C   0  0  2  0  0  3  0  0  0  0  0  0
  191.4500  175.6500  143.7340 C   0  0  2  0  0  0  0  0  0  0  0  0
  190.0000  175.2660  143.4350 C   0  0  1  0  0  3  0  0  0  0  0  0
  195.8780  175.4280  143.3010 C   0  0  0  0  0  0  0  0  0  0  0  0
  194.4730  174.6460  141.7800 N   0  0  0  0  0  0  0  0  0  0  0  0
  195.0190  177.3340  145.3880 O   0  0  0  0  0  0  0  0  0  0  0  0
  195.7490  174.7750  142.1020 C   0  0  0  0  0  0  0  0  0  0  0  0
  194.4060  174.7230  140.3300 C   0  0  1  0  0  3  0  0  0  0  0  0
  194.5870  175.6810  143.7530 C   0  0  0  0  0  0  0  0  0  0  0  0
  195.8190  174.8400  139.9390 N   0  0  0  0  0  0  0  0  0  0  0  0
  192.9420  176.7910  146.9340 O   0  0  0  0  0  1  0  0  0  0  0  0
  193.7290  175.2290  142.7420 C   0  0  0  0  0  0  0  0  0  0  0  0
  192.3280  175.7030  142.4950 C   0  0  0  0  0  2  0  0  0  0  0  0
  196.5790  174.8920  140.9630 N   0  0  0  0  0  0  0  0  0  0  0  0
  190.9490  174.2780  144.1210 C   0  0  0  0  0  2  0  0  0  0  0  0
  197.0640  175.8660  143.8780 O   0  0  0  0  0  1  0  0  0  0  0  0
  194.2260  176.4560  144.9530 C   0  0  0  0  0  0  0  0  0  0  0  0
  191.7330  176.6110  144.8910 C   0  0  0  0  0  2  0  0  0  0  0  0
  188.9980  175.8870  144.3840 C   0  0  0  0  0  0  0  0  0  0  0  0
  188.9730  175.5110  145.7470 C   0  0  0  0  0  3  0  0  0  0  0  0
  188.0220  176.7930  143.8930 C   0  0  0  0  0  0  0  0  0  0  0  0
  186.1210  177.5410  146.8870 N   0  0  0  0  0  0  0  0  0  0  0  0
  185.9410  177.3270  148.2350 O   0  0  0  0  0  1  0  0  0  0  0  0
  188.0260  176.0400  146.6330 C   0  0  0  0  0  3  0  0  0  0  0  0
  187.0860  177.3050  144.8000 C   0  0  0  0  0  0  0  0  0  0  0  0
  184.3980  179.0410  146.6200 O   0  0  0  0  0  0  0  0  0  0  0  0
  185.3560  178.3750  146.1470 C   0  0  0  0  0  0  0  0  0  0  0  0
  187.0870  176.9450  146.1420 C   0  0  0  0  0  0  0  0  0  0  0  0
  185.8400  178.4140  144.5300 S   0  0  0  0  0  0  0  0  0  0  0  0
  188.7340  178.2910  142.0130 C   0  0  0  0  0  1  0  0  0  0  0  0
  187.0660  176.4740  141.6020 C   0  0  0  0  0  1  0  0  0  0  0  0
  187.9700  177.1590  142.5090 N   0  0  0  0  0  0  0  0  0  0  0  0
  193.7700  173.4650  139.7390 C   0  0  0  0  0  2  0  0  0  0  0  0
  192.3250  173.6930  139.3040 C   0  0  0  0  0  2  0  0  0  0  0  0
  190.8750  171.8230  139.5710 F   0  0  0  0  0  0  0  0  0  0  0  0
  191.9860  172.5860  141.3850 F   0  0  0  0  0  0  0  0  0  0  0  0
  191.3540  172.9520  140.2100 C   0  0  0  0  0  0  0  0  0  0  0  0
  190.2930  173.7850  140.5090 F   0  0  0  0  0  0  0  0  0  0  0  0
  1 11  1  1  0  0  0
  2 13  1  6  0  0  0
  2 15  1  0  0  0  0
  2 18  1  0  0  0  0
  3  2  1  0  0  0  0
  3 15  1  0  0  0  0
  3 19  1  1  0  0  0
  4  9  1  0  0  0  0
  4 16  1  0  0  0  0
  5  7  1  0  0  0  0
  5 12  1  0  0  0  0
  7  4  2  0  0  0  0
  8 33  1  6  0  0  0
  8  5  1  0  0  0  0
  9 17  1  0  0  0  0
 10  8  1  0  0  0  0
 10 14  2  0  0  0  0
 12  9  2  0  0  0  0
 13 12  1  0  0  0  0
 14  7  1  0  0  0  0
 17  6  2  0  0  0  0
 17  1  1  0  0  0  0
 18  1  1  0  0  0  0
 19 20  1  0  0  0  0
 20 24  2  0  0  0  0
 21 19  2  0  0  0  0
 21 25  1  0  0  0  0
 22 23  1  0  0  0  0
 25 28  2  0  0  0  0
 27 26  2  0  0  0  0
 27 22  1  0  0  0  0
 28 24  1  0  0  0  0
 28 22  1  0  0  0  0
 29 25  1  0  0  0  0
 29 27  1  0  0  0  0
 30 32  1  0  0  0  0
 31 32  1  0  0  0  0
 32 21  1  0  0  0  0
 34 33  1  0  0  0  0
 34 37  1  0  0  0  0
 35 37  1  0  0  0  0
 37 38  1  0  0  0  0
 37 36  1  0  0  0  0
M  END
>  <MODEL>
4

>  <REMARK>
 VINA RESULT:      -7.4      3.543      4.868
  Name = 
  5 active torsions:
  status: ('A' for Active; 'I' for Inactive)
    1  A    between atoms: C_1  and  C_5
    2  A    between atoms: C_6  and  N_36
    3  A    between atoms: C_9  and  C_26
    4  A    between atoms: C_9  and  C_35
    5  A    between atoms: C_15  and  C_35
                            x       y       z     vdW  Elec       q    Type
                         _______ _______ _______ _____ _____    ______ ____

>  <TORSDO>
F 5

$$$$
=
 OpenBabel11062419243D

 38 43  0  0  1  0  0  0  0  0999 V2000
  188.1020  175.2110  141.3360 C   0  0  2  0  0  3  0  0  0  0  0  0
  188.9610  175.9200  143.5900 C   0  0  2  0  0  0  0  0  0  0  0  0
  189.8990  175.4340  144.6970 C   0  0  1  0  0  3  0  0  0  0  0  0
  185.2430  177.7200  141.9210 C   0  0  0  0  0  0  0  0  0  0  0  0
  185.8800  177.9890  144.0240 N   0  0  0  0  0  0  0  0  0  0  0  0
  187.1110  176.7900  139.8310 O   0  0  0  0  0  0  0  0  0  0  0  0
  184.9330  178.2620  143.1430 C   0  0  0  0  0  0  0  0  0  0  0  0
  185.9440  179.1290  144.9240 C   0  0  1  0  0  3  0  0  0  0  0  0
  186.4460  177.0410  142.0860 C   0  0  0  0  0  0  0  0  0  0  0  0
  184.8610  179.9970  144.4350 N   0  0  0  0  0  0  0  0  0  0  0  0
  188.5070  174.5670  140.1650 O   0  0  0  0  0  1  0  0  0  0  0  0
  186.8480  177.2820  143.4070 C   0  0  0  0  0  0  0  0  0  0  0  0
  188.2530  177.2210  143.9280 C   0  0  0  0  0  2  0  0  0  0  0  0
  184.3040  179.5020  143.4000 N   0  0  0  0  0  0  0  0  0  0  0  0
  188.5670  174.7260  144.4280 C   0  0  0  0  0  2  0  0  0  0  0  0
  184.5580  177.9240  140.7300 O   0  0  0  0  0  1  0  0  0  0  0  0
  187.2240  176.3860  141.0200 C   0  0  0  0  0  0  0  0  0  0  0  0
  189.3270  175.6250  142.1330 C   0  0  0  0  0  2  0  0  0  0  0  0
  191.0970  174.6650  144.1850 C   0  0  0  0  0  0  0  0  0  0  0  0
  191.0110  173.2720  143.9580 C   0  0  0  0  0  3  0  0  0  0  0  0
  192.3410  175.3250  144.0070 C   0  0  0  0  0  0  0  0  0  0  0  0
  194.4790  172.6110  142.9120 N   0  0  0  0  0  0  0  0  0  0  0  0
  194.6000  171.2720  142.6150 O   0  0  0  0  0  1  0  0  0  0  0  0
  192.1210  172.5330  143.5270 C   0  0  0  0  0  3  0  0  0  0  0  0
  193.4330  174.5620  143.5770 C   0  0  0  0  0  0  0  0  0  0  0  0
  196.6540  173.1900  142.4380 O   0  0  0  0  0  0  0  0  0  0  0  0
  195.4930  173.4990  142.8120 C   0  0  0  0  0  0  0  0  0  0  0  0
  193.3300  173.1970  143.3340 C   0  0  0  0  0  0  0  0  0  0  0  0
  195.0140  175.0600  143.2450 S   0  0  0  0  0  0  0  0  0  0  0  0
  192.1110  177.7170  143.2920 C   0  0  0  0  0  1  0  0  0  0  0  0
  193.1330  177.1660  145.5060 C   0  0  0  0  0  1  0  0  0  0  0  0
  192.4920  176.7230  144.2800 N   0  0  0  0  0  0  0  0  0  0  0  0
  185.7020  178.7040  146.3720 C   0  0  0  0  0  2  0  0  0  0  0  0
  186.9090  177.9960  146.9810 C   0  0  0  0  0  2  0  0  0  0  0  0
  187.7750  175.8010  147.2950 F   0  0  0  0  0  0  0  0  0  0  0  0
  185.9530  176.4140  148.4830 F   0  0  0  0  0  0  0  0  0  0  0  0
  186.6030  176.5340  147.2670 C   0  0  0  0  0  0  0  0  0  0  0  0
  185.7860  176.0410  146.2690 F   0  0  0  0  0  0  0  0  0  0  0  0
  1 11  1  6  0  0  0
  1 18  1  0  0  0  0
  2 18  1  6  0  0  0
  2 13  1  0  0  0  0
  2 15  1  0  0  0  0
  2  3  1  0  0  0  0
  3 19  1  6  0  0  0
  4  9  1  0  0  0  0
  4  7  2  0  0  0  0
  5  8  1  0  0  0  0
  6 17  2  0  0  0  0
  7 14  1  0  0  0  0
  7  5  1  0  0  0  0
  8 33  1  1  0  0  0
  9 12  2  0  0  0  0
 10  8  1  0  0  0  0
 12 13  1  0  0  0  0
 12  5  1  0  0  0  0
 14 10  2  0  0  0  0
 15  3  1  0  0  0  0
 16  4  1  0  0  0  0
 17  1  1  0  0  0  0
 17  9  1  0  0  0  0
 20 19  2  0  0  0  0
 21 19  1  0  0  0  0
 21 32  1  0  0  0  0
 22 28  1  0  0  0  0
 23 22  1  0  0  0  0
 24 20  1  0  0  0  0
 25 21  2  0  0  0  0
 26 27  2  0  0  0  0
 27 22  1  0  0  0  0
 27 29  1  0  0  0  0
 28 24  2  0  0  0  0
 28 25  1  0  0  0  0
 29 25  1  0  0  0  0
 30 32  1  0  0  0  0
 32 31  1  0  0  0  0
 33 34  1  0  0  0  0
 34 37  1  0  0  0  0
 37 35  1  0  0  0  0
 37 36  1  0  0  0  0
 38 37  1  0  0  0  0
M  END
>  <MODEL>
5

>  <REMARK>
 VINA RESULT:      -7.3      3.302      8.380
  Name = 
  5 active torsions:
  status: ('A' for Active; 'I' for Inactive)
    1  A    between atoms: C_1  and  C_5
    2  A    between atoms: C_6  and  N_36
    3  A    between atoms: C_9  and  C_26
    4  A    between atoms: C_9  and  C_35
    5  A    between atoms: C_15  and  C_35
                            x       y       z     vdW  Elec       q    Type
                         _______ _______ _______ _____ _____    ______ ____

>  <TORSDO>
F 5

$$$$
=
 OpenBabel11062419243D

 38 43  0  0  1  0  0  0  0  0999 V2000
  192.2420  175.9410  146.7850 C   0  0  2  0  0  3  0  0  0  0  0  0
  191.0110  174.9390  144.8360 C   0  0  2  0  0  0  0  0  0  0  0  0
  189.5820  174.6520  144.3700 C   0  0  1  0  0  3  0  0  0  0  0  0
  195.3240  174.0360  145.4890 C   0  0  0  0  0  0  0  0  0  0  0  0
  194.0620  172.9320  144.0440 N   0  0  0  0  0  0  0  0  0  0  0  0
  194.5190  176.6590  146.5800 O   0  0  0  0  0  0  0  0  0  0  0  0
  195.2690  173.0120  144.5770 C   0  0  0  0  0  0  0  0  0  0  0  0
  194.2480  172.4840  142.6730 C   0  0  1  0  0  3  0  0  0  0  0  0
  194.0500  174.5910  145.5340 C   0  0  0  0  0  0  0  0  0  0  0  0
  195.7020  172.2770  142.5870 N   0  0  0  0  0  0  0  0  0  0  0  0
  192.1520  176.9730  147.7210 O   0  0  0  0  0  1  0  0  0  0  0  0
  193.2970  173.9100  144.5680 C   0  0  0  0  0  0  0  0  0  0  0  0
  192.0720  174.4300  143.8750 C   0  0  0  0  0  2  0  0  0  0  0  0
  196.2810  172.6050  143.6760 N   0  0  0  0  0  0  0  0  0  0  0  0
  190.1990  173.8730  145.5360 C   0  0  0  0  0  2  0  0  0  0  0  0
  196.4620  174.5060  146.1340 O   0  0  0  0  0  1  0  0  0  0  0  0
  193.6530  175.7870  146.2980 C   0  0  0  0  0  0  0  0  0  0  0  0
  191.2810  176.2120  145.6410 C   0  0  0  0  0  2  0  0  0  0  0  0
  188.5770  175.6920  144.8130 C   0  0  0  0  0  0  0  0  0  0  0  0
  188.1190  175.7220  146.1510 C   0  0  0  0  0  3  0  0  0  0  0  0
  188.0270  176.5960  143.8670 C   0  0  0  0  0  0  0  0  0  0  0  0
  185.7120  178.4980  145.9070 N   0  0  0  0  0  0  0  0  0  0  0  0
  185.1550  178.7060  147.1490 O   0  0  0  0  0  1  0  0  0  0  0  0
  187.1550  176.6480  146.5710 C   0  0  0  0  0  3  0  0  0  0  0  0
  187.0650  177.5100  144.3150 C   0  0  0  0  0  0  0  0  0  0  0  0
  184.5650  180.1660  144.8150 O   0  0  0  0  0  0  0  0  0  0  0  0
  185.4000  179.2230  144.8100 C   0  0  0  0  0  0  0  0  0  0  0  0
  186.6390  177.5440  145.6380 C   0  0  0  0  0  0  0  0  0  0  0  0
  186.2610  178.7180  143.4480 S   0  0  0  0  0  0  0  0  0  0  0  0
  187.8160  175.6140  141.5700 C   0  0  0  0  0  1  0  0  0  0  0  0
  189.4980  177.4100  142.0130 C   0  0  0  0  0  1  0  0  0  0  0  0
  188.4160  176.5660  142.4890 N   0  0  0  0  0  0  0  0  0  0  0  0
  193.4880  171.1850  142.4080 C   0  0  0  0  0  2  0  0  0  0  0  0
  192.2400  171.4030  141.5570 C   0  0  0  0  0  2  0  0  0  0  0  0
  190.0900  172.2380  142.1480 F   0  0  0  0  0  0  0  0  0  0  0  0
  190.3750  169.9990  142.0260 F   0  0  0  0  0  0  0  0  0  0  0  0
  190.9730  171.1980  142.3730 C   0  0  0  0  0  0  0  0  0  0  0  0
  191.3020  171.1660  143.7140 F   0  0  0  0  0  0  0  0  0  0  0  0
  1 11  1  1  0  0  0
  2 13  1  6  0  0  0
  2 15  1  0  0  0  0
  2 18  1  0  0  0  0
  3 19  1  1  0  0  0
  3  2  1  0  0  0  0
  3 15  1  0  0  0  0
  4  9  1  0  0  0  0
  4 16  1  0  0  0  0
  5 12  1  0  0  0  0
  5  7  1  0  0  0  0
  7  4  2  0  0  0  0
  8 33  1  1  0  0  0
  8  5  1  0  0  0  0
  9 17  1  0  0  0  0
 10  8  1  0  0  0  0
 10 14  2  0  0  0  0
 12  9  2  0  0  0  0
 13 12  1  0  0  0  0
 14  7  1  0  0  0  0
 17  6  2  0  0  0  0
 17  1  1  0  0  0  0
 18  1  1  0  0  0  0
 19 20  1  0  0  0  0
 20 24  2  0  0  0  0
 21 25  1  0  0  0  0
 21 19  2  0  0  0  0
 22 23  1  0  0  0  0
 25 28  2  0  0  0  0
 27 26  2  0  0  0  0
 27 22  1  0  0  0  0
 28 22  1  0  0  0  0
 28 24  1  0  0  0  0
 29 25  1  0  0  0  0
 29 27  1  0  0  0  0
 30 32  1  0  0  0  0
 31 32  1  0  0  0  0
 32 21  1  0  0  0  0
 34 37  1  0  0  0  0
 34 33  1  0  0  0  0
 35 37  1  0  0  0  0
 36 37  1  0  0  0  0
 37 38  1  0  0  0  0
M  END
>  <MODEL>
6

>  <REMARK>
 VINA RESULT:      -7.2      3.292      4.573
  Name = 
  5 active torsions:
  status: ('A' for Active; 'I' for Inactive)
    1  A    between atoms: C_1  and  C_5
    2  A    between atoms: C_6  and  N_36
    3  A    between atoms: C_9  and  C_26
    4  A    between atoms: C_9  and  C_35
    5  A    between atoms: C_15  and  C_35
                            x       y       z     vdW  Elec       q    Type
                         _______ _______ _______ _____ _____    ______ ____

>  <TORSDO>
F 5

$$$$
=
 OpenBabel11062419243D

 38 43  0  0  1  0  0  0  0  0999 V2000
  190.6130  172.6770  142.1040 C   0  0  2  0  0  3  0  0  0  0  0  0
  191.6010  174.0330  143.9770 C   0  0  2  0  0  0  0  0  0  0  0  0
  191.6350  175.4720  144.4960 C   0  0  1  0  0  3  0  0  0  0  0  0
  193.3170  170.0610  142.9150 C   0  0  0  0  0  0  0  0  0  0  0  0
  194.3210  171.4880  144.2770 N   0  0  0  0  0  0  0  0  0  0  0  0
  190.4480  170.2910  142.2510 O   0  0  0  0  0  0  0  0  0  0  0  0
  194.4280  170.3130  143.6790 C   0  0  0  0  0  0  0  0  0  0  0  0
  194.9980  171.3590  145.5580 C   0  0  1  0  0  3  0  0  0  0  0  0
  192.4960  171.1780  143.0330 C   0  0  0  0  0  0  0  0  0  0  0  0
  195.5280  169.9870  145.5150 N   0  0  0  0  0  0  0  0  0  0  0  0
  189.4590  172.5650  141.3270 O   0  0  0  0  0  1  0  0  0  0  0  0
  193.1320  172.0300  143.9450 C   0  0  0  0  0  0  0  0  0  0  0  0
  192.4670  173.0800  144.7840 C   0  0  0  0  0  2  0  0  0  0  0  0
  195.1760  169.3890  144.4440 N   0  0  0  0  0  0  0  0  0  0  0  0
  192.3470  175.0880  143.1940 C   0  0  0  0  0  2  0  0  0  0  0  0
  193.0170  168.8710  142.2640 O   0  0  0  0  0  1  0  0  0  0  0  0
  191.1430  171.3210  142.4690 C   0  0  0  0  0  0  0  0  0  0  0  0
  190.3130  173.5110  143.3380 C   0  0  0  0  0  2  0  0  0  0  0  0
  190.3460  176.2300  144.2690 C   0  0  0  0  0  0  0  0  0  0  0  0
  190.0610  176.7970  143.0040 C   0  0  0  0  0  3  0  0  0  0  0  0
  189.4510  176.4480  145.3480 C   0  0  0  0  0  0  0  0  0  0  0  0
  186.8460  178.4170  143.7760 N   0  0  0  0  0  0  0  0  0  0  0  0
  186.3760  179.0250  142.6330 O   0  0  0  0  0  1  0  0  0  0  0  0
  188.8940  177.5410  142.7850 C   0  0  0  0  0  3  0  0  0  0  0  0
  188.2940  177.1970  145.1010 C   0  0  0  0  0  0  0  0  0  0  0  0
  185.0890  179.0080  145.1380 O   0  0  0  0  0  0  0  0  0  0  0  0
  186.1950  178.4330  144.9600 C   0  0  0  0  0  0  0  0  0  0  0  0
  188.0130  177.7280  143.8480 C   0  0  0  0  0  0  0  0  0  0  0  0
  187.0370  177.5920  146.1590 S   0  0  0  0  0  0  0  0  0  0  0  0
  190.5840  176.6800  147.5720 C   0  0  0  0  0  1  0  0  0  0  0  0
  189.2410  174.6350  147.0610 C   0  0  0  0  0  1  0  0  0  0  0  0
  189.7260  175.9440  146.6610 N   0  0  0  0  0  0  0  0  0  0  0  0
  196.1240  172.3830  145.6930 C   0  0  0  0  0  2  0  0  0  0  0  0
  196.5230  172.9910  144.3510 C   0  0  0  0  0  2  0  0  0  0  0  0
  195.5370  174.7410  143.0730 F   0  0  0  0  0  0  0  0  0  0  0  0
  195.2980  174.7890  145.3200 F   0  0  0  0  0  0  0  0  0  0  0  0
  196.1520  174.4640  144.2800 C   0  0  0  0  0  0  0  0  0  0  0  0
  197.3010  175.2230  144.3870 F   0  0  0  0  0  0  0  0  0  0  0  0
  1 11  1  1  0  0  0
  1 17  1  0  0  0  0
  1 18  1  0  0  0  0
  2 15  1  6  0  0  0
  2  3  1  0  0  0  0
  2 13  1  0  0  0  0
  3 19  1  6  0  0  0
  4  9  1  0  0  0  0
  4  7  2  0  0  0  0
  5  8  1  0  0  0  0
  6 17  2  0  0  0  0
  7  5  1  0  0  0  0
  7 14  1  0  0  0  0
  8 33  1  6  0  0  0
  9 12  2  0  0  0  0
 10  8  1  0  0  0  0
 12  5  1  0  0  0  0
 12 13  1  0  0  0  0
 14 10  2  0  0  0  0
 15  3  1  0  0  0  0
 16  4  1  0  0  0  0
 17  9  1  0  0  0  0
 18  2  1  0  0  0  0
 19 21  1  0  0  0  0
 20 19  2  0  0  0  0
 21 32  1  0  0  0  0
 22 28  1  0  0  0  0
 22 27  1  0  0  0  0
 23 22  1  0  0  0  0
 24 20  1  0  0  0  0
 24 28  2  0  0  0  0
 25 21  2  0  0  0  0
 25 29  1  0  0  0  0
 27 26  2  0  0  0  0
 27 29  1  0  0  0  0
 28 25  1  0  0  0  0
 32 31  1  0  0  0  0
 32 30  1  0  0  0  0
 34 33  1  0  0  0  0
 35 37  1  0  0  0  0
 37 34  1  0  0  0  0
 37 38  1  0  0  0  0
 37 36  1  0  0  0  0
M  END
>  <MODEL>
7

>  <REMARK>
 VINA RESULT:      -6.9      1.496      1.952
  Name = 
  5 active torsions:
  status: ('A' for Active; 'I' for Inactive)
    1  A    between atoms: C_1  and  C_5
    2  A    between atoms: C_6  and  N_36
    3  A    between atoms: C_9  and  C_26
    4  A    between atoms: C_9  and  C_35
    5  A    between atoms: C_15  and  C_35
                            x       y       z     vdW  Elec       q    Type
                         _______ _______ _______ _____ _____    ______ ____

>  <TORSDO>
F 5

$$$$
=
 OpenBabel11062419243D

 38 43  0  0  1  0  0  0  0  0999 V2000
  190.3450  175.8440  146.6170 C   0  0  2  0  0  3  0  0  0  0  0  0
  190.0880  176.1390  144.1340 C   0  0  2  0  0  0  0  0  0  0  0  0
  190.9420  176.2720  142.8710 C   0  0  1  0  0  3  0  0  0  0  0  0
  186.7310  177.1390  146.8870 C   0  0  0  0  0  0  0  0  0  0  0  0
  186.7490  177.7030  144.7460 N   0  0  0  0  0  0  0  0  0  0  0  0
  188.5290  175.0620  147.9710 O   0  0  0  0  0  0  0  0  0  0  0  0
  186.0690  177.7900  145.8760 C   0  0  0  0  0  0  0  0  0  0  0  0
  185.7650  177.6510  143.6770 C   0  0  1  0  0  3  0  0  0  0  0  0
  187.9120  176.6540  146.3350 C   0  0  0  0  0  0  0  0  0  0  0  0
  184.4890  177.7920  144.3970 N   0  0  0  0  0  0  0  0  0  0  0  0
  191.1410  175.1970  147.5650 O   0  0  0  0  0  1  0  0  0  0  0  0
  187.8630  176.9760  144.9720 C   0  0  0  0  0  0  0  0  0  0  0  0
  188.5970  176.2710  143.8710 C   0  0  0  0  0  2  0  0  0  0  0  0
  184.6730  177.8470  145.6580 N   0  0  0  0  0  0  0  0  0  0  0  0
  190.9030  177.3930  143.9150 C   0  0  0  0  0  2  0  0  0  0  0  0
  186.2500  176.9000  148.1680 O   0  0  0  0  0  1  0  0  0  0  0  0
  188.8990  175.7990  147.0170 C   0  0  0  0  0  0  0  0  0  0  0  0
  190.5700  175.2140  145.2540 C   0  0  0  0  0  2  0  0  0  0  0  0
  192.2190  175.4630  142.9130 C   0  0  0  0  0  0  0  0  0  0  0  0
  193.4190  176.0410  143.3910 C   0  0  0  0  0  3  0  0  0  0  0  0
  192.2400  174.1420  142.3950 C   0  0  0  0  0  0  0  0  0  0  0  0
  195.7120  173.2100  142.8590 N   0  0  0  0  0  0  0  0  0  0  0  0
  196.9660  173.5730  143.2960 O   0  0  0  0  0  1  0  0  0  0  0  0
  194.6220  175.3240  143.3960 C   0  0  0  0  0  3  0  0  0  0  0  0
  193.4570  173.4500  142.4110 C   0  0  0  0  0  0  0  0  0  0  0  0
  196.2650  171.0790  142.1950 O   0  0  0  0  0  0  0  0  0  0  0  0
  195.4180  171.9990  142.3360 C   0  0  0  0  0  0  0  0  0  0  0  0
  194.6240  174.0200  142.9050 C   0  0  0  0  0  0  0  0  0  0  0  0
  193.7900  171.8720  141.9040 S   0  0  0  0  0  0  0  0  0  0  0  0
  190.2150  172.6900  142.6670 C   0  0  0  0  0  1  0  0  0  0  0  0
  190.7640  173.6640  140.4310 C   0  0  0  0  0  1  0  0  0  0  0  0
  191.0640  173.5350  141.8460 N   0  0  0  0  0  0  0  0  0  0  0  0
  185.9690  178.7930  142.6830 C   0  0  0  0  0  2  0  0  0  0  0  0
  186.3740  178.2950  141.2990 C   0  0  0  0  0  2  0  0  0  0  0  0
  184.1210  177.5420  141.1470 F   0  0  0  0  0  0  0  0  0  0  0  0
  184.7550  179.2900  139.8630 F   0  0  0  0  0  0  0  0  0  0  0  0
  185.1570  178.0850  140.4100 C   0  0  0  0  0  0  0  0  0  0  0  0
  185.4900  177.2150  139.3900 F   0  0  0  0  0  0  0  0  0  0  0  0
  1 17  1  0  0  0  0
  1 11  1  1  0  0  0
  2 13  1  6  0  0  0
  2 18  1  0  0  0  0
  3 19  1  1  0  0  0
  3 15  1  0  0  0  0
  3  2  1  0  0  0  0
  4 16  1  0  0  0  0
  5 12  1  0  0  0  0
  5  7  1  0  0  0  0
  7  4  2  0  0  0  0
  8 33  1  6  0  0  0
  8 10  1  0  0  0  0
  8  5  1  0  0  0  0
  9  4  1  0  0  0  0
  9 17  1  0  0  0  0
 10 14  2  0  0  0  0
 12  9  2  0  0  0  0
 13 12  1  0  0  0  0
 14  7  1  0  0  0  0
 15  2  1  0  0  0  0
 17  6  2  0  0  0  0
 18  1  1  0  0  0  0
 19 20  1  0  0  0  0
 20 24  2  0  0  0  0
 21 25  1  0  0  0  0
 21 19  2  0  0  0  0
 22 28  1  0  0  0  0
 22 23  1  0  0  0  0
 25 28  2  0  0  0  0
 26 27  2  0  0  0  0
 27 22  1  0  0  0  0
 28 24  1  0  0  0  0
 29 27  1  0  0  0  0
 29 25  1  0  0  0  0
 31 32  1  0  0  0  0
 32 21  1  0  0  0  0
 32 30  1  0  0  0  0
 34 33  1  0  0  0  0
 36 37  1  0  0  0  0
 37 35  1  0  0  0  0
 37 34  1  0  0  0  0
 38 37  1  0  0  0  0
M  END
>  <MODEL>
8

>  <REMARK>
 VINA RESULT:      -6.8      4.241      8.931
  Name = 
  5 active torsions:
  status: ('A' for Active; 'I' for Inactive)
    1  A    between atoms: C_1  and  C_5
    2  A    between atoms: C_6  and  N_36
    3  A    between atoms: C_9  and  C_26
    4  A    between atoms: C_9  and  C_35
    5  A    between atoms: C_15  and  C_35
                            x       y       z     vdW  Elec       q    Type
                         _______ _______ _______ _____ _____    ______ ____

>  <TORSDO>
F 5

$$$$
=
 OpenBabel11062419243D

 38 43  0  0  1  0  0  0  0  0999 V2000
  190.1000  172.9850  141.2020 C   0  0  2  0  0  3  0  0  0  0  0  0
  190.6240  174.2470  143.3130 C   0  0  2  0  0  0  0  0  0  0  0  0
  191.2720  174.0300  144.6820 C   0  0  1  0  0  3  0  0  0  0  0  0
  187.5450  175.7710  140.4770 C   0  0  0  0  0  0  0  0  0  0  0  0
  187.8210  176.5860  142.5160 N   0  0  0  0  0  0  0  0  0  0  0  0
  189.6190  174.1350  139.1550 O   0  0  0  0  0  0  0  0  0  0  0  0
  187.0950  176.6660  141.4140 C   0  0  0  0  0  0  0  0  0  0  0  0
  187.8740  177.9290  143.0710 C   0  0  1  0  0  3  0  0  0  0  0  0
  188.5960  175.0780  141.0680 C   0  0  0  0  0  0  0  0  0  0  0  0
  187.0240  178.7010  142.1500 N   0  0  0  0  0  0  0  0  0  0  0  0
  190.6200  172.0010  140.3590 O   0  0  0  0  0  1  0  0  0  0  0  0
  188.7810  175.6580  142.3300 C   0  0  0  0  0  0  0  0  0  0  0  0
  190.0480  175.6410  143.1330 C   0  0  0  0  0  2  0  0  0  0  0  0
  186.6020  177.9720  141.1920 N   0  0  0  0  0  0  0  0  0  0  0  0
  189.9280  173.3800  144.3370 C   0  0  0  0  0  2  0  0  0  0  0  0
  187.1210  175.6750  139.1580 O   0  0  0  0  0  1  0  0  0  0  0  0
  189.4590  174.0840  140.4050 C   0  0  0  0  0  0  0  0  0  0  0  0
  191.2040  173.5160  142.1000 C   0  0  0  0  0  2  0  0  0  0  0  0
  192.4290  173.0550  144.6590 C   0  0  0  0  0  0  0  0  0  0  0  0
  192.1930  171.6640  144.5580 C   0  0  0  0  0  3  0  0  0  0  0  0
  193.7580  173.5260  144.8220 C   0  0  0  0  0  0  0  0  0  0  0  0
  195.6610  170.4420  144.7460 N   0  0  0  0  0  0  0  0  0  0  0  0
  195.6490  169.0700  144.6400 O   0  0  0  0  0  1  0  0  0  0  0  0
  193.2470  170.7410  144.5810 C   0  0  0  0  0  3  0  0  0  0  0  0
  194.7920  172.5810  144.8420 C   0  0  0  0  0  0  0  0  0  0  0  0
  197.9410  170.6780  144.9360 O   0  0  0  0  0  0  0  0  0  0  0  0
  196.7870  171.1770  144.8870 C   0  0  0  0  0  0  0  0  0  0  0  0
  194.5480  171.2190  144.7180 C   0  0  0  0  0  0  0  0  0  0  0  0
  196.4570  172.8310  144.9840 S   0  0  0  0  0  0  0  0  0  0  0  0
  194.3090  175.7640  143.8350 C   0  0  0  0  0  1  0  0  0  0  0  0
  194.1790  175.4890  146.3170 C   0  0  0  0  0  1  0  0  0  0  0  0
  194.0420  174.9210  144.9870 N   0  0  0  0  0  0  0  0  0  0  0  0
  187.3190  177.9610  144.4950 C   0  0  0  0  0  2  0  0  0  0  0  0
  187.1530  176.5650  145.0860 C   0  0  0  0  0  2  0  0  0  0  0  0
  188.7410  177.4580  146.6190 F   0  0  0  0  0  0  0  0  0  0  0  0
  186.8100  176.6200  147.4430 F   0  0  0  0  0  0  0  0  0  0  0  0
  187.7820  176.4730  146.4690 C   0  0  0  0  0  0  0  0  0  0  0  0
  188.3790  175.2360  146.6110 F   0  0  0  0  0  0  0  0  0  0  0  0
  1 11  1  6  0  0  0
  1 18  1  0  0  0  0
  2 18  1  6  0  0  0
  2 15  1  0  0  0  0
  2  3  1  0  0  0  0
  3 19  1  6  0  0  0
  4  9  1  0  0  0  0
  4  7  2  0  0  0  0
  5  8  1  0  0  0  0
  6 17  2  0  0  0  0
  7  5  1  0  0  0  0
  8 33  1  1  0  0  0
  9 12  2  0  0  0  0
 10  8  1  0  0  0  0
 12  5  1  0  0  0  0
 12 13  1  0  0  0  0
 13  2  1  0  0  0  0
 14  7  1  0  0  0  0
 14 10  2  0  0  0  0
 15  3  1  0  0  0  0
 16  4  1  0  0  0  0
 17  9  1  0  0  0  0
 17  1  1  0  0  0  0
 19 21  1  0  0  0  0
 20 24  1  0  0  0  0
 20 19  2  0  0  0  0
 21 25  2  0  0  0  0
 21 32  1  0  0  0  0
 22 27  1  0  0  0  0
 23 22  1  0  0  0  0
 24 28  2  0  0  0  0
 25 29  1  0  0  0  0
 27 26  2  0  0  0  0
 27 29  1  0  0  0  0
 28 22  1  0  0  0  0
 28 25  1  0  0  0  0
 30 32  1  0  0  0  0
 32 31  1  0  0  0  0
 33 34  1  0  0  0  0
 34 37  1  0  0  0  0
 37 38  1  0  0  0  0
 37 35  1  0  0  0  0
 37 36  1  0  0  0  0
M  END
>  <MODEL>
9

>  <REMARK>
 VINA RESULT:      -6.6      3.497      8.195
  Name = 
  5 active torsions:
  status: ('A' for Active; 'I' for Inactive)
    1  A    between atoms: C_1  and  C_5
    2  A    between atoms: C_6  and  N_36
    3  A    between atoms: C_9  and  C_26
    4  A    between atoms: C_9  and  C_35
    5  A    between atoms: C_15  and  C_35
                            x       y       z     vdW  Elec       q    Type
                         _______ _______ _______ _____ _____    ______ ____

>  <TORSDO>
F 5

$$$$
