=
 OpenBabel11072408513D

 60 69  0  0  1  0  0  0  0  0999 V2000
  188.3690  175.3320  141.5350 C   0  0  0  0  0  0  0  0  0  0  0  0
  189.3900  173.3030  140.6830 C   0  0  0  0  0  0  0  0  0  0  0  0
  187.6160  176.3200  141.3370 O   0  0  0  0  0  0  0  0  0  0  0  0
  188.1550  174.3790  139.1050 C   0  0  0  0  0  3  0  0  0  0  0  0
  189.4780  172.4810  139.4460 C   0  0  1  0  0  3  0  0  0  0  0  0
  189.7610  174.0340  143.0740 C   0  0  0  0  0  0  0  0  0  0  0  0
  189.9920  172.9670  142.0200 C   0  0  0  0  0  2  0  0  0  0  0  0
  188.6340  174.3610  140.4750 C   0  0  0  0  0  0  0  0  0  0  0  0
  188.6400  173.2980  138.5000 C   0  0  0  0  0  3  0  0  0  0  0  0
  189.0000  175.1150  142.8470 C   0  0  0  0  0  3  0  0  0  0  0  0
  190.9230  172.4230  138.9610 C   0  0  0  0  0  2  0  0  0  0  0  0
  196.1880  171.6590  144.1430 C   0  0  1  0  0  3  0  0  0  0  0  0
  195.9750  171.5940  145.6480 C   0  0  1  0  0  3  0  0  0  0  0  0
  194.8650  171.1520  144.6850 C   0  0  2  0  0  3  0  0  0  0  0  0
  194.1480  172.6880  139.3240 O   0  0  0  0  0  0  0  0  0  0  0  0
  195.9900  173.0840  143.6720 C   0  0  0  0  0  2  0  0  0  0  0  0
  197.1880  173.5250  142.8590 C   0  0  0  0  0  2  0  0  0  0  0  0
  194.1080  171.2820  139.1220 C   0  0  1  0  0  3  0  0  0  0  0  0
  191.8420  170.9810  140.7940 C   0  0  0  0  0  2  0  0  0  0  0  0
  194.3020  170.5570  140.4610 C   0  0  0  0  0  2  0  0  0  0  0  0
  193.1150  169.9090  142.6200 C   0  0  1  0  0  3  0  0  0  0  0  0
  193.0000  170.0390  141.1020 C   0  0  1  0  0  3  0  0  0  0  0  0
  196.4320  172.8320  139.0340 O   0  0  0  0  0  0  0  0  0  0  0  0
  192.8100  170.8730  138.4190 C   0  0  0  0  0  2  0  0  0  0  0  0
  195.3640  174.6840  139.9250 O   0  0  0  0  0  0  0  0  0  0  0  0
  193.1630  168.4410  142.9960 C   0  0  0  0  0  2  0  0  0  0  0  0
  191.5610  171.0790  139.2890 C   0  0  2  0  0  3  0  0  0  0  0  0
  194.7330  169.6350  144.5000 C   0  0  0  0  0  2  0  0  0  0  0  0
  194.4280  169.2690  143.0530 C   0  0  2  0  0  3  0  0  0  0  0  0
  196.8210  170.4640  146.2240 C   0  0  0  0  0  1  0  0  0  0  0  0
  197.5430  174.9020  140.9900 C   0  0  0  0  0  2  0  0  0  0  0  0
  196.9580  174.8570  142.3230 N   0  0  0  0  0  0  0  0  0  0  0  0
  196.5440  175.4800  139.9920 C   0  0  0  0  0  2  0  0  0  0  0  0
  195.3560  173.3820  139.4090 C   0  0  0  0  0  0  0  0  0  0  0  0
  197.6350  175.8430  143.1670 C   0  0  0  0  0  2  0  0  0  0  0  0
  196.8730  177.0090  143.3160 O   0  0  0  0  0  1  0  0  0  0  0  0
  190.3610  173.8490  144.4280 C   0  0  0  0  0  2  0  0  0  0  0  0
  192.4060  175.0670  143.6680 C   0  0  0  0  0  3  0  0  0  0  0  0
  193.4250  176.0030  143.8560 C   0  0  0  0  0  3  0  0  0  0  0  0
  193.5080  176.7190  145.0550 C   0  0  0  0  0  0  0  0  0  0  0  0
  191.4620  174.8350  144.6780 C   0  0  0  0  0  0  0  0  0  0  0  0
  192.5740  176.4920  146.0680 C   0  0  0  0  0  3  0  0  0  0  0  0
  191.5530  175.5470  145.8930 C   0  0  0  0  0  0  0  0  0  0  0  0
  194.4920  177.6310  145.2320 F   0  0  0  0  0  0  0  0  0  0  0  0
  190.5580  175.3350  146.9940 C   0  0  0  0  0  2  0  0  0  0  0  0
  187.2750  178.6690  147.7590 C   0  0  0  0  0  2  0  0  0  0  0  0
  184.8970  178.8260  147.6700 O   0  0  0  0  0  1  0  0  0  0  0  0
  189.3130  176.1320  146.7680 C   0  0  0  0  0  0  0  0  0  0  0  0
  187.9430  177.8510  146.7660 N   0  0  0  0  0  0  0  0  0  0  0  0
  188.0050  175.5340  146.3780 C   0  0  0  0  0  2  0  0  0  0  0  0
  187.1090  176.7770  146.2590 C   0  0  1  0  0  0  0  0  0  0  0  0
  185.9050  176.7090  147.1980 C   0  0  0  0  0  2  0  0  0  0  0  0
  189.2380  177.3950  147.0070 N   0  0  0  0  0  0  0  0  0  0  0  0
  185.9450  177.9830  148.0430 C   0  0  1  0  0  3  0  0  0  0  0  0
  184.7740  177.4140  142.4000 O   0  0  0  0  0  1  0  0  0  0  0  0
  185.0480  178.1290  143.5650 C   0  0  1  0  0  3  0  0  0  0  0  0
  187.3250  178.2720  144.3530 C   0  0  0  0  0  2  0  0  0  0  0  0
  185.3020  177.1620  144.6980 C   0  0  0  0  0  2  0  0  0  0  0  0
  186.7510  177.0200  144.8460 N   0  0  2  0  0  0  0  0  0  0  0  0
  186.3380  178.8920  143.3880 C   0  0  0  0  0  2  0  0  0  0  0  0
  1 10  1  0  0  0  0
  2  7  1  0  0  0  0
  3  1  2  0  0  0  0
  4  8  1  0  0  0  0
  5 11  1  6  0  0  0
  5  2  1  0  0  0  0
  6 37  1  0  0  0  0
  7  6  1  0  0  0  0
  8  2  2  0  0  0  0
  8  1  1  0  0  0  0
  9  4  2  0  0  0  0
  9  5  1  0  0  0  0
 10  6  2  0  0  0  0
 12 16  1  6  0  0  0
 12 14  1  0  0  0  0
 12 13  1  0  0  0  0
 13 30  1  1  0  0  0
 14 28  1  1  0  0  0
 14 13  1  0  0  0  0
 15 34  1  0  0  0  0
 17 16  1  0  0  0  0
 18 24  1  1  0  0  0
 18 15  1  0  0  0  0
 18 20  1  0  0  0  0
 19 22  1  0  0  0  0
 21 26  1  6  0  0  0
 21 29  1  0  0  0  0
 22 20  1  1  0  0  0
 22 21  1  0  0  0  0
 23 34  2  0  0  0  0
 24 27  1  0  0  0  0
 25 33  1  0  0  0  0
 27 11  1  1  0  0  0
 27 19  1  0  0  0  0
 29 26  1  1  0  0  0
 29 28  1  0  0  0  0
 31 32  1  0  0  0  0
 32 17  1  0  0  0  0
 32 35  1  0  0  0  0
 33 31  1  0  0  0  0
 34 25  1  0  0  0  0
 35 36  1  0  0  0  0
 37 41  1  0  0  0  0
 38 39  2  0  0  0  0
 38 41  1  0  0  0  0
 39 40  1  0  0  0  0
 40 44  1  0  0  0  0
 40 42  2  0  0  0  0
 41 43  2  0  0  0  0
 43 42  1  0  0  0  0
 43 45  1  0  0  0  0
 46 54  1  0  0  0  0
 48 45  1  0  0  0  0
 48 53  2  0  0  0  0
 49 53  1  0  0  0  0
 49 46  1  0  0  0  0
 50 48  1  0  0  0  0
 51 50  1  1  0  0  0
 51 49  1  0  0  0  0
 51 52  1  0  0  0  0
 52 54  1  0  0  0  0
 54 47  1  6  0  0  0
 56 55  1  6  0  0  0
 56 58  1  0  0  0  0
 58 59  1  0  0  0  0
 59 57  1  1  0  0  0
 59 51  1  0  0  0  0
 60 56  1  0  0  0  0
 60 57  1  0  0  0  0
M  END
>  <MODEL>
1

>  <REMARK>
 VINA RESULT:      -9.5      0.000      0.000
  Name = 
  8 active torsions:
  status: ('A' for Active; 'I' for Inactive)
    1  A    between atoms: C_6  and  C_30
    2  A    between atoms: C_6  and  C_42
    3  A    between atoms: C_10  and  C_25
    4  A    between atoms: C_13  and  N_51
    5  A    between atoms: C_21  and  C_27
    6  A    between atoms: C_21  and  C_33
    7  A    between atoms: C_24  and  N_54
    8  A    between atoms: C_25  and  C_39
                            x       y       z     vdW  Elec       q    Type
                         _______ _______ _______ _____ _____    ______ ____

>  <TORSDO>
F 8

$$$$
=
 OpenBabel11072408513D

 60 69  0  0  1  0  0  0  0  0999 V2000
  196.8470  175.3920  139.7230 C   0  0  0  0  0  0  0  0  0  0  0  0
  195.2220  174.6580  138.0780 C   0  0  0  0  0  0  0  0  0  0  0  0
  197.9410  175.9630  139.9720 O   0  0  0  0  0  0  0  0  0  0  0  0
  197.0560  175.6030  137.1210 C   0  0  0  0  0  3  0  0  0  0  0  0
  194.9940  174.6260  136.6080 C   0  0  1  0  0  3  0  0  0  0  0  0
  194.8050  174.3250  140.5500 C   0  0  0  0  0  0  0  0  0  0  0  0
  194.2580  174.2030  139.1390 C   0  0  0  0  0  2  0  0  0  0  0  0
  196.3820  175.2200  138.3480 C   0  0  0  0  0  0  0  0  0  0  0  0
  196.2630  175.2610  136.1090 C   0  0  0  0  0  3  0  0  0  0  0  0
  195.9940  174.8870  140.8110 C   0  0  0  0  0  3  0  0  0  0  0  0
  194.8980  173.1820  136.1280 C   0  0  0  0  0  2  0  0  0  0  0  0
  189.6540  172.0550  141.2660 C   0  0  1  0  0  3  0  0  0  0  0  0
  188.8810  173.1240  142.0210 C   0  0  1  0  0  3  0  0  0  0  0  0
  189.4550  173.4160  140.6290 C   0  0  2  0  0  3  0  0  0  0  0  0
  193.7430  170.8340  138.0670 O   0  0  0  0  0  0  0  0  0  0  0  0
  191.0680  171.9870  141.8040 C   0  0  0  0  0  2  0  0  0  0  0  0
  191.4060  170.5590  142.1780 C   0  0  0  0  0  2  0  0  0  0  0  0
  192.7880  170.6880  137.0240 C   0  0  1  0  0  3  0  0  0  0  0  0
  192.4860  173.4890  136.7400 C   0  0  0  0  0  2  0  0  0  0  0  0
  191.4500  171.3080  137.4530 C   0  0  0  0  0  2  0  0  0  0  0  0
  190.2340  173.5250  137.7550 C   0  0  1  0  0  3  0  0  0  0  0  0
  191.1830  172.7110  136.8760 C   0  0  1  0  0  3  0  0  0  0  0  0
  193.1830  168.8400  139.0840 O   0  0  0  0  0  0  0  0  0  0  0  0
  193.3170  171.2860  135.7170 C   0  0  0  0  0  2  0  0  0  0  0  0
  194.5120  170.3030  140.2910 O   0  0  0  0  0  0  0  0  0  0  0  0
  188.8920  173.6530  137.0610 C   0  0  0  0  0  2  0  0  0  0  0  0
  193.4630  172.8140  135.7690 C   0  0  2  0  0  3  0  0  0  0  0  0
  188.4400  173.3500  139.4810 C   0  0  0  0  0  2  0  0  0  0  0  0
  189.0390  172.7100  138.2350 C   0  0  2  0  0  3  0  0  0  0  0  0
  187.4040  172.7500  142.0470 C   0  0  0  0  0  1  0  0  0  0  0  0
  193.3260  169.2100  142.1150 C   0  0  0  0  0  2  0  0  0  0  0  0
  192.7950  170.4750  142.6010 N   0  0  0  0  0  0  0  0  0  0  0  0
  194.6610  169.4330  141.4100 C   0  0  0  0  0  2  0  0  0  0  0  0
  193.7930  169.9470  139.1430 C   0  0  0  0  0  0  0  0  0  0  0  0
  192.8560  170.4810  144.0640 C   0  0  0  0  0  2  0  0  0  0  0  0
  192.6860  169.1960  144.5950 O   0  0  0  0  0  1  0  0  0  0  0  0
  193.9680  173.8490  141.6900 C   0  0  0  0  0  2  0  0  0  0  0  0
  195.5090  172.7880  143.3450 C   0  0  0  0  0  3  0  0  0  0  0  0
  196.2550  172.8090  144.5260 C   0  0  0  0  0  3  0  0  0  0  0  0
  196.2290  173.9370  145.3520 C   0  0  0  0  0  0  0  0  0  0  0  0
  194.7280  173.8920  142.9820 C   0  0  0  0  0  0  0  0  0  0  0  0
  195.4490  175.0410  145.0000 C   0  0  0  0  0  3  0  0  0  0  0  0
  194.6890  175.0260  143.8220 C   0  0  0  0  0  0  0  0  0  0  0  0
  196.9580  173.9590  146.4920 F   0  0  0  0  0  0  0  0  0  0  0  0
  193.8730  176.2320  143.4640 C   0  0  0  0  0  2  0  0  0  0  0  0
  190.7370  176.0190  147.0130 C   0  0  0  0  0  2  0  0  0  0  0  0
  188.6460  174.9520  147.4290 O   0  0  0  0  0  1  0  0  0  0  0  0
  192.5360  176.2040  144.1310 C   0  0  0  0  0  0  0  0  0  0  0  0
  191.0000  176.5090  145.6740 N   0  0  0  0  0  0  0  0  0  0  0  0
  191.3680  175.4320  143.6180 C   0  0  0  0  0  2  0  0  0  0  0  0
  190.2810  175.7750  144.6490 C   0  0  1  0  0  0  0  0  0  0  0  0
  189.7310  174.5280  145.3400 C   0  0  0  0  0  2  0  0  0  0  0  0
  192.3130  176.7520  145.2750 N   0  0  0  0  0  0  0  0  0  0  0  0
  189.8970  174.7590  146.8430 C   0  0  1  0  0  3  0  0  0  0  0  0
  187.8620  178.2590  141.6950 O   0  0  0  0  0  1  0  0  0  0  0  0
  188.1380  176.9110  141.9200 C   0  0  1  0  0  3  0  0  0  0  0  0
  187.9140  176.0190  144.1510 C   0  0  0  0  0  2  0  0  0  0  0  0
  189.4800  176.7810  142.6010 C   0  0  0  0  0  2  0  0  0  0  0  0
  189.2390  176.6250  144.0350 N   0  0  2  0  0  0  0  0  0  0  0  0
  187.1330  176.3550  142.9000 C   0  0  0  0  0  2  0  0  0  0  0  0
  1  3  2  0  0  0  0
  1 10  1  0  0  0  0
  2  8  2  0  0  0  0
  2  7  1  0  0  0  0
  4  8  1  0  0  0  0
  5 11  1  6  0  0  0
  5  2  1  0  0  0  0
  6 10  2  0  0  0  0
  6 37  1  0  0  0  0
  7  6  1  0  0  0  0
  8  1  1  0  0  0  0
  9  5  1  0  0  0  0
  9  4  2  0  0  0  0
 12 16  1  1  0  0  0
 12 13  1  0  0  0  0
 13 30  1  6  0  0  0
 14 28  1  6  0  0  0
 14 12  1  0  0  0  0
 14 13  1  0  0  0  0
 15 34  1  0  0  0  0
 16 17  1  0  0  0  0
 17 32  1  0  0  0  0
 18 24  1  6  0  0  0
 18 20  1  0  0  0  0
 18 15  1  0  0  0  0
 21 26  1  6  0  0  0
 21 29  1  0  0  0  0
 22 19  1  1  0  0  0
 22 20  1  0  0  0  0
 22 21  1  0  0  0  0
 23 34  2  0  0  0  0
 24 27  1  0  0  0  0
 25 33  1  0  0  0  0
 27 11  1  1  0  0  0
 27 19  1  0  0  0  0
 29 26  1  6  0  0  0
 29 28  1  0  0  0  0
 31 32  1  0  0  0  0
 32 35  1  0  0  0  0
 33 31  1  0  0  0  0
 34 25  1  0  0  0  0
 35 36  1  0  0  0  0
 37 41  1  0  0  0  0
 38 39  1  0  0  0  0
 39 40  2  0  0  0  0
 40 44  1  0  0  0  0
 41 38  2  0  0  0  0
 41 43  1  0  0  0  0
 42 40  1  0  0  0  0
 43 42  2  0  0  0  0
 45 43  1  0  0  0  0
 45 48  1  0  0  0  0
 48 53  2  0  0  0  0
 49 46  1  0  0  0  0
 50 48  1  0  0  0  0
 51 50  1  6  0  0  0
 51 52  1  0  0  0  0
 51 49  1  0  0  0  0
 52 54  1  0  0  0  0
 53 49  1  0  0  0  0
 54 46  1  0  0  0  0
 54 47  1  1  0  0  0
 56 55  1  1  0  0  0
 56 58  1  0  0  0  0
 56 60  1  0  0  0  0
 59 58  1  6  0  0  0
 59 57  1  0  0  0  0
 59 51  1  0  0  0  0
 60 57  1  0  0  0  0
M  END
>  <MODEL>
2

>  <REMARK>
 VINA RESULT:      -8.8      2.452      5.874
  Name = 
  8 active torsions:
  status: ('A' for Active; 'I' for Inactive)
    1  A    between atoms: C_6  and  C_30
    2  A    between atoms: C_6  and  C_42
    3  A    between atoms: C_10  and  C_25
    4  A    between atoms: C_13  and  N_51
    5  A    between atoms: C_21  and  C_27
    6  A    between atoms: C_21  and  C_33
    7  A    between atoms: C_24  and  N_54
    8  A    between atoms: C_25  and  C_39
                            x       y       z     vdW  Elec       q    Type
                         _______ _______ _______ _____ _____    ______ ____

>  <TORSDO>
F 8

$$$$
=
 OpenBabel11072408513D

 60 69  0  0  1  0  0  0  0  0999 V2000
  193.4410  169.8070  141.7340 C   0  0  0  0  0  0  0  0  0  0  0  0
  191.2820  170.9130  141.7930 C   0  0  0  0  0  0  0  0  0  0  0  0
  194.4660  169.4200  142.3520 O   0  0  0  0  0  0  0  0  0  0  0  0
  192.3280  170.9500  143.8110 C   0  0  0  0  0  3  0  0  0  0  0  0
  190.3650  171.6180  142.7290 C   0  0  1  0  0  3  0  0  0  0  0  0
  192.1590  169.8960  139.6510 C   0  0  0  0  0  0  0  0  0  0  0  0
  191.0020  170.5830  140.3520 C   0  0  0  0  0  2  0  0  0  0  0  0
  192.3750  170.5370  142.4210 C   0  0  0  0  0  0  0  0  0  0  0  0
  191.1710  171.5800  143.9990 C   0  0  0  0  0  3  0  0  0  0  0  0
  193.2740  169.5290  140.2990 C   0  0  0  0  0  3  0  0  0  0  0  0
  190.1620  173.0590  142.2720 C   0  0  0  0  0  2  0  0  0  0  0  0
  185.5930  177.9750  145.4540 C   0  0  1  0  0  3  0  0  0  0  0  0
  184.5980  177.6960  146.5690 C   0  0  1  0  0  3  0  0  0  0  0  0
  185.8540  176.8300  146.4140 C   0  0  2  0  0  3  0  0  0  0  0  0
  188.9280  176.0310  141.7740 O   0  0  0  0  0  0  0  0  0  0  0  0
  185.0670  177.3930  144.1580 C   0  0  0  0  0  2  0  0  0  0  0  0
  185.0750  178.4560  143.0800 C   0  0  0  0  0  2  0  0  0  0  0  0
  189.9900  176.4220  142.6350 C   0  0  1  0  0  3  0  0  0  0  0  0
  189.5330  174.2460  144.3890 C   0  0  0  0  0  2  0  0  0  0  0  0
  189.4370  176.7370  144.0320 C   0  0  0  0  0  2  0  0  0  0  0  0
  188.5850  175.6610  146.1780 C   0  0  1  0  0  3  0  0  0  0  0  0
  189.6290  175.6100  145.0640 C   0  0  1  0  0  3  0  0  0  0  0  0
  188.4800  178.1830  141.0750 O   0  0  0  0  0  0  0  0  0  0  0  0
  191.0840  175.3510  142.6670 C   0  0  0  0  0  2  0  0  0  0  0  0
  186.9080  176.5610  140.5660 O   0  0  0  0  0  0  0  0  0  0  0  0
  189.2440  176.1190  147.4650 C   0  0  0  0  0  2  0  0  0  0  0  0
  190.6310  174.0450  143.3360 C   0  0  2  0  0  3  0  0  0  0  0  0
  186.9970  177.1650  147.3810 C   0  0  0  0  0  2  0  0  0  0  0  0
  188.3570  177.0760  146.6990 C   0  0  2  0  0  3  0  0  0  0  0  0
  184.6970  178.8000  147.6150 C   0  0  0  0  0  1  0  0  0  0  0  0
  185.4560  178.5040  140.7640 C   0  0  0  0  0  2  0  0  0  0  0  0
  184.6640  177.8760  141.8110 N   0  0  0  0  0  0  0  0  0  0  0  0
  186.0550  177.4450  139.8440 C   0  0  0  0  0  2  0  0  0  0  0  0
  188.1220  176.9710  141.1320 C   0  0  0  0  0  0  0  0  0  0  0  0
  183.2500  178.1750  141.5770 C   0  0  0  0  0  2  0  0  0  0  0  0
  182.8460  177.7960  140.2910 O   0  0  0  0  0  1  0  0  0  0  0  0
  192.0300  169.5710  138.2000 C   0  0  0  0  0  2  0  0  0  0  0  0
  190.1470  170.8900  137.2240 C   0  0  0  0  0  3  0  0  0  0  0  0
  189.6420  171.9930  136.5290 C   0  0  0  0  0  3  0  0  0  0  0  0
  190.5130  172.9630  136.0270 C   0  0  0  0  0  0  0  0  0  0  0  0
  191.5270  170.7480  137.4190 C   0  0  0  0  0  0  0  0  0  0  0  0
  191.8910  172.8280  136.2130 C   0  0  0  0  0  3  0  0  0  0  0  0
  192.4080  171.7200  136.9000 C   0  0  0  0  0  0  0  0  0  0  0  0
  190.0220  174.0340  135.3600 F   0  0  0  0  0  0  0  0  0  0  0  0
  193.8910  171.6090  137.0950 C   0  0  0  0  0  2  0  0  0  0  0  0
  194.9650  175.5440  139.5120 C   0  0  0  0  0  2  0  0  0  0  0  0
  196.6890  176.2620  140.9940 O   0  0  0  0  0  1  0  0  0  0  0  0
  194.3550  172.4460  138.2430 C   0  0  0  0  0  0  0  0  0  0  0  0
  194.5170  174.1680  139.6010 N   0  0  0  0  0  0  0  0  0  0  0  0
  195.5380  172.1150  139.0860 C   0  0  0  0  0  2  0  0  0  0  0  0
  195.5390  173.2680  140.1020 C   0  0  1  0  0  0  0  0  0  0  0  0
  196.8440  174.0630  140.0670 C   0  0  0  0  0  2  0  0  0  0  0  0
  193.8410  173.5920  138.5260 N   0  0  0  0  0  0  0  0  0  0  0  0
  196.4540  175.5230  139.8340 C   0  0  1  0  0  3  0  0  0  0  0  0
  195.7550  171.7500  144.3910 O   0  0  0  0  0  1  0  0  0  0  0  0
  195.9380  172.9570  143.7190 C   0  0  1  0  0  3  0  0  0  0  0  0
  194.2700  173.6880  142.1340 C   0  0  0  0  0  2  0  0  0  0  0  0
  196.3670  172.6780  142.2960 C   0  0  0  0  0  2  0  0  0  0  0  0
  195.1800  172.7710  141.4470 N   0  0  2  0  0  0  0  0  0  0  0  0
  194.6120  173.6700  143.6080 C   0  0  0  0  0  2  0  0  0  0  0  0
  1  3  2  0  0  0  0
  1  8  1  0  0  0  0
  2  8  2  0  0  0  0
  2  5  1  0  0  0  0
  4  9  2  0  0  0  0
  5 11  1  6  0  0  0
  5  9  1  0  0  0  0
  6 10  2  0  0  0  0
  6  7  1  0  0  0  0
  7  2  1  0  0  0  0
  8  4  1  0  0  0  0
 10  1  1  0  0  0  0
 12 16  1  6  0  0  0
 12 14  1  0  0  0  0
 12 13  1  0  0  0  0
 13 30  1  1  0  0  0
 14 13  1  0  0  0  0
 14 28  1  1  0  0  0
 15 18  1  0  0  0  0
 17 16  1  0  0  0  0
 18 24  1  1  0  0  0
 18 20  1  0  0  0  0
 19 22  1  0  0  0  0
 21 29  1  0  0  0  0
 21 26  1  1  0  0  0
 22 20  1  6  0  0  0
 22 21  1  0  0  0  0
 23 34  2  0  0  0  0
 24 27  1  0  0  0  0
 25 34  1  0  0  0  0
 27 11  1  6  0  0  0
 27 19  1  0  0  0  0
 29 28  1  1  0  0  0
 29 26  1  0  0  0  0
 31 32  1  0  0  0  0
 32 17  1  0  0  0  0
 33 25  1  0  0  0  0
 33 31  1  0  0  0  0
 34 15  1  0  0  0  0
 35 32  1  0  0  0  0
 36 35  1  0  0  0  0
 37  6  1  0  0  0  0
 38 41  1  0  0  0  0
 39 38  2  0  0  0  0
 40 42  2  0  0  0  0
 40 39  1  0  0  0  0
 41 37  1  0  0  0  0
 42 43  1  0  0  0  0
 43 45  1  0  0  0  0
 43 41  2  0  0  0  0
 44 40  1  0  0  0  0
 45 48  1  0  0  0  0
 46 49  1  0  0  0  0
 46 54  1  0  0  0  0
 48 53  2  0  0  0  0
 48 50  1  0  0  0  0
 49 51  1  0  0  0  0
 51 50  1  6  0  0  0
 51 59  1  0  0  0  0
 52 51  1  0  0  0  0
 53 49  1  0  0  0  0
 54 52  1  0  0  0  0
 54 47  1  1  0  0  0
 56 55  1  1  0  0  0
 57 60  1  0  0  0  0
 58 56  1  0  0  0  0
 59 57  1  1  0  0  0
 59 58  1  0  0  0  0
 60 56  1  0  0  0  0
M  END
>  <MODEL>
3

>  <REMARK>
 VINA RESULT:      -8.8      2.949     10.015
  Name = 
  8 active torsions:
  status: ('A' for Active; 'I' for Inactive)
    1  A    between atoms: C_6  and  C_30
    2  A    between atoms: C_6  and  C_42
    3  A    between atoms: C_10  and  C_25
    4  A    between atoms: C_13  and  N_51
    5  A    between atoms: C_21  and  C_27
    6  A    between atoms: C_21  and  C_33
    7  A    between atoms: C_24  and  N_54
    8  A    between atoms: C_25  and  C_39
                            x       y       z     vdW  Elec       q    Type
                         _______ _______ _______ _____ _____    ______ ____

>  <TORSDO>
F 8

$$$$
=
 OpenBabel11072408513D

 60 69  0  0  1  0  0  0  0  0999 V2000
  195.2570  176.9480  144.7700 C   0  0  0  0  0  0  0  0  0  0  0  0
  195.5210  175.3470  142.9670 C   0  0  0  0  0  0  0  0  0  0  0  0
  195.6980  177.9530  145.3870 O   0  0  0  0  0  0  0  0  0  0  0  0
  197.2710  176.7920  143.1030 C   0  0  0  0  0  3  0  0  0  0  0  0
  196.4560  174.9800  141.8690 C   0  0  1  0  0  3  0  0  0  0  0  0
  193.4860  175.2870  144.4670 C   0  0  0  0  0  0  0  0  0  0  0  0
  194.1830  174.7170  143.2440 C   0  0  0  0  0  2  0  0  0  0  0  0
  195.9910  176.3740  143.6430 C   0  0  0  0  0  0  0  0  0  0  0  0
  197.5510  175.9900  142.0790 C   0  0  0  0  0  3  0  0  0  0  0  0
  193.9810  176.3250  145.1560 C   0  0  0  0  0  3  0  0  0  0  0  0
  196.9870  173.5680  142.0890 C   0  0  0  0  0  2  0  0  0  0  0  0
  191.3130  173.0060  137.3300 C   0  0  1  0  0  3  0  0  0  0  0  0
  190.8510  174.0650  136.3420 C   0  0  1  0  0  3  0  0  0  0  0  0
  192.3110  174.0230  136.8120 C   0  0  2  0  0  3  0  0  0  0  0  0
  194.3400  171.7530  141.5380 O   0  0  0  0  0  0  0  0  0  0  0  0
  190.9050  173.4140  138.7290 C   0  0  0  0  0  2  0  0  0  0  0  0
  190.1500  172.2820  139.3930 C   0  0  0  0  0  2  0  0  0  0  0  0
  195.2040  171.0870  140.6260 C   0  0  1  0  0  3  0  0  0  0  0  0
  196.2890  173.5260  139.6820 C   0  0  0  0  0  2  0  0  0  0  0  0
  194.8670  171.5080  139.1890 C   0  0  0  0  0  2  0  0  0  0  0  0
  195.1410  173.3930  137.4980 C   0  0  1  0  0  3  0  0  0  0  0  0
  195.8130  172.5690  138.5950 C   0  0  1  0  0  3  0  0  0  0  0  0
  192.7260  170.1060  141.4700 O   0  0  0  0  0  0  0  0  0  0  0  0
  196.6710  171.3460  140.9820 C   0  0  0  0  0  2  0  0  0  0  0  0
  192.1340  172.1210  142.4450 O   0  0  0  0  0  0  0  0  0  0  0  0
  195.7220  173.0080  136.1520 C   0  0  0  0  0  2  0  0  0  0  0  0
  197.0940  172.8070  140.7720 C   0  0  2  0  0  3  0  0  0  0  0  0
  193.2930  173.3860  135.8210 C   0  0  0  0  0  2  0  0  0  0  0  0
  194.3360  172.5320  136.5320 C   0  0  2  0  0  3  0  0  0  0  0  0
  190.5850  173.4100  134.9920 C   0  0  0  0  0  1  0  0  0  0  0  0
  189.9710  171.4260  141.5720 C   0  0  0  0  0  2  0  0  0  0  0  0
  189.8430  172.6350  140.7710 N   0  0  0  0  0  0  0  0  0  0  0  0
  190.8230  171.6980  142.8080 C   0  0  0  0  0  2  0  0  0  0  0  0
  193.0560  171.2800  141.8090 C   0  0  0  0  0  0  0  0  0  0  0  0
  188.4610  173.1100  140.8520 C   0  0  0  0  0  2  0  0  0  0  0  0
  187.8230  172.6520  142.0120 O   0  0  0  0  0  1  0  0  0  0  0  0
  192.1780  174.7040  144.8850 C   0  0  0  0  0  2  0  0  0  0  0  0
  191.4860  175.4890  147.1530 C   0  0  0  0  0  3  0  0  0  0  0  0
  190.8120  176.3710  148.0010 C   0  0  0  0  0  3  0  0  0  0  0  0
  190.0640  177.4240  147.4660 C   0  0  0  0  0  0  0  0  0  0  0  0
  191.4140  175.6480  145.7630 C   0  0  0  0  0  0  0  0  0  0  0  0
  189.9830  177.5890  146.0810 C   0  0  0  0  0  3  0  0  0  0  0  0
  190.6480  176.7030  145.2210 C   0  0  0  0  0  0  0  0  0  0  0  0
  189.4190  178.2830  148.2890 F   0  0  0  0  0  0  0  0  0  0  0  0
  190.5530  176.9140  143.7400 C   0  0  0  0  0  2  0  0  0  0  0  0
  186.8450  176.5260  140.8120 C   0  0  0  0  0  2  0  0  0  0  0  0
  184.9010  177.8020  140.2830 O   0  0  0  0  0  1  0  0  0  0  0  0
  189.1300  176.9920  143.2890 C   0  0  0  0  0  0  0  0  0  0  0  0
  187.2900  176.5000  142.1910 N   0  0  0  0  0  0  0  0  0  0  0  0
  188.2200  178.1290  143.6060 C   0  0  0  0  0  2  0  0  0  0  0  0
  186.9100  177.6860  142.9350 C   0  0  1  0  0  0  0  0  0  0  0  0
  186.4320  178.6940  141.8900 C   0  0  0  0  0  2  0  0  0  0  0  0
  188.6030  176.1350  142.4850 N   0  0  0  0  0  0  0  0  0  0  0  0
  186.2590  177.9140  140.5860 C   0  0  1  0  0  3  0  0  0  0  0  0
  184.8310  176.7860  146.8870 O   0  0  0  0  0  1  0  0  0  0  0  0
  185.3630  177.8990  146.2350 C   0  0  1  0  0  3  0  0  0  0  0  0
  184.7790  178.3040  143.9280 C   0  0  0  0  0  2  0  0  0  0  0  0
  186.4630  177.4530  145.3000 C   0  0  0  0  0  2  0  0  0  0  0  0
  185.8940  177.3570  143.9560 N   0  0  2  0  0  0  0  0  0  0  0  0
  184.3030  178.5090  145.3500 C   0  0  0  0  0  2  0  0  0  0  0  0
  1 10  1  0  0  0  0
  1  3  2  0  0  0  0
  2  7  1  0  0  0  0
  2  8  2  0  0  0  0
  4  8  1  0  0  0  0
  5  9  1  0  0  0  0
  5 11  1  1  0  0  0
  5  2  1  0  0  0  0
  6 37  1  0  0  0  0
  6 10  2  0  0  0  0
  7  6  1  0  0  0  0
  8  1  1  0  0  0  0
  9  4  2  0  0  0  0
 12 16  1  1  0  0  0
 13 30  1  6  0  0  0
 13 14  1  0  0  0  0
 13 12  1  0  0  0  0
 14 28  1  6  0  0  0
 14 12  1  0  0  0  0
 15 34  1  0  0  0  0
 16 17  1  0  0  0  0
 17 32  1  0  0  0  0
 18 20  1  6  0  0  0
 18 24  1  0  0  0  0
 18 15  1  0  0  0  0
 19 27  1  0  0  0  0
 21 26  1  6  0  0  0
 21 22  1  0  0  0  0
 22 20  1  1  0  0  0
 22 19  1  0  0  0  0
 23 34  2  0  0  0  0
 25 33  1  0  0  0  0
 26 29  1  0  0  0  0
 27 24  1  0  0  0  0
 27 11  1  1  0  0  0
 29 28  1  6  0  0  0
 29 21  1  0  0  0  0
 31 33  1  0  0  0  0
 32 35  1  0  0  0  0
 32 31  1  0  0  0  0
 34 25  1  0  0  0  0
 35 36  1  0  0  0  0
 37 41  1  0  0  0  0
 38 39  1  0  0  0  0
 40 39  2  0  0  0  0
 40 44  1  0  0  0  0
 41 38  2  0  0  0  0
 42 40  1  0  0  0  0
 43 41  1  0  0  0  0
 43 42  2  0  0  0  0
 45 43  1  0  0  0  0
 46 49  1  0  0  0  0
 48 50  1  0  0  0  0
 48 45  1  0  0  0  0
 49 53  1  0  0  0  0
 49 51  1  0  0  0  0
 51 52  1  6  0  0  0
 51 50  1  0  0  0  0
 51 59  1  0  0  0  0
 53 48  2  0  0  0  0
 54 47  1  1  0  0  0
 54 46  1  0  0  0  0
 54 52  1  0  0  0  0
 56 55  1  6  0  0  0
 57 60  1  0  0  0  0
 58 56  1  0  0  0  0
 59 57  1  1  0  0  0
 59 58  1  0  0  0  0
 60 56  1  0  0  0  0
M  END
>  <MODEL>
4

>  <REMARK>
 VINA RESULT:      -8.5      2.514      6.422
  Name = 
  8 active torsions:
  status: ('A' for Active; 'I' for Inactive)
    1  A    between atoms: C_6  and  C_30
    2  A    between atoms: C_6  and  C_42
    3  A    between atoms: C_10  and  C_25
    4  A    between atoms: C_13  and  N_51
    5  A    between atoms: C_21  and  C_27
    6  A    between atoms: C_21  and  C_33
    7  A    between atoms: C_24  and  N_54
    8  A    between atoms: C_25  and  C_39
                            x       y       z     vdW  Elec       q    Type
                         _______ _______ _______ _____ _____    ______ ____

>  <TORSDO>
F 8

$$$$
=
 OpenBabel11072408513D

 60 69  0  0  1  0  0  0  0  0999 V2000
  188.8110  176.0470  146.0750 C   0  0  0  0  0  0  0  0  0  0  0  0
  191.1920  176.1920  145.6360 C   0  0  0  0  0  0  0  0  0  0  0  0
  187.8590  176.1830  146.8860 O   0  0  0  0  0  0  0  0  0  0  0  0
  190.6820  176.6670  147.8000 C   0  0  0  0  0  3  0  0  0  0  0  0
  192.4790  176.5120  146.3110 C   0  0  1  0  0  3  0  0  0  0  0  0
  189.5730  175.5490  143.8030 C   0  0  0  0  0  0  0  0  0  0  0  0
  191.0080  175.8760  144.1770 C   0  0  0  0  0  2  0  0  0  0  0  0
  190.1930  176.2950  146.4860 C   0  0  0  0  0  0  0  0  0  0  0  0
  192.0040  176.7920  147.7110 C   0  0  0  0  0  3  0  0  0  0  0  0
  188.5640  175.6440  144.6810 C   0  0  0  0  0  3  0  0  0  0  0  0
  193.3920  175.2900  146.2960 C   0  0  0  0  0  2  0  0  0  0  0  0
  195.5160  172.8880  139.5960 C   0  0  1  0  0  3  0  0  0  0  0  0
  195.1080  173.4730  138.2530 C   0  0  1  0  0  3  0  0  0  0  0  0
  195.1270  174.3510  139.5100 C   0  0  2  0  0  3  0  0  0  0  0  0
  194.7480  172.6950  144.8700 O   0  0  0  0  0  0  0  0  0  0  0  0
  194.3490  172.1230  140.1840 C   0  0  0  0  0  2  0  0  0  0  0  0
  194.7920  170.7260  140.5620 C   0  0  0  0  0  2  0  0  0  0  0  0
  195.9350  173.4670  144.9970 C   0  0  1  0  0  3  0  0  0  0  0  0
  194.6250  175.8420  144.1830 C   0  0  0  0  0  2  0  0  0  0  0  0
  196.3180  174.0610  143.6350 C   0  0  0  0  0  2  0  0  0  0  0  0
  195.7360  175.9060  141.9780 C   0  0  1  0  0  3  0  0  0  0  0  0
  195.9260  175.5390  143.4490 C   0  0  1  0  0  3  0  0  0  0  0  0
  195.8710  170.7430  144.3730 O   0  0  0  0  0  0  0  0  0  0  0  0
  195.7690  174.5400  146.0770 C   0  0  0  0  0  2  0  0  0  0  0  0
  193.5860  170.7670  144.0000 O   0  0  0  0  0  0  0  0  0  0  0  0
  196.8840  176.7890  141.5280 C   0  0  0  0  0  2  0  0  0  0  0  0
  194.7530  175.6270  145.6970 C   0  0  2  0  0  3  0  0  0  0  0  0
  196.3530  175.2620  139.6470 C   0  0  0  0  0  2  0  0  0  0  0  0
  196.8380  175.3410  141.0890 C   0  0  2  0  0  3  0  0  0  0  0  0
  196.3390  173.5890  137.3620 C   0  0  0  0  0  1  0  0  0  0  0  0
  194.2770  169.2000  142.2700 C   0  0  0  0  0  2  0  0  0  0  0  0
  193.7000  170.0220  141.2170 N   0  0  0  0  0  0  0  0  0  0  0  0
  193.5200  169.4080  143.5790 C   0  0  0  0  0  2  0  0  0  0  0  0
  194.7770  171.3750  144.4170 C   0  0  0  0  0  0  0  0  0  0  0  0
  193.0370  169.1480  140.2470 C   0  0  0  0  0  2  0  0  0  0  0  0
  193.7400  169.0870  139.0380 O   0  0  0  0  0  1  0  0  0  0  0  0
  189.2680  175.1580  142.3960 C   0  0  0  0  0  2  0  0  0  0  0  0
  190.0310  172.9260  143.2170 C   0  0  0  0  0  3  0  0  0  0  0  0
  190.3160  171.5710  143.0240 C   0  0  0  0  0  3  0  0  0  0  0  0
  190.1650  170.9960  141.7590 C   0  0  0  0  0  0  0  0  0  0  0  0
  189.5980  173.7170  142.1450 C   0  0  0  0  0  0  0  0  0  0  0  0
  189.7370  171.7790  140.6840 C   0  0  0  0  0  3  0  0  0  0  0  0
  189.4590  173.1410  140.8640 C   0  0  0  0  0  0  0  0  0  0  0  0
  190.4340  169.6820  141.5760 F   0  0  0  0  0  0  0  0  0  0  0  0
  188.9890  173.9510  139.6940 C   0  0  0  0  0  2  0  0  0  0  0  0
  189.8900  171.3690  135.8210 C   0  0  0  0  0  2  0  0  0  0  0  0
  191.8190  170.5590  134.6780 O   0  0  0  0  0  1  0  0  0  0  0  0
  189.6770  173.5400  138.4330 C   0  0  0  0  0  0  0  0  0  0  0  0
  189.9570  172.6850  136.4270 N   0  0  0  0  0  0  0  0  0  0  0  0
  191.1560  173.5480  138.2540 C   0  0  0  0  0  2  0  0  0  0  0  0
  191.3050  173.0710  136.8010 C   0  0  1  0  0  0  0  0  0  0  0  0
  192.1450  171.7980  136.6980 C   0  0  0  0  0  2  0  0  0  0  0  0
  189.0520  173.0300  137.4290 N   0  0  0  0  0  0  0  0  0  0  0  0
  191.2870  170.7760  135.9500 C   0  0  1  0  0  3  0  0  0  0  0  0
  192.8980  177.0800  135.3370 O   0  0  0  0  0  1  0  0  0  0  0  0
  193.3910  175.9610  136.0070 C   0  0  1  0  0  3  0  0  0  0  0  0
  192.9290  173.7610  135.1280 C   0  0  0  0  0  2  0  0  0  0  0  0
  192.2640  175.2910  136.7590 C   0  0  0  0  0  2  0  0  0  0  0  0
  191.7870  174.1740  135.9430 N   0  0  2  0  0  0  0  0  0  0  0  0
  193.8630  174.9450  134.9970 C   0  0  0  0  0  2  0  0  0  0  0  0
  1  8  1  0  0  0  0
  1  3  2  0  0  0  0
  2  5  1  0  0  0  0
  2  8  2  0  0  0  0
  5 11  1  1  0  0  0
  5  9  1  0  0  0  0
  6  7  1  0  0  0  0
  6 10  2  0  0  0  0
  7  2  1  0  0  0  0
  8  4  1  0  0  0  0
  9  4  2  0  0  0  0
 10  1  1  0  0  0  0
 12 16  1  1  0  0  0
 13 30  1  6  0  0  0
 13 14  1  0  0  0  0
 13 12  1  0  0  0  0
 14 12  1  0  0  0  0
 14 28  1  6  0  0  0
 15 18  1  0  0  0  0
 16 17  1  0  0  0  0
 17 32  1  0  0  0  0
 18 20  1  6  0  0  0
 18 24  1  0  0  0  0
 19 27  1  0  0  0  0
 21 26  1  1  0  0  0
 21 22  1  0  0  0  0
 22 20  1  6  0  0  0
 22 19  1  0  0  0  0
 23 34  2  0  0  0  0
 25 34  1  0  0  0  0
 27 24  1  0  0  0  0
 27 11  1  6  0  0  0
 29 28  1  6  0  0  0
 29 26  1  0  0  0  0
 29 21  1  0  0  0  0
 31 33  1  0  0  0  0
 32 31  1  0  0  0  0
 33 25  1  0  0  0  0
 34 15  1  0  0  0  0
 35 32  1  0  0  0  0
 36 35  1  0  0  0  0
 37  6  1  0  0  0  0
 39 38  1  0  0  0  0
 40 39  2  0  0  0  0
 41 37  1  0  0  0  0
 41 38  2  0  0  0  0
 42 43  2  0  0  0  0
 42 40  1  0  0  0  0
 43 41  1  0  0  0  0
 44 40  1  0  0  0  0
 45 43  1  0  0  0  0
 46 54  1  0  0  0  0
 46 49  1  0  0  0  0
 48 45  1  0  0  0  0
 49 51  1  0  0  0  0
 49 53  1  0  0  0  0
 50 48  1  0  0  0  0
 51 52  1  6  0  0  0
 51 50  1  0  0  0  0
 53 48  2  0  0  0  0
 54 47  1  6  0  0  0
 54 52  1  0  0  0  0
 56 55  1  6  0  0  0
 56 58  1  0  0  0  0
 59 57  1  1  0  0  0
 59 58  1  0  0  0  0
 59 51  1  0  0  0  0
 60 57  1  0  0  0  0
 60 56  1  0  0  0  0
M  END
>  <MODEL>
5

>  <REMARK>
 VINA RESULT:      -8.3      3.560      8.398
  Name = 
  8 active torsions:
  status: ('A' for Active; 'I' for Inactive)
    1  A    between atoms: C_6  and  C_30
    2  A    between atoms: C_6  and  C_42
    3  A    between atoms: C_10  and  C_25
    4  A    between atoms: C_13  and  N_51
    5  A    between atoms: C_21  and  C_27
    6  A    between atoms: C_21  and  C_33
    7  A    between atoms: C_24  and  N_54
    8  A    between atoms: C_25  and  C_39
                            x       y       z     vdW  Elec       q    Type
                         _______ _______ _______ _____ _____    ______ ____

>  <TORSDO>
F 8

$$$$
=
 OpenBabel11072408513D

 60 69  0  0  1  0  0  0  0  0999 V2000
  187.2910  175.9690  138.6660 C   0  0  0  0  0  0  0  0  0  0  0  0
  188.6330  173.9570  138.8500 C   0  0  0  0  0  0  0  0  0  0  0  0
  186.6910  176.7970  137.9310 O   0  0  0  0  0  0  0  0  0  0  0  0
  188.2390  174.5380  136.6880 C   0  0  0  0  0  3  0  0  0  0  0  0
  189.2970  172.9250  138.0090 C   0  0  1  0  0  3  0  0  0  0  0  0
  187.8470  175.1840  140.9160 C   0  0  0  0  0  0  0  0  0  0  0  0
  188.5590  173.9680  140.3530 C   0  0  0  0  0  2  0  0  0  0  0  0
  188.0350  174.8490  138.0900 C   0  0  0  0  0  0  0  0  0  0  0  0
  188.9710  173.4290  136.6290 C   0  0  0  0  0  3  0  0  0  0  0  0
  187.2520  176.0940  140.1320 C   0  0  0  0  0  3  0  0  0  0  0  0
  190.8040  172.9550  138.2420 C   0  0  0  0  0  2  0  0  0  0  0  0
  195.1000  171.4690  144.1160 C   0  0  1  0  0  3  0  0  0  0  0  0
  194.6350  171.2650  145.5500 C   0  0  1  0  0  3  0  0  0  0  0  0
  193.6930  170.9670  144.3760 C   0  0  2  0  0  3  0  0  0  0  0  0
  193.9280  173.0500  139.1590 O   0  0  0  0  0  0  0  0  0  0  0  0
  195.0180  172.9410  143.7680 C   0  0  0  0  0  2  0  0  0  0  0  0
  196.3470  173.4100  143.2150 C   0  0  0  0  0  2  0  0  0  0  0  0
  193.8880  171.6730  138.8080 C   0  0  1  0  0  3  0  0  0  0  0  0
  191.3660  171.3030  140.0430 C   0  0  0  0  0  2  0  0  0  0  0  0
  193.8350  170.8130  140.0790 C   0  0  0  0  0  2  0  0  0  0  0  0
  192.2860  170.0050  141.9320 C   0  0  1  0  0  3  0  0  0  0  0  0
  192.4320  170.2880  140.4380 C   0  0  1  0  0  3  0  0  0  0  0  0
  196.2310  173.1270  139.2670 O   0  0  0  0  0  0  0  0  0  0  0  0
  192.7180  171.3890  137.8620 C   0  0  0  0  0  2  0  0  0  0  0  0
  195.0730  174.9250  140.1560 O   0  0  0  0  0  0  0  0  0  0  0  0
  192.2350  168.5060  142.1570 C   0  0  0  0  0  2  0  0  0  0  0  0
  191.3460  171.5600  138.5290 C   0  0  2  0  0  3  0  0  0  0  0  0
  193.5560  169.4820  144.0160 C   0  0  0  0  0  2  0  0  0  0  0  0
  193.4920  169.2720  142.5080 C   0  0  2  0  0  3  0  0  0  0  0  0
  195.3430  170.0510  146.1380 C   0  0  0  0  0  1  0  0  0  0  0  0
  197.0450  174.9470  141.5840 C   0  0  0  0  0  2  0  0  0  0  0  0
  196.2430  174.7970  142.7890 N   0  0  0  0  0  0  0  0  0  0  0  0
  196.2430  175.6610  140.5000 C   0  0  0  0  0  2  0  0  0  0  0  0
  195.1200  173.6810  139.5130 C   0  0  0  0  0  0  0  0  0  0  0  0
  196.7910  175.6660  143.8320 C   0  0  0  0  0  2  0  0  0  0  0  0
  196.3870  176.9960  143.6630 O   0  0  0  0  0  1  0  0  0  0  0  0
  187.7610  175.3440  142.3970 C   0  0  0  0  0  2  0  0  0  0  0  0
  185.7650  176.6560  143.1280 C   0  0  0  0  0  3  0  0  0  0  0  0
  185.1440  177.8470  143.5130 C   0  0  0  0  0  3  0  0  0  0  0  0
  185.8740  179.0390  143.5460 C   0  0  0  0  0  0  0  0  0  0  0  0
  187.1190  176.6470  142.7700 C   0  0  0  0  0  0  0  0  0  0  0  0
  187.2240  179.0400  143.1870 C   0  0  0  0  0  3  0  0  0  0  0  0
  187.8540  177.8520  142.7900 C   0  0  0  0  0  0  0  0  0  0  0  0
  185.2730  180.1910  143.9260 F   0  0  0  0  0  0  0  0  0  0  0  0
  189.3070  177.8830  142.4230 C   0  0  0  0  0  2  0  0  0  0  0  0
  191.8460  176.9430  146.3150 C   0  0  0  0  0  2  0  0  0  0  0  0
  193.8450  175.7560  146.8460 O   0  0  0  0  0  1  0  0  0  0  0  0
  190.1290  177.0830  143.3800 C   0  0  0  0  0  0  0  0  0  0  0  0
  190.9800  176.3970  145.2880 N   0  0  0  0  0  0  0  0  0  0  0  0
  191.2120  176.1470  142.9630 C   0  0  0  0  0  2  0  0  0  0  0  0
  191.6910  175.5910  144.3130 C   0  0  1  0  0  0  0  0  0  0  0  0
  193.1760  175.8650  144.5520 C   0  0  0  0  0  2  0  0  0  0  0  0
  190.0520  177.2240  144.6580 N   0  0  0  0  0  0  0  0  0  0  0  0
  193.2680  176.5960  145.8930 C   0  0  1  0  0  3  0  0  0  0  0  0
  189.5230  171.7310  145.3870 O   0  0  0  0  0  1  0  0  0  0  0  0
  189.3450  172.8000  144.5100 C   0  0  1  0  0  3  0  0  0  0  0  0
  191.1950  173.5210  143.1380 C   0  0  0  0  0  2  0  0  0  0  0  0
  190.0080  174.0320  145.0800 C   0  0  0  0  0  2  0  0  0  0  0  0
  191.3190  174.1670  144.4450 N   0  0  2  0  0  0  0  0  0  0  0  0
  190.0720  172.5110  143.2200 C   0  0  0  0  0  2  0  0  0  0  0  0
  1 10  1  0  0  0  0
  2  7  1  0  0  0  0
  3  1  2  0  0  0  0
  4  8  1  0  0  0  0
  5 11  1  6  0  0  0
  5  2  1  0  0  0  0
  6 37  1  0  0  0  0
  7  6  1  0  0  0  0
  8  1  1  0  0  0  0
  8  2  2  0  0  0  0
  9  4  2  0  0  0  0
  9  5  1  0  0  0  0
 10  6  2  0  0  0  0
 12 16  1  1  0  0  0
 12 14  1  0  0  0  0
 12 13  1  0  0  0  0
 13 30  1  6  0  0  0
 14 28  1  6  0  0  0
 14 13  1  0  0  0  0
 15 34  1  0  0  0  0
 17 16  1  0  0  0  0
 18 24  1  6  0  0  0
 18 15  1  0  0  0  0
 18 20  1  0  0  0  0
 20 22  1  0  0  0  0
 21 26  1  6  0  0  0
 21 29  1  0  0  0  0
 22 19  1  1  0  0  0
 22 21  1  0  0  0  0
 23 34  2  0  0  0  0
 24 27  1  0  0  0  0
 25 33  1  0  0  0  0
 27 11  1  1  0  0  0
 27 19  1  0  0  0  0
 29 26  1  1  0  0  0
 29 28  1  0  0  0  0
 31 32  1  0  0  0  0
 32 17  1  0  0  0  0
 32 35  1  0  0  0  0
 33 31  1  0  0  0  0
 34 25  1  0  0  0  0
 36 35  1  0  0  0  0
 37 41  1  0  0  0  0
 38 39  1  0  0  0  0
 39 40  2  0  0  0  0
 40 44  1  0  0  0  0
 41 43  1  0  0  0  0
 41 38  2  0  0  0  0
 42 40  1  0  0  0  0
 43 42  2  0  0  0  0
 45 43  1  0  0  0  0
 45 48  1  0  0  0  0
 48 53  2  0  0  0  0
 49 46  1  0  0  0  0
 50 48  1  0  0  0  0
 51 50  1  6  0  0  0
 51 59  1  0  0  0  0
 51 52  1  0  0  0  0
 51 49  1  0  0  0  0
 52 54  1  0  0  0  0
 53 49  1  0  0  0  0
 54 46  1  0  0  0  0
 54 47  1  1  0  0  0
 56 58  1  0  0  0  0
 56 55  1  1  0  0  0
 57 60  1  0  0  0  0
 59 57  1  6  0  0  0
 59 58  1  0  0  0  0
 60 56  1  0  0  0  0
M  END
>  <MODEL>
6

>  <REMARK>
 VINA RESULT:      -8.3      2.462      4.277
  Name = 
  8 active torsions:
  status: ('A' for Active; 'I' for Inactive)
    1  A    between atoms: C_6  and  C_30
    2  A    between atoms: C_6  and  C_42
    3  A    between atoms: C_10  and  C_25
    4  A    between atoms: C_13  and  N_51
    5  A    between atoms: C_21  and  C_27
    6  A    between atoms: C_21  and  C_33
    7  A    between atoms: C_24  and  N_54
    8  A    between atoms: C_25  and  C_39
                            x       y       z     vdW  Elec       q    Type
                         _______ _______ _______ _____ _____    ______ ____

>  <TORSDO>
F 8

$$$$
=
 OpenBabel11072408513D

 60 69  0  0  1  0  0  0  0  0999 V2000
  196.0430  175.2400  143.9680 C   0  0  0  0  0  0  0  0  0  0  0  0
  194.5310  175.3580  145.8610 C   0  0  0  0  0  0  0  0  0  0  0  0
  196.8340  175.8300  143.1870 O   0  0  0  0  0  0  0  0  0  0  0  0
  195.3690  177.3950  145.2950 C   0  0  0  0  0  3  0  0  0  0  0  0
  193.9540  176.3340  146.8250 C   0  0  1  0  0  3  0  0  0  0  0  0
  195.0130  173.1520  144.7230 C   0  0  0  0  0  0  0  0  0  0  0  0
  194.3220  173.8680  145.8700 C   0  0  0  0  0  2  0  0  0  0  0  0
  195.3310  175.9720  145.0150 C   0  0  0  0  0  0  0  0  0  0  0  0
  194.5730  177.6160  146.3380 C   0  0  0  0  0  3  0  0  0  0  0  0
  195.8160  173.7900  143.8590 C   0  0  0  0  0  3  0  0  0  0  0  0
  192.4380  176.3840  146.6700 C   0  0  0  0  0  2  0  0  0  0  0  0
  186.6950  177.0660  142.0090 C   0  0  1  0  0  3  0  0  0  0  0  0
  186.7230  177.6910  140.6230 C   0  0  1  0  0  3  0  0  0  0  0  0
  187.9910  177.0690  141.2210 C   0  0  2  0  0  3  0  0  0  0  0  0
  189.1840  176.2420  146.6530 O   0  0  0  0  0  0  0  0  0  0  0  0
  186.7750  178.1610  143.0520 C   0  0  0  0  0  2  0  0  0  0  0  0
  185.6440  178.0040  144.0460 C   0  0  0  0  0  2  0  0  0  0  0  0
  189.4210  174.9140  146.2060 C   0  0  1  0  0  3  0  0  0  0  0  0
  191.4780  175.7420  144.4440 C   0  0  0  0  0  2  0  0  0  0  0  0
  189.1510  174.8160  144.6990 C   0  0  0  0  0  2  0  0  0  0  0  0
  190.1270  175.3650  142.4110 C   0  0  1  0  0  3  0  0  0  0  0  0
  190.4150  174.8460  143.8190 C   0  0  1  0  0  3  0  0  0  0  0  0
  186.9550  175.8670  147.1120 O   0  0  0  0  0  0  0  0  0  0  0  0
  190.8380  174.4630  146.5760 C   0  0  0  0  0  2  0  0  0  0  0  0
  187.6670  178.0700  147.0750 O   0  0  0  0  0  0  0  0  0  0  0  0
  190.2110  174.2170  141.4240 C   0  0  0  0  0  2  0  0  0  0  0  0
  191.9320  175.2260  145.8170 C   0  0  2  0  0  3  0  0  0  0  0  0
  188.3310  175.6650  140.7040 C   0  0  0  0  0  2  0  0  0  0  0  0
  188.8570  174.7670  141.8170 C   0  0  2  0  0  3  0  0  0  0  0  0
  185.9570  176.7980  139.6550 C   0  0  0  0  0  1  0  0  0  0  0  0
  185.3620  178.3620  146.3490 C   0  0  0  0  0  2  0  0  0  0  0  0
  185.7750  178.9930  145.1040 N   0  0  0  0  0  0  0  0  0  0  0  0
  186.4000  178.6110  147.4390 C   0  0  0  0  0  2  0  0  0  0  0  0
  187.9000  176.6940  146.9580 C   0  0  0  0  0  0  0  0  0  0  0  0
  184.8820  180.1200  144.8270 C   0  0  0  0  0  2  0  0  0  0  0  0
  183.6730  179.6960  144.2630 O   0  0  0  0  0  1  0  0  0  0  0  0
  194.8330  171.6780  144.5840 C   0  0  0  0  0  2  0  0  0  0  0  0
  192.3580  171.5860  144.2620 C   0  0  0  0  0  3  0  0  0  0  0  0
  191.2220  171.3230  143.4910 C   0  0  0  0  0  3  0  0  0  0  0  0
  191.3570  170.8250  142.1910 C   0  0  0  0  0  0  0  0  0  0  0  0
  193.6370  171.3500  143.7420 C   0  0  0  0  0  0  0  0  0  0  0  0
  192.6290  170.5830  141.6660 C   0  0  0  0  0  3  0  0  0  0  0  0
  193.7740  170.8340  142.4350 C   0  0  0  0  0  0  0  0  0  0  0  0
  190.2570  170.5780  141.4430 F   0  0  0  0  0  0  0  0  0  0  0  0
  195.1250  170.5770  141.8380 C   0  0  0  0  0  2  0  0  0  0  0  0
  197.9350  173.4460  139.3190 C   0  0  0  0  0  2  0  0  0  0  0  0
  197.9080  175.7180  138.5970 O   0  0  0  0  0  1  0  0  0  0  0  0
  195.4950  171.6320  140.8470 C   0  0  0  0  0  0  0  0  0  0  0  0
  196.6780  172.7240  139.3490 N   0  0  0  0  0  0  0  0  0  0  0  0
  194.7540  172.9150  140.6840 C   0  0  0  0  0  2  0  0  0  0  0  0
  195.5290  173.5890  139.5420 C   0  0  1  0  0  0  0  0  0  0  0  0
  196.0980  174.9460  139.9570 C   0  0  0  0  0  2  0  0  0  0  0  0
  196.5620  171.5740  140.1290 N   0  0  0  0  0  0  0  0  0  0  0  0
  197.6000  174.8880  139.6760 C   0  0  1  0  0  3  0  0  0  0  0  0
  192.0480  173.3240  136.6160 O   0  0  0  0  0  1  0  0  0  0  0  0
  192.4520  174.1550  137.6590 C   0  0  1  0  0  3  0  0  0  0  0  0
  194.7250  174.9670  137.7070 C   0  0  0  0  0  2  0  0  0  0  0  0
  193.3010  173.3660  138.6290 C   0  0  0  0  0  2  0  0  0  0  0  0
  194.7040  173.6380  138.3170 N   0  0  2  0  0  0  0  0  0  0  0  0
  193.3590  175.2320  137.1140 C   0  0  0  0  0  2  0  0  0  0  0  0
  1  8  1  0  0  0  0
  2  7  1  0  0  0  0
  2  5  1  0  0  0  0
  3  1  2  0  0  0  0
  4  9  2  0  0  0  0
  5 11  1  6  0  0  0
  6  7  1  0  0  0  0
  8  4  1  0  0  0  0
  8  2  2  0  0  0  0
  9  5  1  0  0  0  0
 10  1  1  0  0  0  0
 10  6  2  0  0  0  0
 12 16  1  1  0  0  0
 13 30  1  6  0  0  0
 13 14  1  0  0  0  0
 13 12  1  0  0  0  0
 14 28  1  6  0  0  0
 14 12  1  0  0  0  0
 15 34  1  0  0  0  0
 16 17  1  0  0  0  0
 17 32  1  0  0  0  0
 18 20  1  6  0  0  0
 18 24  1  0  0  0  0
 18 15  1  0  0  0  0
 19 27  1  0  0  0  0
 21 26  1  6  0  0  0
 21 22  1  0  0  0  0
 22 19  1  1  0  0  0
 22 20  1  0  0  0  0
 25 33  1  0  0  0  0
 26 29  1  0  0  0  0
 27 24  1  0  0  0  0
 27 11  1  1  0  0  0
 29 28  1  6  0  0  0
 29 21  1  0  0  0  0
 31 33  1  0  0  0  0
 32 31  1  0  0  0  0
 34 25  1  0  0  0  0
 34 23  2  0  0  0  0
 35 32  1  0  0  0  0
 36 35  1  0  0  0  0
 37  6  1  0  0  0  0
 39 38  2  0  0  0  0
 40 39  1  0  0  0  0
 41 38  1  0  0  0  0
 41 37  1  0  0  0  0
 42 40  2  0  0  0  0
 42 43  1  0  0  0  0
 43 41  2  0  0  0  0
 44 40  1  0  0  0  0
 45 43  1  0  0  0  0
 46 49  1  0  0  0  0
 46 54  1  0  0  0  0
 48 45  1  0  0  0  0
 49 51  1  0  0  0  0
 49 53  1  0  0  0  0
 50 48  1  0  0  0  0
 51 52  1  1  0  0  0
 51 50  1  0  0  0  0
 53 48  2  0  0  0  0
 54 47  1  6  0  0  0
 54 52  1  0  0  0  0
 56 55  1  6  0  0  0
 56 58  1  0  0  0  0
 59 57  1  1  0  0  0
 59 58  1  0  0  0  0
 59 51  1  0  0  0  0
 60 56  1  0  0  0  0
 60 57  1  0  0  0  0
M  END
>  <MODEL>
7

>  <REMARK>
 VINA RESULT:      -8.2      2.483     10.048
  Name = 
  8 active torsions:
  status: ('A' for Active; 'I' for Inactive)
    1  A    between atoms: C_6  and  C_30
    2  A    between atoms: C_6  and  C_42
    3  A    between atoms: C_10  and  C_25
    4  A    between atoms: C_13  and  N_51
    5  A    between atoms: C_21  and  C_27
    6  A    between atoms: C_21  and  C_33
    7  A    between atoms: C_24  and  N_54
    8  A    between atoms: C_25  and  C_39
                            x       y       z     vdW  Elec       q    Type
                         _______ _______ _______ _____ _____    ______ ____

>  <TORSDO>
F 8

$$$$
=
 OpenBabel11072408513D

 60 69  0  0  1  0  0  0  0  0999 V2000
  196.0370  176.0520  143.0200 C   0  0  0  0  0  0  0  0  0  0  0  0
  195.7490  174.0140  141.7360 C   0  0  0  0  0  0  0  0  0  0  0  0
  196.8160  176.8990  143.5300 O   0  0  0  0  0  0  0  0  0  0  0  0
  197.9390  174.5000  142.1070 C   0  0  0  0  0  3  0  0  0  0  0  0
  196.5370  172.9420  141.0700 C   0  0  1  0  0  3  0  0  0  0  0  0
  193.7480  175.3390  142.5310 C   0  0  0  0  0  0  0  0  0  0  0  0
  194.2520  174.1620  141.7150 C   0  0  0  0  0  2  0  0  0  0  0  0
  196.5540  174.8850  142.3060 C   0  0  0  0  0  0  0  0  0  0  0  0
  197.9410  173.3750  141.3960 C   0  0  0  0  0  3  0  0  0  0  0  0
  194.5780  176.2130  143.1180 C   0  0  0  0  0  3  0  0  0  0  0  0
  196.2340  171.5940  141.7160 C   0  0  0  0  0  2  0  0  0  0  0  0
  190.3300  172.1170  137.2400 C   0  0  1  0  0  3  0  0  0  0  0  0
  190.2130  172.9760  135.9910 C   0  0  1  0  0  3  0  0  0  0  0  0
  191.5840  172.4810  136.4700 C   0  0  2  0  0  3  0  0  0  0  0  0
  193.0510  170.9060  141.6630 O   0  0  0  0  0  0  0  0  0  0  0  0
  190.2540  173.0030  138.4660 C   0  0  0  0  0  2  0  0  0  0  0  0
  189.1930  172.4800  139.4100 C   0  0  0  0  0  2  0  0  0  0  0  0
  193.4960  169.7400  140.9830 C   0  0  1  0  0  3  0  0  0  0  0  0
  195.3340  171.2090  139.4070 C   0  0  0  0  0  2  0  0  0  0  0  0
  193.2030  169.8700  139.4820 C   0  0  0  0  0  2  0  0  0  0  0  0
  194.0080  170.9810  137.3360 C   0  0  1  0  0  3  0  0  0  0  0  0
  194.4190  170.2740  138.6260 C   0  0  1  0  0  3  0  0  0  0  0  0
  190.9300  170.0810  142.0400 O   0  0  0  0  0  0  0  0  0  0  0  0
  194.9770  169.4780  141.2690 C   0  0  0  0  0  2  0  0  0  0  0  0
  191.2610  172.3430  142.4070 O   0  0  0  0  0  0  0  0  0  0  0  0
  194.2560  170.0600  136.1570 C   0  0  0  0  0  2  0  0  0  0  0  0
  195.9060  170.5400  140.6640 C   0  0  2  0  0  3  0  0  0  0  0  0
  192.1400  171.2720  135.7060 C   0  0  0  0  0  2  0  0  0  0  0  0
  192.8410  170.2920  136.6390 C   0  0  2  0  0  3  0  0  0  0  0  0
  189.5800  172.1540  134.8750 C   0  0  0  0  0  1  0  0  0  0  0  0
  188.9200  172.3640  141.7390 C   0  0  0  0  0  2  0  0  0  0  0  0
  189.1870  173.2700  140.6310 N   0  0  0  0  0  0  0  0  0  0  0  0
  189.9320  172.5860  142.8600 C   0  0  0  0  0  2  0  0  0  0  0  0
  191.7180  171.0710  142.0420 C   0  0  0  0  0  0  0  0  0  0  0  0
  188.1090  174.2590  140.5620 C   0  0  0  0  0  2  0  0  0  0  0  0
  187.9960  174.8130  139.2820 O   0  0  0  0  0  1  0  0  0  0  0  0
  192.2760  175.5590  142.6400 C   0  0  0  0  0  2  0  0  0  0  0  0
  192.4560  175.0620  145.0820 C   0  0  0  0  0  3  0  0  0  0  0  0
  192.1200  175.2980  146.4170 C   0  0  0  0  0  3  0  0  0  0  0  0
  191.1940  176.2940  146.7410 C   0  0  0  0  0  0  0  0  0  0  0  0
  191.8650  175.8150  144.0590 C   0  0  0  0  0  0  0  0  0  0  0  0
  190.5970  177.0480  145.7290 C   0  0  0  0  0  3  0  0  0  0  0  0
  190.9200  176.8120  144.3840 C   0  0  0  0  0  0  0  0  0  0  0  0
  190.8750  176.5270  148.0360 F   0  0  0  0  0  0  0  0  0  0  0  0
  190.2730  177.6470  143.3210 C   0  0  0  0  0  2  0  0  0  0  0  0
  185.7920  177.0520  141.8910 C   0  0  0  0  0  2  0  0  0  0  0  0
  183.6970  178.1410  142.2260 O   0  0  0  0  0  1  0  0  0  0  0  0
  188.7830  177.5990  143.4200 C   0  0  0  0  0  0  0  0  0  0  0  0
  186.7120  176.9830  143.0100 N   0  0  0  0  0  0  0  0  0  0  0  0
  187.9670  178.6070  144.1540 C   0  0  0  0  0  2  0  0  0  0  0  0
  186.5410  178.0700  143.9550 C   0  0  1  0  0  0  0  0  0  0  0  0
  185.6360  179.0870  143.2590 C   0  0  0  0  0  2  0  0  0  0  0  0
  188.0660  176.7460  142.7750 N   0  0  0  0  0  0  0  0  0  0  0  0
  185.0590  178.3800  142.0320 C   0  0  1  0  0  3  0  0  0  0  0  0
  185.9390  177.1420  148.3750 O   0  0  0  0  0  1  0  0  0  0  0  0
  185.8220  178.2460  147.5310 C   0  0  1  0  0  3  0  0  0  0  0  0
  184.6230  178.0160  145.4490 C   0  0  0  0  0  2  0  0  0  0  0  0
  186.7680  178.0870  146.3630 C   0  0  0  0  0  2  0  0  0  0  0  0
  185.9970  177.5650  145.2340 N   0  0  2  0  0  0  0  0  0  0  0  0
  184.4380  178.2660  146.9300 C   0  0  0  0  0  2  0  0  0  0  0  0
  1 10  1  0  0  0  0
  1  3  2  0  0  0  0
  2  8  2  0  0  0  0
  4  8  1  0  0  0  0
  5  9  1  0  0  0  0
  5 11  1  1  0  0  0
  5  2  1  0  0  0  0
  6 37  1  0  0  0  0
  6 10  2  0  0  0  0
  7  2  1  0  0  0  0
  7  6  1  0  0  0  0
  8  1  1  0  0  0  0
  9  4  2  0  0  0  0
 12 16  1  1  0  0  0
 13 30  1  6  0  0  0
 13 14  1  0  0  0  0
 13 12  1  0  0  0  0
 14 28  1  6  0  0  0
 14 12  1  0  0  0  0
 15 34  1  0  0  0  0
 16 17  1  0  0  0  0
 17 32  1  0  0  0  0
 18 20  1  6  0  0  0
 18 24  1  0  0  0  0
 18 15  1  0  0  0  0
 19 27  1  0  0  0  0
 21 26  1  6  0  0  0
 21 22  1  0  0  0  0
 22 19  1  1  0  0  0
 22 20  1  0  0  0  0
 23 34  2  0  0  0  0
 25 33  1  0  0  0  0
 26 29  1  0  0  0  0
 27 24  1  0  0  0  0
 27 11  1  1  0  0  0
 29 28  1  6  0  0  0
 29 21  1  0  0  0  0
 31 33  1  0  0  0  0
 32 31  1  0  0  0  0
 34 25  1  0  0  0  0
 35 32  1  0  0  0  0
 36 35  1  0  0  0  0
 37 41  1  0  0  0  0
 38 39  1  0  0  0  0
 39 40  2  0  0  0  0
 40 44  1  0  0  0  0
 41 43  1  0  0  0  0
 41 38  2  0  0  0  0
 42 40  1  0  0  0  0
 43 42  2  0  0  0  0
 45 48  1  0  0  0  0
 45 43  1  0  0  0  0
 46 54  1  0  0  0  0
 46 49  1  0  0  0  0
 48 50  1  0  0  0  0
 49 51  1  0  0  0  0
 51 52  1  6  0  0  0
 51 50  1  0  0  0  0
 51 59  1  0  0  0  0
 53 49  1  0  0  0  0
 53 48  2  0  0  0  0
 54 47  1  1  0  0  0
 54 52  1  0  0  0  0
 56 55  1  1  0  0  0
 57 60  1  0  0  0  0
 58 56  1  0  0  0  0
 59 57  1  1  0  0  0
 59 58  1  0  0  0  0
 60 56  1  0  0  0  0
M  END
>  <MODEL>
8

>  <REMARK>
 VINA RESULT:      -8.2      2.384      6.315
  Name = 
  8 active torsions:
  status: ('A' for Active; 'I' for Inactive)
    1  A    between atoms: C_6  and  C_30
    2  A    between atoms: C_6  and  C_42
    3  A    between atoms: C_10  and  C_25
    4  A    between atoms: C_13  and  N_51
    5  A    between atoms: C_21  and  C_27
    6  A    between atoms: C_21  and  C_33
    7  A    between atoms: C_24  and  N_54
    8  A    between atoms: C_25  and  C_39
                            x       y       z     vdW  Elec       q    Type
                         _______ _______ _______ _____ _____    ______ ____

>  <TORSDO>
F 8

$$$$
=
 OpenBabel11072408513D

 60 69  0  0  1  0  0  0  0  0999 V2000
  195.2990  176.9530  144.6460 C   0  0  0  0  0  0  0  0  0  0  0  0
  195.4850  175.3080  142.8730 C   0  0  0  0  0  0  0  0  0  0  0  0
  195.8110  177.9120  145.2790 O   0  0  0  0  0  0  0  0  0  0  0  0
  197.3710  176.5570  143.0950 C   0  0  0  0  0  3  0  0  0  0  0  0
  196.4330  174.8270  141.8320 C   0  0  1  0  0  3  0  0  0  0  0  0
  193.3780  175.4870  144.2580 C   0  0  0  0  0  0  0  0  0  0  0  0
  194.0740  174.8290  143.0810 C   0  0  0  0  0  2  0  0  0  0  0  0
  196.0260  176.2870  143.5660 C   0  0  0  0  0  0  0  0  0  0  0  0
  197.6180  175.7160  142.0940 C   0  0  0  0  0  3  0  0  0  0  0  0
  193.9440  176.4750  144.9660 C   0  0  0  0  0  3  0  0  0  0  0  0
  196.7960  173.3690  142.0920 C   0  0  0  0  0  2  0  0  0  0  0  0
  190.5180  172.8430  138.1580 C   0  0  1  0  0  3  0  0  0  0  0  0
  189.9720  173.8730  137.1810 C   0  0  1  0  0  3  0  0  0  0  0  0
  191.4780  173.7850  137.4570 C   0  0  2  0  0  3  0  0  0  0  0  0
  194.0260  171.6580  141.9950 O   0  0  0  0  0  0  0  0  0  0  0  0
  190.3180  173.3400  139.5740 C   0  0  0  0  0  2  0  0  0  0  0  0
  189.6130  172.2800  140.3930 C   0  0  0  0  0  2  0  0  0  0  0  0
  194.7330  170.9070  141.0160 C   0  0  1  0  0  3  0  0  0  0  0  0
  195.7810  173.2410  139.8030 C   0  0  0  0  0  2  0  0  0  0  0  0
  194.2240  171.2710  139.6140 C   0  0  0  0  0  2  0  0  0  0  0  0
  194.3460  173.0550  137.8000 C   0  0  1  0  0  3  0  0  0  0  0  0
  195.1250  172.2550  138.8430 C   0  0  1  0  0  3  0  0  0  0  0  0
  192.3520  170.0890  142.2320 O   0  0  0  0  0  0  0  0  0  0  0  0
  196.2430  171.1130  141.1620 C   0  0  0  0  0  2  0  0  0  0  0  0
  191.9790  172.1770  143.1620 O   0  0  0  0  0  0  0  0  0  0  0  0
  194.7260  172.5750  136.4130 C   0  0  0  0  0  2  0  0  0  0  0  0
  196.6940  172.5400  140.8170 C   0  0  2  0  0  3  0  0  0  0  0  0
  192.2920  173.0520  136.3830 C   0  0  0  0  0  2  0  0  0  0  0  0
  193.3850  172.1860  136.9970 C   0  0  2  0  0  3  0  0  0  0  0  0
  189.5010  173.1650  135.9170 C   0  0  0  0  0  1  0  0  0  0  0  0
  189.6910  171.5430  142.6210 C   0  0  0  0  0  2  0  0  0  0  0  0
  189.5070  172.7150  141.7770 N   0  0  0  0  0  0  0  0  0  0  0  0
  190.7120  171.8350  143.7170 C   0  0  0  0  0  2  0  0  0  0  0  0
  192.7720  171.2610  142.4580 C   0  0  0  0  0  0  0  0  0  0  0  0
  188.1690  173.2600  142.0130 C   0  0  0  0  0  2  0  0  0  0  0  0
  187.1680  172.3450  141.6640 O   0  0  0  0  0  1  0  0  0  0  0  0
  191.9930  175.0540  144.6090 C   0  0  0  0  0  2  0  0  0  0  0  0
  191.8280  175.7300  147.0070 C   0  0  0  0  0  3  0  0  0  0  0  0
  191.3250  176.5390  148.0300 C   0  0  0  0  0  3  0  0  0  0  0  0
  190.3980  177.5430  147.7370 C   0  0  0  0  0  0  0  0  0  0  0  0
  191.4060  175.9160  145.6850 C   0  0  0  0  0  0  0  0  0  0  0  0
  189.9680  177.7340  146.4220 C   0  0  0  0  0  3  0  0  0  0  0  0
  190.4590  176.9210  145.3900 C   0  0  0  0  0  0  0  0  0  0  0  0
  189.9170  178.3310  148.7280 F   0  0  0  0  0  0  0  0  0  0  0  0
  189.9890  177.1580  143.9870 C   0  0  0  0  0  2  0  0  0  0  0  0
  185.9340  179.3870  145.0210 C   0  0  0  0  0  2  0  0  0  0  0  0
  183.6720  178.7750  145.4590 O   0  0  0  0  0  1  0  0  0  0  0  0
  188.5260  177.4630  143.9450 C   0  0  0  0  0  0  0  0  0  0  0  0
  186.6650  178.6310  144.0230 N   0  0  0  0  0  0  0  0  0  0  0  0
  187.4610  176.4220  143.9520 C   0  0  0  0  0  2  0  0  0  0  0  0
  186.1830  177.2720  143.8730 C   0  0  1  0  0  0  0  0  0  0  0  0
  185.2560  177.0270  145.0630 C   0  0  0  0  0  2  0  0  0  0  0  0
  188.0590  178.6610  144.0200 N   0  0  0  0  0  0  0  0  0  0  0  0
  184.9940  178.3950  145.6940 C   0  0  1  0  0  3  0  0  0  0  0  0
  183.6550  177.9160  140.1380 O   0  0  0  0  0  1  0  0  0  0  0  0
  184.8410  178.4150  140.6750 C   0  0  1  0  0  3  0  0  0  0  0  0
  186.5060  176.8730  141.4960 C   0  0  0  0  0  2  0  0  0  0  0  0
  184.7950  178.3030  142.1810 C   0  0  0  0  0  2  0  0  0  0  0  0
  185.5270  177.0940  142.5600 N   0  0  2  0  0  0  0  0  0  0  0  0
  185.9910  177.5410  140.2400 C   0  0  0  0  0  2  0  0  0  0  0  0
  1 10  1  0  0  0  0
  1  3  2  0  0  0  0
  2  7  1  0  0  0  0
  2  8  2  0  0  0  0
  4  8  1  0  0  0  0
  5 11  1  1  0  0  0
  5  9  1  0  0  0  0
  5  2  1  0  0  0  0
  6 37  1  0  0  0  0
  6 10  2  0  0  0  0
  7  6  1  0  0  0  0
  8  1  1  0  0  0  0
  9  4  2  0  0  0  0
 12 16  1  1  0  0  0
 13 30  1  6  0  0  0
 13 14  1  0  0  0  0
 13 12  1  0  0  0  0
 14 28  1  6  0  0  0
 14 12  1  0  0  0  0
 15 34  1  0  0  0  0
 16 17  1  0  0  0  0
 17 32  1  0  0  0  0
 18 20  1  6  0  0  0
 18 24  1  0  0  0  0
 18 15  1  0  0  0  0
 19 27  1  0  0  0  0
 21 26  1  6  0  0  0
 21 22  1  0  0  0  0
 22 20  1  1  0  0  0
 22 19  1  0  0  0  0
 23 34  2  0  0  0  0
 25 33  1  0  0  0  0
 26 29  1  0  0  0  0
 27 24  1  0  0  0  0
 27 11  1  1  0  0  0
 29 28  1  6  0  0  0
 29 21  1  0  0  0  0
 31 33  1  0  0  0  0
 32 35  1  0  0  0  0
 32 31  1  0  0  0  0
 34 25  1  0  0  0  0
 36 35  1  0  0  0  0
 37 41  1  0  0  0  0
 38 39  1  0  0  0  0
 40 39  2  0  0  0  0
 40 44  1  0  0  0  0
 41 38  2  0  0  0  0
 42 40  1  0  0  0  0
 43 41  1  0  0  0  0
 43 42  2  0  0  0  0
 45 43  1  0  0  0  0
 46 54  1  0  0  0  0
 48 50  1  0  0  0  0
 48 45  1  0  0  0  0
 48 53  2  0  0  0  0
 49 46  1  0  0  0  0
 51 50  1  1  0  0  0
 51 49  1  0  0  0  0
 51 52  1  0  0  0  0
 52 54  1  0  0  0  0
 53 49  1  0  0  0  0
 54 47  1  6  0  0  0
 56 55  1  6  0  0  0
 56 58  1  0  0  0  0
 58 59  1  0  0  0  0
 59 57  1  6  0  0  0
 59 51  1  0  0  0  0
 60 56  1  0  0  0  0
 60 57  1  0  0  0  0
M  END
>  <MODEL>
9

>  <REMARK>
 VINA RESULT:      -8.2      2.558      6.107
  Name = 
  8 active torsions:
  status: ('A' for Active; 'I' for Inactive)
    1  A    between atoms: C_6  and  C_30
    2  A    between atoms: C_6  and  C_42
    3  A    between atoms: C_10  and  C_25
    4  A    between atoms: C_13  and  N_51
    5  A    between atoms: C_21  and  C_27
    6  A    between atoms: C_21  and  C_33
    7  A    between atoms: C_24  and  N_54
    8  A    between atoms: C_25  and  C_39
                            x       y       z     vdW  Elec       q    Type
                         _______ _______ _______ _____ _____    ______ ____

>  <TORSDO>
F 8

$$$$
