=
 OpenBabel11062419263D

 38 43  0  0  1  0  0  0  0  0999 V2000
  190.5260  171.8070  141.7600 C   0  0  0  0  0  2  0  0  0  0  0  0
  189.3280  172.1810  142.7270 C   0  0  0  0  0  2  0  0  0  0  0  0
  192.6680  174.1630  143.6520 C   0  0  2  0  0  3  0  0  0  0  0  0
  192.4970  172.7940  139.6080 C   0  0  0  0  0  2  0  0  0  0  0  0
  193.4430  175.4210  143.2330 C   0  0  0  0  0  2  0  0  0  0  0  0
  193.7420  174.8760  140.2820 C   0  0  0  0  0  2  0  0  0  0  0  0
  195.6650  174.5320  143.4900 O   0  0  0  0  0  1  0  0  0  0  0  0
  188.9100  172.5100  139.9320 N   0  0  0  0  0  0  0  0  0  0  0  0
  190.6250  174.9670  142.4230 C   0  0  0  0  0  2  0  0  0  0  0  0
  188.5140  173.4070  142.2450 C   0  0  2  0  0  0  0  0  0  0  0  0
  187.1940  173.3630  141.8650 O   0  0  0  0  0  0  0  0  0  0  0  0
  194.6450  174.2180  141.3260 C   0  0  1  0  0  3  0  0  0  0  0  0
  195.9580  173.9800  140.7490 N   0  0  0  0  0  1  0  0  0  0  0  0
  194.7870  175.1080  142.5670 C   0  0  1  0  0  3  0  0  0  0  0  0
  191.1630  173.3160  139.8620 N   0  0  0  0  0  2  0  0  0  0  0  0
  191.1670  174.4340  143.7430 C   0  0  0  0  0  2  0  0  0  0  0  0
  190.3130  172.1910  140.2360 C   0  0  1  0  0  3  0  0  0  0  0  0
  193.4110  173.9160  139.1430 C   0  0  0  0  0  2  0  0  0  0  0  0
  188.3130  172.9830  140.9620 C   0  0  0  0  0  0  0  0  0  0  0  0
  189.1040  174.8300  142.2840 C   0  0  1  0  0  3  0  0  0  0  0  0
  185.9450  176.7440  145.6090 S   0  0  0  0  0  0  0  0  0  0  0  0
  188.6550  177.3230  143.0800 C   0  0  1  0  0  3  0  0  0  0  0  0
  187.6980  177.7120  140.8730 O   0  0  0  0  0  1  0  0  0  0  0  0
  188.2270  175.8400  143.0390 C   0  0  1  0  0  3  0  0  0  0  0  0
  186.4220  177.3570  142.8910 C   0  0  1  0  0  0  0  0  0  0  0  0
  187.6020  178.0150  142.2330 C   0  0  1  0  0  3  0  0  0  0  0  0
  186.7320  175.8600  142.7350 C   0  0  0  0  0  2  0  0  0  0  0  0
  186.6500  177.8410  144.3350 C   0  0  2  0  0  3  0  0  0  0  0  0
  188.6290  177.0130  145.6420 C   0  0  2  0  0  3  0  0  0  0  0  0
  185.0800  177.7810  142.3160 C   0  0  0  0  0  1  0  0  0  0  0  0
  188.1850  177.8580  144.4500 C   0  0  1  0  0  3  0  0  0  0  0  0
  187.4550  176.9310  146.6020 C   0  0  2  0  0  3  0  0  0  0  0  0
  187.6120  175.7880  147.4900 N   0  0  0  0  0  2  0  0  0  0  0  0
  188.5640  174.9940  146.9540 O   0  0  0  0  0  1  0  0  0  0  0  0
  191.0070  177.2290  145.7180 O   0  0  0  0  0  1  0  0  0  0  0  0
  189.8280  177.6480  146.3300 C   0  0  0  0  0  2  0  0  0  0  0  0
  193.2170  174.6040  146.0940 C   0  0  0  0  0  1  0  0  0  0  0  0
  193.1930  173.5820  144.9680 C   0  0  0  0  0  2  0  0  0  0  0  0
  1  2  1  0  0  0  0
  3 16  1  0  0  0  0
  3 38  1  1  0  0  0
  4 15  1  0  0  0  0
  5  3  1  0  0  0  0
  6 12  1  0  0  0  0
  8 17  1  0  0  0  0
  8 19  2  0  0  0  0
  9 16  1  0  0  0  0
 10 20  1  0  0  0  0
 10  2  1  1  0  0  0
 11 10  1  0  0  0  0
 12 13  1  6  0  0  0
 12 14  1  0  0  0  0
 14  5  1  0  0  0  0
 14  7  1  1  0  0  0
 15 17  1  0  0  0  0
 17  1  1  1  0  0  0
 18  4  1  0  0  0  0
 18  6  1  0  0  0  0
 19 11  1  0  0  0  0
 19 10  1  0  0  0  0
 20  9  1  1  0  0  0
 20 24  1  0  0  0  0
 21 32  1  0  0  0  0
 22 31  1  0  0  0  0
 23 26  1  0  0  0  0
 24 22  1  0  0  0  0
 25 28  1  0  0  0  0
 26 25  1  0  0  0  0
 26 22  1  0  0  0  0
 27 25  1  0  0  0  0
 27 24  1  0  0  0  0
 28 31  1  0  0  0  0
 28 21  1  0  0  0  0
 29 36  1  0  0  0  0
 29 32  1  0  0  0  0
 30 25  1  0  0  0  0
 31 29  1  0  0  0  0
 32 33  1  0  0  0  0
 34 33  1  0  0  0  0
 35 36  1  0  0  0  0
 38 37  1  0  0  0  0
M  END
>  <MODEL>
1

>  <REMARK>
 VINA RESULT:      -8.0      0.000      0.000
  Name = 
  4 active torsions:
  status: ('A' for Active; 'I' for Inactive)
    1  A    between atoms: N_3  and  C_37
    2  A    between atoms: C_7  and  C_28
    3  A    between atoms: C_16  and  C_38
    4  A    between atoms: C_23  and  C_36
                            x       y       z     vdW  Elec       q    Type
                         _______ _______ _______ _____ _____    ______ ____

>  <TORSDO>
F 4

$$$$
=
 OpenBabel11062419263D

 38 43  0  0  1  0  0  0  0  0999 V2000
  190.4480  171.6170  140.9350 C   0  0  0  0  0  2  0  0  0  0  0  0
  189.5700  171.9770  142.2040 C   0  0  0  0  0  2  0  0  0  0  0  0
  193.2390  173.5320  142.4390 C   0  0  2  0  0  3  0  0  0  0  0  0
  191.9430  172.6790  138.4590 C   0  0  0  0  0  2  0  0  0  0  0  0
  194.0300  174.7570  141.9590 C   0  0  0  0  0  2  0  0  0  0  0  0
  193.5440  174.5470  138.9900 C   0  0  0  0  0  2  0  0  0  0  0  0
  196.1310  173.6520  141.5620 O   0  0  0  0  0  1  0  0  0  0  0  0
  188.5310  172.6750  139.6480 N   0  0  0  0  0  0  0  0  0  0  0  0
  191.0670  174.6540  141.8470 C   0  0  0  0  0  2  0  0  0  0  0  0
  188.8100  173.3180  142.0610 C   0  0  2  0  0  0  0  0  0  0  0  0
  187.4420  173.4370  142.0230 O   0  0  0  0  0  0  0  0  0  0  0  0
  194.5900  173.6910  139.7060 C   0  0  1  0  0  3  0  0  0  0  0  0
  195.6890  173.4100  138.7960 N   0  0  0  0  0  1  0  0  0  0  0  0
  195.1280  174.4100  140.9490 C   0  0  1  0  0  3  0  0  0  0  0  0
  190.7780  173.2810  139.0890 N   0  0  0  0  0  2  0  0  0  0  0  0
  191.8460  173.9210  142.9310 C   0  0  0  0  0  2  0  0  0  0  0  0
  189.9190  172.1990  139.5570 C   0  0  1  0  0  3  0  0  0  0  0  0
  192.8400  173.7630  137.8860 C   0  0  0  0  0  2  0  0  0  0  0  0
  188.2580  173.0710  140.8350 C   0  0  0  0  0  0  0  0  0  0  0  0
  189.5520  174.6690  142.0830 C   0  0  1  0  0  3  0  0  0  0  0  0
  187.3640  176.4360  146.1810 S   0  0  0  0  0  0  0  0  0  0  0  0
  189.6970  177.0240  143.3030 C   0  0  1  0  0  3  0  0  0  0  0  0
  188.4880  177.9350  141.3930 O   0  0  0  0  0  1  0  0  0  0  0  0
  189.0050  175.6540  143.1270 C   0  0  1  0  0  3  0  0  0  0  0  0
  187.5070  177.4340  143.5400 C   0  0  1  0  0  0  0  0  0  0  0  0
  188.6660  178.0070  142.7760 C   0  0  1  0  0  3  0  0  0  0  0  0
  187.5100  175.9580  143.1130 C   0  0  0  0  0  2  0  0  0  0  0  0
  188.0450  177.6170  144.9710 C   0  0  2  0  0  3  0  0  0  0  0  0
  190.0220  176.2780  145.7520 C   0  0  2  0  0  3  0  0  0  0  0  0
  186.1900  178.1530  143.2930 C   0  0  0  0  0  1  0  0  0  0  0  0
  189.5560  177.3770  144.7980 C   0  0  1  0  0  3  0  0  0  0  0  0
  189.0210  176.2110  146.8910 C   0  0  2  0  0  3  0  0  0  0  0  0
  189.1060  174.9210  147.5590 N   0  0  0  0  0  2  0  0  0  0  0  0
  189.3160  173.9900  146.6030 O   0  0  0  0  0  1  0  0  0  0  0  0
  192.3170  175.6230  145.8630 O   0  0  0  0  0  1  0  0  0  0  0  0
  191.4110  176.5910  146.2890 C   0  0  0  0  0  2  0  0  0  0  0  0
  193.0860  172.2540  144.6310 C   0  0  0  0  0  1  0  0  0  0  0  0
  193.9960  172.7530  143.5190 C   0  0  0  0  0  2  0  0  0  0  0  0
  1  2  1  0  0  0  0
  3 16  1  0  0  0  0
  3 38  1  1  0  0  0
  4 15  1  0  0  0  0
  5  3  1  0  0  0  0
  6 12  1  0  0  0  0
  8 19  2  0  0  0  0
  9 16  1  0  0  0  0
 10 20  1  0  0  0  0
 10  2  1  1  0  0  0
 11 10  1  0  0  0  0
 12 13  1  6  0  0  0
 12 14  1  0  0  0  0
 14  7  1  1  0  0  0
 14  5  1  0  0  0  0
 15 17  1  0  0  0  0
 17  8  1  0  0  0  0
 17  1  1  1  0  0  0
 18  4  1  0  0  0  0
 18  6  1  0  0  0  0
 19 11  1  0  0  0  0
 19 10  1  0  0  0  0
 20  9  1  1  0  0  0
 20 24  1  0  0  0  0
 21 32  1  0  0  0  0
 22 31  1  0  0  0  0
 23 26  1  0  0  0  0
 24 22  1  0  0  0  0
 25 28  1  0  0  0  0
 26 22  1  0  0  0  0
 26 25  1  0  0  0  0
 27 24  1  0  0  0  0
 27 25  1  0  0  0  0
 28 21  1  0  0  0  0
 29 36  1  0  0  0  0
 29 32  1  0  0  0  0
 30 25  1  0  0  0  0
 31 28  1  0  0  0  0
 31 29  1  0  0  0  0
 32 33  1  0  0  0  0
 34 33  1  0  0  0  0
 35 36  1  0  0  0  0
 38 37  1  0  0  0  0
M  END
>  <MODEL>
2

>  <REMARK>
 VINA RESULT:      -7.8      1.250      1.410
  Name = 
  4 active torsions:
  status: ('A' for Active; 'I' for Inactive)
    1  A    between atoms: N_3  and  C_37
    2  A    between atoms: C_7  and  C_28
    3  A    between atoms: C_16  and  C_38
    4  A    between atoms: C_23  and  C_36
                            x       y       z     vdW  Elec       q    Type
                         _______ _______ _______ _____ _____    ______ ____

>  <TORSDO>
F 4

$$$$
=
 OpenBabel11062419263D

 38 43  0  0  1  0  0  0  0  0999 V2000
  190.5820  175.1120  146.8330 C   0  0  0  0  0  2  0  0  0  0  0  0
  191.9850  174.3750  146.8250 C   0  0  0  0  0  2  0  0  0  0  0  0
  189.8910  173.6300  143.5100 C   0  0  2  0  0  3  0  0  0  0  0  0
  188.7900  177.2410  145.5100 C   0  0  0  0  0  2  0  0  0  0  0  0
  189.5980  174.2560  142.1390 C   0  0  0  0  0  2  0  0  0  0  0  0
  188.5860  176.9570  143.0170 C   0  0  0  0  0  2  0  0  0  0  0  0
  187.2900  173.5920  141.9660 O   0  0  0  0  0  1  0  0  0  0  0  0
  191.9870  177.1970  147.1930 N   0  0  0  0  0  0  0  0  0  0  0  0
  191.8280  175.1980  143.8530 C   0  0  0  0  0  2  0  0  0  0  0  0
  193.1070  175.2040  146.1520 C   0  0  2  0  0  0  0  0  0  0  0  0
  194.2170  175.6850  146.8040 O   0  0  0  0  0  0  0  0  0  0  0  0
  187.7030  175.7080  143.0480 C   0  0  1  0  0  3  0  0  0  0  0  0
  186.3190  176.0890  142.8170 N   0  0  0  0  0  1  0  0  0  0  0  0
  188.1410  174.7020  141.9780 C   0  0  1  0  0  3  0  0  0  0  0  0
  190.2450  177.2410  145.5530 N   0  0  0  0  0  2  0  0  0  0  0  0
  191.3700  173.7450  143.8740 C   0  0  0  0  0  2  0  0  0  0  0  0
  190.6490  176.6970  146.8440 C   0  0  1  0  0  3  0  0  0  0  0  0
  188.3110  177.8670  144.2110 C   0  0  0  0  0  2  0  0  0  0  0  0
  192.8950  176.3660  146.8390 C   0  0  0  0  0  0  0  0  0  0  0  0
  193.1270  175.4420  144.6300 C   0  0  1  0  0  3  0  0  0  0  0  0
  197.8600  174.0440  144.0390 S   0  0  0  0  0  0  0  0  0  0  0  0
  194.3990  174.2800  142.6090 C   0  0  1  0  0  3  0  0  0  0  0  0
  194.1130  176.3770  141.4010 O   0  0  0  0  0  1  0  0  0  0  0  0
  194.4460  175.0290  143.9600 C   0  0  1  0  0  3  0  0  0  0  0  0
  196.1590  175.6590  142.4610 C   0  0  1  0  0  0  0  0  0  0  0  0
  194.9640  175.2930  141.6280 C   0  0  1  0  0  3  0  0  0  0  0  0
  195.5310  176.0880  143.7950 C   0  0  0  0  0  2  0  0  0  0  0  0
  196.8200  174.2720  142.5580 C   0  0  2  0  0  3  0  0  0  0  0  0
  195.7020  172.4350  143.8570 C   0  0  2  0  0  3  0  0  0  0  0  0
  197.0540  176.7110  141.8240 C   0  0  0  0  0  1  0  0  0  0  0  0
  195.6100  173.3230  142.6180 C   0  0  1  0  0  3  0  0  0  0  0  0
  197.1620  172.3820  144.2700 C   0  0  2  0  0  3  0  0  0  0  0  0
  197.2760  171.9840  145.6650 N   0  0  0  0  0  2  0  0  0  0  0  0
  196.9590  173.0620  146.4150 O   0  0  0  0  0  1  0  0  0  0  0  0
  193.9920  170.8080  144.2250 O   0  0  0  0  0  1  0  0  0  0  0  0
  195.1900  171.0350  143.5520 C   0  0  0  0  0  2  0  0  0  0  0  0
  190.0210  171.3120  142.4750 C   0  0  0  0  0  1  0  0  0  0  0  0
  189.4290  172.1710  143.5810 C   0  0  0  0  0  2  0  0  0  0  0  0
  2  1  1  0  0  0  0
  3 38  1  6  0  0  0
  3 16  1  0  0  0  0
  4 15  1  0  0  0  0
  5  3  1  0  0  0  0
  6 12  1  0  0  0  0
  6 18  1  0  0  0  0
  9 16  1  0  0  0  0
 10 11  1  0  0  0  0
 10  2  1  1  0  0  0
 10 19  1  0  0  0  0
 11 19  1  0  0  0  0
 12 13  1  6  0  0  0
 14  7  1  1  0  0  0
 14  5  1  0  0  0  0
 14 12  1  0  0  0  0
 15 17  1  0  0  0  0
 17  1  1  6  0  0  0
 17  8  1  0  0  0  0
 18  4  1  0  0  0  0
 19  8  2  0  0  0  0
 20  9  1  6  0  0  0
 20 10  1  0  0  0  0
 21 32  1  0  0  0  0
 22 31  1  0  0  0  0
 22 24  1  0  0  0  0
 23 26  1  0  0  0  0
 24 20  1  0  0  0  0
 25 28  1  0  0  0  0
 25 27  1  0  0  0  0
 26 25  1  0  0  0  0
 26 22  1  0  0  0  0
 27 24  1  0  0  0  0
 28 31  1  0  0  0  0
 28 21  1  0  0  0  0
 29 32  1  0  0  0  0
 30 25  1  0  0  0  0
 31 29  1  0  0  0  0
 32 33  1  0  0  0  0
 33 34  1  0  0  0  0
 36 29  1  0  0  0  0
 36 35  1  0  0  0  0
 37 38  1  0  0  0  0
M  END
>  <MODEL>
3

>  <REMARK>
 VINA RESULT:      -7.6      3.308      7.899
  Name = 
  4 active torsions:
  status: ('A' for Active; 'I' for Inactive)
    1  A    between atoms: N_3  and  C_37
    2  A    between atoms: C_7  and  C_28
    3  A    between atoms: C_16  and  C_38
    4  A    between atoms: C_23  and  C_36
                            x       y       z     vdW  Elec       q    Type
                         _______ _______ _______ _____ _____    ______ ____

>  <TORSDO>
F 4

$$$$
=
 OpenBabel11062419263D

 38 43  0  0  1  0  0  0  0  0999 V2000
  194.8090  175.0390  142.8970 C   0  0  0  0  0  2  0  0  0  0  0  0
  193.5990  176.0040  142.5560 C   0  0  0  0  0  2  0  0  0  0  0  0
  192.5030  172.1660  142.5060 C   0  0  2  0  0  3  0  0  0  0  0  0
  195.9720  172.9740  144.8660 C   0  0  0  0  0  2  0  0  0  0  0  0
  192.0590  171.0580  143.4720 C   0  0  0  0  0  2  0  0  0  0  0  0
  194.3760  171.1020  145.4010 C   0  0  0  0  0  2  0  0  0  0  0  0
  193.1680  169.2180  142.3850 O   0  0  0  0  0  1  0  0  0  0  0  0
  194.9810  176.4450  145.0050 N   0  0  0  0  0  0  0  0  0  0  0  0
  192.1110  173.9140  144.2730 C   0  0  0  0  0  2  0  0  0  0  0  0
  192.7760  176.4150  143.8010 C   0  0  2  0  0  0  0  0  0  0  0  0
  192.6760  177.7000  144.2790 O   0  0  0  0  0  0  0  0  0  0  0  0
  194.4590  170.3990  144.0460 C   0  0  1  0  0  3  0  0  0  0  0  0
  195.3580  169.2600  144.1470 N   0  0  0  0  0  1  0  0  0  0  0  0
  193.0760  169.9180  143.5920 C   0  0  1  0  0  3  0  0  0  0  0  0
  195.0610  174.0610  145.1920 N   0  0  0  0  0  2  0  0  0  0  0  0
  191.8310  173.4980  142.8340 C   0  0  0  0  0  2  0  0  0  0  0  0
  195.4160  175.2010  144.3540 C   0  0  1  0  0  3  0  0  0  0  0  0
  195.6950  171.7790  145.7630 C   0  0  0  0  0  2  0  0  0  0  0  0
  193.8280  176.8080  144.5790 C   0  0  0  0  0  0  0  0  0  0  0  0
  191.8740  175.4050  144.5380 C   0  0  1  0  0  3  0  0  0  0  0  0
  187.6960  178.0290  143.9350 S   0  0  0  0  0  0  0  0  0  0  0  0
  189.3310  174.8470  145.0640 C   0  0  1  0  0  3  0  0  0  0  0  0
  189.9310  174.9830  147.4220 O   0  0  0  0  0  1  0  0  0  0  0  0
  190.4210  175.8790  144.6960 C   0  0  1  0  0  3  0  0  0  0  0  0
  188.7860  176.7100  146.1850 C   0  0  1  0  0  0  0  0  0  0  0  0
  188.9370  175.2430  146.4760 C   0  0  1  0  0  3  0  0  0  0  0  0
  190.1520  177.0850  145.5900 C   0  0  0  0  0  2  0  0  0  0  0  0
  187.6930  176.6300  145.1030 C   0  0  2  0  0  3  0  0  0  0  0  0
  188.2080  175.6050  142.8670 C   0  0  2  0  0  3  0  0  0  0  0  0
  188.3810  177.5390  147.3920 C   0  0  0  0  0  1  0  0  0  0  0  0
  188.0440  175.3280  144.3610 C   0  0  1  0  0  3  0  0  0  0  0  0
  187.4370  176.8760  142.5550 C   0  0  2  0  0  3  0  0  0  0  0  0
  187.9210  177.4650  141.3150 N   0  0  0  0  0  2  0  0  0  0  0  0
  188.9410  178.2910  141.6380 O   0  0  0  0  0  1  0  0  0  0  0  0
  188.5880  174.0820  141.0660 O   0  0  0  0  0  1  0  0  0  0  0  0
  187.6660  174.4450  142.0450 C   0  0  0  0  0  2  0  0  0  0  0  0
  190.8220  171.3460  140.7850 C   0  0  0  0  0  1  0  0  0  0  0  0
  192.2560  171.7820  141.0440 C   0  0  0  0  0  2  0  0  0  0  0  0
  2  1  1  0  0  0  0
  3 38  1  6  0  0  0
  3 16  1  0  0  0  0
  3  5  1  0  0  0  0
  4 15  1  0  0  0  0
  4 18  1  0  0  0  0
  5 14  1  0  0  0  0
  6 18  1  0  0  0  0
 10  2  1  6  0  0  0
 10 11  1  0  0  0  0
 10 20  1  0  0  0  0
 10 19  1  0  0  0  0
 11 19  1  0  0  0  0
 12 13  1  1  0  0  0
 12  6  1  0  0  0  0
 14  7  1  6  0  0  0
 14 12  1  0  0  0  0
 16  9  1  0  0  0  0
 17  1  1  6  0  0  0
 17  8  1  0  0  0  0
 17 15  1  0  0  0  0
 19  8  2  0  0  0  0
 20  9  1  6  0  0  0
 20 24  1  0  0  0  0
 21 28  1  0  0  0  0
 22 26  1  0  0  0  0
 24 22  1  0  0  0  0
 24 27  1  0  0  0  0
 25 26  1  0  0  0  0
 25 30  1  0  0  0  0
 26 23  1  0  0  0  0
 27 25  1  0  0  0  0
 28 25  1  0  0  0  0
 29 31  1  0  0  0  0
 31 22  1  0  0  0  0
 31 28  1  0  0  0  0
 32 29  1  0  0  0  0
 32 21  1  0  0  0  0
 33 34  1  0  0  0  0
 33 32  1  0  0  0  0
 35 36  1  0  0  0  0
 36 29  1  0  0  0  0
 37 38  1  0  0  0  0
M  END
>  <MODEL>
4

>  <REMARK>
 VINA RESULT:      -7.3      2.654      5.427
  Name = 
  4 active torsions:
  status: ('A' for Active; 'I' for Inactive)
    1  A    between atoms: N_3  and  C_37
    2  A    between atoms: C_7  and  C_28
    3  A    between atoms: C_16  and  C_38
    4  A    between atoms: C_23  and  C_36
                            x       y       z     vdW  Elec       q    Type
                         _______ _______ _______ _____ _____    ______ ____

>  <TORSDO>
F 4

$$$$
=
 OpenBabel11062419263D

 38 43  0  0  1  0  0  0  0  0999 V2000
  195.2340  173.9630  141.5920 C   0  0  0  0  0  2  0  0  0  0  0  0
  193.7560  174.4690  141.3250 C   0  0  0  0  0  2  0  0  0  0  0  0
  193.8420  171.3690  143.8380 C   0  0  2  0  0  3  0  0  0  0  0  0
  197.4880  173.5880  143.6590 C   0  0  0  0  0  2  0  0  0  0  0  0
  194.0530  171.0690  145.3290 C   0  0  0  0  0  2  0  0  0  0  0  0
  196.7390  172.3790  145.7360 C   0  0  0  0  0  2  0  0  0  0  0  0
  195.2490  168.9950  145.0770 O   0  0  0  0  0  1  0  0  0  0  0  0
  195.6400  176.3730  142.2850 N   0  0  0  0  0  0  0  0  0  0  0  0
  193.5330  173.8150  144.3350 C   0  0  0  0  0  2  0  0  0  0  0  0
  193.2760  175.5250  142.3510 C   0  0  2  0  0  0  0  0  0  0  0  0
  192.9670  176.8270  142.0400 O   0  0  0  0  0  0  0  0  0  0  0  0
  196.5970  170.9950  145.0990 C   0  0  1  0  0  3  0  0  0  0  0  0
  197.7680  170.1950  145.4160 N   0  0  0  0  0  1  0  0  0  0  0  0
  195.3390  170.2840  145.6110 C   0  0  1  0  0  3  0  0  0  0  0  0
  196.4520  174.6100  143.6850 N   0  0  0  0  0  2  0  0  0  0  0  0
  192.9530  172.5930  143.6330 C   0  0  0  0  0  2  0  0  0  0  0  0
  196.1890  175.0090  142.3070 C   0  0  1  0  0  3  0  0  0  0  0  0
  197.8550  173.1860  145.0770 C   0  0  0  0  0  2  0  0  0  0  0  0
  194.3600  176.3520  142.2610 C   0  0  0  0  0  0  0  0  0  0  0  0
  192.9750  175.1450  143.8130 C   0  0  1  0  0  3  0  0  0  0  0  0
  188.6010  177.4960  144.0360 S   0  0  0  0  0  0  0  0  0  0  0  0
  190.6710  174.5110  144.9740 C   0  0  1  0  0  3  0  0  0  0  0  0
  191.7970  174.8850  147.1030 O   0  0  0  0  0  1  0  0  0  0  0  0
  191.5700  175.5580  144.2790 C   0  0  1  0  0  3  0  0  0  0  0  0
  190.2780  176.4370  146.0510 C   0  0  1  0  0  0  0  0  0  0  0  0
  190.5930  175.0120  146.4060 C   0  0  1  0  0  3  0  0  0  0  0  0
  191.4360  176.8240  145.1190 C   0  0  0  0  0  2  0  0  0  0  0  0
  188.9690  176.2080  145.2720 C   0  0  2  0  0  3  0  0  0  0  0  0
  189.0130  175.0150  143.0610 C   0  0  2  0  0  3  0  0  0  0  0  0
  190.1110  177.3500  147.2550 C   0  0  0  0  0  1  0  0  0  0  0  0
  189.2250  174.8640  144.5670 C   0  0  1  0  0  3  0  0  0  0  0  0
  188.1060  176.2130  142.8490 C   0  0  2  0  0  3  0  0  0  0  0  0
  188.2430  176.7130  141.4890 N   0  0  0  0  0  2  0  0  0  0  0  0
  188.3770  178.0550  141.5690 O   0  0  0  0  0  1  0  0  0  0  0  0
  189.3430  172.9780  141.8570 O   0  0  0  0  0  1  0  0  0  0  0  0
  188.3750  173.7610  142.4820 C   0  0  0  0  0  2  0  0  0  0  0  0
  191.8800  170.4090  142.5370 C   0  0  0  0  0  1  0  0  0  0  0  0
  193.2750  170.1590  143.0890 C   0  0  0  0  0  2  0  0  0  0  0  0
  2  1  1  0  0  0  0
  3 38  1  6  0  0  0
  3  5  1  0  0  0  0
  4 15  1  0  0  0  0
  4 18  1  0  0  0  0
  5 14  1  0  0  0  0
  8 17  1  0  0  0  0
 10  2  1  6  0  0  0
 10 20  1  0  0  0  0
 11 19  1  0  0  0  0
 11 10  1  0  0  0  0
 12 13  1  1  0  0  0
 12 14  1  0  0  0  0
 12  6  1  0  0  0  0
 14  7  1  6  0  0  0
 16  3  1  0  0  0  0
 16  9  1  0  0  0  0
 17  1  1  1  0  0  0
 17 15  1  0  0  0  0
 18  6  1  0  0  0  0
 19  8  2  0  0  0  0
 19 10  1  0  0  0  0
 20 24  1  0  0  0  0
 20  9  1  6  0  0  0
 21 28  1  0  0  0  0
 22 26  1  0  0  0  0
 24 22  1  0  0  0  0
 24 27  1  0  0  0  0
 25 26  1  0  0  0  0
 25 30  1  0  0  0  0
 26 23  1  0  0  0  0
 27 25  1  0  0  0  0
 28 25  1  0  0  0  0
 29 31  1  0  0  0  0
 31 22  1  0  0  0  0
 31 28  1  0  0  0  0
 32 29  1  0  0  0  0
 32 21  1  0  0  0  0
 33 34  1  0  0  0  0
 33 32  1  0  0  0  0
 35 36  1  0  0  0  0
 36 29  1  0  0  0  0
 37 38  1  0  0  0  0
M  END
>  <MODEL>
5

>  <REMARK>
 VINA RESULT:      -7.3      2.775      5.517
  Name = 
  4 active torsions:
  status: ('A' for Active; 'I' for Inactive)
    1  A    between atoms: N_3  and  C_37
    2  A    between atoms: C_7  and  C_28
    3  A    between atoms: C_16  and  C_38
    4  A    between atoms: C_23  and  C_36
                            x       y       z     vdW  Elec       q    Type
                         _______ _______ _______ _____ _____    ______ ____

>  <TORSDO>
F 4

$$$$
=
 OpenBabel11062419263D

 38 43  0  0  1  0  0  0  0  0999 V2000
  188.6020  172.4550  142.2940 C   0  0  0  0  0  2  0  0  0  0  0  0
  189.4410  172.6370  143.6260 C   0  0  0  0  0  2  0  0  0  0  0  0
  191.6730  171.2130  140.6380 C   0  0  2  0  0  3  0  0  0  0  0  0
  188.1930  173.3440  139.3730 C   0  0  0  0  0  2  0  0  0  0  0  0
  192.4670  171.7120  139.4230 C   0  0  0  0  0  2  0  0  0  0  0  0
  190.3060  173.2680  138.0060 C   0  0  0  0  0  2  0  0  0  0  0  0
  191.9530  169.8930  137.9310 O   0  0  0  0  0  1  0  0  0  0  0  0
  188.0620  174.9150  142.6230 N   0  0  0  0  0  0  0  0  0  0  0  0
  191.5540  173.5480  141.5660 C   0  0  0  0  0  2  0  0  0  0  0  0
  190.1320  174.0190  143.7290 C   0  0  2  0  0  0  0  0  0  0  0  0
  189.8410  174.9650  144.6830 O   0  0  0  0  0  0  0  0  0  0  0  0
  190.4070  171.7450  137.9120 C   0  0  1  0  0  3  0  0  0  0  0  0
  189.9090  171.3070  136.6170 N   0  0  0  0  0  1  0  0  0  0  0  0
  191.8570  171.2800  138.0850 C   0  0  1  0  0  3  0  0  0  0  0  0
  188.7310  174.1540  140.4550 N   0  0  0  0  0  2  0  0  0  0  0  0
  191.9080  172.0960  141.8620 C   0  0  0  0  0  2  0  0  0  0  0  0
  188.0160  173.7930  141.6740 C   0  0  1  0  0  3  0  0  0  0  0  0
  188.8530  173.7310  138.0590 C   0  0  0  0  0  2  0  0  0  0  0  0
  189.0320  174.7790  143.4490 C   0  0  0  0  0  0  0  0  0  0  0  0
  191.3230  174.3920  142.8250 C   0  0  1  0  0  3  0  0  0  0  0  0
  195.5930  174.2950  145.3670 S   0  0  0  0  0  0  0  0  0  0  0  0
  193.1590  176.2540  143.2900 C   0  0  1  0  0  3  0  0  0  0  0  0
  191.5030  177.3400  144.7090 O   0  0  0  0  0  1  0  0  0  0  0  0
  192.5610  174.8640  143.6030 C   0  0  1  0  0  3  0  0  0  0  0  0
  193.3520  176.0120  145.5090 C   0  0  1  0  0  0  0  0  0  0  0  0
  192.8600  177.0540  144.5450 C   0  0  1  0  0  3  0  0  0  0  0  0
  192.5310  174.7720  145.1250 C   0  0  0  0  0  2  0  0  0  0  0  0
  194.8110  175.9060  145.0260 C   0  0  2  0  0  3  0  0  0  0  0  0
  195.3190  174.9420  142.7630 C   0  0  2  0  0  3  0  0  0  0  0  0
  193.2280  176.4170  146.9690 C   0  0  0  0  0  1  0  0  0  0  0  0
  194.6810  176.1140  143.5060 C   0  0  1  0  0  3  0  0  0  0  0  0
  196.3230  174.3000  143.7030 C   0  0  2  0  0  3  0  0  0  0  0  0
  196.6070  172.9370  143.2800 N   0  0  0  0  0  2  0  0  0  0  0  0
  195.4200  172.3110  143.1260 O   0  0  0  0  0  1  0  0  0  0  0  0
  196.2740  176.7910  141.5890 O   0  0  0  0  0  1  0  0  0  0  0  0
  196.0140  175.4250  141.4990 C   0  0  0  0  0  2  0  0  0  0  0  0
  190.8240  169.0330  141.6350 C   0  0  0  0  0  1  0  0  0  0  0  0
  191.9850  169.7480  140.9610 C   0  0  0  0  0  2  0  0  0  0  0  0
  1  2  1  0  0  0  0
  3 38  1  1  0  0  0
  3 16  1  0  0  0  0
  4 15  1  0  0  0  0
  5  3  1  0  0  0  0
  6 18  1  0  0  0  0
  8 19  2  0  0  0  0
  9 16  1  0  0  0  0
 10  2  1  1  0  0  0
 10 11  1  0  0  0  0
 12 13  1  6  0  0  0
 12  6  1  0  0  0  0
 12 14  1  0  0  0  0
 14  7  1  1  0  0  0
 14  5  1  0  0  0  0
 15 17  1  0  0  0  0
 17  1  1  1  0  0  0
 17  8  1  0  0  0  0
 18  4  1  0  0  0  0
 19 10  1  0  0  0  0
 19 11  1  0  0  0  0
 20  9  1  1  0  0  0
 20 24  1  0  0  0  0
 20 10  1  0  0  0  0
 22 31  1  0  0  0  0
 22 24  1  0  0  0  0
 22 26  1  0  0  0  0
 24 27  1  0  0  0  0
 25 30  1  0  0  0  0
 26 23  1  0  0  0  0
 26 25  1  0  0  0  0
 27 25  1  0  0  0  0
 28 21  1  0  0  0  0
 28 25  1  0  0  0  0
 29 31  1  0  0  0  0
 29 32  1  0  0  0  0
 31 28  1  0  0  0  0
 32 21  1  0  0  0  0
 33 32  1  0  0  0  0
 34 33  1  0  0  0  0
 36 35  1  0  0  0  0
 36 29  1  0  0  0  0
 38 37  1  0  0  0  0
M  END
>  <MODEL>
6

>  <REMARK>
 VINA RESULT:      -7.0      3.108      6.150
  Name = 
  4 active torsions:
  status: ('A' for Active; 'I' for Inactive)
    1  A    between atoms: N_3  and  C_37
    2  A    between atoms: C_7  and  C_28
    3  A    between atoms: C_16  and  C_38
    4  A    between atoms: C_23  and  C_36
                            x       y       z     vdW  Elec       q    Type
                         _______ _______ _______ _____ _____    ______ ____

>  <TORSDO>
F 4

$$$$
=
 OpenBabel11062419263D

 38 43  0  0  1  0  0  0  0  0999 V2000
  188.2740  172.4610  141.6840 C   0  0  0  0  0  2  0  0  0  0  0  0
  189.0340  172.2500  143.0580 C   0  0  0  0  0  2  0  0  0  0  0  0
  190.9430  170.5090  140.0160 C   0  0  2  0  0  3  0  0  0  0  0  0
  188.3540  173.7080  138.8680 C   0  0  0  0  0  2  0  0  0  0  0  0
  191.9330  170.8580  138.8950 C   0  0  0  0  0  2  0  0  0  0  0  0
  190.4390  173.1250  137.5820 C   0  0  0  0  0  2  0  0  0  0  0  0
  191.0060  169.4330  137.1900 O   0  0  0  0  0  1  0  0  0  0  0  0
  188.4700  174.9250  142.2670 N   0  0  0  0  0  0  0  0  0  0  0  0
  191.4610  172.6700  141.1960 C   0  0  0  0  0  2  0  0  0  0  0  0
  190.0960  173.3400  143.3430 C   0  0  2  0  0  0  0  0  0  0  0  0
  190.0340  174.2340  144.3850 O   0  0  0  0  0  0  0  0  0  0  0  0
  190.0870  171.6600  137.3210 C   0  0  1  0  0  3  0  0  0  0  0  0
  189.5740  171.5200  135.9670 N   0  0  0  0  0  1  0  0  0  0  0  0
  191.3170  170.7620  137.4950 C   0  0  1  0  0  3  0  0  0  0  0  0
  189.0320  174.2090  140.0550 N   0  0  0  0  0  2  0  0  0  0  0  0
  191.3440  171.1570  141.3390 C   0  0  0  0  0  2  0  0  0  0  0  0
  188.1580  173.9660  141.1970 C   0  0  1  0  0  3  0  0  0  0  0  0
  189.1900  174.0000  137.6320 C   0  0  0  0  0  2  0  0  0  0  0  0
  189.2960  174.4220  143.1080 C   0  0  0  0  0  0  0  0  0  0  0  0
  191.4040  173.4190  142.5320 C   0  0  1  0  0  3  0  0  0  0  0  0
  195.7490  174.8010  144.5120 S   0  0  0  0  0  0  0  0  0  0  0  0
  192.6180  172.7530  144.7990 C   0  0  1  0  0  3  0  0  0  0  0  0
  192.9460  170.5470  143.8170 O   0  0  0  0  0  1  0  0  0  0  0  0
  192.6690  173.4150  143.4040 C   0  0  1  0  0  3  0  0  0  0  0  0
  194.6440  172.2540  143.9800 C   0  0  1  0  0  0  0  0  0  0  0  0
  193.5040  171.5290  144.6380 C   0  0  1  0  0  3  0  0  0  0  0  0
  193.9720  172.9310  142.7760 C   0  0  0  0  0  2  0  0  0  0  0  0
  194.9670  173.2620  145.0980 C   0  0  2  0  0  3  0  0  0  0  0  0
  193.3270  175.0780  145.6660 C   0  0  2  0  0  3  0  0  0  0  0  0
  195.8170  171.3570  143.6190 C   0  0  0  0  0  1  0  0  0  0  0  0
  193.5790  173.5720  145.6870 C   0  0  1  0  0  3  0  0  0  0  0  0
  194.6810  175.7640  145.6210 C   0  0  2  0  0  3  0  0  0  0  0  0
  194.5390  177.1230  145.1210 N   0  0  0  0  0  2  0  0  0  0  0  0
  194.9410  177.9550  146.1070 O   0  0  0  0  0  1  0  0  0  0  0  0
  191.4720  176.3020  146.5450 O   0  0  0  0  0  1  0  0  0  0  0  0
  192.5590  175.5100  146.9070 C   0  0  0  0  0  2  0  0  0  0  0  0
  190.8170  168.5570  141.6390 C   0  0  0  0  0  1  0  0  0  0  0  0
  190.7810  168.9950  140.1830 C   0  0  0  0  0  2  0  0  0  0  0  0
  1  2  1  0  0  0  0
  3 38  1  1  0  0  0
  3 16  1  0  0  0  0
  4 15  1  0  0  0  0
  5  3  1  0  0  0  0
  6 18  1  0  0  0  0
  8 19  2  0  0  0  0
  9 16  1  0  0  0  0
 10  2  1  1  0  0  0
 10 11  1  0  0  0  0
 12 13  1  6  0  0  0
 12 14  1  0  0  0  0
 12  6  1  0  0  0  0
 14  7  1  1  0  0  0
 14  5  1  0  0  0  0
 15 17  1  0  0  0  0
 17  1  1  1  0  0  0
 17  8  1  0  0  0  0
 18  4  1  0  0  0  0
 19 10  1  0  0  0  0
 19 11  1  0  0  0  0
 20  9  1  6  0  0  0
 20 10  1  0  0  0  0
 20 24  1  0  0  0  0
 21 28  1  0  0  0  0
 21 32  1  0  0  0  0
 22 31  1  0  0  0  0
 23 26  1  0  0  0  0
 24 22  1  0  0  0  0
 25 26  1  0  0  0  0
 25 28  1  0  0  0  0
 26 22  1  0  0  0  0
 27 24  1  0  0  0  0
 27 25  1  0  0  0  0
 28 31  1  0  0  0  0
 29 31  1  0  0  0  0
 29 36  1  0  0  0  0
 30 25  1  0  0  0  0
 32 29  1  0  0  0  0
 33 32  1  0  0  0  0
 33 34  1  0  0  0  0
 35 36  1  0  0  0  0
 38 37  1  0  0  0  0
M  END
>  <MODEL>
7

>  <REMARK>
 VINA RESULT:      -7.0      3.468      6.448
  Name = 
  4 active torsions:
  status: ('A' for Active; 'I' for Inactive)
    1  A    between atoms: N_3  and  C_37
    2  A    between atoms: C_7  and  C_28
    3  A    between atoms: C_16  and  C_38
    4  A    between atoms: C_23  and  C_36
                            x       y       z     vdW  Elec       q    Type
                         _______ _______ _______ _____ _____    ______ ____

>  <TORSDO>
F 4

$$$$
=
 OpenBabel11062419263D

 38 43  0  0  1  0  0  0  0  0999 V2000
  188.1750  172.6080  140.2820 C   0  0  0  0  0  2  0  0  0  0  0  0
  188.0880  173.1120  141.7820 C   0  0  0  0  0  2  0  0  0  0  0  0
  191.4000  170.9880  141.1120 C   0  0  2  0  0  3  0  0  0  0  0  0
  189.7000  172.7450  137.6080 C   0  0  0  0  0  2  0  0  0  0  0  0
  192.8210  171.1680  140.5590 C   0  0  0  0  0  2  0  0  0  0  0  0
  192.1710  172.3290  137.8520 C   0  0  0  0  0  2  0  0  0  0  0  0
  193.0130  169.0380  139.4540 O   0  0  0  0  0  1  0  0  0  0  0  0
  187.9260  175.0730  139.7260 N   0  0  0  0  0  0  0  0  0  0  0  0
  191.1150  173.4800  141.2970 C   0  0  0  0  0  2  0  0  0  0  0  0
  188.7860  174.4750  142.0090 C   0  0  2  0  0  0  0  0  0  0  0  0
  188.1380  175.6280  142.3820 O   0  0  0  0  0  0  0  0  0  0  0  0
  192.0750  170.8300  138.1390 C   0  0  1  0  0  3  0  0  0  0  0  0
  192.3740  170.0860  136.9250 N   0  0  0  0  0  1  0  0  0  0  0  0
  193.0570  170.4190  139.2430 C   0  0  1  0  0  3  0  0  0  0  0  0
  189.6150  173.7980  138.6100 N   0  0  0  0  0  2  0  0  0  0  0  0
  191.0030  172.1460  142.0240 C   0  0  0  0  0  2  0  0  0  0  0  0
  188.2760  173.7510  139.1870 C   0  0  1  0  0  3  0  0  0  0  0  0
  191.0550  172.7930  136.9210 C   0  0  0  0  0  2  0  0  0  0  0  0
  188.1920  175.1450  140.9770 C   0  0  0  0  0  0  0  0  0  0  0  0
  190.3200  174.6100  141.9620 C   0  0  1  0  0  3  0  0  0  0  0  0
  192.2480  175.1320  146.5130 S   0  0  0  0  0  0  0  0  0  0  0  0
  191.7610  176.5460  143.0720 C   0  0  1  0  0  3  0  0  0  0  0  0
  189.7440  177.9110  142.9850 O   0  0  0  0  0  1  0  0  0  0  0  0
  190.9200  175.2580  143.2190 C   0  0  1  0  0  3  0  0  0  0  0  0
  190.5890  176.8170  144.9630 C   0  0  1  0  0  0  0  0  0  0  0  0
  190.8910  177.6080  143.7220 C   0  0  1  0  0  3  0  0  0  0  0  0
  189.9960  175.5140  144.4050 C   0  0  0  0  0  2  0  0  0  0  0  0
  192.0270  176.6170  145.4780 C   0  0  2  0  0  3  0  0  0  0  0  0
  193.6310  175.1680  144.1980 C   0  0  2  0  0  3  0  0  0  0  0  0
  189.6890  177.5410  145.9520 C   0  0  0  0  0  1  0  0  0  0  0  0
  192.8360  176.4730  144.1770 C   0  0  1  0  0  3  0  0  0  0  0  0
  193.8050  174.7660  145.6510 C   0  0  2  0  0  3  0  0  0  0  0  0
  194.1050  173.3450  145.7470 N   0  0  0  0  0  2  0  0  0  0  0  0
  193.1490  172.6880  145.0530 O   0  0  0  0  0  1  0  0  0  0  0  0
  195.7400  176.2920  144.2490 O   0  0  0  0  0  1  0  0  0  0  0  0
  194.9890  175.3590  143.5380 C   0  0  0  0  0  2  0  0  0  0  0  0
  192.3160  169.4100  142.8820 C   0  0  0  0  0  1  0  0  0  0  0  0
  191.2370  169.6480  141.8370 C   0  0  0  0  0  2  0  0  0  0  0  0
  1  2  1  0  0  0  0
  3 38  1  1  0  0  0
  3 16  1  0  0  0  0
  4 15  1  0  0  0  0
  5  3  1  0  0  0  0
  6 12  1  0  0  0  0
  8 19  2  0  0  0  0
  9 16  1  0  0  0  0
 10  2  1  1  0  0  0
 10 11  1  0  0  0  0
 12 13  1  6  0  0  0
 12 14  1  0  0  0  0
 14  7  1  1  0  0  0
 14  5  1  0  0  0  0
 15 17  1  0  0  0  0
 17  8  1  0  0  0  0
 17  1  1  1  0  0  0
 18  4  1  0  0  0  0
 18  6  1  0  0  0  0
 19 10  1  0  0  0  0
 19 11  1  0  0  0  0
 20  9  1  1  0  0  0
 20 10  1  0  0  0  0
 20 24  1  0  0  0  0
 22 24  1  0  0  0  0
 22 26  1  0  0  0  0
 22 31  1  0  0  0  0
 23 26  1  0  0  0  0
 24 27  1  0  0  0  0
 25 28  1  0  0  0  0
 25 30  1  0  0  0  0
 26 25  1  0  0  0  0
 27 25  1  0  0  0  0
 28 21  1  0  0  0  0
 29 32  1  0  0  0  0
 31 29  1  0  0  0  0
 31 28  1  0  0  0  0
 32 33  1  0  0  0  0
 32 21  1  0  0  0  0
 34 33  1  0  0  0  0
 36 29  1  0  0  0  0
 36 35  1  0  0  0  0
 38 37  1  0  0  0  0
M  END
>  <MODEL>
8

>  <REMARK>
 VINA RESULT:      -6.9      2.811      4.582
  Name = 
  4 active torsions:
  status: ('A' for Active; 'I' for Inactive)
    1  A    between atoms: N_3  and  C_37
    2  A    between atoms: C_7  and  C_28
    3  A    between atoms: C_16  and  C_38
    4  A    between atoms: C_23  and  C_36
                            x       y       z     vdW  Elec       q    Type
                         _______ _______ _______ _____ _____    ______ ____

>  <TORSDO>
F 4

$$$$
=
 OpenBabel11062419263D

 38 43  0  0  1  0  0  0  0  0999 V2000
  189.0020  177.3110  143.2520 C   0  0  0  0  0  2  0  0  0  0  0  0
  189.3240  176.7390  141.8100 C   0  0  0  0  0  2  0  0  0  0  0  0
  192.2810  176.0230  144.3930 C   0  0  2  0  0  3  0  0  0  0  0  0
  188.4700  176.6570  146.2150 C   0  0  0  0  0  2  0  0  0  0  0  0
  192.6740  175.0110  145.4800 C   0  0  0  0  0  2  0  0  0  0  0  0
  190.2290  175.1750  147.2370 C   0  0  0  0  0  2  0  0  0  0  0  0
  193.7130  176.5590  147.0030 O   0  0  0  0  0  1  0  0  0  0  0  0
  186.9090  175.8860  143.0500 N   0  0  0  0  0  0  0  0  0  0  0  0
  190.5040  174.4640  143.5320 C   0  0  0  0  0  2  0  0  0  0  0  0
  188.8820  175.2670  141.6230 C   0  0  2  0  0  0  0  0  0  0  0  0
  187.9140  174.8520  140.7410 O   0  0  0  0  0  0  0  0  0  0  0  0
  191.3410  176.2240  147.2910 C   0  0  1  0  0  3  0  0  0  0  0  0
  191.4360  176.7590  148.6400 N   0  0  0  0  0  1  0  0  0  0  0  0
  192.6890  175.6140  146.8880 C   0  0  1  0  0  3  0  0  0  0  0  0
  188.1790  175.8000  145.0760 N   0  0  0  0  0  2  0  0  0  0  0  0
  191.7050  175.3270  143.1620 C   0  0  0  0  0  2  0  0  0  0  0  0
  187.7510  176.6570  143.9760 C   0  0  1  0  0  3  0  0  0  0  0  0
  188.8530  175.8090  147.4170 C   0  0  0  0  0  2  0  0  0  0  0  0
  187.6040  175.4140  142.0820 C   0  0  0  0  0  0  0  0  0  0  0  0
  189.6100  174.1120  142.3370 C   0  0  1  0  0  3  0  0  0  0  0  0
  189.6910  170.8170  138.6180 S   0  0  0  0  0  0  0  0  0  0  0  0
  191.6080  172.8760  141.0990 C   0  0  1  0  0  3  0  0  0  0  0  0
  191.9420  171.6330  143.1680 O   0  0  0  0  0  1  0  0  0  0  0  0
  190.0960  173.0090  141.3860 C   0  0  1  0  0  3  0  0  0  0  0  0
  190.8390  170.7740  141.2010 C   0  0  1  0  0  0  0  0  0  0  0  0
  191.9790  171.5670  141.7740 C   0  0  1  0  0  3  0  0  0  0  0  0
  189.6070  171.5850  141.6290 C   0  0  0  0  0  2  0  0  0  0  0  0
  191.1500  170.9510  139.7030 C   0  0  2  0  0  3  0  0  0  0  0  0
  190.9280  173.2140  138.6320 C   0  0  2  0  0  3  0  0  0  0  0  0
  190.8160  169.3200  141.6440 C   0  0  0  0  0  1  0  0  0  0  0  0
  191.7170  172.3810  139.6410 C   0  0  1  0  0  3  0  0  0  0  0  0
  190.2730  172.2480  137.6620 C   0  0  2  0  0  3  0  0  0  0  0  0
  189.1500  172.8910  136.9950 N   0  0  0  0  0  2  0  0  0  0  0  0
  188.2700  173.2530  137.9540 O   0  0  0  0  0  1  0  0  0  0  0  0
  192.6840  173.4510  137.0290 O   0  0  0  0  0  1  0  0  0  0  0  0
  191.8510  174.1660  137.8860 C   0  0  0  0  0  2  0  0  0  0  0  0
  194.6960  176.1380  143.6080 C   0  0  0  0  0  1  0  0  0  0  0  0
  193.4560  176.9250  144.0030 C   0  0  0  0  0  2  0  0  0  0  0  0
  2  1  1  0  0  0  0
  3 38  1  6  0  0  0
  3  5  1  0  0  0  0
  4 18  1  0  0  0  0
  5 14  1  0  0  0  0
  6 12  1  0  0  0  0
  6 18  1  0  0  0  0
  8 17  1  0  0  0  0
 10  2  1  6  0  0  0
 10 19  1  0  0  0  0
 10 20  1  0  0  0  0
 11 10  1  0  0  0  0
 11 19  1  0  0  0  0
 12 13  1  1  0  0  0
 14  7  1  6  0  0  0
 14 12  1  0  0  0  0
 15  4  1  0  0  0  0
 16  9  1  0  0  0  0
 16  3  1  0  0  0  0
 17  1  1  6  0  0  0
 17 15  1  0  0  0  0
 19  8  2  0  0  0  0
 20  9  1  6  0  0  0
 21 28  1  0  0  0  0
 22 24  1  0  0  0  0
 22 26  1  0  0  0  0
 24 27  1  0  0  0  0
 24 20  1  0  0  0  0
 25 27  1  0  0  0  0
 25 30  1  0  0  0  0
 25 26  1  0  0  0  0
 26 23  1  0  0  0  0
 28 25  1  0  0  0  0
 29 31  1  0  0  0  0
 31 28  1  0  0  0  0
 31 22  1  0  0  0  0
 32 21  1  0  0  0  0
 32 29  1  0  0  0  0
 33 32  1  0  0  0  0
 33 34  1  0  0  0  0
 35 36  1  0  0  0  0
 36 29  1  0  0  0  0
 37 38  1  0  0  0  0
M  END
>  <MODEL>
9

>  <REMARK>
 VINA RESULT:      -6.8      2.964      6.906
  Name = 
  4 active torsions:
  status: ('A' for Active; 'I' for Inactive)
    1  A    between atoms: N_3  and  C_37
    2  A    between atoms: C_7  and  C_28
    3  A    between atoms: C_16  and  C_38
    4  A    between atoms: C_23  and  C_36
                            x       y       z     vdW  Elec       q    Type
                         _______ _______ _______ _____ _____    ______ ____

>  <TORSDO>
F 4

$$$$
