=
 OpenBabel11062422003D

 35 38  0  0  1  0  0  0  0  0999 V2000
  190.1690  178.1160  144.2600 C   0  0  0  0  0  2  0  0  0  0  0  0
  190.3060  177.1680  145.4350 C   0  0  1  0  0  3  0  0  0  0  0  0
  189.0630  177.1240  144.5620 C   0  0  1  0  0  3  0  0  0  0  0  0
  187.9140  177.8300  145.2670 C   0  0  2  0  0  3  0  0  0  0  0  0
  187.8550  177.3910  146.7210 C   0  0  0  0  0  2  0  0  0  0  0  0
  186.4470  176.9640  147.0840 C   0  0  0  0  0  1  0  0  0  0  0  0
  186.6000  177.4660  144.5800 C   0  0  0  0  0  2  0  0  0  0  0  0
  181.8650  178.4240  141.3740 N   0  0  0  0  0  1  0  0  0  0  0  0
  187.8440  177.9380  141.4160 Cl  0  0  0  0  0  0  0  0  0  0  0  0
  185.8870  178.6690  143.9490 C   0  0  2  0  0  3  0  0  0  0  0  0
  186.0940  178.0670  141.4130 C   0  0  0  0  0  0  0  0  0  0  0  0
  184.0150  178.5090  142.5530 C   0  0  0  0  0  0  0  0  0  0  0  0
  183.4880  178.8780  143.8110 N   0  0  0  0  0  0  0  0  0  0  0  0
  185.3770  177.8450  140.2260 C   0  0  0  0  0  3  0  0  0  0  0  0
  183.2820  178.2940  141.3840 C   0  0  0  0  0  0  0  0  0  0  0  0
  184.6080  179.0320  144.7380 C   0  0  0  0  0  3  0  0  0  0  0  0
  183.9750  177.9570  140.2120 C   0  0  0  0  0  3  0  0  0  0  0  0
  185.3780  178.3880  142.5740 C   0  0  0  0  0  0  0  0  0  0  0  0
  191.2150  175.9940  145.0650 C   0  0  1  0  0  3  0  0  0  0  0  0
  193.4790  175.3170  145.5680 O   0  0  0  0  0  1  0  0  0  0  0  0
  192.6990  176.3700  145.0840 C   0  0  0  0  0  2  0  0  0  0  0  0
  190.9290  174.7070  145.8570 C   0  0  1  0  0  3  0  0  0  0  0  0
  190.4220  174.9470  147.2500 C   0  0  0  0  0  0  0  0  0  0  0  0
  191.1430  175.5180  148.1110 O   0  0  0  0  0  0  0  0  0  0  0  0
  189.1070  174.5280  147.5980 N   0  0  0  0  0  1  0  0  0  0  0  0
  190.0080  173.7760  145.0800 C   0  0  0  0  0  2  0  0  0  0  0  0
  190.7860  172.9190  144.2000 N   0  0  0  0  0  2  0  0  0  0  0  0
  190.0080  172.7330  142.9850 C   0  0  0  0  0  2  0  0  0  0  0  0
  187.7960  174.4010  142.1960 C   0  0  0  0  0  1  0  0  0  0  0  0
  188.8230  173.5000  140.1480 N   0  0  0  0  0  0  0  0  0  0  0  0
  188.3710  174.3450  139.0560 C   0  0  0  0  0  1  0  0  0  0  0  0
  189.0320  174.3590  141.3040 C   0  0  2  0  0  3  0  0  0  0  0  0
  191.0460  173.3060  140.8240 C   0  0  0  0  0  2  0  0  0  0  0  0
  190.0820  172.9880  139.7710 N   0  0  0  0  0  2  0  0  0  0  0  0
  190.2820  173.8650  141.9920 C   0  0  2  0  0  3  0  0  0  0  0  0
  1  3  1  0  0  0  0
  1  2  1  0  0  0  0
  2 19  1  6  0  0  0
  3  4  1  1  0  0  0
  3  2  1  0  0  0  0
  4  7  1  6  0  0  0
  4  5  1  0  0  0  0
  5  6  1  0  0  0  0
  8 15  1  0  0  0  0
 10  7  1  1  0  0  0
 10 16  1  0  0  0  0
 11  9  1  0  0  0  0
 11 18  1  0  0  0  0
 12 18  2  0  0  0  0
 12 13  1  0  0  0  0
 13 16  2  0  0  0  0
 14 11  2  0  0  0  0
 15 12  1  0  0  0  0
 17 14  1  0  0  0  0
 17 15  2  0  0  0  0
 18 10  1  0  0  0  0
 19 21  1  1  0  0  0
 19 22  1  0  0  0  0
 21 20  1  0  0  0  0
 22 26  1  6  0  0  0
 22 23  1  0  0  0  0
 23 25  1  0  0  0  0
 23 24  2  0  0  0  0
 27 26  1  0  0  0  0
 28 27  1  0  0  0  0
 30 32  1  0  0  0  0
 31 30  1  0  0  0  0
 32 35  1  0  0  0  0
 32 29  1  1  0  0  0
 33 35  1  0  0  0  0
 34 30  1  0  0  0  0
 34 33  1  0  0  0  0
 35 28  1  1  0  0  0
M  END
>  <MODEL>
1

>  <REMARK>
 VINA RESULT:      -7.1      0.000      0.000
  Name = 
  12 active torsions:
  status: ('A' for Active; 'I' for Inactive)
    1  A    between atoms: C_2  and  C_6
    2  A    between atoms: C_2  and  C_12
    3  A    between atoms: C_2  and  C_33
    4  A    between atoms: C_3  and  N_8
    5  A    between atoms: C_3  and  C_35
    6  A    between atoms: C_6  and  C_7
    7  A    between atoms: N_8  and  C_30
    8  A    between atoms: C_13  and  C_15
    9  A    between atoms: C_15  and  C_24
   10  A    between atoms: C_15  and  C_30
   11  A    between atoms: C_24  and  C_27
   12  A    between atoms: C_24  and  C_28
                            x       y       z     vdW  Elec       q    Type
                         _______ _______ _______ _____ _____    ______ ____

>  <TORSDO>
F 12

$$$$
=
 OpenBabel11062422003D

 35 38  0  0  1  0  0  0  0  0999 V2000
  191.4480  177.3720  143.1880 C   0  0  0  0  0  2  0  0  0  0  0  0
  192.2990  176.6140  144.1880 C   0  0  1  0  0  3  0  0  0  0  0  0
  190.8260  176.2740  144.0270 C   0  0  1  0  0  3  0  0  0  0  0  0
  190.0290  176.8850  145.1700 C   0  0  2  0  0  3  0  0  0  0  0  0
  189.5140  175.7850  146.0840 C   0  0  0  0  0  2  0  0  0  0  0  0
  189.6710  174.4320  145.4180 C   0  0  0  0  0  1  0  0  0  0  0  0
  188.8430  177.6600  144.6000 C   0  0  0  0  0  2  0  0  0  0  0  0
  183.4830  178.3230  142.4930 N   0  0  0  0  0  1  0  0  0  0  0  0
  186.9250  178.1550  147.4020 Cl  0  0  0  0  0  0  0  0  0  0  0  0
  187.5670  176.8180  144.4730 C   0  0  2  0  0  3  0  0  0  0  0  0
  185.9300  178.2140  145.9590 C   0  0  0  0  0  0  0  0  0  0  0  0
  185.5300  177.6290  143.6540 C   0  0  0  0  0  0  0  0  0  0  0  0
  186.0880  176.9130  142.5700 N   0  0  0  0  0  0  0  0  0  0  0  0
  184.7010  178.8930  145.9820 C   0  0  0  0  0  3  0  0  0  0  0  0
  184.3040  178.2970  143.6540 C   0  0  0  0  0  0  0  0  0  0  0  0
  187.3580  176.3430  143.0170 C   0  0  0  0  0  3  0  0  0  0  0  0
  183.8900  178.9360  144.8330 C   0  0  0  0  0  3  0  0  0  0  0  0
  186.3270  177.5950  144.7650 C   0  0  0  0  0  0  0  0  0  0  0  0
  193.1360  175.5500  143.4730 C   0  0  1  0  0  3  0  0  0  0  0  0
  195.2940  175.2650  142.4260 O   0  0  0  0  0  1  0  0  0  0  0  0
  194.2340  176.1580  142.5980 C   0  0  0  0  0  2  0  0  0  0  0  0
  193.6720  174.4480  144.4010 C   0  0  1  0  0  3  0  0  0  0  0  0
  193.7840  174.8610  145.8400 C   0  0  0  0  0  0  0  0  0  0  0  0
  192.8660  174.5960  146.6620 O   0  0  0  0  0  0  0  0  0  0  0  0
  194.9440  175.5560  146.2820 N   0  0  0  0  0  1  0  0  0  0  0  0
  192.8690  173.1620  144.2500 C   0  0  0  0  0  2  0  0  0  0  0  0
  192.6680  172.8590  142.8420 N   0  0  0  0  0  2  0  0  0  0  0  0
  191.2470  172.6080  142.6570 C   0  0  0  0  0  2  0  0  0  0  0  0
  188.3880  172.6220  142.3030 C   0  0  0  0  0  1  0  0  0  0  0  0
  189.4150  172.2850  140.0910 N   0  0  0  0  0  0  0  0  0  0  0  0
  188.3940  172.6110  139.1100 C   0  0  0  0  0  1  0  0  0  0  0  0
  189.2620  173.2130  141.2020 C   0  0  2  0  0  3  0  0  0  0  0  0
  191.4090  173.4680  140.3520 C   0  0  0  0  0  2  0  0  0  0  0  0
  190.6610  172.5570  139.4860 N   0  0  0  0  0  2  0  0  0  0  0  0
  190.6540  173.5930  141.6460 C   0  0  2  0  0  3  0  0  0  0  0  0
  1  3  1  0  0  0  0
  1  2  1  0  0  0  0
  2 19  1  6  0  0  0
  3  2  1  0  0  0  0
  3  4  1  1  0  0  0
  4  7  1  6  0  0  0
  4  5  1  0  0  0  0
  6  5  1  0  0  0  0
  8 15  1  0  0  0  0
 10  7  1  6  0  0  0
 10 18  1  0  0  0  0
 11 14  1  0  0  0  0
 11  9  1  0  0  0  0
 12 15  2  0  0  0  0
 12 18  1  0  0  0  0
 13 16  2  0  0  0  0
 13 12  1  0  0  0  0
 15 17  1  0  0  0  0
 16 10  1  0  0  0  0
 17 14  2  0  0  0  0
 18 11  2  0  0  0  0
 19 21  1  1  0  0  0
 19 22  1  0  0  0  0
 20 21  1  0  0  0  0
 22 26  1  1  0  0  0
 22 23  1  0  0  0  0
 23 25  1  0  0  0  0
 23 24  2  0  0  0  0
 27 26  1  0  0  0  0
 28 27  1  0  0  0  0
 30 32  1  0  0  0  0
 31 30  1  0  0  0  0
 32 35  1  0  0  0  0
 32 29  1  1  0  0  0
 33 35  1  0  0  0  0
 34 30  1  0  0  0  0
 34 33  1  0  0  0  0
 35 28  1  1  0  0  0
M  END
>  <MODEL>
2

>  <REMARK>
 VINA RESULT:      -7.0      2.178      3.126
  Name = 
  12 active torsions:
  status: ('A' for Active; 'I' for Inactive)
    1  A    between atoms: C_2  and  C_6
    2  A    between atoms: C_2  and  C_12
    3  A    between atoms: C_2  and  C_33
    4  A    between atoms: C_3  and  N_8
    5  A    between atoms: C_3  and  C_35
    6  A    between atoms: C_6  and  C_7
    7  A    between atoms: N_8  and  C_30
    8  A    between atoms: C_13  and  C_15
    9  A    between atoms: C_15  and  C_24
   10  A    between atoms: C_15  and  C_30
   11  A    between atoms: C_24  and  C_27
   12  A    between atoms: C_24  and  C_28
                            x       y       z     vdW  Elec       q    Type
                         _______ _______ _______ _____ _____    ______ ____

>  <TORSDO>
F 12

$$$$
=
 OpenBabel11062422003D

 35 38  0  0  1  0  0  0  0  0999 V2000
  190.9290  177.0500  143.2190 C   0  0  0  0  0  2  0  0  0  0  0  0
  191.9380  176.7440  144.3090 C   0  0  1  0  0  3  0  0  0  0  0  0
  190.5420  176.1470  144.3730 C   0  0  1  0  0  3  0  0  0  0  0  0
  189.6970  176.9200  145.3740 C   0  0  2  0  0  3  0  0  0  0  0  0
  189.0720  175.9580  146.3720 C   0  0  0  0  0  2  0  0  0  0  0  0
  189.6160  174.5590  146.1650 C   0  0  0  0  0  1  0  0  0  0  0  0
  188.5890  177.6640  144.6320 C   0  0  0  0  0  2  0  0  0  0  0  0
  183.4560  178.2540  142.0020 N   0  0  0  0  0  1  0  0  0  0  0  0
  186.4260  178.3240  147.2130 Cl  0  0  0  0  0  0  0  0  0  0  0  0
  187.3200  176.8260  144.4320 C   0  0  2  0  0  3  0  0  0  0  0  0
  185.5700  178.3130  145.6820 C   0  0  0  0  0  0  0  0  0  0  0  0
  185.3770  177.6070  143.3840 C   0  0  0  0  0  0  0  0  0  0  0  0
  186.0240  176.8300  142.3970 N   0  0  0  0  0  0  0  0  0  0  0  0
  184.3520  179.0020  145.5550 C   0  0  0  0  0  3  0  0  0  0  0  0
  184.1650  178.2840  143.2350 C   0  0  0  0  0  0  0  0  0  0  0  0
  187.2400  176.2750  142.9900 C   0  0  0  0  0  3  0  0  0  0  0  0
  183.6530  178.9890  144.3350 C   0  0  0  0  0  3  0  0  0  0  0  0
  186.0670  177.6280  144.5660 C   0  0  0  0  0  0  0  0  0  0  0  0
  192.9180  175.6670  143.8350 C   0  0  1  0  0  3  0  0  0  0  0  0
  194.7600  175.3100  142.3140 O   0  0  0  0  0  1  0  0  0  0  0  0
  193.5650  176.0120  142.4920 C   0  0  0  0  0  2  0  0  0  0  0  0
  193.9540  175.2550  144.8940 C   0  0  1  0  0  3  0  0  0  0  0  0
  194.4450  176.3920  145.7440 C   0  0  0  0  0  0  0  0  0  0  0  0
  194.0990  176.4920  146.9510 O   0  0  0  0  0  0  0  0  0  0  0  0
  195.3160  177.3630  145.1780 N   0  0  0  0  0  1  0  0  0  0  0  0
  193.4410  174.1020  145.7470 C   0  0  0  0  0  2  0  0  0  0  0  0
  193.0080  173.0040  144.8980 N   0  0  0  0  0  2  0  0  0  0  0  0
  194.1970  172.2480  144.5350 C   0  0  0  0  0  2  0  0  0  0  0  0
  196.7370  172.6120  145.8440 C   0  0  0  0  0  1  0  0  0  0  0  0
  196.6480  170.2970  145.0120 N   0  0  0  0  0  0  0  0  0  0  0  0
  197.6670  169.5600  145.7410 C   0  0  0  0  0  1  0  0  0  0  0  0
  196.0570  171.2510  145.9390 C   0  0  2  0  0  3  0  0  0  0  0  0
  194.3610  169.8680  145.1600 C   0  0  0  0  0  2  0  0  0  0  0  0
  195.6430  169.3680  144.6670 N   0  0  0  0  0  2  0  0  0  0  0  0
  194.5740  171.2720  145.6530 C   0  0  2  0  0  3  0  0  0  0  0  0
  1  2  1  0  0  0  0
  1  3  1  0  0  0  0
  2 19  1  6  0  0  0
  2  3  1  0  0  0  0
  3  4  1  1  0  0  0
  4  7  1  6  0  0  0
  4  5  1  0  0  0  0
  6  5  1  0  0  0  0
  8 15  1  0  0  0  0
 10 18  1  0  0  0  0
 10  7  1  6  0  0  0
 11  9  1  0  0  0  0
 12 18  1  0  0  0  0
 13 16  2  0  0  0  0
 13 12  1  0  0  0  0
 14 11  1  0  0  0  0
 15 12  2  0  0  0  0
 15 17  1  0  0  0  0
 16 10  1  0  0  0  0
 17 14  2  0  0  0  0
 18 11  2  0  0  0  0
 19 21  1  6  0  0  0
 19 22  1  0  0  0  0
 20 21  1  0  0  0  0
 22 23  1  0  0  0  0
 22 26  1  1  0  0  0
 23 24  2  0  0  0  0
 25 23  1  0  0  0  0
 27 26  1  0  0  0  0
 28 27  1  0  0  0  0
 30 31  1  0  0  0  0
 30 32  1  0  0  0  0
 32 29  1  6  0  0  0
 33 35  1  0  0  0  0
 34 30  1  0  0  0  0
 34 33  1  0  0  0  0
 35 28  1  6  0  0  0
 35 32  1  0  0  0  0
M  END
>  <MODEL>
3

>  <REMARK>
 VINA RESULT:      -6.9      3.600      5.138
  Name = 
  12 active torsions:
  status: ('A' for Active; 'I' for Inactive)
    1  A    between atoms: C_2  and  C_6
    2  A    between atoms: C_2  and  C_12
    3  A    between atoms: C_2  and  C_33
    4  A    between atoms: C_3  and  N_8
    5  A    between atoms: C_3  and  C_35
    6  A    between atoms: C_6  and  C_7
    7  A    between atoms: N_8  and  C_30
    8  A    between atoms: C_13  and  C_15
    9  A    between atoms: C_15  and  C_24
   10  A    between atoms: C_15  and  C_30
   11  A    between atoms: C_24  and  C_27
   12  A    between atoms: C_24  and  C_28
                            x       y       z     vdW  Elec       q    Type
                         _______ _______ _______ _____ _____    ______ ____

>  <TORSDO>
F 12

$$$$
=
 OpenBabel11062422003D

 35 38  0  0  1  0  0  0  0  0999 V2000
  190.8180  176.8590  143.2020 C   0  0  0  0  0  2  0  0  0  0  0  0
  191.8760  176.8230  144.2870 C   0  0  1  0  0  3  0  0  0  0  0  0
  190.5630  176.0810  144.4770 C   0  0  1  0  0  3  0  0  0  0  0  0
  189.6490  176.8780  145.3960 C   0  0  2  0  0  3  0  0  0  0  0  0
  188.9680  175.9430  146.3820 C   0  0  0  0  0  2  0  0  0  0  0  0
  189.7520  174.6530  146.5100 C   0  0  0  0  0  1  0  0  0  0  0  0
  188.5860  177.5860  144.5590 C   0  0  0  0  0  2  0  0  0  0  0  0
  183.4660  178.1860  141.9060 N   0  0  0  0  0  1  0  0  0  0  0  0
  186.4450  178.4290  147.1060 Cl  0  0  0  0  0  0  0  0  0  0  0  0
  187.2940  176.7740  144.4000 C   0  0  2  0  0  3  0  0  0  0  0  0
  185.5870  178.3660  145.5780 C   0  0  0  0  0  0  0  0  0  0  0  0
  185.3710  177.5550  143.3170 C   0  0  0  0  0  0  0  0  0  0  0  0
  185.9960  176.7130  142.3680 N   0  0  0  0  0  0  0  0  0  0  0  0
  184.3880  179.0810  145.4170 C   0  0  0  0  0  3  0  0  0  0  0  0
  184.1780  178.2560  143.1350 C   0  0  0  0  0  0  0  0  0  0  0  0
  187.1970  176.1560  142.9870 C   0  0  0  0  0  3  0  0  0  0  0  0
  183.6860  179.0280  144.1990 C   0  0  0  0  0  3  0  0  0  0  0  0
  186.0640  177.6150  144.4950 C   0  0  0  0  0  0  0  0  0  0  0  0
  192.9700  175.8150  143.9280 C   0  0  1  0  0  3  0  0  0  0  0  0
  193.6060  175.0110  141.7400 O   0  0  0  0  0  1  0  0  0  0  0  0
  193.6340  176.1240  142.5840 C   0  0  0  0  0  2  0  0  0  0  0  0
  193.9980  175.5810  145.0470 C   0  0  1  0  0  3  0  0  0  0  0  0
  194.2200  176.7740  145.9320 C   0  0  0  0  0  0  0  0  0  0  0  0
  194.9580  177.7250  145.5610 O   0  0  0  0  0  0  0  0  0  0  0  0
  193.5830  176.8310  147.2030 N   0  0  0  0  0  1  0  0  0  0  0  0
  193.6540  174.3400  145.8600 C   0  0  0  0  0  2  0  0  0  0  0  0
  194.5270  173.2380  145.4870 N   0  0  0  0  0  2  0  0  0  0  0  0
  193.6720  172.1290  145.0940 C   0  0  0  0  0  2  0  0  0  0  0  0
  191.0370  172.3680  143.9540 C   0  0  0  0  0  1  0  0  0  0  0  0
  192.0340  170.2820  143.1070 N   0  0  0  0  0  0  0  0  0  0  0  0
  191.2670  169.9090  141.9300 C   0  0  0  0  0  1  0  0  0  0  0  0
  192.1410  171.7340  143.1140 C   0  0  2  0  0  3  0  0  0  0  0  0
  194.2930  170.8600  143.0730 C   0  0  0  0  0  2  0  0  0  0  0  0
  193.3340  169.7660  142.9250 N   0  0  0  0  0  2  0  0  0  0  0  0
  193.5420  172.0640  143.5700 C   0  0  2  0  0  3  0  0  0  0  0  0
  1  2  1  0  0  0  0
  1  3  1  0  0  0  0
  2 19  1  6  0  0  0
  2  3  1  0  0  0  0
  3  4  1  1  0  0  0
  4  7  1  6  0  0  0
  4  5  1  0  0  0  0
  5  6  1  0  0  0  0
  8 15  1  0  0  0  0
 10 18  1  0  0  0  0
 10  7  1  6  0  0  0
 11  9  1  0  0  0  0
 12 18  1  0  0  0  0
 13 16  2  0  0  0  0
 13 12  1  0  0  0  0
 14 11  1  0  0  0  0
 15 12  2  0  0  0  0
 15 17  1  0  0  0  0
 16 10  1  0  0  0  0
 17 14  2  0  0  0  0
 18 11  2  0  0  0  0
 19 21  1  6  0  0  0
 19 22  1  0  0  0  0
 20 21  1  0  0  0  0
 22 26  1  1  0  0  0
 22 23  1  0  0  0  0
 23 25  1  0  0  0  0
 24 23  2  0  0  0  0
 27 26  1  0  0  0  0
 28 27  1  0  0  0  0
 30 32  1  0  0  0  0
 31 30  1  0  0  0  0
 32 35  1  0  0  0  0
 32 29  1  1  0  0  0
 33 35  1  0  0  0  0
 34 33  1  0  0  0  0
 34 30  1  0  0  0  0
 35 28  1  1  0  0  0
M  END
>  <MODEL>
4

>  <REMARK>
 VINA RESULT:      -6.8      2.722      3.845
  Name = 
  12 active torsions:
  status: ('A' for Active; 'I' for Inactive)
    1  A    between atoms: C_2  and  C_6
    2  A    between atoms: C_2  and  C_12
    3  A    between atoms: C_2  and  C_33
    4  A    between atoms: C_3  and  N_8
    5  A    between atoms: C_3  and  C_35
    6  A    between atoms: C_6  and  C_7
    7  A    between atoms: N_8  and  C_30
    8  A    between atoms: C_13  and  C_15
    9  A    between atoms: C_15  and  C_24
   10  A    between atoms: C_15  and  C_30
   11  A    between atoms: C_24  and  C_27
   12  A    between atoms: C_24  and  C_28
                            x       y       z     vdW  Elec       q    Type
                         _______ _______ _______ _____ _____    ______ ____

>  <TORSDO>
F 12

$$$$
=
 OpenBabel11062422003D

 35 38  0  0  1  0  0  0  0  0999 V2000
  190.5090  174.9240  146.1240 C   0  0  0  0  0  2  0  0  0  0  0  0
  191.5970  175.1240  145.0860 C   0  0  1  0  0  3  0  0  0  0  0  0
  190.9470  176.3260  145.7520 C   0  0  1  0  0  3  0  0  0  0  0  0
  189.9330  176.9520  144.8070 C   0  0  2  0  0  3  0  0  0  0  0  0
  190.5140  178.2130  144.1890 C   0  0  0  0  0  2  0  0  0  0  0  0
  191.4420  177.8570  143.0450 C   0  0  0  0  0  1  0  0  0  0  0  0
  188.6710  177.3120  145.5880 C   0  0  0  0  0  2  0  0  0  0  0  0
  184.1070  178.3000  142.1520 N   0  0  0  0  0  1  0  0  0  0  0  0
  186.1170  177.9400  147.7920 Cl  0  0  0  0  0  0  0  0  0  0  0  0
  187.4240  176.5520  145.1200 C   0  0  2  0  0  3  0  0  0  0  0  0
  185.5430  178.0550  146.1380 C   0  0  0  0  0  0  0  0  0  0  0  0
  185.7290  177.4840  143.8020 C   0  0  0  0  0  0  0  0  0  0  0  0
  186.5070  176.7300  142.8960 N   0  0  0  0  0  0  0  0  0  0  0  0
  184.3950  178.8100  145.8450 C   0  0  0  0  0  3  0  0  0  0  0  0
  184.5900  178.2280  143.4880 C   0  0  0  0  0  0  0  0  0  0  0  0
  187.5770  176.0840  143.6540 C   0  0  0  0  0  3  0  0  0  0  0  0
  183.9210  178.8980  144.5240 C   0  0  0  0  0  3  0  0  0  0  0  0
  186.2010  177.4070  145.0840 C   0  0  0  0  0  0  0  0  0  0  0  0
  192.9740  174.8930  145.7120 C   0  0  1  0  0  3  0  0  0  0  0  0
  192.7260  172.7280  144.6690 O   0  0  0  0  0  1  0  0  0  0  0  0
  193.3950  173.4220  145.6800 C   0  0  0  0  0  2  0  0  0  0  0  0
  194.0720  175.8250  145.1720 C   0  0  1  0  0  3  0  0  0  0  0  0
  194.3360  177.0240  146.0360 C   0  0  0  0  0  0  0  0  0  0  0  0
  193.9410  177.0580  147.2320 O   0  0  0  0  0  0  0  0  0  0  0  0
  195.0460  178.1330  145.4980 N   0  0  0  0  0  1  0  0  0  0  0  0
  195.3530  175.0560  144.8790 C   0  0  0  0  0  2  0  0  0  0  0  0
  195.8600  175.4090  143.5620 N   0  0  0  0  0  2  0  0  0  0  0  0
  194.7830  175.1800  142.6120 C   0  0  0  0  0  2  0  0  0  0  0  0
  193.5350  174.4240  140.1280 C   0  0  0  0  0  1  0  0  0  0  0  0
  195.9000  174.9190  139.6580 N   0  0  0  0  0  0  0  0  0  0  0  0
  195.9970  175.1400  138.2250 C   0  0  0  0  0  1  0  0  0  0  0  0
  194.6340  175.4820  140.1000 C   0  0  2  0  0  3  0  0  0  0  0  0
  196.3340  176.5480  141.2700 C   0  0  0  0  0  2  0  0  0  0  0  0
  196.9290  175.6770  140.2560 N   0  0  0  0  0  2  0  0  0  0  0  0
  194.8940  176.1470  141.4300 C   0  0  2  0  0  3  0  0  0  0  0  0
  2 19  1  1  0  0  0
  2  3  1  0  0  0  0
  2  1  1  0  0  0  0
  3  4  1  6  0  0  0
  3  1  1  0  0  0  0
  4  5  1  1  0  0  0
  4  7  1  0  0  0  0
  6  5  1  0  0  0  0
  8 15  1  0  0  0  0
 10  7  1  6  0  0  0
 11  9  1  0  0  0  0
 12 18  1  0  0  0  0
 13 16  2  0  0  0  0
 13 12  1  0  0  0  0
 14 11  1  0  0  0  0
 15 12  2  0  0  0  0
 15 17  1  0  0  0  0
 16 10  1  0  0  0  0
 17 14  2  0  0  0  0
 18 10  1  0  0  0  0
 18 11  2  0  0  0  0
 19 21  1  6  0  0  0
 20 21  1  0  0  0  0
 22 26  1  1  0  0  0
 22 19  1  0  0  0  0
 22 23  1  0  0  0  0
 23 24  2  0  0  0  0
 25 23  1  0  0  0  0
 27 26  1  0  0  0  0
 28 27  1  0  0  0  0
 30 32  1  0  0  0  0
 30 34  1  0  0  0  0
 31 30  1  0  0  0  0
 32 29  1  1  0  0  0
 32 35  1  0  0  0  0
 33 35  1  0  0  0  0
 34 33  1  0  0  0  0
 35 28  1  1  0  0  0
M  END
>  <MODEL>
5

>  <REMARK>
 VINA RESULT:      -6.7      3.427      4.754
  Name = 
  12 active torsions:
  status: ('A' for Active; 'I' for Inactive)
    1  A    between atoms: C_2  and  C_6
    2  A    between atoms: C_2  and  C_12
    3  A    between atoms: C_2  and  C_33
    4  A    between atoms: C_3  and  N_8
    5  A    between atoms: C_3  and  C_35
    6  A    between atoms: C_6  and  C_7
    7  A    between atoms: N_8  and  C_30
    8  A    between atoms: C_13  and  C_15
    9  A    between atoms: C_15  and  C_24
   10  A    between atoms: C_15  and  C_30
   11  A    between atoms: C_24  and  C_27
   12  A    between atoms: C_24  and  C_28
                            x       y       z     vdW  Elec       q    Type
                         _______ _______ _______ _____ _____    ______ ____

>  <TORSDO>
F 12

$$$$
=
 OpenBabel11062422003D

 35 38  0  0  1  0  0  0  0  0999 V2000
  190.7280  176.5110  143.2020 C   0  0  0  0  0  2  0  0  0  0  0  0
  191.8150  176.4330  144.2560 C   0  0  1  0  0  3  0  0  0  0  0  0
  190.4500  175.8200  144.5220 C   0  0  1  0  0  3  0  0  0  0  0  0
  189.6410  176.7380  145.4250 C   0  0  2  0  0  3  0  0  0  0  0  0
  188.9390  175.9190  146.4960 C   0  0  0  0  0  2  0  0  0  0  0  0
  189.4920  174.5080  146.5250 C   0  0  0  0  0  1  0  0  0  0  0  0
  188.5940  177.4740  144.5910 C   0  0  0  0  0  2  0  0  0  0  0  0
  183.5030  178.1900  141.9120 N   0  0  0  0  0  1  0  0  0  0  0  0
  186.4650  178.3780  147.1250 Cl  0  0  0  0  0  0  0  0  0  0  0  0
  187.2840  176.6940  144.4290 C   0  0  2  0  0  3  0  0  0  0  0  0
  185.6110  178.3320  145.5930 C   0  0  0  0  0  0  0  0  0  0  0  0
  185.3860  177.5180  143.3340 C   0  0  0  0  0  0  0  0  0  0  0  0
  185.9930  176.6580  142.3910 N   0  0  0  0  0  0  0  0  0  0  0  0
  184.4310  179.0750  145.4250 C   0  0  0  0  0  3  0  0  0  0  0  0
  184.2110  178.2480  143.1450 C   0  0  0  0  0  0  0  0  0  0  0  0
  187.1780  176.0730  143.0170 C   0  0  0  0  0  3  0  0  0  0  0  0
  183.7340  179.0350  144.2040 C   0  0  0  0  0  3  0  0  0  0  0  0
  186.0750  177.5640  144.5160 C   0  0  0  0  0  0  0  0  0  0  0  0
  192.8040  175.3150  143.9150 C   0  0  1  0  0  3  0  0  0  0  0  0
  193.9490  176.5170  142.1600 O   0  0  0  0  0  1  0  0  0  0  0  0
  193.2440  175.3460  142.4500 C   0  0  0  0  0  2  0  0  0  0  0  0
  193.9970  175.2190  144.8810 C   0  0  1  0  0  3  0  0  0  0  0  0
  193.8340  176.0270  146.1360 C   0  0  0  0  0  0  0  0  0  0  0  0
  193.0750  175.6360  147.0620 O   0  0  0  0  0  0  0  0  0  0  0  0
  194.5520  177.2470  146.2820 N   0  0  0  0  0  1  0  0  0  0  0  0
  194.3380  173.7680  145.1920 C   0  0  0  0  0  2  0  0  0  0  0  0
  195.6110  173.4110  144.5860 N   0  0  0  0  0  2  0  0  0  0  0  0
  196.4720  174.5790  144.6780 C   0  0  0  0  0  2  0  0  0  0  0  0
  197.2280  176.9070  143.1570 C   0  0  0  0  0  1  0  0  0  0  0  0
  196.8310  175.0700  141.5670 N   0  0  0  0  0  0  0  0  0  0  0  0
  197.4810  175.4530  140.3250 C   0  0  0  0  0  1  0  0  0  0  0  0
  197.6720  175.5350  142.6600 C   0  0  2  0  0  3  0  0  0  0  0  0
  197.4520  173.2310  142.8610 C   0  0  0  0  0  2  0  0  0  0  0  0
  196.8320  173.6590  141.6080 N   0  0  0  0  0  2  0  0  0  0  0  0
  197.6550  174.4530  143.7130 C   0  0  2  0  0  3  0  0  0  0  0  0
  1  2  1  0  0  0  0
  1  3  1  0  0  0  0
  2 19  1  6  0  0  0
  2  3  1  0  0  0  0
  3  4  1  1  0  0  0
  4  7  1  6  0  0  0
  4  5  1  0  0  0  0
  5  6  1  0  0  0  0
  8 15  1  0  0  0  0
 10 18  1  0  0  0  0
 10  7  1  6  0  0  0
 11  9  1  0  0  0  0
 12 18  1  0  0  0  0
 13 16  2  0  0  0  0
 13 12  1  0  0  0  0
 14 11  1  0  0  0  0
 15 12  2  0  0  0  0
 15 17  1  0  0  0  0
 16 10  1  0  0  0  0
 17 14  2  0  0  0  0
 18 11  2  0  0  0  0
 19 21  1  6  0  0  0
 19 22  1  0  0  0  0
 20 21  1  0  0  0  0
 22 26  1  1  0  0  0
 22 23  1  0  0  0  0
 23 25  1  0  0  0  0
 23 24  2  0  0  0  0
 27 28  1  0  0  0  0
 27 26  1  0  0  0  0
 30 34  1  0  0  0  0
 30 32  1  0  0  0  0
 31 30  1  0  0  0  0
 32 29  1  1  0  0  0
 32 35  1  0  0  0  0
 33 35  1  0  0  0  0
 34 33  1  0  0  0  0
 35 28  1  1  0  0  0
M  END
>  <MODEL>
6

>  <REMARK>
 VINA RESULT:      -6.7      3.607      4.947
  Name = 
  12 active torsions:
  status: ('A' for Active; 'I' for Inactive)
    1  A    between atoms: C_2  and  C_6
    2  A    between atoms: C_2  and  C_12
    3  A    between atoms: C_2  and  C_33
    4  A    between atoms: C_3  and  N_8
    5  A    between atoms: C_3  and  C_35
    6  A    between atoms: C_6  and  C_7
    7  A    between atoms: N_8  and  C_30
    8  A    between atoms: C_13  and  C_15
    9  A    between atoms: C_15  and  C_24
   10  A    between atoms: C_15  and  C_30
   11  A    between atoms: C_24  and  C_27
   12  A    between atoms: C_24  and  C_28
                            x       y       z     vdW  Elec       q    Type
                         _______ _______ _______ _____ _____    ______ ____

>  <TORSDO>
F 12

$$$$
=
 OpenBabel11062422003D

 35 38  0  0  1  0  0  0  0  0999 V2000
  187.4260  176.1520  141.3560 C   0  0  0  0  0  2  0  0  0  0  0  0
  187.1980  176.3450  142.8420 C   0  0  1  0  0  3  0  0  0  0  0  0
  188.5520  176.6640  142.2300 C   0  0  1  0  0  3  0  0  0  0  0  0
  189.5300  175.5370  142.5270 C   0  0  2  0  0  3  0  0  0  0  0  0
  190.8970  176.1150  142.8550 C   0  0  0  0  0  2  0  0  0  0  0  0
  190.7870  177.6000  143.1350 C   0  0  0  0  0  1  0  0  0  0  0  0
  189.6480  174.6350  141.3010 C   0  0  0  0  0  2  0  0  0  0  0  0
  191.6170  169.2060  140.7880 N   0  0  0  0  0  1  0  0  0  0  0  0
  188.2010  173.5180  138.3970 Cl  0  0  0  0  0  0  0  0  0  0  0  0
  189.1190  173.2150  141.5340 C   0  0  2  0  0  3  0  0  0  0  0  0
  189.2130  172.2680  139.0990 C   0  0  0  0  0  0  0  0  0  0  0  0
  190.2990  171.2640  141.0030 C   0  0  0  0  0  0  0  0  0  0  0  0
  190.4670  171.4110  142.3990 N   0  0  0  0  0  0  0  0  0  0  0  0
  189.7260  171.2440  138.2870 C   0  0  0  0  0  3  0  0  0  0  0  0
  190.8190  170.2350  140.2160 C   0  0  0  0  0  0  0  0  0  0  0  0
  189.7250  172.5990  142.8160 C   0  0  0  0  0  3  0  0  0  0  0  0
  190.5280  170.2310  138.8430 C   0  0  0  0  0  3  0  0  0  0  0  0
  189.5290  172.2580  140.4640 C   0  0  0  0  0  0  0  0  0  0  0  0
  186.4470  177.6530  143.0980 C   0  0  1  0  0  3  0  0  0  0  0  0
  185.0090  178.6440  141.4280 O   0  0  0  0  0  1  0  0  0  0  0  0
  185.0680  177.6780  142.4350 C   0  0  0  0  0  2  0  0  0  0  0  0
  186.3900  178.0640  144.5790 C   0  0  1  0  0  3  0  0  0  0  0  0
  185.3970  179.1510  144.8740 C   0  0  0  0  0  0  0  0  0  0  0  0
  185.5610  180.3160  144.4240 O   0  0  0  0  0  0  0  0  0  0  0  0
  184.2540  178.8570  145.6690 N   0  0  0  0  0  1  0  0  0  0  0  0
  186.1750  176.8530  145.4770 C   0  0  0  0  0  2  0  0  0  0  0  0
  186.8020  177.0710  146.7720 N   0  0  0  0  0  2  0  0  0  0  0  0
  187.8220  176.0460  146.9320 C   0  0  0  0  0  2  0  0  0  0  0  0
  189.6100  173.9330  146.1350 C   0  0  0  0  0  1  0  0  0  0  0  0
  190.9130  175.5640  147.4400 N   0  0  0  0  0  0  0  0  0  0  0  0
  192.3100  175.3150  147.1310 C   0  0  0  0  0  1  0  0  0  0  0  0
  190.1530  175.3560  146.2160 C   0  0  2  0  0  3  0  0  0  0  0  0
  189.7850  177.5380  146.9210 C   0  0  0  0  0  2  0  0  0  0  0  0
  190.8070  176.9310  147.7720 N   0  0  0  0  0  2  0  0  0  0  0  0
  189.0950  176.4320  146.1730 C   0  0  2  0  0  3  0  0  0  0  0  0
  1  3  1  0  0  0  0
  1  2  1  0  0  0  0
  2 19  1  6  0  0  0
  3  4  1  1  0  0  0
  3  2  1  0  0  0  0
  4  7  1  6  0  0  0
  4  5  1  0  0  0  0
  5  6  1  0  0  0  0
  9 11  1  0  0  0  0
 10  7  1  6  0  0  0
 10 16  1  0  0  0  0
 11 18  1  0  0  0  0
 12 13  1  0  0  0  0
 13 16  2  0  0  0  0
 14 17  1  0  0  0  0
 14 11  2  0  0  0  0
 15  8  1  0  0  0  0
 15 12  1  0  0  0  0
 17 15  2  0  0  0  0
 18 12  2  0  0  0  0
 18 10  1  0  0  0  0
 19 21  1  1  0  0  0
 19 22  1  0  0  0  0
 20 21  1  0  0  0  0
 22 23  1  0  0  0  0
 22 26  1  1  0  0  0
 23 25  1  0  0  0  0
 24 23  2  0  0  0  0
 26 27  1  0  0  0  0
 27 28  1  0  0  0  0
 30 34  1  0  0  0  0
 31 30  1  0  0  0  0
 32 29  1  1  0  0  0
 32 30  1  0  0  0  0
 33 34  1  0  0  0  0
 35 32  1  0  0  0  0
 35 33  1  0  0  0  0
 35 28  1  1  0  0  0
M  END
>  <MODEL>
7

>  <REMARK>
 VINA RESULT:      -6.7      3.092      7.396
  Name = 
  12 active torsions:
  status: ('A' for Active; 'I' for Inactive)
    1  A    between atoms: C_2  and  C_6
    2  A    between atoms: C_2  and  C_12
    3  A    between atoms: C_2  and  C_33
    4  A    between atoms: C_3  and  N_8
    5  A    between atoms: C_3  and  C_35
    6  A    between atoms: C_6  and  C_7
    7  A    between atoms: N_8  and  C_30
    8  A    between atoms: C_13  and  C_15
    9  A    between atoms: C_15  and  C_24
   10  A    between atoms: C_15  and  C_30
   11  A    between atoms: C_24  and  C_27
   12  A    between atoms: C_24  and  C_28
                            x       y       z     vdW  Elec       q    Type
                         _______ _______ _______ _____ _____    ______ ____

>  <TORSDO>
F 12

$$$$
=
 OpenBabel11062422003D

 35 38  0  0  1  0  0  0  0  0999 V2000
  191.1400  175.8850  143.1040 C   0  0  0  0  0  2  0  0  0  0  0  0
  192.3760  176.2410  143.9050 C   0  0  1  0  0  3  0  0  0  0  0  0
  191.3830  175.2270  144.4470 C   0  0  1  0  0  3  0  0  0  0  0  0
  190.5090  175.8780  145.5080 C   0  0  2  0  0  3  0  0  0  0  0  0
  190.3480  174.9370  146.6910 C   0  0  0  0  0  2  0  0  0  0  0  0
  191.1790  175.4210  147.8630 C   0  0  0  0  0  1  0  0  0  0  0  0
  189.1330  176.1770  144.9150 C   0  0  0  0  0  2  0  0  0  0  0  0
  183.9320  178.6000  145.7440 N   0  0  0  0  0  1  0  0  0  0  0  0
  188.6460  178.0440  142.0780 Cl  0  0  0  0  0  0  0  0  0  0  0  0
  188.5780  177.5470  145.3220 C   0  0  2  0  0  3  0  0  0  0  0  0
  187.2680  178.1900  143.1530 C   0  0  0  0  0  0  0  0  0  0  0  0
  186.3000  178.0880  145.3590 C   0  0  0  0  0  0  0  0  0  0  0  0
  186.6280  177.8400  146.7110 N   0  0  0  0  0  0  0  0  0  0  0  0
  186.0140  178.5590  142.6380 C   0  0  0  0  0  3  0  0  0  0  0  0
  185.0450  178.4550  144.8700 C   0  0  0  0  0  0  0  0  0  0  0  0
  188.0540  177.5250  146.7770 C   0  0  0  0  0  3  0  0  0  0  0  0
  184.9050  178.6900  143.4940 C   0  0  0  0  0  3  0  0  0  0  0  0
  187.3780  177.9470  144.5280 C   0  0  0  0  0  0  0  0  0  0  0  0
  193.5960  175.4980  143.3550 C   0  0  1  0  0  3  0  0  0  0  0  0
  194.6350  176.5740  141.4580 O   0  0  0  0  0  1  0  0  0  0  0  0
  193.7070  175.5990  141.8320 C   0  0  0  0  0  2  0  0  0  0  0  0
  194.9150  175.8520  144.0620 C   0  0  1  0  0  3  0  0  0  0  0  0
  194.7400  176.3740  145.4590 C   0  0  0  0  0  0  0  0  0  0  0  0
  194.5130  175.5890  146.4180 O   0  0  0  0  0  0  0  0  0  0  0  0
  194.8370  177.7720  145.7020 N   0  0  0  0  0  1  0  0  0  0  0  0
  195.8920  174.6850  144.0210 C   0  0  0  0  0  2  0  0  0  0  0  0
  195.1710  173.4330  143.8520 N   0  0  0  0  0  2  0  0  0  0  0  0
  195.6300  172.5300  144.8960 C   0  0  0  0  0  2  0  0  0  0  0  0
  196.0420  170.0020  146.2160 C   0  0  0  0  0  1  0  0  0  0  0  0
  194.1520  169.7360  144.6610 N   0  0  0  0  0  0  0  0  0  0  0  0
  193.4330  168.5470  145.0870 C   0  0  0  0  0  1  0  0  0  0  0  0
  194.6180  170.4160  145.8600 C   0  0  2  0  0  3  0  0  0  0  0  0
  193.2580  171.8900  144.6890 C   0  0  0  0  0  2  0  0  0  0  0  0
  193.2070  170.5810  144.0400 N   0  0  0  0  0  2  0  0  0  0  0  0
  194.4380  171.8960  145.6190 C   0  0  2  0  0  3  0  0  0  0  0  0
  1  2  1  0  0  0  0
  1  3  1  0  0  0  0
  2 19  1  6  0  0  0
  2  3  1  0  0  0  0
  3  4  1  1  0  0  0
  4  7  1  6  0  0  0
  4  5  1  0  0  0  0
  5  6  1  0  0  0  0
  9 11  1  0  0  0  0
 10  7  1  6  0  0  0
 10 16  1  0  0  0  0
 11 18  1  0  0  0  0
 12 13  1  0  0  0  0
 13 16  2  0  0  0  0
 14 11  2  0  0  0  0
 14 17  1  0  0  0  0
 15 12  1  0  0  0  0
 15  8  1  0  0  0  0
 17 15  2  0  0  0  0
 18 10  1  0  0  0  0
 18 12  2  0  0  0  0
 19 21  1  6  0  0  0
 19 22  1  0  0  0  0
 20 21  1  0  0  0  0
 22 26  1  1  0  0  0
 22 23  1  0  0  0  0
 23 25  1  0  0  0  0
 23 24  2  0  0  0  0
 27 26  1  0  0  0  0
 27 28  1  0  0  0  0
 30 31  1  0  0  0  0
 30 32  1  0  0  0  0
 32 29  1  6  0  0  0
 33 35  1  0  0  0  0
 34 30  1  0  0  0  0
 34 33  1  0  0  0  0
 35 28  1  6  0  0  0
 35 32  1  0  0  0  0
M  END
>  <MODEL>
8

>  <REMARK>
 VINA RESULT:      -6.6      3.251      4.985
  Name = 
  12 active torsions:
  status: ('A' for Active; 'I' for Inactive)
    1  A    between atoms: C_2  and  C_6
    2  A    between atoms: C_2  and  C_12
    3  A    between atoms: C_2  and  C_33
    4  A    between atoms: C_3  and  N_8
    5  A    between atoms: C_3  and  C_35
    6  A    between atoms: C_6  and  C_7
    7  A    between atoms: N_8  and  C_30
    8  A    between atoms: C_13  and  C_15
    9  A    between atoms: C_15  and  C_24
   10  A    between atoms: C_15  and  C_30
   11  A    between atoms: C_24  and  C_27
   12  A    between atoms: C_24  and  C_28
                            x       y       z     vdW  Elec       q    Type
                         _______ _______ _______ _____ _____    ______ ____

>  <TORSDO>
F 12

$$$$
=
 OpenBabel11062422003D

 35 38  0  0  1  0  0  0  0  0999 V2000
  191.6900  176.1960  146.5190 C   0  0  0  0  0  2  0  0  0  0  0  0
  192.5800  175.1680  145.8490 C   0  0  1  0  0  3  0  0  0  0  0  0
  191.3480  175.6950  145.1300 C   0  0  1  0  0  3  0  0  0  0  0  0
  190.2270  174.6700  145.2120 C   0  0  2  0  0  3  0  0  0  0  0  0
  190.5460  173.4850  144.3150 C   0  0  0  0  0  2  0  0  0  0  0  0
  189.6910  172.2930  144.6950 C   0  0  0  0  0  1  0  0  0  0  0  0
  188.9220  175.3120  144.7480 C   0  0  0  0  0  2  0  0  0  0  0  0
  184.1350  178.2460  146.1970 N   0  0  0  0  0  1  0  0  0  0  0  0
  188.8550  177.9130  142.5110 Cl  0  0  0  0  0  0  0  0  0  0  0  0
  188.5710  176.5990  145.5060 C   0  0  2  0  0  3  0  0  0  0  0  0
  187.4720  177.9940  143.5870 C   0  0  0  0  0  0  0  0  0  0  0  0
  186.4080  177.4740  145.6880 C   0  0  0  0  0  0  0  0  0  0  0  0
  186.6340  176.8290  146.9240 N   0  0  0  0  0  0  0  0  0  0  0  0
  186.3150  178.6850  143.1900 C   0  0  0  0  0  3  0  0  0  0  0  0
  185.2480  178.1560  145.3150 C   0  0  0  0  0  0  0  0  0  0  0  0
  187.9890  176.2810  146.9020 C   0  0  0  0  0  3  0  0  0  0  0  0
  185.2060  178.7640  144.0510 C   0  0  0  0  0  3  0  0  0  0  0  0
  187.4850  177.3830  144.8480 C   0  0  0  0  0  0  0  0  0  0  0  0
  193.8230  175.8430  145.2650 C   0  0  1  0  0  3  0  0  0  0  0  0
  194.9340  177.9350  145.7420 O   0  0  0  0  0  1  0  0  0  0  0  0
  194.5580  176.7080  146.2920 C   0  0  0  0  0  2  0  0  0  0  0  0
  194.7690  174.8810  144.5270 C   0  0  1  0  0  3  0  0  0  0  0  0
  194.9160  175.1730  143.0620 C   0  0  0  0  0  0  0  0  0  0  0  0
  194.2300  174.5500  142.2080 O   0  0  0  0  0  0  0  0  0  0  0  0
  195.8380  176.1690  142.6350 N   0  0  0  0  0  1  0  0  0  0  0  0
  196.1240  174.8040  145.2190 C   0  0  0  0  0  2  0  0  0  0  0  0
  196.7990  173.5650  144.8630 N   0  0  0  0  0  2  0  0  0  0  0  0
  196.3030  172.5340  145.7600 C   0  0  0  0  0  2  0  0  0  0  0  0
  193.7650  171.3870  145.0210 C   0  0  0  0  0  1  0  0  0  0  0  0
  194.9590  169.7370  146.4030 N   0  0  0  0  0  0  0  0  0  0  0  0
  194.3210  168.4550  146.1550 C   0  0  0  0  0  1  0  0  0  0  0  0
  194.9740  170.4650  145.1440 C   0  0  2  0  0  3  0  0  0  0  0  0
  197.1720  170.2290  145.8570 C   0  0  0  0  0  2  0  0  0  0  0  0
  196.3000  169.4630  146.7470 N   0  0  0  0  0  2  0  0  0  0  0  0
  196.3080  171.1690  145.0650 C   0  0  2  0  0  3  0  0  0  0  0  0
  2 19  1  6  0  0  0
  2  1  1  0  0  0  0
  3  4  1  1  0  0  0
  3  2  1  0  0  0  0
  3  1  1  0  0  0  0
  4  5  1  6  0  0  0
  5  6  1  0  0  0  0
  7  4  1  0  0  0  0
  9 11  1  0  0  0  0
 10  7  1  6  0  0  0
 10 16  1  0  0  0  0
 11 18  1  0  0  0  0
 12 13  1  0  0  0  0
 14 11  2  0  0  0  0
 14 17  1  0  0  0  0
 15 12  1  0  0  0  0
 15  8  1  0  0  0  0
 16 13  2  0  0  0  0
 17 15  2  0  0  0  0
 18 10  1  0  0  0  0
 18 12  2  0  0  0  0
 19 21  1  1  0  0  0
 20 21  1  0  0  0  0
 22 26  1  1  0  0  0
 22 19  1  0  0  0  0
 23 22  1  0  0  0  0
 24 23  2  0  0  0  0
 25 23  1  0  0  0  0
 27 26  1  0  0  0  0
 27 28  1  0  0  0  0
 30 34  1  0  0  0  0
 31 30  1  0  0  0  0
 32 29  1  1  0  0  0
 32 30  1  0  0  0  0
 33 34  1  0  0  0  0
 35 32  1  0  0  0  0
 35 28  1  1  0  0  0
 35 33  1  0  0  0  0
M  END
>  <MODEL>
9

>  <REMARK>
 VINA RESULT:      -6.5      3.727      5.764
  Name = 
  12 active torsions:
  status: ('A' for Active; 'I' for Inactive)
    1  A    between atoms: C_2  and  C_6
    2  A    between atoms: C_2  and  C_12
    3  A    between atoms: C_2  and  C_33
    4  A    between atoms: C_3  and  N_8
    5  A    between atoms: C_3  and  C_35
    6  A    between atoms: C_6  and  C_7
    7  A    between atoms: N_8  and  C_30
    8  A    between atoms: C_13  and  C_15
    9  A    between atoms: C_15  and  C_24
   10  A    between atoms: C_15  and  C_30
   11  A    between atoms: C_24  and  C_27
   12  A    between atoms: C_24  and  C_28
                            x       y       z     vdW  Elec       q    Type
                         _______ _______ _______ _____ _____    ______ ____

>  <TORSDO>
F 12

$$$$
