=
 OpenBabel11062418373D

 55 58  0  0  1  0  0  0  0  0999 V2000
  189.9490  173.7260  142.3150 C   0  0  1  0  0  3  0  0  0  0  0  0
  188.9490  173.1230  141.3190 C   0  0  1  0  0  3  0  0  0  0  0  0
  187.6610  173.0150  141.8470 O   0  0  0  0  0  1  0  0  0  0  0  0
  188.9470  173.8210  139.9590 C   0  0  0  0  0  2  0  0  0  0  0  0
  188.9820  171.5510  138.7920 C   0  0  0  0  0  2  0  0  0  0  0  0
  190.3190  171.5830  138.3730 O   0  0  0  0  0  0  0  0  0  0  0  0
  188.3690  172.9580  138.8280 C   0  0  2  0  0  3  0  0  0  0  0  0
  190.3900  172.9430  136.3800 C   0  0  1  0  0  3  0  0  0  0  0  0
  190.2650  171.5380  136.9760 C   0  0  0  0  0  2  0  0  0  0  0  0
  188.3600  173.5780  137.5530 O   0  0  0  0  0  0  0  0  0  0  0  0
  189.6660  173.9920  137.2260 C   0  0  0  0  0  2  0  0  0  0  0  0
  191.7390  173.2890  136.2760 O   0  0  0  0  0  0  0  0  0  0  0  0
  192.7320  173.9630  138.3240 C   0  0  0  0  0  3  0  0  0  0  0  0
  191.8240  176.1840  135.5570 O   0  0  0  0  0  0  0  0  0  0  0  0
  194.6790  175.1800  137.5220 C   0  0  0  0  0  0  0  0  0  0  0  0
  194.0130  174.2990  138.4840 C   0  0  0  0  0  3  0  0  0  0  0  0
  195.9120  175.4040  137.6170 O   0  0  0  0  0  0  0  0  0  0  0  0
  193.9130  175.8110  136.5000 N   0  0  0  0  0  2  0  0  0  0  0  0
  192.5220  175.5220  136.3680 C   0  0  0  0  0  0  0  0  0  0  0  0
  191.9050  174.3840  137.1330 C   0  0  1  0  0  3  0  0  0  0  0  0
  191.1070  172.9480  142.5540 O   0  0  0  0  0  0  0  0  0  0  0  0
  190.8140  171.9390  143.4860 C   0  0  0  0  0  2  0  0  0  0  0  0
  193.1120  170.2900  143.0810 O   0  0  0  0  0  0  0  0  0  0  0  0
  191.9260  171.7970  144.4150 N   0  0  0  0  0  2  0  0  0  0  0  0
  193.0350  170.9310  144.1620 C   0  0  0  0  0  0  0  0  0  0  0  0
  194.9750  169.7570  144.8150 F   0  0  0  0  0  0  0  0  0  0  0  0
  194.0880  170.7440  145.2020 C   0  0  1  0  0  3  0  0  0  0  0  0
  194.8410  172.0400  145.4140 C   0  0  0  0  0  1  0  0  0  0  0  0
  190.2180  175.2160  142.0760 C   0  0  0  0  0  2  0  0  0  0  0  0
  189.1330  177.1610  147.0820 N   0  0  0  0  0  0  0  0  0  0  0  0
  190.1740  176.4320  146.7730 C   0  0  0  0  0  0  0  0  0  0  0  0
  188.6500  177.0960  142.9380 C   0  0  0  0  0  0  0  0  0  0  0  0
  185.5910  178.2150  146.7400 N   0  0  0  0  0  2  0  0  0  0  0  0
  188.3180  177.3810  141.7560 O   0  0  0  0  0  0  0  0  0  0  0  0
  187.4730  176.8650  145.1060 C   0  0  1  0  0  3  0  0  0  0  0  0
  188.0100  177.8430  144.0670 C   0  0  0  0  0  2  0  0  0  0  0  0
  187.8270  177.3280  146.4980 C   0  0  0  0  0  0  0  0  0  0  0  0
  186.9190  177.9870  147.2250 C   0  0  0  0  0  3  0  0  0  0  0  0
  185.9710  176.6380  144.9180 C   0  0  0  0  0  2  0  0  0  0  0  0
  190.2650  175.4690  145.6590 C   0  0  0  0  0  3  0  0  0  0  0  0
  185.1980  177.8690  145.3790 C   0  0  0  0  0  2  0  0  0  0  0  0
  189.9930  175.7560  144.4200 C   0  0  0  0  0  0  0  0  0  0  0  0
  189.6620  176.0480  143.1900 C   0  0  0  0  0  0  0  0  0  0  0  0
  191.3250  176.4430  147.7160 C   0  0  0  0  0  2  0  0  0  0  0  0
  192.3960  175.6110  147.2000 N   0  0  0  0  0  2  0  0  0  0  0  0
  193.4590  176.5130  146.7990 C   0  0  0  0  0  2  0  0  0  0  0  0
  194.5330  175.7360  146.0570 C   0  0  0  0  0  2  0  0  0  0  0  0
  193.5170  175.1240  143.9050 N   0  0  0  0  0  1  0  0  0  0  0  0
  194.4960  175.9830  144.5510 C   0  0  2  0  0  3  0  0  0  0  0  0
  196.7810  177.1170  143.6680 O   0  0  0  0  0  0  0  0  0  0  0  0
  196.9420  174.8730  144.6430 O   0  0  0  0  0  0  0  0  0  0  0  0
  196.1010  175.7800  143.7890 S   0  0  0  0  0  0  0  0  0  0  0  0
  195.9050  175.0510  142.1720 C   0  0  0  0  0  2  0  0  0  0  0  0
  194.7480  176.7490  140.9590 O   0  0  0  0  0  1  0  0  0  0  0  0
  195.9800  176.1070  141.0830 C   0  0  0  0  0  2  0  0  0  0  0  0
  1 29  1  6  0  0  0
  1 21  1  0  0  0  0
  2  3  1  1  0  0  0
  2  1  1  0  0  0  0
  4  2  1  0  0  0  0
  5  7  1  0  0  0  0
  6  5  1  0  0  0  0
  7  4  1  1  0  0  0
  8 12  1  1  0  0  0
  8  9  1  0  0  0  0
  8 11  1  0  0  0  0
  9  6  1  0  0  0  0
 10  7  1  0  0  0  0
 11 10  1  0  0  0  0
 13 16  2  0  0  0  0
 14 19  2  0  0  0  0
 15 17  2  0  0  0  0
 15 16  1  0  0  0  0
 18 15  1  0  0  0  0
 19 18  1  0  0  0  0
 19 20  1  0  0  0  0
 20 12  1  6  0  0  0
 20 13  1  0  0  0  0
 21 22  1  0  0  0  0
 22 24  1  0  0  0  0
 23 25  2  0  0  0  0
 25 24  1  0  0  0  0
 25 27  1  0  0  0  0
 26 27  1  0  0  0  0
 27 28  1  6  0  0  0
 29 43  1  0  0  0  0
 31 30  2  0  0  0  0
 31 44  1  0  0  0  0
 32 43  1  0  0  0  0
 32 36  1  0  0  0  0
 33 38  1  0  0  0  0
 34 32  2  0  0  0  0
 35 36  1  6  0  0  0
 35 37  1  0  0  0  0
 37 30  1  0  0  0  0
 37 38  2  0  0  0  0
 39 35  1  0  0  0  0
 39 41  1  0  0  0  0
 40 31  1  0  0  0  0
 41 33  1  0  0  0  0
 42 40  2  0  0  0  0
 43 42  2  0  0  0  0
 45 44  1  0  0  0  0
 46 45  1  0  0  0  0
 47 46  1  0  0  0  0
 49 48  1  6  0  0  0
 49 47  1  0  0  0  0
 50 52  2  0  0  0  0
 52 49  1  0  0  0  0
 52 51  2  0  0  0  0
 53 52  1  0  0  0  0
 54 55  1  0  0  0  0
 55 53  1  0  0  0  0
M  END
>  <MODEL>
1

>  <REMARK>
 VINA RESULT:      -6.5      0.000      0.000
  Name = 
  19 active torsions:
  status: ('A' for Active; 'I' for Inactive)
    1  A    between atoms: C_2  and  C_5
    2  A    between atoms: C_2  and  C_18
    3  A    between atoms: C_5  and  C_17
    4  A    between atoms: C_7  and  C_26
    5  A    between atoms: C_9  and  N_16
    6  A    between atoms: C_9  and  O_47
    7  A    between atoms: C_18  and  O_47
    8  A    between atoms: C_18  and  C_49
    9  A    between atoms: C_21  and  S_30
   10  A    between atoms: C_21  and  C_32
   11  A    between atoms: C_23  and  S_30
   12  A    between atoms: C_23  and  C_41
   13  A    between atoms: C_26  and  N_55
   14  A    between atoms: C_27  and  C_32
   15  A    between atoms: C_27  and  N_55
   16  A    between atoms: C_31  and  O_43
   17  A    between atoms: C_37  and  C_51
   18  A    between atoms: O_43  and  C_54
   19  A    between atoms: C_44  and  C_49
                            x       y       z     vdW  Elec       q    Type
                         _______ _______ _______ _____ _____    ______ ____

>  <TORSDO>
F 19

$$$$
=
 OpenBabel11062418373D

 55 58  0  0  1  0  0  0  0  0999 V2000
  196.3730  175.3630  142.5150 C   0  0  1  0  0  3  0  0  0  0  0  0
  196.2130  175.6640  141.0190 C   0  0  1  0  0  3  0  0  0  0  0  0
  197.4340  175.9020  140.3840 O   0  0  0  0  0  1  0  0  0  0  0  0
  195.3790  174.6230  140.2720 C   0  0  0  0  0  2  0  0  0  0  0  0
  196.4580  173.4950  138.2520 C   0  0  0  0  0  2  0  0  0  0  0  0
  195.2830  173.2710  137.5210 O   0  0  0  0  0  0  0  0  0  0  0  0
  196.2010  173.4290  139.7650 C   0  0  2  0  0  3  0  0  0  0  0  0
  194.2520  171.2960  138.4500 C   0  0  1  0  0  3  0  0  0  0  0  0
  195.1920  171.8810  137.3920 C   0  0  0  0  0  2  0  0  0  0  0  0
  195.7220  172.1610  140.1790 O   0  0  0  0  0  0  0  0  0  0  0  0
  194.3750  172.0200  139.7920 C   0  0  0  0  0  2  0  0  0  0  0  0
  192.9320  171.3830  138.0010 O   0  0  0  0  0  0  0  0  0  0  0  0
  191.8400  173.4680  138.3080 C   0  0  0  0  0  3  0  0  0  0  0  0
  191.3390  170.4740  140.3550 O   0  0  0  0  0  0  0  0  0  0  0  0
  189.5070  172.7840  138.2750 C   0  0  0  0  0  0  0  0  0  0  0  0
  190.5780  173.7340  137.9660 C   0  0  0  0  0  3  0  0  0  0  0  0
  188.3390  172.9880  137.8560 O   0  0  0  0  0  0  0  0  0  0  0  0
  189.7870  171.6480  139.0880 N   0  0  0  0  0  2  0  0  0  0  0  0
  191.1220  171.3960  139.5270 C   0  0  0  0  0  0  0  0  0  0  0  0
  192.2730  172.1730  138.9510 C   0  0  1  0  0  3  0  0  0  0  0  0
  197.6950  175.0920  142.9400 O   0  0  0  0  0  0  0  0  0  0  0  0
  197.8560  173.7100  143.1290 C   0  0  0  0  0  2  0  0  0  0  0  0
  197.3510  171.7100  145.1060 O   0  0  0  0  0  0  0  0  0  0  0  0
  196.5620  173.1020  143.4040 N   0  0  0  0  0  2  0  0  0  0  0  0
  196.3840  172.0830  144.3920 C   0  0  0  0  0  0  0  0  0  0  0  0
  194.5570  171.6440  145.8190 F   0  0  0  0  0  0  0  0  0  0  0  0
  195.0570  171.4210  144.5490 C   0  0  1  0  0  3  0  0  0  0  0  0
  194.0840  171.9630  143.5240 C   0  0  0  0  0  1  0  0  0  0  0  0
  195.5990  176.3350  143.4140 C   0  0  0  0  0  2  0  0  0  0  0  0
  190.4620  174.5190  143.9820 N   0  0  0  0  0  0  0  0  0  0  0  0
  191.0280  174.8150  142.8400 C   0  0  0  0  0  0  0  0  0  0  0  0
  194.3550  175.1380  145.3510 C   0  0  0  0  0  0  0  0  0  0  0  0
  189.8980  174.9480  147.6240 N   0  0  0  0  0  2  0  0  0  0  0  0
  195.4130  175.1090  146.0340 O   0  0  0  0  0  0  0  0  0  0  0  0
  191.9640  175.6090  145.7990 C   0  0  1  0  0  3  0  0  0  0  0  0
  193.0940  174.5970  145.9520 C   0  0  0  0  0  2  0  0  0  0  0  0
  190.7000  174.9220  145.3430 C   0  0  0  0  0  0  0  0  0  0  0  0
  189.7630  174.6010  146.2410 C   0  0  0  0  0  3  0  0  0  0  0  0
  191.7730  176.4140  147.0880 C   0  0  0  0  0  2  0  0  0  0  0  0
  192.1390  175.7640  142.6380 C   0  0  0  0  0  3  0  0  0  0  0  0
  191.1210  175.5400  148.1540 C   0  0  0  0  0  2  0  0  0  0  0  0
  193.2690  175.7160  143.2820 C   0  0  0  0  0  0  0  0  0  0  0  0
  194.3740  175.6860  143.9780 C   0  0  0  0  0  0  0  0  0  0  0  0
  190.4020  174.2760  141.6030 C   0  0  0  0  0  2  0  0  0  0  0  0
  188.9920  174.0190  141.8320 N   0  0  0  0  0  2  0  0  0  0  0  0
  188.2740  175.1540  141.2830 C   0  0  0  0  0  2  0  0  0  0  0  0
  187.3820  175.7580  142.3540 C   0  0  0  0  0  2  0  0  0  0  0  0
  188.8110  177.5590  143.2200 N   0  0  0  0  0  1  0  0  0  0  0  0
  187.5830  177.2640  142.5010 C   0  0  2  0  0  3  0  0  0  0  0  0
  186.0350  179.4610  142.7570 O   0  0  0  0  0  0  0  0  0  0  0  0
  184.9420  177.2790  142.9980 O   0  0  0  0  0  0  0  0  0  0  0  0
  186.1910  178.0620  143.2900 S   0  0  0  0  0  0  0  0  0  0  0  0
  186.4550  178.1110  145.0550 C   0  0  0  0  0  2  0  0  0  0  0  0
  185.1540  176.5300  146.2790 O   0  0  0  0  0  1  0  0  0  0  0  0
  185.1640  177.8430  145.8080 C   0  0  0  0  0  2  0  0  0  0  0  0
  1 21  1  0  0  0  0
  1 29  1  1  0  0  0
  2  3  1  6  0  0  0
  2  1  1  0  0  0  0
  4  2  1  0  0  0  0
  5  7  1  0  0  0  0
  6  5  1  0  0  0  0
  7 10  1  0  0  0  0
  7  4  1  6  0  0  0
  8 12  1  6  0  0  0
  8 11  1  0  0  0  0
  9  6  1  0  0  0  0
  9  8  1  0  0  0  0
 11 10  1  0  0  0  0
 13 20  1  0  0  0  0
 15 18  1  0  0  0  0
 16 15  1  0  0  0  0
 16 13  2  0  0  0  0
 17 15  2  0  0  0  0
 18 19  1  0  0  0  0
 19 14  2  0  0  0  0
 20 12  1  6  0  0  0
 20 19  1  0  0  0  0
 21 22  1  0  0  0  0
 22 24  1  0  0  0  0
 24 25  1  0  0  0  0
 25 27  1  0  0  0  0
 25 23  2  0  0  0  0
 27 28  1  6  0  0  0
 27 26  1  0  0  0  0
 29 43  1  0  0  0  0
 30 37  1  0  0  0  0
 31 30  2  0  0  0  0
 32 36  1  0  0  0  0
 32 34  2  0  0  0  0
 33 41  1  0  0  0  0
 35 36  1  1  0  0  0
 35 39  1  0  0  0  0
 37 35  1  0  0  0  0
 37 38  2  0  0  0  0
 38 33  1  0  0  0  0
 39 41  1  0  0  0  0
 40 31  1  0  0  0  0
 40 42  2  0  0  0  0
 42 43  2  0  0  0  0
 43 32  1  0  0  0  0
 44 45  1  0  0  0  0
 44 31  1  0  0  0  0
 46 45  1  0  0  0  0
 46 47  1  0  0  0  0
 47 49  1  0  0  0  0
 49 48  1  1  0  0  0
 49 52  1  0  0  0  0
 50 52  2  0  0  0  0
 51 52  2  0  0  0  0
 52 53  1  0  0  0  0
 53 55  1  0  0  0  0
 55 54  1  0  0  0  0
M  END
>  <MODEL>
2

>  <REMARK>
 VINA RESULT:      -6.4      2.784      6.683
  Name = 
  19 active torsions:
  status: ('A' for Active; 'I' for Inactive)
    1  A    between atoms: C_2  and  C_5
    2  A    between atoms: C_2  and  C_18
    3  A    between atoms: C_5  and  C_17
    4  A    between atoms: C_7  and  C_26
    5  A    between atoms: C_9  and  N_16
    6  A    between atoms: C_9  and  O_47
    7  A    between atoms: C_18  and  O_47
    8  A    between atoms: C_18  and  C_49
    9  A    between atoms: C_21  and  S_30
   10  A    between atoms: C_21  and  C_32
   11  A    between atoms: C_23  and  S_30
   12  A    between atoms: C_23  and  C_41
   13  A    between atoms: C_26  and  N_55
   14  A    between atoms: C_27  and  C_32
   15  A    between atoms: C_27  and  N_55
   16  A    between atoms: C_31  and  O_43
   17  A    between atoms: C_37  and  C_51
   18  A    between atoms: O_43  and  C_54
   19  A    between atoms: C_44  and  C_49
                            x       y       z     vdW  Elec       q    Type
                         _______ _______ _______ _____ _____    ______ ____

>  <TORSDO>
F 19

$$$$
=
 OpenBabel11062418373D

 55 58  0  0  1  0  0  0  0  0999 V2000
  189.2310  174.2840  141.9520 C   0  0  1  0  0  3  0  0  0  0  0  0
  189.5810  173.0790  142.8360 C   0  0  1  0  0  3  0  0  0  0  0  0
  188.9980  171.8930  142.3860 O   0  0  0  0  0  1  0  0  0  0  0  0
  191.0810  172.9160  143.0800 C   0  0  0  0  0  2  0  0  0  0  0  0
  192.8210  171.0550  143.2410 C   0  0  0  0  0  2  0  0  0  0  0  0
  193.9600  171.8700  143.2230 O   0  0  0  0  0  0  0  0  0  0  0  0
  191.6780  171.6660  142.4170 C   0  0  2  0  0  3  0  0  0  0  0  0
  194.3610  172.4530  140.9140 C   0  0  1  0  0  3  0  0  0  0  0  0
  194.6600  171.4940  142.0710 C   0  0  0  0  0  2  0  0  0  0  0  0
  192.0190  171.8250  141.0510 O   0  0  0  0  0  0  0  0  0  0  0  0
  192.9020  172.9130  140.9120 C   0  0  0  0  0  2  0  0  0  0  0  0
  195.1940  173.5710  141.0060 O   0  0  0  0  0  0  0  0  0  0  0  0
  195.8230  172.8580  138.8320 C   0  0  0  0  0  3  0  0  0  0  0  0
  197.9410  174.7270  141.1630 O   0  0  0  0  0  0  0  0  0  0  0  0
  196.5480  174.9580  137.8430 C   0  0  0  0  0  0  0  0  0  0  0  0
  195.9050  173.6450  137.7570 C   0  0  0  0  0  3  0  0  0  0  0  0
  196.5260  175.7390  136.8570 O   0  0  0  0  0  0  0  0  0  0  0  0
  197.2330  175.3300  139.0350 N   0  0  0  0  0  2  0  0  0  0  0  0
  197.2210  174.4590  140.1660 C   0  0  0  0  0  0  0  0  0  0  0  0
  196.3000  173.2710  140.2030 C   0  0  1  0  0  3  0  0  0  0  0  0
  189.6510  174.1870  140.6050 O   0  0  0  0  0  0  0  0  0  0  0  0
  188.5480  173.8940  139.7860 C   0  0  0  0  0  2  0  0  0  0  0  0
  190.2610  172.3150  138.1310 O   0  0  0  0  0  0  0  0  0  0  0  0
  188.8830  174.1820  138.3980 N   0  0  0  0  0  2  0  0  0  0  0  0
  189.7720  173.3630  137.6340 C   0  0  0  0  0  0  0  0  0  0  0  0
  190.8970  174.9430  136.2910 F   0  0  0  0  0  0  0  0  0  0  0  0
  190.1630  173.7720  136.2540 C   0  0  1  0  0  3  0  0  0  0  0  0
  190.9890  172.6820  135.6060 C   0  0  0  0  0  1  0  0  0  0  0  0
  187.7890  174.7730  142.1380 C   0  0  0  0  0  2  0  0  0  0  0  0
  188.7320  177.4890  146.8020 N   0  0  0  0  0  0  0  0  0  0  0  0
  189.5780  176.6720  146.2290 C   0  0  0  0  0  0  0  0  0  0  0  0
  186.6600  176.8330  143.2400 C   0  0  0  0  0  0  0  0  0  0  0  0
  185.3270  178.6510  147.7110 N   0  0  0  0  0  2  0  0  0  0  0  0
  185.8860  176.9570  142.2530 O   0  0  0  0  0  0  0  0  0  0  0  0
  186.4330  176.9840  145.7030 C   0  0  1  0  0  3  0  0  0  0  0  0
  186.5060  177.7700  144.3980 C   0  0  0  0  0  2  0  0  0  0  0  0
  187.3000  177.6300  146.7560 C   0  0  0  0  0  0  0  0  0  0  0  0
  186.7420  178.4340  147.6670 C   0  0  0  0  0  3  0  0  0  0  0  0
  184.9810  176.8050  146.1540 C   0  0  0  0  0  2  0  0  0  0  0  0
  189.2370  175.5510  145.3320 C   0  0  0  0  0  3  0  0  0  0  0  0
  184.4350  178.1270  146.6820 C   0  0  0  0  0  2  0  0  0  0  0  0
  188.4960  175.6650  144.2690 C   0  0  0  0  0  0  0  0  0  0  0  0
  187.7040  175.7870  143.2370 C   0  0  0  0  0  0  0  0  0  0  0  0
  191.0060  176.7670  146.6340 C   0  0  0  0  0  2  0  0  0  0  0  0
  191.3600  175.6370  147.4730 N   0  0  0  0  0  2  0  0  0  0  0  0
  192.5490  175.0480  146.8880 C   0  0  0  0  0  2  0  0  0  0  0  0
  193.0020  175.8860  145.7040 C   0  0  0  0  0  2  0  0  0  0  0  0
  194.7490  177.5630  146.1190 N   0  0  0  0  0  1  0  0  0  0  0  0
  194.4990  176.1830  145.7370 C   0  0  2  0  0  3  0  0  0  0  0  0
  194.2700  175.6990  143.0910 O   0  0  0  0  0  0  0  0  0  0  0  0
  196.2590  176.9200  143.8440 O   0  0  0  0  0  0  0  0  0  0  0  0
  195.3000  175.8120  144.1820 S   0  0  0  0  0  0  0  0  0  0  0  0
  196.2010  174.2780  144.3280 C   0  0  0  0  0  2  0  0  0  0  0  0
  196.8460  172.7200  146.0160 O   0  0  0  0  0  1  0  0  0  0  0  0
  196.7220  174.0830  145.7400 C   0  0  0  0  0  2  0  0  0  0  0  0
  1 29  1  6  0  0  0
  1  2  1  0  0  0  0
  2  3  1  6  0  0  0
  2  4  1  0  0  0  0
  6  5  1  0  0  0  0
  7  4  1  1  0  0  0
  7  5  1  0  0  0  0
  8 12  1  1  0  0  0
  8  9  1  0  0  0  0
  9  6  1  0  0  0  0
 10  7  1  0  0  0  0
 11  8  1  0  0  0  0
 11 10  1  0  0  0  0
 13 20  1  0  0  0  0
 15 18  1  0  0  0  0
 16 15  1  0  0  0  0
 16 13  2  0  0  0  0
 17 15  2  0  0  0  0
 18 19  1  0  0  0  0
 19 20  1  0  0  0  0
 19 14  2  0  0  0  0
 20 12  1  1  0  0  0
 21  1  1  0  0  0  0
 22 21  1  0  0  0  0
 24 22  1  0  0  0  0
 25 23  2  0  0  0  0
 25 24  1  0  0  0  0
 27 28  1  1  0  0  0
 27 26  1  0  0  0  0
 27 25  1  0  0  0  0
 29 43  1  0  0  0  0
 31 44  1  0  0  0  0
 31 30  2  0  0  0  0
 32 36  1  0  0  0  0
 34 32  2  0  0  0  0
 35 36  1  6  0  0  0
 35 39  1  0  0  0  0
 35 37  1  0  0  0  0
 37 30  1  0  0  0  0
 37 38  2  0  0  0  0
 38 33  1  0  0  0  0
 39 41  1  0  0  0  0
 40 31  1  0  0  0  0
 41 33  1  0  0  0  0
 42 40  2  0  0  0  0
 43 32  1  0  0  0  0
 43 42  2  0  0  0  0
 44 45  1  0  0  0  0
 46 45  1  0  0  0  0
 47 49  1  0  0  0  0
 47 46  1  0  0  0  0
 49 48  1  6  0  0  0
 50 52  2  0  0  0  0
 51 52  2  0  0  0  0
 52 53  1  0  0  0  0
 52 49  1  0  0  0  0
 53 55  1  0  0  0  0
 55 54  1  0  0  0  0
M  END
>  <MODEL>
3

>  <REMARK>
 VINA RESULT:      -6.3      2.491      4.524
  Name = 
  19 active torsions:
  status: ('A' for Active; 'I' for Inactive)
    1  A    between atoms: C_2  and  C_5
    2  A    between atoms: C_2  and  C_18
    3  A    between atoms: C_5  and  C_17
    4  A    between atoms: C_7  and  C_26
    5  A    between atoms: C_9  and  N_16
    6  A    between atoms: C_9  and  O_47
    7  A    between atoms: C_18  and  O_47
    8  A    between atoms: C_18  and  C_49
    9  A    between atoms: C_21  and  S_30
   10  A    between atoms: C_21  and  C_32
   11  A    between atoms: C_23  and  S_30
   12  A    between atoms: C_23  and  C_41
   13  A    between atoms: C_26  and  N_55
   14  A    between atoms: C_27  and  C_32
   15  A    between atoms: C_27  and  N_55
   16  A    between atoms: C_31  and  O_43
   17  A    between atoms: C_37  and  C_51
   18  A    between atoms: O_43  and  C_54
   19  A    between atoms: C_44  and  C_49
                            x       y       z     vdW  Elec       q    Type
                         _______ _______ _______ _____ _____    ______ ____

>  <TORSDO>
F 19

$$$$
=
 OpenBabel11062418373D

 55 58  0  0  1  0  0  0  0  0999 V2000
  189.3170  173.1100  142.5160 C   0  0  1  0  0  3  0  0  0  0  0  0
  188.3590  172.5750  141.4420 C   0  0  1  0  0  3  0  0  0  0  0  0
  187.0420  172.4760  141.8960 O   0  0  0  0  0  1  0  0  0  0  0  0
  188.4470  173.3290  140.1160 C   0  0  0  0  0  2  0  0  0  0  0  0
  189.8100  171.5290  138.9240 C   0  0  0  0  0  2  0  0  0  0  0  0
  190.9710  172.2870  138.7190 O   0  0  0  0  0  0  0  0  0  0  0  0
  188.5510  172.4070  138.8920 C   0  0  2  0  0  3  0  0  0  0  0  0
  190.5600  173.6760  136.7880 C   0  0  1  0  0  3  0  0  0  0  0  0
  191.1200  172.3580  137.3300 C   0  0  0  0  0  2  0  0  0  0  0  0
  188.3740  173.0550  137.6440 O   0  0  0  0  0  0  0  0  0  0  0  0
  189.2970  174.1130  137.5320 C   0  0  0  0  0  2  0  0  0  0  0  0
  191.5280  174.6770  136.9010 O   0  0  0  0  0  0  0  0  0  0  0  0
  191.2370  176.0940  135.0200 C   0  0  0  0  0  3  0  0  0  0  0  0
  194.2220  174.1020  135.7520 O   0  0  0  0  0  0  0  0  0  0  0  0
  193.2000  177.5180  135.1990 C   0  0  0  0  0  0  0  0  0  0  0  0
  191.7900  177.3000  134.8710 C   0  0  0  0  0  3  0  0  0  0  0  0
  193.6870  178.6770  135.1610 O   0  0  0  0  0  0  0  0  0  0  0  0
  194.0280  176.4050  135.5220 N   0  0  0  0  0  2  0  0  0  0  0  0
  193.4640  175.0960  135.6050 C   0  0  0  0  0  0  0  0  0  0  0  0
  191.9730  174.9080  135.5940 C   0  0  1  0  0  3  0  0  0  0  0  0
  190.3160  172.2020  142.9410 O   0  0  0  0  0  0  0  0  0  0  0  0
  191.5340  172.5140  142.3150 C   0  0  0  0  0  2  0  0  0  0  0  0
  194.0940  172.3250  141.0600 O   0  0  0  0  0  0  0  0  0  0  0  0
  192.0960  171.3100  141.7200 N   0  0  0  0  0  2  0  0  0  0  0  0
  193.3760  171.2910  141.0810 C   0  0  0  0  0  0  0  0  0  0  0  0
  193.0340  169.7680  139.3120 F   0  0  0  0  0  0  0  0  0  0  0  0
  193.8480  170.0560  140.3920 C   0  0  1  0  0  3  0  0  0  0  0  0
  195.2710  170.2430  139.9120 C   0  0  0  0  0  1  0  0  0  0  0  0
  189.8240  174.5270  142.2230 C   0  0  0  0  0  2  0  0  0  0  0  0
  188.9890  176.7440  147.1630 N   0  0  0  0  0  0  0  0  0  0  0  0
  189.8590  175.8030  146.9040 C   0  0  0  0  0  0  0  0  0  0  0  0
  188.6650  176.7140  143.0030 C   0  0  0  0  0  0  0  0  0  0  0  0
  185.7730  178.5290  146.6650 N   0  0  0  0  0  2  0  0  0  0  0  0
  188.4490  177.0440  141.8060 O   0  0  0  0  0  0  0  0  0  0  0  0
  187.3820  176.7780  145.1220 C   0  0  1  0  0  3  0  0  0  0  0  0
  188.1580  177.6000  144.0980 C   0  0  0  0  0  2  0  0  0  0  0  0
  187.7730  177.1780  146.5230 C   0  0  0  0  0  0  0  0  0  0  0  0
  187.0010  178.0290  147.2060 C   0  0  0  0  0  3  0  0  0  0  0  0
  185.8750  176.8770  144.8730 C   0  0  0  0  0  2  0  0  0  0  0  0
  189.7840  174.8240  145.8030 C   0  0  0  0  0  3  0  0  0  0  0  0
  185.3680  178.2530  145.2910 C   0  0  0  0  0  2  0  0  0  0  0  0
  189.6290  175.1420  144.5500 C   0  0  0  0  0  0  0  0  0  0  0  0
  189.4170  175.4780  143.3060 C   0  0  0  0  0  0  0  0  0  0  0  0
  190.9470  175.5820  147.8940 C   0  0  0  0  0  2  0  0  0  0  0  0
  192.0480  176.4920  147.6320 N   0  0  0  0  0  2  0  0  0  0  0  0
  192.9940  175.7640  146.8090 C   0  0  0  0  0  2  0  0  0  0  0  0
  194.1450  176.6780  146.4250 C   0  0  0  0  0  2  0  0  0  0  0  0
  192.8670  176.7310  144.3270 N   0  0  0  0  0  1  0  0  0  0  0  0
  194.1580  177.0060  144.9340 C   0  0  2  0  0  3  0  0  0  0  0  0
  196.5690  177.0940  143.7230 O   0  0  0  0  0  0  0  0  0  0  0  0
  195.9920  175.0420  144.9340 O   0  0  0  0  0  0  0  0  0  0  0  0
  195.4550  176.1410  144.0600 S   0  0  0  0  0  0  0  0  0  0  0  0
  194.7930  175.4300  142.5620 C   0  0  0  0  0  2  0  0  0  0  0  0
  196.0080  175.9170  140.5670 O   0  0  0  0  0  1  0  0  0  0  0  0
  194.9720  176.3720  141.3850 C   0  0  0  0  0  2  0  0  0  0  0  0
  1 29  1  6  0  0  0
  1 21  1  0  0  0  0
  2  3  1  1  0  0  0
  2  1  1  0  0  0  0
  4  2  1  0  0  0  0
  6  5  1  0  0  0  0
  7  5  1  0  0  0  0
  7  4  1  1  0  0  0
  8 12  1  1  0  0  0
  8  9  1  0  0  0  0
  8 11  1  0  0  0  0
  9  6  1  0  0  0  0
 10  7  1  0  0  0  0
 11 10  1  0  0  0  0
 13 20  1  0  0  0  0
 15 18  1  0  0  0  0
 16 13  2  0  0  0  0
 16 15  1  0  0  0  0
 17 15  2  0  0  0  0
 18 19  1  0  0  0  0
 19 14  2  0  0  0  0
 20 19  1  0  0  0  0
 20 12  1  1  0  0  0
 22 21  1  0  0  0  0
 23 25  2  0  0  0  0
 24 22  1  0  0  0  0
 25 24  1  0  0  0  0
 26 27  1  0  0  0  0
 27 28  1  6  0  0  0
 27 25  1  0  0  0  0
 29 43  1  0  0  0  0
 31 30  2  0  0  0  0
 31 44  1  0  0  0  0
 32 43  1  0  0  0  0
 32 36  1  0  0  0  0
 33 38  1  0  0  0  0
 34 32  2  0  0  0  0
 35 36  1  6  0  0  0
 35 37  1  0  0  0  0
 37 30  1  0  0  0  0
 37 38  2  0  0  0  0
 39 35  1  0  0  0  0
 39 41  1  0  0  0  0
 40 31  1  0  0  0  0
 41 33  1  0  0  0  0
 42 40  2  0  0  0  0
 43 42  2  0  0  0  0
 45 44  1  0  0  0  0
 46 45  1  0  0  0  0
 47 46  1  0  0  0  0
 49 48  1  6  0  0  0
 49 47  1  0  0  0  0
 50 52  2  0  0  0  0
 52 49  1  0  0  0  0
 52 51  2  0  0  0  0
 53 52  1  0  0  0  0
 54 55  1  0  0  0  0
 55 53  1  0  0  0  0
M  END
>  <MODEL>
4

>  <REMARK>
 VINA RESULT:      -6.3      1.737      2.113
  Name = 
  19 active torsions:
  status: ('A' for Active; 'I' for Inactive)
    1  A    between atoms: C_2  and  C_5
    2  A    between atoms: C_2  and  C_18
    3  A    between atoms: C_5  and  C_17
    4  A    between atoms: C_7  and  C_26
    5  A    between atoms: C_9  and  N_16
    6  A    between atoms: C_9  and  O_47
    7  A    between atoms: C_18  and  O_47
    8  A    between atoms: C_18  and  C_49
    9  A    between atoms: C_21  and  S_30
   10  A    between atoms: C_21  and  C_32
   11  A    between atoms: C_23  and  S_30
   12  A    between atoms: C_23  and  C_41
   13  A    between atoms: C_26  and  N_55
   14  A    between atoms: C_27  and  C_32
   15  A    between atoms: C_27  and  N_55
   16  A    between atoms: C_31  and  O_43
   17  A    between atoms: C_37  and  C_51
   18  A    between atoms: O_43  and  C_54
   19  A    between atoms: C_44  and  C_49
                            x       y       z     vdW  Elec       q    Type
                         _______ _______ _______ _____ _____    ______ ____

>  <TORSDO>
F 19

$$$$
=
 OpenBabel11062418373D

 55 58  0  0  1  0  0  0  0  0999 V2000
  190.2900  173.6110  142.4240 C   0  0  1  0  0  3  0  0  0  0  0  0
  189.5740  172.3050  142.0540 C   0  0  1  0  0  3  0  0  0  0  0  0
  189.0930  172.3070  140.7440 O   0  0  0  0  0  1  0  0  0  0  0  0
  190.3970  171.0520  142.3540 C   0  0  0  0  0  2  0  0  0  0  0  0
  190.8000  168.7580  141.3090 C   0  0  0  0  0  2  0  0  0  0  0  0
  191.8320  168.3480  142.1640 O   0  0  0  0  0  0  0  0  0  0  0  0
  190.8160  170.2780  141.0950 C   0  0  2  0  0  3  0  0  0  0  0  0
  193.8540  169.3980  141.3650 C   0  0  1  0  0  3  0  0  0  0  0  0
  192.9440  168.1670  141.3340 C   0  0  0  0  0  2  0  0  0  0  0  0
  192.0190  170.7290  140.4940 O   0  0  0  0  0  0  0  0  0  0  0  0
  193.0560  170.7010  141.4470 C   0  0  0  0  0  2  0  0  0  0  0  0
  194.7130  169.3170  142.4640 O   0  0  0  0  0  0  0  0  0  0  0  0
  194.0320  170.3980  144.4650 C   0  0  0  0  0  3  0  0  0  0  0  0
  196.4840  171.6860  142.0680 O   0  0  0  0  0  0  0  0  0  0  0  0
  196.1770  170.7750  145.5460 C   0  0  0  0  0  0  0  0  0  0  0  0
  194.7480  170.4580  145.5890 C   0  0  0  0  0  3  0  0  0  0  0  0
  196.8690  170.7230  146.5950 O   0  0  0  0  0  0  0  0  0  0  0  0
  196.7720  171.1800  144.3160 N   0  0  0  0  0  2  0  0  0  0  0  0
  195.9950  171.1970  143.1200 C   0  0  0  0  0  0  0  0  0  0  0  0
  194.6290  170.5670  143.0890 C   0  0  1  0  0  3  0  0  0  0  0  0
  191.6810  173.6340  142.1640 O   0  0  0  0  0  0  0  0  0  0  0  0
  191.9530  174.5420  141.1280 C   0  0  0  0  0  2  0  0  0  0  0  0
  194.3510  175.6270  140.0160 O   0  0  0  0  0  0  0  0  0  0  0  0
  192.7840  173.8970  140.1220 N   0  0  0  0  0  2  0  0  0  0  0  0
  193.9610  174.5100  139.5860 C   0  0  0  0  0  0  0  0  0  0  0  0
  196.0260  173.6460  138.8420 F   0  0  0  0  0  0  0  0  0  0  0  0
  194.7080  173.8480  138.4780 C   0  0  1  0  0  3  0  0  0  0  0  0
  194.0680  172.5170  138.1460 C   0  0  0  0  0  1  0  0  0  0  0  0
  189.5350  174.8660  141.9690 C   0  0  0  0  0  2  0  0  0  0  0  0
  188.7930  176.6290  147.1030 N   0  0  0  0  0  0  0  0  0  0  0  0
  189.6590  175.7170  146.7440 C   0  0  0  0  0  0  0  0  0  0  0  0
  188.3890  176.9710  142.9640 C   0  0  0  0  0  0  0  0  0  0  0  0
  185.5670  178.4420  146.8290 N   0  0  0  0  0  2  0  0  0  0  0  0
  188.1490  177.4070  141.8060 O   0  0  0  0  0  0  0  0  0  0  0  0
  187.1470  176.8410  145.1050 C   0  0  1  0  0  3  0  0  0  0  0  0
  187.9020  177.7540  144.1440 C   0  0  0  0  0  2  0  0  0  0  0  0
  187.5650  177.1140  146.5290 C   0  0  0  0  0  0  0  0  0  0  0  0
  186.8060  177.8990  147.3000 C   0  0  0  0  0  3  0  0  0  0  0  0
  185.6350  176.9570  144.8950 C   0  0  0  0  0  2  0  0  0  0  0  0
  189.5640  174.8410  145.5610 C   0  0  0  0  0  3  0  0  0  0  0  0
  185.1350  178.2890  145.4440 C   0  0  0  0  0  2  0  0  0  0  0  0
  189.3840  175.2700  144.3460 C   0  0  0  0  0  0  0  0  0  0  0  0
  189.1480  175.7150  143.1400 C   0  0  0  0  0  0  0  0  0  0  0  0
  190.7670  175.4120  147.6890 C   0  0  0  0  0  2  0  0  0  0  0  0
  191.8770  176.3190  147.4610 N   0  0  0  0  0  2  0  0  0  0  0  0
  192.8160  175.6110  146.6110 C   0  0  0  0  0  2  0  0  0  0  0  0
  194.1070  176.4060  146.5070 C   0  0  0  0  0  2  0  0  0  0  0  0
  193.5570  176.7800  144.1410 N   0  0  0  0  0  1  0  0  0  0  0  0
  194.6300  176.4830  145.0750 C   0  0  2  0  0  3  0  0  0  0  0  0
  195.7490  174.1330  145.7900 O   0  0  0  0  0  0  0  0  0  0  0  0
  194.6350  174.2300  143.6090 O   0  0  0  0  0  0  0  0  0  0  0  0
  195.4880  174.9930  144.5840 S   0  0  0  0  0  0  0  0  0  0  0  0
  197.0330  175.4250  143.8020 C   0  0  0  0  0  2  0  0  0  0  0  0
  196.6320  176.7180  141.8370 O   0  0  0  0  0  1  0  0  0  0  0  0
  196.9650  176.8130  143.1880 C   0  0  0  0  0  2  0  0  0  0  0  0
  1 29  1  6  0  0  0
  2  3  1  6  0  0  0
  2  4  1  0  0  0  0
  2  1  1  0  0  0  0
  5  6  1  0  0  0  0
  7  5  1  0  0  0  0
  7  4  1  1  0  0  0
  8 11  1  0  0  0  0
  8 12  1  1  0  0  0
  9  8  1  0  0  0  0
  9  6  1  0  0  0  0
 10  7  1  0  0  0  0
 10 11  1  0  0  0  0
 13 16  2  0  0  0  0
 14 19  2  0  0  0  0
 15 16  1  0  0  0  0
 15 17  2  0  0  0  0
 18 15  1  0  0  0  0
 19 18  1  0  0  0  0
 20 12  1  1  0  0  0
 20 19  1  0  0  0  0
 20 13  1  0  0  0  0
 21  1  1  0  0  0  0
 22 21  1  0  0  0  0
 24 22  1  0  0  0  0
 25 23  2  0  0  0  0
 25 24  1  0  0  0  0
 27 28  1  1  0  0  0
 27 26  1  0  0  0  0
 27 25  1  0  0  0  0
 29 43  1  0  0  0  0
 31 30  2  0  0  0  0
 31 44  1  0  0  0  0
 32 43  1  0  0  0  0
 32 36  1  0  0  0  0
 33 38  1  0  0  0  0
 34 32  2  0  0  0  0
 35 36  1  6  0  0  0
 35 37  1  0  0  0  0
 37 30  1  0  0  0  0
 37 38  2  0  0  0  0
 39 35  1  0  0  0  0
 39 41  1  0  0  0  0
 40 31  1  0  0  0  0
 41 33  1  0  0  0  0
 42 40  2  0  0  0  0
 43 42  2  0  0  0  0
 45 44  1  0  0  0  0
 46 45  1  0  0  0  0
 47 46  1  0  0  0  0
 49 48  1  6  0  0  0
 49 47  1  0  0  0  0
 51 52  2  0  0  0  0
 52 49  1  0  0  0  0
 52 50  2  0  0  0  0
 53 52  1  0  0  0  0
 54 55  1  0  0  0  0
 55 53  1  0  0  0  0
M  END
>  <MODEL>
5

>  <REMARK>
 VINA RESULT:      -6.1      2.459      4.753
  Name = 
  19 active torsions:
  status: ('A' for Active; 'I' for Inactive)
    1  A    between atoms: C_2  and  C_5
    2  A    between atoms: C_2  and  C_18
    3  A    between atoms: C_5  and  C_17
    4  A    between atoms: C_7  and  C_26
    5  A    between atoms: C_9  and  N_16
    6  A    between atoms: C_9  and  O_47
    7  A    between atoms: C_18  and  O_47
    8  A    between atoms: C_18  and  C_49
    9  A    between atoms: C_21  and  S_30
   10  A    between atoms: C_21  and  C_32
   11  A    between atoms: C_23  and  S_30
   12  A    between atoms: C_23  and  C_41
   13  A    between atoms: C_26  and  N_55
   14  A    between atoms: C_27  and  C_32
   15  A    between atoms: C_27  and  N_55
   16  A    between atoms: C_31  and  O_43
   17  A    between atoms: C_37  and  C_51
   18  A    between atoms: O_43  and  C_54
   19  A    between atoms: C_44  and  C_49
                            x       y       z     vdW  Elec       q    Type
                         _______ _______ _______ _____ _____    ______ ____

>  <TORSDO>
F 19

$$$$
=
 OpenBabel11062418373D

 55 58  0  0  1  0  0  0  0  0999 V2000
  189.4060  174.3510  142.0550 C   0  0  1  0  0  3  0  0  0  0  0  0
  189.8860  173.1000  142.8020 C   0  0  1  0  0  3  0  0  0  0  0  0
  188.8360  172.2590  143.1750 O   0  0  0  0  0  1  0  0  0  0  0  0
  190.9900  172.3380  142.0690 C   0  0  0  0  0  2  0  0  0  0  0  0
  192.8120  170.7990  142.9800 C   0  0  0  0  0  2  0  0  0  0  0  0
  193.5480  170.6680  141.7940 O   0  0  0  0  0  0  0  0  0  0  0  0
  191.3130  170.9730  142.6960 C   0  0  2  0  0  3  0  0  0  0  0  0
  192.4090  169.0170  140.4500 C   0  0  1  0  0  3  0  0  0  0  0  0
  193.5010  169.3040  141.4840 C   0  0  0  0  0  2  0  0  0  0  0  0
  190.7570  169.8610  142.0160 O   0  0  0  0  0  0  0  0  0  0  0  0
  191.1670  169.8830  140.6690 C   0  0  0  0  0  2  0  0  0  0  0  0
  192.9090  169.2500  139.1660 O   0  0  0  0  0  0  0  0  0  0  0  0
  192.7530  171.4280  138.2360 C   0  0  0  0  0  3  0  0  0  0  0  0
  190.4730  168.6450  137.5510 O   0  0  0  0  0  0  0  0  0  0  0  0
  192.7050  170.9190  135.8580 C   0  0  0  0  0  0  0  0  0  0  0  0
  193.1000  171.7600  136.9910 C   0  0  0  0  0  3  0  0  0  0  0  0
  193.1260  171.1770  134.7020 O   0  0  0  0  0  0  0  0  0  0  0  0
  191.8110  169.8310  136.0680 N   0  0  0  0  0  2  0  0  0  0  0  0
  191.3680  169.5150  137.3880 C   0  0  0  0  0  0  0  0  0  0  0  0
  192.0160  170.1570  138.5830 C   0  0  1  0  0  3  0  0  0  0  0  0
  189.7510  174.4060  140.6830 O   0  0  0  0  0  0  0  0  0  0  0  0
  188.5910  174.2890  139.8990 C   0  0  0  0  0  2  0  0  0  0  0  0
  188.8950  171.7510  138.6220 O   0  0  0  0  0  0  0  0  0  0  0  0
  188.9650  174.0830  138.5070 N   0  0  0  0  0  2  0  0  0  0  0  0
  189.1270  172.7810  137.9370 C   0  0  0  0  0  0  0  0  0  0  0  0
  188.9460  171.6130  135.8950 F   0  0  0  0  0  0  0  0  0  0  0  0
  189.6190  172.6360  136.5370 C   0  0  1  0  0  3  0  0  0  0  0  0
  189.4090  173.9290  135.7790 C   0  0  0  0  0  1  0  0  0  0  0  0
  187.9490  174.7190  142.3620 C   0  0  0  0  0  2  0  0  0  0  0  0
  188.7470  177.4680  147.0330 N   0  0  0  0  0  0  0  0  0  0  0  0
  189.5480  176.5490  146.5610 C   0  0  0  0  0  0  0  0  0  0  0  0
  186.9520  176.9200  143.3060 C   0  0  0  0  0  0  0  0  0  0  0  0
  185.4180  179.0110  147.5890 N   0  0  0  0  0  2  0  0  0  0  0  0
  186.2900  177.0930  142.2480 O   0  0  0  0  0  0  0  0  0  0  0  0
  186.5170  177.1730  145.7320 C   0  0  1  0  0  3  0  0  0  0  0  0
  186.7940  177.9050  144.4240 C   0  0  0  0  0  2  0  0  0  0  0  0
  187.3480  177.7580  146.8480 C   0  0  0  0  0  0  0  0  0  0  0  0
  186.7990  178.6440  147.6850 C   0  0  0  0  0  3  0  0  0  0  0  0
  185.0190  177.1620  146.0480 C   0  0  0  0  0  2  0  0  0  0  0  0
  189.1730  175.4420  145.6610 C   0  0  0  0  0  3  0  0  0  0  0  0
  184.5730  178.5500  146.4930 C   0  0  0  0  0  2  0  0  0  0  0  0
  188.5490  175.5990  144.5300 C   0  0  0  0  0  0  0  0  0  0  0  0
  187.8730  175.7700  143.4250 C   0  0  0  0  0  0  0  0  0  0  0  0
  190.9360  176.5060  147.0970 C   0  0  0  0  0  2  0  0  0  0  0  0
  191.4830  175.1700  146.9490 N   0  0  0  0  0  2  0  0  0  0  0  0
  192.8660  175.3360  146.5450 C   0  0  0  0  0  2  0  0  0  0  0  0
  192.9450  175.4430  145.0310 C   0  0  0  0  0  2  0  0  0  0  0  0
  194.2890  173.4080  145.3360 N   0  0  0  0  0  1  0  0  0  0  0  0
  193.5030  174.1770  144.3850 C   0  0  2  0  0  3  0  0  0  0  0  0
  195.3030  173.3330  142.5600 O   0  0  0  0  0  0  0  0  0  0  0  0
  193.5360  174.8440  141.7820 O   0  0  0  0  0  0  0  0  0  0  0  0
  194.4660  174.5290  142.9200 S   0  0  0  0  0  0  0  0  0  0  0  0
  195.5190  175.9370  143.2250 C   0  0  0  0  0  2  0  0  0  0  0  0
  197.2220  174.8570  144.5010 O   0  0  0  0  0  1  0  0  0  0  0  0
  196.9780  175.5230  143.2990 C   0  0  0  0  0  2  0  0  0  0  0  0
  1 29  1  6  0  0  0
  1  2  1  0  0  0  0
  2  3  1  6  0  0  0
  4  2  1  0  0  0  0
  6  5  1  0  0  0  0
  7  4  1  6  0  0  0
  7  5  1  0  0  0  0
  8 12  1  6  0  0  0
  8 11  1  0  0  0  0
  8  9  1  0  0  0  0
  9  6  1  0  0  0  0
 10  7  1  0  0  0  0
 11 10  1  0  0  0  0
 13 20  1  0  0  0  0
 15 18  1  0  0  0  0
 15 16  1  0  0  0  0
 16 13  2  0  0  0  0
 17 15  2  0  0  0  0
 18 19  1  0  0  0  0
 19 14  2  0  0  0  0
 19 20  1  0  0  0  0
 20 12  1  6  0  0  0
 21  1  1  0  0  0  0
 22 21  1  0  0  0  0
 24 22  1  0  0  0  0
 25 24  1  0  0  0  0
 25 23  2  0  0  0  0
 26 27  1  0  0  0  0
 27 28  1  6  0  0  0
 27 25  1  0  0  0  0
 29 43  1  0  0  0  0
 31 30  2  0  0  0  0
 31 44  1  0  0  0  0
 32 43  1  0  0  0  0
 32 36  1  0  0  0  0
 33 38  1  0  0  0  0
 34 32  2  0  0  0  0
 35 36  1  6  0  0  0
 35 39  1  0  0  0  0
 35 37  1  0  0  0  0
 37 30  1  0  0  0  0
 37 38  2  0  0  0  0
 39 41  1  0  0  0  0
 40 31  1  0  0  0  0
 41 33  1  0  0  0  0
 42 40  2  0  0  0  0
 43 42  2  0  0  0  0
 45 44  1  0  0  0  0
 46 45  1  0  0  0  0
 47 46  1  0  0  0  0
 49 47  1  0  0  0  0
 49 48  1  1  0  0  0
 50 52  2  0  0  0  0
 51 52  2  0  0  0  0
 52 53  1  0  0  0  0
 52 49  1  0  0  0  0
 53 55  1  0  0  0  0
 55 54  1  0  0  0  0
M  END
>  <MODEL>
6

>  <REMARK>
 VINA RESULT:      -6.0      2.685      4.568
  Name = 
  19 active torsions:
  status: ('A' for Active; 'I' for Inactive)
    1  A    between atoms: C_2  and  C_5
    2  A    between atoms: C_2  and  C_18
    3  A    between atoms: C_5  and  C_17
    4  A    between atoms: C_7  and  C_26
    5  A    between atoms: C_9  and  N_16
    6  A    between atoms: C_9  and  O_47
    7  A    between atoms: C_18  and  O_47
    8  A    between atoms: C_18  and  C_49
    9  A    between atoms: C_21  and  S_30
   10  A    between atoms: C_21  and  C_32
   11  A    between atoms: C_23  and  S_30
   12  A    between atoms: C_23  and  C_41
   13  A    between atoms: C_26  and  N_55
   14  A    between atoms: C_27  and  C_32
   15  A    between atoms: C_27  and  N_55
   16  A    between atoms: C_31  and  O_43
   17  A    between atoms: C_37  and  C_51
   18  A    between atoms: O_43  and  C_54
   19  A    between atoms: C_44  and  C_49
                            x       y       z     vdW  Elec       q    Type
                         _______ _______ _______ _____ _____    ______ ____

>  <TORSDO>
F 19

$$$$
=
 OpenBabel11062418373D

 55 58  0  0  1  0  0  0  0  0999 V2000
  189.4390  174.2360  142.2050 C   0  0  1  0  0  3  0  0  0  0  0  0
  189.8090  172.9850  143.0130 C   0  0  1  0  0  3  0  0  0  0  0  0
  188.9010  171.9390  142.8350 O   0  0  0  0  0  1  0  0  0  0  0  0
  191.2510  172.5250  142.7990 C   0  0  0  0  0  2  0  0  0  0  0  0
  192.6860  170.5840  143.6320 C   0  0  0  0  0  2  0  0  0  0  0  0
  193.8510  170.9020  142.9210 O   0  0  0  0  0  0  0  0  0  0  0  0
  191.4240  171.0000  142.8620 C   0  0  2  0  0  3  0  0  0  0  0  0
  193.5320  170.0910  140.6690 C   0  0  1  0  0  3  0  0  0  0  0  0
  194.0710  169.8090  142.0750 C   0  0  0  0  0  2  0  0  0  0  0  0
  191.3080  170.3380  141.6140 O   0  0  0  0  0  0  0  0  0  0  0  0
  192.2290  170.8920  140.7030 C   0  0  0  0  0  2  0  0  0  0  0  0
  194.4870  170.8000  139.9360 O   0  0  0  0  0  0  0  0  0  0  0  0
  194.2680  173.1600  139.8180 C   0  0  0  0  0  3  0  0  0  0  0  0
  193.2860  170.7910  137.2040 O   0  0  0  0  0  0  0  0  0  0  0  0
  195.4390  173.6360  137.7410 C   0  0  0  0  0  0  0  0  0  0  0  0
  195.0590  173.9720  139.1140 C   0  0  0  0  0  3  0  0  0  0  0  0
  196.2710  174.3480  137.1210 O   0  0  0  0  0  0  0  0  0  0  0  0
  194.8330  172.5190  137.0960 N   0  0  0  0  0  2  0  0  0  0  0  0
  193.9220  171.6890  137.8150 C   0  0  0  0  0  0  0  0  0  0  0  0
  193.7770  171.8280  139.3050 C   0  0  1  0  0  3  0  0  0  0  0  0
  189.9020  174.2520  140.8690 O   0  0  0  0  0  0  0  0  0  0  0  0
  188.8110  174.1570  139.9890 C   0  0  0  0  0  2  0  0  0  0  0  0
  190.0400  173.9920  137.4150 O   0  0  0  0  0  0  0  0  0  0  0  0
  188.9350  172.9470  139.1890 N   0  0  0  0  0  2  0  0  0  0  0  0
  189.5390  172.9400  137.8920 C   0  0  0  0  0  0  0  0  0  0  0  0
  190.5540  171.7300  136.1390 F   0  0  0  0  0  0  0  0  0  0  0  0
  189.5370  171.6930  137.0750 C   0  0  1  0  0  3  0  0  0  0  0  0
  189.7240  170.4870  137.9710 C   0  0  0  0  0  1  0  0  0  0  0  0
  187.9750  174.6580  142.3790 C   0  0  0  0  0  2  0  0  0  0  0  0
  188.6590  177.5170  147.0020 N   0  0  0  0  0  0  0  0  0  0  0  0
  189.5190  176.6560  146.5220 C   0  0  0  0  0  0  0  0  0  0  0  0
  186.8320  176.7890  143.3220 C   0  0  0  0  0  0  0  0  0  0  0  0
  185.2350  178.8090  147.6160 N   0  0  0  0  0  2  0  0  0  0  0  0
  186.1370  176.8970  142.2770 O   0  0  0  0  0  0  0  0  0  0  0  0
  186.4320  177.0370  145.7550 C   0  0  1  0  0  3  0  0  0  0  0  0
  186.6230  177.7720  144.4320 C   0  0  0  0  0  2  0  0  0  0  0  0
  187.2390  177.6970  146.8450 C   0  0  0  0  0  0  0  0  0  0  0  0
  186.6420  178.5490  147.6850 C   0  0  0  0  0  3  0  0  0  0  0  0
  184.9460  176.9160  146.1030 C   0  0  0  0  0  2  0  0  0  0  0  0
  189.2090  175.5130  145.6420 C   0  0  0  0  0  3  0  0  0  0  0  0
  184.4040  178.2720  146.5430 C   0  0  0  0  0  2  0  0  0  0  0  0
  188.5510  175.6070  144.5240 C   0  0  0  0  0  0  0  0  0  0  0  0
  187.8410  175.7140  143.4330 C   0  0  0  0  0  0  0  0  0  0  0  0
  190.9160  176.7250  147.0280 C   0  0  0  0  0  2  0  0  0  0  0  0
  191.5460  175.4210  146.9230 N   0  0  0  0  0  2  0  0  0  0  0  0
  192.9150  175.6600  146.5080 C   0  0  0  0  0  2  0  0  0  0  0  0
  193.0030  175.6130  144.9920 C   0  0  0  0  0  2  0  0  0  0  0  0
  194.0970  173.4530  145.4140 N   0  0  0  0  0  1  0  0  0  0  0  0
  194.0130  174.5790  144.4980 C   0  0  2  0  0  3  0  0  0  0  0  0
  195.6190  176.7460  144.5880 O   0  0  0  0  0  0  0  0  0  0  0  0
  196.6330  174.5730  145.0940 O   0  0  0  0  0  0  0  0  0  0  0  0
  195.6330  175.2860  144.2280 S   0  0  0  0  0  0  0  0  0  0  0  0
  196.0900  175.0870  142.5140 C   0  0  0  0  0  2  0  0  0  0  0  0
  194.9870  176.7910  141.2600 O   0  0  0  0  0  1  0  0  0  0  0  0
  196.2130  176.4330  141.8220 C   0  0  0  0  0  2  0  0  0  0  0  0
  1 29  1  6  0  0  0
  1  2  1  0  0  0  0
  2  3  1  6  0  0  0
  4  2  1  0  0  0  0
  6  5  1  0  0  0  0
  7  4  1  6  0  0  0
  7  5  1  0  0  0  0
  8 12  1  6  0  0  0
  8 11  1  0  0  0  0
  8  9  1  0  0  0  0
  9  6  1  0  0  0  0
 10  7  1  0  0  0  0
 11 10  1  0  0  0  0
 14 19  2  0  0  0  0
 15 16  1  0  0  0  0
 16 13  2  0  0  0  0
 17 15  2  0  0  0  0
 18 15  1  0  0  0  0
 18 19  1  0  0  0  0
 19 20  1  0  0  0  0
 20 13  1  0  0  0  0
 20 12  1  1  0  0  0
 21  1  1  0  0  0  0
 22 21  1  0  0  0  0
 23 25  2  0  0  0  0
 24 22  1  0  0  0  0
 25 24  1  0  0  0  0
 26 27  1  0  0  0  0
 27 25  1  0  0  0  0
 27 28  1  1  0  0  0
 29 43  1  0  0  0  0
 31 30  2  0  0  0  0
 31 44  1  0  0  0  0
 32 43  1  0  0  0  0
 32 36  1  0  0  0  0
 33 38  1  0  0  0  0
 34 32  2  0  0  0  0
 35 36  1  6  0  0  0
 35 39  1  0  0  0  0
 35 37  1  0  0  0  0
 37 30  1  0  0  0  0
 37 38  2  0  0  0  0
 39 41  1  0  0  0  0
 40 31  1  0  0  0  0
 41 33  1  0  0  0  0
 42 40  2  0  0  0  0
 43 42  2  0  0  0  0
 45 44  1  0  0  0  0
 46 45  1  0  0  0  0
 47 46  1  0  0  0  0
 49 47  1  0  0  0  0
 49 48  1  1  0  0  0
 52 49  1  0  0  0  0
 52 50  2  0  0  0  0
 52 51  2  0  0  0  0
 53 52  1  0  0  0  0
 54 55  1  0  0  0  0
 55 53  1  0  0  0  0
M  END
>  <MODEL>
7

>  <REMARK>
 VINA RESULT:      -6.0      2.325      4.006
  Name = 
  19 active torsions:
  status: ('A' for Active; 'I' for Inactive)
    1  A    between atoms: C_2  and  C_5
    2  A    between atoms: C_2  and  C_18
    3  A    between atoms: C_5  and  C_17
    4  A    between atoms: C_7  and  C_26
    5  A    between atoms: C_9  and  N_16
    6  A    between atoms: C_9  and  O_47
    7  A    between atoms: C_18  and  O_47
    8  A    between atoms: C_18  and  C_49
    9  A    between atoms: C_21  and  S_30
   10  A    between atoms: C_21  and  C_32
   11  A    between atoms: C_23  and  S_30
   12  A    between atoms: C_23  and  C_41
   13  A    between atoms: C_26  and  N_55
   14  A    between atoms: C_27  and  C_32
   15  A    between atoms: C_27  and  N_55
   16  A    between atoms: C_31  and  O_43
   17  A    between atoms: C_37  and  C_51
   18  A    between atoms: O_43  and  C_54
   19  A    between atoms: C_44  and  C_49
                            x       y       z     vdW  Elec       q    Type
                         _______ _______ _______ _____ _____    ______ ____

>  <TORSDO>
F 19

$$$$
=
 OpenBabel11062418373D

 55 58  0  0  1  0  0  0  0  0999 V2000
  193.5360  175.5080  144.5050 C   0  0  1  0  0  3  0  0  0  0  0  0
  193.5720  175.6270  146.0350 C   0  0  1  0  0  3  0  0  0  0  0  0
  194.8720  175.7140  146.5380 O   0  0  0  0  0  1  0  0  0  0  0  0
  192.6770  176.7390  146.5820 C   0  0  0  0  0  2  0  0  0  0  0  0
  191.1130  174.8540  147.3020 C   0  0  0  0  0  2  0  0  0  0  0  0
  190.2710  174.8800  146.1830 O   0  0  0  0  0  0  0  0  0  0  0  0
  191.6620  176.2500  147.6260 C   0  0  2  0  0  3  0  0  0  0  0  0
  188.7200  176.6990  146.5230 C   0  0  1  0  0  3  0  0  0  0  0  0
  189.0050  175.2030  146.6850 C   0  0  0  0  0  2  0  0  0  0  0  0
  190.6360  177.1780  147.9360 O   0  0  0  0  0  0  0  0  0  0  0  0
  189.9700  177.5500  146.7520 C   0  0  0  0  0  2  0  0  0  0  0  0
  188.2280  176.9440  145.2380 O   0  0  0  0  0  0  0  0  0  0  0  0
  186.3050  177.7920  146.3420 C   0  0  0  0  0  3  0  0  0  0  0  0
  186.3200  176.0150  143.1390 O   0  0  0  0  0  0  0  0  0  0  0  0
  185.3290  179.1670  144.5900 C   0  0  0  0  0  0  0  0  0  0  0  0
  185.6430  178.8970  145.9950 C   0  0  0  0  0  3  0  0  0  0  0  0
  184.8030  180.2600  144.2580 O   0  0  0  0  0  0  0  0  0  0  0  0
  185.5860  178.1690  143.6070 N   0  0  0  0  0  2  0  0  0  0  0  0
  186.2220  176.9470  143.9810 C   0  0  0  0  0  0  0  0  0  0  0  0
  186.8400  176.7950  145.3430 C   0  0  1  0  0  3  0  0  0  0  0  0
  192.6470  176.3940  143.8510 O   0  0  0  0  0  0  0  0  0  0  0  0
  192.1790  175.8040  142.6660 C   0  0  0  0  0  2  0  0  0  0  0  0
  190.8930  173.9440  140.9190 O   0  0  0  0  0  0  0  0  0  0  0  0
  190.9040  175.1490  142.9200 N   0  0  0  0  0  2  0  0  0  0  0  0
  190.3010  174.2470  141.9880 C   0  0  0  0  0  0  0  0  0  0  0  0
  188.2130  173.6240  141.0830 F   0  0  0  0  0  0  0  0  0  0  0  0
  188.9420  173.6950  142.2560 C   0  0  1  0  0  3  0  0  0  0  0  0
  189.0550  172.3120  142.8610 C   0  0  0  0  0  1  0  0  0  0  0  0
  194.9290  175.4170  143.8710 C   0  0  0  0  0  2  0  0  0  0  0  0
  194.8480  170.1390  142.4050 N   0  0  0  0  0  0  0  0  0  0  0  0
  194.0940  171.0720  141.8830 C   0  0  0  0  0  0  0  0  0  0  0  0
  196.5930  173.4590  144.2340 C   0  0  0  0  0  0  0  0  0  0  0  0
  196.7180  168.5450  145.1860 N   0  0  0  0  0  2  0  0  0  0  0  0
  197.4030  174.2340  144.8090 O   0  0  0  0  0  0  0  0  0  0  0  0
  195.7670  171.1540  144.6130 C   0  0  1  0  0  3  0  0  0  0  0  0
  196.9360  172.0050  144.1290 C   0  0  0  0  0  2  0  0  0  0  0  0
  195.5280  170.0030  143.6670 C   0  0  0  0  0  0  0  0  0  0  0  0
  196.0190  168.7940  143.9610 C   0  0  0  0  0  3  0  0  0  0  0  0
  195.9830  170.7020  146.0590 C   0  0  0  0  0  2  0  0  0  0  0  0
  193.6770  172.3260  142.5380 C   0  0  0  0  0  3  0  0  0  0  0  0
  197.0570  169.6210  146.1110 C   0  0  0  0  0  2  0  0  0  0  0  0
  194.4990  173.1770  143.0800 C   0  0  0  0  0  0  0  0  0  0  0  0
  195.3350  173.9910  143.6680 C   0  0  0  0  0  0  0  0  0  0  0  0
  193.4590  170.7850  140.5680 C   0  0  0  0  0  2  0  0  0  0  0  0
  193.0760  169.3860  140.4970 N   0  0  0  0  0  2  0  0  0  0  0  0
  191.7490  169.3540  139.9120 C   0  0  0  0  0  2  0  0  0  0  0  0
  191.2550  170.7730  139.6910 C   0  0  0  0  0  2  0  0  0  0  0  0
  189.6880  169.5770  138.2250 N   0  0  0  0  0  1  0  0  0  0  0  0
  190.2680  170.8740  138.5310 C   0  0  2  0  0  3  0  0  0  0  0  0
  192.4520  171.9160  137.3360 O   0  0  0  0  0  0  0  0  0  0  0  0
  190.9280  170.5970  135.9410 O   0  0  0  0  0  0  0  0  0  0  0  0
  191.0090  171.5870  137.0690 S   0  0  0  0  0  0  0  0  0  0  0  0
  190.1230  173.0690  136.6150 C   0  0  0  0  0  2  0  0  0  0  0  0
  188.1810  173.6140  137.8890 O   0  0  0  0  0  1  0  0  0  0  0  0
  189.5660  173.7710  137.8410 C   0  0  0  0  0  2  0  0  0  0  0  0
  1 29  1  6  0  0  0
  1  2  1  0  0  0  0
  2  3  1  6  0  0  0
  2  4  1  0  0  0  0
  5  7  1  0  0  0  0
  6  9  1  0  0  0  0
  6  5  1  0  0  0  0
  7  4  1  6  0  0  0
  7 10  1  0  0  0  0
  8 12  1  6  0  0  0
  8  9  1  0  0  0  0
  8 11  1  0  0  0  0
 11 10  1  0  0  0  0
 14 19  2  0  0  0  0
 15 16  1  0  0  0  0
 16 13  2  0  0  0  0
 17 15  2  0  0  0  0
 18 19  1  0  0  0  0
 18 15  1  0  0  0  0
 19 20  1  0  0  0  0
 20 12  1  6  0  0  0
 20 13  1  0  0  0  0
 21  1  1  0  0  0  0
 22 24  1  0  0  0  0
 22 21  1  0  0  0  0
 23 25  2  0  0  0  0
 25 27  1  0  0  0  0
 25 24  1  0  0  0  0
 26 27  1  0  0  0  0
 27 28  1  6  0  0  0
 30 37  1  0  0  0  0
 31 30  2  0  0  0  0
 31 40  1  0  0  0  0
 32 34  2  0  0  0  0
 33 41  1  0  0  0  0
 35 36  1  6  0  0  0
 35 39  1  0  0  0  0
 36 32  1  0  0  0  0
 37 38  2  0  0  0  0
 37 35  1  0  0  0  0
 38 33  1  0  0  0  0
 39 41  1  0  0  0  0
 40 42  2  0  0  0  0
 42 43  2  0  0  0  0
 43 29  1  0  0  0  0
 43 32  1  0  0  0  0
 44 31  1  0  0  0  0
 45 44  1  0  0  0  0
 46 45  1  0  0  0  0
 47 46  1  0  0  0  0
 49 48  1  6  0  0  0
 49 47  1  0  0  0  0
 51 52  2  0  0  0  0
 52 50  2  0  0  0  0
 52 49  1  0  0  0  0
 53 52  1  0  0  0  0
 53 55  1  0  0  0  0
 55 54  1  0  0  0  0
M  END
>  <MODEL>
8

>  <REMARK>
 VINA RESULT:      -5.9      3.232      9.412
  Name = 
  19 active torsions:
  status: ('A' for Active; 'I' for Inactive)
    1  A    between atoms: C_2  and  C_5
    2  A    between atoms: C_2  and  C_18
    3  A    between atoms: C_5  and  C_17
    4  A    between atoms: C_7  and  C_26
    5  A    between atoms: C_9  and  N_16
    6  A    between atoms: C_9  and  O_47
    7  A    between atoms: C_18  and  O_47
    8  A    between atoms: C_18  and  C_49
    9  A    between atoms: C_21  and  S_30
   10  A    between atoms: C_21  and  C_32
   11  A    between atoms: C_23  and  S_30
   12  A    between atoms: C_23  and  C_41
   13  A    between atoms: C_26  and  N_55
   14  A    between atoms: C_27  and  C_32
   15  A    between atoms: C_27  and  N_55
   16  A    between atoms: C_31  and  O_43
   17  A    between atoms: C_37  and  C_51
   18  A    between atoms: O_43  and  C_54
   19  A    between atoms: C_44  and  C_49
                            x       y       z     vdW  Elec       q    Type
                         _______ _______ _______ _____ _____    ______ ____

>  <TORSDO>
F 19

$$$$
=
 OpenBabel11062418373D

 55 58  0  0  1  0  0  0  0  0999 V2000
  193.7060  175.0390  144.9000 C   0  0  1  0  0  3  0  0  0  0  0  0
  192.7690  173.9740  144.3150 C   0  0  1  0  0  3  0  0  0  0  0  0
  192.7940  172.7790  145.0370 O   0  0  0  0  0  1  0  0  0  0  0  0
  191.3410  174.4730  144.0950 C   0  0  0  0  0  2  0  0  0  0  0  0
  191.6630  176.5530  142.6500 C   0  0  0  0  0  2  0  0  0  0  0  0
  190.8890  177.4310  143.4220 O   0  0  0  0  0  0  0  0  0  0  0  0
  191.1230  175.1180  142.7180 C   0  0  2  0  0  3  0  0  0  0  0  0
  188.5830  177.0180  142.8380 C   0  0  1  0  0  3  0  0  0  0  0  0
  189.8490  177.8390  142.5780 C   0  0  0  0  0  2  0  0  0  0  0  0
  189.8010  175.0120  142.2150 O   0  0  0  0  0  0  0  0  0  0  0  0
  188.9000  175.5550  143.1520 C   0  0  0  0  0  2  0  0  0  0  0  0
  187.8770  177.5740  143.9080 O   0  0  0  0  0  0  0  0  0  0  0  0
  186.3570  176.6490  145.4790 C   0  0  0  0  0  3  0  0  0  0  0  0
  185.6250  177.3570  141.9610 O   0  0  0  0  0  0  0  0  0  0  0  0
  184.4860  178.1900  145.2830 C   0  0  0  0  0  0  0  0  0  0  0  0
  185.3580  177.3120  146.0660 C   0  0  0  0  0  3  0  0  0  0  0  0
  183.6170  178.8950  145.8570 O   0  0  0  0  0  0  0  0  0  0  0  0
  184.6010  178.2120  143.8630 N   0  0  0  0  0  2  0  0  0  0  0  0
  185.6160  177.4440  143.2170 C   0  0  0  0  0  0  0  0  0  0  0  0
  186.7140  176.8030  144.0210 C   0  0  1  0  0  3  0  0  0  0  0  0
  193.8820  174.9860  146.3030 O   0  0  0  0  0  0  0  0  0  0  0  0
  193.6200  176.2480  146.8610 C   0  0  0  0  0  2  0  0  0  0  0  0
  191.5410  175.0990  148.4490 O   0  0  0  0  0  0  0  0  0  0  0  0
  192.2010  176.5480  146.7390 N   0  0  0  0  0  2  0  0  0  0  0  0
  191.2070  175.9140  147.5500 C   0  0  0  0  0  0  0  0  0  0  0  0
  189.6060  176.9910  146.1920 F   0  0  0  0  0  0  0  0  0  0  0  0
  189.7610  176.1800  147.3010 C   0  0  1  0  0  3  0  0  0  0  0  0
  189.0260  174.8750  147.0760 C   0  0  0  0  0  1  0  0  0  0  0  0
  195.0030  175.2090  144.1000 C   0  0  0  0  0  2  0  0  0  0  0  0
  196.9190  170.3930  142.3260 N   0  0  0  0  0  0  0  0  0  0  0  0
  196.3880  171.3130  141.5630 C   0  0  0  0  0  0  0  0  0  0  0  0
  196.5840  173.4420  145.1550 C   0  0  0  0  0  0  0  0  0  0  0  0
  197.2610  168.4930  145.4960 N   0  0  0  0  0  2  0  0  0  0  0  0
  196.7500  174.1730  146.1680 O   0  0  0  0  0  0  0  0  0  0  0  0
  196.2260  171.0240  144.7490 C   0  0  1  0  0  3  0  0  0  0  0  0
  197.2430  172.0980  145.1190 C   0  0  0  0  0  2  0  0  0  0  0  0
  196.8070  170.0780  143.7270 C   0  0  0  0  0  0  0  0  0  0  0  0
  197.3120  168.9060  144.1250 C   0  0  0  0  0  3  0  0  0  0  0  0
  195.7090  170.3070  145.9990 C   0  0  0  0  0  2  0  0  0  0  0  0
  195.4140  172.3380  141.9810 C   0  0  0  0  0  3  0  0  0  0  0  0
  196.7880  169.3820  146.5500 C   0  0  0  0  0  2  0  0  0  0  0  0
  195.5900  173.1510  142.9820 C   0  0  0  0  0  0  0  0  0  0  0  0
  195.7610  173.9200  144.0240 C   0  0  0  0  0  0  0  0  0  0  0  0
  196.6600  171.2340  140.1020 C   0  0  0  0  0  2  0  0  0  0  0  0
  195.5400  170.6060  139.4230 N   0  0  0  0  0  2  0  0  0  0  0  0
  195.1500  171.5070  138.3560 C   0  0  0  0  0  2  0  0  0  0  0  0
  193.7000  171.9210  138.5430 C   0  0  0  0  0  2  0  0  0  0  0  0
  192.3740  169.8620  138.3420 N   0  0  0  0  0  1  0  0  0  0  0  0
  192.8800  170.8580  139.2710 C   0  0  2  0  0  3  0  0  0  0  0  0
  190.3690  170.6190  140.2320 O   0  0  0  0  0  0  0  0  0  0  0  0
  191.9990  171.8040  141.6280 O   0  0  0  0  0  0  0  0  0  0  0  0
  191.5380  171.5660  140.2170 S   0  0  0  0  0  0  0  0  0  0  0  0
  191.0500  173.1200  139.4880 C   0  0  0  0  0  2  0  0  0  0  0  0
  188.9460  174.1500  139.0360 O   0  0  0  0  0  1  0  0  0  0  0  0
  189.7020  173.0020  138.7990 C   0  0  0  0  0  2  0  0  0  0  0  0
  1 29  1  6  0  0  0
  1 21  1  0  0  0  0
  2  1  1  0  0  0  0
  2  3  1  1  0  0  0
  4  2  1  0  0  0  0
  5  7  1  0  0  0  0
  5  6  1  0  0  0  0
  7  4  1  1  0  0  0
  8 11  1  0  0  0  0
  8 12  1  1  0  0  0
  9  8  1  0  0  0  0
  9  6  1  0  0  0  0
 10  7  1  0  0  0  0
 10 11  1  0  0  0  0
 13 16  2  0  0  0  0
 14 19  2  0  0  0  0
 15 17  2  0  0  0  0
 15 16  1  0  0  0  0
 18 15  1  0  0  0  0
 19 18  1  0  0  0  0
 19 20  1  0  0  0  0
 20 12  1  1  0  0  0
 20 13  1  0  0  0  0
 21 22  1  0  0  0  0
 24 22  1  0  0  0  0
 24 25  1  0  0  0  0
 25 23  2  0  0  0  0
 26 27  1  0  0  0  0
 27 28  1  6  0  0  0
 27 25  1  0  0  0  0
 30 37  1  0  0  0  0
 31 40  1  0  0  0  0
 31 30  2  0  0  0  0
 32 34  2  0  0  0  0
 33 41  1  0  0  0  0
 35 36  1  1  0  0  0
 35 39  1  0  0  0  0
 36 32  1  0  0  0  0
 37 38  2  0  0  0  0
 37 35  1  0  0  0  0
 38 33  1  0  0  0  0
 39 41  1  0  0  0  0
 40 42  2  0  0  0  0
 42 43  2  0  0  0  0
 43 29  1  0  0  0  0
 43 32  1  0  0  0  0
 44 31  1  0  0  0  0
 45 44  1  0  0  0  0
 46 47  1  0  0  0  0
 46 45  1  0  0  0  0
 47 49  1  0  0  0  0
 49 48  1  6  0  0  0
 49 52  1  0  0  0  0
 52 50  2  0  0  0  0
 52 51  2  0  0  0  0
 53 52  1  0  0  0  0
 55 54  1  0  0  0  0
 55 53  1  0  0  0  0
M  END
>  <MODEL>
9

>  <REMARK>
 VINA RESULT:      -5.9      3.323      9.021
  Name = 
  19 active torsions:
  status: ('A' for Active; 'I' for Inactive)
    1  A    between atoms: C_2  and  C_5
    2  A    between atoms: C_2  and  C_18
    3  A    between atoms: C_5  and  C_17
    4  A    between atoms: C_7  and  C_26
    5  A    between atoms: C_9  and  N_16
    6  A    between atoms: C_9  and  O_47
    7  A    between atoms: C_18  and  O_47
    8  A    between atoms: C_18  and  C_49
    9  A    between atoms: C_21  and  S_30
   10  A    between atoms: C_21  and  C_32
   11  A    between atoms: C_23  and  S_30
   12  A    between atoms: C_23  and  C_41
   13  A    between atoms: C_26  and  N_55
   14  A    between atoms: C_27  and  C_32
   15  A    between atoms: C_27  and  N_55
   16  A    between atoms: C_31  and  O_43
   17  A    between atoms: C_37  and  C_51
   18  A    between atoms: O_43  and  C_54
   19  A    between atoms: C_44  and  C_49
                            x       y       z     vdW  Elec       q    Type
                         _______ _______ _______ _____ _____    ______ ____

>  <TORSDO>
F 19

$$$$
