=
 OpenBabel11062422553D

 29 31  0  0  0  0  0  0  0  0999 V2000
  192.3900  175.8340  146.8240 C   0  0  0  0  0  3  0  0  0  0  0  0
  191.7340  174.7590  146.2260 C   0  0  0  0  0  3  0  0  0  0  0  0
  189.6070  175.7760  146.7880 C   0  0  0  0  0  0  0  0  0  0  0  0
  190.3120  176.8360  147.3770 C   0  0  0  0  0  3  0  0  0  0  0  0
  191.6710  176.8420  147.3840 N   0  0  0  0  0  0  0  0  0  0  0  0
  190.3340  174.7250  146.2070 C   0  0  0  0  0  0  0  0  0  0  0  0
  189.6370  173.6320  145.5950 N   0  0  0  0  0  2  0  0  0  0  0  0
  190.2510  172.7110  144.6500 C   0  0  0  0  0  2  0  0  0  0  0  0
  189.6360  172.8660  143.3410 N   0  0  0  0  0  2  0  0  0  0  0  0
  190.4020  173.8720  142.6220 C   0  0  0  0  0  2  0  0  0  0  0  0
  189.6790  175.1760  142.6280 C   0  0  0  0  0  0  0  0  0  0  0  0
  188.1870  175.1600  142.6780 C   0  0  0  0  0  2  0  0  0  0  0  0
  188.6780  178.0540  142.1150 C   0  0  0  0  0  3  0  0  0  0  0  0
  187.0850  177.8010  140.2630 O   0  0  0  0  0  1  0  0  0  0  0  0
  187.7830  177.2040  141.3040 C   0  0  0  0  0  0  0  0  0  0  0  0
  190.3750  176.3090  142.7390 C   0  0  0  0  0  3  0  0  0  0  0  0
  187.5870  175.9030  141.5300 C   0  0  0  0  0  3  0  0  0  0  0  0
  189.8010  177.6680  142.7360 C   0  0  0  0  0  3  0  0  0  0  0  0
  188.1700  175.7390  146.7630 N   0  0  0  0  0  2  0  0  0  0  0  0
  187.2490  176.8240  146.5710 C   0  0  0  0  0  0  0  0  0  0  0  0
  185.8980  178.5840  147.5550 C   0  0  0  0  0  3  0  0  0  0  0  0
  186.7920  177.2050  145.3010 C   0  0  0  0  0  3  0  0  0  0  0  0
  185.4490  178.9570  146.2870 C   0  0  0  0  0  3  0  0  0  0  0  0
  186.7940  177.5220  147.6950 C   0  0  0  0  0  3  0  0  0  0  0  0
  185.8930  178.2700  145.1490 C   0  0  0  0  0  0  0  0  0  0  0  0
  185.8050  179.7470  143.2960 O   0  0  0  0  0  0  0  0  0  0  0  0
  184.0340  178.1500  141.7650 C   0  0  0  0  0  1  0  0  0  0  0  0
  184.5260  177.8080  143.0890 N   0  0  0  0  0  2  0  0  0  0  0  0
  185.4210  178.6600  143.8090 C   0  0  0  0  0  0  0  0  0  0  0  0
  1  5  1  0  0  0  0
  2  1  2  0  0  0  0
  3  4  1  0  0  0  0
  4  5  2  0  0  0  0
  6  2  1  0  0  0  0
  6  3  2  0  0  0  0
  7  6  1  0  0  0  0
  8  7  1  0  0  0  0
  9  8  1  0  0  0  0
 10 11  1  0  0  0  0
 10  9  1  0  0  0  0
 11 12  1  0  0  0  0
 11 16  2  0  0  0  0
 13 18  2  0  0  0  0
 14 15  1  0  0  0  0
 15 17  2  0  0  0  0
 15 13  1  0  0  0  0
 17 12  1  0  0  0  0
 18 16  1  0  0  0  0
 19  3  1  0  0  0  0
 20 19  1  0  0  0  0
 20 24  1  0  0  0  0
 21 24  2  0  0  0  0
 22 20  2  0  0  0  0
 23 21  1  0  0  0  0
 25 22  1  0  0  0  0
 25 23  2  0  0  0  0
 26 29  2  0  0  0  0
 27 28  1  0  0  0  0
 28 29  1  0  0  0  0
 29 25  1  0  0  0  0
M  END
>  <MODEL>
1

>  <REMARK>
 VINA RESULT:      -7.0      0.000      0.000
  Name = 
  8 active torsions:
  status: ('A' for Active; 'I' for Inactive)
    1  A    between atoms: C_1  and  C_20
    2  A    between atoms: C_7  and  N_26
    3  A    between atoms: N_9  and  C_23
    4  A    between atoms: N_9  and  C_27
    5  A    between atoms: C_11  and  N_26
    6  A    between atoms: N_14  and  C_20
    7  A    between atoms: N_14  and  C_23
    8  A    between atoms: C_21  and  C_29
                            x       y       z     vdW  Elec       q    Type
                         _______ _______ _______ _____ _____    ______ ____

>  <TORSDO>
F 8

$$$$
=
 OpenBabel11062422553D

 29 31  0  0  0  0  0  0  0  0999 V2000
  194.5100  176.1340  145.8790 C   0  0  0  0  0  3  0  0  0  0  0  0
  193.3270  176.2750  146.6020 C   0  0  0  0  0  3  0  0  0  0  0  0
  192.3670  174.4410  145.3400 C   0  0  0  0  0  0  0  0  0  0  0  0
  193.5780  174.3390  144.6400 C   0  0  0  0  0  3  0  0  0  0  0  0
  194.6110  175.1780  144.9190 N   0  0  0  0  0  0  0  0  0  0  0  0
  192.2450  175.4250  146.3330 C   0  0  0  0  0  0  0  0  0  0  0  0
  191.0190  175.5480  147.0650 N   0  0  0  0  0  2  0  0  0  0  0  0
  190.5230  176.8060  147.6020 C   0  0  0  0  0  2  0  0  0  0  0  0
  189.4660  177.3230  146.7470 N   0  0  0  0  0  2  0  0  0  0  0  0
  188.3870  176.3480  146.7590 C   0  0  0  0  0  2  0  0  0  0  0  0
  187.1010  176.9940  146.3690 C   0  0  0  0  0  0  0  0  0  0  0  0
  186.6720  176.9150  144.9410 C   0  0  0  0  0  2  0  0  0  0  0  0
  184.6860  178.8840  145.9930 C   0  0  0  0  0  3  0  0  0  0  0  0
  185.3470  180.3170  144.1120 O   0  0  0  0  0  1  0  0  0  0  0  0
  185.5320  179.1310  144.8080 C   0  0  0  0  0  0  0  0  0  0  0  0
  186.3040  177.4900  147.3170 C   0  0  0  0  0  3  0  0  0  0  0  0
  186.4450  178.2690  144.3550 C   0  0  0  0  0  3  0  0  0  0  0  0
  185.0180  178.1750  147.0800 C   0  0  0  0  0  3  0  0  0  0  0  0
  191.2560  173.5690  145.0690 N   0  0  0  0  0  2  0  0  0  0  0  0
  190.2680  173.6720  144.0330 C   0  0  0  0  0  0  0  0  0  0  0  0
  188.7170  172.5520  142.5400 C   0  0  0  0  0  3  0  0  0  0  0  0
  189.8700  174.9060  143.4960 C   0  0  0  0  0  3  0  0  0  0  0  0
  188.3270  173.7840  142.0100 C   0  0  0  0  0  3  0  0  0  0  0  0
  189.6830  172.4980  143.5470 C   0  0  0  0  0  3  0  0  0  0  0  0
  188.9010  174.9710  142.4850 C   0  0  0  0  0  0  0  0  0  0  0  0
  189.1600  177.3100  142.1930 O   0  0  0  0  0  0  0  0  0  0  0  0
  186.8970  177.6220  140.5150 C   0  0  0  0  0  1  0  0  0  0  0  0
  187.3390  176.3610  141.0870 N   0  0  0  0  0  2  0  0  0  0  0  0
  188.4930  176.2720  141.9280 C   0  0  0  0  0  0  0  0  0  0  0  0
  1  2  1  0  0  0  0
  3  6  1  0  0  0  0
  4  5  1  0  0  0  0
  4  3  2  0  0  0  0
  5  1  2  0  0  0  0
  6  2  2  0  0  0  0
  6  7  1  0  0  0  0
  7  8  1  0  0  0  0
  9 10  1  0  0  0  0
  9  8  1  0  0  0  0
 11 10  1  0  0  0  0
 11 16  2  0  0  0  0
 12 11  1  0  0  0  0
 13 18  2  0  0  0  0
 14 15  1  0  0  0  0
 15 13  1  0  0  0  0
 17 15  2  0  0  0  0
 17 12  1  0  0  0  0
 18 16  1  0  0  0  0
 19  3  1  0  0  0  0
 20 19  1  0  0  0  0
 21 24  2  0  0  0  0
 22 20  2  0  0  0  0
 23 25  2  0  0  0  0
 23 21  1  0  0  0  0
 24 20  1  0  0  0  0
 25 22  1  0  0  0  0
 27 28  1  0  0  0  0
 28 29  1  0  0  0  0
 29 26  2  0  0  0  0
 29 25  1  0  0  0  0
M  END
>  <MODEL>
2

>  <REMARK>
 VINA RESULT:      -6.8      1.710      4.877
  Name = 
  8 active torsions:
  status: ('A' for Active; 'I' for Inactive)
    1  A    between atoms: C_1  and  C_20
    2  A    between atoms: C_7  and  N_26
    3  A    between atoms: N_9  and  C_23
    4  A    between atoms: N_9  and  C_27
    5  A    between atoms: C_11  and  N_26
    6  A    between atoms: N_14  and  C_20
    7  A    between atoms: N_14  and  C_23
    8  A    between atoms: C_21  and  C_29
                            x       y       z     vdW  Elec       q    Type
                         _______ _______ _______ _____ _____    ______ ____

>  <TORSDO>
F 8

$$$$
=
 OpenBabel11062422553D

 29 31  0  0  0  0  0  0  0  0999 V2000
  193.9660  174.3330  145.4640 C   0  0  0  0  0  3  0  0  0  0  0  0
  192.9210  174.8500  146.2280 C   0  0  0  0  0  3  0  0  0  0  0  0
  192.2780  176.2490  144.3550 C   0  0  0  0  0  0  0  0  0  0  0  0
  193.3430  175.6990  143.6270 C   0  0  0  0  0  3  0  0  0  0  0  0
  194.1550  174.7650  144.1890 N   0  0  0  0  0  0  0  0  0  0  0  0
  192.0690  175.8160  145.6740 C   0  0  0  0  0  0  0  0  0  0  0  0
  190.9860  176.3600  146.4380 N   0  0  0  0  0  2  0  0  0  0  0  0
  190.0830  175.5530  147.2460 C   0  0  0  0  0  2  0  0  0  0  0  0
  188.7460  175.5890  146.6750 N   0  0  0  0  0  2  0  0  0  0  0  0
  188.4980  176.9570  146.2470 C   0  0  0  0  0  2  0  0  0  0  0  0
  187.0310  177.2230  146.1880 C   0  0  0  0  0  0  0  0  0  0  0  0
  186.2480  176.6310  145.0630 C   0  0  0  0  0  2  0  0  0  0  0  0
  184.2040  178.4670  146.2380 C   0  0  0  0  0  3  0  0  0  0  0  0
  183.9020  179.3320  143.9590 O   0  0  0  0  0  1  0  0  0  0  0  0
  184.5810  178.4710  144.8100 C   0  0  0  0  0  0  0  0  0  0  0  0
  186.4390  177.8490  147.2060 C   0  0  0  0  0  3  0  0  0  0  0  0
  185.5170  177.6770  144.2870 C   0  0  0  0  0  3  0  0  0  0  0  0
  185.0070  178.2000  147.2760 C   0  0  0  0  0  3  0  0  0  0  0  0
  191.4010  177.2380  143.7900 N   0  0  0  0  0  2  0  0  0  0  0  0
  190.2130  177.0400  143.0070 C   0  0  0  0  0  0  0  0  0  0  0  0
  188.2370  177.9980  141.9750 C   0  0  0  0  0  3  0  0  0  0  0  0
  189.8440  175.7810  142.5100 C   0  0  0  0  0  3  0  0  0  0  0  0
  187.8760  176.7410  141.4840 C   0  0  0  0  0  3  0  0  0  0  0  0
  189.4010  178.1450  142.7320 C   0  0  0  0  0  3  0  0  0  0  0  0
  188.6780  175.6230  141.7480 C   0  0  0  0  0  0  0  0  0  0  0  0
  187.7440  173.4560  141.9940 O   0  0  0  0  0  0  0  0  0  0  0  0
  188.2110  172.6590  139.3140 C   0  0  0  0  0  1  0  0  0  0  0  0
  188.5650  173.9560  139.8690 N   0  0  0  0  0  2  0  0  0  0  0  0
  188.3010  174.2950  141.2330 C   0  0  0  0  0  0  0  0  0  0  0  0
  1  2  1  0  0  0  0
  3  6  1  0  0  0  0
  4  5  1  0  0  0  0
  4  3  2  0  0  0  0
  5  1  2  0  0  0  0
  6  2  2  0  0  0  0
  6  7  1  0  0  0  0
  7  8  1  0  0  0  0
  9  8  1  0  0  0  0
 10  9  1  0  0  0  0
 11 10  1  0  0  0  0
 11 16  2  0  0  0  0
 12 11  1  0  0  0  0
 13 18  2  0  0  0  0
 14 15  1  0  0  0  0
 15 13  1  0  0  0  0
 16 18  1  0  0  0  0
 17 15  2  0  0  0  0
 17 12  1  0  0  0  0
 19  3  1  0  0  0  0
 20 19  1  0  0  0  0
 21 24  2  0  0  0  0
 22 20  2  0  0  0  0
 23 25  2  0  0  0  0
 23 21  1  0  0  0  0
 24 20  1  0  0  0  0
 25 22  1  0  0  0  0
 27 28  1  0  0  0  0
 28 29  1  0  0  0  0
 29 25  1  0  0  0  0
 29 26  2  0  0  0  0
M  END
>  <MODEL>
3

>  <REMARK>
 VINA RESULT:      -6.8      2.139      5.005
  Name = 
  8 active torsions:
  status: ('A' for Active; 'I' for Inactive)
    1  A    between atoms: C_1  and  C_20
    2  A    between atoms: C_7  and  N_26
    3  A    between atoms: N_9  and  C_23
    4  A    between atoms: N_9  and  C_27
    5  A    between atoms: C_11  and  N_26
    6  A    between atoms: N_14  and  C_20
    7  A    between atoms: N_14  and  C_23
    8  A    between atoms: C_21  and  C_29
                            x       y       z     vdW  Elec       q    Type
                         _______ _______ _______ _____ _____    ______ ____

>  <TORSDO>
F 8

$$$$
=
 OpenBabel11062422553D

 29 31  0  0  0  0  0  0  0  0999 V2000
  184.3020  178.3470  146.4210 C   0  0  0  0  0  3  0  0  0  0  0  0
  184.5800  178.4140  145.0570 C   0  0  0  0  0  3  0  0  0  0  0  0
  186.9170  177.9820  145.5400 C   0  0  0  0  0  0  0  0  0  0  0  0
  186.5850  177.9240  146.9010 C   0  0  0  0  0  3  0  0  0  0  0  0
  185.3020  178.1060  147.3090 N   0  0  0  0  0  0  0  0  0  0  0  0
  185.8960  178.2310  144.6090 C   0  0  0  0  0  0  0  0  0  0  0  0
  186.2070  178.2920  143.2110 N   0  0  0  0  0  2  0  0  0  0  0  0
  185.8730  177.2380  142.2640 C   0  0  0  0  0  2  0  0  0  0  0  0
  187.0820  176.5350  141.8640 N   0  0  0  0  0  2  0  0  0  0  0  0
  187.1190  175.2860  142.6070 C   0  0  0  0  0  2  0  0  0  0  0  0
  188.4380  174.6130  142.4250 C   0  0  0  0  0  0  0  0  0  0  0  0
  188.4570  173.1360  142.2080 C   0  0  0  0  0  2  0  0  0  0  0  0
  191.3710  173.6620  142.6130 C   0  0  0  0  0  3  0  0  0  0  0  0
  191.3000  171.8650  144.2860 O   0  0  0  0  0  1  0  0  0  0  0  0
  190.6090  172.6530  143.3760 C   0  0  0  0  0  0  0  0  0  0  0  0
  189.5400  175.3560  142.3130 C   0  0  0  0  0  3  0  0  0  0  0  0
  189.3000  172.4380  143.2230 C   0  0  0  0  0  3  0  0  0  0  0  0
  190.9110  174.8330  142.1530 C   0  0  0  0  0  3  0  0  0  0  0  0
  188.2640  177.7930  145.0750 N   0  0  0  0  0  2  0  0  0  0  0  0
  189.2240  176.8080  145.4880 C   0  0  0  0  0  0  0  0  0  0  0  0
  189.6570  174.5890  146.3720 C   0  0  0  0  0  3  0  0  0  0  0  0
  190.6070  177.0390  145.4340 C   0  0  0  0  0  3  0  0  0  0  0  0
  191.0320  174.8270  146.3150 C   0  0  0  0  0  3  0  0  0  0  0  0
  188.7580  175.5760  145.9600 C   0  0  0  0  0  3  0  0  0  0  0  0
  191.5170  176.0550  145.8450 C   0  0  0  0  0  0  0  0  0  0  0  0
  193.5660  176.7970  146.7820 O   0  0  0  0  0  0  0  0  0  0  0  0
  195.1280  176.2410  144.4830 C   0  0  0  0  0  1  0  0  0  0  0  0
  193.6970  176.0070  144.5910 N   0  0  0  0  0  2  0  0  0  0  0  0
  192.9670  176.3100  145.7830 C   0  0  0  0  0  0  0  0  0  0  0  0
  1  5  1  0  0  0  0
  2  1  2  0  0  0  0
  3  4  1  0  0  0  0
  4  5  2  0  0  0  0
  6  2  1  0  0  0  0
  6  3  2  0  0  0  0
  7  6  1  0  0  0  0
  8  7  1  0  0  0  0
  9  8  1  0  0  0  0
  9 10  1  0  0  0  0
 11 10  1  0  0  0  0
 12 11  1  0  0  0  0
 12 17  1  0  0  0  0
 13 15  1  0  0  0  0
 15 14  1  0  0  0  0
 16 11  2  0  0  0  0
 17 15  2  0  0  0  0
 18 16  1  0  0  0  0
 18 13  2  0  0  0  0
 19 20  1  0  0  0  0
 19  3  1  0  0  0  0
 20 24  1  0  0  0  0
 22 20  2  0  0  0  0
 22 25  1  0  0  0  0
 23 21  1  0  0  0  0
 24 21  2  0  0  0  0
 25 23  2  0  0  0  0
 27 28  1  0  0  0  0
 28 29  1  0  0  0  0
 29 25  1  0  0  0  0
 29 26  2  0  0  0  0
M  END
>  <MODEL>
4

>  <REMARK>
 VINA RESULT:      -6.8      2.993      6.025
  Name = 
  8 active torsions:
  status: ('A' for Active; 'I' for Inactive)
    1  A    between atoms: C_1  and  C_20
    2  A    between atoms: C_7  and  N_26
    3  A    between atoms: N_9  and  C_23
    4  A    between atoms: N_9  and  C_27
    5  A    between atoms: C_11  and  N_26
    6  A    between atoms: N_14  and  C_20
    7  A    between atoms: N_14  and  C_23
    8  A    between atoms: C_21  and  C_29
                            x       y       z     vdW  Elec       q    Type
                         _______ _______ _______ _____ _____    ______ ____

>  <TORSDO>
F 8

$$$$
=
 OpenBabel11062422553D

 29 31  0  0  0  0  0  0  0  0999 V2000
  182.8690  178.3900  141.8120 C   0  0  0  0  0  3  0  0  0  0  0  0
  183.4480  178.5970  143.0640 C   0  0  0  0  0  3  0  0  0  0  0  0
  185.6420  178.3570  142.0600 C   0  0  0  0  0  0  0  0  0  0  0  0
  185.0120  178.1540  140.8240 C   0  0  0  0  0  3  0  0  0  0  0  0
  183.6570  178.1740  140.7260 N   0  0  0  0  0  0  0  0  0  0  0  0
  184.8430  178.5800  143.1930 C   0  0  0  0  0  0  0  0  0  0  0  0
  185.4620  178.7930  144.4680 N   0  0  0  0  0  2  0  0  0  0  0  0
  185.0630  178.1000  145.6840 C   0  0  0  0  0  2  0  0  0  0  0  0
  185.6750  176.7810  145.7220 N   0  0  0  0  0  2  0  0  0  0  0  0
  186.4810  176.7150  146.9310 C   0  0  0  0  0  2  0  0  0  0  0  0
  187.9220  176.5510  146.5840 C   0  0  0  0  0  0  0  0  0  0  0  0
  188.4350  175.1750  146.3130 C   0  0  0  0  0  2  0  0  0  0  0  0
  191.0040  176.6970  146.4220 C   0  0  0  0  0  3  0  0  0  0  0  0
  191.7590  174.9990  148.0270 O   0  0  0  0  0  1  0  0  0  0  0  0
  190.7360  175.4880  147.2260 C   0  0  0  0  0  0  0  0  0  0  0  0
  188.6730  177.6350  146.3810 C   0  0  0  0  0  3  0  0  0  0  0  0
  189.5780  174.8250  147.2070 C   0  0  0  0  0  3  0  0  0  0  0  0
  190.1130  177.6280  146.0560 C   0  0  0  0  0  3  0  0  0  0  0  0
  187.0730  178.3430  142.1970 N   0  0  0  0  0  2  0  0  0  0  0  0
  187.9450  177.2180  142.3830 C   0  0  0  0  0  0  0  0  0  0  0  0
  188.1920  174.8170  142.6410 C   0  0  0  0  0  3  0  0  0  0  0  0
  189.3370  177.3570  142.4900 C   0  0  0  0  0  3  0  0  0  0  0  0
  189.5760  174.9640  142.7460 C   0  0  0  0  0  3  0  0  0  0  0  0
  187.3810  175.9400  142.4600 C   0  0  0  0  0  3  0  0  0  0  0  0
  190.1600  176.2360  142.6710 C   0  0  0  0  0  0  0  0  0  0  0  0
  192.1090  177.4960  143.1600 O   0  0  0  0  0  0  0  0  0  0  0  0
  193.9320  175.4120  142.5560 C   0  0  0  0  0  1  0  0  0  0  0  0
  192.4850  175.3030  142.4620 N   0  0  0  0  0  2  0  0  0  0  0  0
  191.6200  176.3960  142.7820 C   0  0  0  0  0  0  0  0  0  0  0  0
  1  2  1  0  0  0  0
  2  6  2  0  0  0  0
  3 19  1  0  0  0  0
  3  6  1  0  0  0  0
  4  3  2  0  0  0  0
  5  4  1  0  0  0  0
  5  1  2  0  0  0  0
  6  7  1  0  0  0  0
  7  8  1  0  0  0  0
  8  9  1  0  0  0  0
  9 10  1  0  0  0  0
 11 10  1  0  0  0  0
 12 11  1  0  0  0  0
 12 17  1  0  0  0  0
 13 15  1  0  0  0  0
 15 14  1  0  0  0  0
 16 11  2  0  0  0  0
 17 15  2  0  0  0  0
 18 16  1  0  0  0  0
 18 13  2  0  0  0  0
 19 20  1  0  0  0  0
 20 24  2  0  0  0  0
 20 22  1  0  0  0  0
 21 23  2  0  0  0  0
 22 25  2  0  0  0  0
 24 21  1  0  0  0  0
 25 23  1  0  0  0  0
 25 29  1  0  0  0  0
 28 27  1  0  0  0  0
 28 29  1  0  0  0  0
 29 26  2  0  0  0  0
M  END
>  <MODEL>
5

>  <REMARK>
 VINA RESULT:      -6.7      2.594      6.988
  Name = 
  8 active torsions:
  status: ('A' for Active; 'I' for Inactive)
    1  A    between atoms: C_1  and  C_20
    2  A    between atoms: C_7  and  N_26
    3  A    between atoms: N_9  and  C_23
    4  A    between atoms: N_9  and  C_27
    5  A    between atoms: C_11  and  N_26
    6  A    between atoms: N_14  and  C_20
    7  A    between atoms: N_14  and  C_23
    8  A    between atoms: C_21  and  C_29
                            x       y       z     vdW  Elec       q    Type
                         _______ _______ _______ _____ _____    ______ ____

>  <TORSDO>
F 8

$$$$
=
 OpenBabel11062422553D

 29 31  0  0  0  0  0  0  0  0999 V2000
  189.1160  172.9880  140.6150 C   0  0  0  0  0  3  0  0  0  0  0  0
  188.6830  174.3130  140.5970 C   0  0  0  0  0  3  0  0  0  0  0  0
  189.0300  174.4320  142.9940 C   0  0  0  0  0  0  0  0  0  0  0  0
  189.4570  173.0970  142.9600 C   0  0  0  0  0  3  0  0  0  0  0  0
  189.4900  172.4110  141.7870 N   0  0  0  0  0  0  0  0  0  0  0  0
  188.6370  175.0430  141.7920 C   0  0  0  0  0  0  0  0  0  0  0  0
  188.1990  176.4080  141.8000 N   0  0  0  0  0  2  0  0  0  0  0  0
  186.9110  176.8440  141.2820 C   0  0  0  0  0  2  0  0  0  0  0  0
  186.6560  178.2170  141.6880 N   0  0  0  0  0  2  0  0  0  0  0  0
  185.2990  178.2670  142.2080 C   0  0  0  0  0  2  0  0  0  0  0  0
  185.3180  178.5040  143.6810 C   0  0  0  0  0  0  0  0  0  0  0  0
  186.6390  178.6690  144.3570 C   0  0  0  0  0  2  0  0  0  0  0  0
  184.8390  178.4560  146.7320 C   0  0  0  0  0  3  0  0  0  0  0  0
  186.3760  176.7200  147.5420 O   0  0  0  0  0  1  0  0  0  0  0  0
  186.0360  177.6140  146.5360 C   0  0  0  0  0  0  0  0  0  0  0  0
  184.1670  178.7070  144.3250 C   0  0  0  0  0  3  0  0  0  0  0  0
  186.8230  177.6820  145.4610 C   0  0  0  0  0  3  0  0  0  0  0  0
  184.0280  178.9290  145.7770 C   0  0  0  0  0  3  0  0  0  0  0  0
  188.9840  175.1860  144.2170 N   0  0  0  0  0  2  0  0  0  0  0  0
  189.9950  175.3130  145.2290 C   0  0  0  0  0  0  0  0  0  0  0  0
  190.5710  175.2890  147.5870 C   0  0  0  0  0  3  0  0  0  0  0  0
  191.3380  175.5720  144.9190 C   0  0  0  0  0  3  0  0  0  0  0  0
  191.9060  175.5470  147.2700 C   0  0  0  0  0  3  0  0  0  0  0  0
  189.6200  175.1730  146.5700 C   0  0  0  0  0  3  0  0  0  0  0  0
  192.3000  175.6910  145.9330 C   0  0  0  0  0  0  0  0  0  0  0  0
  194.5750  176.0320  146.5080 O   0  0  0  0  0  0  0  0  0  0  0  0
  195.4680  176.4220  143.8460 C   0  0  0  0  0  1  0  0  0  0  0  0
  194.0920  176.1510  144.2300 N   0  0  0  0  0  2  0  0  0  0  0  0
  193.7070  175.9630  145.5940 C   0  0  0  0  0  0  0  0  0  0  0  0
  1  5  1  0  0  0  0
  2  1  2  0  0  0  0
  2  6  1  0  0  0  0
  3 19  1  0  0  0  0
  4  3  1  0  0  0  0
  5  4  2  0  0  0  0
  6  7  1  0  0  0  0
  6  3  2  0  0  0  0
  8  9  1  0  0  0  0
  8  7  1  0  0  0  0
  9 10  1  0  0  0  0
 10 11  1  0  0  0  0
 11 16  2  0  0  0  0
 11 12  1  0  0  0  0
 12 17  1  0  0  0  0
 15 13  1  0  0  0  0
 15 14  1  0  0  0  0
 16 18  1  0  0  0  0
 17 15  2  0  0  0  0
 18 13  2  0  0  0  0
 19 20  1  0  0  0  0
 20 24  1  0  0  0  0
 22 20  2  0  0  0  0
 22 25  1  0  0  0  0
 23 21  1  0  0  0  0
 24 21  2  0  0  0  0
 25 23  2  0  0  0  0
 27 28  1  0  0  0  0
 28 29  1  0  0  0  0
 29 25  1  0  0  0  0
 29 26  2  0  0  0  0
M  END
>  <MODEL>
6

>  <REMARK>
 VINA RESULT:      -6.6      2.807      6.602
  Name = 
  8 active torsions:
  status: ('A' for Active; 'I' for Inactive)
    1  A    between atoms: C_1  and  C_20
    2  A    between atoms: C_7  and  N_26
    3  A    between atoms: N_9  and  C_23
    4  A    between atoms: N_9  and  C_27
    5  A    between atoms: C_11  and  N_26
    6  A    between atoms: N_14  and  C_20
    7  A    between atoms: N_14  and  C_23
    8  A    between atoms: C_21  and  C_29
                            x       y       z     vdW  Elec       q    Type
                         _______ _______ _______ _____ _____    ______ ____

>  <TORSDO>
F 8

$$$$
=
 OpenBabel11062422553D

 29 31  0  0  0  0  0  0  0  0999 V2000
  185.5590  177.0820  146.3680 C   0  0  0  0  0  3  0  0  0  0  0  0
  186.7240  176.7360  147.0520 C   0  0  0  0  0  3  0  0  0  0  0  0
  188.0350  177.6100  145.2080 C   0  0  0  0  0  0  0  0  0  0  0  0
  186.8350  177.9380  144.5610 C   0  0  0  0  0  3  0  0  0  0  0  0
  185.6370  177.6710  145.1460 N   0  0  0  0  0  0  0  0  0  0  0  0
  187.9720  177.0000  146.4710 C   0  0  0  0  0  0  0  0  0  0  0  0
  189.1840  176.6570  147.1550 N   0  0  0  0  0  2  0  0  0  0  0  0
  189.6110  175.2870  147.4030 C   0  0  0  0  0  2  0  0  0  0  0  0
  191.0200  175.2680  147.7630 N   0  0  0  0  0  2  0  0  0  0  0  0
  191.6600  176.3640  147.0530 C   0  0  0  0  0  2  0  0  0  0  0  0
  192.9820  175.9300  146.5150 C   0  0  0  0  0  0  0  0  0  0  0  0
  194.1600  176.8230  146.7230 C   0  0  0  0  0  2  0  0  0  0  0  0
  195.3120  174.8440  144.8020 C   0  0  0  0  0  3  0  0  0  0  0  0
  196.0210  176.7850  143.4740 O   0  0  0  0  0  1  0  0  0  0  0  0
  195.3540  176.3060  144.5930 C   0  0  0  0  0  0  0  0  0  0  0  0
  193.1070  174.7060  145.9980 C   0  0  0  0  0  3  0  0  0  0  0  0
  194.8110  177.1920  145.4310 C   0  0  0  0  0  3  0  0  0  0  0  0
  194.3400  174.1500  145.4090 C   0  0  0  0  0  3  0  0  0  0  0  0
  189.3170  177.8810  144.6180 N   0  0  0  0  0  2  0  0  0  0  0  0
  190.1900  176.9800  143.9190 C   0  0  0  0  0  0  0  0  0  0  0  0
  192.2960  176.6240  142.7660 C   0  0  0  0  0  3  0  0  0  0  0  0
  189.8560  175.6370  143.6910 C   0  0  0  0  0  3  0  0  0  0  0  0
  191.9560  175.2880  142.5440 C   0  0  0  0  0  3  0  0  0  0  0  0
  191.4160  177.4650  143.4510 C   0  0  0  0  0  3  0  0  0  0  0  0
  190.7320  174.7840  143.0050 C   0  0  0  0  0  0  0  0  0  0  0  0
  189.8480  172.6960  143.6990 O   0  0  0  0  0  0  0  0  0  0  0  0
  190.2670  171.3910  141.2180 C   0  0  0  0  0  1  0  0  0  0  0  0
  190.6080  172.7770  141.4950 N   0  0  0  0  0  2  0  0  0  0  0  0
  190.3690  173.3750  142.7720 C   0  0  0  0  0  0  0  0  0  0  0  0
  1  2  1  0  0  0  0
  3  6  1  0  0  0  0
  4  5  1  0  0  0  0
  4  3  2  0  0  0  0
  5  1  2  0  0  0  0
  6  2  2  0  0  0  0
  6  7  1  0  0  0  0
  7  8  1  0  0  0  0
  8  9  1  0  0  0  0
 10  9  1  0  0  0  0
 11 12  1  0  0  0  0
 11 10  1  0  0  0  0
 13 18  2  0  0  0  0
 14 15  1  0  0  0  0
 15 13  1  0  0  0  0
 15 17  2  0  0  0  0
 16 11  2  0  0  0  0
 17 12  1  0  0  0  0
 18 16  1  0  0  0  0
 19  3  1  0  0  0  0
 20 19  1  0  0  0  0
 21 24  1  0  0  0  0
 22 20  1  0  0  0  0
 23 21  2  0  0  0  0
 23 25  1  0  0  0  0
 24 20  2  0  0  0  0
 25 22  2  0  0  0  0
 27 28  1  0  0  0  0
 28 29  1  0  0  0  0
 29 25  1  0  0  0  0
 29 26  2  0  0  0  0
M  END
>  <MODEL>
7

>  <REMARK>
 VINA RESULT:      -6.6      2.905      6.437
  Name = 
  8 active torsions:
  status: ('A' for Active; 'I' for Inactive)
    1  A    between atoms: C_1  and  C_20
    2  A    between atoms: C_7  and  N_26
    3  A    between atoms: N_9  and  C_23
    4  A    between atoms: N_9  and  C_27
    5  A    between atoms: C_11  and  N_26
    6  A    between atoms: N_14  and  C_20
    7  A    between atoms: N_14  and  C_23
    8  A    between atoms: C_21  and  C_29
                            x       y       z     vdW  Elec       q    Type
                         _______ _______ _______ _____ _____    ______ ____

>  <TORSDO>
F 8

$$$$
=
 OpenBabel11062422553D

 29 31  0  0  0  0  0  0  0  0999 V2000
  183.7110  178.2100  142.4110 C   0  0  0  0  0  3  0  0  0  0  0  0
  184.3840  178.3690  143.6210 C   0  0  0  0  0  3  0  0  0  0  0  0
  186.4830  178.4670  142.4110 C   0  0  0  0  0  0  0  0  0  0  0  0
  185.7600  178.3050  141.2210 C   0  0  0  0  0  3  0  0  0  0  0  0
  184.4070  178.1800  141.2450 N   0  0  0  0  0  0  0  0  0  0  0  0
  185.7800  178.4980  143.6260 C   0  0  0  0  0  0  0  0  0  0  0  0
  186.4940  178.6670  144.8570 N   0  0  0  0  0  2  0  0  0  0  0  0
  186.0380  178.1360  146.1330 C   0  0  0  0  0  2  0  0  0  0  0  0
  186.9450  177.0910  146.5840 N   0  0  0  0  0  2  0  0  0  0  0  0
  188.2990  177.5720  146.3630 C   0  0  0  0  0  2  0  0  0  0  0  0
  189.2690  176.4420  146.4390 C   0  0  0  0  0  0  0  0  0  0  0  0
  190.4420  176.5730  147.3540 C   0  0  0  0  0  2  0  0  0  0  0  0
  191.2000  174.1020  145.8550 C   0  0  0  0  0  3  0  0  0  0  0  0
  193.3540  175.2060  145.4400 O   0  0  0  0  0  1  0  0  0  0  0  0
  192.0810  175.2790  145.9880 C   0  0  0  0  0  0  0  0  0  0  0  0
  188.9910  175.2980  145.8100 C   0  0  0  0  0  3  0  0  0  0  0  0
  191.7340  176.3980  146.6270 C   0  0  0  0  0  3  0  0  0  0  0  0
  189.8620  174.1080  145.7770 C   0  0  0  0  0  3  0  0  0  0  0  0
  187.9140  178.6030  142.4210 N   0  0  0  0  0  2  0  0  0  0  0  0
  188.9120  177.5720  142.4770 C   0  0  0  0  0  0  0  0  0  0  0  0
  191.2160  176.9500  142.9170 C   0  0  0  0  0  3  0  0  0  0  0  0
  188.6240  176.2330  142.1750 C   0  0  0  0  0  3  0  0  0  0  0  0
  190.9220  175.6200  142.6140 C   0  0  0  0  0  3  0  0  0  0  0  0
  190.2140  177.9210  142.8490 C   0  0  0  0  0  3  0  0  0  0  0  0
  189.6230  175.2500  142.2400 C   0  0  0  0  0  0  0  0  0  0  0  0
  188.1500  173.5330  141.5290 O   0  0  0  0  0  0  0  0  0  0  0  0
  190.0530  171.4430  141.7460 C   0  0  0  0  0  1  0  0  0  0  0  0
  190.3160  172.8400  142.0510 N   0  0  0  0  0  2  0  0  0  0  0  0
  189.3080  173.8470  141.9200 C   0  0  0  0  0  0  0  0  0  0  0  0
  1  2  1  0  0  0  0
  2  6  2  0  0  0  0
  3 19  1  0  0  0  0
  3  6  1  0  0  0  0
  4  5  1  0  0  0  0
  4  3  2  0  0  0  0
  5  1  2  0  0  0  0
  6  7  1  0  0  0  0
  7  8  1  0  0  0  0
  8  9  1  0  0  0  0
 10 11  1  0  0  0  0
 10  9  1  0  0  0  0
 11 12  1  0  0  0  0
 13 15  1  0  0  0  0
 14 15  1  0  0  0  0
 15 17  2  0  0  0  0
 16 11  2  0  0  0  0
 17 12  1  0  0  0  0
 18 16  1  0  0  0  0
 18 13  2  0  0  0  0
 19 20  1  0  0  0  0
 20 24  1  0  0  0  0
 22 25  1  0  0  0  0
 22 20  2  0  0  0  0
 23 21  1  0  0  0  0
 24 21  2  0  0  0  0
 25 23  2  0  0  0  0
 26 29  2  0  0  0  0
 27 28  1  0  0  0  0
 29 28  1  0  0  0  0
 29 25  1  0  0  0  0
M  END
>  <MODEL>
8

>  <REMARK>
 VINA RESULT:      -6.6      2.291      6.692
  Name = 
  8 active torsions:
  status: ('A' for Active; 'I' for Inactive)
    1  A    between atoms: C_1  and  C_20
    2  A    between atoms: C_7  and  N_26
    3  A    between atoms: N_9  and  C_23
    4  A    between atoms: N_9  and  C_27
    5  A    between atoms: C_11  and  N_26
    6  A    between atoms: N_14  and  C_20
    7  A    between atoms: N_14  and  C_23
    8  A    between atoms: C_21  and  C_29
                            x       y       z     vdW  Elec       q    Type
                         _______ _______ _______ _____ _____    ______ ____

>  <TORSDO>
F 8

$$$$
=
 OpenBabel11062422553D

 29 31  0  0  0  0  0  0  0  0999 V2000
  190.0220  172.4960  138.6740 C   0  0  0  0  0  3  0  0  0  0  0  0
  190.0950  171.8970  139.9300 C   0  0  0  0  0  3  0  0  0  0  0  0
  188.6070  173.6010  140.8010 C   0  0  0  0  0  0  0  0  0  0  0  0
  188.5660  174.1660  139.5180 C   0  0  0  0  0  3  0  0  0  0  0  0
  189.2660  173.6100  138.4950 N   0  0  0  0  0  0  0  0  0  0  0  0
  189.3850  172.4500  141.0040 C   0  0  0  0  0  0  0  0  0  0  0  0
  189.4410  171.8510  142.3050 N   0  0  0  0  0  2  0  0  0  0  0  0
  190.6810  171.6070  143.0280 C   0  0  0  0  0  2  0  0  0  0  0  0
  190.5400  172.0440  144.4080 N   0  0  0  0  0  2  0  0  0  0  0  0
  191.5560  173.0570  144.6440 C   0  0  0  0  0  2  0  0  0  0  0  0
  190.9450  174.2690  145.2640 C   0  0  0  0  0  0  0  0  0  0  0  0
  191.6980  175.5560  145.1980 C   0  0  0  0  0  2  0  0  0  0  0  0
  189.5160  176.3020  147.0990 C   0  0  0  0  0  3  0  0  0  0  0  0
  191.3000  177.1130  148.5800 O   0  0  0  0  0  1  0  0  0  0  0  0
  190.9520  176.4940  147.3870 C   0  0  0  0  0  0  0  0  0  0  0  0
  189.6940  174.2070  145.7240 C   0  0  0  0  0  3  0  0  0  0  0  0
  191.9310  176.1310  146.5560 C   0  0  0  0  0  3  0  0  0  0  0  0
  188.9700  175.3120  146.3810 C   0  0  0  0  0  3  0  0  0  0  0  0
  187.8780  174.1640  141.9050 N   0  0  0  0  0  2  0  0  0  0  0  0
  188.0660  175.4330  142.5490 C   0  0  0  0  0  0  0  0  0  0  0  0
  189.5360  177.3010  143.0430 C   0  0  0  0  0  3  0  0  0  0  0  0
  187.0500  176.0570  143.2880 C   0  0  0  0  0  3  0  0  0  0  0  0
  188.5190  177.9160  143.7760 C   0  0  0  0  0  3  0  0  0  0  0  0
  189.3090  176.0650  142.4320 C   0  0  0  0  0  3  0  0  0  0  0  0
  187.2670  177.2980  143.9040 C   0  0  0  0  0  0  0  0  0  0  0  0
  185.8620  179.1360  144.4280 O   0  0  0  0  0  0  0  0  0  0  0  0
  184.4530  177.8120  146.5010 C   0  0  0  0  0  1  0  0  0  0  0  0
  185.5200  177.2180  145.7110 N   0  0  0  0  0  2  0  0  0  0  0  0
  186.1920  177.9430  144.6770 C   0  0  0  0  0  0  0  0  0  0  0  0
  1  2  1  0  0  0  0
  2  6  2  0  0  0  0
  3  6  1  0  0  0  0
  3 19  1  0  0  0  0
  4  3  2  0  0  0  0
  5  1  2  0  0  0  0
  5  4  1  0  0  0  0
  6  7  1  0  0  0  0
  7  8  1  0  0  0  0
  8  9  1  0  0  0  0
  9 10  1  0  0  0  0
 10 11  1  0  0  0  0
 11 16  2  0  0  0  0
 12 11  1  0  0  0  0
 12 17  1  0  0  0  0
 13 15  1  0  0  0  0
 15 14  1  0  0  0  0
 16 18  1  0  0  0  0
 17 15  2  0  0  0  0
 18 13  2  0  0  0  0
 19 20  1  0  0  0  0
 20 22  1  0  0  0  0
 21 23  2  0  0  0  0
 22 25  2  0  0  0  0
 23 25  1  0  0  0  0
 24 20  2  0  0  0  0
 24 21  1  0  0  0  0
 25 29  1  0  0  0  0
 26 29  2  0  0  0  0
 28 27  1  0  0  0  0
 29 28  1  0  0  0  0
M  END
>  <MODEL>
9

>  <REMARK>
 VINA RESULT:      -6.3      2.512      5.411
  Name = 
  8 active torsions:
  status: ('A' for Active; 'I' for Inactive)
    1  A    between atoms: C_1  and  C_20
    2  A    between atoms: C_7  and  N_26
    3  A    between atoms: N_9  and  C_23
    4  A    between atoms: N_9  and  C_27
    5  A    between atoms: C_11  and  N_26
    6  A    between atoms: N_14  and  C_20
    7  A    between atoms: N_14  and  C_23
    8  A    between atoms: C_21  and  C_29
                            x       y       z     vdW  Elec       q    Type
                         _______ _______ _______ _____ _____    ______ ____

>  <TORSDO>
F 8

$$$$
