=
 OpenBabel11062419453D

 30 33  0  0  1  0  0  0  0  0999 V2000
  187.9190  176.0690  145.7590 C   0  0  0  0  0  0  0  0  0  0  0  0
  184.9410  178.3670  145.3920 C   0  0  0  0  0  0  0  0  0  0  0  0
  185.9730  178.3060  147.6900 C   0  0  0  0  0  2  0  0  0  0  0  0
  184.7890  178.7460  146.8410 C   0  0  0  0  0  2  0  0  0  0  0  0
  184.9240  177.6520  142.7160 C   0  0  0  0  0  3  0  0  0  0  0  0
  184.0810  178.9810  144.4800 C   0  0  0  0  0  3  0  0  0  0  0  0
  186.7320  176.7040  145.9800 C   0  0  0  0  0  0  0  0  0  0  0  0
  186.6710  175.9560  142.9980 C   0  0  0  0  0  2  0  0  0  0  0  0
  185.8380  177.3550  144.9540 C   0  0  0  0  0  0  0  0  0  0  0  0
  185.7960  176.9930  143.5860 C   0  0  0  0  0  0  0  0  0  0  0  0
  184.0950  178.6220  143.1730 N   0  0  0  0  0  0  0  0  0  0  0  0
  188.5510  175.9130  144.4800 N   0  0  0  0  0  2  0  0  0  0  0  0
  186.2730  176.8460  147.4070 C   0  0  0  0  0  2  0  0  0  0  0  0
  188.0910  176.4070  143.2000 C   0  0  1  0  0  3  0  0  0  0  0  0
  188.9340  175.8680  142.1460 N   0  0  0  0  0  2  0  0  0  0  0  0
  189.1680  174.4620  142.4480 C   0  0  1  0  0  3  0  0  0  0  0  0
  188.4090  173.5820  141.4980 C   0  0  0  0  0  0  0  0  0  0  0  0
  188.5870  173.7610  140.0300 C   0  0  0  0  0  1  0  0  0  0  0  0
  187.6520  172.7210  141.9160 O   0  0  0  0  0  0  0  0  0  0  0  0
  191.1060  173.0130  143.0460 O   0  0  0  0  0  1  0  0  0  0  0  0
  190.6300  174.1550  142.4160 C   0  0  0  0  0  0  0  0  0  0  0  0
  191.4320  174.9100  141.8030 O   0  0  0  0  0  0  0  0  0  0  0  0
  188.6600  175.4540  146.9060 C   0  0  0  0  0  2  0  0  0  0  0  0
  189.9880  175.0590  146.4700 N   0  0  0  0  0  2  0  0  0  0  0  0
  192.1710  175.1060  147.2980 O   0  0  0  0  0  0  0  0  0  0  0  0
  192.1190  176.2920  146.5380 C   0  0  2  0  0  3  0  0  0  0  0  0
  190.9380  175.7830  147.3030 C   0  0  1  0  0  3  0  0  0  0  0  0
  193.3330  175.3230  144.7840 C   0  0  0  0  0  1  0  0  0  0  0  0
  192.0500  177.2210  144.3910 C   0  0  0  0  0  1  0  0  0  0  0  0
  192.0720  175.9630  145.1160 N   0  0  0  0  0  0  0  0  0  0  0  0
  1  7  2  0  0  0  0
  1 23  1  0  0  0  0
  2  4  1  0  0  0  0
  4  3  1  0  0  0  0
  5 11  2  0  0  0  0
  5 10  1  0  0  0  0
  6  2  2  0  0  0  0
  7 13  1  0  0  0  0
  8 14  1  0  0  0  0
  8 10  1  0  0  0  0
  9  2  1  0  0  0  0
  9  7  1  0  0  0  0
 10  9  2  0  0  0  0
 11  6  1  0  0  0  0
 12  1  1  0  0  0  0
 13  3  1  0  0  0  0
 14 15  1  6  0  0  0
 14 12  1  0  0  0  0
 15 16  1  0  0  0  0
 16 17  1  6  0  0  0
 17 19  2  0  0  0  0
 18 17  1  0  0  0  0
 21 16  1  0  0  0  0
 21 20  1  0  0  0  0
 22 21  2  0  0  0  0
 24 23  1  0  0  0  0
 25 27  1  0  0  0  0
 26 30  1  6  0  0  0
 26 25  1  0  0  0  0
 26 27  1  0  0  0  0
 27 24  1  6  0  0  0
 28 30  1  0  0  0  0
 29 30  1  0  0  0  0
M  END
>  <MODEL>
1

>  <REMARK>
 VINA RESULT:      -7.2      0.000      0.000
  Name = 
  8 active torsions:
  status: ('A' for Active; 'I' for Inactive)
    1  A    between atoms: C_1  and  C_8
    2  A    between atoms: N_2  and  CA_4
    3  A    between atoms: N_2  and  C_30
    4  A    between atoms: CA_4  and  CB_7
    5  A    between atoms: CA_4  and  C_22
    6  A    between atoms: C_8  and  N_29
    7  A    between atoms: N_20  and  C_23
    8  A    between atoms: C_26  and  N_29
                            x       y       z     vdW  Elec       q    Type
                         _______ _______ _______ _____ _____    ______ ____

>  <TORSDO>
F 8

$$$$
=
 OpenBabel11062419453D

 30 33  0  0  1  0  0  0  0  0999 V2000
  187.9360  177.0260  143.4110 C   0  0  0  0  0  0  0  0  0  0  0  0
  184.9800  178.4870  145.2580 C   0  0  0  0  0  0  0  0  0  0  0  0
  184.7390  178.3900  142.7520 C   0  0  0  0  0  2  0  0  0  0  0  0
  184.1860  178.9360  144.0610 C   0  0  0  0  0  2  0  0  0  0  0  0
  186.3630  177.9180  147.5900 C   0  0  0  0  0  3  0  0  0  0  0  0
  184.3960  178.6650  146.5130 C   0  0  0  0  0  3  0  0  0  0  0  0
  186.9090  177.8440  143.7800 C   0  0  0  0  0  0  0  0  0  0  0  0
  188.3920  177.2250  146.4020 C   0  0  0  0  0  2  0  0  0  0  0  0
  186.3120  177.9990  145.1570 C   0  0  0  0  0  0  0  0  0  0  0  0
  187.0040  177.7350  146.3630 C   0  0  0  0  0  0  0  0  0  0  0  0
  185.0870  178.3720  147.6420 N   0  0  0  0  0  0  0  0  0  0  0  0
  188.6410  176.1330  144.2860 N   0  0  0  0  0  2  0  0  0  0  0  0
  186.2340  178.6440  142.6980 C   0  0  0  0  0  2  0  0  0  0  0  0
  188.3990  175.9000  145.6940 C   0  0  1  0  0  3  0  0  0  0  0  0
  189.4570  175.0590  146.2310 N   0  0  0  0  0  2  0  0  0  0  0  0
  190.7280  175.6410  145.8220 C   0  0  1  0  0  3  0  0  0  0  0  0
  191.6030  175.8970  147.0140 C   0  0  0  0  0  0  0  0  0  0  0  0
  192.9870  176.4100  146.8120 C   0  0  0  0  0  1  0  0  0  0  0  0
  191.1910  175.6930  148.1440 O   0  0  0  0  0  0  0  0  0  0  0  0
  191.9020  175.3020  143.6490 O   0  0  0  0  0  0  0  0  0  0  0  0
  191.4130  174.7580  144.8290 C   0  0  0  0  0  0  0  0  0  0  0  0
  191.5730  173.5310  145.0630 O   0  0  0  0  0  1  0  0  0  0  0  0
  188.4170  177.0260  141.9930 C   0  0  0  0  0  2  0  0  0  0  0  0
  189.1090  175.7790  141.7140 N   0  0  0  0  0  2  0  0  0  0  0  0
  188.9250  174.1660  140.0370 O   0  0  0  0  0  0  0  0  0  0  0  0
  188.4070  173.4860  141.1570 C   0  0  2  0  0  3  0  0  0  0  0  0
  188.1920  174.9510  140.9450 C   0  0  1  0  0  3  0  0  0  0  0  0
  190.4880  172.4310  141.3670 C   0  0  0  0  0  1  0  0  0  0  0  0
  188.9410  172.2900  143.0970 C   0  0  0  0  0  1  0  0  0  0  0  0
  189.4860  173.1900  142.0950 N   0  0  0  0  0  0  0  0  0  0  0  0
  1  7  2  0  0  0  0
  1 12  1  0  0  0  0
  2  6  1  0  0  0  0
  3  4  1  0  0  0  0
  4  2  1  0  0  0  0
  5 11  1  0  0  0  0
  6 11  2  0  0  0  0
  7  9  1  0  0  0  0
  9  2  2  0  0  0  0
  9 10  1  0  0  0  0
 10  8  1  0  0  0  0
 10  5  2  0  0  0  0
 12 14  1  0  0  0  0
 13  3  1  0  0  0  0
 13  7  1  0  0  0  0
 14 15  1  1  0  0  0
 14  8  1  0  0  0  0
 16 21  1  6  0  0  0
 16 15  1  0  0  0  0
 16 17  1  0  0  0  0
 17 19  2  0  0  0  0
 18 17  1  0  0  0  0
 20 21  2  0  0  0  0
 21 22  1  0  0  0  0
 23  1  1  0  0  0  0
 24 23  1  0  0  0  0
 25 27  1  0  0  0  0
 25 26  1  0  0  0  0
 26 30  1  1  0  0  0
 27 26  1  0  0  0  0
 27 24  1  1  0  0  0
 28 30  1  0  0  0  0
 30 29  1  0  0  0  0
M  END
>  <MODEL>
2

>  <REMARK>
 VINA RESULT:      -6.9      1.637      4.812
  Name = 
  8 active torsions:
  status: ('A' for Active; 'I' for Inactive)
    1  A    between atoms: C_1  and  C_8
    2  A    between atoms: N_2  and  CA_4
    3  A    between atoms: N_2  and  C_30
    4  A    between atoms: CA_4  and  CB_7
    5  A    between atoms: CA_4  and  C_22
    6  A    between atoms: C_8  and  N_29
    7  A    between atoms: N_20  and  C_23
    8  A    between atoms: C_26  and  N_29
                            x       y       z     vdW  Elec       q    Type
                         _______ _______ _______ _____ _____    ______ ____

>  <TORSDO>
F 8

$$$$
=
 OpenBabel11062419453D

 30 33  0  0  1  0  0  0  0  0999 V2000
  187.8050  176.8830  143.3730 C   0  0  0  0  0  0  0  0  0  0  0  0
  184.8380  178.4460  145.1170 C   0  0  0  0  0  0  0  0  0  0  0  0
  184.6280  178.2450  142.6150 C   0  0  0  0  0  2  0  0  0  0  0  0
  184.0640  178.8500  143.8910 C   0  0  0  0  0  2  0  0  0  0  0  0
  186.1850  177.9650  147.4890 C   0  0  0  0  0  3  0  0  0  0  0  0
  184.2390  178.6810  146.3550 C   0  0  0  0  0  3  0  0  0  0  0  0
  186.7800  177.7250  143.6940 C   0  0  0  0  0  0  0  0  0  0  0  0
  188.2230  177.2060  146.3590 C   0  0  0  0  0  2  0  0  0  0  0  0
  186.1660  177.9430  145.0540 C   0  0  0  0  0  0  0  0  0  0  0  0
  186.8410  177.7240  146.2790 C   0  0  0  0  0  0  0  0  0  0  0  0
  184.9130  178.4310  147.5040 N   0  0  0  0  0  0  0  0  0  0  0  0
  188.4900  176.0220  144.2940 N   0  0  0  0  0  2  0  0  0  0  0  0
  186.1260  178.4840  142.5700 C   0  0  0  0  0  2  0  0  0  0  0  0
  188.2270  175.8510  145.7080 C   0  0  1  0  0  3  0  0  0  0  0  0
  189.2710  175.0250  146.2930 N   0  0  0  0  0  2  0  0  0  0  0  0
  190.3450  174.9180  145.3150 C   0  0  1  0  0  3  0  0  0  0  0  0
  191.5920  175.5820  145.8220 C   0  0  0  0  0  0  0  0  0  0  0  0
  192.0600  175.3040  147.2090 C   0  0  0  0  0  1  0  0  0  0  0  0
  192.2270  176.3430  145.1090 O   0  0  0  0  0  0  0  0  0  0  0  0
  191.8390  173.1080  144.4740 O   0  0  0  0  0  0  0  0  0  0  0  0
  190.5980  173.4860  144.9700 C   0  0  0  0  0  0  0  0  0  0  0  0
  189.7060  172.6140  145.1480 O   0  0  0  0  0  1  0  0  0  0  0  0
  188.3040  176.8190  141.9630 C   0  0  0  0  0  2  0  0  0  0  0  0
  188.1320  175.4720  141.4470 N   0  0  0  0  0  2  0  0  0  0  0  0
  189.2730  173.4440  141.6370 O   0  0  0  0  0  0  0  0  0  0  0  0
  189.6690  173.8850  140.3590 C   0  0  2  0  0  3  0  0  0  0  0  0
  189.4400  174.8330  141.4940 C   0  0  1  0  0  3  0  0  0  0  0  0
  188.0660  172.4290  139.4660 C   0  0  0  0  0  1  0  0  0  0  0  0
  189.0650  174.0250  138.1020 C   0  0  0  0  0  1  0  0  0  0  0  0
  188.5400  173.8020  139.4380 N   0  0  0  0  0  0  0  0  0  0  0  0
  1  7  2  0  0  0  0
  1 12  1  0  0  0  0
  2  6  1  0  0  0  0
  3  4  1  0  0  0  0
  4  2  1  0  0  0  0
  5 11  1  0  0  0  0
  6 11  2  0  0  0  0
  7  9  1  0  0  0  0
  9  2  2  0  0  0  0
  9 10  1  0  0  0  0
 10  8  1  0  0  0  0
 10  5  2  0  0  0  0
 12 14  1  0  0  0  0
 13  3  1  0  0  0  0
 13  7  1  0  0  0  0
 14 15  1  1  0  0  0
 14  8  1  0  0  0  0
 16 21  1  1  0  0  0
 16 17  1  0  0  0  0
 16 15  1  0  0  0  0
 17 18  1  0  0  0  0
 19 17  2  0  0  0  0
 20 21  2  0  0  0  0
 21 22  1  0  0  0  0
 23  1  1  0  0  0  0
 24 23  1  0  0  0  0
 26 30  1  6  0  0  0
 26 27  1  0  0  0  0
 26 25  1  0  0  0  0
 27 24  1  6  0  0  0
 27 25  1  0  0  0  0
 29 30  1  0  0  0  0
 30 28  1  0  0  0  0
M  END
>  <MODEL>
3

>  <REMARK>
 VINA RESULT:      -6.7      1.695      4.872
  Name = 
  8 active torsions:
  status: ('A' for Active; 'I' for Inactive)
    1  A    between atoms: C_1  and  C_8
    2  A    between atoms: N_2  and  CA_4
    3  A    between atoms: N_2  and  C_30
    4  A    between atoms: CA_4  and  CB_7
    5  A    between atoms: CA_4  and  C_22
    6  A    between atoms: C_8  and  N_29
    7  A    between atoms: N_20  and  C_23
    8  A    between atoms: C_26  and  N_29
                            x       y       z     vdW  Elec       q    Type
                         _______ _______ _______ _____ _____    ______ ____

>  <TORSDO>
F 8

$$$$
=
 OpenBabel11062419453D

 30 33  0  0  1  0  0  0  0  0999 V2000
  188.4820  176.4960  145.2830 C   0  0  0  0  0  0  0  0  0  0  0  0
  192.2440  176.4370  145.6430 C   0  0  0  0  0  0  0  0  0  0  0  0
  190.9570  176.2790  147.8030 C   0  0  0  0  0  2  0  0  0  0  0  0
  192.3120  176.4970  147.1460 C   0  0  0  0  0  2  0  0  0  0  0  0
  192.3470  176.5190  142.8760 C   0  0  0  0  0  3  0  0  0  0  0  0
  193.4520  176.3130  144.9560 C   0  0  0  0  0  3  0  0  0  0  0  0
  189.7520  176.7570  145.7090 C   0  0  0  0  0  0  0  0  0  0  0  0
  189.9280  176.8340  142.6400 C   0  0  0  0  0  2  0  0  0  0  0  0
  191.0300  176.6040  144.9230 C   0  0  0  0  0  0  0  0  0  0  0  0
  191.1110  176.6630  143.5110 C   0  0  0  0  0  0  0  0  0  0  0  0
  193.4800  176.3460  143.6010 N   0  0  0  0  0  0  0  0  0  0  0  0
  188.1280  176.0040  143.9820 N   0  0  0  0  0  2  0  0  0  0  0  0
  189.9310  177.1820  147.1420 C   0  0  0  0  0  2  0  0  0  0  0  0
  189.0180  175.6650  142.8920 C   0  0  1  0  0  3  0  0  0  0  0  0
  188.2340  175.3850  141.7010 N   0  0  0  0  0  2  0  0  0  0  0  0
  188.8190  174.2170  141.0560 C   0  0  1  0  0  3  0  0  0  0  0  0
  188.4300  172.9610  141.7780 C   0  0  0  0  0  0  0  0  0  0  0  0
  189.4920  172.0540  142.2980 C   0  0  0  0  0  1  0  0  0  0  0  0
  187.2550  172.6770  141.9460 O   0  0  0  0  0  0  0  0  0  0  0  0
  187.7420  175.2290  139.0480 O   0  0  0  0  0  1  0  0  0  0  0  0
  188.4200  174.1590  139.6170 C   0  0  0  0  0  0  0  0  0  0  0  0
  188.7130  173.1590  138.9080 O   0  0  0  0  0  0  0  0  0  0  0  0
  187.3230  176.7340  146.2020 C   0  0  0  0  0  2  0  0  0  0  0  0
  186.0920  176.7670  145.4330 N   0  0  0  0  0  2  0  0  0  0  0  0
  186.2070  179.0770  145.1090 O   0  0  0  0  0  0  0  0  0  0  0  0
  184.9940  178.7510  144.4710 C   0  0  2  0  0  3  0  0  0  0  0  0
  185.4580  178.0480  145.7090 C   0  0  1  0  0  3  0  0  0  0  0  0
  186.2720  178.7490  142.5090 C   0  0  0  0  0  1  0  0  0  0  0  0
  184.0570  178.0500  142.4450 C   0  0  0  0  0  1  0  0  0  0  0  0
  185.2670  178.0050  143.2470 N   0  0  0  0  0  0  0  0  0  0  0  0
  1  7  2  0  0  0  0
  1 23  1  0  0  0  0
  2  4  1  0  0  0  0
  4  3  1  0  0  0  0
  5 10  2  0  0  0  0
  5 11  1  0  0  0  0
  6  2  1  0  0  0  0
  7 13  1  0  0  0  0
  8 14  1  0  0  0  0
  8 10  1  0  0  0  0
  9  2  2  0  0  0  0
  9  7  1  0  0  0  0
 10  9  1  0  0  0  0
 11  6  2  0  0  0  0
 12  1  1  0  0  0  0
 13  3  1  0  0  0  0
 14 15  1  6  0  0  0
 14 12  1  0  0  0  0
 16 21  1  6  0  0  0
 16 15  1  0  0  0  0
 16 17  1  0  0  0  0
 17 19  2  0  0  0  0
 17 18  1  0  0  0  0
 20 21  1  0  0  0  0
 22 21  2  0  0  0  0
 24 23  1  0  0  0  0
 25 27  1  0  0  0  0
 26 30  1  6  0  0  0
 26 25  1  0  0  0  0
 26 27  1  0  0  0  0
 27 24  1  6  0  0  0
 28 30  1  0  0  0  0
 29 30  1  0  0  0  0
M  END
>  <MODEL>
4

>  <REMARK>
 VINA RESULT:      -6.6      2.233      5.565
  Name = 
  8 active torsions:
  status: ('A' for Active; 'I' for Inactive)
    1  A    between atoms: C_1  and  C_8
    2  A    between atoms: N_2  and  CA_4
    3  A    between atoms: N_2  and  C_30
    4  A    between atoms: CA_4  and  CB_7
    5  A    between atoms: CA_4  and  C_22
    6  A    between atoms: C_8  and  N_29
    7  A    between atoms: N_20  and  C_23
    8  A    between atoms: C_26  and  N_29
                            x       y       z     vdW  Elec       q    Type
                         _______ _______ _______ _____ _____    ______ ____

>  <TORSDO>
F 8

$$$$
=
 OpenBabel11062419453D

 30 33  0  0  1  0  0  0  0  0999 V2000
  189.0800  175.7910  144.9330 C   0  0  0  0  0  0  0  0  0  0  0  0
  189.0920  172.9700  142.4180 C   0  0  0  0  0  0  0  0  0  0  0  0
  189.5840  172.2910  144.7930 C   0  0  0  0  0  2  0  0  0  0  0  0
  189.5870  171.8790  143.3280 C   0  0  0  0  0  2  0  0  0  0  0  0
  188.3620  174.8650  140.5330 C   0  0  0  0  0  3  0  0  0  0  0  0
  188.7610  172.6070  141.1120 C   0  0  0  0  0  3  0  0  0  0  0  0
  189.4410  174.6830  144.2230 C   0  0  0  0  0  0  0  0  0  0  0  0
  188.6190  176.7400  142.0910 C   0  0  0  0  0  2  0  0  0  0  0  0
  189.0530  174.3370  142.8070 C   0  0  0  0  0  0  0  0  0  0  0  0
  188.6970  175.2870  141.8210 C   0  0  0  0  0  0  0  0  0  0  0  0
  188.3970  173.5490  140.2070 N   0  0  0  0  0  0  0  0  0  0  0  0
  188.2330  176.8450  144.4520 N   0  0  0  0  0  2  0  0  0  0  0  0
  190.2640  173.6400  144.9330 C   0  0  0  0  0  2  0  0  0  0  0  0
  187.5830  176.9370  143.1620 C   0  0  1  0  0  3  0  0  0  0  0  0
  186.9750  178.2500  143.0240 N   0  0  0  0  0  2  0  0  0  0  0  0
  185.5570  178.1100  143.3260 C   0  0  1  0  0  3  0  0  0  0  0  0
  185.1220  179.1440  144.3220 C   0  0  0  0  0  0  0  0  0  0  0  0
  184.3050  178.7320  145.4980 C   0  0  0  0  0  1  0  0  0  0  0  0
  185.4320  180.3160  144.1820 O   0  0  0  0  0  0  0  0  0  0  0  0
  185.3820  178.3420  140.8500 O   0  0  0  0  0  0  0  0  0  0  0  0
  184.7440  178.1920  142.0740 C   0  0  0  0  0  0  0  0  0  0  0  0
  183.4880  178.1010  142.1150 O   0  0  0  0  0  1  0  0  0  0  0  0
  189.5880  175.9810  146.3300 C   0  0  0  0  0  2  0  0  0  0  0  0
  190.7430  176.8600  146.3110 N   0  0  0  0  0  2  0  0  0  0  0  0
  192.0810  175.1980  147.2600 O   0  0  0  0  0  0  0  0  0  0  0  0
  192.9990  176.2520  147.0880 C   0  0  2  0  0  3  0  0  0  0  0  0
  191.5690  176.4940  147.4530 C   0  0  1  0  0  3  0  0  0  0  0  0
  193.6650  175.1480  145.1330 C   0  0  0  0  0  1  0  0  0  0  0  0
  194.4440  177.2940  145.5700 C   0  0  0  0  0  1  0  0  0  0  0  0
  193.2730  176.4400  145.6670 N   0  0  0  0  0  0  0  0  0  0  0  0
  1 23  1  0  0  0  0
  2  9  1  0  0  0  0
  2  4  1  0  0  0  0
  3 13  1  0  0  0  0
  4  3  1  0  0  0  0
  5 10  1  0  0  0  0
  6  2  2  0  0  0  0
  7  1  2  0  0  0  0
  7 13  1  0  0  0  0
  8 14  1  0  0  0  0
  9  7  1  0  0  0  0
 10  8  1  0  0  0  0
 10  9  2  0  0  0  0
 11  5  2  0  0  0  0
 11  6  1  0  0  0  0
 12  1  1  0  0  0  0
 14 15  1  6  0  0  0
 14 12  1  0  0  0  0
 15 16  1  0  0  0  0
 16 21  1  6  0  0  0
 16 17  1  0  0  0  0
 17 18  1  0  0  0  0
 19 17  2  0  0  0  0
 20 21  2  0  0  0  0
 21 22  1  0  0  0  0
 24 23  1  0  0  0  0
 25 27  1  0  0  0  0
 26 30  1  6  0  0  0
 26 25  1  0  0  0  0
 26 27  1  0  0  0  0
 27 24  1  6  0  0  0
 28 30  1  0  0  0  0
 29 30  1  0  0  0  0
M  END
>  <MODEL>
5

>  <REMARK>
 VINA RESULT:      -6.6      2.751      5.403
  Name = 
  8 active torsions:
  status: ('A' for Active; 'I' for Inactive)
    1  A    between atoms: C_1  and  C_8
    2  A    between atoms: N_2  and  CA_4
    3  A    between atoms: N_2  and  C_30
    4  A    between atoms: CA_4  and  CB_7
    5  A    between atoms: CA_4  and  C_22
    6  A    between atoms: C_8  and  N_29
    7  A    between atoms: N_20  and  C_23
    8  A    between atoms: C_26  and  N_29
                            x       y       z     vdW  Elec       q    Type
                         _______ _______ _______ _____ _____    ______ ____

>  <TORSDO>
F 8

$$$$
=
 OpenBabel11062419453D

 30 33  0  0  1  0  0  0  0  0999 V2000
  188.4690  176.4770  145.0860 C   0  0  0  0  0  0  0  0  0  0  0  0
  192.1990  176.4100  145.6910 C   0  0  0  0  0  0  0  0  0  0  0  0
  190.7730  176.1320  147.7490 C   0  0  0  0  0  2  0  0  0  0  0  0
  192.1670  176.3890  147.1960 C   0  0  0  0  0  2  0  0  0  0  0  0
  192.4840  176.6410  142.9450 C   0  0  0  0  0  3  0  0  0  0  0  0
  193.4510  176.3260  145.0800 C   0  0  0  0  0  3  0  0  0  0  0  0
  189.7060  176.7180  145.6080 C   0  0  0  0  0  0  0  0  0  0  0  0
  190.0840  176.9620  142.5670 C   0  0  0  0  0  2  0  0  0  0  0  0
  191.0340  176.6120  144.9010 C   0  0  0  0  0  0  0  0  0  0  0  0
  191.2080  176.7470  143.5030 C   0  0  0  0  0  0  0  0  0  0  0  0
  193.5670  176.4330  143.7340 N   0  0  0  0  0  0  0  0  0  0  0  0
  188.2040  176.0550  143.7400 N   0  0  0  0  0  2  0  0  0  0  0  0
  189.7880  177.0660  147.0710 C   0  0  0  0  0  2  0  0  0  0  0  0
  189.1670  175.7780  142.6950 C   0  0  1  0  0  3  0  0  0  0  0  0
  188.4650  175.5600  141.4410 N   0  0  0  0  0  2  0  0  0  0  0  0
  188.5870  174.1460  141.1110 C   0  0  1  0  0  3  0  0  0  0  0  0
  188.2860  173.9120  139.6600 C   0  0  0  0  0  0  0  0  0  0  0  0
  188.2840  172.5210  139.1250 C   0  0  0  0  0  1  0  0  0  0  0  0
  188.0410  174.8470  138.9150 O   0  0  0  0  0  0  0  0  0  0  0  0
  190.0850  172.6940  142.4750 O   0  0  0  0  0  1  0  0  0  0  0  0
  189.9480  173.6410  141.4690 C   0  0  0  0  0  0  0  0  0  0  0  0
  190.9670  174.0470  140.8510 O   0  0  0  0  0  0  0  0  0  0  0  0
  187.2500  176.6620  145.9370 C   0  0  0  0  0  2  0  0  0  0  0  0
  186.0870  176.8450  145.0880 N   0  0  0  0  0  2  0  0  0  0  0  0
  186.4400  179.0750  144.4930 O   0  0  0  0  0  0  0  0  0  0  0  0
  185.1350  178.8450  144.0130 C   0  0  2  0  0  3  0  0  0  0  0  0
  185.6420  178.2180  145.2730 C   0  0  1  0  0  3  0  0  0  0  0  0
  186.1900  178.4770  141.9540 C   0  0  0  0  0  1  0  0  0  0  0  0
  183.9110  178.0710  142.1740 C   0  0  0  0  0  1  0  0  0  0  0  0
  185.1860  177.9500  142.8610 N   0  0  0  0  0  0  0  0  0  0  0  0
  1  7  2  0  0  0  0
  1 23  1  0  0  0  0
  2  4  1  0  0  0  0
  4  3  1  0  0  0  0
  5 10  2  0  0  0  0
  5 11  1  0  0  0  0
  6  2  1  0  0  0  0
  7 13  1  0  0  0  0
  8 14  1  0  0  0  0
  8 10  1  0  0  0  0
  9  7  1  0  0  0  0
  9  2  2  0  0  0  0
 10  9  1  0  0  0  0
 11  6  2  0  0  0  0
 12  1  1  0  0  0  0
 13  3  1  0  0  0  0
 14 15  1  6  0  0  0
 14 12  1  0  0  0  0
 16 17  1  6  0  0  0
 16 15  1  0  0  0  0
 16 21  1  0  0  0  0
 18 17  1  0  0  0  0
 19 17  2  0  0  0  0
 21 20  1  0  0  0  0
 22 21  2  0  0  0  0
 24 23  1  0  0  0  0
 25 27  1  0  0  0  0
 26 30  1  6  0  0  0
 26 25  1  0  0  0  0
 26 27  1  0  0  0  0
 27 24  1  6  0  0  0
 28 30  1  0  0  0  0
 29 30  1  0  0  0  0
M  END
>  <MODEL>
6

>  <REMARK>
 VINA RESULT:      -6.1      1.953      5.457
  Name = 
  8 active torsions:
  status: ('A' for Active; 'I' for Inactive)
    1  A    between atoms: C_1  and  C_8
    2  A    between atoms: N_2  and  CA_4
    3  A    between atoms: N_2  and  C_30
    4  A    between atoms: CA_4  and  CB_7
    5  A    between atoms: CA_4  and  C_22
    6  A    between atoms: C_8  and  N_29
    7  A    between atoms: N_20  and  C_23
    8  A    between atoms: C_26  and  N_29
                            x       y       z     vdW  Elec       q    Type
                         _______ _______ _______ _____ _____    ______ ____

>  <TORSDO>
F 8

$$$$
=
 OpenBabel11062419453D

 30 33  0  0  1  0  0  0  0  0999 V2000
  189.0140  176.4200  142.3470 C   0  0  0  0  0  0  0  0  0  0  0  0
  189.5580  172.7730  141.5170 C   0  0  0  0  0  0  0  0  0  0  0  0
  188.7270  174.1950  139.6110 C   0  0  0  0  0  2  0  0  0  0  0  0
  188.9820  172.7870  140.1270 C   0  0  0  0  0  2  0  0  0  0  0  0
  190.4800  172.4870  144.1140 C   0  0  0  0  0  3  0  0  0  0  0  0
  190.1140  171.5740  141.9640 C   0  0  0  0  0  3  0  0  0  0  0  0
  188.8310  175.1520  141.8780 C   0  0  0  0  0  0  0  0  0  0  0  0
  189.8760  174.7770  144.7450 C   0  0  0  0  0  2  0  0  0  0  0  0
  189.4600  173.8840  142.3990 C   0  0  0  0  0  0  0  0  0  0  0  0
  189.9200  173.7060  143.7260 C   0  0  0  0  0  0  0  0  0  0  0  0
  190.5670  171.4580  143.2360 N   0  0  0  0  0  0  0  0  0  0  0  0
  189.8700  176.7850  143.4400 N   0  0  0  0  0  2  0  0  0  0  0  0
  187.9620  174.9800  140.6610 C   0  0  0  0  0  2  0  0  0  0  0  0
  190.7130  175.9140  144.2310 C   0  0  1  0  0  3  0  0  0  0  0  0
  191.2650  176.6640  145.3480 N   0  0  0  0  0  2  0  0  0  0  0  0
  191.7730  175.7000  146.3150 C   0  0  1  0  0  3  0  0  0  0  0  0
  193.2710  175.6360  146.2630 C   0  0  0  0  0  0  0  0  0  0  0  0
  193.9340  174.4770  145.6020 C   0  0  0  0  0  1  0  0  0  0  0  0
  193.9510  176.5240  146.7520 O   0  0  0  0  0  0  0  0  0  0  0  0
  190.7920  177.3040  147.9520 O   0  0  0  0  0  0  0  0  0  0  0  0
  191.2940  176.0360  147.6910 C   0  0  0  0  0  0  0  0  0  0  0  0
  191.3200  175.1740  148.6080 O   0  0  0  0  0  1  0  0  0  0  0  0
  188.2790  177.5620  141.7170 C   0  0  0  0  0  2  0  0  0  0  0  0
  187.3980  178.1740  142.6960 N   0  0  0  0  0  2  0  0  0  0  0  0
  185.7230  176.5690  142.9610 O   0  0  0  0  0  0  0  0  0  0  0  0
  185.1230  177.7160  143.5180 C   0  0  2  0  0  3  0  0  0  0  0  0
  186.0400  177.7910  142.3380 C   0  0  1  0  0  3  0  0  0  0  0  0
  185.6860  176.8740  145.6300 C   0  0  0  0  0  1  0  0  0  0  0  0
  184.9700  179.0750  145.4170 C   0  0  0  0  0  1  0  0  0  0  0  0
  185.7760  178.0480  144.7800 N   0  0  0  0  0  0  0  0  0  0  0  0
  1 12  1  0  0  0  0
  2  6  2  0  0  0  0
  2  9  1  0  0  0  0
  3  4  1  0  0  0  0
  3 13  1  0  0  0  0
  4  2  1  0  0  0  0
  6 11  1  0  0  0  0
  7  1  2  0  0  0  0
  7  9  1  0  0  0  0
  9 10  2  0  0  0  0
 10  5  1  0  0  0  0
 10  8  1  0  0  0  0
 11  5  2  0  0  0  0
 12 14  1  0  0  0  0
 13  7  1  0  0  0  0
 14  8  1  0  0  0  0
 14 15  1  1  0  0  0
 16 15  1  6  0  0  0
 16 21  1  0  0  0  0
 17 16  1  0  0  0  0
 17 19  2  0  0  0  0
 18 17  1  0  0  0  0
 21 20  2  0  0  0  0
 21 22  1  0  0  0  0
 23  1  1  0  0  0  0
 23 24  1  0  0  0  0
 25 26  1  0  0  0  0
 26 30  1  1  0  0  0
 27 24  1  1  0  0  0
 27 25  1  0  0  0  0
 27 26  1  0  0  0  0
 30 29  1  0  0  0  0
 30 28  1  0  0  0  0
M  END
>  <MODEL>
7

>  <REMARK>
 VINA RESULT:      -6.0      2.275      6.896
  Name = 
  8 active torsions:
  status: ('A' for Active; 'I' for Inactive)
    1  A    between atoms: C_1  and  C_8
    2  A    between atoms: N_2  and  CA_4
    3  A    between atoms: N_2  and  C_30
    4  A    between atoms: CA_4  and  CB_7
    5  A    between atoms: CA_4  and  C_22
    6  A    between atoms: C_8  and  N_29
    7  A    between atoms: N_20  and  C_23
    8  A    between atoms: C_26  and  N_29
                            x       y       z     vdW  Elec       q    Type
                         _______ _______ _______ _____ _____    ______ ____

>  <TORSDO>
F 8

$$$$
=
 OpenBabel11062419453D

 30 33  0  0  1  0  0  0  0  0999 V2000
  188.6470  174.6320  141.7960 C   0  0  0  0  0  0  0  0  0  0  0  0
  190.0870  171.7880  139.7650 C   0  0  0  0  0  0  0  0  0  0  0  0
  189.3440  173.7910  138.4300 C   0  0  0  0  0  2  0  0  0  0  0  0
  189.7890  172.3360  138.3960 C   0  0  0  0  0  2  0  0  0  0  0  0
  190.5520  170.5140  142.1810 C   0  0  0  0  0  3  0  0  0  0  0  0
  190.7900  170.5840  139.8300 C   0  0  0  0  0  3  0  0  0  0  0  0
  188.8240  173.6790  140.8350 C   0  0  0  0  0  0  0  0  0  0  0  0
  189.3750  172.2220  143.4860 C   0  0  0  0  0  2  0  0  0  0  0  0
  189.5980  172.3900  140.9560 C   0  0  0  0  0  0  0  0  0  0  0  0
  189.8300  171.7090  142.1760 C   0  0  0  0  0  0  0  0  0  0  0  0
  191.0140  169.9810  141.0230 N   0  0  0  0  0  0  0  0  0  0  0  0
  189.1900  174.5820  143.1230 N   0  0  0  0  0  2  0  0  0  0  0  0
  188.2510  173.9530  139.4700 C   0  0  0  0  0  2  0  0  0  0  0  0
  190.0360  173.5560  143.6950 C   0  0  1  0  0  3  0  0  0  0  0  0
  190.2010  173.8070  145.1170 N   0  0  0  0  0  2  0  0  0  0  0  0
  189.8830  175.2090  145.3540 C   0  0  1  0  0  3  0  0  0  0  0  0
  188.9370  175.3510  146.5100 C   0  0  0  0  0  0  0  0  0  0  0  0
  187.9780  176.4910  146.5380 C   0  0  0  0  0  1  0  0  0  0  0  0
  188.9410  174.5410  147.4230 O   0  0  0  0  0  0  0  0  0  0  0  0
  191.5260  176.3060  146.8750 O   0  0  0  0  0  1  0  0  0  0  0  0
  191.1320  175.9990  145.5790 C   0  0  0  0  0  0  0  0  0  0  0  0
  191.8440  176.3670  144.6070 O   0  0  0  0  0  0  0  0  0  0  0  0
  187.8190  175.8440  141.5000 C   0  0  0  0  0  2  0  0  0  0  0  0
  187.2070  176.3250  142.7270 N   0  0  0  0  0  2  0  0  0  0  0  0
  186.6550  178.4510  141.9350 O   0  0  0  0  0  0  0  0  0  0  0  0
  186.3400  178.5560  143.3040 C   0  0  2  0  0  3  0  0  0  0  0  0
  187.5000  177.7480  142.8130 C   0  0  1  0  0  3  0  0  0  0  0  0
  184.0650  178.2910  142.8110 C   0  0  0  0  0  1  0  0  0  0  0  0
  184.8170  177.9960  144.9910 C   0  0  0  0  0  1  0  0  0  0  0  0
  185.1590  177.7510  143.6000 N   0  0  0  0  0  0  0  0  0  0  0  0
  1 12  1  0  0  0  0
  2  6  2  0  0  0  0
  2  9  1  0  0  0  0
  3 13  1  0  0  0  0
  4  3  1  0  0  0  0
  4  2  1  0  0  0  0
  6 11  1  0  0  0  0
  7  9  1  0  0  0  0
  7  1  2  0  0  0  0
  8 14  1  0  0  0  0
  9 10  2  0  0  0  0
 10  5  1  0  0  0  0
 10  8  1  0  0  0  0
 11  5  2  0  0  0  0
 12 14  1  0  0  0  0
 13  7  1  0  0  0  0
 14 15  1  1  0  0  0
 16 15  1  1  0  0  0
 16 21  1  0  0  0  0
 16 17  1  0  0  0  0
 17 18  1  0  0  0  0
 17 19  2  0  0  0  0
 21 20  1  0  0  0  0
 22 21  2  0  0  0  0
 23  1  1  0  0  0  0
 23 24  1  0  0  0  0
 25 27  1  0  0  0  0
 25 26  1  0  0  0  0
 26 30  1  6  0  0  0
 27 24  1  6  0  0  0
 27 26  1  0  0  0  0
 28 30  1  0  0  0  0
 30 29  1  0  0  0  0
M  END
>  <MODEL>
8

>  <REMARK>
 VINA RESULT:      -5.9      2.501      7.251
  Name = 
  8 active torsions:
  status: ('A' for Active; 'I' for Inactive)
    1  A    between atoms: C_1  and  C_8
    2  A    between atoms: N_2  and  CA_4
    3  A    between atoms: N_2  and  C_30
    4  A    between atoms: CA_4  and  CB_7
    5  A    between atoms: CA_4  and  C_22
    6  A    between atoms: C_8  and  N_29
    7  A    between atoms: N_20  and  C_23
    8  A    between atoms: C_26  and  N_29
                            x       y       z     vdW  Elec       q    Type
                         _______ _______ _______ _____ _____    ______ ____

>  <TORSDO>
F 8

$$$$
=
 OpenBabel11062419453D

 30 33  0  0  1  0  0  0  0  0999 V2000
  189.9560  177.6940  143.3710 C   0  0  0  0  0  0  0  0  0  0  0  0
  189.5980  175.9770  146.7190 C   0  0  0  0  0  0  0  0  0  0  0  0
  187.4320  176.6460  145.6180 C   0  0  0  0  0  2  0  0  0  0  0  0
  188.1130  176.1570  146.8880 C   0  0  0  0  0  2  0  0  0  0  0  0
  192.3550  175.7140  146.6960 C   0  0  0  0  0  3  0  0  0  0  0  0
  190.2670  175.2490  147.7020 C   0  0  0  0  0  3  0  0  0  0  0  0
  189.5660  177.3950  144.6430 C   0  0  0  0  0  0  0  0  0  0  0  0
  192.6230  177.0640  144.6680 C   0  0  0  0  0  2  0  0  0  0  0  0
  190.3310  176.5990  145.6710 C   0  0  0  0  0  0  0  0  0  0  0  0
  191.7400  176.4670  145.6930 C   0  0  0  0  0  0  0  0  0  0  0  0
  191.6170  175.1250  147.6680 N   0  0  0  0  0  0  0  0  0  0  0  0
  191.1900  177.2830  142.7620 N   0  0  0  0  0  2  0  0  0  0  0  0
  188.1930  177.8400  145.0730 C   0  0  0  0  0  2  0  0  0  0  0  0
  192.2330  176.4670  143.3450 C   0  0  1  0  0  3  0  0  0  0  0  0
  193.3820  176.4490  142.4540 N   0  0  0  0  0  2  0  0  0  0  0  0
  194.5040  175.8920  143.1980 C   0  0  1  0  0  3  0  0  0  0  0  0
  194.4750  174.3930  143.1590 C   0  0  0  0  0  0  0  0  0  0  0  0
  194.5150  173.6240  144.4350 C   0  0  0  0  0  1  0  0  0  0  0  0
  194.4160  173.7970  142.0950 O   0  0  0  0  0  0  0  0  0  0  0  0
  196.8990  176.5120  143.5090 O   0  0  0  0  0  1  0  0  0  0  0  0
  195.7980  176.4210  142.6680 C   0  0  0  0  0  0  0  0  0  0  0  0
  195.9070  176.7620  141.4600 O   0  0  0  0  0  0  0  0  0  0  0  0
  189.0700  178.5250  142.4940 C   0  0  0  0  0  2  0  0  0  0  0  0
  188.6870  177.7580  141.3230 N   0  0  0  0  0  2  0  0  0  0  0  0
  186.9600  176.4180  140.5020 O   0  0  0  0  0  0  0  0  0  0  0  0
  187.3820  175.6930  141.6340 C   0  0  2  0  0  3  0  0  0  0  0  0
  187.3760  177.1890  141.6020 C   0  0  1  0  0  3  0  0  0  0  0  0
  188.5650  174.2220  140.2480 C   0  0  0  0  0  1  0  0  0  0  0  0
  189.0140  174.2740  142.5280 C   0  0  0  0  0  1  0  0  0  0  0  0
  188.6980  175.1140  141.3860 N   0  0  0  0  0  0  0  0  0  0  0  0
  1  7  2  0  0  0  0
  2  4  1  0  0  0  0
  2  6  1  0  0  0  0
  3  4  1  0  0  0  0
  5 11  1  0  0  0  0
  7 13  1  0  0  0  0
  7  9  1  0  0  0  0
  8 10  1  0  0  0  0
  9 10  1  0  0  0  0
  9  2  2  0  0  0  0
 10  5  2  0  0  0  0
 11  6  2  0  0  0  0
 12 14  1  0  0  0  0
 12  1  1  0  0  0  0
 13  3  1  0  0  0  0
 14 15  1  6  0  0  0
 14  8  1  0  0  0  0
 16 15  1  6  0  0  0
 17 16  1  0  0  0  0
 17 18  1  0  0  0  0
 19 17  2  0  0  0  0
 21 16  1  0  0  0  0
 21 20  1  0  0  0  0
 22 21  2  0  0  0  0
 23  1  1  0  0  0  0
 24 23  1  0  0  0  0
 25 27  1  0  0  0  0
 25 26  1  0  0  0  0
 26 30  1  6  0  0  0
 27 24  1  6  0  0  0
 27 26  1  0  0  0  0
 28 30  1  0  0  0  0
 30 29  1  0  0  0  0
M  END
>  <MODEL>
9

>  <REMARK>
 VINA RESULT:      -5.8      2.644      5.959
  Name = 
  8 active torsions:
  status: ('A' for Active; 'I' for Inactive)
    1  A    between atoms: C_1  and  C_8
    2  A    between atoms: N_2  and  CA_4
    3  A    between atoms: N_2  and  C_30
    4  A    between atoms: CA_4  and  CB_7
    5  A    between atoms: CA_4  and  C_22
    6  A    between atoms: C_8  and  N_29
    7  A    between atoms: N_20  and  C_23
    8  A    between atoms: C_26  and  N_29
                            x       y       z     vdW  Elec       q    Type
                         _______ _______ _______ _____ _____    ______ ____

>  <TORSDO>
F 8

$$$$
