=
 OpenBabel11062418593D

 51 57  0  0  1  0  0  0  0  0999 V2000
  194.9930  177.9560  145.4760 O   0  0  0  0  0  0  0  0  0  0  0  0
  193.6590  176.2730  146.9600 O   0  0  0  0  0  1  0  0  0  0  0  0
  191.4470  174.9320  143.6390 C   0  0  0  0  0  2  0  0  0  0  0  0
  192.3730  177.1050  144.7170 C   0  0  1  0  0  3  0  0  0  0  0  0
  193.9390  176.6350  145.5180 P   0  0  1  0  0  0  0  0  0  0  0  0
  194.7290  175.2180  144.6810 C   0  0  2  0  0  3  0  0  0  0  0  0
  193.7040  174.0930  144.4230 C   0  0  1  0  0  3  0  0  0  0  0  0
  192.8640  174.5450  143.2330 C   0  0  0  0  0  2  0  0  0  0  0  0
  195.9560  174.8010  145.4770 C   0  0  0  0  0  1  0  0  0  0  0  0
  192.5960  177.5230  143.4160 F   0  0  0  0  0  0  0  0  0  0  0  0
  191.3700  175.9470  144.7860 C   0  0  1  0  0  3  0  0  0  0  0  0
  194.3400  172.6860  144.2220 C   0  0  1  0  0  3  0  0  0  0  0  0
  193.9060  171.7780  145.3710 C   0  0  0  0  0  1  0  0  0  0  0  0
  195.6000  172.9010  141.2000 C   0  0  2  0  0  0  0  0  0  0  0  0
  195.1070  171.0350  142.6170 O   0  0  0  0  0  0  0  0  0  0  0  0
  192.7560  171.2180  142.9250 C   0  0  0  0  0  1  0  0  0  0  0  0
  194.0850  171.9770  142.8560 C   0  0  1  0  0  0  0  0  0  0  0  0
  193.4850  173.4650  139.4640 O   0  0  0  0  0  0  0  0  0  0  0  0
  194.1550  172.9900  141.6970 C   0  0  2  0  0  3  0  0  0  0  0  0
  195.7810  172.5600  139.6870 C   0  0  1  0  0  3  0  0  0  0  0  0
  193.1500  172.7000  140.5780 C   0  0  0  0  0  2  0  0  0  0  0  0
  196.1540  171.7200  141.9740 C   0  0  0  0  0  2  0  0  0  0  0  0
  194.5210  172.7710  138.8110 C   0  0  2  0  0  3  0  0  0  0  0  0
  195.7380  173.6730  138.6260 C   0  0  1  0  0  0  0  0  0  0  0  0
  195.5230  175.1420  138.9930 C   0  0  0  0  0  1  0  0  0  0  0  0
  197.0930  174.5360  136.8080 O   0  0  0  0  0  0  0  0  0  0  0  0
  197.9410  173.5010  137.2520 C   0  0  0  0  0  2  0  0  0  0  0  0
  196.4690  173.3840  137.3190 C   0  0  1  0  0  0  0  0  0  0  0  0
  195.8350  172.6750  136.3160 F   0  0  0  0  0  0  0  0  0  0  0  0
  196.4130  174.1460  141.5830 C   0  0  0  0  0  2  0  0  0  0  0  0
  197.7890  173.9100  141.5530 O   0  0  0  0  0  1  0  0  0  0  0  0
  189.9310  176.4190  145.0020 C   0  0  2  0  0  3  0  0  0  0  0  0
  189.5800  177.7370  144.2640 C   0  0  2  0  0  3  0  0  0  0  0  0
  188.3760  177.6630  143.3760 C   0  0  1  0  0  3  0  0  0  0  0  0
  189.6860  177.5760  142.8670 O   0  0  0  0  0  0  0  0  0  0  0  0
  187.7060  176.2920  143.2790 C   0  0  1  0  0  3  0  0  0  0  0  0
  186.1780  176.4120  143.2860 C   0  0  2  0  0  3  0  0  0  0  0  0
  185.7370  176.8650  142.0420 O   0  0  0  0  0  1  0  0  0  0  0  0
  185.6510  177.3400  144.3780 C   0  0  0  0  0  2  0  0  0  0  0  0
  185.6870  176.7050  145.6510 O   0  0  0  0  0  0  0  0  0  0  0  0
  185.9940  176.7160  148.0380 O   0  0  0  0  0  1  0  0  0  0  0  0
  186.1830  178.6420  146.8140 O   0  0  0  0  0  0  0  0  0  0  0  0
  185.9600  177.4010  146.8310 C   0  0  0  0  0  0  0  0  0  0  0  0
  188.1770  175.5740  142.0990 N   0  0  0  0  0  2  0  0  0  0  0  0
  188.0370  174.1500  142.3710 C   0  0  0  0  0  2  0  0  0  0  0  0
  188.0020  173.4150  141.1560 O   0  0  0  0  0  0  0  0  0  0  0  0
  188.9960  173.5590  140.2260 C   0  0  0  0  0  0  0  0  0  0  0  0
  189.8390  173.6790  139.4410 N   0  0  0  0  0  0  0  0  0  0  0  0
  188.8720  175.0810  146.9110 C   0  0  0  0  0  2  0  0  0  0  0  0
  189.5810  176.3620  146.5030 C   0  0  0  0  0  3  0  0  0  0  0  0
  190.3460  175.2670  147.2230 C   0  0  0  0  0  2  0  0  0  0  0  0
  3 11  1  0  0  0  0
  4 10  1  6  0  0  0
  4 11  1  0  0  0  0
  4  5  1  0  0  0  0
  5  1  2  6  0  0  0
  5  2  1  0  0  0  0
  6  9  1  1  0  0  0
  6  5  1  0  0  0  0
  7 12  1  6  0  0  0
  7  6  1  0  0  0  0
  8  3  1  0  0  0  0
  8  7  1  0  0  0  0
 11 32  1  6  0  0  0
 12 13  1  1  0  0  0
 14 30  1  1  0  0  0
 14 19  1  0  0  0  0
 14 22  1  0  0  0  0
 15 17  1  0  0  0  0
 17 16  1  1  0  0  0
 17 12  1  0  0  0  0
 18 21  1  0  0  0  0
 19 21  1  6  0  0  0
 19 17  1  0  0  0  0
 20 14  1  0  0  0  0
 22 15  1  0  0  0  0
 23 18  1  0  0  0  0
 23 20  1  0  0  0  0
 24 23  1  0  0  0  0
 24 25  1  0  0  0  0
 24 20  1  0  0  0  0
 26 27  1  0  0  0  0
 26 28  1  0  0  0  0
 27 28  1  0  0  0  0
 28 24  1  0  0  0  0
 29 28  1  0  0  0  0
 31 30  1  0  0  0  0
 32 50  1  0  0  0  0
 33 32  1  0  0  0  0
 34 33  1  0  0  0  0
 35 34  1  0  0  0  0
 35 33  1  0  0  0  0
 36 37  1  0  0  0  0
 36 34  1  0  0  0  0
 37 39  1  0  0  0  0
 38 37  1  0  0  0  0
 39 40  1  0  0  0  0
 40 43  1  0  0  0  0
 42 43  2  0  0  0  0
 43 41  1  0  0  0  0
 44 45  1  0  0  0  0
 44 36  1  0  0  0  0
 46 45  1  0  0  0  0
 47 46  1  0  0  0  0
 48 47  3  0  0  0  0
 49 51  1  0  0  0  0
 50 49  1  0  0  0  0
 50 51  1  0  0  0  0
M  END
>  <MODEL>
1

>  <REMARK>
 VINA RESULT:      -6.1      0.000      0.000
  Name = 
  16 active torsions:
  status: ('A' for Active; 'I' for Inactive)
    1  A    between atoms: C_1  and  C_15
    2  A    between atoms: C_2  and  C_7
    3  A    between atoms: C_4  and  O_34
    4  A    between atoms: C_8  and  C_23
    5  A    between atoms: C_11  and  O_34
    6  A    between atoms: C_11  and  N_38
    7  A    between atoms: C_15  and  C_28
    8  A    between atoms: C_15  and  C_43
    9  A    between atoms: C_18  and  C_23
   10  A    between atoms: C_18  and  C_47
   11  A    between atoms: C_19  and  C_27
   12  A    between atoms: C_21  and  C_50
   13  A    between atoms: C_23  and  N_38
   14  A    between atoms: C_27  and  C_29
   15  A    between atoms: O_35  and  C_36
   16  A    between atoms: O_35  and  C_47
                            x       y       z     vdW  Elec       q    Type
                         _______ _______ _______ _____ _____    ______ ____

>  <TORSDO>
F 16

$$$$
=
 OpenBabel11062418593D

 51 57  0  0  1  0  0  0  0  0999 V2000
  195.2890  177.2340  144.9420 O   0  0  0  0  0  0  0  0  0  0  0  0
  193.8700  175.6900  146.4990 O   0  0  0  0  0  1  0  0  0  0  0  0
  191.2380  174.7520  143.3510 C   0  0  0  0  0  2  0  0  0  0  0  0
  192.5270  176.7530  144.3910 C   0  0  1  0  0  3  0  0  0  0  0  0
  194.0770  176.0590  145.0470 P   0  0  1  0  0  0  0  0  0  0  0  0
  194.6030  174.5790  144.1160 C   0  0  2  0  0  3  0  0  0  0  0  0
  193.4220  173.6040  143.9230 C   0  0  1  0  0  3  0  0  0  0  0  0
  192.5540  174.1990  142.8180 C   0  0  0  0  0  2  0  0  0  0  0  0
  195.8260  173.9820  144.7960 C   0  0  0  0  0  1  0  0  0  0  0  0
  192.6960  177.1790  143.0850 F   0  0  0  0  0  0  0  0  0  0  0  0
  191.3890  175.7320  144.5210 C   0  0  1  0  0  3  0  0  0  0  0  0
  193.8480  172.1350  143.6390 C   0  0  1  0  0  3  0  0  0  0  0  0
  194.5550  171.5760  144.8730 C   0  0  0  0  0  1  0  0  0  0  0  0
  193.1490  170.5500  140.8510 C   0  0  2  0  0  0  0  0  0  0  0  0
  193.2550  169.8350  143.1340 O   0  0  0  0  0  0  0  0  0  0  0  0
  191.5860  171.1680  144.1790 C   0  0  0  0  0  1  0  0  0  0  0  0
  192.7370  171.1460  143.1680 C   0  0  1  0  0  0  0  0  0  0  0  0
  190.5530  171.2800  140.1190 O   0  0  0  0  0  0  0  0  0  0  0  0
  192.2960  171.4720  141.7270 C   0  0  2  0  0  3  0  0  0  0  0  0
  192.3630  169.6030  139.8920 C   0  0  1  0  0  3  0  0  0  0  0  0
  190.7990  171.2560  141.4890 C   0  0  0  0  0  2  0  0  0  0  0  0
  193.8380  169.6570  141.8660 C   0  0  0  0  0  2  0  0  0  0  0  0
  190.8870  169.9990  139.6400 C   0  0  2  0  0  3  0  0  0  0  0  0
  191.9050  170.0970  138.5080 C   0  0  1  0  0  0  0  0  0  0  0  0
  192.1950  171.5150  138.0120 C   0  0  0  0  0  1  0  0  0  0  0  0
  192.1140  169.4510  136.1790 O   0  0  0  0  0  0  0  0  0  0  0  0
  192.8460  168.4020  136.7720 C   0  0  0  0  0  2  0  0  0  0  0  0
  191.6870  169.0220  137.4490 C   0  0  1  0  0  0  0  0  0  0  0  0
  190.4720  168.3680  137.3710 F   0  0  0  0  0  0  0  0  0  0  0  0
  194.2310  171.3290  140.0890 C   0  0  0  0  0  2  0  0  0  0  0  0
  195.2410  170.4960  139.6040 O   0  0  0  0  0  1  0  0  0  0  0  0
  190.0460  176.3790  144.8690 C   0  0  2  0  0  3  0  0  0  0  0  0
  189.8010  177.7400  144.1690 C   0  0  2  0  0  3  0  0  0  0  0  0
  188.5490  177.8140  143.3500 C   0  0  1  0  0  3  0  0  0  0  0  0
  189.8110  177.5960  142.7660 O   0  0  0  0  0  0  0  0  0  0  0  0
  187.7300  176.5240  143.2730 C   0  0  1  0  0  3  0  0  0  0  0  0
  186.3090  176.7300  143.8080 C   0  0  2  0  0  3  0  0  0  0  0  0
  185.7480  177.8680  143.2250 O   0  0  0  0  0  1  0  0  0  0  0  0
  186.2480  176.8590  145.3280 C   0  0  0  0  0  2  0  0  0  0  0  0
  185.9600  178.1970  145.7190 O   0  0  0  0  0  0  0  0  0  0  0  0
  183.6610  178.9050  145.7670 O   0  0  0  0  0  0  0  0  0  0  0  0
  184.8170  178.5110  147.7040 O   0  0  0  0  0  1  0  0  0  0  0  0
  184.8170  178.5380  146.4440 C   0  0  0  0  0  0  0  0  0  0  0  0
  187.7150  176.0070  141.9090 N   0  0  0  0  0  2  0  0  0  0  0  0
  187.8290  174.5580  141.9910 C   0  0  0  0  0  2  0  0  0  0  0  0
  188.7650  174.0800  141.0370 O   0  0  0  0  0  0  0  0  0  0  0  0
  188.4800  174.1210  139.6990 C   0  0  0  0  0  0  0  0  0  0  0  0
  188.2400  174.1550  138.5660 N   0  0  0  0  0  0  0  0  0  0  0  0
  188.9540  175.1910  146.8560 C   0  0  0  0  0  2  0  0  0  0  0  0
  189.8290  176.3450  146.3950 C   0  0  0  0  0  3  0  0  0  0  0  0
  190.4600  175.1210  147.0320 C   0  0  0  0  0  2  0  0  0  0  0  0
  3 11  1  0  0  0  0
  4 10  1  6  0  0  0
  4 11  1  0  0  0  0
  4  5  1  0  0  0  0
  5  1  2  6  0  0  0
  5  2  1  0  0  0  0
  6  9  1  1  0  0  0
  6  5  1  0  0  0  0
  7 12  1  6  0  0  0
  7  6  1  0  0  0  0
  8  3  1  0  0  0  0
  8  7  1  0  0  0  0
 11 32  1  6  0  0  0
 12 13  1  1  0  0  0
 14 30  1  6  0  0  0
 14 19  1  0  0  0  0
 14 22  1  0  0  0  0
 15 17  1  0  0  0  0
 17 12  1  0  0  0  0
 17 16  1  1  0  0  0
 18 21  1  0  0  0  0
 19 21  1  1  0  0  0
 19 17  1  0  0  0  0
 20 14  1  0  0  0  0
 22 15  1  0  0  0  0
 23 20  1  0  0  0  0
 23 18  1  0  0  0  0
 24 23  1  0  0  0  0
 24 20  1  0  0  0  0
 25 24  1  0  0  0  0
 26 27  1  0  0  0  0
 26 28  1  0  0  0  0
 27 28  1  0  0  0  0
 28 24  1  0  0  0  0
 29 28  1  0  0  0  0
 31 30  1  0  0  0  0
 32 50  1  0  0  0  0
 33 32  1  0  0  0  0
 34 33  1  0  0  0  0
 35 34  1  0  0  0  0
 35 33  1  0  0  0  0
 36 34  1  0  0  0  0
 36 37  1  0  0  0  0
 37 39  1  0  0  0  0
 38 37  1  0  0  0  0
 39 40  1  0  0  0  0
 40 43  1  0  0  0  0
 41 43  2  0  0  0  0
 43 42  1  0  0  0  0
 44 45  1  0  0  0  0
 44 36  1  0  0  0  0
 46 45  1  0  0  0  0
 47 46  1  0  0  0  0
 48 47  3  0  0  0  0
 49 51  1  0  0  0  0
 50 49  1  0  0  0  0
 50 51  1  0  0  0  0
M  END
>  <MODEL>
2

>  <REMARK>
 VINA RESULT:      -6.0      2.232      2.892
  Name = 
  16 active torsions:
  status: ('A' for Active; 'I' for Inactive)
    1  A    between atoms: C_1  and  C_15
    2  A    between atoms: C_2  and  C_7
    3  A    between atoms: C_4  and  O_34
    4  A    between atoms: C_8  and  C_23
    5  A    between atoms: C_11  and  O_34
    6  A    between atoms: C_11  and  N_38
    7  A    between atoms: C_15  and  C_28
    8  A    between atoms: C_15  and  C_43
    9  A    between atoms: C_18  and  C_23
   10  A    between atoms: C_18  and  C_47
   11  A    between atoms: C_19  and  C_27
   12  A    between atoms: C_21  and  C_50
   13  A    between atoms: C_23  and  N_38
   14  A    between atoms: C_27  and  C_29
   15  A    between atoms: O_35  and  C_36
   16  A    between atoms: O_35  and  C_47
                            x       y       z     vdW  Elec       q    Type
                         _______ _______ _______ _____ _____    ______ ____

>  <TORSDO>
F 16

$$$$
=
 OpenBabel11062418593D

 51 57  0  0  1  0  0  0  0  0999 V2000
  190.8530  177.3160  147.8340 O   0  0  0  0  0  1  0  0  0  0  0  0
  189.9740  175.1450  146.6810 O   0  0  0  0  0  0  0  0  0  0  0  0
  190.7250  176.7410  142.8590 C   0  0  0  0  0  2  0  0  0  0  0  0
  189.7820  177.4040  145.1860 C   0  0  1  0  0  3  0  0  0  0  0  0
  190.7240  176.4280  146.4010 P   0  0  1  0  0  0  0  0  0  0  0  0
  192.4000  176.0300  145.7960 C   0  0  2  0  0  3  0  0  0  0  0  0
  192.3470  175.4930  144.3500 C   0  0  1  0  0  3  0  0  0  0  0  0
  192.1280  176.7070  143.4520 C   0  0  0  0  0  2  0  0  0  0  0  0
  193.0770  175.1100  146.8010 C   0  0  0  0  0  1  0  0  0  0  0  0
  190.3930  178.6260  144.9620 F   0  0  0  0  0  0  0  0  0  0  0  0
  189.5970  176.6070  143.8900 C   0  0  1  0  0  3  0  0  0  0  0  0
  193.5880  174.6470  143.9390 C   0  0  1  0  0  3  0  0  0  0  0  0
  194.7170  174.9080  144.9350 C   0  0  0  0  0  1  0  0  0  0  0  0
  192.3950  172.7030  141.5800 C   0  0  2  0  0  0  0  0  0  0  0  0
  194.3800  172.5940  142.9160 O   0  0  0  0  0  0  0  0  0  0  0  0
  193.5150  172.4260  145.1250 C   0  0  0  0  0  1  0  0  0  0  0  0
  193.3780  173.1120  143.7620 C   0  0  1  0  0  0  0  0  0  0  0  0
  190.3100  171.2250  142.7070 O   0  0  0  0  0  0  0  0  0  0  0  0
  192.0340  172.8250  143.0630 C   0  0  2  0  0  3  0  0  0  0  0  0
  191.9830  171.3670  140.8860 C   0  0  1  0  0  3  0  0  0  0  0  0
  191.3370  171.5650  143.5830 C   0  0  0  0  0  2  0  0  0  0  0  0
  193.9120  172.7280  141.5950 C   0  0  0  0  0  2  0  0  0  0  0  0
  190.9180  170.5350  141.6420 C   0  0  2  0  0  3  0  0  0  0  0  0
  190.5680  171.1910  140.3090 C   0  0  1  0  0  0  0  0  0  0  0  0
  189.5140  172.2970  140.3830 C   0  0  0  0  0  1  0  0  0  0  0  0
  189.4470  170.5550  138.2540 O   0  0  0  0  0  0  0  0  0  0  0  0
  190.7820  170.5270  137.8020 C   0  0  0  0  0  2  0  0  0  0  0  0
  190.4220  170.1660  139.1890 C   0  0  1  0  0  0  0  0  0  0  0  0
  190.3100  168.8220  139.4950 F   0  0  0  0  0  0  0  0  0  0  0  0
  191.9060  173.9140  140.7730 C   0  0  0  0  0  2  0  0  0  0  0  0
  192.8210  174.3010  139.7910 O   0  0  0  0  0  1  0  0  0  0  0  0
  188.2310  176.8380  143.2390 C   0  0  2  0  0  3  0  0  0  0  0  0
  187.0780  176.0250  143.8820 C   0  0  2  0  0  3  0  0  0  0  0  0
  185.9470  176.8470  144.4190 C   0  0  1  0  0  3  0  0  0  0  0  0
  186.9530  176.3260  145.2540 O   0  0  0  0  0  0  0  0  0  0  0  0
  186.1180  178.3630  144.3090 C   0  0  1  0  0  3  0  0  0  0  0  0
  185.1360  178.9670  143.3000 C   0  0  2  0  0  3  0  0  0  0  0  0
  184.4200  180.0010  143.9030 O   0  0  0  0  0  1  0  0  0  0  0  0
  184.1600  177.9440  142.7220 C   0  0  0  0  0  2  0  0  0  0  0  0
  182.9430  178.5660  142.3240 O   0  0  0  0  0  0  0  0  0  0  0  0
  180.8600  178.1620  141.1900 O   0  0  0  0  0  1  0  0  0  0  0  0
  182.8630  177.8780  140.1180 O   0  0  0  0  0  0  0  0  0  0  0  0
  182.2480  178.1880  141.1740 C   0  0  0  0  0  0  0  0  0  0  0  0
  185.9860  178.9890  145.6200 N   0  0  0  0  0  2  0  0  0  0  0  0
  185.0000  178.2240  146.3710 C   0  0  0  0  0  2  0  0  0  0  0  0
  185.2160  178.3710  147.7660 O   0  0  0  0  0  0  0  0  0  0  0  0
  186.4190  178.8180  148.2420 C   0  0  0  0  0  0  0  0  0  0  0  0
  187.4360  179.1990  148.6450 N   0  0  0  0  0  0  0  0  0  0  0  0
  187.0220  176.6800  140.9880 C   0  0  0  0  0  2  0  0  0  0  0  0
  188.3600  176.7470  141.7050 C   0  0  0  0  0  3  0  0  0  0  0  0
  187.8060  177.9790  141.0140 C   0  0  0  0  0  2  0  0  0  0  0  0
  3  8  1  0  0  0  0
  3 11  1  0  0  0  0
  4 10  1  6  0  0  0
  4  5  1  0  0  0  0
  5  2  2  1  0  0  0
  5  1  1  0  0  0  0
  6  5  1  0  0  0  0
  6  9  1  1  0  0  0
  7 12  1  6  0  0  0
  7  6  1  0  0  0  0
  8  7  1  0  0  0  0
 11 32  1  6  0  0  0
 11  4  1  0  0  0  0
 12 13  1  1  0  0  0
 14 30  1  6  0  0  0
 14 22  1  0  0  0  0
 14 19  1  0  0  0  0
 15 17  1  0  0  0  0
 17 12  1  0  0  0  0
 17 16  1  1  0  0  0
 18 21  1  0  0  0  0
 19 21  1  1  0  0  0
 19 17  1  0  0  0  0
 20 14  1  0  0  0  0
 20 23  1  0  0  0  0
 22 15  1  0  0  0  0
 23 18  1  0  0  0  0
 24 25  1  0  0  0  0
 24 20  1  0  0  0  0
 24 23  1  0  0  0  0
 26 28  1  0  0  0  0
 27 26  1  0  0  0  0
 27 28  1  0  0  0  0
 28 29  1  0  0  0  0
 28 24  1  0  0  0  0
 31 30  1  0  0  0  0
 32 33  1  0  0  0  0
 33 34  1  0  0  0  0
 33 35  1  0  0  0  0
 34 35  1  0  0  0  0
 36 34  1  0  0  0  0
 36 44  1  0  0  0  0
 37 38  1  0  0  0  0
 37 36  1  0  0  0  0
 39 37  1  0  0  0  0
 40 39  1  0  0  0  0
 42 43  2  0  0  0  0
 43 41  1  0  0  0  0
 43 40  1  0  0  0  0
 44 45  1  0  0  0  0
 45 46  1  0  0  0  0
 46 47  1  0  0  0  0
 47 48  3  0  0  0  0
 49 51  1  0  0  0  0
 49 50  1  0  0  0  0
 50 32  1  0  0  0  0
 51 50  1  0  0  0  0
M  END
>  <MODEL>
3

>  <REMARK>
 VINA RESULT:      -5.9      3.078      5.173
  Name = 
  16 active torsions:
  status: ('A' for Active; 'I' for Inactive)
    1  A    between atoms: C_1  and  C_15
    2  A    between atoms: C_2  and  C_7
    3  A    between atoms: C_4  and  O_34
    4  A    between atoms: C_8  and  C_23
    5  A    between atoms: C_11  and  O_34
    6  A    between atoms: C_11  and  N_38
    7  A    between atoms: C_15  and  C_28
    8  A    between atoms: C_15  and  C_43
    9  A    between atoms: C_18  and  C_23
   10  A    between atoms: C_18  and  C_47
   11  A    between atoms: C_19  and  C_27
   12  A    between atoms: C_21  and  C_50
   13  A    between atoms: C_23  and  N_38
   14  A    between atoms: C_27  and  C_29
   15  A    between atoms: O_35  and  C_36
   16  A    between atoms: O_35  and  C_47
                            x       y       z     vdW  Elec       q    Type
                         _______ _______ _______ _____ _____    ______ ____

>  <TORSDO>
F 16

$$$$
=
 OpenBabel11062418593D

 51 57  0  0  1  0  0  0  0  0999 V2000
  196.4810  174.1320  140.7710 O   0  0  0  0  0  0  0  0  0  0  0  0
  194.1250  175.2070  141.1080 O   0  0  0  0  0  1  0  0  0  0  0  0
  192.8460  171.9400  143.4330 C   0  0  0  0  0  2  0  0  0  0  0  0
  194.1930  172.4980  141.2840 C   0  0  1  0  0  3  0  0  0  0  0  0
  195.0130  174.0910  141.6100 P   0  0  1  0  0  0  0  0  0  0  0  0
  195.3400  174.3310  143.3900 C   0  0  2  0  0  3  0  0  0  0  0  0
  194.0870  174.0010  144.2270 C   0  0  1  0  0  3  0  0  0  0  0  0
  193.9950  172.4780  144.2770 C   0  0  0  0  0  2  0  0  0  0  0  0
  195.9050  175.7290  143.5990 C   0  0  0  0  0  1  0  0  0  0  0  0
  195.0090  171.4430  141.6550 F   0  0  0  0  0  0  0  0  0  0  0  0
  192.8300  172.4470  141.9860 C   0  0  1  0  0  3  0  0  0  0  0  0
  194.0710  174.6590  145.6380 C   0  0  1  0  0  3  0  0  0  0  0  0
  195.5110  174.8750  146.1000 C   0  0  0  0  0  1  0  0  0  0  0  0
  190.9080  175.5020  145.4060 C   0  0  2  0  0  0  0  0  0  0  0  0
  192.5900  175.9710  147.0440 O   0  0  0  0  0  0  0  0  0  0  0  0
  194.2200  177.1690  145.7940 C   0  0  0  0  0  1  0  0  0  0  0  0
  193.2560  175.9790  145.8010 C   0  0  1  0  0  0  0  0  0  0  0  0
  190.7360  177.5320  143.4940 O   0  0  0  0  0  0  0  0  0  0  0  0
  192.1550  176.0730  144.7250 C   0  0  2  0  0  3  0  0  0  0  0  0
  189.6620  176.4410  145.4420 C   0  0  1  0  0  3  0  0  0  0  0  0
  191.9240  177.5000  144.2200 C   0  0  0  0  0  2  0  0  0  0  0  0
  191.3550  175.3280  146.8450 C   0  0  0  0  0  2  0  0  0  0  0  0
  189.7010  177.6250  144.4440 C   0  0  2  0  0  3  0  0  0  0  0  0
  188.6910  176.4970  144.2490 C   0  0  1  0  0  0  0  0  0  0  0  0
  188.8950  175.6490  142.9920 C   0  0  0  0  0  1  0  0  0  0  0  0
  187.1410  178.3450  144.5100 O   0  0  0  0  0  0  0  0  0  0  0  0
  186.4550  177.6100  143.5210 C   0  0  0  0  0  2  0  0  0  0  0  0
  187.2670  176.9450  144.5620 C   0  0  1  0  0  0  0  0  0  0  0  0
  186.6070  176.4260  145.6590 F   0  0  0  0  0  0  0  0  0  0  0  0
  190.5380  174.1200  144.8500 C   0  0  0  0  0  2  0  0  0  0  0  0
  189.6440  173.4380  145.6780 O   0  0  0  0  0  1  0  0  0  0  0  0
  191.7650  171.7180  141.1640 C   0  0  2  0  0  3  0  0  0  0  0  0
  190.4680  172.5400  140.9400 C   0  0  2  0  0  3  0  0  0  0  0  0
  190.2590  173.0200  139.5360 C   0  0  1  0  0  3  0  0  0  0  0  0
  190.7690  173.8590  140.5440 O   0  0  0  0  0  0  0  0  0  0  0  0
  191.3760  172.6850  138.5460 C   0  0  1  0  0  3  0  0  0  0  0  0
  190.9040  171.6840  137.4860 C   0  0  2  0  0  3  0  0  0  0  0  0
  189.6310  171.2150  137.8170 O   0  0  0  0  0  1  0  0  0  0  0  0
  191.8500  170.4980  137.3110 C   0  0  0  0  0  2  0  0  0  0  0  0
  192.5290  170.5640  136.0620 O   0  0  0  0  0  0  0  0  0  0  0  0
  194.7670  169.8930  136.6380 O   0  0  0  0  0  1  0  0  0  0  0  0
  194.3870  171.6910  135.2710 O   0  0  0  0  0  0  0  0  0  0  0  0
  193.9090  170.7530  135.9660 C   0  0  0  0  0  0  0  0  0  0  0  0
  191.8990  173.9010  137.9340 N   0  0  0  0  0  2  0  0  0  0  0  0
  193.3520  173.8310  137.9990 C   0  0  0  0  0  2  0  0  0  0  0  0
  193.9220  175.1060  137.7440 O   0  0  0  0  0  0  0  0  0  0  0  0
  194.9940  175.2350  136.9020 C   0  0  0  0  0  0  0  0  0  0  0  0
  195.9020  175.3450  136.1920 N   0  0  0  0  0  0  0  0  0  0  0  0
  190.9330  169.3430  140.6970 C   0  0  0  0  0  2  0  0  0  0  0  0
  191.5820  170.2830  141.6980 C   0  0  0  0  0  3  0  0  0  0  0  0
  192.4300  169.2810  140.9360 C   0  0  0  0  0  2  0  0  0  0  0  0
  2  5  1  0  0  0  0
  3  8  1  0  0  0  0
  4  5  1  0  0  0  0
  4 10  1  1  0  0  0
  4 11  1  0  0  0  0
  5  1  2  6  0  0  0
  5  6  1  0  0  0  0
  6  9  1  6  0  0  0
  6  7  1  0  0  0  0
  7  8  1  0  0  0  0
  7 12  1  1  0  0  0
 11 32  1  6  0  0  0
 11  3  1  0  0  0  0
 12 17  1  0  0  0  0
 12 13  1  6  0  0  0
 14 30  1  6  0  0  0
 14 20  1  0  0  0  0
 14 22  1  0  0  0  0
 17 16  1  6  0  0  0
 17 15  1  0  0  0  0
 18 21  1  0  0  0  0
 18 23  1  0  0  0  0
 19 21  1  1  0  0  0
 19 14  1  0  0  0  0
 19 17  1  0  0  0  0
 22 15  1  0  0  0  0
 23 20  1  0  0  0  0
 24 23  1  0  0  0  0
 24 28  1  0  0  0  0
 24 20  1  0  0  0  0
 25 24  1  0  0  0  0
 26 28  1  0  0  0  0
 27 26  1  0  0  0  0
 27 28  1  0  0  0  0
 28 29  1  0  0  0  0
 30 31  1  0  0  0  0
 32 50  1  0  0  0  0
 33 32  1  0  0  0  0
 34 35  1  0  0  0  0
 34 33  1  0  0  0  0
 35 33  1  0  0  0  0
 36 34  1  0  0  0  0
 37 38  1  0  0  0  0
 37 36  1  0  0  0  0
 39 37  1  0  0  0  0
 40 39  1  0  0  0  0
 42 43  2  0  0  0  0
 43 40  1  0  0  0  0
 43 41  1  0  0  0  0
 44 45  1  0  0  0  0
 44 36  1  0  0  0  0
 46 45  1  0  0  0  0
 47 46  1  0  0  0  0
 48 47  3  0  0  0  0
 49 51  1  0  0  0  0
 49 50  1  0  0  0  0
 51 50  1  0  0  0  0
M  END
>  <MODEL>
4

>  <REMARK>
 VINA RESULT:      -5.5      2.834      8.326
  Name = 
  16 active torsions:
  status: ('A' for Active; 'I' for Inactive)
    1  A    between atoms: C_1  and  C_15
    2  A    between atoms: C_2  and  C_7
    3  A    between atoms: C_4  and  O_34
    4  A    between atoms: C_8  and  C_23
    5  A    between atoms: C_11  and  O_34
    6  A    between atoms: C_11  and  N_38
    7  A    between atoms: C_15  and  C_28
    8  A    between atoms: C_15  and  C_43
    9  A    between atoms: C_18  and  C_23
   10  A    between atoms: C_18  and  C_47
   11  A    between atoms: C_19  and  C_27
   12  A    between atoms: C_21  and  C_50
   13  A    between atoms: C_23  and  N_38
   14  A    between atoms: C_27  and  C_29
   15  A    between atoms: O_35  and  C_36
   16  A    between atoms: O_35  and  C_47
                            x       y       z     vdW  Elec       q    Type
                         _______ _______ _______ _____ _____    ______ ____

>  <TORSDO>
F 16

$$$$
=
 OpenBabel11062418593D

 51 57  0  0  1  0  0  0  0  0999 V2000
  196.6450  173.6480  145.3600 O   0  0  0  0  0  1  0  0  0  0  0  0
  195.6200  175.3580  143.6740 O   0  0  0  0  0  0  0  0  0  0  0  0
  192.3140  172.8500  142.9720 C   0  0  0  0  0  2  0  0  0  0  0  0
  194.8910  172.7720  143.2810 C   0  0  1  0  0  3  0  0  0  0  0  0
  195.2920  174.1050  144.4550 P   0  0  1  0  0  0  0  0  0  0  0  0
  193.9050  174.4460  145.5910 C   0  0  2  0  0  3  0  0  0  0  0  0
  192.5760  174.5680  144.8130 C   0  0  1  0  0  3  0  0  0  0  0  0
  192.1570  173.1440  144.4580 C   0  0  0  0  0  2  0  0  0  0  0  0
  194.2600  175.6500  146.4500 C   0  0  0  0  0  1  0  0  0  0  0  0
  194.6630  171.5830  143.9520 F   0  0  0  0  0  0  0  0  0  0  0  0
  193.7000  173.1750  142.4030 C   0  0  1  0  0  3  0  0  0  0  0  0
  191.4680  175.3600  145.5660 C   0  0  1  0  0  3  0  0  0  0  0  0
  191.9050  175.5690  147.0150 C   0  0  0  0  0  1  0  0  0  0  0  0
  188.6360  177.0040  145.3450 C   0  0  2  0  0  0  0  0  0  0  0  0
  190.8490  177.6720  145.9710 O   0  0  0  0  0  0  0  0  0  0  0  0
  192.1070  177.2290  144.0030 C   0  0  0  0  0  1  0  0  0  0  0  0
  191.0140  176.7180  144.9460 C   0  0  1  0  0  0  0  0  0  0  0  0
  188.1540  177.4500  142.6290 O   0  0  0  0  0  0  0  0  0  0  0  0
  189.6370  176.5720  144.2690 C   0  0  2  0  0  3  0  0  0  0  0  0
  187.6740  178.1680  144.9510 C   0  0  1  0  0  3  0  0  0  0  0  0
  189.4970  177.4080  142.9940 C   0  0  0  0  0  2  0  0  0  0  0  0
  189.5310  177.5410  146.4460 C   0  0  0  0  0  2  0  0  0  0  0  0
  187.5630  178.4440  143.4310 C   0  0  2  0  0  3  0  0  0  0  0  0
  186.3680  177.8790  144.1920 C   0  0  1  0  0  0  0  0  0  0  0  0
  185.9520  176.4620  143.7950 C   0  0  0  0  0  1  0  0  0  0  0  0
  184.0140  178.4050  143.9230 O   0  0  0  0  0  0  0  0  0  0  0  0
  184.1480  178.6620  145.3030 C   0  0  0  0  0  2  0  0  0  0  0  0
  185.2550  178.9090  144.3540 C   0  0  1  0  0  0  0  0  0  0  0  0
  185.4450  180.2050  143.9110 F   0  0  0  0  0  0  0  0  0  0  0  0
  187.8520  175.8100  145.9060 C   0  0  0  0  0  2  0  0  0  0  0  0
  187.4040  176.0360  147.2090 O   0  0  0  0  0  1  0  0  0  0  0  0
  193.8300  172.6770  140.9610 C   0  0  2  0  0  3  0  0  0  0  0  0
  194.1430  171.1640  140.8410 C   0  0  2  0  0  3  0  0  0  0  0  0
  193.2660  170.4090  139.8900 C   0  0  1  0  0  3  0  0  0  0  0  0
  193.0530  170.3850  141.2810 O   0  0  0  0  0  0  0  0  0  0  0  0
  192.1540  171.2230  139.2240 C   0  0  1  0  0  3  0  0  0  0  0  0
  192.2440  171.1490  137.6970 C   0  0  2  0  0  3  0  0  0  0  0  0
  193.5070  171.5680  137.2790 O   0  0  0  0  0  1  0  0  0  0  0  0
  191.1750  171.9800  136.9890 C   0  0  0  0  0  2  0  0  0  0  0  0
  191.3320  173.3660  137.2730 O   0  0  0  0  0  0  0  0  0  0  0  0
  191.8770  175.4570  136.2150 O   0  0  0  0  0  1  0  0  0  0  0  0
  190.0100  174.2790  135.6090 O   0  0  0  0  0  0  0  0  0  0  0  0
  191.0330  174.3620  136.3420 C   0  0  0  0  0  0  0  0  0  0  0  0
  190.8460  170.7900  139.7030 N   0  0  0  0  0  2  0  0  0  0  0  0
  190.1740  171.9600  140.2510 C   0  0  0  0  0  2  0  0  0  0  0  0
  188.9410  172.1820  139.5830 O   0  0  0  0  0  0  0  0  0  0  0  0
  188.5350  173.4520  139.2740 C   0  0  0  0  0  0  0  0  0  0  0  0
  188.1890  174.5270  139.0150 N   0  0  0  0  0  0  0  0  0  0  0  0
  193.9850  174.4600  139.1310 C   0  0  0  0  0  2  0  0  0  0  0  0
  194.7370  173.6300  140.1580 C   0  0  0  0  0  3  0  0  0  0  0  0
  194.4230  175.0880  140.4410 C   0  0  0  0  0  2  0  0  0  0  0  0
  3  8  1  0  0  0  0
  4 10  1  1  0  0  0
  4  5  1  0  0  0  0
  5  2  2  6  0  0  0
  5  1  1  0  0  0  0
  5  6  1  0  0  0  0
  6  9  1  6  0  0  0
  7 12  1  1  0  0  0
  7  6  1  0  0  0  0
  8  7  1  0  0  0  0
 11 32  1  6  0  0  0
 11  3  1  0  0  0  0
 11  4  1  0  0  0  0
 12 13  1  1  0  0  0
 14 30  1  1  0  0  0
 14 22  1  0  0  0  0
 15 22  1  0  0  0  0
 17 16  1  6  0  0  0
 17 12  1  0  0  0  0
 17 15  1  0  0  0  0
 18 21  1  0  0  0  0
 18 23  1  0  0  0  0
 19 21  1  6  0  0  0
 19 17  1  0  0  0  0
 19 14  1  0  0  0  0
 20 14  1  0  0  0  0
 23 24  1  0  0  0  0
 23 20  1  0  0  0  0
 24 28  1  0  0  0  0
 24 20  1  0  0  0  0
 25 24  1  0  0  0  0
 26 28  1  0  0  0  0
 26 27  1  0  0  0  0
 28 27  1  0  0  0  0
 29 28  1  0  0  0  0
 30 31  1  0  0  0  0
 33 32  1  0  0  0  0
 33 35  1  0  0  0  0
 34 33  1  0  0  0  0
 34 35  1  0  0  0  0
 36 44  1  0  0  0  0
 36 34  1  0  0  0  0
 37 36  1  0  0  0  0
 38 37  1  0  0  0  0
 39 40  1  0  0  0  0
 39 37  1  0  0  0  0
 41 43  1  0  0  0  0
 42 43  2  0  0  0  0
 43 40  1  0  0  0  0
 44 45  1  0  0  0  0
 46 45  1  0  0  0  0
 47 46  1  0  0  0  0
 48 47  3  0  0  0  0
 49 50  1  0  0  0  0
 49 51  1  0  0  0  0
 50 51  1  0  0  0  0
 50 32  1  0  0  0  0
M  END
>  <MODEL>
5

>  <REMARK>
 VINA RESULT:      -5.5      2.655      8.690
  Name = 
  16 active torsions:
  status: ('A' for Active; 'I' for Inactive)
    1  A    between atoms: C_1  and  C_15
    2  A    between atoms: C_2  and  C_7
    3  A    between atoms: C_4  and  O_34
    4  A    between atoms: C_8  and  C_23
    5  A    between atoms: C_11  and  O_34
    6  A    between atoms: C_11  and  N_38
    7  A    between atoms: C_15  and  C_28
    8  A    between atoms: C_15  and  C_43
    9  A    between atoms: C_18  and  C_23
   10  A    between atoms: C_18  and  C_47
   11  A    between atoms: C_19  and  C_27
   12  A    between atoms: C_21  and  C_50
   13  A    between atoms: C_23  and  N_38
   14  A    between atoms: C_27  and  C_29
   15  A    between atoms: O_35  and  C_36
   16  A    between atoms: O_35  and  C_47
                            x       y       z     vdW  Elec       q    Type
                         _______ _______ _______ _____ _____    ______ ____

>  <TORSDO>
F 16

$$$$
=
 OpenBabel11062418593D

 51 57  0  0  1  0  0  0  0  0999 V2000
  194.4230  177.1550  146.8880 O   0  0  0  0  0  1  0  0  0  0  0  0
  193.0320  174.9550  146.6810 O   0  0  0  0  0  0  0  0  0  0  0  0
  192.2940  175.6780  142.6010 C   0  0  0  0  0  2  0  0  0  0  0  0
  192.3950  176.8970  144.8920 C   0  0  1  0  0  3  0  0  0  0  0  0
  193.6830  176.0410  145.8540 P   0  0  1  0  0  0  0  0  0  0  0  0
  194.9540  175.3000  144.7730 C   0  0  2  0  0  3  0  0  0  0  0  0
  194.2990  174.5130  143.6170 C   0  0  1  0  0  3  0  0  0  0  0  0
  193.8120  175.5550  142.6140 C   0  0  0  0  0  2  0  0  0  0  0  0
  195.9190  174.4970  145.6330 C   0  0  0  0  0  1  0  0  0  0  0  0
  192.9370  177.9530  144.1810 F   0  0  0  0  0  0  0  0  0  0  0  0
  191.6630  175.9040  143.9810 C   0  0  1  0  0  3  0  0  0  0  0  0
  195.2220  173.4350  142.9780 C   0  0  1  0  0  3  0  0  0  0  0  0
  196.5990  173.5080  143.6350 C   0  0  0  0  0  1  0  0  0  0  0  0
  193.3100  171.6180  141.0250 C   0  0  2  0  0  0  0  0  0  0  0  0
  195.4390  171.2060  142.0410 O   0  0  0  0  0  0  0  0  0  0  0  0
  194.9480  171.3490  144.3630 C   0  0  0  0  0  1  0  0  0  0  0  0
  194.7080  171.9620  142.9800 C   0  0  1  0  0  0  0  0  0  0  0  0
  191.2130  170.6500  142.5970 O   0  0  0  0  0  0  0  0  0  0  0  0
  193.2350  171.9010  142.5280 C   0  0  2  0  0  3  0  0  0  0  0  0
  192.5490  170.3480  140.5320 C   0  0  1  0  0  3  0  0  0  0  0  0
  192.4190  170.8360  143.2660 C   0  0  0  0  0  2  0  0  0  0  0  0
  194.7860  171.3470  140.8020 C   0  0  0  0  0  2  0  0  0  0  0  0
  191.4940  169.7890  141.5190 C   0  0  2  0  0  3  0  0  0  0  0  0
  191.0480  170.4160  140.2010 C   0  0  1  0  0  0  0  0  0  0  0  0
  190.2420  171.7090  140.3330 C   0  0  0  0  0  1  0  0  0  0  0  0
  189.6530  169.9370  138.2750 O   0  0  0  0  0  0  0  0  0  0  0  0
  190.8860  169.4580  137.7870 C   0  0  0  0  0  2  0  0  0  0  0  0
  190.5280  169.3710  139.2190 C   0  0  1  0  0  0  0  0  0  0  0  0
  190.0420  168.1660  139.6880 F   0  0  0  0  0  0  0  0  0  0  0  0
  192.9200  172.8490  140.1930 C   0  0  0  0  0  2  0  0  0  0  0  0
  193.7820  173.0540  139.1140 O   0  0  0  0  0  1  0  0  0  0  0  0
  190.1670  176.2030  143.8550 C   0  0  2  0  0  3  0  0  0  0  0  0
  189.2500  175.0260  144.2770 C   0  0  2  0  0  3  0  0  0  0  0  0
  188.4660  175.2540  145.5330 C   0  0  1  0  0  3  0  0  0  0  0  0
  189.6510  174.4940  145.5200 O   0  0  0  0  0  0  0  0  0  0  0  0
  188.7270  176.5810  146.2470 C   0  0  1  0  0  3  0  0  0  0  0  0
  187.4170  177.2850  146.6170 C   0  0  2  0  0  3  0  0  0  0  0  0
  186.4650  176.3370  146.9950 O   0  0  0  0  0  1  0  0  0  0  0  0
  186.8540  178.1460  145.4880 C   0  0  0  0  0  2  0  0  0  0  0  0
  185.4410  178.0110  145.3960 O   0  0  0  0  0  0  0  0  0  0  0  0
  185.0890  177.2390  143.1450 O   0  0  0  0  0  0  0  0  0  0  0  0
  183.8310  178.9400  144.0200 O   0  0  0  0  0  1  0  0  0  0  0  0
  184.7550  178.0970  144.1830 C   0  0  0  0  0  0  0  0  0  0  0  0
  189.5700  176.3750  147.4190 N   0  0  0  0  0  2  0  0  0  0  0  0
  190.3410  177.5940  147.6200 C   0  0  0  0  0  2  0  0  0  0  0  0
  191.4770  177.3340  148.4330 O   0  0  0  0  0  0  0  0  0  0  0  0
  191.5350  177.7990  149.7190 C   0  0  0  0  0  0  0  0  0  0  0  0
  191.5860  178.1920  150.8070 N   0  0  0  0  0  0  0  0  0  0  0  0
  188.5630  177.6070  142.4390 C   0  0  0  0  0  2  0  0  0  0  0  0
  189.8740  176.8410  142.4830 C   0  0  0  0  0  3  0  0  0  0  0  0
  189.8770  178.3570  142.5490 C   0  0  0  0  0  2  0  0  0  0  0  0
  3  8  1  0  0  0  0
  3 11  1  0  0  0  0
  4 10  1  6  0  0  0
  4  5  1  0  0  0  0
  5  2  2  1  0  0  0
  5  1  1  0  0  0  0
  6  9  1  1  0  0  0
  6  5  1  0  0  0  0
  7 12  1  6  0  0  0
  7  6  1  0  0  0  0
  8  7  1  0  0  0  0
 11 32  1  6  0  0  0
 11  4  1  0  0  0  0
 12 17  1  0  0  0  0
 12 13  1  1  0  0  0
 14 30  1  6  0  0  0
 14 19  1  0  0  0  0
 15 17  1  0  0  0  0
 17 16  1  1  0  0  0
 18 21  1  0  0  0  0
 19 17  1  0  0  0  0
 19 21  1  1  0  0  0
 20 14  1  0  0  0  0
 20 23  1  0  0  0  0
 22 14  1  0  0  0  0
 22 15  1  0  0  0  0
 23 18  1  0  0  0  0
 24 25  1  0  0  0  0
 24 20  1  0  0  0  0
 24 23  1  0  0  0  0
 26 28  1  0  0  0  0
 27 26  1  0  0  0  0
 27 28  1  0  0  0  0
 28 29  1  0  0  0  0
 28 24  1  0  0  0  0
 31 30  1  0  0  0  0
 32 33  1  0  0  0  0
 33 35  1  0  0  0  0
 33 34  1  0  0  0  0
 34 36  1  0  0  0  0
 35 34  1  0  0  0  0
 36 37  1  0  0  0  0
 36 44  1  0  0  0  0
 37 38  1  0  0  0  0
 39 37  1  0  0  0  0
 40 39  1  0  0  0  0
 41 43  2  0  0  0  0
 42 43  1  0  0  0  0
 43 40  1  0  0  0  0
 44 45  1  0  0  0  0
 45 46  1  0  0  0  0
 46 47  1  0  0  0  0
 47 48  3  0  0  0  0
 49 50  1  0  0  0  0
 49 51  1  0  0  0  0
 50 51  1  0  0  0  0
 50 32  1  0  0  0  0
M  END
>  <MODEL>
6

>  <REMARK>
 VINA RESULT:      -5.4      2.825      4.730
  Name = 
  16 active torsions:
  status: ('A' for Active; 'I' for Inactive)
    1  A    between atoms: C_1  and  C_15
    2  A    between atoms: C_2  and  C_7
    3  A    between atoms: C_4  and  O_34
    4  A    between atoms: C_8  and  C_23
    5  A    between atoms: C_11  and  O_34
    6  A    between atoms: C_11  and  N_38
    7  A    between atoms: C_15  and  C_28
    8  A    between atoms: C_15  and  C_43
    9  A    between atoms: C_18  and  C_23
   10  A    between atoms: C_18  and  C_47
   11  A    between atoms: C_19  and  C_27
   12  A    between atoms: C_21  and  C_50
   13  A    between atoms: C_23  and  N_38
   14  A    between atoms: C_27  and  C_29
   15  A    between atoms: O_35  and  C_36
   16  A    between atoms: O_35  and  C_47
                            x       y       z     vdW  Elec       q    Type
                         _______ _______ _______ _____ _____    ______ ____

>  <TORSDO>
F 16

$$$$
=
 OpenBabel11062418593D

 51 57  0  0  1  0  0  0  0  0999 V2000
  197.0170  174.1630  145.5740 O   0  0  0  0  0  1  0  0  0  0  0  0
  195.9770  175.8330  143.8570 O   0  0  0  0  0  0  0  0  0  0  0  0
  193.0380  173.0310  142.7470 C   0  0  0  0  0  2  0  0  0  0  0  0
  195.5690  173.2060  143.3040 C   0  0  1  0  0  3  0  0  0  0  0  0
  195.7130  174.5190  144.5570 P   0  0  1  0  0  0  0  0  0  0  0  0
  194.1970  174.6630  145.5640 C   0  0  2  0  0  3  0  0  0  0  0  0
  192.9420  174.6820  144.6650 C   0  0  1  0  0  3  0  0  0  0  0  0
  192.7130  173.2400  144.2210 C   0  0  0  0  0  2  0  0  0  0  0  0
  194.3410  175.8570  146.4960 C   0  0  0  0  0  1  0  0  0  0  0  0
  195.4070  171.9700  143.9070 F   0  0  0  0  0  0  0  0  0  0  0  0
  194.4290  173.5230  142.3280 C   0  0  1  0  0  3  0  0  0  0  0  0
  191.6900  175.3210  145.3340 C   0  0  1  0  0  3  0  0  0  0  0  0
  191.9270  175.4160  146.8400 C   0  0  0  0  0  1  0  0  0  0  0  0
  188.8280  176.9210  145.1960 C   0  0  2  0  0  0  0  0  0  0  0  0
  191.0290  177.5980  145.8530 O   0  0  0  0  0  0  0  0  0  0  0  0
  192.2920  177.2750  143.8640 C   0  0  0  0  0  1  0  0  0  0  0  0
  191.2100  176.6990  144.7820 C   0  0  1  0  0  0  0  0  0  0  0  0
  188.3330  177.4910  142.5060 O   0  0  0  0  0  0  0  0  0  0  0  0
  189.8340  176.5600  144.1000 C   0  0  2  0  0  3  0  0  0  0  0  0
  187.8440  178.0850  144.8610 C   0  0  1  0  0  3  0  0  0  0  0  0
  189.6770  177.4560  142.8680 C   0  0  0  0  0  2  0  0  0  0  0  0
  189.7140  177.4190  146.3210 C   0  0  0  0  0  2  0  0  0  0  0  0
  187.7250  178.4330  143.3560 C   0  0  2  0  0  3  0  0  0  0  0  0
  186.5410  177.8090  144.0900 C   0  0  1  0  0  0  0  0  0  0  0  0
  186.1520  176.4050  143.6240 C   0  0  0  0  0  1  0  0  0  0  0  0
  184.1720  178.2890  143.8850 O   0  0  0  0  0  0  0  0  0  0  0  0
  184.3300  178.5110  145.2680 C   0  0  0  0  0  2  0  0  0  0  0  0
  185.4100  178.8090  144.3030 C   0  0  1  0  0  0  0  0  0  0  0  0
  185.5620  180.1200  143.8920 F   0  0  0  0  0  0  0  0  0  0  0  0
  188.0670  175.6860  145.6990 C   0  0  0  0  0  2  0  0  0  0  0  0
  188.4800  175.2920  146.9730 O   0  0  0  0  0  1  0  0  0  0  0  0
  194.7440  173.1080  140.8890 C   0  0  2  0  0  3  0  0  0  0  0  0
  195.4660  171.7410  140.7700 C   0  0  2  0  0  3  0  0  0  0  0  0
  194.9250  170.8290  139.7120 C   0  0  1  0  0  3  0  0  0  0  0  0
  194.5890  170.6790  141.0710 O   0  0  0  0  0  0  0  0  0  0  0  0
  193.7060  171.3500  138.9480 C   0  0  1  0  0  3  0  0  0  0  0  0
  193.8670  171.1540  137.4370 C   0  0  2  0  0  3  0  0  0  0  0  0
  194.9030  170.2530  137.1880 O   0  0  0  0  0  1  0  0  0  0  0  0
  194.1360  172.4550  136.6840 C   0  0  0  0  0  2  0  0  0  0  0  0
  195.4490  172.4690  136.1370 O   0  0  0  0  0  0  0  0  0  0  0  0
  196.5480  174.6080  136.0680 O   0  0  0  0  0  0  0  0  0  0  0  0
  197.2520  172.9650  137.4980 O   0  0  0  0  0  1  0  0  0  0  0  0
  196.4470  173.3300  136.5990 C   0  0  0  0  0  0  0  0  0  0  0  0
  192.4860  170.7210  139.4390 N   0  0  0  0  0  2  0  0  0  0  0  0
  191.5110  171.7790  139.6660 C   0  0  0  0  0  2  0  0  0  0  0  0
  190.4690  171.7070  138.7050 O   0  0  0  0  0  0  0  0  0  0  0  0
  189.2360  172.2390  138.9720 C   0  0  0  0  0  0  0  0  0  0  0  0
  188.1920  172.6870  139.1970 N   0  0  0  0  0  0  0  0  0  0  0  0
  194.4180  175.0150  139.2120 C   0  0  0  0  0  2  0  0  0  0  0  0
  195.3850  174.2880  140.1320 C   0  0  0  0  0  3  0  0  0  0  0  0
  194.7930  175.6210  140.5520 C   0  0  0  0  0  2  0  0  0  0  0  0
  3  8  1  0  0  0  0
  4 10  1  1  0  0  0
  4  5  1  0  0  0  0
  5  2  2  6  0  0  0
  5  6  1  0  0  0  0
  5  1  1  0  0  0  0
  6  9  1  6  0  0  0
  7 12  1  1  0  0  0
  7  6  1  0  0  0  0
  8  7  1  0  0  0  0
 11 32  1  6  0  0  0
 11  3  1  0  0  0  0
 11  4  1  0  0  0  0
 12 13  1  1  0  0  0
 14 30  1  1  0  0  0
 14 22  1  0  0  0  0
 15 22  1  0  0  0  0
 17 16  1  6  0  0  0
 17 12  1  0  0  0  0
 17 15  1  0  0  0  0
 18 21  1  0  0  0  0
 18 23  1  0  0  0  0
 19 21  1  6  0  0  0
 19 17  1  0  0  0  0
 19 14  1  0  0  0  0
 20 14  1  0  0  0  0
 23 24  1  0  0  0  0
 23 20  1  0  0  0  0
 24 28  1  0  0  0  0
 24 20  1  0  0  0  0
 25 24  1  0  0  0  0
 26 28  1  0  0  0  0
 26 27  1  0  0  0  0
 28 27  1  0  0  0  0
 29 28  1  0  0  0  0
 30 31  1  0  0  0  0
 33 32  1  0  0  0  0
 33 35  1  0  0  0  0
 34 33  1  0  0  0  0
 34 35  1  0  0  0  0
 36 44  1  0  0  0  0
 36 34  1  0  0  0  0
 37 36  1  0  0  0  0
 38 37  1  0  0  0  0
 39 37  1  0  0  0  0
 40 43  1  0  0  0  0
 40 39  1  0  0  0  0
 41 43  2  0  0  0  0
 43 42  1  0  0  0  0
 44 45  1  0  0  0  0
 46 47  1  0  0  0  0
 46 45  1  0  0  0  0
 47 48  3  0  0  0  0
 49 50  1  0  0  0  0
 49 51  1  0  0  0  0
 50 51  1  0  0  0  0
 50 32  1  0  0  0  0
M  END
>  <MODEL>
7

>  <REMARK>
 VINA RESULT:      -5.4      2.450      9.182
  Name = 
  16 active torsions:
  status: ('A' for Active; 'I' for Inactive)
    1  A    between atoms: C_1  and  C_15
    2  A    between atoms: C_2  and  C_7
    3  A    between atoms: C_4  and  O_34
    4  A    between atoms: C_8  and  C_23
    5  A    between atoms: C_11  and  O_34
    6  A    between atoms: C_11  and  N_38
    7  A    between atoms: C_15  and  C_28
    8  A    between atoms: C_15  and  C_43
    9  A    between atoms: C_18  and  C_23
   10  A    between atoms: C_18  and  C_47
   11  A    between atoms: C_19  and  C_27
   12  A    between atoms: C_21  and  C_50
   13  A    between atoms: C_23  and  N_38
   14  A    between atoms: C_27  and  C_29
   15  A    between atoms: O_35  and  C_36
   16  A    between atoms: O_35  and  C_47
                            x       y       z     vdW  Elec       q    Type
                         _______ _______ _______ _____ _____    ______ ____

>  <TORSDO>
F 16

$$$$
=
 OpenBabel11062418593D

 51 57  0  0  1  0  0  0  0  0999 V2000
  195.4450  171.6790  144.2320 O   0  0  0  0  0  1  0  0  0  0  0  0
  194.5550  173.5830  142.6830 O   0  0  0  0  0  0  0  0  0  0  0  0
  190.5760  172.3290  143.2450 C   0  0  0  0  0  2  0  0  0  0  0  0
  192.9640  171.3880  142.8450 C   0  0  1  0  0  3  0  0  0  0  0  0
  194.0990  172.5410  143.6800 P   0  0  1  0  0  0  0  0  0  0  0  0
  193.3020  173.3680  145.0980 C   0  0  2  0  0  3  0  0  0  0  0  0
  191.9110  173.9110  144.7050 C   0  0  1  0  0  3  0  0  0  0  0  0
  190.9770  172.7050  144.6670 C   0  0  0  0  0  2  0  0  0  0  0  0
  194.2610  174.4050  145.6630 C   0  0  0  0  0  1  0  0  0  0  0  0
  192.5850  170.3690  143.7020 F   0  0  0  0  0  0  0  0  0  0  0  0
  191.7550  172.1450  142.2810 C   0  0  1  0  0  3  0  0  0  0  0  0
  191.3910  175.0560  145.6220 C   0  0  1  0  0  3  0  0  0  0  0  0
  192.4090  175.3010  146.7350 C   0  0  0  0  0  1  0  0  0  0  0  0
  188.6660  176.8640  145.3410 C   0  0  2  0  0  0  0  0  0  0  0  0
  190.9240  177.4210  145.9130 O   0  0  0  0  0  0  0  0  0  0  0  0
  192.1280  176.7980  143.9580 C   0  0  0  0  0  1  0  0  0  0  0  0
  191.0160  176.4060  144.9370 C   0  0  1  0  0  0  0  0  0  0  0  0
  188.1800  177.2000  142.6100 O   0  0  0  0  0  0  0  0  0  0  0  0
  189.6240  176.3140  144.2810 C   0  0  2  0  0  3  0  0  0  0  0  0
  187.7750  178.0650  144.8970 C   0  0  1  0  0  3  0  0  0  0  0  0
  189.5220  177.0910  142.9650 C   0  0  0  0  0  2  0  0  0  0  0  0
  189.6060  177.3980  146.4050 C   0  0  0  0  0  2  0  0  0  0  0  0
  187.6630  178.2690  143.3650 C   0  0  2  0  0  3  0  0  0  0  0  0
  186.4430  177.8210  144.1660 C   0  0  1  0  0  0  0  0  0  0  0  0
  185.9350  176.4150  143.8460 C   0  0  0  0  0  1  0  0  0  0  0  0
  184.1110  178.4590  143.9710 O   0  0  0  0  0  0  0  0  0  0  0  0
  184.3390  178.8390  145.3100 C   0  0  0  0  0  2  0  0  0  0  0  0
  185.4000  178.9270  144.2840 C   0  0  1  0  0  0  0  0  0  0  0  0
  185.6350  180.1600  143.7060 F   0  0  0  0  0  0  0  0  0  0  0  0
  187.8150  175.7520  145.9710 C   0  0  0  0  0  2  0  0  0  0  0  0
  187.3400  176.1020  147.2370 O   0  0  0  0  0  1  0  0  0  0  0  0
  191.2790  171.5900  140.9370 C   0  0  2  0  0  3  0  0  0  0  0  0
  190.1640  172.4320  140.2640 C   0  0  2  0  0  3  0  0  0  0  0  0
  190.5570  173.0880  138.9760 C   0  0  1  0  0  3  0  0  0  0  0  0
  190.5310  173.7920  140.1940 O   0  0  0  0  0  0  0  0  0  0  0  0
  192.0100  172.8830  138.5430 C   0  0  1  0  0  3  0  0  0  0  0  0
  192.0990  172.1070  137.2250 C   0  0  2  0  0  3  0  0  0  0  0  0
  190.8350  171.6310  136.8750 O   0  0  0  0  0  1  0  0  0  0  0  0
  193.0830  170.9410  137.2760 C   0  0  0  0  0  2  0  0  0  0  0  0
  194.3420  171.3080  136.7230 O   0  0  0  0  0  0  0  0  0  0  0  0
  194.1020  170.2480  134.5760 O   0  0  0  0  0  0  0  0  0  0  0  0
  195.2560  172.2130  134.8000 O   0  0  0  0  0  1  0  0  0  0  0  0
  194.5940  171.2910  135.3490 C   0  0  0  0  0  0  0  0  0  0  0  0
  192.7030  174.1640  138.4550 N   0  0  0  0  0  2  0  0  0  0  0  0
  193.9990  174.0040  139.1000 C   0  0  0  0  0  2  0  0  0  0  0  0
  194.5660  175.2720  139.3940 O   0  0  0  0  0  0  0  0  0  0  0  0
  195.8250  175.3670  139.9230 C   0  0  0  0  0  0  0  0  0  0  0  0
  196.8900  175.4440  140.3700 N   0  0  0  0  0  0  0  0  0  0  0  0
  190.8100  169.3860  139.7220 C   0  0  0  0  0  2  0  0  0  0  0  0
  191.0130  170.0760  141.0600 C   0  0  0  0  0  3  0  0  0  0  0  0
  192.1330  169.2510  140.4530 C   0  0  0  0  0  2  0  0  0  0  0  0
  3  8  1  0  0  0  0
  4  5  1  0  0  0  0
  4 10  1  1  0  0  0
  5  2  2  6  0  0  0
  5  1  1  0  0  0  0
  5  6  1  0  0  0  0
  6  9  1  6  0  0  0
  7  6  1  0  0  0  0
  7 12  1  1  0  0  0
  8  7  1  0  0  0  0
 11 32  1  6  0  0  0
 11  4  1  0  0  0  0
 11  3  1  0  0  0  0
 12 13  1  1  0  0  0
 14 30  1  1  0  0  0
 14 22  1  0  0  0  0
 15 22  1  0  0  0  0
 17 16  1  6  0  0  0
 17 12  1  0  0  0  0
 17 15  1  0  0  0  0
 18 21  1  0  0  0  0
 18 23  1  0  0  0  0
 19 21  1  6  0  0  0
 19 17  1  0  0  0  0
 19 14  1  0  0  0  0
 20 14  1  0  0  0  0
 23 24  1  0  0  0  0
 23 20  1  0  0  0  0
 24 28  1  0  0  0  0
 24 20  1  0  0  0  0
 25 24  1  0  0  0  0
 26 28  1  0  0  0  0
 26 27  1  0  0  0  0
 28 27  1  0  0  0  0
 29 28  1  0  0  0  0
 30 31  1  0  0  0  0
 32 50  1  0  0  0  0
 33 32  1  0  0  0  0
 34 35  1  0  0  0  0
 34 33  1  0  0  0  0
 35 33  1  0  0  0  0
 36 34  1  0  0  0  0
 37 39  1  0  0  0  0
 37 36  1  0  0  0  0
 38 37  1  0  0  0  0
 40 39  1  0  0  0  0
 41 43  2  0  0  0  0
 42 43  1  0  0  0  0
 43 40  1  0  0  0  0
 44 36  1  0  0  0  0
 44 45  1  0  0  0  0
 45 46  1  0  0  0  0
 46 47  1  0  0  0  0
 47 48  3  0  0  0  0
 49 51  1  0  0  0  0
 49 50  1  0  0  0  0
 51 50  1  0  0  0  0
M  END
>  <MODEL>
8

>  <REMARK>
 VINA RESULT:      -5.3      2.943      9.211
  Name = 
  16 active torsions:
  status: ('A' for Active; 'I' for Inactive)
    1  A    between atoms: C_1  and  C_15
    2  A    between atoms: C_2  and  C_7
    3  A    between atoms: C_4  and  O_34
    4  A    between atoms: C_8  and  C_23
    5  A    between atoms: C_11  and  O_34
    6  A    between atoms: C_11  and  N_38
    7  A    between atoms: C_15  and  C_28
    8  A    between atoms: C_15  and  C_43
    9  A    between atoms: C_18  and  C_23
   10  A    between atoms: C_18  and  C_47
   11  A    between atoms: C_19  and  C_27
   12  A    between atoms: C_21  and  C_50
   13  A    between atoms: C_23  and  N_38
   14  A    between atoms: C_27  and  C_29
   15  A    between atoms: O_35  and  C_36
   16  A    between atoms: O_35  and  C_47
                            x       y       z     vdW  Elec       q    Type
                         _______ _______ _______ _____ _____    ______ ____

>  <TORSDO>
F 16

$$$$
=
 OpenBabel11062418593D

 51 57  0  0  1  0  0  0  0  0999 V2000
  195.2660  177.4190  145.1630 O   0  0  0  0  0  1  0  0  0  0  0  0
  195.3740  176.2630  142.8250 O   0  0  0  0  0  0  0  0  0  0  0  0
  193.7640  172.7030  144.3900 C   0  0  0  0  0  2  0  0  0  0  0  0
  195.4720  174.5770  144.9510 C   0  0  1  0  0  3  0  0  0  0  0  0
  194.7990  176.1000  144.2140 P   0  0  1  0  0  0  0  0  0  0  0  0
  192.9770  176.0560  144.1150 C   0  0  2  0  0  3  0  0  0  0  0  0
  192.4930  174.7140  143.5240 C   0  0  1  0  0  3  0  0  0  0  0  0
  192.6250  173.6830  144.6410 C   0  0  0  0  0  2  0  0  0  0  0  0
  192.4970  177.2960  143.3750 C   0  0  0  0  0  1  0  0  0  0  0  0
  195.0340  174.4310  146.2560 F   0  0  0  0  0  0  0  0  0  0  0  0
  195.1150  173.3630  144.0850 C   0  0  1  0  0  3  0  0  0  0  0  0
  191.0630  174.7680  142.9100 C   0  0  1  0  0  3  0  0  0  0  0  0
  191.0470  173.9480  141.6210 C   0  0  0  0  0  1  0  0  0  0  0  0
  188.7740  176.3390  144.6590 C   0  0  2  0  0  0  0  0  0  0  0  0
  188.6600  174.5000  143.1290 O   0  0  0  0  0  0  0  0  0  0  0  0
  190.0220  172.8590  144.1820 C   0  0  0  0  0  1  0  0  0  0  0  0
  189.8760  174.3420  143.8270 C   0  0  1  0  0  0  0  0  0  0  0  0
  189.0160  175.4680  147.3030 O   0  0  0  0  0  0  0  0  0  0  0  0
  189.7850  175.2620  145.0610 C   0  0  2  0  0  3  0  0  0  0  0  0
  187.5400  176.5000  145.6010 C   0  0  1  0  0  3  0  0  0  0  0  0
  189.3580  174.5280  146.3350 C   0  0  0  0  0  2  0  0  0  0  0  0
  188.2390  175.8260  143.3360 C   0  0  0  0  0  2  0  0  0  0  0  0
  187.7010  175.8710  147.0080 C   0  0  2  0  0  3  0  0  0  0  0  0
  187.6250  177.3880  146.8550 C   0  0  1  0  0  0  0  0  0  0  0  0
  188.8990  178.1450  147.2320 C   0  0  0  0  0  1  0  0  0  0  0  0
  186.4120  179.3140  147.6940 O   0  0  0  0  0  0  0  0  0  0  0  0
  185.5870  178.9850  146.5990 C   0  0  0  0  0  2  0  0  0  0  0  0
  186.3050  177.9490  147.3720 C   0  0  1  0  0  0  0  0  0  0  0  0
  185.5970  177.2630  148.3410 F   0  0  0  0  0  0  0  0  0  0  0  0
  189.4520  177.6930  144.4070 C   0  0  0  0  0  2  0  0  0  0  0  0
  189.2340  178.1620  143.1100 O   0  0  0  0  0  1  0  0  0  0  0  0
  196.2330  172.3200  144.0330 C   0  0  2  0  0  3  0  0  0  0  0  0
  196.6500  171.7700  145.4220 C   0  0  2  0  0  3  0  0  0  0  0  0
  196.3970  170.3080  145.6250 C   0  0  1  0  0  3  0  0  0  0  0  0
  195.5300  171.2930  146.1330 O   0  0  0  0  0  0  0  0  0  0  0  0
  195.7140  169.5840  144.4630 C   0  0  1  0  0  3  0  0  0  0  0  0
  196.6640  168.5930  143.7840 C   0  0  2  0  0  3  0  0  0  0  0  0
  197.9400  169.1510  143.6950 O   0  0  0  0  0  1  0  0  0  0  0  0
  196.1990  168.1690  142.3920 C   0  0  0  0  0  2  0  0  0  0  0  0
  196.0370  169.2970  141.5400 O   0  0  0  0  0  0  0  0  0  0  0  0
  194.4740  170.4930  140.1560 O   0  0  0  0  0  1  0  0  0  0  0  0
  194.9040  168.2710  139.8040 O   0  0  0  0  0  0  0  0  0  0  0  0
  195.1300  169.3130  140.4780 C   0  0  0  0  0  0  0  0  0  0  0  0
  194.4930  168.9260  144.9170 N   0  0  0  0  0  2  0  0  0  0  0  0
  193.3680  169.7050  144.4200 C   0  0  0  0  0  2  0  0  0  0  0  0
  193.0660  169.3420  143.0810 O   0  0  0  0  0  0  0  0  0  0  0  0
  191.9090  169.7680  142.4870 C   0  0  0  0  0  0  0  0  0  0  0  0
  190.9290  170.1260  141.9840 N   0  0  0  0  0  0  0  0  0  0  0  0
  197.5720  171.9730  141.8790 C   0  0  0  0  0  2  0  0  0  0  0  0
  197.3740  172.8200  143.1250 C   0  0  0  0  0  3  0  0  0  0  0  0
  196.8600  173.3100  141.7840 C   0  0  0  0  0  2  0  0  0  0  0  0
  3  8  1  0  0  0  0
  4 10  1  1  0  0  0
  5  2  2  6  0  0  0
  5  4  1  0  0  0  0
  5  1  1  0  0  0  0
  6  9  1  6  0  0  0
  6  5  1  0  0  0  0
  7 12  1  1  0  0  0
  7  6  1  0  0  0  0
  7  8  1  0  0  0  0
 11 32  1  1  0  0  0
 11  3  1  0  0  0  0
 11  4  1  0  0  0  0
 12 13  1  6  0  0  0
 12 17  1  0  0  0  0
 14 30  1  6  0  0  0
 14 19  1  0  0  0  0
 14 20  1  0  0  0  0
 15 22  1  0  0  0  0
 15 17  1  0  0  0  0
 17 16  1  1  0  0  0
 17 19  1  0  0  0  0
 19 21  1  1  0  0  0
 20 24  1  0  0  0  0
 20 23  1  0  0  0  0
 21 18  1  0  0  0  0
 22 14  1  0  0  0  0
 23 18  1  0  0  0  0
 24 23  1  0  0  0  0
 24 25  1  0  0  0  0
 24 28  1  0  0  0  0
 27 28  1  0  0  0  0
 27 26  1  0  0  0  0
 28 26  1  0  0  0  0
 28 29  1  0  0  0  0
 31 30  1  0  0  0  0
 32 33  1  0  0  0  0
 33 34  1  0  0  0  0
 33 35  1  0  0  0  0
 34 35  1  0  0  0  0
 36 44  1  0  0  0  0
 36 34  1  0  0  0  0
 37 36  1  0  0  0  0
 38 37  1  0  0  0  0
 39 37  1  0  0  0  0
 40 39  1  0  0  0  0
 41 43  1  0  0  0  0
 42 43  2  0  0  0  0
 43 40  1  0  0  0  0
 45 44  1  0  0  0  0
 46 45  1  0  0  0  0
 47 46  1  0  0  0  0
 48 47  3  0  0  0  0
 49 50  1  0  0  0  0
 50 32  1  0  0  0  0
 51 49  1  0  0  0  0
 51 50  1  0  0  0  0
M  END
>  <MODEL>
9

>  <REMARK>
 VINA RESULT:      -5.3      2.978      9.504
  Name = 
  16 active torsions:
  status: ('A' for Active; 'I' for Inactive)
    1  A    between atoms: C_1  and  C_15
    2  A    between atoms: C_2  and  C_7
    3  A    between atoms: C_4  and  O_34
    4  A    between atoms: C_8  and  C_23
    5  A    between atoms: C_11  and  O_34
    6  A    between atoms: C_11  and  N_38
    7  A    between atoms: C_15  and  C_28
    8  A    between atoms: C_15  and  C_43
    9  A    between atoms: C_18  and  C_23
   10  A    between atoms: C_18  and  C_47
   11  A    between atoms: C_19  and  C_27
   12  A    between atoms: C_21  and  C_50
   13  A    between atoms: C_23  and  N_38
   14  A    between atoms: C_27  and  C_29
   15  A    between atoms: O_35  and  C_36
   16  A    between atoms: O_35  and  C_47
                            x       y       z     vdW  Elec       q    Type
                         _______ _______ _______ _____ _____    ______ ____

>  <TORSDO>
F 16

$$$$
