=
 OpenBabel11062422053D

 34 36  0  0  1  0  0  0  0  0999 V2000
  186.3460  176.7430  145.1650 C   0  0  0  0  0  2  0  0  0  0  0  0
  188.5430  176.9570  144.0240 C   0  0  0  0  0  2  0  0  0  0  0  0
  186.6170  176.8060  146.6670 C   0  0  0  0  0  2  0  0  0  0  0  0
  191.2870  177.1000  147.8270 C   0  0  0  0  0  3  0  0  0  0  0  0
  191.1380  174.5930  147.7420 C   0  0  0  0  0  1  0  0  0  0  0  0
  188.0280  176.4280  146.9840 C   0  0  0  0  0  0  0  0  0  0  0  0
  191.8010  175.8400  147.1840 C   0  0  1  0  0  3  0  0  0  0  0  0
  188.2660  175.3850  147.5720 O   0  0  0  0  0  0  0  0  0  0  0  0
  191.8510  175.8540  145.6490 C   0  0  1  0  0  3  0  0  0  0  0  0
  187.2460  177.6950  144.3720 C   0  0  1  0  0  3  0  0  0  0  0  0
  189.1300  177.3240  146.5050 C   0  0  1  0  0  3  0  0  0  0  0  0
  190.1430  177.7350  147.5360 C   0  0  0  0  0  3  0  0  0  0  0  0
  189.6490  177.0400  145.0870 C   0  0  1  0  0  3  0  0  0  0  0  0
  190.4600  175.7490  145.0130 C   0  0  0  0  0  2  0  0  0  0  0  0
  192.7000  176.9990  145.0740 C   0  0  2  0  0  3  0  0  0  0  0  0
  192.7770  176.9110  143.5580 C   0  0  0  0  0  1  0  0  0  0  0  0
  194.3960  176.9600  145.7400 S   0  0  0  0  0  0  0  0  0  0  0  0
  196.8470  174.6070  143.6210 N   0  0  0  0  0  0  0  0  0  0  0  0
  197.9410  174.9720  142.7390 C   0  0  0  0  0  1  0  0  0  0  0  0
  196.4640  174.0210  146.0290 C   0  0  0  0  0  2  0  0  0  0  0  0
  197.4520  174.0860  144.8490 C   0  0  0  0  0  2  0  0  0  0  0  0
  194.8600  175.5230  144.7300 C   0  0  2  0  0  3  0  0  0  0  0  0
  195.0090  174.2840  145.6240 C   0  0  1  0  0  3  0  0  0  0  0  0
  196.1340  175.8390  143.9370 C   0  0  0  0  0  2  0  0  0  0  0  0
  194.4200  173.0680  144.9340 C   0  0  0  0  0  1  0  0  0  0  0  0
  186.5430  178.1490  143.0910 C   0  0  2  0  0  3  0  0  0  0  0  0
  185.3430  178.9830  143.4150 C   0  0  0  0  0  0  0  0  0  0  0  0
  184.0680  178.5300  143.0990 O   0  0  0  0  0  0  0  0  0  0  0  0
  185.4900  180.0970  143.9810 O   0  0  0  0  0  1  0  0  0  0  0  0
  186.1430  177.0420  142.3330 O   0  0  0  0  0  0  0  0  0  0  0  0
  187.9660  178.3020  140.9450 O   0  0  0  0  0  1  0  0  0  0  0  0
  186.9800  177.1610  140.8620 P   0  0  0  0  0  0  0  0  0  0  0  0
  187.8190  175.7240  140.5590 O   0  0  0  0  0  1  0  0  0  0  0  0
  185.8940  177.4560  139.5970 O   0  0  0  0  0  0  0  0  0  0  0  0
  1  3  1  0  0  0  0
  2 10  1  0  0  0  0
  3  6  1  0  0  0  0
  6  8  2  0  0  0  0
  7  5  1  6  0  0  0
  7  4  1  0  0  0  0
  9 15  1  1  0  0  0
  9  7  1  0  0  0  0
 10 26  1  6  0  0  0
 10  1  1  0  0  0  0
 11  6  1  0  0  0  0
 11 12  1  1  0  0  0
 12  4  2  0  0  0  0
 13  2  1  6  0  0  0
 13 11  1  0  0  0  0
 14 13  1  0  0  0  0
 14  9  1  0  0  0  0
 15 16  1  6  0  0  0
 15 17  1  0  0  0  0
 18 24  1  0  0  0  0
 18 21  1  0  0  0  0
 19 18  1  0  0  0  0
 21 20  1  0  0  0  0
 22 23  1  0  0  0  0
 22 17  1  1  0  0  0
 23 25  1  6  0  0  0
 23 20  1  0  0  0  0
 24 22  1  0  0  0  0
 26 30  1  1  0  0  0
 26 27  1  0  0  0  0
 27 29  1  0  0  0  0
 28 27  2  0  0  0  0
 32 31  1  0  0  0  0
 32 30  1  0  0  0  0
 33 32  1  0  0  0  0
 34 32  2  0  0  0  0
M  END
>  <MODEL>
1

>  <REMARK>
 VINA RESULT:      -7.7      0.000      0.000
  Name = 
  7 active torsions:
  status: ('A' for Active; 'I' for Inactive)
    1  A    between atoms: C_5  and  S_19
    2  A    between atoms: C_5  and  C_21
    3  A    between atoms: C_7  and  C_20
    4  A    between atoms: C_13  and  S_19
    5  A    between atoms: P_18  and  O_27
    6  A    between atoms: C_20  and  C_22
    7  A    between atoms: C_20  and  O_27
                            x       y       z     vdW  Elec       q    Type
                         _______ _______ _______ _____ _____    ______ ____

>  <TORSDO>
F 7

$$$$
=
 OpenBabel11062422053D

 34 36  0  0  1  0  0  0  0  0999 V2000
  194.6380  175.6230  145.3960 C   0  0  0  0  0  2  0  0  0  0  0  0
  193.0800  176.4490  143.6460 C   0  0  0  0  0  2  0  0  0  0  0  0
  193.7810  174.9900  146.4910 C   0  0  0  0  0  2  0  0  0  0  0  0
  189.0320  175.3500  145.7470 C   0  0  0  0  0  3  0  0  0  0  0  0
  189.3320  177.5360  146.9490 C   0  0  0  0  0  1  0  0  0  0  0  0
  192.3840  175.5200  146.4670 C   0  0  0  0  0  0  0  0  0  0  0  0
  188.8870  176.8460  145.6720 C   0  0  1  0  0  3  0  0  0  0  0  0
  191.9830  176.2350  147.3720 O   0  0  0  0  0  0  0  0  0  0  0  0
  189.4590  177.5040  144.4070 C   0  0  1  0  0  3  0  0  0  0  0  0
  194.0870  175.3480  143.9950 C   0  0  1  0  0  3  0  0  0  0  0  0
  191.5250  175.2070  145.2790 C   0  0  1  0  0  3  0  0  0  0  0  0
  190.1620  174.6480  145.5790 C   0  0  0  0  0  3  0  0  0  0  0  0
  191.6360  176.1860  144.1000 C   0  0  1  0  0  3  0  0  0  0  0  0
  190.9930  177.5360  144.4020 C   0  0  0  0  0  2  0  0  0  0  0  0
  188.8560  176.9540  143.1040 C   0  0  2  0  0  3  0  0  0  0  0  0
  188.7950  178.0330  142.0350 C   0  0  0  0  0  1  0  0  0  0  0  0
  187.1710  176.3160  143.3760 S   0  0  0  0  0  0  0  0  0  0  0  0
  184.3920  178.5890  141.6050 N   0  0  0  0  0  0  0  0  0  0  0  0
  183.6210  178.3330  140.4020 C   0  0  0  0  0  1  0  0  0  0  0  0
  184.2130  178.2510  144.0840 C   0  0  0  0  0  2  0  0  0  0  0  0
  183.4800  178.4040  142.7370 C   0  0  0  0  0  2  0  0  0  0  0  0
  186.3950  177.8610  142.8180 C   0  0  2  0  0  3  0  0  0  0  0  0
  185.7130  178.5580  144.0020 C   0  0  1  0  0  3  0  0  0  0  0  0
  185.4270  177.5650  141.6660 C   0  0  0  0  0  2  0  0  0  0  0  0
  185.9460  180.0560  143.9330 C   0  0  0  0  0  1  0  0  0  0  0  0
  195.2220  175.3320  142.9680 C   0  0  2  0  0  3  0  0  0  0  0  0
  196.4810  175.8770  143.5660 C   0  0  0  0  0  0  0  0  0  0  0  0
  196.7490  177.2400  143.5170 O   0  0  0  0  0  0  0  0  0  0  0  0
  197.2990  175.0980  144.1210 O   0  0  0  0  0  1  0  0  0  0  0  0
  194.8770  176.0970  141.8470 O   0  0  0  0  0  0  0  0  0  0  0  0
  196.8070  175.8430  140.0990 O   0  0  0  0  0  1  0  0  0  0  0  0
  195.4790  175.2470  140.5060 P   0  0  0  0  0  0  0  0  0  0  0  0
  195.7020  173.6190  140.9080 O   0  0  0  0  0  1  0  0  0  0  0  0
  194.3980  175.3640  139.2100 O   0  0  0  0  0  0  0  0  0  0  0  0
  1  3  1  0  0  0  0
  2 10  1  0  0  0  0
  6  3  1  0  0  0  0
  6  8  2  0  0  0  0
  7  4  1  0  0  0  0
  7  5  1  1  0  0  0
  9 15  1  6  0  0  0
  9  7  1  0  0  0  0
 10 26  1  6  0  0  0
 10  1  1  0  0  0  0
 11 12  1  1  0  0  0
 11  6  1  0  0  0  0
 12  4  2  0  0  0  0
 13  2  1  1  0  0  0
 13 14  1  0  0  0  0
 13 11  1  0  0  0  0
 14  9  1  0  0  0  0
 15 16  1  6  0  0  0
 15 17  1  0  0  0  0
 18 24  1  0  0  0  0
 18 21  1  0  0  0  0
 19 18  1  0  0  0  0
 21 20  1  0  0  0  0
 22 17  1  1  0  0  0
 22 23  1  0  0  0  0
 23 25  1  6  0  0  0
 23 20  1  0  0  0  0
 24 22  1  0  0  0  0
 26 30  1  6  0  0  0
 26 27  1  0  0  0  0
 27 29  1  0  0  0  0
 28 27  2  0  0  0  0
 31 32  1  0  0  0  0
 32 33  1  0  0  0  0
 32 30  1  0  0  0  0
 34 32  2  0  0  0  0
M  END
>  <MODEL>
2

>  <REMARK>
 VINA RESULT:      -7.0      4.844      8.670
  Name = 
  7 active torsions:
  status: ('A' for Active; 'I' for Inactive)
    1  A    between atoms: C_5  and  S_19
    2  A    between atoms: C_5  and  C_21
    3  A    between atoms: C_7  and  C_20
    4  A    between atoms: C_13  and  S_19
    5  A    between atoms: P_18  and  O_27
    6  A    between atoms: C_20  and  C_22
    7  A    between atoms: C_20  and  O_27
                            x       y       z     vdW  Elec       q    Type
                         _______ _______ _______ _____ _____    ______ ____

>  <TORSDO>
F 7

$$$$
=
 OpenBabel11062422053D

 34 36  0  0  1  0  0  0  0  0999 V2000
  188.3540  177.2640  146.7790 C   0  0  0  0  0  2  0  0  0  0  0  0
  187.9930  176.1970  144.5640 C   0  0  0  0  0  2  0  0  0  0  0  0
  189.8630  177.3980  146.9680 C   0  0  0  0  0  2  0  0  0  0  0  0
  192.4820  175.5040  143.3910 C   0  0  0  0  0  3  0  0  0  0  0  0
  192.2790  173.4170  144.7760 C   0  0  0  0  0  1  0  0  0  0  0  0
  190.6090  176.4200  146.1180 C   0  0  0  0  0  0  0  0  0  0  0  0
  192.0040  174.0780  143.4370 C   0  0  1  0  0  3  0  0  0  0  0  0
  191.2110  175.4920  146.6340 O   0  0  0  0  0  0  0  0  0  0  0  0
  190.5690  173.8460  142.9400 C   0  0  1  0  0  3  0  0  0  0  0  0
  187.9240  177.5210  145.3320 C   0  0  1  0  0  3  0  0  0  0  0  0
  190.5400  176.5750  144.6290 C   0  0  1  0  0  3  0  0  0  0  0  0
  191.8560  176.5730  143.9020 C   0  0  0  0  0  3  0  0  0  0  0  0
  189.3590  175.8720  143.9410 C   0  0  1  0  0  3  0  0  0  0  0  0
  189.5130  174.3540  143.9290 C   0  0  0  0  0  2  0  0  0  0  0  0
  190.3350  174.3250  141.4980 C   0  0  2  0  0  3  0  0  0  0  0  0
  188.9310  173.9780  141.0300 C   0  0  0  0  0  1  0  0  0  0  0  0
  191.5280  173.5660  140.3500 S   0  0  0  0  0  0  0  0  0  0  0  0
  190.2720  170.0380  138.9320 N   0  0  0  0  0  0  0  0  0  0  0  0
  189.7920  169.6960  137.6050 C   0  0  0  0  0  1  0  0  0  0  0  0
  192.4220  170.0760  140.2230 C   0  0  0  0  0  2  0  0  0  0  0  0
  191.6210  169.4800  139.0490 C   0  0  0  0  0  2  0  0  0  0  0  0
  190.6990  171.9510  140.4080 C   0  0  2  0  0  3  0  0  0  0  0  0
  191.5750  170.9420  141.1630 C   0  0  1  0  0  3  0  0  0  0  0  0
  190.3610  171.4930  138.9840 C   0  0  0  0  0  2  0  0  0  0  0  0
  190.7160  170.0710  142.0600 C   0  0  0  0  0  1  0  0  0  0  0  0
  186.4980  178.0760  145.2900 C   0  0  2  0  0  3  0  0  0  0  0  0
  185.8100  177.8650  146.6020 C   0  0  0  0  0  0  0  0  0  0  0  0
  185.7740  178.8820  147.5470 O   0  0  0  0  0  1  0  0  0  0  0  0
  185.2580  176.7610  146.8480 O   0  0  0  0  0  0  0  0  0  0  0  0
  185.7600  177.4510  144.2770 O   0  0  0  0  0  0  0  0  0  0  0  0
  186.1250  178.6810  141.9980 O   0  0  0  0  0  0  0  0  0  0  0  0
  185.2590  178.6940  143.2360 P   0  0  0  0  0  0  0  0  0  0  0  0
  183.6460  178.4540  142.7870 O   0  0  0  0  0  1  0  0  0  0  0  0
  185.4120  180.1940  144.0040 O   0  0  0  0  0  1  0  0  0  0  0  0
  1  3  1  0  0  0  0
  2 10  1  0  0  0  0
  4  7  1  0  0  0  0
  4 12  2  0  0  0  0
  6  8  2  0  0  0  0
  6  3  1  0  0  0  0
  7  5  1  1  0  0  0
  9 15  1  6  0  0  0
  9  7  1  0  0  0  0
  9 14  1  0  0  0  0
 10 26  1  1  0  0  0
 10  1  1  0  0  0  0
 11 12  1  6  0  0  0
 11  6  1  0  0  0  0
 13 14  1  1  0  0  0
 13  2  1  0  0  0  0
 13 11  1  0  0  0  0
 15 16  1  6  0  0  0
 17 15  1  0  0  0  0
 18 24  1  0  0  0  0
 18 21  1  0  0  0  0
 19 18  1  0  0  0  0
 20 23  1  0  0  0  0
 21 20  1  0  0  0  0
 22 17  1  6  0  0  0
 22 23  1  0  0  0  0
 23 25  1  6  0  0  0
 24 22  1  0  0  0  0
 26 30  1  6  0  0  0
 26 27  1  0  0  0  0
 27 29  2  0  0  0  0
 27 28  1  0  0  0  0
 31 32  2  0  0  0  0
 32 34  1  0  0  0  0
 32 30  1  0  0  0  0
 33 32  1  0  0  0  0
M  END
>  <MODEL>
3

>  <REMARK>
 VINA RESULT:      -6.9      4.146      5.239
  Name = 
  7 active torsions:
  status: ('A' for Active; 'I' for Inactive)
    1  A    between atoms: C_5  and  S_19
    2  A    between atoms: C_5  and  C_21
    3  A    between atoms: C_7  and  C_20
    4  A    between atoms: C_13  and  S_19
    5  A    between atoms: P_18  and  O_27
    6  A    between atoms: C_20  and  C_22
    7  A    between atoms: C_20  and  O_27
                            x       y       z     vdW  Elec       q    Type
                         _______ _______ _______ _____ _____    ______ ____

>  <TORSDO>
F 7

$$$$
=
 OpenBabel11062422053D

 34 36  0  0  1  0  0  0  0  0999 V2000
  187.0610  176.6210  143.0870 C   0  0  0  0  0  2  0  0  0  0  0  0
  188.8520  177.1160  144.7380 C   0  0  0  0  0  2  0  0  0  0  0  0
  187.4130  175.2840  142.4380 C   0  0  0  0  0  2  0  0  0  0  0  0
  191.6050  173.4100  143.9060 C   0  0  0  0  0  3  0  0  0  0  0  0
  192.5210  174.8060  142.0290 C   0  0  0  0  0  1  0  0  0  0  0  0
  188.8740  174.9880  142.5520 C   0  0  0  0  0  0  0  0  0  0  0  0
  192.5440  174.5210  143.5200 C   0  0  1  0  0  3  0  0  0  0  0  0
  189.5820  174.9980  141.5570 O   0  0  0  0  0  0  0  0  0  0  0  0
  192.4470  175.7950  144.3730 C   0  0  1  0  0  3  0  0  0  0  0  0
  187.4010  176.6490  144.5800 C   0  0  1  0  0  3  0  0  0  0  0  0
  189.4470  174.7490  143.9160 C   0  0  1  0  0  3  0  0  0  0  0  0
  190.2790  173.5080  144.0750 C   0  0  0  0  0  3  0  0  0  0  0  0
  189.9090  176.0040  144.6730 C   0  0  1  0  0  3  0  0  0  0  0  0
  191.1790  176.6070  144.0780 C   0  0  0  0  0  2  0  0  0  0  0  0
  192.6780  175.5480  145.8720 C   0  0  2  0  0  3  0  0  0  0  0  0
  191.7560  176.4140  146.7160 C   0  0  0  0  0  1  0  0  0  0  0  0
  194.4000  175.9120  146.3420 S   0  0  0  0  0  0  0  0  0  0  0  0
  197.0840  174.6380  143.6580 N   0  0  0  0  0  0  0  0  0  0  0  0
  197.9410  175.4080  142.7740 C   0  0  0  0  0  1  0  0  0  0  0  0
  197.1470  173.6110  145.9450 C   0  0  0  0  0  2  0  0  0  0  0  0
  197.9410  174.1130  144.7230 C   0  0  0  0  0  2  0  0  0  0  0  0
  195.0800  174.8190  145.0600 C   0  0  2  0  0  3  0  0  0  0  0  0
  195.6340  173.5420  145.7050 C   0  0  1  0  0  3  0  0  0  0  0  0
  196.1330  175.5760  144.2420 C   0  0  0  0  0  2  0  0  0  0  0  0
  195.2850  172.3330  144.8570 C   0  0  0  0  0  1  0  0  0  0  0  0
  186.4610  177.6010  145.3230 C   0  0  2  0  0  3  0  0  0  0  0  0
  186.6700  177.5020  146.8020 C   0  0  0  0  0  0  0  0  0  0  0  0
  186.9980  176.2830  147.3830 O   0  0  0  0  0  0  0  0  0  0  0  0
  186.5530  178.5280  147.5200 O   0  0  0  0  0  1  0  0  0  0  0  0
  185.1260  177.3000  145.0260 O   0  0  0  0  0  0  0  0  0  0  0  0
  183.3860  179.1790  145.5630 O   0  0  0  0  0  1  0  0  0  0  0  0
  184.4190  178.7650  144.5410 P   0  0  0  0  0  0  0  0  0  0  0  0
  185.6040  179.9680  144.4310 O   0  0  0  0  0  1  0  0  0  0  0  0
  183.6670  178.5780  143.0360 O   0  0  0  0  0  0  0  0  0  0  0  0
  1 10  1  0  0  0  0
  3  6  1  0  0  0  0
  3  1  1  0  0  0  0
  4 12  2  0  0  0  0
  6 11  1  0  0  0  0
  7  5  1  6  0  0  0
  7  4  1  0  0  0  0
  7  9  1  0  0  0  0
  8  6  2  0  0  0  0
  9 15  1  1  0  0  0
 10  2  1  0  0  0  0
 10 26  1  1  0  0  0
 11 12  1  6  0  0  0
 11 13  1  0  0  0  0
 13 14  1  6  0  0  0
 13  2  1  0  0  0  0
 14  9  1  0  0  0  0
 15 17  1  0  0  0  0
 15 16  1  1  0  0  0
 18 24  1  0  0  0  0
 18 21  1  0  0  0  0
 19 18  1  0  0  0  0
 21 20  1  0  0  0  0
 22 23  1  0  0  0  0
 22 17  1  1  0  0  0
 23 25  1  6  0  0  0
 23 20  1  0  0  0  0
 24 22  1  0  0  0  0
 26 30  1  1  0  0  0
 26 27  1  0  0  0  0
 27 28  2  0  0  0  0
 27 29  1  0  0  0  0
 32 30  1  0  0  0  0
 32 31  1  0  0  0  0
 33 32  1  0  0  0  0
 34 32  2  0  0  0  0
M  END
>  <MODEL>
4

>  <REMARK>
 VINA RESULT:      -6.8      1.847      3.575
  Name = 
  7 active torsions:
  status: ('A' for Active; 'I' for Inactive)
    1  A    between atoms: C_5  and  S_19
    2  A    between atoms: C_5  and  C_21
    3  A    between atoms: C_7  and  C_20
    4  A    between atoms: C_13  and  S_19
    5  A    between atoms: P_18  and  O_27
    6  A    between atoms: C_20  and  C_22
    7  A    between atoms: C_20  and  O_27
                            x       y       z     vdW  Elec       q    Type
                         _______ _______ _______ _____ _____    ______ ____

>  <TORSDO>
F 7

$$$$
=
 OpenBabel11062422053D

 34 36  0  0  1  0  0  0  0  0999 V2000
  188.5750  177.0610  146.7150 C   0  0  0  0  0  2  0  0  0  0  0  0
  188.9480  175.7820  144.6170 C   0  0  0  0  0  2  0  0  0  0  0  0
  189.9500  177.4860  147.2260 C   0  0  0  0  0  2  0  0  0  0  0  0
  193.6380  175.8480  144.5910 C   0  0  0  0  0  3  0  0  0  0  0  0
  193.4420  173.8690  146.1280 C   0  0  0  0  0  1  0  0  0  0  0  0
  191.0300  176.6030  146.6900 C   0  0  0  0  0  0  0  0  0  0  0  0
  193.4010  174.3650  144.6930 C   0  0  1  0  0  3  0  0  0  0  0  0
  191.6280  175.8440  147.4360 O   0  0  0  0  0  0  0  0  0  0  0  0
  192.1890  173.8340  143.9120 C   0  0  1  0  0  3  0  0  0  0  0  0
  188.4780  177.1240  145.1880 C   0  0  1  0  0  3  0  0  0  0  0  0
  191.3040  176.6300  145.2170 C   0  0  1  0  0  3  0  0  0  0  0  0
  192.7410  176.8170  144.8160 C   0  0  0  0  0  3  0  0  0  0  0  0
  190.4590  175.6700  144.3650 C   0  0  1  0  0  3  0  0  0  0  0  0
  190.8550  174.2100  144.5670 C   0  0  0  0  0  2  0  0  0  0  0  0
  192.2420  174.1510  142.4090 C   0  0  2  0  0  3  0  0  0  0  0  0
  190.8490  174.1400  141.8010 C   0  0  0  0  0  1  0  0  0  0  0  0
  193.2710  172.9410  141.5160 S   0  0  0  0  0  0  0  0  0  0  0  0
  196.7360  174.3450  140.0830 N   0  0  0  0  0  0  0  0  0  0  0  0
  197.9130  173.6180  139.6420 C   0  0  0  0  0  1  0  0  0  0  0  0
  194.6150  175.2850  139.1300 C   0  0  0  0  0  2  0  0  0  0  0  0
  196.0690  174.8390  138.8770 C   0  0  0  0  0  2  0  0  0  0  0  0
  194.6730  174.0890  141.3850 C   0  0  2  0  0  3  0  0  0  0  0  0
  194.2450  175.3470  140.6170 C   0  0  1  0  0  3  0  0  0  0  0  0
  195.8650  173.3750  140.7370 C   0  0  0  0  0  2  0  0  0  0  0  0
  194.8430  176.5830  141.2630 C   0  0  0  0  0  1  0  0  0  0  0  0
  187.0360  177.4010  144.7560 C   0  0  2  0  0  3  0  0  0  0  0  0
  186.9130  177.3490  143.2650 C   0  0  0  0  0  0  0  0  0  0  0  0
  186.2630  176.2860  142.6510 O   0  0  0  0  0  1  0  0  0  0  0  0
  187.3960  178.2770  142.5650 O   0  0  0  0  0  0  0  0  0  0  0  0
  186.6230  178.6600  145.2080 O   0  0  0  0  0  0  0  0  0  0  0  0
  184.0380  179.0400  145.3430 O   0  0  0  0  0  0  0  0  0  0  0  0
  185.1890  178.3910  146.0760 P   0  0  0  0  0  0  0  0  0  0  0  0
  184.8970  176.7300  146.2060 O   0  0  0  0  0  1  0  0  0  0  0  0
  185.3110  179.0640  147.6240 O   0  0  0  0  0  1  0  0  0  0  0  0
  1  3  1  0  0  0  0
  2 10  1  0  0  0  0
  4  7  1  0  0  0  0
  4 12  2  0  0  0  0
  6  3  1  0  0  0  0
  6  8  2  0  0  0  0
  7  5  1  1  0  0  0
  9 15  1  6  0  0  0
  9 14  1  0  0  0  0
  9  7  1  0  0  0  0
 10 26  1  1  0  0  0
 10  1  1  0  0  0  0
 11 12  1  1  0  0  0
 11  6  1  0  0  0  0
 13 14  1  1  0  0  0
 13  2  1  0  0  0  0
 13 11  1  0  0  0  0
 15 16  1  6  0  0  0
 17 15  1  0  0  0  0
 18 24  1  0  0  0  0
 19 18  1  0  0  0  0
 20 23  1  0  0  0  0
 21 20  1  0  0  0  0
 21 18  1  0  0  0  0
 22 17  1  6  0  0  0
 23 25  1  1  0  0  0
 23 22  1  0  0  0  0
 24 22  1  0  0  0  0
 26 27  1  6  0  0  0
 26 30  1  0  0  0  0
 28 27  1  0  0  0  0
 29 27  2  0  0  0  0
 30 32  1  0  0  0  0
 31 32  2  0  0  0  0
 32 33  1  0  0  0  0
 32 34  1  0  0  0  0
M  END
>  <MODEL>
5

>  <REMARK>
 VINA RESULT:      -6.6      2.865      4.178
  Name = 
  7 active torsions:
  status: ('A' for Active; 'I' for Inactive)
    1  A    between atoms: C_5  and  S_19
    2  A    between atoms: C_5  and  C_21
    3  A    between atoms: C_7  and  C_20
    4  A    between atoms: C_13  and  S_19
    5  A    between atoms: P_18  and  O_27
    6  A    between atoms: C_20  and  C_22
    7  A    between atoms: C_20  and  O_27
                            x       y       z     vdW  Elec       q    Type
                         _______ _______ _______ _____ _____    ______ ____

>  <TORSDO>
F 7

$$$$
=
 OpenBabel11062422053D

 34 36  0  0  1  0  0  0  0  0999 V2000
  189.1620  177.9170  145.1530 C   0  0  0  0  0  2  0  0  0  0  0  0
  188.5240  175.6330  144.4120 C   0  0  0  0  0  2  0  0  0  0  0  0
  190.5940  178.1550  144.6780 C   0  0  0  0  0  2  0  0  0  0  0  0
  192.6080  174.3640  142.4850 C   0  0  0  0  0  3  0  0  0  0  0  0
  193.2610  173.7560  144.8340 C   0  0  0  0  0  1  0  0  0  0  0  0
  191.3140  176.8660  144.4470 C   0  0  0  0  0  0  0  0  0  0  0  0
  192.5110  173.3380  143.5820 C   0  0  1  0  0  3  0  0  0  0  0  0
  192.2290  176.5330  145.1840 O   0  0  0  0  0  0  0  0  0  0  0  0
  191.0950  172.8210  143.8780 C   0  0  1  0  0  3  0  0  0  0  0  0
  188.3360  177.1280  144.1340 C   0  0  1  0  0  3  0  0  0  0  0  0
  190.8400  175.9740  143.3390 C   0  0  1  0  0  3  0  0  0  0  0  0
  191.8930  175.4930  142.3810 C   0  0  0  0  0  3  0  0  0  0  0  0
  189.7280  174.9820  143.7130 C   0  0  1  0  0  3  0  0  0  0  0  0
  190.2310  173.8550  144.6100 C   0  0  0  0  0  2  0  0  0  0  0  0
  190.4000  172.2000  142.6560 C   0  0  2  0  0  3  0  0  0  0  0  0
  188.9360  171.9160  142.9470 C   0  0  0  0  0  1  0  0  0  0  0  0
  191.2040  170.6410  142.1630 S   0  0  0  0  0  0  0  0  0  0  0  0
  191.7990  170.5280  138.2050 N   0  0  0  0  0  0  0  0  0  0  0  0
  192.2850  169.4400  137.3770 C   0  0  0  0  0  1  0  0  0  0  0  0
  189.6220  171.4620  139.0300 C   0  0  0  0  0  2  0  0  0  0  0  0
  190.3590  170.6350  137.9580 C   0  0  0  0  0  2  0  0  0  0  0  0
  191.6770  171.2900  140.5340 C   0  0  2  0  0  3  0  0  0  0  0  0
  190.5640  172.1960  139.9910 C   0  0  1  0  0  3  0  0  0  0  0  0
  192.0080  170.1260  139.5910 C   0  0  0  0  0  2  0  0  0  0  0  0
  191.1640  173.4160  139.3190 C   0  0  0  0  0  1  0  0  0  0  0  0
  186.8550  177.4980  144.2470 C   0  0  2  0  0  3  0  0  0  0  0  0
  186.2740  177.7680  142.8940 C   0  0  0  0  0  0  0  0  0  0  0  0
  186.9120  178.6390  142.0180 O   0  0  0  0  0  0  0  0  0  0  0  0
  185.2060  177.2000  142.5470 O   0  0  0  0  0  1  0  0  0  0  0  0
  186.6940  178.6330  145.0510 O   0  0  0  0  0  0  0  0  0  0  0  0
  185.2100  176.7880  146.1630 O   0  0  0  0  0  1  0  0  0  0  0  0
  185.3960  178.2850  146.0870 P   0  0  0  0  0  0  0  0  0  0  0  0
  185.7190  178.8830  147.6360 O   0  0  0  0  0  1  0  0  0  0  0  0
  183.9750  178.9910  145.4970 O   0  0  0  0  0  0  0  0  0  0  0  0
  3  1  1  0  0  0  0
  4  7  1  0  0  0  0
  6  3  1  0  0  0  0
  6  8  2  0  0  0  0
  7  9  1  0  0  0  0
  7  5  1  1  0  0  0
  9 15  1  6  0  0  0
  9 14  1  0  0  0  0
 10 26  1  1  0  0  0
 10  2  1  0  0  0  0
 10  1  1  0  0  0  0
 11 12  1  1  0  0  0
 11 13  1  0  0  0  0
 11  6  1  0  0  0  0
 12  4  2  0  0  0  0
 13  2  1  1  0  0  0
 13 14  1  0  0  0  0
 15 16  1  1  0  0  0
 17 15  1  0  0  0  0
 18 24  1  0  0  0  0
 19 18  1  0  0  0  0
 20 23  1  0  0  0  0
 21 18  1  0  0  0  0
 21 20  1  0  0  0  0
 22 17  1  1  0  0  0
 23 25  1  6  0  0  0
 23 22  1  0  0  0  0
 24 22  1  0  0  0  0
 26 27  1  6  0  0  0
 26 30  1  0  0  0  0
 28 27  2  0  0  0  0
 29 27  1  0  0  0  0
 30 32  1  0  0  0  0
 32 31  1  0  0  0  0
 32 33  1  0  0  0  0
 34 32  2  0  0  0  0
M  END
>  <MODEL>
6

>  <REMARK>
 VINA RESULT:      -6.5      4.410      5.817
  Name = 
  7 active torsions:
  status: ('A' for Active; 'I' for Inactive)
    1  A    between atoms: C_5  and  S_19
    2  A    between atoms: C_5  and  C_21
    3  A    between atoms: C_7  and  C_20
    4  A    between atoms: C_13  and  S_19
    5  A    between atoms: P_18  and  O_27
    6  A    between atoms: C_20  and  C_22
    7  A    between atoms: C_20  and  O_27
                            x       y       z     vdW  Elec       q    Type
                         _______ _______ _______ _____ _____    ______ ____

>  <TORSDO>
F 7

$$$$
=
 OpenBabel11062422053D

 34 36  0  0  1  0  0  0  0  0999 V2000
  186.8140  176.3950  142.5550 C   0  0  0  0  0  2  0  0  0  0  0  0
  188.5040  177.1140  144.2280 C   0  0  0  0  0  2  0  0  0  0  0  0
  187.2590  175.0310  142.0320 C   0  0  0  0  0  2  0  0  0  0  0  0
  191.4690  173.5020  143.8120 C   0  0  0  0  0  3  0  0  0  0  0  0
  192.3970  174.7900  141.8640 C   0  0  0  0  0  1  0  0  0  0  0  0
  188.7250  174.8220  142.2270 C   0  0  0  0  0  0  0  0  0  0  0  0
  192.3680  174.6260  143.3730 C   0  0  1  0  0  3  0  0  0  0  0  0
  189.4740  174.7900  141.2630 O   0  0  0  0  0  0  0  0  0  0  0  0
  192.1720  175.9580  144.1150 C   0  0  1  0  0  3  0  0  0  0  0  0
  187.0860  176.5600  144.0520 C   0  0  1  0  0  3  0  0  0  0  0  0
  189.2490  174.7230  143.6280 C   0  0  1  0  0  3  0  0  0  0  0  0
  190.1330  173.5430  143.9210 C   0  0  0  0  0  3  0  0  0  0  0  0
  189.6170  176.0570  144.2970 C   0  0  1  0  0  3  0  0  0  0  0  0
  190.8800  176.6750  143.7050 C   0  0  0  0  0  2  0  0  0  0  0  0
  192.3500  175.8430  145.6370 C   0  0  2  0  0  3  0  0  0  0  0  0
  191.3970  176.7740  146.3680 C   0  0  0  0  0  1  0  0  0  0  0  0
  194.0540  176.2560  146.1340 S   0  0  0  0  0  0  0  0  0  0  0  0
  196.8890  174.6650  143.7970 N   0  0  0  0  0  0  0  0  0  0  0  0
  197.8670  175.3280  142.9540 C   0  0  0  0  0  1  0  0  0  0  0  0
  196.6830  173.7900  146.1390 C   0  0  0  0  0  2  0  0  0  0  0  0
  197.6130  174.1660  144.9690 C   0  0  0  0  0  2  0  0  0  0  0  0
  194.7800  175.0460  144.9910 C   0  0  2  0  0  3  0  0  0  0  0  0
  195.1970  173.7860  145.7620 C   0  0  1  0  0  3  0  0  0  0  0  0
  195.9460  175.6900  144.2310 C   0  0  0  0  0  2  0  0  0  0  0  0
  194.8550  172.5450  144.9590 C   0  0  0  0  0  1  0  0  0  0  0  0
  186.0700  177.5180  144.6770 C   0  0  2  0  0  3  0  0  0  0  0  0
  185.3700  178.3100  143.6170 C   0  0  0  0  0  0  0  0  0  0  0  0
  185.9410  179.4750  143.1200 O   0  0  0  0  0  0  0  0  0  0  0  0
  184.2610  177.9150  143.1710 O   0  0  0  0  0  1  0  0  0  0  0  0
  186.7060  178.3970  145.5630 O   0  0  0  0  0  0  0  0  0  0  0  0
  184.4400  178.2790  146.8640 O   0  0  0  0  0  0  0  0  0  0  0  0
  185.9350  178.1840  147.0600 P   0  0  0  0  0  0  0  0  0  0  0  0
  186.3150  176.6610  147.6920 O   0  0  0  0  0  1  0  0  0  0  0  0
  186.4310  179.3830  148.1460 O   0  0  0  0  0  1  0  0  0  0  0  0
  1 10  1  0  0  0  0
  2 13  1  0  0  0  0
  3  6  1  0  0  0  0
  3  1  1  0  0  0  0
  4 12  2  0  0  0  0
  6 11  1  0  0  0  0
  7  5  1  6  0  0  0
  7  4  1  0  0  0  0
  7  9  1  0  0  0  0
  8  6  2  0  0  0  0
  9 15  1  1  0  0  0
 10  2  1  0  0  0  0
 10 26  1  6  0  0  0
 11 12  1  6  0  0  0
 11 13  1  0  0  0  0
 13 14  1  6  0  0  0
 14  9  1  0  0  0  0
 15 17  1  0  0  0  0
 15 16  1  1  0  0  0
 18 24  1  0  0  0  0
 18 21  1  0  0  0  0
 19 18  1  0  0  0  0
 21 20  1  0  0  0  0
 22 23  1  0  0  0  0
 22 17  1  1  0  0  0
 23 25  1  6  0  0  0
 23 20  1  0  0  0  0
 24 22  1  0  0  0  0
 26 27  1  6  0  0  0
 26 30  1  0  0  0  0
 28 27  2  0  0  0  0
 29 27  1  0  0  0  0
 30 32  1  0  0  0  0
 31 32  2  0  0  0  0
 32 33  1  0  0  0  0
 32 34  1  0  0  0  0
M  END
>  <MODEL>
7

>  <REMARK>
 VINA RESULT:      -6.5      2.132      3.818
  Name = 
  7 active torsions:
  status: ('A' for Active; 'I' for Inactive)
    1  A    between atoms: C_5  and  S_19
    2  A    between atoms: C_5  and  C_21
    3  A    between atoms: C_7  and  C_20
    4  A    between atoms: C_13  and  S_19
    5  A    between atoms: P_18  and  O_27
    6  A    between atoms: C_20  and  C_22
    7  A    between atoms: C_20  and  O_27
                            x       y       z     vdW  Elec       q    Type
                         _______ _______ _______ _____ _____    ______ ____

>  <TORSDO>
F 7

$$$$
=
 OpenBabel11062422053D

 34 36  0  0  1  0  0  0  0  0999 V2000
  191.5710  171.1560  141.2660 C   0  0  0  0  0  2  0  0  0  0  0  0
  190.9230  173.5530  141.1620 C   0  0  0  0  0  2  0  0  0  0  0  0
  191.3760  170.7060  142.7130 C   0  0  0  0  0  2  0  0  0  0  0  0
  189.9840  174.2140  145.7100 C   0  0  0  0  0  3  0  0  0  0  0  0
  192.4610  174.5730  145.9310 C   0  0  0  0  0  1  0  0  0  0  0  0
  191.4120  171.8650  143.6560 C   0  0  0  0  0  0  0  0  0  0  0  0
  191.1250  175.1800  145.5390 C   0  0  1  0  0  3  0  0  0  0  0  0
  192.3450  171.9960  144.4310 O   0  0  0  0  0  0  0  0  0  0  0  0
  191.1750  175.9130  144.1900 C   0  0  1  0  0  3  0  0  0  0  0  0
  190.4800  172.1290  140.8090 C   0  0  1  0  0  3  0  0  0  0  0  0
  190.3150  172.8830  143.5730 C   0  0  1  0  0  3  0  0  0  0  0  0
  189.6370  173.2310  144.8690 C   0  0  0  0  0  3  0  0  0  0  0  0
  190.5430  174.0270  142.5730 C   0  0  1  0  0  3  0  0  0  0  0  0
  191.6200  175.0020  143.0400 C   0  0  0  0  0  2  0  0  0  0  0  0
  189.8970  176.7090  143.8780 C   0  0  2  0  0  3  0  0  0  0  0  0
  190.1480  177.7350  142.7860 C   0  0  0  0  0  1  0  0  0  0  0  0
  189.2860  177.5790  145.3570 S   0  0  0  0  0  0  0  0  0  0  0  0
  185.2950  177.6810  145.6680 N   0  0  0  0  0  0  0  0  0  0  0  0
  184.4680  178.1350  146.7710 C   0  0  0  0  0  1  0  0  0  0  0  0
  186.3230  178.5840  143.5660 C   0  0  0  0  0  2  0  0  0  0  0  0
  185.2130  178.7090  144.6280 C   0  0  0  0  0  2  0  0  0  0  0  0
  187.5840  176.9930  145.1140 C   0  0  2  0  0  3  0  0  0  0  0  0
  187.1320  177.2870  143.6770 C   0  0  1  0  0  3  0  0  0  0  0  0
  186.6650  177.6260  146.1660 C   0  0  0  0  0  2  0  0  0  0  0  0
  186.3380  176.1170  143.1280 C   0  0  0  0  0  1  0  0  0  0  0  0
  190.2580  172.0100  139.3000 C   0  0  2  0  0  3  0  0  0  0  0  0
  189.1150  172.8740  138.8650 C   0  0  0  0  0  0  0  0  0  0  0  0
  189.3300  173.9370  137.9970 O   0  0  0  0  0  0  0  0  0  0  0  0
  187.9530  172.6320  139.2850 O   0  0  0  0  0  1  0  0  0  0  0  0
  189.9890  170.6810  138.9490 O   0  0  0  0  0  0  0  0  0  0  0  0
  191.2020  168.9810  137.3740 O   0  0  0  0  0  1  0  0  0  0  0  0
  190.7750  170.4270  137.4660 P   0  0  0  0  0  0  0  0  0  0  0  0
  189.7220  170.7770  136.1890 O   0  0  0  0  0  0  0  0  0  0  0  0
  192.1430  171.4180  137.3550 O   0  0  0  0  0  1  0  0  0  0  0  0
  1  3  1  0  0  0  0
  3  6  1  0  0  0  0
  6  8  2  0  0  0  0
  7  4  1  0  0  0  0
  7  5  1  6  0  0  0
  9 15  1  6  0  0  0
  9  7  1  0  0  0  0
 10 26  1  6  0  0  0
 10  2  1  0  0  0  0
 10  1  1  0  0  0  0
 11  6  1  0  0  0  0
 11 12  1  1  0  0  0
 12  4  2  0  0  0  0
 13  2  1  6  0  0  0
 13 14  1  0  0  0  0
 13 11  1  0  0  0  0
 14  9  1  0  0  0  0
 15 16  1  6  0  0  0
 15 17  1  0  0  0  0
 18 24  1  0  0  0  0
 18 19  1  0  0  0  0
 20 23  1  0  0  0  0
 20 21  1  0  0  0  0
 21 18  1  0  0  0  0
 22 17  1  6  0  0  0
 22 24  1  0  0  0  0
 23 25  1  1  0  0  0
 23 22  1  0  0  0  0
 26 27  1  1  0  0  0
 27 29  1  0  0  0  0
 28 27  2  0  0  0  0
 30 26  1  0  0  0  0
 31 32  1  0  0  0  0
 32 30  1  0  0  0  0
 33 32  2  0  0  0  0
 34 32  1  0  0  0  0
M  END
>  <MODEL>
8

>  <REMARK>
 VINA RESULT:      -6.5      4.726      7.847
  Name = 
  7 active torsions:
  status: ('A' for Active; 'I' for Inactive)
    1  A    between atoms: C_5  and  S_19
    2  A    between atoms: C_5  and  C_21
    3  A    between atoms: C_7  and  C_20
    4  A    between atoms: C_13  and  S_19
    5  A    between atoms: P_18  and  O_27
    6  A    between atoms: C_20  and  C_22
    7  A    between atoms: C_20  and  O_27
                            x       y       z     vdW  Elec       q    Type
                         _______ _______ _______ _____ _____    ______ ____

>  <TORSDO>
F 7

$$$$
=
 OpenBabel11062422053D

 34 36  0  0  1  0  0  0  0  0999 V2000
  188.5300  177.1420  146.6270 C   0  0  0  0  0  2  0  0  0  0  0  0
  188.6980  175.7610  144.5680 C   0  0  0  0  0  2  0  0  0  0  0  0
  189.9520  177.5540  147.0020 C   0  0  0  0  0  2  0  0  0  0  0  0
  193.3700  175.7030  144.1510 C   0  0  0  0  0  3  0  0  0  0  0  0
  193.2590  173.8010  145.7900 C   0  0  0  0  0  1  0  0  0  0  0  0
  190.9640  176.6200  146.4210 C   0  0  0  0  0  0  0  0  0  0  0  0
  193.1090  174.2330  144.3420 C   0  0  1  0  0  3  0  0  0  0  0  0
  191.6050  175.8790  147.1500 O   0  0  0  0  0  0  0  0  0  0  0  0
  191.8250  173.6990  143.6900 C   0  0  1  0  0  3  0  0  0  0  0  0
  188.3070  177.1390  145.1120 C   0  0  1  0  0  3  0  0  0  0  0  0
  191.1140  176.5730  144.9310 C   0  0  1  0  0  3  0  0  0  0  0  0
  192.5160  176.7050  144.4040 C   0  0  0  0  0  3  0  0  0  0  0  0
  190.1800  175.5980  144.1970 C   0  0  1  0  0  3  0  0  0  0  0  0
  190.5590  174.1390  144.4350 C   0  0  0  0  0  2  0  0  0  0  0  0
  191.7580  173.9470  142.1740 C   0  0  2  0  0  3  0  0  0  0  0  0
  190.3410  173.7690  141.6550 C   0  0  0  0  0  1  0  0  0  0  0  0
  192.8510  172.8030  141.2710 S   0  0  0  0  0  0  0  0  0  0  0  0
  191.6880  169.0540  142.0640 N   0  0  0  0  0  0  0  0  0  0  0  0
  190.7510  168.2090  141.3460 C   0  0  0  0  0  1  0  0  0  0  0  0
  194.1470  169.5470  142.1170 C   0  0  0  0  0  2  0  0  0  0  0  0
  193.0290  168.5460  141.7650 C   0  0  0  0  0  2  0  0  0  0  0  0
  192.3930  171.3900  142.3170 C   0  0  2  0  0  3  0  0  0  0  0  0
  193.6540  170.7570  142.9190 C   0  0  1  0  0  3  0  0  0  0  0  0
  191.5590  170.3940  141.5020 C   0  0  0  0  0  2  0  0  0  0  0  0
  193.4060  170.3710  144.3660 C   0  0  0  0  0  1  0  0  0  0  0  0
  186.8410  177.4330  144.7880 C   0  0  2  0  0  3  0  0  0  0  0  0
  186.6380  177.5380  143.3090 C   0  0  0  0  0  0  0  0  0  0  0  0
  185.6360  176.8060  142.6850 O   0  0  0  0  0  1  0  0  0  0  0  0
  187.3750  178.2990  142.6300 O   0  0  0  0  0  0  0  0  0  0  0  0
  186.4360  178.6290  145.3940 O   0  0  0  0  0  0  0  0  0  0  0  0
  183.8320  178.8200  145.5540 O   0  0  0  0  0  0  0  0  0  0  0  0
  185.0340  178.2510  146.2720 P   0  0  0  0  0  0  0  0  0  0  0  0
  184.8640  176.5720  146.3930 O   0  0  0  0  0  1  0  0  0  0  0  0
  185.1210  178.9200  147.8250 O   0  0  0  0  0  1  0  0  0  0  0  0
  1  3  1  0  0  0  0
  2 10  1  0  0  0  0
  4  7  1  0  0  0  0
  4 12  2  0  0  0  0
  6  3  1  0  0  0  0
  6  8  2  0  0  0  0
  7  5  1  1  0  0  0
  9 15  1  6  0  0  0
  9  7  1  0  0  0  0
  9 14  1  0  0  0  0
 10 26  1  1  0  0  0
 10  1  1  0  0  0  0
 11 12  1  1  0  0  0
 11  6  1  0  0  0  0
 13 14  1  1  0  0  0
 13  2  1  0  0  0  0
 13 11  1  0  0  0  0
 15 16  1  6  0  0  0
 17 15  1  0  0  0  0
 19 18  1  0  0  0  0
 20 23  1  0  0  0  0
 21 18  1  0  0  0  0
 21 20  1  0  0  0  0
 22 17  1  6  0  0  0
 22 23  1  0  0  0  0
 23 25  1  1  0  0  0
 24 18  1  0  0  0  0
 24 22  1  0  0  0  0
 26 27  1  6  0  0  0
 26 30  1  0  0  0  0
 28 27  1  0  0  0  0
 29 27  2  0  0  0  0
 30 32  1  0  0  0  0
 31 32  2  0  0  0  0
 32 33  1  0  0  0  0
 32 34  1  0  0  0  0
M  END
>  <MODEL>
9

>  <REMARK>
 VINA RESULT:      -6.4      3.464      4.837
  Name = 
  7 active torsions:
  status: ('A' for Active; 'I' for Inactive)
    1  A    between atoms: C_5  and  S_19
    2  A    between atoms: C_5  and  C_21
    3  A    between atoms: C_7  and  C_20
    4  A    between atoms: C_13  and  S_19
    5  A    between atoms: P_18  and  O_27
    6  A    between atoms: C_20  and  C_22
    7  A    between atoms: C_20  and  O_27
                            x       y       z     vdW  Elec       q    Type
                         _______ _______ _______ _____ _____    ______ ____

>  <TORSDO>
F 7

$$$$
