=
 OpenBabel11062418293D

 48 49  0  0  1  0  0  0  0  0999 V2000
  189.6070  178.2570  143.4820 C   0  0  0  0  0  2  0  0  0  0  0  0
  191.6290  176.8180  143.7500 C   0  0  0  0  0  2  0  0  0  0  0  0
  189.6550  175.9420  142.4730 C   0  0  0  0  0  2  0  0  0  0  0  0
  191.0990  175.9600  142.6940 N   0  0  0  0  0  0  0  0  0  0  0  0
  191.4590  174.2220  141.1740 O   0  0  0  0  0  0  0  0  0  0  0  0
  191.9180  174.9400  142.1050 C   0  0  0  0  0  0  0  0  0  0  0  0
  191.1290  178.2450  143.5500 C   0  0  0  0  0  2  0  0  0  0  0  0
  189.1130  177.3630  142.3410 C   0  0  1  0  0  3  0  0  0  0  0  0
  193.3230  174.7180  142.5890 C   0  0  1  0  0  3  0  0  0  0  0  0
  193.6450  173.2950  142.6490 N   0  0  0  0  0  2  0  0  0  0  0  0
  193.2270  172.7850  143.9500 C   0  0  2  0  0  3  0  0  0  0  0  0
  195.4200  170.3680  145.8680 C   0  0  0  0  0  3  0  0  0  0  0  0
  194.3890  172.2340  144.7220 C   0  0  0  0  0  0  0  0  0  0  0  0
  194.3590  170.8980  145.1330 C   0  0  0  0  0  3  0  0  0  0  0  0
  195.4890  173.0400  145.0570 C   0  0  0  0  0  3  0  0  0  0  0  0
  196.5490  172.5090  145.7920 C   0  0  0  0  0  3  0  0  0  0  0  0
  196.5150  171.1730  146.1970 C   0  0  0  0  0  3  0  0  0  0  0  0
  192.2030  170.8290  142.7290 N   0  0  0  0  0  1  0  0  0  0  0  0
  192.1370  171.7750  143.7910 C   0  0  0  0  0  0  0  0  0  0  0  0
  191.1640  171.7500  144.5900 O   0  0  0  0  0  0  0  0  0  0  0  0
  194.3450  175.4730  141.7460 C   0  0  0  0  0  2  0  0  0  0  0  0
  195.7100  175.1970  142.1860 N   0  0  0  0  0  0  0  0  0  0  0  0
  196.2910  176.4340  142.6930 C   0  0  0  0  0  2  0  0  0  0  0  0
  197.5650  176.1780  143.1960 O   0  0  0  0  0  1  0  0  0  0  0  0
  196.5060  174.7010  141.0590 C   0  0  0  0  0  2  0  0  0  0  0  0
  196.5560  175.6700  139.8760 C   0  0  0  0  0  2  0  0  0  0  0  0
  197.5860  175.2600  138.9620 N   0  0  0  0  0  0  0  0  0  0  0  0
  197.9410  174.0330  138.9060 C   0  0  0  0  0  2  0  0  0  0  0  0
  187.5900  177.3370  142.2640 C   0  0  0  0  0  2  0  0  0  0  0  0
  187.0660  178.5810  141.8580 O   0  0  0  0  0  0  0  0  0  0  0  0
  185.8690  178.8550  142.5630 C   0  0  1  0  0  3  0  0  0  0  0  0
  184.8170  177.7470  142.4680 C   0  0  0  0  0  2  0  0  0  0  0  0
  183.7810  178.1010  141.4570 C   0  0  0  0  0  0  0  0  0  0  0  0
  184.1000  178.1780  140.2400 O   0  0  0  0  0  0  0  0  0  0  0  0
  181.3800  178.2660  140.9540 C   0  0  0  0  0  1  0  0  0  0  0  0
  182.4650  178.3130  141.8680 O   0  0  0  0  0  0  0  0  0  0  0  0
  186.1160  179.2940  144.0020 C   0  0  0  0  0  2  0  0  0  0  0  0
  185.0000  178.8490  144.8970 C   0  0  0  0  0  0  0  0  0  0  0  0
  183.9080  179.3860  144.8020 O   0  0  0  0  0  0  0  0  0  0  0  0
  185.2260  177.7620  145.9110 C   0  0  2  0  0  3  0  0  0  0  0  0
  184.4950  178.0780  147.2020 C   0  0  0  0  0  1  0  0  0  0  0  0
  186.7050  177.5630  146.1970 C   0  0  0  0  0  2  0  0  0  0  0  0
  187.1420  176.3610  145.6370 O   0  0  0  0  0  0  0  0  0  0  0  0
  188.0930  175.2420  147.8050 O   0  0  0  0  0  1  0  0  0  0  0  0
  189.4000  177.3150  146.9120 O   0  0  0  0  0  0  0  0  0  0  0  0
  188.5210  175.9240  146.5220 P   0  0  2  0  0  0  0  0  0  0  0  0
  190.7010  174.7830  146.3340 C   0  0  0  0  0  1  0  0  0  0  0  0
  189.5060  174.8770  145.6190 O   0  0  0  0  0  0  0  0  0  0  0  0
  1  7  1  0  0  0  0
  3  4  1  0  0  0  0
  4  2  1  0  0  0  0
  5  6  2  0  0  0  0
  6  9  1  0  0  0  0
  6  4  1  0  0  0  0
  7  2  1  0  0  0  0
  8 29  1  1  0  0  0
  8  3  1  0  0  0  0
  8  1  1  0  0  0  0
  9 21  1  6  0  0  0
  9 10  1  0  0  0  0
 11 10  1  6  0  0  0
 11 13  1  0  0  0  0
 12 17  1  0  0  0  0
 13 15  2  0  0  0  0
 13 14  1  0  0  0  0
 14 12  2  0  0  0  0
 15 16  1  0  0  0  0
 16 17  2  0  0  0  0
 18 19  1  0  0  0  0
 19 11  1  0  0  0  0
 19 20  2  0  0  0  0
 21 22  1  0  0  0  0
 22 23  1  0  0  0  0
 23 24  1  0  0  0  0
 25 22  1  0  0  0  0
 26 25  1  0  0  0  0
 27 26  1  0  0  0  0
 28 27  2  0  0  0  0
 30 29  1  0  0  0  0
 30 31  1  0  0  0  0
 31 32  1  1  0  0  0
 31 37  1  0  0  0  0
 33 36  1  0  0  0  0
 33 32  1  0  0  0  0
 34 33  2  0  0  0  0
 35 36  1  0  0  0  0
 37 38  1  0  0  0  0
 38 40  1  0  0  0  0
 39 38  2  0  0  0  0
 40 42  1  0  0  0  0
 40 41  1  1  0  0  0
 43 42  1  0  0  0  0
 43 46  1  0  0  0  0
 46 45  2  1  0  0  0
 46 44  1  0  0  0  0
 48 47  1  0  0  0  0
 48 46  1  0  0  0  0
M  END
>  <MODEL>
1

>  <REMARK>
 VINA RESULT:      -5.8      0.000      0.000
  Name = 
  24 active torsions:
  status: ('A' for Active; 'I' for Inactive)
    1  A    between atoms: C_1  and  C_2
    2  A    between atoms: C_1  and  C_37
    3  A    between atoms: C_2  and  C_17
    4  A    between atoms: C_7  and  O_33
    5  A    between atoms: C_7  and  C_45
    6  A    between atoms: C_10  and  C_30
    7  A    between atoms: C_12  and  C_17
    8  A    between atoms: C_12  and  C_23
    9  A    between atoms: C_12  and  O_33
   10  A    between atoms: O_13  and  P_38
   11  A    between atoms: N_18  and  C_22
   12  A    between atoms: C_19  and  N_42
   13  A    between atoms: O_20  and  C_21
   14  A    between atoms: C_21  and  C_23
   15  A    between atoms: C_22  and  C_41
   16  A    between atoms: O_27  and  C_37
   17  A    between atoms: O_27  and  P_38
   18  A    between atoms: C_28  and  C_36
   19  A    between atoms: C_28  and  N_42
   20  A    between atoms: C_30  and  N_35
   21  A    between atoms: C_30  and  C_44
   22  A    between atoms: N_35  and  C_36
   23  A    between atoms: C_36  and  C_40
   24  A    between atoms: C_41  and  N_42
                            x       y       z     vdW  Elec       q    Type
                         _______ _______ _______ _____ _____    ______ ____

>  <TORSDO>
F 24

$$$$
=
 OpenBabel11062418293D

 48 49  0  0  1  0  0  0  0  0999 V2000
  191.3320  171.4170  143.3230 C   0  0  0  0  0  2  0  0  0  0  0  0
  189.9200  173.3630  143.9900 C   0  0  0  0  0  2  0  0  0  0  0  0
  192.3300  173.7350  143.4020 C   0  0  0  0  0  2  0  0  0  0  0  0
  190.9600  174.2390  143.4580 N   0  0  0  0  0  0  0  0  0  0  0  0
  191.6120  176.3850  142.8020 O   0  0  0  0  0  0  0  0  0  0  0  0
  190.7150  175.6420  143.2880 C   0  0  0  0  0  0  0  0  0  0  0  0
  189.9400  172.0320  143.2470 C   0  0  0  0  0  2  0  0  0  0  0  0
  192.3730  172.3670  142.7260 C   0  0  1  0  0  3  0  0  0  0  0  0
  189.3940  176.2380  143.6870 C   0  0  1  0  0  3  0  0  0  0  0  0
  189.4440  176.7820  145.0400 N   0  0  0  0  0  2  0  0  0  0  0  0
  188.5320  176.0110  145.8790 C   0  0  2  0  0  3  0  0  0  0  0  0
  186.4430  178.5850  147.7080 C   0  0  0  0  0  3  0  0  0  0  0  0
  187.3520  176.8340  146.3050 C   0  0  0  0  0  0  0  0  0  0  0  0
  187.5290  177.8190  147.2810 C   0  0  0  0  0  3  0  0  0  0  0  0
  186.0770  176.6160  145.7600 C   0  0  0  0  0  3  0  0  0  0  0  0
  184.9920  177.3830  146.1870 C   0  0  0  0  0  3  0  0  0  0  0  0
  185.1750  178.3670  147.1610 C   0  0  0  0  0  3  0  0  0  0  0  0
  190.5150  175.9810  147.4380 N   0  0  0  0  0  1  0  0  0  0  0  0
  189.2590  175.4340  147.0500 C   0  0  0  0  0  0  0  0  0  0  0  0
  188.7680  174.4720  147.6980 O   0  0  0  0  0  0  0  0  0  0  0  0
  188.9180  177.2910  142.6920 C   0  0  0  0  0  2  0  0  0  0  0  0
  187.9380  176.7410  141.7590 N   0  0  0  0  0  0  0  0  0  0  0  0
  186.7990  177.6490  141.6970 C   0  0  0  0  0  2  0  0  0  0  0  0
  185.7020  177.0610  142.3230 O   0  0  0  0  0  1  0  0  0  0  0  0
  187.4950  175.4210  142.2230 C   0  0  0  0  0  2  0  0  0  0  0  0
  187.6870  174.3160  141.1830 C   0  0  0  0  0  2  0  0  0  0  0  0
  188.8940  174.5580  140.4420 N   0  0  0  0  0  0  0  0  0  0  0  0
  189.5240  173.5810  139.9070 C   0  0  0  0  0  2  0  0  0  0  0  0
  193.7810  171.7860  142.8110 C   0  0  0  0  0  2  0  0  0  0  0  0
  194.7000  172.7180  143.3340 O   0  0  0  0  0  0  0  0  0  0  0  0
  195.4760  172.1140  144.3530 C   0  0  1  0  0  3  0  0  0  0  0  0
  196.9460  171.9050  143.9830 C   0  0  0  0  0  2  0  0  0  0  0  0
  197.1040  170.6690  143.1660 C   0  0  0  0  0  0  0  0  0  0  0  0
  197.4950  170.7580  141.9710 O   0  0  0  0  0  0  0  0  0  0  0  0
  195.9790  168.4820  143.1330 C   0  0  0  0  0  1  0  0  0  0  0  0
  196.8450  169.4260  143.7440 O   0  0  0  0  0  0  0  0  0  0  0  0
  195.3130  172.8010  145.7050 C   0  0  0  0  0  2  0  0  0  0  0  0
  195.9590  174.1520  145.7000 C   0  0  0  0  0  0  0  0  0  0  0  0
  197.1550  174.2430  145.4680 O   0  0  0  0  0  0  0  0  0  0  0  0
  195.1470  175.3840  145.9910 C   0  0  2  0  0  3  0  0  0  0  0  0
  193.6830  175.0290  146.1590 C   0  0  0  0  0  1  0  0  0  0  0  0
  195.2980  176.4250  144.8950 C   0  0  0  0  0  2  0  0  0  0  0  0
  194.9070  175.8860  143.6670 O   0  0  0  0  0  0  0  0  0  0  0  0
  196.9140  174.9540  142.2680 O   0  0  0  0  0  0  0  0  0  0  0  0
  197.2480  177.3140  143.3290 O   0  0  0  0  0  1  0  0  0  0  0  0
  196.1740  176.2340  142.5950 P   0  0  2  0  0  0  0  0  0  0  0  0
  194.7480  175.9570  140.6000 C   0  0  0  0  0  1  0  0  0  0  0  0
  195.5740  176.9290  141.1660 O   0  0  0  0  0  0  0  0  0  0  0  0
  3  4  1  0  0  0  0
  4  2  1  0  0  0  0
  5  6  2  0  0  0  0
  6  4  1  0  0  0  0
  6  9  1  0  0  0  0
  7  1  1  0  0  0  0
  7  2  1  0  0  0  0
  8 29  1  1  0  0  0
  8  1  1  0  0  0  0
  8  3  1  0  0  0  0
  9 21  1  6  0  0  0
  9 10  1  0  0  0  0
 11 10  1  1  0  0  0
 11 13  1  0  0  0  0
 11 19  1  0  0  0  0
 13 14  2  0  0  0  0
 14 12  1  0  0  0  0
 15 16  2  0  0  0  0
 15 13  1  0  0  0  0
 16 17  1  0  0  0  0
 17 12  2  0  0  0  0
 19 18  1  0  0  0  0
 19 20  2  0  0  0  0
 22 25  1  0  0  0  0
 22 21  1  0  0  0  0
 23 22  1  0  0  0  0
 23 24  1  0  0  0  0
 26 25  1  0  0  0  0
 27 26  1  0  0  0  0
 28 27  2  0  0  0  0
 29 30  1  0  0  0  0
 30 31  1  0  0  0  0
 31 32  1  6  0  0  0
 31 37  1  0  0  0  0
 33 36  1  0  0  0  0
 33 32  1  0  0  0  0
 34 33  2  0  0  0  0
 35 36  1  0  0  0  0
 38 37  1  0  0  0  0
 38 40  1  0  0  0  0
 39 38  2  0  0  0  0
 40 41  1  6  0  0  0
 42 40  1  0  0  0  0
 43 42  1  0  0  0  0
 46 44  2  6  0  0  0
 46 45  1  0  0  0  0
 46 43  1  0  0  0  0
 47 48  1  0  0  0  0
 48 46  1  0  0  0  0
M  END
>  <MODEL>
2

>  <REMARK>
 VINA RESULT:      -5.8      2.944      9.709
  Name = 
  24 active torsions:
  status: ('A' for Active; 'I' for Inactive)
    1  A    between atoms: C_1  and  C_2
    2  A    between atoms: C_1  and  C_37
    3  A    between atoms: C_2  and  C_17
    4  A    between atoms: C_7  and  O_33
    5  A    between atoms: C_7  and  C_45
    6  A    between atoms: C_10  and  C_30
    7  A    between atoms: C_12  and  C_17
    8  A    between atoms: C_12  and  C_23
    9  A    between atoms: C_12  and  O_33
   10  A    between atoms: O_13  and  P_38
   11  A    between atoms: N_18  and  C_22
   12  A    between atoms: C_19  and  N_42
   13  A    between atoms: O_20  and  C_21
   14  A    between atoms: C_21  and  C_23
   15  A    between atoms: C_22  and  C_41
   16  A    between atoms: O_27  and  C_37
   17  A    between atoms: O_27  and  P_38
   18  A    between atoms: C_28  and  C_36
   19  A    between atoms: C_28  and  N_42
   20  A    between atoms: C_30  and  N_35
   21  A    between atoms: C_30  and  C_44
   22  A    between atoms: N_35  and  C_36
   23  A    between atoms: C_36  and  C_40
   24  A    between atoms: C_41  and  N_42
                            x       y       z     vdW  Elec       q    Type
                         _______ _______ _______ _____ _____    ______ ____

>  <TORSDO>
F 24

$$$$
=
 OpenBabel11062418293D

 48 49  0  0  1  0  0  0  0  0999 V2000
  190.9340  172.6940  140.8290 C   0  0  0  0  0  2  0  0  0  0  0  0
  189.4030  174.1620  142.1440 C   0  0  0  0  0  2  0  0  0  0  0  0
  191.8840  174.4590  142.3650 C   0  0  0  0  0  2  0  0  0  0  0  0
  190.5430  175.0370  142.4040 N   0  0  0  0  0  0  0  0  0  0  0  0
  191.3380  177.0930  143.1790 O   0  0  0  0  0  0  0  0  0  0  0  0
  190.3480  176.3340  142.9820 C   0  0  0  0  0  0  0  0  0  0  0  0
  189.6040  173.4380  140.8170 C   0  0  0  0  0  2  0  0  0  0  0  0
  192.0910  173.6650  141.0780 C   0  0  1  0  0  3  0  0  0  0  0  0
  188.9710  176.8010  143.3610 C   0  0  1  0  0  3  0  0  0  0  0  0
  188.9490  177.3510  144.7120 N   0  0  0  0  0  2  0  0  0  0  0  0
  188.2130  176.4290  145.5710 C   0  0  2  0  0  3  0  0  0  0  0  0
  184.6580  177.4110  146.4250 C   0  0  0  0  0  3  0  0  0  0  0  0
  187.0520  177.1080  146.2360 C   0  0  0  0  0  0  0  0  0  0  0  0
  185.7540  176.7800  145.8350 C   0  0  0  0  0  3  0  0  0  0  0  0
  187.2480  178.0780  147.2320 C   0  0  0  0  0  3  0  0  0  0  0  0
  186.1520  178.7080  147.8220 C   0  0  0  0  0  3  0  0  0  0  0  0
  184.8570  178.3740  147.4190 C   0  0  0  0  0  3  0  0  0  0  0  0
  190.4530  176.2970  146.7230 N   0  0  0  0  0  1  0  0  0  0  0  0
  189.1300  175.7960  146.5660 C   0  0  0  0  0  0  0  0  0  0  0  0
  188.7420  174.8260  147.2690 O   0  0  0  0  0  0  0  0  0  0  0  0
  188.4090  177.8000  142.3550 C   0  0  0  0  0  2  0  0  0  0  0  0
  187.0830  177.4020  141.8890 N   0  0  0  0  0  0  0  0  0  0  0  0
  187.2250  176.7560  140.5900 C   0  0  0  0  0  2  0  0  0  0  0  0
  186.3210  177.3180  139.6910 O   0  0  0  0  0  1  0  0  0  0  0  0
  186.2230  178.5840  141.7640 C   0  0  0  0  0  2  0  0  0  0  0  0
  185.3390  178.8250  142.9890 C   0  0  0  0  0  2  0  0  0  0  0  0
  184.0880  178.1390  142.8210 N   0  0  0  0  0  0  0  0  0  0  0  0
  183.4860  178.1750  141.6930 C   0  0  0  0  0  2  0  0  0  0  0  0
  193.4340  172.9430  141.1180 C   0  0  0  0  0  2  0  0  0  0  0  0
  193.3540  171.7320  141.8340 O   0  0  0  0  0  0  0  0  0  0  0  0
  194.5340  170.9740  141.6360 C   0  0  1  0  0  3  0  0  0  0  0  0
  195.7910  171.8180  141.4090 C   0  0  0  0  0  2  0  0  0  0  0  0
  196.4850  171.3890  140.1630 C   0  0  0  0  0  0  0  0  0  0  0  0
  196.9310  170.2130  140.0710 O   0  0  0  0  0  0  0  0  0  0  0  0
  195.5880  172.4250  138.1210 C   0  0  0  0  0  1  0  0  0  0  0  0
  196.6050  172.2850  139.1000 O   0  0  0  0  0  0  0  0  0  0  0  0
  194.7400  169.9090  142.7080 C   0  0  0  0  0  2  0  0  0  0  0  0
  194.3620  170.4300  144.0600 C   0  0  0  0  0  0  0  0  0  0  0  0
  193.2720  170.1440  144.5280 O   0  0  0  0  0  0  0  0  0  0  0  0
  195.3110  171.3090  144.8280 C   0  0  2  0  0  3  0  0  0  0  0  0
  195.9590  170.5330  145.9590 C   0  0  0  0  0  1  0  0  0  0  0  0
  194.6080  172.5350  145.3870 C   0  0  0  0  0  2  0  0  0  0  0  0
  194.5550  173.5390  144.4180 O   0  0  0  0  0  0  0  0  0  0  0  0
  196.7830  174.7370  143.7440 O   0  0  0  0  0  0  0  0  0  0  0  0
  196.5230  174.1270  146.2670 O   0  0  0  0  0  1  0  0  0  0  0  0
  195.7570  174.6540  144.8540 P   0  0  2  0  0  0  0  0  0  0  0  0
  194.4300  176.0940  146.3570 C   0  0  0  0  0  1  0  0  0  0  0  0
  195.0810  176.1870  145.1250 O   0  0  0  0  0  0  0  0  0  0  0  0
  1  8  1  0  0  0  0
  2  4  1  0  0  0  0
  3  4  1  0  0  0  0
  4  6  1  0  0  0  0
  6  5  2  0  0  0  0
  6  9  1  0  0  0  0
  7  1  1  0  0  0  0
  7  2  1  0  0  0  0
  8 29  1  1  0  0  0
  8  3  1  0  0  0  0
  9 21  1  6  0  0  0
  9 10  1  0  0  0  0
 11 10  1  1  0  0  0
 11 13  1  0  0  0  0
 11 19  1  0  0  0  0
 12 17  1  0  0  0  0
 13 15  2  0  0  0  0
 14 13  1  0  0  0  0
 14 12  2  0  0  0  0
 15 16  1  0  0  0  0
 17 16  2  0  0  0  0
 19 18  1  0  0  0  0
 19 20  2  0  0  0  0
 22 21  1  0  0  0  0
 23 22  1  0  0  0  0
 24 23  1  0  0  0  0
 25 22  1  0  0  0  0
 25 26  1  0  0  0  0
 27 26  1  0  0  0  0
 28 27  2  0  0  0  0
 29 30  1  0  0  0  0
 31 32  1  1  0  0  0
 31 30  1  0  0  0  0
 31 37  1  0  0  0  0
 33 32  1  0  0  0  0
 34 33  2  0  0  0  0
 35 36  1  0  0  0  0
 36 33  1  0  0  0  0
 37 38  1  0  0  0  0
 38 39  2  0  0  0  0
 38 40  1  0  0  0  0
 40 42  1  0  0  0  0
 40 41  1  1  0  0  0
 43 46  1  0  0  0  0
 43 42  1  0  0  0  0
 46 44  2  6  0  0  0
 46 48  1  0  0  0  0
 46 45  1  0  0  0  0
 48 47  1  0  0  0  0
M  END
>  <MODEL>
3

>  <REMARK>
 VINA RESULT:      -5.7      2.986      9.998
  Name = 
  24 active torsions:
  status: ('A' for Active; 'I' for Inactive)
    1  A    between atoms: C_1  and  C_2
    2  A    between atoms: C_1  and  C_37
    3  A    between atoms: C_2  and  C_17
    4  A    between atoms: C_7  and  O_33
    5  A    between atoms: C_7  and  C_45
    6  A    between atoms: C_10  and  C_30
    7  A    between atoms: C_12  and  C_17
    8  A    between atoms: C_12  and  C_23
    9  A    between atoms: C_12  and  O_33
   10  A    between atoms: O_13  and  P_38
   11  A    between atoms: N_18  and  C_22
   12  A    between atoms: C_19  and  N_42
   13  A    between atoms: O_20  and  C_21
   14  A    between atoms: C_21  and  C_23
   15  A    between atoms: C_22  and  C_41
   16  A    between atoms: O_27  and  C_37
   17  A    between atoms: O_27  and  P_38
   18  A    between atoms: C_28  and  C_36
   19  A    between atoms: C_28  and  N_42
   20  A    between atoms: C_30  and  N_35
   21  A    between atoms: C_30  and  C_44
   22  A    between atoms: N_35  and  C_36
   23  A    between atoms: C_36  and  C_40
   24  A    between atoms: C_41  and  N_42
                            x       y       z     vdW  Elec       q    Type
                         _______ _______ _______ _____ _____    ______ ____

>  <TORSDO>
F 24

$$$$
=
 OpenBabel11062418293D

 48 49  0  0  1  0  0  0  0  0999 V2000
  190.8010  177.7440  143.4260 C   0  0  0  0  0  2  0  0  0  0  0  0
  192.3330  175.8050  143.7760 C   0  0  0  0  0  2  0  0  0  0  0  0
  190.0950  175.8250  144.9070 C   0  0  0  0  0  2  0  0  0  0  0  0
  191.1970  175.0670  144.3210 N   0  0  0  0  0  0  0  0  0  0  0  0
  190.2960  173.0230  145.0050 O   0  0  0  0  0  0  0  0  0  0  0  0
  191.2920  173.6560  144.5590 C   0  0  0  0  0  0  0  0  0  0  0  0
  191.8380  176.8390  142.7710 C   0  0  0  0  0  2  0  0  0  0  0  0
  189.6240  176.9180  143.9520 C   0  0  1  0  0  3  0  0  0  0  0  0
  192.5740  172.9210  144.2820 C   0  0  1  0  0  3  0  0  0  0  0  0
  193.5290  173.0920  145.3720 N   0  0  0  0  0  2  0  0  0  0  0  0
  194.8500  173.3130  144.7930 C   0  0  2  0  0  3  0  0  0  0  0  0
  197.9270  171.1080  144.7620 C   0  0  0  0  0  3  0  0  0  0  0  0
  195.7750  172.1680  145.0840 C   0  0  0  0  0  0  0  0  0  0  0  0
  197.0550  172.1700  144.5210 C   0  0  0  0  0  3  0  0  0  0  0  0
  195.3710  171.0920  145.8890 C   0  0  0  0  0  3  0  0  0  0  0  0
  196.2440  170.0300  146.1300 C   0  0  0  0  0  3  0  0  0  0  0  0
  197.5220  170.0380  145.5670 C   0  0  0  0  0  3  0  0  0  0  0  0
  196.0770  175.4690  144.3310 N   0  0  0  0  0  1  0  0  0  0  0  0
  195.4150  174.6160  145.2590 C   0  0  0  0  0  0  0  0  0  0  0  0
  195.3070  174.9670  146.4640 O   0  0  0  0  0  0  0  0  0  0  0  0
  192.3340  171.4430  143.9930 C   0  0  0  0  0  2  0  0  0  0  0  0
  192.2570  171.1860  142.5570 N   0  0  0  0  0  0  0  0  0  0  0  0
  192.5360  169.7740  142.3250 C   0  0  0  0  0  2  0  0  0  0  0  0
  192.9100  169.1710  143.5250 O   0  0  0  0  0  1  0  0  0  0  0  0
  193.2440  172.0090  141.8500 C   0  0  0  0  0  2  0  0  0  0  0  0
  193.8500  171.3150  140.6280 C   0  0  0  0  0  2  0  0  0  0  0  0
  193.3850  171.9600  139.4300 N   0  0  0  0  0  0  0  0  0  0  0  0
  192.3940  171.4730  138.7850 C   0  0  0  0  0  2  0  0  0  0  0  0
  188.5800  177.7960  144.6350 C   0  0  0  0  0  2  0  0  0  0  0  0
  187.2970  177.2130  144.5900 O   0  0  0  0  0  0  0  0  0  0  0  0
  186.3850  178.0980  143.9670 C   0  0  1  0  0  3  0  0  0  0  0  0
  185.7880  179.1480  144.9070 C   0  0  0  0  0  2  0  0  0  0  0  0
  184.3340  178.8940  145.1110 C   0  0  0  0  0  0  0  0  0  0  0  0
  183.5170  179.1810  144.1950 O   0  0  0  0  0  0  0  0  0  0  0  0
  184.7040  178.3140  147.4720 C   0  0  0  0  0  1  0  0  0  0  0  0
  183.8990  178.3150  146.3030 O   0  0  0  0  0  0  0  0  0  0  0  0
  186.9400  178.7170  142.6890 C   0  0  0  0  0  2  0  0  0  0  0  0
  186.3290  178.0820  141.4770 C   0  0  0  0  0  0  0  0  0  0  0  0
  185.1290  178.1960  141.2830 O   0  0  0  0  0  0  0  0  0  0  0  0
  187.1820  177.2990  140.5180 C   0  0  2  0  0  3  0  0  0  0  0  0
  186.4560  177.0970  139.2020 C   0  0  0  0  0  1  0  0  0  0  0  0
  187.5770  175.9500  141.0950 C   0  0  0  0  0  2  0  0  0  0  0  0
  188.1060  175.1370  140.0900 O   0  0  0  0  0  0  0  0  0  0  0  0
  188.2230  173.6930  142.2710 O   0  0  0  0  0  1  0  0  0  0  0  0
  190.4940  174.1560  141.0740 O   0  0  0  0  0  0  0  0  0  0  0  0
  188.8430  173.8400  140.8970 P   0  0  2  0  0  0  0  0  0  0  0  0
  188.8280  172.7480  138.6840 C   0  0  0  0  0  1  0  0  0  0  0  0
  188.6410  172.3980  140.0220 O   0  0  0  0  0  0  0  0  0  0  0  0
  1  8  1  0  0  0  0
  2  4  1  0  0  0  0
  4  6  1  0  0  0  0
  4  3  1  0  0  0  0
  6  5  2  0  0  0  0
  7  1  1  0  0  0  0
  7  2  1  0  0  0  0
  8 29  1  1  0  0  0
  8  3  1  0  0  0  0
  9 21  1  1  0  0  0
  9  6  1  0  0  0  0
  9 10  1  0  0  0  0
 11 13  1  0  0  0  0
 11 19  1  1  0  0  0
 11 10  1  0  0  0  0
 12 17  1  0  0  0  0
 13 15  2  0  0  0  0
 14 12  2  0  0  0  0
 14 13  1  0  0  0  0
 15 16  1  0  0  0  0
 17 16  2  0  0  0  0
 18 19  1  0  0  0  0
 19 20  2  0  0  0  0
 22 21  1  0  0  0  0
 23 22  1  0  0  0  0
 23 24  1  0  0  0  0
 25 22  1  0  0  0  0
 26 25  1  0  0  0  0
 27 26  1  0  0  0  0
 28 27  2  0  0  0  0
 30 29  1  0  0  0  0
 31 37  1  6  0  0  0
 31 30  1  0  0  0  0
 31 32  1  0  0  0  0
 32 33  1  0  0  0  0
 33 36  1  0  0  0  0
 34 33  2  0  0  0  0
 36 35  1  0  0  0  0
 38 37  1  0  0  0  0
 39 38  2  0  0  0  0
 40 41  1  6  0  0  0
 40 42  1  0  0  0  0
 40 38  1  0  0  0  0
 43 46  1  0  0  0  0
 43 42  1  0  0  0  0
 46 45  2  1  0  0  0
 46 44  1  0  0  0  0
 47 48  1  0  0  0  0
 48 46  1  0  0  0  0
M  END
>  <MODEL>
4

>  <REMARK>
 VINA RESULT:      -5.6      2.550      4.633
  Name = 
  24 active torsions:
  status: ('A' for Active; 'I' for Inactive)
    1  A    between atoms: C_1  and  C_2
    2  A    between atoms: C_1  and  C_37
    3  A    between atoms: C_2  and  C_17
    4  A    between atoms: C_7  and  O_33
    5  A    between atoms: C_7  and  C_45
    6  A    between atoms: C_10  and  C_30
    7  A    between atoms: C_12  and  C_17
    8  A    between atoms: C_12  and  C_23
    9  A    between atoms: C_12  and  O_33
   10  A    between atoms: O_13  and  P_38
   11  A    between atoms: N_18  and  C_22
   12  A    between atoms: C_19  and  N_42
   13  A    between atoms: O_20  and  C_21
   14  A    between atoms: C_21  and  C_23
   15  A    between atoms: C_22  and  C_41
   16  A    between atoms: O_27  and  C_37
   17  A    between atoms: O_27  and  P_38
   18  A    between atoms: C_28  and  C_36
   19  A    between atoms: C_28  and  N_42
   20  A    between atoms: C_30  and  N_35
   21  A    between atoms: C_30  and  C_44
   22  A    between atoms: N_35  and  C_36
   23  A    between atoms: C_36  and  C_40
   24  A    between atoms: C_41  and  N_42
                            x       y       z     vdW  Elec       q    Type
                         _______ _______ _______ _____ _____    ______ ____

>  <TORSDO>
F 24

$$$$
=
 OpenBabel11062418293D

 48 49  0  0  1  0  0  0  0  0999 V2000
  192.1800  172.6120  144.3380 C   0  0  0  0  0  2  0  0  0  0  0  0
  190.2530  174.1970  144.2960 C   0  0  0  0  0  2  0  0  0  0  0  0
  192.5910  175.0970  144.1650 C   0  0  0  0  0  2  0  0  0  0  0  0
  191.1750  175.2310  143.8310 N   0  0  0  0  0  0  0  0  0  0  0  0
  191.4820  177.3580  142.9160 O   0  0  0  0  0  0  0  0  0  0  0  0
  190.6780  176.4830  143.3400 C   0  0  0  0  0  0  0  0  0  0  0  0
  190.7520  172.8270  143.8510 C   0  0  0  0  0  2  0  0  0  0  0  0
  193.1030  173.7080  143.7980 C   0  0  1  0  0  3  0  0  0  0  0  0
  189.2020  176.7640  143.3270 C   0  0  1  0  0  3  0  0  0  0  0  0
  188.8140  177.6200  144.4430 N   0  0  0  0  0  2  0  0  0  0  0  0
  187.9410  176.8550  145.3270 C   0  0  2  0  0  3  0  0  0  0  0  0
  185.1080  179.3300  144.9120 C   0  0  0  0  0  3  0  0  0  0  0  0
  186.6080  177.5230  145.4940 C   0  0  0  0  0  0  0  0  0  0  0  0
  186.3330  178.6800  144.7600 C   0  0  0  0  0  3  0  0  0  0  0  0
  185.6480  177.0200  146.3860 C   0  0  0  0  0  3  0  0  0  0  0  0
  184.4230  177.6700  146.5360 C   0  0  0  0  0  3  0  0  0  0  0  0
  184.1530  178.8250  145.7990 C   0  0  0  0  0  3  0  0  0  0  0  0
  188.5890  175.3090  147.2120 N   0  0  0  0  0  1  0  0  0  0  0  0
  188.6100  176.6130  146.6420 C   0  0  0  0  0  0  0  0  0  0  0  0
  189.1930  177.5510  147.2460 O   0  0  0  0  0  0  0  0  0  0  0  0
  188.7450  177.3580  141.9990 C   0  0  0  0  0  2  0  0  0  0  0  0
  187.9100  176.4200  141.2530 N   0  0  0  0  0  0  0  0  0  0  0  0
  186.6010  177.0290  141.0460 C   0  0  0  0  0  2  0  0  0  0  0  0
  186.6520  178.3730  141.4110 O   0  0  0  0  0  1  0  0  0  0  0  0
  187.7610  175.1730  142.0120 C   0  0  0  0  0  2  0  0  0  0  0  0
  188.1610  173.9280  141.2180 C   0  0  0  0  0  2  0  0  0  0  0  0
  189.4980  174.0880  140.7150 N   0  0  0  0  0  0  0  0  0  0  0  0
  189.8400  173.5280  139.6170 C   0  0  0  0  0  2  0  0  0  0  0  0
  194.5360  173.5310  144.2890 C   0  0  0  0  0  2  0  0  0  0  0  0
  195.4630  173.5890  143.2290 O   0  0  0  0  0  0  0  0  0  0  0  0
  196.5530  172.7230  143.4910 C   0  0  1  0  0  3  0  0  0  0  0  0
  196.1490  171.2730  143.7680 C   0  0  0  0  0  2  0  0  0  0  0  0
  196.7590  170.8000  145.0420 C   0  0  0  0  0  0  0  0  0  0  0  0
  197.1130  171.6400  145.9130 O   0  0  0  0  0  0  0  0  0  0  0  0
  197.6090  168.9280  146.3920 C   0  0  0  0  0  1  0  0  0  0  0  0
  196.9030  169.4310  145.2690 O   0  0  0  0  0  0  0  0  0  0  0  0
  197.6550  172.8250  142.4420 C   0  0  0  0  0  2  0  0  0  0  0  0
  197.6010  174.1450  141.7360 C   0  0  0  0  0  0  0  0  0  0  0  0
  197.7550  175.1730  142.3770 O   0  0  0  0  0  0  0  0  0  0  0  0
  197.3470  174.2050  140.2560 C   0  0  2  0  0  3  0  0  0  0  0  0
  197.7530  175.5570  139.7000 C   0  0  0  0  0  1  0  0  0  0  0  0
  195.8880  173.9360  139.9280 C   0  0  0  0  0  2  0  0  0  0  0  0
  195.7910  173.2330  138.7250 O   0  0  0  0  0  0  0  0  0  0  0  0
  194.2480  175.3370  138.5200 O   0  0  0  0  0  1  0  0  0  0  0  0
  193.2230  173.0770  137.7170 O   0  0  0  0  0  0  0  0  0  0  0  0
  194.6070  174.0430  137.8210 P   0  0  2  0  0  0  0  0  0  0  0  0
  194.9830  175.7470  136.0760 C   0  0  0  0  0  1  0  0  0  0  0  0
  195.1730  174.3760  136.2550 O   0  0  0  0  0  0  0  0  0  0  0  0
  4  3  1  0  0  0  0
  4  2  1  0  0  0  0
  5  6  2  0  0  0  0
  6  4  1  0  0  0  0
  7  2  1  0  0  0  0
  7  1  1  0  0  0  0
  8  3  1  0  0  0  0
  8 29  1  1  0  0  0
  8  1  1  0  0  0  0
  9 21  1  6  0  0  0
  9  6  1  0  0  0  0
  9 10  1  0  0  0  0
 11 10  1  6  0  0  0
 11 13  1  0  0  0  0
 11 19  1  0  0  0  0
 12 17  1  0  0  0  0
 13 15  2  0  0  0  0
 14 12  2  0  0  0  0
 14 13  1  0  0  0  0
 15 16  1  0  0  0  0
 17 16  2  0  0  0  0
 19 18  1  0  0  0  0
 19 20  2  0  0  0  0
 22 21  1  0  0  0  0
 22 25  1  0  0  0  0
 23 22  1  0  0  0  0
 23 24  1  0  0  0  0
 26 25  1  0  0  0  0
 27 26  1  0  0  0  0
 28 27  2  0  0  0  0
 30 31  1  0  0  0  0
 30 29  1  0  0  0  0
 31 37  1  6  0  0  0
 31 32  1  0  0  0  0
 32 33  1  0  0  0  0
 33 36  1  0  0  0  0
 33 34  2  0  0  0  0
 36 35  1  0  0  0  0
 38 39  2  0  0  0  0
 38 37  1  0  0  0  0
 40 41  1  1  0  0  0
 40 38  1  0  0  0  0
 42 40  1  0  0  0  0
 43 42  1  0  0  0  0
 46 45  2  6  0  0  0
 46 44  1  0  0  0  0
 46 43  1  0  0  0  0
 47 48  1  0  0  0  0
 48 46  1  0  0  0  0
M  END
>  <MODEL>
5

>  <REMARK>
 VINA RESULT:      -5.4      3.138     10.648
  Name = 
  24 active torsions:
  status: ('A' for Active; 'I' for Inactive)
    1  A    between atoms: C_1  and  C_2
    2  A    between atoms: C_1  and  C_37
    3  A    between atoms: C_2  and  C_17
    4  A    between atoms: C_7  and  O_33
    5  A    between atoms: C_7  and  C_45
    6  A    between atoms: C_10  and  C_30
    7  A    between atoms: C_12  and  C_17
    8  A    between atoms: C_12  and  C_23
    9  A    between atoms: C_12  and  O_33
   10  A    between atoms: O_13  and  P_38
   11  A    between atoms: N_18  and  C_22
   12  A    between atoms: C_19  and  N_42
   13  A    between atoms: O_20  and  C_21
   14  A    between atoms: C_21  and  C_23
   15  A    between atoms: C_22  and  C_41
   16  A    between atoms: O_27  and  C_37
   17  A    between atoms: O_27  and  P_38
   18  A    between atoms: C_28  and  C_36
   19  A    between atoms: C_28  and  N_42
   20  A    between atoms: C_30  and  N_35
   21  A    between atoms: C_30  and  C_44
   22  A    between atoms: N_35  and  C_36
   23  A    between atoms: C_36  and  C_40
   24  A    between atoms: C_41  and  N_42
                            x       y       z     vdW  Elec       q    Type
                         _______ _______ _______ _____ _____    ______ ____

>  <TORSDO>
F 24

$$$$
=
 OpenBabel11062418293D

 48 49  0  0  1  0  0  0  0  0999 V2000
  193.5570  175.2390  141.4290 C   0  0  0  0  0  2  0  0  0  0  0  0
  191.5930  176.0980  142.7060 C   0  0  0  0  0  2  0  0  0  0  0  0
  191.6490  173.6900  142.0060 C   0  0  0  0  0  2  0  0  0  0  0  0
  191.2070  174.7110  142.9530 N   0  0  0  0  0  0  0  0  0  0  0  0
  189.8730  173.1960  144.1290 O   0  0  0  0  0  0  0  0  0  0  0  0
  190.1800  174.3990  143.9040 C   0  0  0  0  0  0  0  0  0  0  0  0
  193.1050  176.1870  142.5330 C   0  0  0  0  0  2  0  0  0  0  0  0
  193.1500  173.8000  141.7560 C   0  0  1  0  0  3  0  0  0  0  0  0
  189.4620  175.4970  144.6370 C   0  0  1  0  0  3  0  0  0  0  0  0
  188.0940  175.6510  144.1530 N   0  0  0  0  0  2  0  0  0  0  0  0
  187.8780  177.0570  143.8270 C   0  0  2  0  0  3  0  0  0  0  0  0
  185.0800  179.4090  144.8100 C   0  0  0  0  0  3  0  0  0  0  0  0
  186.6500  177.5940  144.5020 C   0  0  0  0  0  0  0  0  0  0  0  0
  186.2080  178.8810  144.1830 C   0  0  0  0  0  3  0  0  0  0  0  0
  185.9550  176.8380  145.4590 C   0  0  0  0  0  3  0  0  0  0  0  0
  184.8260  177.3670  146.0850 C   0  0  0  0  0  3  0  0  0  0  0  0
  184.3880  178.6530  145.7610 C   0  0  0  0  0  3  0  0  0  0  0  0
  188.7000  178.1890  141.7280 N   0  0  0  0  0  1  0  0  0  0  0  0
  187.8270  177.2500  142.3460 C   0  0  0  0  0  0  0  0  0  0  0  0
  187.0220  176.5860  141.6410 O   0  0  0  0  0  0  0  0  0  0  0  0
  189.4860  175.2870  146.1470 C   0  0  0  0  0  2  0  0  0  0  0  0
  190.3330  176.2750  146.8100 N   0  0  0  0  0  0  0  0  0  0  0  0
  189.7720  177.5990  146.5720 C   0  0  0  0  0  2  0  0  0  0  0  0
  188.6550  177.7830  147.3830 O   0  0  0  0  0  1  0  0  0  0  0  0
  191.6950  176.2080  146.2670 C   0  0  0  0  0  2  0  0  0  0  0  0
  192.4610  174.9570  146.7010 C   0  0  0  0  0  2  0  0  0  0  0  0
  193.7170  174.8970  146.0040 N   0  0  0  0  0  0  0  0  0  0  0  0
  194.6160  175.7790  146.2290 C   0  0  0  0  0  2  0  0  0  0  0  0
  193.5690  172.8310  140.6550 C   0  0  0  0  0  2  0  0  0  0  0  0
  193.9820  171.5900  141.1800 O   0  0  0  0  0  0  0  0  0  0  0  0
  193.7040  170.5560  140.2530 C   0  0  1  0  0  3  0  0  0  0  0  0
  193.1080  169.2930  140.8810 C   0  0  0  0  0  2  0  0  0  0  0  0
  192.6810  169.5640  142.2830 C   0  0  0  0  0  0  0  0  0  0  0  0
  191.5430  170.0590  142.5030 O   0  0  0  0  0  0  0  0  0  0  0  0
  193.7380  170.1140  144.4340 C   0  0  0  0  0  1  0  0  0  0  0  0
  193.5360  169.2380  143.3360 O   0  0  0  0  0  0  0  0  0  0  0  0
  192.8990  171.0380  139.0520 C   0  0  0  0  0  2  0  0  0  0  0  0
  191.9730  169.9670  138.5630 C   0  0  0  0  0  0  0  0  0  0  0  0
  192.4140  169.0680  137.8650 O   0  0  0  0  0  0  0  0  0  0  0  0
  190.5120  170.0050  138.9170 C   0  0  2  0  0  3  0  0  0  0  0  0
  189.6590  169.7460  137.6900 C   0  0  0  0  0  1  0  0  0  0  0  0
  190.1220  171.3360  139.5380 C   0  0  0  0  0  2  0  0  0  0  0  0
  188.9910  171.8490  138.8990 O   0  0  0  0  0  0  0  0  0  0  0  0
  188.8370  174.2510  139.9270 O   0  0  0  0  0  1  0  0  0  0  0  0
  188.4310  174.0720  137.3570 O   0  0  0  0  0  0  0  0  0  0  0  0
  189.2980  173.5040  138.6930 P   0  0  2  0  0  0  0  0  0  0  0  0
  191.0880  174.0150  137.0730 C   0  0  0  0  0  1  0  0  0  0  0  0
  190.9540  173.7800  138.4420 O   0  0  0  0  0  0  0  0  0  0  0  0
  1  8  1  0  0  0  0
  1  7  1  0  0  0  0
  2  4  1  0  0  0  0
  3  4  1  0  0  0  0
  4  6  1  0  0  0  0
  6  5  2  0  0  0  0
  6  9  1  0  0  0  0
  7  2  1  0  0  0  0
  8 29  1  6  0  0  0
  8  3  1  0  0  0  0
  9 21  1  1  0  0  0
 10  9  1  0  0  0  0
 11 19  1  6  0  0  0
 11 10  1  0  0  0  0
 11 13  1  0  0  0  0
 12 17  1  0  0  0  0
 13 15  2  0  0  0  0
 14 13  1  0  0  0  0
 14 12  2  0  0  0  0
 15 16  1  0  0  0  0
 17 16  2  0  0  0  0
 18 19  1  0  0  0  0
 20 19  2  0  0  0  0
 21 22  1  0  0  0  0
 23 22  1  0  0  0  0
 23 24  1  0  0  0  0
 25 26  1  0  0  0  0
 25 22  1  0  0  0  0
 27 28  2  0  0  0  0
 27 26  1  0  0  0  0
 29 30  1  0  0  0  0
 31 37  1  6  0  0  0
 31 32  1  0  0  0  0
 31 30  1  0  0  0  0
 32 33  1  0  0  0  0
 33 34  2  0  0  0  0
 33 36  1  0  0  0  0
 36 35  1  0  0  0  0
 38 40  1  0  0  0  0
 38 37  1  0  0  0  0
 39 38  2  0  0  0  0
 40 41  1  6  0  0  0
 40 42  1  0  0  0  0
 43 42  1  0  0  0  0
 46 45  2  6  0  0  0
 46 43  1  0  0  0  0
 46 44  1  0  0  0  0
 47 48  1  0  0  0  0
 48 46  1  0  0  0  0
M  END
>  <MODEL>
6

>  <REMARK>
 VINA RESULT:      -5.4      3.367      9.465
  Name = 
  24 active torsions:
  status: ('A' for Active; 'I' for Inactive)
    1  A    between atoms: C_1  and  C_2
    2  A    between atoms: C_1  and  C_37
    3  A    between atoms: C_2  and  C_17
    4  A    between atoms: C_7  and  O_33
    5  A    between atoms: C_7  and  C_45
    6  A    between atoms: C_10  and  C_30
    7  A    between atoms: C_12  and  C_17
    8  A    between atoms: C_12  and  C_23
    9  A    between atoms: C_12  and  O_33
   10  A    between atoms: O_13  and  P_38
   11  A    between atoms: N_18  and  C_22
   12  A    between atoms: C_19  and  N_42
   13  A    between atoms: O_20  and  C_21
   14  A    between atoms: C_21  and  C_23
   15  A    between atoms: C_22  and  C_41
   16  A    between atoms: O_27  and  C_37
   17  A    between atoms: O_27  and  P_38
   18  A    between atoms: C_28  and  C_36
   19  A    between atoms: C_28  and  N_42
   20  A    between atoms: C_30  and  N_35
   21  A    between atoms: C_30  and  C_44
   22  A    between atoms: N_35  and  C_36
   23  A    between atoms: C_36  and  C_40
   24  A    between atoms: C_41  and  N_42
                            x       y       z     vdW  Elec       q    Type
                         _______ _______ _______ _____ _____    ______ ____

>  <TORSDO>
F 24

$$$$
=
 OpenBabel11062418293D

 48 49  0  0  1  0  0  0  0  0999 V2000
  189.6330  177.8090  143.2350 C   0  0  0  0  0  2  0  0  0  0  0  0
  191.4680  176.1250  143.3860 C   0  0  0  0  0  2  0  0  0  0  0  0
  189.3590  175.5420  142.1580 C   0  0  0  0  0  2  0  0  0  0  0  0
  190.8010  175.3730  142.3260 N   0  0  0  0  0  0  0  0  0  0  0  0
  190.8910  173.6550  140.7450 O   0  0  0  0  0  0  0  0  0  0  0  0
  191.4660  174.2810  141.6780 C   0  0  0  0  0  0  0  0  0  0  0  0
  191.1430  177.6080  143.2460 C   0  0  0  0  0  2  0  0  0  0  0  0
  188.9940  177.0220  142.0870 C   0  0  1  0  0  3  0  0  0  0  0  0
  192.8480  173.8710  142.1030 C   0  0  1  0  0  3  0  0  0  0  0  0
  192.9960  172.4190  142.0990 N   0  0  0  0  0  2  0  0  0  0  0  0
  194.0200  172.0590  143.0750 C   0  0  2  0  0  3  0  0  0  0  0  0
  196.8390  170.2930  141.2680 C   0  0  0  0  0  3  0  0  0  0  0  0
  194.9060  170.9620  142.5610 C   0  0  0  0  0  0  0  0  0  0  0  0
  196.0110  171.2960  141.7730 C   0  0  0  0  0  3  0  0  0  0  0  0
  194.6300  169.6140  142.8370 C   0  0  0  0  0  3  0  0  0  0  0  0
  195.4590  168.6120  142.3320 C   0  0  0  0  0  3  0  0  0  0  0  0
  196.5630  168.9510  141.5480 C   0  0  0  0  0  3  0  0  0  0  0  0
  194.1510  171.8210  145.5830 N   0  0  0  0  0  1  0  0  0  0  0  0
  193.3940  171.7010  144.3830 C   0  0  0  0  0  0  0  0  0  0  0  0
  192.2020  171.2970  144.4340 O   0  0  0  0  0  0  0  0  0  0  0  0
  193.9280  174.5310  141.2520 C   0  0  0  0  0  2  0  0  0  0  0  0
  194.4820  175.7100  141.9130 N   0  0  0  0  0  0  0  0  0  0  0  0
  195.2960  176.4400  140.9490 C   0  0  0  0  0  2  0  0  0  0  0  0
  196.0970  175.5440  140.2430 O   0  0  0  0  0  1  0  0  0  0  0  0
  195.3120  175.2980  143.0510 C   0  0  0  0  0  2  0  0  0  0  0  0
  195.7340  176.4640  143.9480 C   0  0  0  0  0  2  0  0  0  0  0  0
  195.2040  176.2700  145.2700 N   0  0  0  0  0  0  0  0  0  0  0  0
  194.3010  175.3880  145.4740 C   0  0  0  0  0  2  0  0  0  0  0  0
  187.4780  177.1860  142.0660 C   0  0  0  0  0  2  0  0  0  0  0  0
  187.1010  178.5320  141.8850 O   0  0  0  0  0  0  0  0  0  0  0  0
  185.9430  178.8180  142.6490 C   0  0  1  0  0  3  0  0  0  0  0  0
  184.8440  177.7580  142.5420 C   0  0  0  0  0  2  0  0  0  0  0  0
  183.8020  178.1900  141.5680 C   0  0  0  0  0  0  0  0  0  0  0  0
  184.1260  178.4280  140.3740 O   0  0  0  0  0  0  0  0  0  0  0  0
  181.3980  178.3020  141.0590 C   0  0  0  0  0  1  0  0  0  0  0  0
  182.4740  178.2960  141.9850 O   0  0  0  0  0  0  0  0  0  0  0  0
  186.2630  179.1730  144.0970 C   0  0  0  0  0  2  0  0  0  0  0  0
  185.1120  178.8380  144.9970 C   0  0  0  0  0  0  0  0  0  0  0  0
  184.0550  179.4330  144.8610 O   0  0  0  0  0  0  0  0  0  0  0  0
  185.2630  177.7910  146.0650 C   0  0  2  0  0  3  0  0  0  0  0  0
  184.5670  178.2270  147.3400 C   0  0  0  0  0  1  0  0  0  0  0  0
  186.7240  177.4950  146.3550 C   0  0  0  0  0  2  0  0  0  0  0  0
  187.1370  176.3710  145.6360 O   0  0  0  0  0  0  0  0  0  0  0  0
  189.2810  174.8780  145.4750 O   0  0  0  0  0  0  0  0  0  0  0  0
  188.1800  175.0570  147.8320 O   0  0  0  0  0  1  0  0  0  0  0  0
  188.5640  175.8500  146.3890 P   0  0  2  0  0  0  0  0  0  0  0  0
  190.8030  176.6100  147.0970 C   0  0  0  0  0  1  0  0  0  0  0  0
  189.5780  177.1690  146.7290 O   0  0  0  0  0  0  0  0  0  0  0  0
  1  7  1  0  0  0  0
  3  4  1  0  0  0  0
  4  2  1  0  0  0  0
  5  6  2  0  0  0  0
  6  9  1  0  0  0  0
  6  4  1  0  0  0  0
  7  2  1  0  0  0  0
  8 29  1  1  0  0  0
  8  3  1  0  0  0  0
  8  1  1  0  0  0  0
  9 21  1  6  0  0  0
 10  9  1  0  0  0  0
 11 10  1  6  0  0  0
 11 19  1  0  0  0  0
 12 17  2  0  0  0  0
 12 14  1  0  0  0  0
 13 15  1  0  0  0  0
 13 11  1  0  0  0  0
 14 13  2  0  0  0  0
 16 15  2  0  0  0  0
 17 16  1  0  0  0  0
 19 20  2  0  0  0  0
 19 18  1  0  0  0  0
 21 22  1  0  0  0  0
 22 25  1  0  0  0  0
 23 22  1  0  0  0  0
 24 23  1  0  0  0  0
 25 26  1  0  0  0  0
 26 27  1  0  0  0  0
 27 28  2  0  0  0  0
 30 29  1  0  0  0  0
 30 31  1  0  0  0  0
 31 32  1  1  0  0  0
 31 37  1  0  0  0  0
 33 36  1  0  0  0  0
 33 32  1  0  0  0  0
 34 33  2  0  0  0  0
 35 36  1  0  0  0  0
 37 38  1  0  0  0  0
 38 40  1  0  0  0  0
 39 38  2  0  0  0  0
 40 42  1  0  0  0  0
 40 41  1  1  0  0  0
 43 42  1  0  0  0  0
 43 46  1  0  0  0  0
 46 44  2  6  0  0  0
 46 48  1  0  0  0  0
 46 45  1  0  0  0  0
 48 47  1  0  0  0  0
M  END
>  <MODEL>
7

>  <REMARK>
 VINA RESULT:      -5.4      1.752      2.554
  Name = 
  24 active torsions:
  status: ('A' for Active; 'I' for Inactive)
    1  A    between atoms: C_1  and  C_2
    2  A    between atoms: C_1  and  C_37
    3  A    between atoms: C_2  and  C_17
    4  A    between atoms: C_7  and  O_33
    5  A    between atoms: C_7  and  C_45
    6  A    between atoms: C_10  and  C_30
    7  A    between atoms: C_12  and  C_17
    8  A    between atoms: C_12  and  C_23
    9  A    between atoms: C_12  and  O_33
   10  A    between atoms: O_13  and  P_38
   11  A    between atoms: N_18  and  C_22
   12  A    between atoms: C_19  and  N_42
   13  A    between atoms: O_20  and  C_21
   14  A    between atoms: C_21  and  C_23
   15  A    between atoms: C_22  and  C_41
   16  A    between atoms: O_27  and  C_37
   17  A    between atoms: O_27  and  P_38
   18  A    between atoms: C_28  and  C_36
   19  A    between atoms: C_28  and  N_42
   20  A    between atoms: C_30  and  N_35
   21  A    between atoms: C_30  and  C_44
   22  A    between atoms: N_35  and  C_36
   23  A    between atoms: C_36  and  C_40
   24  A    between atoms: C_41  and  N_42
                            x       y       z     vdW  Elec       q    Type
                         _______ _______ _______ _____ _____    ______ ____

>  <TORSDO>
F 24

$$$$
=
 OpenBabel11062418293D

 48 49  0  0  1  0  0  0  0  0999 V2000
  190.0980  173.2980  141.1340 C   0  0  0  0  0  2  0  0  0  0  0  0
  188.2630  174.4760  142.3470 C   0  0  0  0  0  2  0  0  0  0  0  0
  190.6140  175.3280  142.5430 C   0  0  0  0  0  2  0  0  0  0  0  0
  189.1790  175.5970  142.5450 N   0  0  0  0  0  0  0  0  0  0  0  0
  189.4890  177.8250  143.1750 O   0  0  0  0  0  0  0  0  0  0  0  0
  188.6940  176.8560  143.0330 C   0  0  0  0  0  0  0  0  0  0  0  0
  188.6370  173.7270  141.0730 C   0  0  0  0  0  2  0  0  0  0  0  0
  191.0090  174.5160  141.3130 C   0  0  1  0  0  3  0  0  0  0  0  0
  187.2430  177.0300  143.3810 C   0  0  1  0  0  3  0  0  0  0  0  0
  186.9270  176.4170  144.6670 N   0  0  0  0  0  2  0  0  0  0  0  0
  187.4410  177.2820  145.7250 C   0  0  2  0  0  3  0  0  0  0  0  0
  190.8050  176.9630  147.4330 C   0  0  0  0  0  3  0  0  0  0  0  0
  188.6360  176.6730  146.3990 C   0  0  0  0  0  0  0  0  0  0  0  0
  189.6750  177.5070  146.8200 C   0  0  0  0  0  3  0  0  0  0  0  0
  188.7350  175.2860  146.5910 C   0  0  0  0  0  3  0  0  0  0  0  0
  189.8640  174.7430  147.2040 C   0  0  0  0  0  3  0  0  0  0  0  0
  190.8990  175.5810  147.6250 C   0  0  0  0  0  3  0  0  0  0  0  0
  185.1800  176.8180  146.7430 N   0  0  0  0  0  1  0  0  0  0  0  0
  186.3600  177.6130  146.7020 C   0  0  0  0  0  0  0  0  0  0  0  0
  186.4860  178.5860  147.4920 O   0  0  0  0  0  0  0  0  0  0  0  0
  186.8210  178.4960  143.3560 C   0  0  0  0  0  2  0  0  0  0  0  0
  185.5110  178.6640  142.7340 N   0  0  0  0  0  0  0  0  0  0  0  0
  184.4880  178.2600  143.6920 C   0  0  0  0  0  2  0  0  0  0  0  0
  183.8380  179.3900  144.1820 O   0  0  0  0  0  1  0  0  0  0  0  0
  185.4200  177.8300  141.5300 C   0  0  0  0  0  2  0  0  0  0  0  0
  184.5040  178.4150  140.4530 C   0  0  0  0  0  2  0  0  0  0  0  0
  183.2650  177.6870  140.4290 N   0  0  0  0  0  0  0  0  0  0  0  0
  182.1550  178.3080  140.5610 C   0  0  0  0  0  2  0  0  0  0  0  0
  192.4770  174.1130  141.4010 C   0  0  0  0  0  2  0  0  0  0  0  0
  193.2430  175.0750  142.0900 O   0  0  0  0  0  0  0  0  0  0  0  0
  193.9600  174.4590  143.1440 C   0  0  1  0  0  3  0  0  0  0  0  0
  193.1780  174.3470  144.4550 C   0  0  0  0  0  2  0  0  0  0  0  0
  193.0830  172.9230  144.8810 C   0  0  0  0  0  0  0  0  0  0  0  0
  193.8090  172.5050  145.8240 O   0  0  0  0  0  0  0  0  0  0  0  0
  190.7760  172.1580  144.5070 C   0  0  0  0  0  1  0  0  0  0  0  0
  192.1690  172.0760  144.2520 O   0  0  0  0  0  0  0  0  0  0  0  0
  194.5920  173.1330  142.7330 C   0  0  0  0  0  2  0  0  0  0  0  0
  196.0870  173.2280  142.7370 C   0  0  0  0  0  0  0  0  0  0  0  0
  196.6200  174.2390  143.1640 O   0  0  0  0  0  0  0  0  0  0  0  0
  196.9220  172.0940  142.2090 C   0  0  2  0  0  3  0  0  0  0  0  0
  196.5590  171.7920  140.7680 C   0  0  0  0  0  1  0  0  0  0  0  0
  196.7570  170.8400  143.0500 C   0  0  0  0  0  2  0  0  0  0  0  0
  196.7100  171.1760  144.4050 O   0  0  0  0  0  0  0  0  0  0  0  0
  197.0580  168.5910  144.6290 O   0  0  0  0  0  0  0  0  0  0  0  0
  194.6240  169.4600  144.9860 O   0  0  0  0  0  1  0  0  0  0  0  0
  196.2750  169.7490  145.2120 P   0  0  2  0  0  0  0  0  0  0  0  0
  196.3250  168.6160  147.4030 C   0  0  0  0  0  1  0  0  0  0  0  0
  196.5970  169.8780  146.8740 O   0  0  0  0  0  0  0  0  0  0  0  0
  1  8  1  0  0  0  0
  2  4  1  0  0  0  0
  3  4  1  0  0  0  0
  4  6  1  0  0  0  0
  6  5  2  0  0  0  0
  6  9  1  0  0  0  0
  7  1  1  0  0  0  0
  7  2  1  0  0  0  0
  8 29  1  1  0  0  0
  8  3  1  0  0  0  0
  9 21  1  1  0  0  0
  9 10  1  0  0  0  0
 11 10  1  6  0  0  0
 11 13  1  0  0  0  0
 11 19  1  0  0  0  0
 12 17  1  0  0  0  0
 13 15  2  0  0  0  0
 13 14  1  0  0  0  0
 14 12  2  0  0  0  0
 15 16  1  0  0  0  0
 16 17  2  0  0  0  0
 19 18  1  0  0  0  0
 19 20  2  0  0  0  0
 22 21  1  0  0  0  0
 22 23  1  0  0  0  0
 23 24  1  0  0  0  0
 25 22  1  0  0  0  0
 26 25  1  0  0  0  0
 27 26  1  0  0  0  0
 27 28  2  0  0  0  0
 29 30  1  0  0  0  0
 30 31  1  0  0  0  0
 31 37  1  6  0  0  0
 31 32  1  0  0  0  0
 32 33  1  0  0  0  0
 33 34  2  0  0  0  0
 36 35  1  0  0  0  0
 36 33  1  0  0  0  0
 37 38  1  0  0  0  0
 38 39  2  0  0  0  0
 40 41  1  6  0  0  0
 40 38  1  0  0  0  0
 40 42  1  0  0  0  0
 42 43  1  0  0  0  0
 43 46  1  0  0  0  0
 45 46  1  0  0  0  0
 46 44  2  6  0  0  0
 46 48  1  0  0  0  0
 48 47  1  0  0  0  0
M  END
>  <MODEL>
8

>  <REMARK>
 VINA RESULT:      -5.2      3.416      9.824
  Name = 
  24 active torsions:
  status: ('A' for Active; 'I' for Inactive)
    1  A    between atoms: C_1  and  C_2
    2  A    between atoms: C_1  and  C_37
    3  A    between atoms: C_2  and  C_17
    4  A    between atoms: C_7  and  O_33
    5  A    between atoms: C_7  and  C_45
    6  A    between atoms: C_10  and  C_30
    7  A    between atoms: C_12  and  C_17
    8  A    between atoms: C_12  and  C_23
    9  A    between atoms: C_12  and  O_33
   10  A    between atoms: O_13  and  P_38
   11  A    between atoms: N_18  and  C_22
   12  A    between atoms: C_19  and  N_42
   13  A    between atoms: O_20  and  C_21
   14  A    between atoms: C_21  and  C_23
   15  A    between atoms: C_22  and  C_41
   16  A    between atoms: O_27  and  C_37
   17  A    between atoms: O_27  and  P_38
   18  A    between atoms: C_28  and  C_36
   19  A    between atoms: C_28  and  N_42
   20  A    between atoms: C_30  and  N_35
   21  A    between atoms: C_30  and  C_44
   22  A    between atoms: N_35  and  C_36
   23  A    between atoms: C_36  and  C_40
   24  A    between atoms: C_41  and  N_42
                            x       y       z     vdW  Elec       q    Type
                         _______ _______ _______ _____ _____    ______ ____

>  <TORSDO>
F 24

$$$$
=
 OpenBabel11062418293D

 48 49  0  0  1  0  0  0  0  0999 V2000
  190.3780  178.1510  143.8930 C   0  0  0  0  0  2  0  0  0  0  0  0
  192.0030  176.2600  143.7990 C   0  0  0  0  0  2  0  0  0  0  0  0
  189.7040  175.8630  144.7200 C   0  0  0  0  0  2  0  0  0  0  0  0
  190.8840  175.3500  144.0290 N   0  0  0  0  0  0  0  0  0  0  0  0
  190.0710  173.1590  144.0430 O   0  0  0  0  0  0  0  0  0  0  0  0
  191.0520  173.9350  143.8680 C   0  0  0  0  0  0  0  0  0  0  0  0
  191.5060  177.5150  143.0900 C   0  0  0  0  0  2  0  0  0  0  0  0
  189.2240  177.1610  144.0770 C   0  0  1  0  0  3  0  0  0  0  0  0
  192.3900  173.3640  143.4930 C   0  0  1  0  0  3  0  0  0  0  0  0
  192.9770  172.6150  144.6000 N   0  0  0  0  0  2  0  0  0  0  0  0
  194.4300  172.6940  144.4880 C   0  0  2  0  0  3  0  0  0  0  0  0
  197.1110  170.5960  146.1450 C   0  0  0  0  0  3  0  0  0  0  0  0
  195.0970  171.5590  145.2080 C   0  0  0  0  0  0  0  0  0  0  0  0
  196.4630  171.6460  145.4930 C   0  0  0  0  0  3  0  0  0  0  0  0
  194.3820  170.4090  145.5770 C   0  0  0  0  0  3  0  0  0  0  0  0
  195.0300  169.3600  146.2300 C   0  0  0  0  0  3  0  0  0  0  0  0
  196.3940  169.4530  146.5140 C   0  0  0  0  0  3  0  0  0  0  0  0
  195.9730  174.6770  144.2680 N   0  0  0  0  0  1  0  0  0  0  0  0
  194.9210  174.0210  144.9680 C   0  0  0  0  0  0  0  0  0  0  0  0
  194.4100  174.5650  145.9820 O   0  0  0  0  0  0  0  0  0  0  0  0
  192.3140  172.5060  142.2350 C   0  0  0  0  0  2  0  0  0  0  0  0
  192.7560  173.2470  141.0560 N   0  0  0  0  0  0  0  0  0  0  0  0
  193.6170  174.3390  141.4920 C   0  0  0  0  0  2  0  0  0  0  0  0
  193.8790  175.1840  140.4150 O   0  0  0  0  0  1  0  0  0  0  0  0
  191.5930  173.7870  140.3420 C   0  0  0  0  0  2  0  0  0  0  0  0
  190.4670  172.7680  140.1560 C   0  0  0  0  0  2  0  0  0  0  0  0
  190.8010  171.8750  139.0810 N   0  0  0  0  0  0  0  0  0  0  0  0
  190.0750  170.8470  138.8550 C   0  0  0  0  0  2  0  0  0  0  0  0
  188.0890  177.7640  144.8980 C   0  0  0  0  0  2  0  0  0  0  0  0
  187.3190  178.6680  144.1390 O   0  0  0  0  0  0  0  0  0  0  0  0
  185.9630  178.6050  144.5430 C   0  0  1  0  0  3  0  0  0  0  0  0
  185.6520  179.3890  145.8200 C   0  0  0  0  0  2  0  0  0  0  0  0
  185.0110  178.5010  146.8300 C   0  0  0  0  0  0  0  0  0  0  0  0
  183.7820  178.2370  146.7370 O   0  0  0  0  0  0  0  0  0  0  0  0
  186.3220  176.6370  147.7540 C   0  0  0  0  0  1  0  0  0  0  0  0
  185.7870  177.9480  147.8490 O   0  0  0  0  0  0  0  0  0  0  0  0
  184.9930  178.9350  143.4130 C   0  0  0  0  0  2  0  0  0  0  0  0
  184.8910  177.7950  142.4460 C   0  0  0  0  0  0  0  0  0  0  0  0
  185.4960  176.7600  142.6760 O   0  0  0  0  0  0  0  0  0  0  0  0
  184.0640  177.9300  141.1980 C   0  0  2  0  0  3  0  0  0  0  0  0
  184.8430  178.6560  140.1180 C   0  0  0  0  0  1  0  0  0  0  0  0
  182.7610  178.6630  141.4680 C   0  0  0  0  0  2  0  0  0  0  0  0
  181.7500  178.1600  140.6440 O   0  0  0  0  0  0  0  0  0  0  0  0
  180.2200  180.2490  140.2610 O   0  0  0  0  0  0  0  0  0  0  0  0
  180.4480  179.4270  142.7260 O   0  0  0  0  0  1  0  0  0  0  0  0
  180.3420  178.9910  141.0950 P   0  0  2  0  0  0  0  0  0  0  0  0
  178.7360  177.4110  142.1000 C   0  0  0  0  0  1  0  0  0  0  0  0
  178.9720  178.0160  140.8650 O   0  0  0  0  0  0  0  0  0  0  0  0
  1  8  1  0  0  0  0
  2  4  1  0  0  0  0
  4  3  1  0  0  0  0
  6  4  1  0  0  0  0
  6  5  2  0  0  0  0
  7  2  1  0  0  0  0
  7  1  1  0  0  0  0
  8  3  1  0  0  0  0
  8 29  1  1  0  0  0
  9 21  1  6  0  0  0
  9  6  1  0  0  0  0
  9 10  1  0  0  0  0
 11 10  1  1  0  0  0
 11 19  1  0  0  0  0
 11 13  1  0  0  0  0
 12 17  1  0  0  0  0
 13 14  1  0  0  0  0
 13 15  2  0  0  0  0
 14 12  2  0  0  0  0
 15 16  1  0  0  0  0
 16 17  2  0  0  0  0
 18 19  1  0  0  0  0
 19 20  2  0  0  0  0
 22 23  1  0  0  0  0
 22 21  1  0  0  0  0
 24 23  1  0  0  0  0
 25 22  1  0  0  0  0
 26 25  1  0  0  0  0
 27 26  1  0  0  0  0
 28 27  2  0  0  0  0
 30 31  1  0  0  0  0
 30 29  1  0  0  0  0
 31 37  1  6  0  0  0
 31 32  1  0  0  0  0
 32 33  1  0  0  0  0
 33 36  1  0  0  0  0
 34 33  2  0  0  0  0
 35 36  1  0  0  0  0
 38 39  2  0  0  0  0
 38 37  1  0  0  0  0
 40 41  1  6  0  0  0
 40 42  1  0  0  0  0
 40 38  1  0  0  0  0
 43 46  1  0  0  0  0
 43 42  1  0  0  0  0
 46 44  2  6  0  0  0
 46 45  1  0  0  0  0
 48 46  1  0  0  0  0
 48 47  1  0  0  0  0
M  END
>  <MODEL>
9

>  <REMARK>
 VINA RESULT:      -5.2      2.702      5.556
  Name = 
  24 active torsions:
  status: ('A' for Active; 'I' for Inactive)
    1  A    between atoms: C_1  and  C_2
    2  A    between atoms: C_1  and  C_37
    3  A    between atoms: C_2  and  C_17
    4  A    between atoms: C_7  and  O_33
    5  A    between atoms: C_7  and  C_45
    6  A    between atoms: C_10  and  C_30
    7  A    between atoms: C_12  and  C_17
    8  A    between atoms: C_12  and  C_23
    9  A    between atoms: C_12  and  O_33
   10  A    between atoms: O_13  and  P_38
   11  A    between atoms: N_18  and  C_22
   12  A    between atoms: C_19  and  N_42
   13  A    between atoms: O_20  and  C_21
   14  A    between atoms: C_21  and  C_23
   15  A    between atoms: C_22  and  C_41
   16  A    between atoms: O_27  and  C_37
   17  A    between atoms: O_27  and  P_38
   18  A    between atoms: C_28  and  C_36
   19  A    between atoms: C_28  and  N_42
   20  A    between atoms: C_30  and  N_35
   21  A    between atoms: C_30  and  C_44
   22  A    between atoms: N_35  and  C_36
   23  A    between atoms: C_36  and  C_40
   24  A    between atoms: C_41  and  N_42
                            x       y       z     vdW  Elec       q    Type
                         _______ _______ _______ _____ _____    ______ ____

>  <TORSDO>
F 24

$$$$
