=
 OpenBabel11072409363D

 63 66  0  0  1  0  0  0  0  0999 V2000
  191.7350  176.1140  147.2820 C   0  0  1  0  0  3  0  0  0  0  0  0
  189.2800  176.5360  142.0800 O   0  0  0  0  0  0  0  0  0  0  0  0
  194.8100  175.4730  145.1010 C   0  0  1  0  0  0  0  0  0  0  0  0
  190.5850  175.1530  146.9570 C   0  0  2  0  0  3  0  0  0  0  0  0
  186.2400  177.1570  143.0070 C   0  0  0  0  0  2  0  0  0  0  0  0
  193.0300  174.6680  142.3650 C   0  0  0  0  0  2  0  0  0  0  0  0
  187.2760  175.5700  141.4360 O   0  0  0  0  0  0  0  0  0  0  0  0
  194.9300  176.7890  144.6360 O   0  0  0  0  0  1  0  0  0  0  0  0
  192.6290  176.3280  146.0770 C   0  0  0  0  0  2  0  0  0  0  0  0
  186.9130  177.8520  140.6290 C   0  0  0  0  0  1  0  0  0  0  0  0
  191.7150  174.7620  141.6090 C   0  0  0  0  0  2  0  0  0  0  0  0
  192.9540  175.3890  143.5620 O   0  0  0  0  0  0  0  0  0  0  0  0
  193.5720  175.1350  145.9190 C   0  0  1  0  0  3  0  0  0  0  0  0
  189.3240  174.2400  141.6530 N   0  0  0  0  0  0  0  0  0  0  0  0
  193.7120  174.6340  144.4670 C   0  0  2  0  0  3  0  0  0  0  0  0
  187.3560  178.0520  143.5420 C   0  0  0  0  0  2  0  0  0  0  0  0
  190.8890  172.6910  142.4860 O   0  0  0  0  0  1  0  0  0  0  0  0
  188.6470  175.5020  141.7260 C   0  0  0  0  0  0  0  0  0  0  0  0
  186.1040  178.7200  145.6220 C   0  0  0  0  0  3  0  0  0  0  0  0
  190.5920  174.0510  142.3590 C   0  0  1  0  0  3  0  0  0  0  0  0
  188.7860  176.7070  146.5200 C   0  0  0  0  0  2  0  0  0  0  0  0
  187.3720  178.1520  145.0680 C   0  0  1  0  0  3  0  0  0  0  0  0
  189.6450  175.6750  145.9500 N   0  0  0  0  0  2  0  0  0  0  0  0
  187.4860  176.7820  145.7430 C   0  0  2  0  0  3  0  0  0  0  0  0
  186.4630  176.7360  141.5550 C   0  0  2  0  0  3  0  0  0  0  0  0
  186.3910  176.7560  146.6470 O   0  0  0  0  0  0  0  0  0  0  0  0
  185.6060  177.8910  146.5280 C   0  0  0  0  0  3  0  0  0  0  0  0
  191.2640  177.3420  147.7470 O   0  0  0  0  0  1  0  0  0  0  0  0
  197.0950  174.6270  144.5470 O   0  0  0  0  0  0  0  0  0  0  0  0
  196.1760  174.2300  146.6180 O   0  0  0  0  0  1  0  0  0  0  0  0
  196.0610  174.7530  145.4750 C   0  0  0  0  0  0  0  0  0  0  0  0
  188.6010  174.1990  147.9010 O   0  0  0  0  0  1  0  0  0  0  0  0
  189.8930  174.6330  148.2160 C   0  0  0  0  0  2  0  0  0  0  0  0
  188.7060  173.1320  140.9330 C   0  0  0  0  0  2  0  0  0  0  0  0
  189.6270  172.6590  139.8170 C   0  0  0  0  0  2  0  0  0  0  0  0
  188.8230  172.1020  138.6540 C   0  0  1  0  0  3  0  0  0  0  0  0
  188.1630  173.1410  137.9980 O   0  0  0  0  0  1  0  0  0  0  0  0
  193.3690  172.6740  136.4530 C   0  0  0  0  0  2  0  0  0  0  0  0
  192.7830  174.0760  136.3260 C   0  0  1  0  0  3  0  0  0  0  0  0
  190.3660  173.5410  136.6930 C   0  0  0  0  0  2  0  0  0  0  0  0
  192.6220  171.6620  135.6450 C   0  0  0  0  0  3  0  0  0  0  0  0
  190.4690  172.0460  136.7970 C   0  0  0  0  0  0  0  0  0  0  0  0
  191.5970  174.2270  137.2590 C   0  0  0  0  0  2  0  0  0  0  0  0
  191.3390  171.3440  135.8260 C   0  0  0  0  0  0  0  0  0  0  0  0
  190.8170  170.3510  135.0680 F   0  0  0  0  0  0  0  0  0  0  0  0
  189.7200  171.3710  137.6930 C   0  0  0  0  0  0  0  0  0  0  0  0
  189.8030  169.8750  137.8160 C   0  0  0  0  0  2  0  0  0  0  0  0
  191.9460  168.7950  138.5900 C   0  0  0  0  0  0  0  0  0  0  0  0
  192.1720  168.3500  137.4310 O   0  0  0  0  0  0  0  0  0  0  0  0
  190.7440  169.5130  138.8670 N   0  0  0  0  0  2  0  0  0  0  0  0
  194.1470  168.1830  139.1740 O   0  0  0  0  0  1  0  0  0  0  0  0
  192.9020  168.5170  139.7040 C   0  0  1  0  0  3  0  0  0  0  0  0
  193.0350  169.7280  140.6130 C   0  0  0  0  0  2  0  0  0  0  0  0
  192.6190  169.3820  142.0420 C   0  0  0  0  0  2  0  0  0  0  0  0
  194.2330  171.1300  142.8770 C   0  0  0  0  0  1  0  0  0  0  0  0
  193.6900  169.7220  143.0880 C   0  0  1  0  0  0  0  0  0  0  0  0
  193.0710  169.6720  144.3970 N   0  0  0  0  0  1  0  0  0  0  0  0
  194.8280  168.6980  143.0680 C   0  0  0  0  0  2  0  0  0  0  0  0
  195.9240  169.1530  142.3350 O   0  0  0  0  0  1  0  0  0  0  0  0
  193.8290  175.0970  136.7290 C   0  0  0  0  0  2  0  0  0  0  0  0
  194.1110  175.0060  138.2210 C   0  0  0  0  0  2  0  0  0  0  0  0
  195.7800  173.9230  139.7250 C   0  0  0  0  0  1  0  0  0  0  0  0
  195.5870  174.7150  138.4410 C   0  0  0  0  0  2  0  0  0  0  0  0
  1 28  1  6  0  0  0
  3  8  1  6  0  0  0
  3 31  1  0  0  0  0
  3 13  1  0  0  0  0
  4  1  1  0  0  0  0
  4 33  1  1  0  0  0
  5 16  1  0  0  0  0
  6 12  1  0  0  0  0
  7 25  1  0  0  0  0
  7 18  1  0  0  0  0
  9  1  1  0  0  0  0
 11 20  1  0  0  0  0
 11  6  1  0  0  0  0
 13  9  1  6  0  0  0
 14 18  1  0  0  0  0
 14 20  1  0  0  0  0
 15 12  1  6  0  0  0
 15  3  1  0  0  0  0
 15 13  1  0  0  0  0
 18  2  2  0  0  0  0
 19 27  2  0  0  0  0
 20 17  1  6  0  0  0
 22 16  1  6  0  0  0
 22 19  1  0  0  0  0
 22 24  1  0  0  0  0
 23 21  1  0  0  0  0
 23  4  1  0  0  0  0
 24 21  1  1  0  0  0
 24 26  1  0  0  0  0
 25 10  1  6  0  0  0
 25  5  1  0  0  0  0
 27 26  1  0  0  0  0
 29 31  2  0  0  0  0
 31 30  1  0  0  0  0
 32 33  1  0  0  0  0
 34 14  1  0  0  0  0
 35 34  1  0  0  0  0
 36 37  1  6  0  0  0
 36 35  1  0  0  0  0
 39 38  1  0  0  0  0
 39 60  1  1  0  0  0
 39 43  1  0  0  0  0
 40 42  1  0  0  0  0
 40 43  1  0  0  0  0
 41 44  2  0  0  0  0
 41 38  1  0  0  0  0
 42 46  2  0  0  0  0
 44 42  1  0  0  0  0
 45 44  1  0  0  0  0
 46 47  1  0  0  0  0
 46 36  1  0  0  0  0
 47 50  1  0  0  0  0
 48 50  1  0  0  0  0
 48 52  1  0  0  0  0
 49 48  2  0  0  0  0
 52 51  1  6  0  0  0
 52 53  1  0  0  0  0
 53 54  1  0  0  0  0
 54 56  1  0  0  0  0
 56 55  1  6  0  0  0
 56 57  1  0  0  0  0
 58 56  1  0  0  0  0
 59 58  1  0  0  0  0
 60 61  1  0  0  0  0
 61 63  1  0  0  0  0
 63 62  1  0  0  0  0
M  END
>  <MODEL>
1

>  <REMARK>
 VINA RESULT:      -6.2      0.000      0.000
  Name = 
  16 active torsions:
  status: ('A' for Active; 'I' for Inactive)
    1  A    between atoms: C_6  and  C_36
    2  A    between atoms: C_7  and  C_17
    3  A    between atoms: C_7  and  C_25
    4  A    between atoms: C_10  and  C_61
    5  A    between atoms: CA_11  and  C_51
    6  A    between atoms: C_14  and  C_40
    7  A    between atoms: C_14  and  C_62
    8  A    between atoms: C_17  and  C_32
    9  A    between atoms: C_19  and  C_36
   10  A    between atoms: C_19  and  C_58
   11  A    between atoms: C_20  and  C_25
   12  A    between atoms: C_20  and  C_31
   13  A    between atoms: C_21  and  N_46
   14  A    between atoms: C_21  and  C_62
   15  A    between atoms: C_29  and  N_35
   16  A    between atoms: C_29  and  C_40
                            x       y       z     vdW  Elec       q    Type
                         _______ _______ _______ _____ _____    ______ ____

>  <TORSDO>
F 16

$$$$
=
 OpenBabel11072409363D

 63 66  0  0  1  0  0  0  0  0999 V2000
  192.8470  176.6160  143.8920 C   0  0  1  0  0  3  0  0  0  0  0  0
  191.9160  170.9320  144.1860 O   0  0  0  0  0  0  0  0  0  0  0  0
  189.0240  176.6220  143.8680 C   0  0  1  0  0  0  0  0  0  0  0  0
  193.4320  175.7400  142.7780 C   0  0  2  0  0  3  0  0  0  0  0  0
  194.9910  169.9210  144.2620 C   0  0  0  0  0  2  0  0  0  0  0  0
  188.7610  173.4040  142.9320 C   0  0  0  0  0  2  0  0  0  0  0  0
  193.0040  169.3060  142.9460 O   0  0  0  0  0  0  0  0  0  0  0  0
  188.8740  176.2440  145.2080 O   0  0  0  0  0  1  0  0  0  0  0  0
  191.4740  176.1300  144.3090 C   0  0  0  0  0  2  0  0  0  0  0  0
  193.2010  168.3240  145.1800 C   0  0  0  0  0  1  0  0  0  0  0  0
  189.4020  172.0270  142.8530 C   0  0  0  0  0  2  0  0  0  0  0  0
  189.6230  174.3040  143.5680 O   0  0  0  0  0  0  0  0  0  0  0  0
  190.4330  176.6000  143.2930 C   0  0  1  0  0  3  0  0  0  0  0  0
  191.2660  170.7210  141.9520 N   0  0  0  0  0  0  0  0  0  0  0  0
  189.4090  175.5160  142.8980 C   0  0  2  0  0  3  0  0  0  0  0  0
  194.5440  170.9520  145.2960 C   0  0  0  0  0  2  0  0  0  0  0  0
  190.2340  172.3760  140.6340 O   0  0  0  0  0  1  0  0  0  0  0  0
  192.0560  170.3320  143.0840 C   0  0  0  0  0  0  0  0  0  0  0  0
  196.8480  171.9060  145.6450 C   0  0  0  0  0  3  0  0  0  0  0  0
  190.6200  172.0340  141.9320 C   0  0  1  0  0  3  0  0  0  0  0  0
  194.8800  174.2760  144.0440 C   0  0  0  0  0  2  0  0  0  0  0  0
  195.4190  172.2060  145.3170 C   0  0  1  0  0  3  0  0  0  0  0  0
  193.6960  174.3520  143.1940 N   0  0  0  0  0  2  0  0  0  0  0  0
  195.4930  172.8920  143.9500 C   0  0  2  0  0  3  0  0  0  0  0  0
  193.9140  168.8810  143.9580 C   0  0  2  0  0  3  0  0  0  0  0  0
  196.8870  173.0070  143.7010 O   0  0  0  0  0  0  0  0  0  0  0  0
  197.6320  172.4040  144.7000 C   0  0  0  0  0  3  0  0  0  0  0  0
  193.6910  176.6660  145.0040 O   0  0  0  0  0  1  0  0  0  0  0  0
  187.1400  178.2360  144.1670 O   0  0  0  0  0  1  0  0  0  0  0  0
  188.2040  178.0500  142.1360 O   0  0  0  0  0  0  0  0  0  0  0  0
  188.1150  177.6790  143.3400 C   0  0  0  0  0  0  0  0  0  0  0  0
  194.6290  176.0710  140.7300 O   0  0  0  0  0  1  0  0  0  0  0  0
  194.6250  176.4010  142.0890 C   0  0  0  0  0  2  0  0  0  0  0  0
  191.1730  169.8340  140.7990 C   0  0  0  0  0  2  0  0  0  0  0  0
  192.4840  169.8450  140.0270 C   0  0  0  0  0  2  0  0  0  0  0  0
  192.5860  171.0840  139.1520 C   0  0  1  0  0  3  0  0  0  0  0  0
  193.8500  171.6570  139.2920 O   0  0  0  0  0  1  0  0  0  0  0  0
  191.9310  173.4390  134.6960 C   0  0  0  0  0  2  0  0  0  0  0  0
  191.0830  174.2970  135.6280 C   0  0  1  0  0  3  0  0  0  0  0  0
  190.8290  172.6960  137.5340 C   0  0  0  0  0  2  0  0  0  0  0  0
  191.3910  172.0540  134.5360 C   0  0  0  0  0  3  0  0  0  0  0  0
  191.5390  171.5110  136.9420 C   0  0  0  0  0  0  0  0  0  0  0  0
  191.4460  174.0040  137.0710 C   0  0  0  0  0  2  0  0  0  0  0  0
  191.2570  171.1730  135.5290 C   0  0  0  0  0  0  0  0  0  0  0  0
  190.8250  169.9270  135.2200 F   0  0  0  0  0  0  0  0  0  0  0  0
  192.3330  170.7370  137.7110 C   0  0  0  0  0  0  0  0  0  0  0  0
  193.0520  169.5450  137.1430 C   0  0  0  0  0  2  0  0  0  0  0  0
  195.1640  170.3020  135.9910 C   0  0  0  0  0  0  0  0  0  0  0  0
  194.5460  170.4580  134.9020 O   0  0  0  0  0  0  0  0  0  0  0  0
  194.4890  169.7860  137.1380 N   0  0  0  0  0  2  0  0  0  0  0  0
  197.1070  170.9250  134.8100 O   0  0  0  0  0  1  0  0  0  0  0  0
  196.6270  170.5910  136.0750 C   0  0  1  0  0  3  0  0  0  0  0  0
  196.8940  171.7290  137.0470 C   0  0  0  0  0  2  0  0  0  0  0  0
  196.9350  173.0690  136.3160 C   0  0  0  0  0  2  0  0  0  0  0  0
  196.5880  173.9580  138.6500 C   0  0  0  0  0  1  0  0  0  0  0  0
  196.4210  174.2420  137.1630 C   0  0  1  0  0  0  0  0  0  0  0  0
  197.2130  175.4110  136.8380 N   0  0  0  0  0  1  0  0  0  0  0  0
  194.9600  174.5620  136.8370 C   0  0  0  0  0  2  0  0  0  0  0  0
  194.8160  175.8400  136.2960 O   0  0  0  0  0  1  0  0  0  0  0  0
  191.3680  175.7620  135.3620 C   0  0  0  0  0  2  0  0  0  0  0  0
  190.1640  176.4280  134.7140 C   0  0  0  0  0  2  0  0  0  0  0  0
  187.8330  176.2510  135.5860 C   0  0  0  0  0  1  0  0  0  0  0  0
  188.9490  175.5230  134.8520 C   0  0  0  0  0  2  0  0  0  0  0  0
  1  9  1  0  0  0  0
  1 28  1  1  0  0  0
  3  8  1  1  0  0  0
  4 33  1  1  0  0  0
  4 23  1  0  0  0  0
  4  1  1  0  0  0  0
  5 16  1  0  0  0  0
  6 12  1  0  0  0  0
  7 18  1  0  0  0  0
  7 25  1  0  0  0  0
 11  6  1  0  0  0  0
 13  3  1  0  0  0  0
 13  9  1  1  0  0  0
 14 18  1  0  0  0  0
 15 13  1  0  0  0  0
 15 12  1  1  0  0  0
 15  3  1  0  0  0  0
 18  2  2  0  0  0  0
 20 17  1  6  0  0  0
 20 14  1  0  0  0  0
 20 11  1  0  0  0  0
 22 16  1  6  0  0  0
 22 19  1  0  0  0  0
 23 21  1  0  0  0  0
 24 21  1  1  0  0  0
 24 22  1  0  0  0  0
 25  5  1  0  0  0  0
 25 10  1  1  0  0  0
 26 24  1  0  0  0  0
 26 27  1  0  0  0  0
 27 19  2  0  0  0  0
 30 31  2  0  0  0  0
 31  3  1  0  0  0  0
 31 29  1  0  0  0  0
 32 33  1  0  0  0  0
 34 14  1  0  0  0  0
 35 34  1  0  0  0  0
 36 37  1  6  0  0  0
 36 35  1  0  0  0  0
 38 39  1  0  0  0  0
 39 60  1  6  0  0  0
 39 43  1  0  0  0  0
 41 38  1  0  0  0  0
 41 44  2  0  0  0  0
 42 40  1  0  0  0  0
 42 46  2  0  0  0  0
 43 40  1  0  0  0  0
 44 42  1  0  0  0  0
 45 44  1  0  0  0  0
 46 36  1  0  0  0  0
 47 46  1  0  0  0  0
 48 52  1  0  0  0  0
 48 50  1  0  0  0  0
 49 48  2  0  0  0  0
 50 47  1  0  0  0  0
 52 51  1  6  0  0  0
 52 53  1  0  0  0  0
 54 53  1  0  0  0  0
 54 56  1  0  0  0  0
 56 55  1  1  0  0  0
 57 56  1  0  0  0  0
 58 56  1  0  0  0  0
 59 58  1  0  0  0  0
 61 63  1  0  0  0  0
 61 60  1  0  0  0  0
 63 62  1  0  0  0  0
M  END
>  <MODEL>
2

>  <REMARK>
 VINA RESULT:      -6.2      2.894      6.849
  Name = 
  16 active torsions:
  status: ('A' for Active; 'I' for Inactive)
    1  A    between atoms: C_6  and  C_36
    2  A    between atoms: C_7  and  C_17
    3  A    between atoms: C_7  and  C_25
    4  A    between atoms: C_10  and  C_61
    5  A    between atoms: CA_11  and  C_51
    6  A    between atoms: C_14  and  C_40
    7  A    between atoms: C_14  and  C_62
    8  A    between atoms: C_17  and  C_32
    9  A    between atoms: C_19  and  C_36
   10  A    between atoms: C_19  and  C_58
   11  A    between atoms: C_20  and  C_25
   12  A    between atoms: C_20  and  C_31
   13  A    between atoms: C_21  and  N_46
   14  A    between atoms: C_21  and  C_62
   15  A    between atoms: C_29  and  N_35
   16  A    between atoms: C_29  and  C_40
                            x       y       z     vdW  Elec       q    Type
                         _______ _______ _______ _____ _____    ______ ____

>  <TORSDO>
F 16

$$$$
=
 OpenBabel11072409363D

 63 66  0  0  1  0  0  0  0  0999 V2000
  189.9240  177.6510  144.5170 C   0  0  1  0  0  3  0  0  0  0  0  0
  190.8080  172.1270  143.1140 O   0  0  0  0  0  0  0  0  0  0  0  0
  186.3710  176.7140  143.4590 C   0  0  1  0  0  0  0  0  0  0  0  0
  190.9530  177.3510  143.4210 C   0  0  2  0  0  3  0  0  0  0  0  0
  193.9740  171.9430  143.7660 C   0  0  0  0  0  2  0  0  0  0  0  0
  187.3230  174.0040  141.7110 C   0  0  0  0  0  2  0  0  0  0  0  0
  192.5660  171.3060  141.8500 O   0  0  0  0  0  0  0  0  0  0  0  0
  186.1020  175.9030  144.5690 O   0  0  0  0  0  1  0  0  0  0  0  0
  188.7240  176.7330  144.4110 C   0  0  0  0  0  2  0  0  0  0  0  0
  192.6460  169.7450  143.7330 C   0  0  0  0  0  1  0  0  0  0  0  0
  188.3700  172.9290  141.4670 C   0  0  0  0  0  2  0  0  0  0  0  0
  187.7200  174.8390  142.7620 O   0  0  0  0  0  0  0  0  0  0  0  0
  187.7950  177.2280  143.3020 C   0  0  1  0  0  3  0  0  0  0  0  0
  190.6850  172.4860  140.8090 N   0  0  0  0  0  0  0  0  0  0  0  0
  187.2600  176.1080  142.3850 C   0  0  2  0  0  3  0  0  0  0  0  0
  193.0390  172.4450  144.8630 C   0  0  0  0  0  2  0  0  0  0  0  0
  189.4450  174.1630  139.7180 O   0  0  0  0  0  1  0  0  0  0  0  0
  191.3330  171.9650  141.9770 C   0  0  0  0  0  0  0  0  0  0  0  0
  194.8130  173.7790  146.0520 C   0  0  0  0  0  3  0  0  0  0  0  0
  189.6710  173.5320  140.9440 C   0  0  1  0  0  3  0  0  0  0  0  0
  192.5290  175.9680  144.6230 C   0  0  0  0  0  2  0  0  0  0  0  0
  193.4510  173.8020  145.4340 C   0  0  1  0  0  3  0  0  0  0  0  0
  191.5620  176.0140  143.5310 N   0  0  0  0  0  2  0  0  0  0  0  0
  193.5560  174.8850  144.3560 C   0  0  2  0  0  3  0  0  0  0  0  0
  193.3590  170.8200  142.9300 C   0  0  2  0  0  3  0  0  0  0  0  0
  194.8610  175.4150  144.5310 O   0  0  0  0  0  0  0  0  0  0  0  0
  195.5600  174.7300  145.5110 C   0  0  0  0  0  3  0  0  0  0  0  0
  190.4860  177.5520  145.7910 O   0  0  0  0  0  1  0  0  0  0  0  0
  185.2970  178.0920  141.6720 O   0  0  0  0  0  0  0  0  0  0  0  0
  184.3800  177.9970  143.7810 O   0  0  0  0  0  1  0  0  0  0  0  0
  185.2890  177.6240  142.9860 C   0  0  0  0  0  0  0  0  0  0  0  0
  191.4910  179.6440  143.8540 O   0  0  0  0  0  1  0  0  0  0  0  0
  191.9800  178.4710  143.2700 C   0  0  0  0  0  2  0  0  0  0  0  0
  191.0940  172.0190  139.4900 C   0  0  0  0  0  2  0  0  0  0  0  0
  190.0600  171.0490  138.9370 C   0  0  0  0  0  2  0  0  0  0  0  0
  190.7270  169.7850  138.4200 C   0  0  1  0  0  3  0  0  0  0  0  0
  189.7540  168.8790  137.9960 O   0  0  0  0  0  1  0  0  0  0  0  0
  191.5520  173.5070  135.0590 C   0  0  0  0  0  2  0  0  0  0  0  0
  190.0320  173.3930  135.0300 C   0  0  1  0  0  3  0  0  0  0  0  0
  189.7750  171.1250  136.0540 C   0  0  0  0  0  2  0  0  0  0  0  0
  192.2320  172.2860  134.5270 C   0  0  0  0  0  3  0  0  0  0  0  0
  191.2270  170.7640  136.1950 C   0  0  0  0  0  0  0  0  0  0  0  0
  189.5500  172.6160  136.2390 C   0  0  0  0  0  2  0  0  0  0  0  0
  192.1260  171.0660  135.0590 C   0  0  0  0  0  0  0  0  0  0  0  0
  192.8630  170.0700  134.5140 F   0  0  0  0  0  0  0  0  0  0  0  0
  191.6640  170.1050  137.2880 C   0  0  0  0  0  0  0  0  0  0  0  0
  193.1110  169.7310  137.4520 C   0  0  0  0  0  2  0  0  0  0  0  0
  195.0320  170.2600  138.9970 C   0  0  0  0  0  0  0  0  0  0  0  0
  195.6830  169.2670  138.5710 O   0  0  0  0  0  0  0  0  0  0  0  0
  193.7090  170.5130  138.5250 N   0  0  0  0  0  2  0  0  0  0  0  0
  196.8630  170.6610  140.4270 O   0  0  0  0  0  1  0  0  0  0  0  0
  195.6110  171.1440  140.0530 C   0  0  1  0  0  3  0  0  0  0  0  0
  195.7370  172.5720  139.5480 C   0  0  0  0  0  2  0  0  0  0  0  0
  195.3890  173.5710  140.6490 C   0  0  0  0  0  2  0  0  0  0  0  0
  194.7680  175.1220  138.7600 C   0  0  0  0  0  1  0  0  0  0  0  0
  195.3530  175.0270  140.1640 C   0  0  1  0  0  0  0  0  0  0  0  0
  194.4950  175.7770  141.0580 N   0  0  0  0  0  1  0  0  0  0  0  0
  196.7460  175.6600  140.2110 C   0  0  0  0  0  2  0  0  0  0  0  0
  197.4380  175.3090  141.3700 O   0  0  0  0  0  1  0  0  0  0  0  0
  189.4230  174.7800  135.0920 C   0  0  0  0  0  2  0  0  0  0  0  0
  188.4390  174.8760  136.2480 C   0  0  0  0  0  2  0  0  0  0  0  0
  186.4320  176.0820  137.1080 C   0  0  0  0  0  1  0  0  0  0  0  0
  187.4380  175.9870  135.9710 C   0  0  0  0  0  2  0  0  0  0  0  0
  1 28  1  1  0  0  0
  3  8  1  1  0  0  0
  4 33  1  1  0  0  0
  4 23  1  0  0  0  0
  4  1  1  0  0  0  0
  5 16  1  0  0  0  0
  6 12  1  0  0  0  0
  7 18  1  0  0  0  0
  7 25  1  0  0  0  0
  9  1  1  0  0  0  0
 11  6  1  0  0  0  0
 13  3  1  0  0  0  0
 13  9  1  1  0  0  0
 14 20  1  0  0  0  0
 14 18  1  0  0  0  0
 15 12  1  1  0  0  0
 15 13  1  0  0  0  0
 15  3  1  0  0  0  0
 18  2  2  0  0  0  0
 20 17  1  6  0  0  0
 20 11  1  0  0  0  0
 22 16  1  6  0  0  0
 22 19  1  0  0  0  0
 23 21  1  0  0  0  0
 24 26  1  0  0  0  0
 24 21  1  1  0  0  0
 24 22  1  0  0  0  0
 25 10  1  1  0  0  0
 25  5  1  0  0  0  0
 26 27  1  0  0  0  0
 27 19  2  0  0  0  0
 29 31  2  0  0  0  0
 31  3  1  0  0  0  0
 31 30  1  0  0  0  0
 33 32  1  0  0  0  0
 34 14  1  0  0  0  0
 35 34  1  0  0  0  0
 36 37  1  6  0  0  0
 36 35  1  0  0  0  0
 39 38  1  0  0  0  0
 39 60  1  1  0  0  0
 39 43  1  0  0  0  0
 40 42  1  0  0  0  0
 40 43  1  0  0  0  0
 41 38  1  0  0  0  0
 41 44  2  0  0  0  0
 42 46  2  0  0  0  0
 44 42  1  0  0  0  0
 45 44  1  0  0  0  0
 46 47  1  0  0  0  0
 46 36  1  0  0  0  0
 47 50  1  0  0  0  0
 48 52  1  0  0  0  0
 49 48  2  0  0  0  0
 50 48  1  0  0  0  0
 52 51  1  6  0  0  0
 53 52  1  0  0  0  0
 53 54  1  0  0  0  0
 56 55  1  6  0  0  0
 56 58  1  0  0  0  0
 56 54  1  0  0  0  0
 56 57  1  0  0  0  0
 58 59  1  0  0  0  0
 60 61  1  0  0  0  0
 63 61  1  0  0  0  0
 63 62  1  0  0  0  0
M  END
>  <MODEL>
3

>  <REMARK>
 VINA RESULT:      -5.5      2.215      6.249
  Name = 
  16 active torsions:
  status: ('A' for Active; 'I' for Inactive)
    1  A    between atoms: C_6  and  C_36
    2  A    between atoms: C_7  and  C_17
    3  A    between atoms: C_7  and  C_25
    4  A    between atoms: C_10  and  C_61
    5  A    between atoms: CA_11  and  C_51
    6  A    between atoms: C_14  and  C_40
    7  A    between atoms: C_14  and  C_62
    8  A    between atoms: C_17  and  C_32
    9  A    between atoms: C_19  and  C_36
   10  A    between atoms: C_19  and  C_58
   11  A    between atoms: C_20  and  C_25
   12  A    between atoms: C_20  and  C_31
   13  A    between atoms: C_21  and  N_46
   14  A    between atoms: C_21  and  C_62
   15  A    between atoms: C_29  and  N_35
   16  A    between atoms: C_29  and  C_40
                            x       y       z     vdW  Elec       q    Type
                         _______ _______ _______ _____ _____    ______ ____

>  <TORSDO>
F 16

$$$$
=
 OpenBabel11072409363D

 63 66  0  0  1  0  0  0  0  0999 V2000
  193.0740  176.7650  144.6120 C   0  0  1  0  0  3  0  0  0  0  0  0
  192.7240  171.0110  144.7930 O   0  0  0  0  0  0  0  0  0  0  0  0
  189.6740  176.4140  146.3270 C   0  0  1  0  0  0  0  0  0  0  0  0
  193.1320  176.0060  143.2810 C   0  0  2  0  0  3  0  0  0  0  0  0
  195.5450  170.2900  143.3750 C   0  0  0  0  0  2  0  0  0  0  0  0
  189.2040  173.2370  145.3320 C   0  0  0  0  0  2  0  0  0  0  0  0
  193.2150  169.5600  143.0570 O   0  0  0  0  0  0  0  0  0  0  0  0
  190.1800  175.9550  147.5500 O   0  0  0  0  0  1  0  0  0  0  0  0
  192.0780  176.1320  145.5630 C   0  0  0  0  0  2  0  0  0  0  0  0
  194.4760  168.4880  144.8600 C   0  0  0  0  0  1  0  0  0  0  0  0
  189.8180  171.9330  144.8500 C   0  0  0  0  0  2  0  0  0  0  0  0
  190.2060  174.1800  145.5840 O   0  0  0  0  0  0  0  0  0  0  0  0
  190.6600  176.5540  145.1760 C   0  0  1  0  0  3  0  0  0  0  0  0
  191.1340  170.8550  143.0900 N   0  0  0  0  0  0  0  0  0  0  0  0
  189.6360  175.4000  145.1950 C   0  0  2  0  0  3  0  0  0  0  0  0
  195.5610  171.2210  144.5860 C   0  0  0  0  0  2  0  0  0  0  0  0
  189.5140  172.4700  142.5350 O   0  0  0  0  0  1  0  0  0  0  0  0
  192.3770  170.4840  143.7000 C   0  0  0  0  0  0  0  0  0  0  0  0
  197.7060  172.3680  143.9330 C   0  0  0  0  0  3  0  0  0  0  0  0
  190.4730  172.1010  143.4810 C   0  0  1  0  0  3  0  0  0  0  0  0
  195.0850  174.6210  143.6170 C   0  0  0  0  0  2  0  0  0  0  0  0
  196.2720  172.5480  144.3180 C   0  0  1  0  0  3  0  0  0  0  0  0
  193.6400  174.6290  143.4070 N   0  0  0  0  0  2  0  0  0  0  0  0
  195.6680  173.3070  143.1330 C   0  0  2  0  0  3  0  0  0  0  0  0
  194.5120  169.1700  143.5030 C   0  0  2  0  0  3  0  0  0  0  0  0
  196.7810  173.5650  142.2890 O   0  0  0  0  0  0  0  0  0  0  0  0
  197.9370  172.9840  142.7830 C   0  0  0  0  0  3  0  0  0  0  0  0
  194.3290  176.8370  145.2190 O   0  0  0  0  0  1  0  0  0  0  0  0
  188.1580  178.0430  145.1920 O   0  0  0  0  0  0  0  0  0  0  0  0
  188.0070  177.6970  147.4610 O   0  0  0  0  0  1  0  0  0  0  0  0
  188.5630  177.4070  146.3650 C   0  0  0  0  0  0  0  0  0  0  0  0
  194.1150  175.9800  141.0970 O   0  0  0  0  0  1  0  0  0  0  0  0
  193.8330  176.8100  142.1870 C   0  0  0  0  0  2  0  0  0  0  0  0
  190.5740  170.0230  142.0310 C   0  0  0  0  0  2  0  0  0  0  0  0
  190.5810  170.7840  140.7130 C   0  0  0  0  0  2  0  0  0  0  0  0
  191.9450  170.7010  140.0490 C   0  0  1  0  0  3  0  0  0  0  0  0
  192.2170  169.3800  139.6940 O   0  0  0  0  0  1  0  0  0  0  0  0
  195.1600  171.8740  136.2900 C   0  0  0  0  0  2  0  0  0  0  0  0
  196.0850  171.8730  137.5020 C   0  0  1  0  0  3  0  0  0  0  0  0
  194.3750  172.0660  139.3190 C   0  0  0  0  0  2  0  0  0  0  0  0
  194.1400  172.9670  136.3440 C   0  0  0  0  0  3  0  0  0  0  0  0
  193.1430  172.1950  138.4690 C   0  0  0  0  0  0  0  0  0  0  0  0
  195.4120  171.1700  138.6650 C   0  0  0  0  0  2  0  0  0  0  0  0
  193.2080  173.0880  137.2900 C   0  0  0  0  0  0  0  0  0  0  0  0
  192.3020  174.0870  137.1650 F   0  0  0  0  0  0  0  0  0  0  0  0
  191.9960  171.5840  138.8320 C   0  0  0  0  0  0  0  0  0  0  0  0
  190.7490  171.6990  138.0010 C   0  0  0  0  0  2  0  0  0  0  0  0
  188.8680  173.2040  138.7470 C   0  0  0  0  0  0  0  0  0  0  0  0
  188.1480  172.2080  139.0310 O   0  0  0  0  0  0  0  0  0  0  0  0
  190.1590  173.0210  138.1670 N   0  0  0  0  0  2  0  0  0  0  0  0
  187.4270  174.8940  137.9540 O   0  0  0  0  0  1  0  0  0  0  0  0
  188.3520  174.5910  138.9520 C   0  0  1  0  0  3  0  0  0  0  0  0
  187.7000  174.7240  140.3190 C   0  0  0  0  0  2  0  0  0  0  0  0
  188.3730  175.8230  141.1370 C   0  0  0  0  0  2  0  0  0  0  0  0
  188.1320  178.1890  141.9750 C   0  0  0  0  0  1  0  0  0  0  0  0
  187.3980  176.8980  141.6370 C   0  0  1  0  0  0  0  0  0  0  0  0
  186.4580  177.1820  140.5710 N   0  0  0  0  0  1  0  0  0  0  0  0
  186.5980  176.4010  142.8450 C   0  0  0  0  0  2  0  0  0  0  0  0
  185.3730  177.0580  142.9620 O   0  0  0  0  0  1  0  0  0  0  0  0
  197.3530  171.1140  137.1660 C   0  0  0  0  0  2  0  0  0  0  0  0
  197.2120  169.6490  137.5490 C   0  0  0  0  0  2  0  0  0  0  0  0
  197.5250  169.4270  135.0840 C   0  0  0  0  0  1  0  0  0  0  0  0
  196.8560  168.8340  136.3140 C   0  0  0  0  0  2  0  0  0  0  0  0
  1 28  1  1  0  0  0
  1  9  1  0  0  0  0
  3 31  1  0  0  0  0
  3  8  1  1  0  0  0
  4 33  1  6  0  0  0
  4 23  1  0  0  0  0
  4  1  1  0  0  0  0
  5 25  1  0  0  0  0
  5 16  1  0  0  0  0
  6 12  1  0  0  0  0
  7 25  1  0  0  0  0
  7 18  1  0  0  0  0
 11  6  1  0  0  0  0
 13 15  1  0  0  0  0
 13  9  1  1  0  0  0
 13  3  1  0  0  0  0
 14 20  1  0  0  0  0
 14 18  1  0  0  0  0
 15 12  1  1  0  0  0
 15  3  1  0  0  0  0
 18  2  2  0  0  0  0
 20 17  1  6  0  0  0
 20 11  1  0  0  0  0
 22 19  1  6  0  0  0
 22 16  1  0  0  0  0
 23 21  1  0  0  0  0
 24 21  1  1  0  0  0
 24 22  1  0  0  0  0
 25 10  1  1  0  0  0
 26 27  1  0  0  0  0
 26 24  1  0  0  0  0
 27 19  2  0  0  0  0
 29 31  2  0  0  0  0
 31 30  1  0  0  0  0
 32 33  1  0  0  0  0
 34 14  1  0  0  0  0
 35 34  1  0  0  0  0
 36 37  1  6  0  0  0
 36 35  1  0  0  0  0
 38 41  1  0  0  0  0
 38 39  1  0  0  0  0
 39 60  1  6  0  0  0
 39 43  1  0  0  0  0
 41 44  2  0  0  0  0
 42 46  2  0  0  0  0
 42 40  1  0  0  0  0
 43 40  1  0  0  0  0
 44 42  1  0  0  0  0
 45 44  1  0  0  0  0
 46 36  1  0  0  0  0
 47 50  1  0  0  0  0
 47 46  1  0  0  0  0
 48 52  1  0  0  0  0
 48 49  2  0  0  0  0
 50 48  1  0  0  0  0
 52 51  1  6  0  0  0
 52 53  1  0  0  0  0
 53 54  1  0  0  0  0
 54 56  1  0  0  0  0
 56 55  1  1  0  0  0
 56 58  1  0  0  0  0
 57 56  1  0  0  0  0
 58 59  1  0  0  0  0
 60 61  1  0  0  0  0
 62 63  1  0  0  0  0
 63 61  1  0  0  0  0
M  END
>  <MODEL>
4

>  <REMARK>
 VINA RESULT:      -5.3      2.597      7.300
  Name = 
  16 active torsions:
  status: ('A' for Active; 'I' for Inactive)
    1  A    between atoms: C_6  and  C_36
    2  A    between atoms: C_7  and  C_17
    3  A    between atoms: C_7  and  C_25
    4  A    between atoms: C_10  and  C_61
    5  A    between atoms: CA_11  and  C_51
    6  A    between atoms: C_14  and  C_40
    7  A    between atoms: C_14  and  C_62
    8  A    between atoms: C_17  and  C_32
    9  A    between atoms: C_19  and  C_36
   10  A    between atoms: C_19  and  C_58
   11  A    between atoms: C_20  and  C_25
   12  A    between atoms: C_20  and  C_31
   13  A    between atoms: C_21  and  N_46
   14  A    between atoms: C_21  and  C_62
   15  A    between atoms: C_29  and  N_35
   16  A    between atoms: C_29  and  C_40
                            x       y       z     vdW  Elec       q    Type
                         _______ _______ _______ _____ _____    ______ ____

>  <TORSDO>
F 16

$$$$
=
 OpenBabel11072409363D

 63 66  0  0  1  0  0  0  0  0999 V2000
  196.8960  172.4960  142.6420 C   0  0  1  0  0  3  0  0  0  0  0  0
  191.9920  175.4060  141.7770 O   0  0  0  0  0  0  0  0  0  0  0  0
  196.1120  171.3270  139.0870 C   0  0  1  0  0  0  0  0  0  0  0  0
  195.7330  172.2350  143.6080 C   0  0  2  0  0  3  0  0  0  0  0  0
  191.7910  176.9150  144.6350 C   0  0  0  0  0  2  0  0  0  0  0  0
  192.8620  172.1720  139.2430 C   0  0  0  0  0  2  0  0  0  0  0  0
  190.2320  175.5850  143.2700 O   0  0  0  0  0  0  0  0  0  0  0  0
  196.4000  172.5510  138.4700 O   0  0  0  0  0  1  0  0  0  0  0  0
  196.4020  172.6700  141.2210 C   0  0  0  0  0  2  0  0  0  0  0  0
  190.5020  177.9420  142.6650 C   0  0  0  0  0  1  0  0  0  0  0  0
  191.7790  173.0170  139.8940 C   0  0  0  0  0  2  0  0  0  0  0  0
  194.1100  172.4720  139.7990 O   0  0  0  0  0  0  0  0  0  0  0  0
  196.1050  171.3010  140.6090 C   0  0  1  0  0  3  0  0  0  0  0  0
  190.6110  173.5340  141.9830 N   0  0  0  0  0  0  0  0  0  0  0  0
  194.7810  171.2410  139.8180 C   0  0  2  0  0  3  0  0  0  0  0  0
  193.0760  177.0710  143.8250 C   0  0  0  0  0  2  0  0  0  0  0  0
  191.1830  171.3100  141.4660 O   0  0  0  0  0  1  0  0  0  0  0  0
  190.9810  174.8780  142.3170 C   0  0  0  0  0  0  0  0  0  0  0  0
  194.5260  177.5450  145.8270 C   0  0  0  0  0  3  0  0  0  0  0  0
  191.5920  172.6420  141.3630 C   0  0  1  0  0  3  0  0  0  0  0  0
  195.3830  174.4430  144.5270 C   0  0  0  0  0  2  0  0  0  0  0  0
  194.3340  176.6990  144.6090 C   0  0  1  0  0  3  0  0  0  0  0  0
  194.8000  173.3690  143.7300 N   0  0  0  0  0  2  0  0  0  0  0  0
  194.2810  175.2710  145.1590 C   0  0  2  0  0  3  0  0  0  0  0  0
  190.5380  176.8890  143.7600 C   0  0  2  0  0  3  0  0  0  0  0  0
  194.5430  175.4300  146.5460 O   0  0  0  0  0  0  0  0  0  0  0  0
  194.6580  176.7660  146.8910 C   0  0  0  0  0  3  0  0  0  0  0  0
  197.6420  173.6120  143.0260 O   0  0  0  0  0  1  0  0  0  0  0  0
  196.7460  168.9110  139.1490 O   0  0  0  0  0  1  0  0  0  0  0  0
  196.8500  170.0930  137.1780 O   0  0  0  0  0  0  0  0  0  0  0  0
  196.5770  170.0830  138.4110 C   0  0  0  0  0  0  0  0  0  0  0  0
  195.1680  171.0120  145.5870 O   0  0  0  0  0  1  0  0  0  0  0  0
  196.2100  171.6980  144.9560 C   0  0  0  0  0  2  0  0  0  0  0  0
  189.2830  173.0450  142.3300 C   0  0  0  0  0  2  0  0  0  0  0  0
  188.2250  173.8160  141.5530 C   0  0  0  0  0  2  0  0  0  0  0  0
  187.2860  174.5470  142.4990 C   0  0  1  0  0  3  0  0  0  0  0  0
  187.8430  174.5870  143.7770 O   0  0  0  0  0  1  0  0  0  0  0  0
  186.3090  179.1610  144.3930 C   0  0  0  0  0  2  0  0  0  0  0  0
  185.4220  178.2750  145.2610 C   0  0  1  0  0  3  0  0  0  0  0  0
  185.3570  176.2310  143.8180 C   0  0  0  0  0  2  0  0  0  0  0  0
  185.8790  179.1820  142.9610 C   0  0  0  0  0  3  0  0  0  0  0  0
  186.1420  176.7450  142.6460 C   0  0  0  0  0  0  0  0  0  0  0  0
  185.8500  176.8260  145.1260 C   0  0  0  0  0  2  0  0  0  0  0  0
  185.8480  178.1130  142.1630 C   0  0  0  0  0  0  0  0  0  0  0  0
  185.5100  178.2990  140.8650 F   0  0  0  0  0  0  0  0  0  0  0  0
  187.0200  175.9430  142.0070 C   0  0  0  0  0  0  0  0  0  0  0  0
  187.8170  176.4320  140.8310 C   0  0  0  0  0  2  0  0  0  0  0  0
  187.1410  176.3170  138.4040 C   0  0  0  0  0  0  0  0  0  0  0  0
  187.0450  177.5730  138.3440 O   0  0  0  0  0  0  0  0  0  0  0  0
  187.4620  175.6760  139.6380 N   0  0  0  0  0  2  0  0  0  0  0  0
  185.7780  176.0260  136.5020 O   0  0  0  0  0  1  0  0  0  0  0  0
  186.8530  175.4800  137.2010 C   0  0  1  0  0  3  0  0  0  0  0  0
  188.0720  175.4020  136.2970 C   0  0  0  0  0  2  0  0  0  0  0  0
  189.2130  174.6570  136.9860 C   0  0  0  0  0  2  0  0  0  0  0  0
  189.2810  173.5650  134.7140 C   0  0  0  0  0  1  0  0  0  0  0  0
  189.7730  173.4950  136.1540 C   0  0  1  0  0  0  0  0  0  0  0  0
  191.2170  173.6060  136.1410 N   0  0  0  0  0  1  0  0  0  0  0  0
  189.4140  172.1440  136.7800 C   0  0  0  0  0  2  0  0  0  0  0  0
  190.5430  171.3530  136.9920 O   0  0  0  0  0  1  0  0  0  0  0  0
  185.5780  178.6750  146.7140 C   0  0  0  0  0  2  0  0  0  0  0  0
  186.4690  177.6820  147.4450 C   0  0  0  0  0  2  0  0  0  0  0  0
  188.9100  177.3330  147.0730 C   0  0  0  0  0  1  0  0  0  0  0  0
  187.8560  178.2800  147.6240 C   0  0  0  0  0  2  0  0  0  0  0  0
  1 28  1  1  0  0  0
  1  4  1  0  0  0  0
  2 18  2  0  0  0  0
  3  8  1  6  0  0  0
  3 15  1  0  0  0  0
  3 13  1  0  0  0  0
  4 23  1  0  0  0  0
  4 33  1  1  0  0  0
  6 12  1  0  0  0  0
  6 11  1  0  0  0  0
  7 25  1  0  0  0  0
  9  1  1  0  0  0  0
 11 20  1  0  0  0  0
 13  9  1  1  0  0  0
 14 18  1  0  0  0  0
 14 34  1  0  0  0  0
 15 12  1  1  0  0  0
 15 13  1  0  0  0  0
 16  5  1  0  0  0  0
 18  7  1  0  0  0  0
 19 27  2  0  0  0  0
 20 17  1  6  0  0  0
 20 14  1  0  0  0  0
 22 16  1  1  0  0  0
 22 24  1  0  0  0  0
 22 19  1  0  0  0  0
 23 21  1  0  0  0  0
 24 21  1  6  0  0  0
 24 26  1  0  0  0  0
 25 10  1  6  0  0  0
 25  5  1  0  0  0  0
 26 27  1  0  0  0  0
 30 31  2  0  0  0  0
 31  3  1  0  0  0  0
 31 29  1  0  0  0  0
 33 32  1  0  0  0  0
 35 34  1  0  0  0  0
 35 36  1  0  0  0  0
 36 37  1  1  0  0  0
 38 39  1  0  0  0  0
 39 60  1  1  0  0  0
 40 43  1  0  0  0  0
 41 38  1  0  0  0  0
 42 40  1  0  0  0  0
 43 39  1  0  0  0  0
 44 42  1  0  0  0  0
 44 41  2  0  0  0  0
 45 44  1  0  0  0  0
 46 36  1  0  0  0  0
 46 42  2  0  0  0  0
 47 46  1  0  0  0  0
 48 50  1  0  0  0  0
 49 48  2  0  0  0  0
 50 47  1  0  0  0  0
 52 51  1  6  0  0  0
 52 48  1  0  0  0  0
 53 54  1  0  0  0  0
 53 52  1  0  0  0  0
 56 55  1  6  0  0  0
 56 58  1  0  0  0  0
 56 54  1  0  0  0  0
 57 56  1  0  0  0  0
 58 59  1  0  0  0  0
 60 61  1  0  0  0  0
 61 63  1  0  0  0  0
 62 63  1  0  0  0  0
M  END
>  <MODEL>
5

>  <REMARK>
 VINA RESULT:      -5.2      2.919      8.109
  Name = 
  16 active torsions:
  status: ('A' for Active; 'I' for Inactive)
    1  A    between atoms: C_6  and  C_36
    2  A    between atoms: C_7  and  C_17
    3  A    between atoms: C_7  and  C_25
    4  A    between atoms: C_10  and  C_61
    5  A    between atoms: CA_11  and  C_51
    6  A    between atoms: C_14  and  C_40
    7  A    between atoms: C_14  and  C_62
    8  A    between atoms: C_17  and  C_32
    9  A    between atoms: C_19  and  C_36
   10  A    between atoms: C_19  and  C_58
   11  A    between atoms: C_20  and  C_25
   12  A    between atoms: C_20  and  C_31
   13  A    between atoms: C_21  and  N_46
   14  A    between atoms: C_21  and  C_62
   15  A    between atoms: C_29  and  N_35
   16  A    between atoms: C_29  and  C_40
                            x       y       z     vdW  Elec       q    Type
                         _______ _______ _______ _____ _____    ______ ____

>  <TORSDO>
F 16

$$$$
=
 OpenBabel11072409363D

 63 66  0  0  1  0  0  0  0  0999 V2000
  194.3030  170.0640  140.9710 C   0  0  1  0  0  3  0  0  0  0  0  0
  191.9230  175.2760  141.6310 O   0  0  0  0  0  0  0  0  0  0  0  0
  192.3740  170.2760  137.6770 C   0  0  1  0  0  0  0  0  0  0  0  0
  193.3970  170.2840  142.1880 C   0  0  2  0  0  3  0  0  0  0  0  0
  193.1390  176.0200  144.5390 C   0  0  0  0  0  2  0  0  0  0  0  0
  190.3000  172.6980  138.7410 C   0  0  0  0  0  2  0  0  0  0  0  0
  190.8870  176.0690  143.5440 O   0  0  0  0  0  0  0  0  0  0  0  0
  193.2010  171.2430  137.0910 O   0  0  0  0  0  1  0  0  0  0  0  0
  193.7580  170.7690  139.7460 C   0  0  0  0  0  2  0  0  0  0  0  0
  192.3570  177.9640  143.0540 C   0  0  0  0  0  1  0  0  0  0  0  0
  190.0400  173.8390  139.7120 C   0  0  0  0  0  2  0  0  0  0  0  0
  191.5660  172.1480  138.9680 O   0  0  0  0  0  0  0  0  0  0  0  0
  192.6230  169.9440  139.1410 C   0  0  1  0  0  3  0  0  0  0  0  0
  189.7770  174.4610  142.0640 N   0  0  0  0  0  0  0  0  0  0  0  0
  191.3940  170.7780  138.7250 C   0  0  2  0  0  3  0  0  0  0  0  0
  194.1100  175.6170  143.4310 C   0  0  0  0  0  2  0  0  0  0  0  0
  188.8570  172.4480  141.2630 O   0  0  0  0  0  1  0  0  0  0  0  0
  190.9070  175.2840  142.3810 C   0  0  0  0  0  0  0  0  0  0  0  0
  195.8940  174.8000  145.0090 C   0  0  0  0  0  3  0  0  0  0  0  0
  189.9330  173.3310  141.1480 C   0  0  1  0  0  3  0  0  0  0  0  0
  194.5550  172.0800  143.3180 C   0  0  0  0  0  2  0  0  0  0  0  0
  195.0370  174.4680  143.8280 C   0  0  1  0  0  3  0  0  0  0  0  0
  193.3290  171.6880  142.6300 N   0  0  0  0  0  2  0  0  0  0  0  0
  194.2670  173.2210  144.2730 C   0  0  2  0  0  3  0  0  0  0  0  0
  191.9710  176.8620  144.0250 C   0  0  2  0  0  3  0  0  0  0  0  0
  194.8130  172.9210  145.5500 O   0  0  0  0  0  0  0  0  0  0  0  0
  195.7370  173.8740  145.9430 C   0  0  0  0  0  3  0  0  0  0  0  0
  195.6100  170.4870  141.2210 O   0  0  0  0  0  1  0  0  0  0  0  0
  190.6720  168.5520  137.0660 O   0  0  0  0  0  1  0  0  0  0  0  0
  192.6390  168.7170  135.8850 O   0  0  0  0  0  0  0  0  0  0  0  0
  191.9070  169.1510  136.8180 C   0  0  0  0  0  0  0  0  0  0  0  0
  192.7260  169.4140  144.3170 O   0  0  0  0  0  1  0  0  0  0  0  0
  193.7050  169.3090  143.3230 C   0  0  0  0  0  2  0  0  0  0  0  0
  188.4970  174.7130  142.7150 C   0  0  0  0  0  2  0  0  0  0  0  0
  188.0290  176.1290  142.4110 C   0  0  0  0  0  2  0  0  0  0  0  0
  186.5160  176.2320  142.5130 C   0  0  1  0  0  3  0  0  0  0  0  0
  185.9970  175.0400  143.0190 O   0  0  0  0  0  1  0  0  0  0  0  0
  187.9180  178.3450  146.9180 C   0  0  0  0  0  2  0  0  0  0  0  0
  187.9620  176.8600  147.2580 C   0  0  1  0  0  3  0  0  0  0  0  0
  186.5640  175.9730  145.3820 C   0  0  0  0  0  2  0  0  0  0  0  0
  186.5340  178.8300  146.6270 C   0  0  0  0  0  3  0  0  0  0  0  0
  186.1780  177.2750  144.7400 C   0  0  0  0  0  0  0  0  0  0  0  0
  187.9570  176.0380  145.9840 C   0  0  0  0  0  2  0  0  0  0  0  0
  185.7700  178.3880  145.6270 C   0  0  0  0  0  0  0  0  0  0  0  0
  184.5650  178.9770  145.4390 F   0  0  0  0  0  0  0  0  0  0  0  0
  186.1220  177.3840  143.3960 C   0  0  0  0  0  0  0  0  0  0  0  0
  185.7370  178.6750  142.7290 C   0  0  0  0  0  2  0  0  0  0  0  0
  183.3450  178.6720  141.9290 C   0  0  0  0  0  0  0  0  0  0  0  0
  182.9340  179.0080  143.0740 O   0  0  0  0  0  0  0  0  0  0  0  0
  184.7330  178.4260  141.7040 N   0  0  0  0  0  2  0  0  0  0  0  0
  182.9550  177.6420  139.8440 O   0  0  0  0  0  1  0  0  0  0  0  0
  182.3760  178.4610  140.8120 C   0  0  1  0  0  3  0  0  0  0  0  0
  181.0930  177.8290  141.3260 C   0  0  0  0  0  2  0  0  0  0  0  0
  179.9120  178.1920  140.4290 C   0  0  0  0  0  2  0  0  0  0  0  0
  177.7130  177.4060  141.3800 C   0  0  0  0  0  1  0  0  0  0  0  0
  178.6530  178.5930  141.2100 C   0  0  1  0  0  0  0  0  0  0  0  0
  179.0620  179.0330  142.5280 N   0  0  0  0  0  1  0  0  0  0  0  0
  177.9290  179.7590  140.5310 C   0  0  0  0  0  2  0  0  0  0  0  0
  178.5780  180.1660  139.3660 O   0  0  0  0  0  1  0  0  0  0  0  0
  189.2430  176.5530  148.0070 C   0  0  0  0  0  2  0  0  0  0  0  0
  190.0700  175.5270  147.2480 C   0  0  0  0  0  2  0  0  0  0  0  0
  191.8860  177.0260  148.0700 C   0  0  0  0  0  1  0  0  0  0  0  0
  191.5160  175.5950  147.7130 C   0  0  0  0  0  2  0  0  0  0  0  0
  1 28  1  1  0  0  0
  1  4  1  0  0  0  0
  2 18  2  0  0  0  0
  3  8  1  6  0  0  0
  3 15  1  0  0  0  0
  3 13  1  0  0  0  0
  4 23  1  0  0  0  0
  4 33  1  1  0  0  0
  6 12  1  0  0  0  0
  6 11  1  0  0  0  0
  7 25  1  0  0  0  0
  9  1  1  0  0  0  0
 11 20  1  0  0  0  0
 13  9  1  1  0  0  0
 14 18  1  0  0  0  0
 14 34  1  0  0  0  0
 15 12  1  1  0  0  0
 15 13  1  0  0  0  0
 16  5  1  0  0  0  0
 18  7  1  0  0  0  0
 19 27  2  0  0  0  0
 20 17  1  6  0  0  0
 20 14  1  0  0  0  0
 22 16  1  1  0  0  0
 22 24  1  0  0  0  0
 22 19  1  0  0  0  0
 23 21  1  0  0  0  0
 24 21  1  6  0  0  0
 24 26  1  0  0  0  0
 25 10  1  6  0  0  0
 25  5  1  0  0  0  0
 26 27  1  0  0  0  0
 30 31  2  0  0  0  0
 31 29  1  0  0  0  0
 31  3  1  0  0  0  0
 33 32  1  0  0  0  0
 35 36  1  0  0  0  0
 35 34  1  0  0  0  0
 36 37  1  1  0  0  0
 36 46  1  0  0  0  0
 38 39  1  0  0  0  0
 39 60  1  6  0  0  0
 40 43  1  0  0  0  0
 41 38  1  0  0  0  0
 42 40  1  0  0  0  0
 42 44  1  0  0  0  0
 43 39  1  0  0  0  0
 44 41  2  0  0  0  0
 45 44  1  0  0  0  0
 46 42  2  0  0  0  0
 47 46  1  0  0  0  0
 48 49  2  0  0  0  0
 50 48  1  0  0  0  0
 50 47  1  0  0  0  0
 52 51  1  6  0  0  0
 52 53  1  0  0  0  0
 52 48  1  0  0  0  0
 54 56  1  0  0  0  0
 54 53  1  0  0  0  0
 56 55  1  1  0  0  0
 56 57  1  0  0  0  0
 58 56  1  0  0  0  0
 59 58  1  0  0  0  0
 61 63  1  0  0  0  0
 61 60  1  0  0  0  0
 63 62  1  0  0  0  0
M  END
>  <MODEL>
6

>  <REMARK>
 VINA RESULT:      -5.1      4.036     10.643
  Name = 
  16 active torsions:
  status: ('A' for Active; 'I' for Inactive)
    1  A    between atoms: C_6  and  C_36
    2  A    between atoms: C_7  and  C_17
    3  A    between atoms: C_7  and  C_25
    4  A    between atoms: C_10  and  C_61
    5  A    between atoms: CA_11  and  C_51
    6  A    between atoms: C_14  and  C_40
    7  A    between atoms: C_14  and  C_62
    8  A    between atoms: C_17  and  C_32
    9  A    between atoms: C_19  and  C_36
   10  A    between atoms: C_19  and  C_58
   11  A    between atoms: C_20  and  C_25
   12  A    between atoms: C_20  and  C_31
   13  A    between atoms: C_21  and  N_46
   14  A    between atoms: C_21  and  C_62
   15  A    between atoms: C_29  and  N_35
   16  A    between atoms: C_29  and  C_40
                            x       y       z     vdW  Elec       q    Type
                         _______ _______ _______ _____ _____    ______ ____

>  <TORSDO>
F 16

$$$$
=
 OpenBabel11072409363D

 63 66  0  0  1  0  0  0  0  0999 V2000
  196.0590  169.7420  140.5640 C   0  0  1  0  0  3  0  0  0  0  0  0
  193.6400  174.7130  142.2120 O   0  0  0  0  0  0  0  0  0  0  0  0
  194.6180  170.8640  137.2050 C   0  0  1  0  0  0  0  0  0  0  0  0
  194.9900  169.6850  141.6630 C   0  0  2  0  0  3  0  0  0  0  0  0
  194.4370  174.6440  145.3500 C   0  0  0  0  0  2  0  0  0  0  0  0
  192.4280  173.0220  138.5640 C   0  0  0  0  0  2  0  0  0  0  0  0
  192.3490  175.0380  144.1060 O   0  0  0  0  0  0  0  0  0  0  0  0
  195.5260  171.9110  137.0050 O   0  0  0  0  0  1  0  0  0  0  0  0
  195.6980  170.7570  139.4990 C   0  0  0  0  0  2  0  0  0  0  0  0
  193.8850  176.9320  144.3220 C   0  0  0  0  0  1  0  0  0  0  0  0
  192.0400  173.8890  139.7510 C   0  0  0  0  0  2  0  0  0  0  0  0
  193.6460  172.3790  138.8110 O   0  0  0  0  0  0  0  0  0  0  0  0
  194.6540  170.1610  138.5540 C   0  0  1  0  0  3  0  0  0  0  0  0
  191.4500  173.9060  142.1260 N   0  0  0  0  0  0  0  0  0  0  0  0
  193.5010  171.1250  138.2030 C   0  0  2  0  0  3  0  0  0  0  0  0
  195.5520  174.4940  144.3180 C   0  0  0  0  0  2  0  0  0  0  0  0
  190.6400  172.2020  140.7180 O   0  0  0  0  0  1  0  0  0  0  0  0
  192.5290  174.5730  142.7940 C   0  0  0  0  0  0  0  0  0  0  0  0
  197.0900  173.2290  145.8590 C   0  0  0  0  0  3  0  0  0  0  0  0
  191.7280  173.0390  140.9800 C   0  0  1  0  0  3  0  0  0  0  0  0
  195.9880  171.0850  143.3620 C   0  0  0  0  0  2  0  0  0  0  0  0
  196.4070  173.2440  144.5290 C   0  0  1  0  0  3  0  0  0  0  0  0
  194.8690  170.9320  142.4360 N   0  0  0  0  0  2  0  0  0  0  0  0
  195.5740  171.9580  144.5300 C   0  0  2  0  0  3  0  0  0  0  0  0
  193.3580  175.6370  144.9170 C   0  0  2  0  0  3  0  0  0  0  0  0
  195.9310  171.3220  145.7480 O   0  0  0  0  0  0  0  0  0  0  0  0
  196.7960  172.1040  146.4950 C   0  0  0  0  0  3  0  0  0  0  0  0
  197.3190  170.0330  141.0880 O   0  0  0  0  0  1  0  0  0  0  0  0
  195.2720  169.5890  135.1570 O   0  0  0  0  0  0  0  0  0  0  0  0
  193.0670  169.7020  135.8050 O   0  0  0  0  0  1  0  0  0  0  0  0
  194.2700  170.0140  136.0300 C   0  0  0  0  0  0  0  0  0  0  0  0
  193.9290  168.2060  143.2190 O   0  0  0  0  0  1  0  0  0  0  0  0
  195.1290  168.4420  142.5400 C   0  0  0  0  0  2  0  0  0  0  0  0
  190.0920  174.0390  142.6400 C   0  0  0  0  0  2  0  0  0  0  0  0
  189.4540  175.3110  142.1010 C   0  0  0  0  0  2  0  0  0  0  0  0
  188.2170  174.9880  141.2790 C   0  0  1  0  0  3  0  0  0  0  0  0
  187.5370  173.9150  141.8540 O   0  0  0  0  0  1  0  0  0  0  0  0
  186.5390  178.7550  144.2510 C   0  0  0  0  0  2  0  0  0  0  0  0
  186.4360  177.5530  145.1840 C   0  0  1  0  0  3  0  0  0  0  0  0
  186.5170  175.7150  143.4880 C   0  0  0  0  0  2  0  0  0  0  0  0
  185.5980  178.6670  143.0920 C   0  0  0  0  0  3  0  0  0  0  0  0
  186.5410  176.5480  142.2390 C   0  0  0  0  0  0  0  0  0  0  0  0
  187.2490  176.3990  144.6300 C   0  0  0  0  0  2  0  0  0  0  0  0
  185.6250  177.7080  142.1640 C   0  0  0  0  0  0  0  0  0  0  0  0
  184.7590  177.8020  141.1280 F   0  0  0  0  0  0  0  0  0  0  0  0
  187.3120  176.1860  141.1920 C   0  0  0  0  0  0  0  0  0  0  0  0
  187.3530  177.0010  139.9290 C   0  0  0  0  0  2  0  0  0  0  0  0
  187.0680  176.6610  137.4470 C   0  0  0  0  0  0  0  0  0  0  0  0
  187.0320  177.9070  137.2530 O   0  0  0  0  0  0  0  0  0  0  0  0
  187.1640  176.1380  138.7720 N   0  0  0  0  0  2  0  0  0  0  0  0
  185.8170  176.0420  135.5470 O   0  0  0  0  0  1  0  0  0  0  0  0
  186.9450  175.7150  136.2980 C   0  0  1  0  0  3  0  0  0  0  0  0
  188.1850  175.7710  135.4200 C   0  0  0  0  0  2  0  0  0  0  0  0
  188.5140  174.3900  134.8570 C   0  0  0  0  0  2  0  0  0  0  0  0
  189.4910  173.7450  137.0900 C   0  0  0  0  0  1  0  0  0  0  0  0
  189.6780  173.6980  135.5790 C   0  0  1  0  0  0  0  0  0  0  0  0
  189.6960  172.3070  135.1730 N   0  0  0  0  0  1  0  0  0  0  0  0
  191.0220  174.3180  135.1840 C   0  0  0  0  0  2  0  0  0  0  0  0
  191.4710  175.2330  136.1350 O   0  0  0  0  0  1  0  0  0  0  0  0
  187.0070  177.9190  146.5400 C   0  0  0  0  0  2  0  0  0  0  0  0
  188.0260  176.8810  146.9840 C   0  0  0  0  0  2  0  0  0  0  0  0
  190.5080  176.6310  147.0020 C   0  0  0  0  0  1  0  0  0  0  0  0
  189.3470  177.5680  147.2960 C   0  0  0  0  0  2  0  0  0  0  0  0
  1 28  1  1  0  0  0
  1  4  1  0  0  0  0
  2 18  2  0  0  0  0
  3  8  1  6  0  0  0
  3 15  1  0  0  0  0
  3 13  1  0  0  0  0
  4 23  1  0  0  0  0
  4 33  1  1  0  0  0
  6 12  1  0  0  0  0
  6 11  1  0  0  0  0
  7 25  1  0  0  0  0
  9  1  1  0  0  0  0
 11 20  1  0  0  0  0
 13  9  1  1  0  0  0
 14 34  1  0  0  0  0
 14 18  1  0  0  0  0
 15 13  1  0  0  0  0
 15 12  1  1  0  0  0
 16  5  1  0  0  0  0
 18  7  1  0  0  0  0
 19 27  2  0  0  0  0
 20 17  1  6  0  0  0
 20 14  1  0  0  0  0
 22 16  1  1  0  0  0
 22 24  1  0  0  0  0
 22 19  1  0  0  0  0
 23 21  1  0  0  0  0
 24 21  1  6  0  0  0
 24 26  1  0  0  0  0
 25 10  1  6  0  0  0
 25  5  1  0  0  0  0
 26 27  1  0  0  0  0
 29 31  2  0  0  0  0
 30 31  1  0  0  0  0
 31  3  1  0  0  0  0
 33 32  1  0  0  0  0
 35 34  1  0  0  0  0
 36 37  1  1  0  0  0
 36 35  1  0  0  0  0
 38 39  1  0  0  0  0
 39 60  1  1  0  0  0
 40 43  1  0  0  0  0
 41 38  1  0  0  0  0
 42 40  1  0  0  0  0
 43 39  1  0  0  0  0
 44 42  1  0  0  0  0
 44 41  2  0  0  0  0
 45 44  1  0  0  0  0
 46 36  1  0  0  0  0
 46 42  2  0  0  0  0
 47 46  1  0  0  0  0
 48 50  1  0  0  0  0
 49 48  2  0  0  0  0
 50 47  1  0  0  0  0
 52 51  1  6  0  0  0
 52 48  1  0  0  0  0
 53 52  1  0  0  0  0
 54 53  1  0  0  0  0
 54 56  1  0  0  0  0
 56 55  1  1  0  0  0
 57 56  1  0  0  0  0
 58 56  1  0  0  0  0
 58 59  1  0  0  0  0
 60 61  1  0  0  0  0
 61 63  1  0  0  0  0
 62 63  1  0  0  0  0
M  END
>  <MODEL>
7

>  <REMARK>
 VINA RESULT:      -5.1      2.903      9.017
  Name = 
  16 active torsions:
  status: ('A' for Active; 'I' for Inactive)
    1  A    between atoms: C_6  and  C_36
    2  A    between atoms: C_7  and  C_17
    3  A    between atoms: C_7  and  C_25
    4  A    between atoms: C_10  and  C_61
    5  A    between atoms: CA_11  and  C_51
    6  A    between atoms: C_14  and  C_40
    7  A    between atoms: C_14  and  C_62
    8  A    between atoms: C_17  and  C_32
    9  A    between atoms: C_19  and  C_36
   10  A    between atoms: C_19  and  C_58
   11  A    between atoms: C_20  and  C_25
   12  A    between atoms: C_20  and  C_31
   13  A    between atoms: C_21  and  N_46
   14  A    between atoms: C_21  and  C_62
   15  A    between atoms: C_29  and  N_35
   16  A    between atoms: C_29  and  C_40
                            x       y       z     vdW  Elec       q    Type
                         _______ _______ _______ _____ _____    ______ ____

>  <TORSDO>
F 16

$$$$
=
 OpenBabel11072409363D

 63 66  0  0  1  0  0  0  0  0999 V2000
  192.6220  176.1850  145.8990 C   0  0  1  0  0  3  0  0  0  0  0  0
  191.9800  170.9030  143.6730 O   0  0  0  0  0  0  0  0  0  0  0  0
  188.8060  176.0770  145.6750 C   0  0  1  0  0  0  0  0  0  0  0  0
  193.2900  175.8950  144.5500 C   0  0  2  0  0  3  0  0  0  0  0  0
  195.1000  170.0590  143.4730 C   0  0  0  0  0  2  0  0  0  0  0  0
  188.7450  173.5710  143.4350 C   0  0  0  0  0  2  0  0  0  0  0  0
  193.1930  170.0080  141.9160 O   0  0  0  0  0  0  0  0  0  0  0  0
  188.6300  175.1530  146.7130 O   0  0  0  0  0  1  0  0  0  0  0  0
  191.2630  175.5230  145.9930 C   0  0  0  0  0  2  0  0  0  0  0  0
  193.3650  168.1660  143.5180 C   0  0  0  0  0  1  0  0  0  0  0  0
  189.4590  172.3840  142.8070 C   0  0  0  0  0  2  0  0  0  0  0  0
  189.5360  174.1360  144.4410 O   0  0  0  0  0  0  0  0  0  0  0  0
  190.2340  176.3510  145.2230 C   0  0  1  0  0  3  0  0  0  0  0  0
  191.4190  171.6560  141.5340 N   0  0  0  0  0  0  0  0  0  0  0  0
  189.2820  175.5110  144.3460 C   0  0  2  0  0  3  0  0  0  0  0  0
  194.5640  170.5290  144.8230 C   0  0  0  0  0  2  0  0  0  0  0  0
  190.3470  173.6830  141.0010 O   0  0  0  0  0  1  0  0  0  0  0  0
  192.1890  170.8430  142.4290 C   0  0  0  0  0  0  0  0  0  0  0  0
  196.8010  171.3130  145.6710 C   0  0  0  0  0  3  0  0  0  0  0  0
  190.7060  172.8280  142.0450 C   0  0  1  0  0  3  0  0  0  0  0  0
  194.7680  174.0760  145.1400 C   0  0  0  0  0  2  0  0  0  0  0  0
  195.3710  171.6780  145.4280 C   0  0  1  0  0  3  0  0  0  0  0  0
  193.6120  174.4730  144.3430 N   0  0  0  0  0  2  0  0  0  0  0  0
  195.4560  172.8890  144.4940 C   0  0  2  0  0  3  0  0  0  0  0  0
  194.0890  169.2170  142.6940 C   0  0  2  0  0  3  0  0  0  0  0  0
  196.8490  173.1450  144.3930 O   0  0  0  0  0  0  0  0  0  0  0  0
  197.5910  172.1950  145.0750 C   0  0  0  0  0  3  0  0  0  0  0  0
  193.4230  175.7780  146.9680 O   0  0  0  0  0  1  0  0  0  0  0  0
  187.4180  177.6890  144.3640 O   0  0  0  0  0  0  0  0  0  0  0  0
  187.4870  177.8090  146.6610 O   0  0  0  0  0  1  0  0  0  0  0  0
  187.8620  177.2280  145.6040 C   0  0  0  0  0  0  0  0  0  0  0  0
  195.1050  176.4490  143.0890 O   0  0  0  0  0  1  0  0  0  0  0  0
  194.4690  176.8270  144.2760 C   0  0  0  0  0  2  0  0  0  0  0  0
  191.4120  171.3510  140.1090 C   0  0  0  0  0  2  0  0  0  0  0  0
  191.1520  169.8660  139.8960 C   0  0  0  0  0  2  0  0  0  0  0  0
  190.2300  169.6440  138.7080 C   0  0  1  0  0  3  0  0  0  0  0  0
  189.3960  170.7500  138.5470 O   0  0  0  0  0  1  0  0  0  0  0  0
  192.6010  172.3420  135.1120 C   0  0  0  0  0  2  0  0  0  0  0  0
  191.3010  173.1210  135.2790 C   0  0  1  0  0  3  0  0  0  0  0  0
  189.9250  171.3730  136.4250 C   0  0  0  0  0  2  0  0  0  0  0  0
  192.3850  170.9730  134.5530 C   0  0  0  0  0  3  0  0  0  0  0  0
  190.9120  170.2410  136.3980 C   0  0  0  0  0  0  0  0  0  0  0  0
  190.6190  172.7160  136.5720 C   0  0  0  0  0  2  0  0  0  0  0  0
  191.6690  170.0150  135.1460 C   0  0  0  0  0  0  0  0  0  0  0  0
  191.6260  168.7970  134.5570 F   0  0  0  0  0  0  0  0  0  0  0  0
  191.0280  169.4110  137.4550 C   0  0  0  0  0  0  0  0  0  0  0  0
  192.0070  168.2700  137.4520 C   0  0  0  0  0  2  0  0  0  0  0  0
  194.3690  168.7590  138.1880 C   0  0  0  0  0  0  0  0  0  0  0  0
  194.0970  168.4250  139.3740 O   0  0  0  0  0  0  0  0  0  0  0  0
  193.3500  168.7660  137.1880 N   0  0  0  0  0  2  0  0  0  0  0  0
  196.1260  168.6430  136.6200 O   0  0  0  0  0  1  0  0  0  0  0  0
  195.7450  169.2180  137.8310 C   0  0  1  0  0  3  0  0  0  0  0  0
  195.7950  170.7330  137.7220 C   0  0  0  0  0  2  0  0  0  0  0  0
  197.1640  171.2630  138.1440 C   0  0  0  0  0  2  0  0  0  0  0  0
  195.6540  172.5760  139.6780 C   0  0  0  0  0  1  0  0  0  0  0  0
  197.0970  172.2850  139.2860 C   0  0  1  0  0  0  0  0  0  0  0  0
  197.7680  171.7170  140.4380 N   0  0  0  0  0  1  0  0  0  0  0  0
  197.8250  173.5800  138.9130 C   0  0  0  0  0  2  0  0  0  0  0  0
  197.0450  174.3970  138.0940 O   0  0  0  0  0  1  0  0  0  0  0  0
  191.6100  174.6030  135.3570 C   0  0  0  0  0  2  0  0  0  0  0  0
  192.4230  174.9110  136.6050 C   0  0  0  0  0  2  0  0  0  0  0  0
  194.5610  175.7800  135.6580 C   0  0  0  0  0  1  0  0  0  0  0  0
  193.2680  176.1530  136.3660 C   0  0  0  0  0  2  0  0  0  0  0  0
  1  9  1  0  0  0  0
  1 28  1  1  0  0  0
  3  8  1  1  0  0  0
  4 33  1  1  0  0  0
  4  1  1  0  0  0  0
  5 16  1  0  0  0  0
  6 12  1  0  0  0  0
  7 18  1  0  0  0  0
  7 25  1  0  0  0  0
 11  6  1  0  0  0  0
 13  3  1  0  0  0  0
 13  9  1  1  0  0  0
 14 20  1  0  0  0  0
 14 18  1  0  0  0  0
 15 12  1  1  0  0  0
 15 13  1  0  0  0  0
 15  3  1  0  0  0  0
 18  2  2  0  0  0  0
 20 17  1  6  0  0  0
 20 11  1  0  0  0  0
 22 16  1  6  0  0  0
 22 19  1  0  0  0  0
 23  4  1  0  0  0  0
 23 21  1  0  0  0  0
 24 21  1  1  0  0  0
 24 22  1  0  0  0  0
 25  5  1  0  0  0  0
 25 10  1  1  0  0  0
 26 24  1  0  0  0  0
 26 27  1  0  0  0  0
 27 19  2  0  0  0  0
 29 31  2  0  0  0  0
 31  3  1  0  0  0  0
 31 30  1  0  0  0  0
 32 33  1  0  0  0  0
 34 14  1  0  0  0  0
 35 34  1  0  0  0  0
 36 37  1  6  0  0  0
 36 35  1  0  0  0  0
 38 39  1  0  0  0  0
 39 60  1  1  0  0  0
 39 43  1  0  0  0  0
 40 43  1  0  0  0  0
 41 38  1  0  0  0  0
 41 44  2  0  0  0  0
 42 40  1  0  0  0  0
 42 46  2  0  0  0  0
 44 42  1  0  0  0  0
 45 44  1  0  0  0  0
 46 36  1  0  0  0  0
 47 46  1  0  0  0  0
 48 49  2  0  0  0  0
 50 47  1  0  0  0  0
 50 48  1  0  0  0  0
 52 51  1  6  0  0  0
 52 48  1  0  0  0  0
 53 52  1  0  0  0  0
 53 54  1  0  0  0  0
 54 56  1  0  0  0  0
 56 55  1  1  0  0  0
 56 57  1  0  0  0  0
 58 56  1  0  0  0  0
 59 58  1  0  0  0  0
 60 61  1  0  0  0  0
 62 63  1  0  0  0  0
 63 61  1  0  0  0  0
M  END
>  <MODEL>
8

>  <REMARK>
 VINA RESULT:      -4.9      2.372      6.122
  Name = 
  16 active torsions:
  status: ('A' for Active; 'I' for Inactive)
    1  A    between atoms: C_6  and  C_36
    2  A    between atoms: C_7  and  C_17
    3  A    between atoms: C_7  and  C_25
    4  A    between atoms: C_10  and  C_61
    5  A    between atoms: CA_11  and  C_51
    6  A    between atoms: C_14  and  C_40
    7  A    between atoms: C_14  and  C_62
    8  A    between atoms: C_17  and  C_32
    9  A    between atoms: C_19  and  C_36
   10  A    between atoms: C_19  and  C_58
   11  A    between atoms: C_20  and  C_25
   12  A    between atoms: C_20  and  C_31
   13  A    between atoms: C_21  and  N_46
   14  A    between atoms: C_21  and  C_62
   15  A    between atoms: C_29  and  N_35
   16  A    between atoms: C_29  and  C_40
                            x       y       z     vdW  Elec       q    Type
                         _______ _______ _______ _____ _____    ______ ____

>  <TORSDO>
F 16

$$$$
=
 OpenBabel11072409363D

 63 66  0  0  1  0  0  0  0  0999 V2000
  191.6460  176.2720  147.3950 C   0  0  1  0  0  3  0  0  0  0  0  0
  188.8350  176.5130  142.3650 O   0  0  0  0  0  0  0  0  0  0  0  0
  194.5440  175.4620  145.0370 C   0  0  1  0  0  0  0  0  0  0  0  0
  190.4570  175.3250  147.1980 C   0  0  2  0  0  3  0  0  0  0  0  0
  185.8820  177.2460  143.4730 C   0  0  0  0  0  2  0  0  0  0  0  0
  192.5580  174.5740  142.4740 C   0  0  0  0  0  2  0  0  0  0  0  0
  186.7710  175.5650  141.9100 O   0  0  0  0  0  0  0  0  0  0  0  0
  194.6560  176.7520  144.5030 O   0  0  0  0  0  1  0  0  0  0  0  0
  192.4550  176.4100  146.1220 C   0  0  0  0  0  2  0  0  0  0  0  0
  186.3970  177.8160  141.0230 C   0  0  0  0  0  1  0  0  0  0  0  0
  191.1940  174.6640  141.8080 C   0  0  0  0  0  2  0  0  0  0  0  0
  192.5820  175.3510  143.6370 O   0  0  0  0  0  0  0  0  0  0  0  0
  193.3610  175.1900  145.9550 C   0  0  1  0  0  3  0  0  0  0  0  0
  188.8030  174.1990  142.0440 N   0  0  0  0  0  0  0  0  0  0  0  0
  193.3880  174.6200  144.5210 C   0  0  2  0  0  3  0  0  0  0  0  0
  187.0500  178.1380  143.8850 C   0  0  0  0  0  2  0  0  0  0  0  0
  190.3920  172.6550  142.8370 O   0  0  0  0  0  1  0  0  0  0  0  0
  188.1580  175.4780  142.1060 C   0  0  0  0  0  0  0  0  0  0  0  0
  185.9640  178.9300  146.0140 C   0  0  0  0  0  3  0  0  0  0  0  0
  190.1140  174.0130  142.6680 C   0  0  1  0  0  3  0  0  0  0  0  0
  188.6620  176.8980  146.8160 C   0  0  0  0  0  2  0  0  0  0  0  0
  187.1770  178.3070  145.3990 C   0  0  1  0  0  3  0  0  0  0  0  0
  189.4580  175.8210  146.2360 N   0  0  0  0  0  2  0  0  0  0  0  0
  187.3120  176.9680  146.1290 C   0  0  2  0  0  3  0  0  0  0  0  0
  185.9920  176.7530  142.0300 C   0  0  2  0  0  3  0  0  0  0  0  0
  186.2830  177.0080  147.1080 O   0  0  0  0  0  0  0  0  0  0  0  0
  185.5150  178.1540  146.9910 C   0  0  0  0  0  3  0  0  0  0  0  0
  191.2330  177.5320  147.8340 O   0  0  0  0  0  1  0  0  0  0  0  0
  195.8200  173.7850  146.3800 O   0  0  0  0  0  1  0  0  0  0  0  0
  196.8660  174.9880  144.7200 O   0  0  0  0  0  0  0  0  0  0  0  0
  195.8040  174.7310  145.3550 C   0  0  0  0  0  0  0  0  0  0  0  0
  188.6860  174.1350  148.2870 O   0  0  0  0  0  1  0  0  0  0  0  0
  189.8460  174.8790  148.5260 C   0  0  0  0  0  2  0  0  0  0  0  0
  188.1140  173.0750  141.4230 C   0  0  0  0  0  2  0  0  0  0  0  0
  189.0770  172.3010  140.5340 C   0  0  0  0  0  2  0  0  0  0  0  0
  189.1990  172.9600  139.1690 C   0  0  1  0  0  3  0  0  0  0  0  0
  189.9060  174.1560  139.2860 O   0  0  0  0  0  1  0  0  0  0  0  0
  192.5160  173.2360  135.3280 C   0  0  0  0  0  2  0  0  0  0  0  0
  191.5950  174.4150  135.0290 C   0  0  1  0  0  3  0  0  0  0  0  0
  189.6320  173.7620  136.4370 C   0  0  0  0  0  2  0  0  0  0  0  0
  191.8220  171.9170  135.2060 C   0  0  0  0  0  3  0  0  0  0  0  0
  190.1260  172.4310  136.9280 C   0  0  0  0  0  0  0  0  0  0  0  0
  190.7710  174.7500  136.2570 C   0  0  0  0  0  2  0  0  0  0  0  0
  190.7830  171.5350  135.9510 C   0  0  0  0  0  0  0  0  0  0  0  0
  190.3080  170.2790  135.7800 F   0  0  0  0  0  0  0  0  0  0  0  0
  189.8920  172.0430  138.1990 C   0  0  0  0  0  0  0  0  0  0  0  0
  190.3740  170.7160  138.7150 C   0  0  0  0  0  2  0  0  0  0  0  0
  192.7010  171.0310  139.6340 C   0  0  0  0  0  0  0  0  0  0  0  0
  192.2450  171.5880  140.6700 O   0  0  0  0  0  0  0  0  0  0  0  0
  191.8220  170.6270  138.5850 N   0  0  0  0  0  2  0  0  0  0  0  0
  194.5320  171.1740  138.1560 O   0  0  0  0  0  1  0  0  0  0  0  0
  194.1740  170.8490  139.4620 C   0  0  1  0  0  3  0  0  0  0  0  0
  194.9410  171.7210  140.4430 C   0  0  0  0  0  2  0  0  0  0  0  0
  194.9410  173.1780  139.9870 C   0  0  0  0  0  2  0  0  0  0  0  0
  195.6290  175.3430  141.0830 C   0  0  0  0  0  1  0  0  0  0  0  0
  196.1090  173.9960  140.5570 C   0  0  1  0  0  0  0  0  0  0  0  0
  196.6750  173.2570  141.6680 N   0  0  0  0  0  1  0  0  0  0  0  0
  197.2120  174.1880  139.5130 C   0  0  0  0  0  2  0  0  0  0  0  0
  196.8900  175.1880  138.5950 O   0  0  0  0  0  1  0  0  0  0  0  0
  192.4310  175.6300  134.6800 C   0  0  0  0  0  2  0  0  0  0  0  0
  193.7250  175.6320  135.4790 C   0  0  0  0  0  2  0  0  0  0  0  0
  195.8270  176.9440  135.1960 C   0  0  0  0  0  1  0  0  0  0  0  0
  194.8930  175.9310  134.5530 C   0  0  0  0  0  2  0  0  0  0  0  0
  1 28  1  6  0  0  0
  3  8  1  6  0  0  0
  3 31  1  0  0  0  0
  3 13  1  0  0  0  0
  4  1  1  0  0  0  0
  4 33  1  1  0  0  0
  5 16  1  0  0  0  0
  6 12  1  0  0  0  0
  7 25  1  0  0  0  0
  7 18  1  0  0  0  0
  9  1  1  0  0  0  0
 11  6  1  0  0  0  0
 11 20  1  0  0  0  0
 13  9  1  6  0  0  0
 14 18  1  0  0  0  0
 14 20  1  0  0  0  0
 15 12  1  6  0  0  0
 15  3  1  0  0  0  0
 15 13  1  0  0  0  0
 18  2  2  0  0  0  0
 19 27  2  0  0  0  0
 20 17  1  6  0  0  0
 22 16  1  6  0  0  0
 22 19  1  0  0  0  0
 22 24  1  0  0  0  0
 23 21  1  0  0  0  0
 23  4  1  0  0  0  0
 24 21  1  1  0  0  0
 24 26  1  0  0  0  0
 25 10  1  6  0  0  0
 25  5  1  0  0  0  0
 27 26  1  0  0  0  0
 30 31  2  0  0  0  0
 31 29  1  0  0  0  0
 32 33  1  0  0  0  0
 34 14  1  0  0  0  0
 35 34  1  0  0  0  0
 36 37  1  1  0  0  0
 36 35  1  0  0  0  0
 39 60  1  1  0  0  0
 39 38  1  0  0  0  0
 39 43  1  0  0  0  0
 40 42  1  0  0  0  0
 41 38  1  0  0  0  0
 41 44  2  0  0  0  0
 42 46  2  0  0  0  0
 43 40  1  0  0  0  0
 44 42  1  0  0  0  0
 45 44  1  0  0  0  0
 46 47  1  0  0  0  0
 46 36  1  0  0  0  0
 48 49  2  0  0  0  0
 50 47  1  0  0  0  0
 50 48  1  0  0  0  0
 52 51  1  6  0  0  0
 52 48  1  0  0  0  0
 52 53  1  0  0  0  0
 54 53  1  0  0  0  0
 54 56  1  0  0  0  0
 56 55  1  1  0  0  0
 56 57  1  0  0  0  0
 58 56  1  0  0  0  0
 59 58  1  0  0  0  0
 60 61  1  0  0  0  0
 63 62  1  0  0  0  0
 63 61  1  0  0  0  0
M  END
>  <MODEL>
9

>  <REMARK>
 VINA RESULT:      -4.8      1.702      2.408
  Name = 
  16 active torsions:
  status: ('A' for Active; 'I' for Inactive)
    1  A    between atoms: C_6  and  C_36
    2  A    between atoms: C_7  and  C_17
    3  A    between atoms: C_7  and  C_25
    4  A    between atoms: C_10  and  C_61
    5  A    between atoms: CA_11  and  C_51
    6  A    between atoms: C_14  and  C_40
    7  A    between atoms: C_14  and  C_62
    8  A    between atoms: C_17  and  C_32
    9  A    between atoms: C_19  and  C_36
   10  A    between atoms: C_19  and  C_58
   11  A    between atoms: C_20  and  C_25
   12  A    between atoms: C_20  and  C_31
   13  A    between atoms: C_21  and  N_46
   14  A    between atoms: C_21  and  C_62
   15  A    between atoms: C_29  and  N_35
   16  A    between atoms: C_29  and  C_40
                            x       y       z     vdW  Elec       q    Type
                         _______ _______ _______ _____ _____    ______ ____

>  <TORSDO>
F 16

$$$$
