=
 OpenBabel11062422043D

 34 37  0  0  1  0  0  0  0  0999 V2000
  188.1970  174.6220  141.5780 C   0  0  0  0  0  0  0  0  0  0  0  0
  187.1820  177.1590  140.5620 O   0  0  0  0  0  0  0  0  0  0  0  0
  186.7290  176.7020  141.6450 C   0  0  0  0  0  0  0  0  0  0  0  0
  188.7260  174.9200  140.4760 O   0  0  0  0  0  0  0  0  0  0  0  0
  187.1870  175.4500  142.1630 N   0  0  0  0  0  2  0  0  0  0  0  0
  185.7640  177.4580  142.3760 N   0  0  0  0  0  2  0  0  0  0  0  0
  188.6300  173.3910  142.2950 C   0  0  0  0  0  2  0  0  0  0  0  0
  191.5730  173.7540  144.3000 C   0  0  1  0  0  3  0  0  0  0  0  0
  190.7430  174.2890  143.1860 C   0  0  2  0  0  3  0  0  0  0  0  0
  190.8530  175.8010  143.2250 C   0  0  0  0  0  2  0  0  0  0  0  0
  192.3050  176.2600  142.9840 C   0  0  2  0  0  3  0  0  0  0  0  0
  193.4100  175.2720  143.4200 C   0  0  1  0  0  0  0  0  0  0  0  0
  191.1460  172.4420  144.5290 O   0  0  0  0  0  0  0  0  0  0  0  0
  193.0050  176.4130  144.3370 C   0  0  0  0  0  2  0  0  0  0  0  0
  193.0370  173.8540  143.9110 C   0  0  0  0  0  2  0  0  0  0  0  0
  189.4000  173.7590  143.5510 C   0  0  2  0  0  3  0  0  0  0  0  0
  189.7480  172.5020  144.3470 C   0  0  0  0  0  2  0  0  0  0  0  0
  194.7640  175.4310  142.7020 C   0  0  2  0  0  3  0  0  0  0  0  0
  195.0190  174.3610  141.8340 O   0  0  0  0  0  1  0  0  0  0  0  0
  195.9220  175.5880  143.6930 C   0  0  1  0  0  3  0  0  0  0  0  0
  196.7650  174.4780  143.6250 O   0  0  0  0  0  1  0  0  0  0  0  0
  196.7350  176.8350  143.3850 C   0  0  0  0  0  1  0  0  0  0  0  0
  185.2210  176.9740  143.5200 O   0  0  0  0  0  0  0  0  0  0  0  0
  185.8190  177.6760  144.5150 N   0  0  0  0  0  2  0  0  0  0  0  0
  186.3290  176.7020  145.4710 C   0  0  1  0  0  3  0  0  0  0  0  0
  187.8630  176.6350  145.4170 C   0  0  1  0  0  3  0  0  0  0  0  0
  188.3560  177.7600  144.7480 O   0  0  0  0  0  1  0  0  0  0  0  0
  189.1620  174.9300  147.1700 S   0  0  0  0  0  0  0  0  0  0  0  0
  189.7980  177.2970  146.8960 C   0  0  0  0  0  2  0  0  0  0  0  0
  190.5920  176.0470  147.1970 C   0  0  0  0  0  2  0  0  0  0  0  0
  188.4620  176.5780  146.8280 C   0  0  1  0  0  3  0  0  0  0  0  0
  185.8350  177.0780  146.8650 C   0  0  0  0  0  2  0  0  0  0  0  0
  185.2130  178.4650  146.8730 C   0  0  0  0  0  2  0  0  0  0  0  0
  186.0810  179.4300  147.6560 C   0  0  0  0  0  1  0  0  0  0  0  0
  1  5  1  0  0  0  0
  1  7  1  0  0  0  0
  2  3  2  0  0  0  0
  3  5  1  0  0  0  0
  3  6  1  0  0  0  0
  4  1  2  0  0  0  0
  6 23  1  0  0  0  0
  8 15  1  6  0  0  0
  8 13  1  0  0  0  0
  9 10  1  1  0  0  0
  9 16  1  0  0  0  0
  9  8  1  0  0  0  0
 11 10  1  1  0  0  0
 11 12  1  0  0  0  0
 11 14  1  0  0  0  0
 12 18  1  6  0  0  0
 12 15  1  0  0  0  0
 12 14  1  0  0  0  0
 16  7  1  6  0  0  0
 16 17  1  0  0  0  0
 17 13  1  0  0  0  0
 18 19  1  1  0  0  0
 18 20  1  0  0  0  0
 20 22  1  6  0  0  0
 21 20  1  0  0  0  0
 23 24  1  0  0  0  0
 24 25  1  0  0  0  0
 25 32  1  1  0  0  0
 26 27  1  1  0  0  0
 26 25  1  0  0  0  0
 28 30  1  0  0  0  0
 29 30  1  0  0  0  0
 31 26  1  6  0  0  0
 31 29  1  0  0  0  0
 31 28  1  0  0  0  0
 32 33  1  0  0  0  0
 33 34  1  0  0  0  0
M  END
>  <MODEL>
1

>  <REMARK>
 VINA RESULT:      -6.5      0.000      0.000
  Name = 
  11 active torsions:
  status: ('A' for Active; 'I' for Inactive)
    1  A    between atoms: C_2  and  C_5
    2  A    between atoms: C_2  and  C_28
    3  A    between atoms: C_6  and  C_8
    4  A    between atoms: C_8  and  C_22
    5  A    between atoms: O_13  and  N_31
    6  A    between atoms: O_13  and  N_33
    7  A    between atoms: C_14  and  C_19
    8  A    between atoms: C_14  and  C_21
    9  A    between atoms: C_14  and  N_31
   10  A    between atoms: C_16  and  C_21
   11  A    between atoms: C_19  and  C_23
                            x       y       z     vdW  Elec       q    Type
                         _______ _______ _______ _____ _____    ______ ____

>  <TORSDO>
F 11

$$$$
=
 OpenBabel11062422043D

 34 37  0  0  1  0  0  0  0  0999 V2000
  193.6420  176.7020  145.6080 C   0  0  0  0  0  0  0  0  0  0  0  0
  195.4840  176.4480  143.3630 O   0  0  0  0  0  0  0  0  0  0  0  0
  194.4410  175.7430  143.3880 C   0  0  0  0  0  0  0  0  0  0  0  0
  194.6460  177.4480  145.7500 O   0  0  0  0  0  0  0  0  0  0  0  0
  193.5250  175.8240  144.4840 N   0  0  0  0  0  2  0  0  0  0  0  0
  194.1580  174.8690  142.2960 N   0  0  0  0  0  2  0  0  0  0  0  0
  192.5510  176.7340  146.6200 C   0  0  0  0  0  2  0  0  0  0  0  0
  189.1370  175.6640  146.5060 C   0  0  1  0  0  3  0  0  0  0  0  0
  190.1610  176.6350  146.0330 C   0  0  2  0  0  3  0  0  0  0  0  0
  189.8180  176.9930  144.5990 C   0  0  0  0  0  2  0  0  0  0  0  0
  188.4440  177.6880  144.5130 C   0  0  2  0  0  3  0  0  0  0  0  0
  187.4220  177.3090  145.6090 C   0  0  1  0  0  0  0  0  0  0  0  0
  189.6730  175.0250  147.6280 O   0  0  0  0  0  0  0  0  0  0  0  0
  187.3710  176.6260  144.2530 C   0  0  0  0  0  2  0  0  0  0  0  0
  187.8490  176.4120  146.7940 C   0  0  0  0  0  2  0  0  0  0  0  0
  191.4070  175.8330  146.1870 C   0  0  2  0  0  3  0  0  0  0  0  0
  191.0390  174.8670  147.3110 C   0  0  0  0  0  2  0  0  0  0  0  0
  186.3240  178.3540  145.8810 C   0  0  2  0  0  3  0  0  0  0  0  0
  186.3060  178.7500  147.2240 O   0  0  0  0  0  1  0  0  0  0  0  0
  184.9380  177.8480  145.4670 C   0  0  1  0  0  3  0  0  0  0  0  0
  184.1050  177.7650  146.5840 O   0  0  0  0  0  1  0  0  0  0  0  0
  184.2990  178.7800  144.4510 C   0  0  0  0  0  1  0  0  0  0  0  0
  193.0690  174.0620  142.3130 O   0  0  0  0  0  0  0  0  0  0  0  0
  192.2080  174.6160  141.4220 N   0  0  0  0  0  2  0  0  0  0  0  0
  190.8740  174.5010  141.9960 C   0  0  1  0  0  3  0  0  0  0  0  0
  189.9100  173.8340  141.0040 C   0  0  1  0  0  3  0  0  0  0  0  0
  188.8960  174.7330  140.6600 O   0  0  0  0  0  1  0  0  0  0  0  0
  190.7950  171.5720  139.6750 S   0  0  0  0  0  0  0  0  0  0  0  0
  189.7540  173.4800  138.5100 C   0  0  0  0  0  2  0  0  0  0  0  0
  189.7380  171.9900  138.2590 C   0  0  0  0  0  2  0  0  0  0  0  0
  190.6470  173.3880  139.7350 C   0  0  1  0  0  3  0  0  0  0  0  0
  190.9670  173.7150  143.3010 C   0  0  0  0  0  2  0  0  0  0  0  0
  189.5890  173.3110  143.7990 C   0  0  0  0  0  2  0  0  0  0  0  0
  189.7070  172.2850  144.9090 C   0  0  0  0  0  1  0  0  0  0  0  0
  1  4  2  0  0  0  0
  1  7  1  0  0  0  0
  2  3  2  0  0  0  0
  3  5  1  0  0  0  0
  5  1  1  0  0  0  0
  6 23  1  0  0  0  0
  6  3  1  0  0  0  0
  8 15  1  1  0  0  0
  8 13  1  0  0  0  0
  9 10  1  6  0  0  0
  9 16  1  0  0  0  0
  9  8  1  0  0  0  0
 11 14  1  6  0  0  0
 11 10  1  0  0  0  0
 11 12  1  0  0  0  0
 12 18  1  1  0  0  0
 12 15  1  0  0  0  0
 14 12  1  0  0  0  0
 16  7  1  1  0  0  0
 16 17  1  0  0  0  0
 17 13  1  0  0  0  0
 18 19  1  1  0  0  0
 20 22  1  6  0  0  0
 20 18  1  0  0  0  0
 20 21  1  0  0  0  0
 24 25  1  0  0  0  0
 24 23  1  0  0  0  0
 25 32  1  1  0  0  0
 26 27  1  6  0  0  0
 26 25  1  0  0  0  0
 28 31  1  0  0  0  0
 29 31  1  0  0  0  0
 30 29  1  0  0  0  0
 30 28  1  0  0  0  0
 31 26  1  1  0  0  0
 32 33  1  0  0  0  0
 33 34  1  0  0  0  0
M  END
>  <MODEL>
2

>  <REMARK>
 VINA RESULT:      -6.5      3.174      7.769
  Name = 
  11 active torsions:
  status: ('A' for Active; 'I' for Inactive)
    1  A    between atoms: C_2  and  C_5
    2  A    between atoms: C_2  and  C_28
    3  A    between atoms: C_6  and  C_8
    4  A    between atoms: C_8  and  C_22
    5  A    between atoms: O_13  and  N_31
    6  A    between atoms: O_13  and  N_33
    7  A    between atoms: C_14  and  C_19
    8  A    between atoms: C_14  and  C_21
    9  A    between atoms: C_14  and  N_31
   10  A    between atoms: C_16  and  C_21
   11  A    between atoms: C_19  and  C_23
                            x       y       z     vdW  Elec       q    Type
                         _______ _______ _______ _____ _____    ______ ____

>  <TORSDO>
F 11

$$$$
=
 OpenBabel11062422043D

 34 37  0  0  1  0  0  0  0  0999 V2000
  193.0440  176.4110  146.0010 C   0  0  0  0  0  0  0  0  0  0  0  0
  195.0830  176.1970  143.9280 O   0  0  0  0  0  0  0  0  0  0  0  0
  193.8770  175.9860  143.6320 C   0  0  0  0  0  0  0  0  0  0  0  0
  194.1960  176.6190  146.4650 O   0  0  0  0  0  0  0  0  0  0  0  0
  192.8520  176.0600  144.6270 N   0  0  0  0  0  2  0  0  0  0  0  0
  193.5270  175.6930  142.2790 N   0  0  0  0  0  2  0  0  0  0  0  0
  191.8570  176.5380  146.8900 C   0  0  0  0  0  2  0  0  0  0  0  0
  188.3900  175.7900  146.4020 C   0  0  1  0  0  3  0  0  0  0  0  0
  189.5420  176.6710  146.0610 C   0  0  2  0  0  3  0  0  0  0  0  0
  189.3830  177.0840  144.6110 C   0  0  0  0  0  2  0  0  0  0  0  0
  188.0930  177.9040  144.4040 C   0  0  2  0  0  3  0  0  0  0  0  0
  186.9340  177.6030  145.3800 C   0  0  1  0  0  0  0  0  0  0  0  0
  188.7470  175.0850  147.5550 O   0  0  0  0  0  0  0  0  0  0  0  0
  186.9610  176.9520  144.0080 C   0  0  0  0  0  2  0  0  0  0  0  0
  187.1520  176.6500  146.5780 C   0  0  0  0  0  2  0  0  0  0  0  0
  190.6880  175.7550  146.3190 C   0  0  2  0  0  3  0  0  0  0  0  0
  190.1200  174.8070  147.3740 C   0  0  0  0  0  2  0  0  0  0  0  0
  185.9120  178.7400  145.5670 C   0  0  2  0  0  3  0  0  0  0  0  0
  185.9000  179.2150  146.8850 O   0  0  0  0  0  1  0  0  0  0  0  0
  184.4990  178.3140  145.1530 C   0  0  1  0  0  3  0  0  0  0  0  0
  183.5970  178.5770  146.1860 O   0  0  0  0  0  1  0  0  0  0  0  0
  184.0470  179.0620  143.9100 C   0  0  0  0  0  1  0  0  0  0  0  0
  192.2460  175.4140  141.9350 O   0  0  0  0  0  0  0  0  0  0  0  0
  192.3150  174.2470  141.2470 N   0  0  0  0  0  2  0  0  0  0  0  0
  191.3690  173.3310  141.8710 C   0  0  1  0  0  3  0  0  0  0  0  0
  190.5370  172.5980  140.8090 C   0  0  1  0  0  3  0  0  0  0  0  0
  190.6910  171.2170  140.9630 O   0  0  0  0  0  1  0  0  0  0  0  0
  188.7380  173.9350  142.4350 S   0  0  0  0  0  0  0  0  0  0  0  0
  188.6730  174.0810  139.9730 C   0  0  0  0  0  2  0  0  0  0  0  0
  188.3460  175.0680  141.0710 C   0  0  0  0  0  2  0  0  0  0  0  0
  189.0510  172.9610  140.9260 C   0  0  1  0  0  3  0  0  0  0  0  0
  192.1420  172.3520  142.7500 C   0  0  0  0  0  2  0  0  0  0  0  0
  191.9660  172.6790  144.2240 C   0  0  0  0  0  2  0  0  0  0  0  0
  193.2830  172.5310  144.9600 C   0  0  0  0  0  1  0  0  0  0  0  0
  1  4  2  0  0  0  0
  1  7  1  0  0  0  0
  3  2  2  0  0  0  0
  3  5  1  0  0  0  0
  5  1  1  0  0  0  0
  6  3  1  0  0  0  0
  8 15  1  1  0  0  0
  8 13  1  0  0  0  0
  9 10  1  6  0  0  0
  9 16  1  0  0  0  0
  9  8  1  0  0  0  0
 11 14  1  6  0  0  0
 11 10  1  0  0  0  0
 11 12  1  0  0  0  0
 12 18  1  1  0  0  0
 12 15  1  0  0  0  0
 14 12  1  0  0  0  0
 16  7  1  1  0  0  0
 16 17  1  0  0  0  0
 17 13  1  0  0  0  0
 18 19  1  1  0  0  0
 20 22  1  6  0  0  0
 20 18  1  0  0  0  0
 20 21  1  0  0  0  0
 23  6  1  0  0  0  0
 24 25  1  0  0  0  0
 24 23  1  0  0  0  0
 25 32  1  6  0  0  0
 26 27  1  1  0  0  0
 26 25  1  0  0  0  0
 29 31  1  0  0  0  0
 29 30  1  0  0  0  0
 30 28  1  0  0  0  0
 31 26  1  6  0  0  0
 31 28  1  0  0  0  0
 32 33  1  0  0  0  0
 33 34  1  0  0  0  0
M  END
>  <MODEL>
3

>  <REMARK>
 VINA RESULT:      -6.4      3.094      7.847
  Name = 
  11 active torsions:
  status: ('A' for Active; 'I' for Inactive)
    1  A    between atoms: C_2  and  C_5
    2  A    between atoms: C_2  and  C_28
    3  A    between atoms: C_6  and  C_8
    4  A    between atoms: C_8  and  C_22
    5  A    between atoms: O_13  and  N_31
    6  A    between atoms: O_13  and  N_33
    7  A    between atoms: C_14  and  C_19
    8  A    between atoms: C_14  and  C_21
    9  A    between atoms: C_14  and  N_31
   10  A    between atoms: C_16  and  C_21
   11  A    between atoms: C_19  and  C_23
                            x       y       z     vdW  Elec       q    Type
                         _______ _______ _______ _____ _____    ______ ____

>  <TORSDO>
F 11

$$$$
=
 OpenBabel11062422043D

 34 37  0  0  1  0  0  0  0  0999 V2000
  189.6630  172.6380  141.4270 C   0  0  0  0  0  0  0  0  0  0  0  0
  192.2510  171.2990  141.5080 O   0  0  0  0  0  0  0  0  0  0  0  0
  191.9860  172.1820  142.3650 C   0  0  0  0  0  0  0  0  0  0  0  0
  189.7820  171.8100  140.4860 O   0  0  0  0  0  0  0  0  0  0  0  0
  190.7350  172.8760  142.3440 N   0  0  0  0  0  2  0  0  0  0  0  0
  192.9380  172.4760  143.3880 N   0  0  0  0  0  2  0  0  0  0  0  0
  188.3840  173.3810  141.5980 C   0  0  0  0  0  2  0  0  0  0  0  0
  187.6200  176.7230  142.6280 C   0  0  1  0  0  3  0  0  0  0  0  0
  188.0650  175.3600  143.0290 C   0  0  2  0  0  3  0  0  0  0  0  0
  189.0610  175.5230  144.1610 C   0  0  0  0  0  2  0  0  0  0  0  0
  188.4020  176.1760  145.3920 C   0  0  2  0  0  3  0  0  0  0  0  0
  187.2140  177.1210  145.1040 C   0  0  1  0  0  0  0  0  0  0  0  0
  187.0600  176.6070  141.3520 O   0  0  0  0  0  0  0  0  0  0  0  0
  188.6060  177.6920  145.3140 C   0  0  0  0  0  2  0  0  0  0  0  0
  186.6480  177.2460  143.6700 C   0  0  0  0  0  2  0  0  0  0  0  0
  188.6570  174.8670  141.7540 C   0  0  2  0  0  3  0  0  0  0  0  0
  187.8820  175.6610  140.7040 C   0  0  0  0  0  2  0  0  0  0  0  0
  186.2230  177.3150  146.2670 C   0  0  2  0  0  3  0  0  0  0  0  0
  185.1060  176.4780  146.1410 O   0  0  0  0  0  1  0  0  0  0  0  0
  185.7710  178.7730  146.3970 C   0  0  1  0  0  3  0  0  0  0  0  0
  184.4150  178.8840  146.0860 O   0  0  0  0  0  1  0  0  0  0  0  0
  185.9890  179.2850  147.8120 C   0  0  0  0  0  1  0  0  0  0  0  0
  192.7040  173.4530  144.2980 O   0  0  0  0  0  0  0  0  0  0  0  0
  193.9310  173.7960  144.7650 N   0  0  0  0  0  2  0  0  0  0  0  0
  193.8050  175.1250  145.3480 C   0  0  1  0  0  3  0  0  0  0  0  0
  194.3710  176.1920  144.3990 C   0  0  1  0  0  3  0  0  0  0  0  0
  195.0510  177.1640  145.1390 O   0  0  0  0  0  1  0  0  0  0  0  0
  194.6810  175.7480  141.6830 S   0  0  0  0  0  0  0  0  0  0  0  0
  196.5430  176.4500  143.1400 C   0  0  0  0  0  2  0  0  0  0  0  0
  196.2030  176.7360  141.6950 C   0  0  0  0  0  2  0  0  0  0  0  0
  195.3300  175.5680  143.3770 C   0  0  1  0  0  3  0  0  0  0  0  0
  192.3360  175.3830  145.6680 C   0  0  0  0  0  2  0  0  0  0  0  0
  192.1840  176.1610  146.9650 C   0  0  0  0  0  2  0  0  0  0  0  0
  191.2000  175.4660  147.8860 C   0  0  0  0  0  1  0  0  0  0  0  0
  1  7  1  0  0  0  0
  1  5  1  0  0  0  0
  2  3  2  0  0  0  0
  3  6  1  0  0  0  0
  4  1  2  0  0  0  0
  5  3  1  0  0  0  0
  6 23  1  0  0  0  0
  8  9  1  0  0  0  0
  8 15  1  1  0  0  0
  9 10  1  1  0  0  0
 11 10  1  6  0  0  0
 12 14  1  0  0  0  0
 12 11  1  0  0  0  0
 12 18  1  1  0  0  0
 13  8  1  0  0  0  0
 14 11  1  0  0  0  0
 15 12  1  0  0  0  0
 16  7  1  6  0  0  0
 16  9  1  0  0  0  0
 17 13  1  0  0  0  0
 17 16  1  0  0  0  0
 18 19  1  6  0  0  0
 18 20  1  0  0  0  0
 20 22  1  1  0  0  0
 21 20  1  0  0  0  0
 23 24  1  0  0  0  0
 24 25  1  0  0  0  0
 25 32  1  6  0  0  0
 26 27  1  1  0  0  0
 26 25  1  0  0  0  0
 28 30  1  0  0  0  0
 28 31  1  0  0  0  0
 29 31  1  0  0  0  0
 30 29  1  0  0  0  0
 31 26  1  1  0  0  0
 32 33  1  0  0  0  0
 33 34  1  0  0  0  0
M  END
>  <MODEL>
4

>  <REMARK>
 VINA RESULT:      -6.3      2.926      7.302
  Name = 
  11 active torsions:
  status: ('A' for Active; 'I' for Inactive)
    1  A    between atoms: C_2  and  C_5
    2  A    between atoms: C_2  and  C_28
    3  A    between atoms: C_6  and  C_8
    4  A    between atoms: C_8  and  C_22
    5  A    between atoms: O_13  and  N_31
    6  A    between atoms: O_13  and  N_33
    7  A    between atoms: C_14  and  C_19
    8  A    between atoms: C_14  and  C_21
    9  A    between atoms: C_14  and  N_31
   10  A    between atoms: C_16  and  C_21
   11  A    between atoms: C_19  and  C_23
                            x       y       z     vdW  Elec       q    Type
                         _______ _______ _______ _____ _____    ______ ____

>  <TORSDO>
F 11

$$$$
=
 OpenBabel11062422043D

 34 37  0  0  1  0  0  0  0  0999 V2000
  193.1870  176.2370  146.6900 C   0  0  0  0  0  0  0  0  0  0  0  0
  195.6070  175.1780  145.4560 O   0  0  0  0  0  0  0  0  0  0  0  0
  194.5600  174.4780  145.4630 C   0  0  0  0  0  0  0  0  0  0  0  0
  194.1490  177.0420  146.7970 O   0  0  0  0  0  0  0  0  0  0  0  0
  193.3600  174.9550  146.0780 N   0  0  0  0  0  2  0  0  0  0  0  0
  194.5650  173.2010  144.8240 N   0  0  0  0  0  2  0  0  0  0  0  0
  191.8430  176.6210  147.2020 C   0  0  0  0  0  2  0  0  0  0  0  0
  188.4720  175.7950  146.3270 C   0  0  1  0  0  3  0  0  0  0  0  0
  189.6300  176.7080  146.1250 C   0  0  2  0  0  3  0  0  0  0  0  0
  189.6200  177.1370  144.6700 C   0  0  0  0  0  2  0  0  0  0  0  0
  188.3410  177.9280  144.3320 C   0  0  2  0  0  3  0  0  0  0  0  0
  187.0890  177.5850  145.1710 C   0  0  1  0  0  0  0  0  0  0  0  0
  188.7180  175.0830  147.5050 O   0  0  0  0  0  0  0  0  0  0  0  0
  187.2840  176.9530  143.8030 C   0  0  0  0  0  2  0  0  0  0  0  0
  187.2000  176.6210  146.3750 C   0  0  0  0  0  2  0  0  0  0  0  0
  190.7640  175.8170  146.4970 C   0  0  2  0  0  3  0  0  0  0  0  0
  190.1090  174.8410  147.4730 C   0  0  0  0  0  2  0  0  0  0  0  0
  186.0240  178.6930  145.2570 C   0  0  2  0  0  3  0  0  0  0  0  0
  186.0030  179.2970  146.5210 O   0  0  0  0  0  1  0  0  0  0  0  0
  184.6260  178.1730  144.9030 C   0  0  1  0  0  3  0  0  0  0  0  0
  183.7010  178.5990  145.8580 O   0  0  0  0  0  1  0  0  0  0  0  0
  184.1860  178.6790  143.5390 C   0  0  0  0  0  1  0  0  0  0  0  0
  193.4700  172.4020  144.8530 O   0  0  0  0  0  0  0  0  0  0  0  0
  193.3280  171.9580  143.5790 N   0  0  0  0  0  2  0  0  0  0  0  0
  192.0920  172.5340  143.0660 C   0  0  1  0  0  3  0  0  0  0  0  0
  192.1180  172.6050  141.5320 C   0  0  1  0  0  3  0  0  0  0  0  0
  190.9690  172.0000  141.0150 O   0  0  0  0  0  1  0  0  0  0  0  0
  192.2620  175.2100  142.4620 S   0  0  0  0  0  0  0  0  0  0  0  0
  193.5730  174.4100  140.5320 C   0  0  0  0  0  2  0  0  0  0  0  0
  193.8540  175.4240  141.6160 C   0  0  0  0  0  2  0  0  0  0  0  0
  192.1880  174.0600  141.0490 C   0  0  1  0  0  3  0  0  0  0  0  0
  190.9170  171.7000  143.5670 C   0  0  0  0  0  2  0  0  0  0  0  0
  190.0300  172.5050  144.5030 C   0  0  0  0  0  2  0  0  0  0  0  0
  189.2990  173.5900  143.7360 C   0  0  0  0  0  1  0  0  0  0  0  0
  1  4  2  0  0  0  0
  1  7  1  0  0  0  0
  2  3  2  0  0  0  0
  3  5  1  0  0  0  0
  5  1  1  0  0  0  0
  6 23  1  0  0  0  0
  6  3  1  0  0  0  0
  8 15  1  1  0  0  0
  8 13  1  0  0  0  0
  9 10  1  6  0  0  0
  9  8  1  0  0  0  0
  9 16  1  0  0  0  0
 11 14  1  6  0  0  0
 11 10  1  0  0  0  0
 11 12  1  0  0  0  0
 12 18  1  1  0  0  0
 12 15  1  0  0  0  0
 14 12  1  0  0  0  0
 16  7  1  1  0  0  0
 16 17  1  0  0  0  0
 17 13  1  0  0  0  0
 18 19  1  1  0  0  0
 20 22  1  6  0  0  0
 20 18  1  0  0  0  0
 20 21  1  0  0  0  0
 24 23  1  0  0  0  0
 25 32  1  6  0  0  0
 25 24  1  0  0  0  0
 26 27  1  6  0  0  0
 26 25  1  0  0  0  0
 29 31  1  0  0  0  0
 29 30  1  0  0  0  0
 30 28  1  0  0  0  0
 31 26  1  1  0  0  0
 31 28  1  0  0  0  0
 32 33  1  0  0  0  0
 34 33  1  0  0  0  0
M  END
>  <MODEL>
5

>  <REMARK>
 VINA RESULT:      -6.2      3.480      8.006
  Name = 
  11 active torsions:
  status: ('A' for Active; 'I' for Inactive)
    1  A    between atoms: C_2  and  C_5
    2  A    between atoms: C_2  and  C_28
    3  A    between atoms: C_6  and  C_8
    4  A    between atoms: C_8  and  C_22
    5  A    between atoms: O_13  and  N_31
    6  A    between atoms: O_13  and  N_33
    7  A    between atoms: C_14  and  C_19
    8  A    between atoms: C_14  and  C_21
    9  A    between atoms: C_14  and  N_31
   10  A    between atoms: C_16  and  C_21
   11  A    between atoms: C_19  and  C_23
                            x       y       z     vdW  Elec       q    Type
                         _______ _______ _______ _____ _____    ______ ____

>  <TORSDO>
F 11

$$$$
=
 OpenBabel11062422043D

 34 37  0  0  1  0  0  0  0  0999 V2000
  193.0560  176.4210  146.1660 C   0  0  0  0  0  0  0  0  0  0  0  0
  195.1490  176.0930  144.1640 O   0  0  0  0  0  0  0  0  0  0  0  0
  193.9780  175.7100  143.9020 C   0  0  0  0  0  0  0  0  0  0  0  0
  194.1690  176.8220  146.5950 O   0  0  0  0  0  0  0  0  0  0  0  0
  192.9300  175.8350  144.8670 N   0  0  0  0  0  2  0  0  0  0  0  0
  193.6900  175.1670  142.6140 N   0  0  0  0  0  2  0  0  0  0  0  0
  191.8430  176.5640  147.0180 C   0  0  0  0  0  2  0  0  0  0  0  0
  188.3890  175.8180  146.4480 C   0  0  1  0  0  3  0  0  0  0  0  0
  189.5490  176.6980  146.1340 C   0  0  2  0  0  3  0  0  0  0  0  0
  189.4250  177.1090  144.6800 C   0  0  0  0  0  2  0  0  0  0  0  0
  188.1410  177.9300  144.4420 C   0  0  2  0  0  3  0  0  0  0  0  0
  186.9580  177.6310  145.3900 C   0  0  1  0  0  0  0  0  0  0  0  0
  188.7180  175.1140  147.6100 O   0  0  0  0  0  0  0  0  0  0  0  0
  187.0180  176.9780  144.0200 C   0  0  0  0  0  2  0  0  0  0  0  0
  187.1480  176.6790  146.5930 C   0  0  0  0  0  2  0  0  0  0  0  0
  190.6880  175.7810  146.4210 C   0  0  2  0  0  3  0  0  0  0  0  0
  190.0940  174.8350  147.4620 C   0  0  0  0  0  2  0  0  0  0  0  0
  185.9330  178.7680  145.5510 C   0  0  2  0  0  3  0  0  0  0  0  0
  185.9250  179.2780  146.8560 O   0  0  0  0  0  1  0  0  0  0  0  0
  184.5210  178.3270  145.1540 C   0  0  1  0  0  3  0  0  0  0  0  0
  183.6260  178.5950  146.1920 O   0  0  0  0  0  1  0  0  0  0  0  0
  184.0530  179.0580  143.9070 C   0  0  0  0  0  1  0  0  0  0  0  0
  192.4520  174.7020  142.3140 O   0  0  0  0  0  0  0  0  0  0  0  0
  192.4310  173.4330  142.7930 N   0  0  0  0  0  2  0  0  0  0  0  0
  191.0840  172.9210  142.5750 C   0  0  1  0  0  3  0  0  0  0  0  0
  191.0300  171.4060  142.8180 C   0  0  1  0  0  3  0  0  0  0  0  0
  190.1350  170.8190  141.9190 O   0  0  0  0  0  1  0  0  0  0  0  0
  192.9900  170.0250  144.2050 S   0  0  0  0  0  0  0  0  0  0  0  0
  192.3340  169.4500  141.8980 C   0  0  0  0  0  2  0  0  0  0  0  0
  192.8030  168.6200  143.0710 C   0  0  0  0  0  2  0  0  0  0  0  0
  192.4160  170.7700  142.6430 C   0  0  1  0  0  3  0  0  0  0  0  0
  190.1210  173.6690  143.4910 C   0  0  0  0  0  2  0  0  0  0  0  0
  188.8030  173.9540  142.7890 C   0  0  0  0  0  2  0  0  0  0  0  0
  189.0170  174.8980  141.6220 C   0  0  0  0  0  1  0  0  0  0  0  0
  1  4  2  0  0  0  0
  1  7  1  0  0  0  0
  3  2  2  0  0  0  0
  3  5  1  0  0  0  0
  5  1  1  0  0  0  0
  6  3  1  0  0  0  0
  8 15  1  1  0  0  0
  8 13  1  0  0  0  0
  9 10  1  6  0  0  0
  9 16  1  0  0  0  0
  9  8  1  0  0  0  0
 11 14  1  6  0  0  0
 11 10  1  0  0  0  0
 11 12  1  0  0  0  0
 12 18  1  1  0  0  0
 12 15  1  0  0  0  0
 14 12  1  0  0  0  0
 16  7  1  1  0  0  0
 16 17  1  0  0  0  0
 17 13  1  0  0  0  0
 18 19  1  1  0  0  0
 20 22  1  6  0  0  0
 20 18  1  0  0  0  0
 20 21  1  0  0  0  0
 23  6  1  0  0  0  0
 23 24  1  0  0  0  0
 25 24  1  0  0  0  0
 25 26  1  0  0  0  0
 25 32  1  1  0  0  0
 26 27  1  6  0  0  0
 29 31  1  0  0  0  0
 29 30  1  0  0  0  0
 30 28  1  0  0  0  0
 31 26  1  1  0  0  0
 31 28  1  0  0  0  0
 33 32  1  0  0  0  0
 34 33  1  0  0  0  0
M  END
>  <MODEL>
6

>  <REMARK>
 VINA RESULT:      -6.2      3.231      7.865
  Name = 
  11 active torsions:
  status: ('A' for Active; 'I' for Inactive)
    1  A    between atoms: C_2  and  C_5
    2  A    between atoms: C_2  and  C_28
    3  A    between atoms: C_6  and  C_8
    4  A    between atoms: C_8  and  C_22
    5  A    between atoms: O_13  and  N_31
    6  A    between atoms: O_13  and  N_33
    7  A    between atoms: C_14  and  C_19
    8  A    between atoms: C_14  and  C_21
    9  A    between atoms: C_14  and  N_31
   10  A    between atoms: C_16  and  C_21
   11  A    between atoms: C_19  and  C_23
                            x       y       z     vdW  Elec       q    Type
                         _______ _______ _______ _____ _____    ______ ____

>  <TORSDO>
F 11

$$$$
=
 OpenBabel11062422043D

 34 37  0  0  1  0  0  0  0  0999 V2000
  194.0310  176.9870  145.9410 C   0  0  0  0  0  0  0  0  0  0  0  0
  196.0830  176.8400  143.8750 O   0  0  0  0  0  0  0  0  0  0  0  0
  195.1180  176.0320  143.8450 C   0  0  0  0  0  0  0  0  0  0  0  0
  194.9380  177.8380  146.1320 O   0  0  0  0  0  0  0  0  0  0  0  0
  194.1040  176.0590  144.8540 N   0  0  0  0  0  2  0  0  0  0  0  0
  195.0220  175.0920  142.7750 N   0  0  0  0  0  2  0  0  0  0  0  0
  192.8550  176.9450  146.8530 C   0  0  0  0  0  2  0  0  0  0  0  0
  189.5300  175.6580  146.5360 C   0  0  1  0  0  3  0  0  0  0  0  0
  190.4870  176.7500  146.2070 C   0  0  2  0  0  3  0  0  0  0  0  0
  190.1370  177.2580  144.8220 C   0  0  0  0  0  2  0  0  0  0  0  0
  188.7170  177.8590  144.7920 C   0  0  2  0  0  3  0  0  0  0  0  0
  187.7120  177.2760  145.8110 C   0  0  1  0  0  0  0  0  0  0  0  0
  190.0970  174.9240  147.5820 O   0  0  0  0  0  0  0  0  0  0  0  0
  187.7270  176.7650  144.3810 C   0  0  0  0  0  2  0  0  0  0  0  0
  188.1870  176.2720  146.8860 C   0  0  0  0  0  2  0  0  0  0  0  0
  191.7860  176.0260  146.2880 C   0  0  2  0  0  3  0  0  0  0  0  0
  191.4750  174.9040  147.2770 C   0  0  0  0  0  2  0  0  0  0  0  0
  186.5370  178.1980  146.1850 C   0  0  2  0  0  3  0  0  0  0  0  0
  186.5040  178.4640  147.5610 O   0  0  0  0  0  1  0  0  0  0  0  0
  185.1910  177.6230  145.7320 C   0  0  1  0  0  3  0  0  0  0  0  0
  184.8570  176.5130  146.5100 O   0  0  0  0  0  1  0  0  0  0  0  0
  184.0850  178.6590  145.8620 C   0  0  0  0  0  1  0  0  0  0  0  0
  194.0230  174.1770  142.7370 O   0  0  0  0  0  0  0  0  0  0  0  0
  194.5240  173.0860  143.3690 N   0  0  0  0  0  2  0  0  0  0  0  0
  193.5680  172.7240  144.4070 C   0  0  1  0  0  3  0  0  0  0  0  0
  192.2840  172.1490  143.7910 C   0  0  1  0  0  3  0  0  0  0  0  0
  192.0280  170.8870  144.3350 O   0  0  0  0  0  1  0  0  0  0  0  0
  190.3180  173.6000  142.4890 S   0  0  0  0  0  0  0  0  0  0  0  0
  189.8750  172.2870  144.5300 C   0  0  0  0  0  2  0  0  0  0  0  0
  189.0400  172.6060  143.3100 C   0  0  0  0  0  2  0  0  0  0  0  0
  191.0860  173.0700  144.0550 C   0  0  1  0  0  3  0  0  0  0  0  0
  194.2290  171.7270  145.3550 C   0  0  0  0  0  2  0  0  0  0  0  0
  195.6170  171.3430  144.8690 C   0  0  0  0  0  2  0  0  0  0  0  0
  196.6550  171.6650  145.9260 C   0  0  0  0  0  1  0  0  0  0  0  0
  1  4  2  0  0  0  0
  1  7  1  0  0  0  0
  3  2  2  0  0  0  0
  3  5  1  0  0  0  0
  5  1  1  0  0  0  0
  6  3  1  0  0  0  0
  8 15  1  1  0  0  0
  8 13  1  0  0  0  0
  9 10  1  6  0  0  0
  9 16  1  0  0  0  0
  9  8  1  0  0  0  0
 11 14  1  6  0  0  0
 11 10  1  0  0  0  0
 11 12  1  0  0  0  0
 12 18  1  1  0  0  0
 12 15  1  0  0  0  0
 14 12  1  0  0  0  0
 16  7  1  1  0  0  0
 16 17  1  0  0  0  0
 17 13  1  0  0  0  0
 18 19  1  1  0  0  0
 20 22  1  1  0  0  0
 20 18  1  0  0  0  0
 20 21  1  0  0  0  0
 23  6  1  0  0  0  0
 23 24  1  0  0  0  0
 24 25  1  0  0  0  0
 25 32  1  1  0  0  0
 26 27  1  1  0  0  0
 26 25  1  0  0  0  0
 28 30  1  0  0  0  0
 28 31  1  0  0  0  0
 30 29  1  0  0  0  0
 31 26  1  6  0  0  0
 31 29  1  0  0  0  0
 33 32  1  0  0  0  0
 33 34  1  0  0  0  0
M  END
>  <MODEL>
7

>  <REMARK>
 VINA RESULT:      -6.1      3.441      8.188
  Name = 
  11 active torsions:
  status: ('A' for Active; 'I' for Inactive)
    1  A    between atoms: C_2  and  C_5
    2  A    between atoms: C_2  and  C_28
    3  A    between atoms: C_6  and  C_8
    4  A    between atoms: C_8  and  C_22
    5  A    between atoms: O_13  and  N_31
    6  A    between atoms: O_13  and  N_33
    7  A    between atoms: C_14  and  C_19
    8  A    between atoms: C_14  and  C_21
    9  A    between atoms: C_14  and  N_31
   10  A    between atoms: C_16  and  C_21
   11  A    between atoms: C_19  and  C_23
                            x       y       z     vdW  Elec       q    Type
                         _______ _______ _______ _____ _____    ______ ____

>  <TORSDO>
F 11

$$$$
=
 OpenBabel11062422043D

 34 37  0  0  1  0  0  0  0  0999 V2000
  190.4910  171.3410  142.7990 C   0  0  0  0  0  0  0  0  0  0  0  0
  192.9690  169.8830  143.2800 O   0  0  0  0  0  0  0  0  0  0  0  0
  192.7430  170.9450  143.9190 C   0  0  0  0  0  0  0  0  0  0  0  0
  190.5770  170.3260  142.0610 O   0  0  0  0  0  0  0  0  0  0  0  0
  191.5490  171.6990  143.6940 N   0  0  0  0  0  2  0  0  0  0  0  0
  193.6820  171.3870  144.9000 N   0  0  0  0  0  2  0  0  0  0  0  0
  189.2650  172.1860  142.7510 C   0  0  0  0  0  2  0  0  0  0  0  0
  188.5640  175.6160  142.0040 C   0  0  1  0  0  3  0  0  0  0  0  0
  188.6530  174.5530  143.0440 C   0  0  2  0  0  3  0  0  0  0  0  0
  189.1420  175.2080  144.3210 C   0  0  0  0  0  2  0  0  0  0  0  0
  188.1390  176.2660  144.8230 C   0  0  2  0  0  3  0  0  0  0  0  0
  187.2780  176.9530  143.7390 C   0  0  1  0  0  0  0  0  0  0  0  0
  188.5350  174.9690  140.7650 O   0  0  0  0  0  0  0  0  0  0  0  0
  188.5360  177.6320  144.2530 C   0  0  0  0  0  2  0  0  0  0  0  0
  187.3330  176.4620  142.2740 C   0  0  0  0  0  2  0  0  0  0  0  0
  189.6310  173.6210  142.4150 C   0  0  2  0  0  3  0  0  0  0  0  0
  189.4250  173.8850  140.9250 C   0  0  0  0  0  2  0  0  0  0  0  0
  185.9430  177.5450  144.2290 C   0  0  2  0  0  3  0  0  0  0  0  0
  184.9620  177.5120  143.2290 O   0  0  0  0  0  1  0  0  0  0  0  0
  186.1090  178.9760  144.7510 C   0  0  1  0  0  3  0  0  0  0  0  0
  185.4720  179.8750  143.8940 O   0  0  0  0  0  1  0  0  0  0  0  0
  185.5100  179.1210  146.1410 C   0  0  0  0  0  1  0  0  0  0  0  0
  193.4940  172.5490  145.5710 O   0  0  0  0  0  0  0  0  0  0  0  0
  194.6420  173.2480  145.3890 N   0  0  0  0  0  2  0  0  0  0  0  0
  194.2630  174.5560  144.8700 C   0  0  1  0  0  3  0  0  0  0  0  0
  194.6040  174.6710  143.3770 C   0  0  1  0  0  3  0  0  0  0  0  0
  193.5370  174.1840  142.6140 O   0  0  0  0  0  1  0  0  0  0  0  0
  196.6740  176.4780  143.0370 S   0  0  0  0  0  0  0  0  0  0  0  0
  194.7590  176.3370  141.4880 C   0  0  0  0  0  2  0  0  0  0  0  0
  196.2210  176.6680  141.2890 C   0  0  0  0  0  2  0  0  0  0  0  0
  194.8860  176.1270  142.9860 C   0  0  1  0  0  3  0  0  0  0  0  0
  192.7730  174.7710  145.1220 C   0  0  0  0  0  2  0  0  0  0  0  0
  192.5140  176.1180  145.7750 C   0  0  0  0  0  2  0  0  0  0  0  0
  193.7020  176.5330  146.6210 C   0  0  0  0  0  1  0  0  0  0  0  0
  1  5  1  0  0  0  0
  2  3  2  0  0  0  0
  3  6  1  0  0  0  0
  4  1  2  0  0  0  0
  5  3  1  0  0  0  0
  6 23  1  0  0  0  0
  7  1  1  0  0  0  0
  8 15  1  1  0  0  0
  8  9  1  0  0  0  0
  9 10  1  1  0  0  0
 10 11  1  0  0  0  0
 11 14  1  6  0  0  0
 12 18  1  1  0  0  0
 12 14  1  0  0  0  0
 12 11  1  0  0  0  0
 13 17  1  0  0  0  0
 13  8  1  0  0  0  0
 15 12  1  0  0  0  0
 16  7  1  6  0  0  0
 16  9  1  0  0  0  0
 17 16  1  0  0  0  0
 18 19  1  6  0  0  0
 18 20  1  0  0  0  0
 20 22  1  1  0  0  0
 21 20  1  0  0  0  0
 24 23  1  0  0  0  0
 25 32  1  6  0  0  0
 25 24  1  0  0  0  0
 26 27  1  6  0  0  0
 26 25  1  0  0  0  0
 29 31  1  0  0  0  0
 30 29  1  0  0  0  0
 30 28  1  0  0  0  0
 31 28  1  0  0  0  0
 31 26  1  6  0  0  0
 32 33  1  0  0  0  0
 33 34  1  0  0  0  0
M  END
>  <MODEL>
8

>  <REMARK>
 VINA RESULT:      -6.1      3.242      7.566
  Name = 
  11 active torsions:
  status: ('A' for Active; 'I' for Inactive)
    1  A    between atoms: C_2  and  C_5
    2  A    between atoms: C_2  and  C_28
    3  A    between atoms: C_6  and  C_8
    4  A    between atoms: C_8  and  C_22
    5  A    between atoms: O_13  and  N_31
    6  A    between atoms: O_13  and  N_33
    7  A    between atoms: C_14  and  C_19
    8  A    between atoms: C_14  and  C_21
    9  A    between atoms: C_14  and  N_31
   10  A    between atoms: C_16  and  C_21
   11  A    between atoms: C_19  and  C_23
                            x       y       z     vdW  Elec       q    Type
                         _______ _______ _______ _____ _____    ______ ____

>  <TORSDO>
F 11

$$$$
=
 OpenBabel11062422043D

 34 37  0  0  1  0  0  0  0  0999 V2000
  188.7750  173.7000  140.9400 C   0  0  0  0  0  0  0  0  0  0  0  0
  190.8190  172.2220  139.4780 O   0  0  0  0  0  0  0  0  0  0  0  0
  191.0650  172.6270  140.6450 C   0  0  0  0  0  0  0  0  0  0  0  0
  188.3840  173.3980  139.7820 O   0  0  0  0  0  0  0  0  0  0  0  0
  190.0950  173.3740  141.3850 N   0  0  0  0  0  2  0  0  0  0  0  0
  192.3220  172.3130  141.2460 N   0  0  0  0  0  2  0  0  0  0  0  0
  187.8490  174.4040  141.8700 C   0  0  0  0  0  2  0  0  0  0  0  0
  187.9060  177.5020  143.6620 C   0  0  1  0  0  3  0  0  0  0  0  0
  187.9920  176.0170  143.7250 C   0  0  2  0  0  3  0  0  0  0  0  0
  188.9690  175.6670  144.8310 C   0  0  0  0  0  2  0  0  0  0  0  0
  188.4610  176.1610  146.2000 C   0  0  2  0  0  3  0  0  0  0  0  0
  187.5490  177.4090  146.1750 C   0  0  1  0  0  0  0  0  0  0  0  0
  187.3660  177.8230  142.4120 O   0  0  0  0  0  0  0  0  0  0  0  0
  189.0330  177.5570  146.4630 C   0  0  0  0  0  2  0  0  0  0  0  0
  187.0670  177.9930  144.8270 C   0  0  0  0  0  2  0  0  0  0  0  0
  188.4750  175.7000  142.3520 C   0  0  2  0  0  3  0  0  0  0  0  0
  187.9460  176.8790  141.5380 C   0  0  0  0  0  2  0  0  0  0  0  0
  186.6070  177.5670  147.3830 C   0  0  2  0  0  3  0  0  0  0  0  0
  185.7240  176.4850  147.4980 O   0  0  0  0  0  1  0  0  0  0  0  0
  185.8210  178.8800  147.3280 C   0  0  1  0  0  3  0  0  0  0  0  0
  184.4740  178.6450  147.6100 O   0  0  0  0  0  1  0  0  0  0  0  0
  186.3610  179.8810  148.3360 C   0  0  0  0  0  1  0  0  0  0  0  0
  192.6380  172.7730  142.4810 O   0  0  0  0  0  0  0  0  0  0  0  0
  193.5670  173.7380  142.2680 N   0  0  0  0  0  2  0  0  0  0  0  0
  193.3410  174.7710  143.2700 C   0  0  1  0  0  3  0  0  0  0  0  0
  194.5510  174.8970  144.2060 C   0  0  1  0  0  3  0  0  0  0  0  0
  195.1610  176.1410  144.0190 O   0  0  0  0  0  1  0  0  0  0  0  0
  194.1230  176.3740  146.5100 S   0  0  0  0  0  0  0  0  0  0  0  0
  192.6310  174.5400  145.8060 C   0  0  0  0  0  2  0  0  0  0  0  0
  192.3860  175.8470  146.5250 C   0  0  0  0  0  2  0  0  0  0  0  0
  194.1290  174.7540  145.6740 C   0  0  1  0  0  3  0  0  0  0  0  0
  193.0450  176.0880  142.5580 C   0  0  0  0  0  2  0  0  0  0  0  0
  191.6210  176.5500  142.8240 C   0  0  0  0  0  2  0  0  0  0  0  0
  191.6210  177.9190  143.4750 C   0  0  0  0  0  1  0  0  0  0  0  0
  1  5  1  0  0  0  0
  1  7  1  0  0  0  0
  2  3  2  0  0  0  0
  3  6  1  0  0  0  0
  3  5  1  0  0  0  0
  4  1  2  0  0  0  0
  6 23  1  0  0  0  0
  8  9  1  0  0  0  0
  8 15  1  1  0  0  0
  9 10  1  1  0  0  0
 11 10  1  6  0  0  0
 11 14  1  0  0  0  0
 12 11  1  0  0  0  0
 12 14  1  0  0  0  0
 12 18  1  1  0  0  0
 13  8  1  0  0  0  0
 15 12  1  0  0  0  0
 16  7  1  6  0  0  0
 16  9  1  0  0  0  0
 17 16  1  0  0  0  0
 17 13  1  0  0  0  0
 18 19  1  6  0  0  0
 20 18  1  0  0  0  0
 20 21  1  0  0  0  0
 20 22  1  1  0  0  0
 24 23  1  0  0  0  0
 24 25  1  0  0  0  0
 25 32  1  6  0  0  0
 25 26  1  0  0  0  0
 26 27  1  1  0  0  0
 28 30  1  0  0  0  0
 29 30  1  0  0  0  0
 31 26  1  6  0  0  0
 31 29  1  0  0  0  0
 31 28  1  0  0  0  0
 32 33  1  0  0  0  0
 33 34  1  0  0  0  0
M  END
>  <MODEL>
9

>  <REMARK>
 VINA RESULT:      -6.0      2.660      7.045
  Name = 
  11 active torsions:
  status: ('A' for Active; 'I' for Inactive)
    1  A    between atoms: C_2  and  C_5
    2  A    between atoms: C_2  and  C_28
    3  A    between atoms: C_6  and  C_8
    4  A    between atoms: C_8  and  C_22
    5  A    between atoms: O_13  and  N_31
    6  A    between atoms: O_13  and  N_33
    7  A    between atoms: C_14  and  C_19
    8  A    between atoms: C_14  and  C_21
    9  A    between atoms: C_14  and  N_31
   10  A    between atoms: C_16  and  C_21
   11  A    between atoms: C_19  and  C_23
                            x       y       z     vdW  Elec       q    Type
                         _______ _______ _______ _____ _____    ______ ____

>  <TORSDO>
F 11

$$$$
