=
 OpenBabel11062419313D

 40 47  0  0  1  0  0  0  0  0999 V2000
  193.3810  171.4110  142.9120 C   0  0  0  0  0  3  0  0  0  0  0  0
  190.8940  176.4140  147.1440 C   0  0  0  0  0  1  0  0  0  0  0  0
  191.3240  175.9720  144.6820 C   0  0  1  0  0  3  0  0  0  0  0  0
  192.1070  174.0290  143.3750 C   0  0  0  0  0  2  0  0  0  0  0  0
  190.2720  176.2650  145.7500 C   0  0  1  0  0  0  0  0  0  0  0  0
  190.1430  173.9090  144.9670 C   0  0  0  0  0  2  0  0  0  0  0  0
  193.5450  174.5580  143.1410 C   0  0  1  0  0  3  0  0  0  0  0  0
  193.9520  175.5570  144.1990 C   0  0  2  0  0  3  0  0  0  0  0  0
  194.9890  175.2130  144.8750 N   0  0  0  0  0  2  0  0  0  0  0  0
  195.3870  171.6650  144.5310 C   0  0  1  0  0  3  0  0  0  0  0  0
  194.6080  173.5240  143.3910 C   0  0  2  0  0  3  0  0  0  0  0  0
  193.0470  170.2160  143.4260 C   0  0  0  0  0  0  0  0  0  0  0  0
  194.6680  170.6090  145.3240 C   0  0  0  0  0  0  0  0  0  0  0  0
  192.9000  176.9210  144.7310 S   0  0  0  0  0  0  0  0  0  0  0  0
  194.4830  172.2050  143.4780 C   0  0  2  0  0  3  0  0  0  0  0  0
  189.3700  175.0180  145.6720 C   0  0  1  0  0  3  0  0  0  0  0  0
  195.6140  174.0380  144.3360 C   0  0  2  0  0  3  0  0  0  0  0  0
  191.5190  174.4750  144.7080 C   0  0  2  0  0  3  0  0  0  0  0  0
  188.9190  174.5860  146.9240 O   0  0  0  0  0  1  0  0  0  0  0  0
  195.7360  172.9100  145.3510 C   0  0  0  0  0  2  0  0  0  0  0  0
  193.7790  169.6250  144.6100 C   0  0  0  0  0  2  0  0  0  0  0  0
  194.8870  170.4670  146.5170 O   0  0  0  0  0  0  0  0  0  0  0  0
  191.0360  170.0140  141.9870 C   0  0  0  0  0  1  0  0  0  0  0  0
  192.0030  169.4660  142.8730 O   0  0  0  0  0  0  0  0  0  0  0  0
  189.4710  177.3980  145.3930 O   0  0  0  0  0  0  0  0  0  0  0  0
  187.2280  177.7450  144.4800 C   0  0  0  0  0  0  0  0  0  0  0  0
  186.4320  177.8970  143.3310 C   0  0  0  0  0  0  0  0  0  0  0  0
  188.6250  177.5380  144.2770 C   0  0  0  0  0  0  0  0  0  0  0  0
  184.6730  178.1850  142.0200 N   0  0  0  0  0  0  0  0  0  0  0  0
  185.8390  178.0660  139.9490 O   0  0  0  0  0  0  0  0  0  0  0  0
  188.3210  177.6530  141.8380 C   0  0  0  0  0  3  0  0  0  0  0  0
  185.8340  178.0360  141.2070 C   0  0  0  0  0  0  0  0  0  0  0  0
  186.9700  177.8500  142.0740 C   0  0  0  0  0  0  0  0  0  0  0  0
  189.1460  177.5000  142.9590 C   0  0  0  0  0  3  0  0  0  0  0  0
  185.0180  178.1040  143.2470 N   0  0  0  0  0  0  0  0  0  0  0  0
  186.4930  176.7560  146.5970 N   0  0  0  0  0  0  0  0  0  0  0  0
  185.8710  177.1550  147.8480 C   0  0  0  0  0  2  0  0  0  0  0  0
  186.1130  178.9910  146.4920 C   0  0  0  0  0  3  0  0  0  0  0  0
  185.6630  178.6240  147.6810 C   0  0  0  0  0  3  0  0  0  0  0  0
  186.6260  177.7940  145.8410 C   0  0  0  0  0  0  0  0  0  0  0  0
  1 12  2  0  0  0  0
  1 15  1  0  0  0  0
  3 18  1  0  0  0  0
  3 14  1  1  0  0  0
  3  5  1  0  0  0  0
  4 18  1  0  0  0  0
  5  2  1  1  0  0  0
  6 16  1  0  0  0  0
  7  4  1  1  0  0  0
  7 11  1  0  0  0  0
  7  8  1  0  0  0  0
  8 14  1  1  0  0  0
  8  9  1  0  0  0  0
 10 13  1  0  0  0  0
 10 20  1  1  0  0  0
 11 15  1  0  0  0  0
 11 17  1  0  0  0  0
 12 21  1  0  0  0  0
 13 22  2  0  0  0  0
 15 10  1  0  0  0  0
 16  5  1  0  0  0  0
 16 19  1  0  0  0  0
 17  9  1  0  0  0  0
 17 20  1  0  0  0  0
 18  6  1  0  0  0  0
 21 13  1  0  0  0  0
 23 24  1  0  0  0  0
 24 12  1  0  0  0  0
 25  5  1  0  0  0  0
 26 40  1  0  0  0  0
 27 26  2  0  0  0  0
 28 26  1  0  0  0  0
 28 25  1  0  0  0  0
 29 35  2  0  0  0  0
 30 32  2  0  0  0  0
 31 33  2  0  0  0  0
 31 34  1  0  0  0  0
 32 29  1  0  0  0  0
 32 33  1  0  0  0  0
 33 27  1  0  0  0  0
 34 28  2  0  0  0  0
 35 27  1  0  0  0  0
 36 37  1  0  0  0  0
 38 39  2  0  0  0  0
 39 37  1  0  0  0  0
 40 38  1  0  0  0  0
 40 36  2  0  0  0  0
M  END
>  <MODEL>
1

>  <REMARK>
 VINA RESULT:      -9.1      0.000      0.000
  Name = 
  4 active torsions:
  status: ('A' for Active; 'I' for Inactive)
    1  A    between atoms: C_3  and  C_34
    2  A    between atoms: C_8  and  O_16
    3  A    between atoms: C_12  and  O_16
    4  A    between atoms: C_20  and  O_22
                            x       y       z     vdW  Elec       q    Type
                         _______ _______ _______ _____ _____    ______ ____

>  <TORSDO>
F 4

$$$$
=
 OpenBabel11062419313D

 40 47  0  0  1  0  0  0  0  0999 V2000
  193.1890  171.6320  142.9150 C   0  0  0  0  0  3  0  0  0  0  0  0
  191.2130  175.6060  148.3400 C   0  0  0  0  0  1  0  0  0  0  0  0
  191.7040  175.7930  145.8560 C   0  0  1  0  0  3  0  0  0  0  0  0
  192.2730  174.1850  144.0720 C   0  0  0  0  0  2  0  0  0  0  0  0
  190.6490  175.9370  146.9520 C   0  0  1  0  0  0  0  0  0  0  0  0
  190.2310  173.9310  145.5460 C   0  0  0  0  0  2  0  0  0  0  0  0
  193.7810  174.5370  144.0100 C   0  0  1  0  0  3  0  0  0  0  0  0
  194.2690  175.1370  145.3070 C   0  0  2  0  0  3  0  0  0  0  0  0
  195.2100  174.4720  145.8730 N   0  0  0  0  0  2  0  0  0  0  0  0
  195.1230  171.1340  144.5630 C   0  0  1  0  0  3  0  0  0  0  0  0
  194.6740  173.3270  143.9750 C   0  0  2  0  0  3  0  0  0  0  0  0
  192.6650  170.4070  143.0740 C   0  0  0  0  0  0  0  0  0  0  0  0
  194.2230  170.0210  145.0250 C   0  0  0  0  0  0  0  0  0  0  0  0
  193.3920  176.4460  146.1840 S   0  0  0  0  0  0  0  0  0  0  0  0
  194.3600  172.0690  143.6910 C   0  0  2  0  0  3  0  0  0  0  0  0
  189.5860  174.9080  146.5220 C   0  0  1  0  0  3  0  0  0  0  0  0
  195.6920  173.4080  145.0370 C   0  0  2  0  0  3  0  0  0  0  0  0
  191.6840  174.3340  145.4690 C   0  0  2  0  0  3  0  0  0  0  0  0
  189.0150  174.2230  147.6000 O   0  0  0  0  0  1  0  0  0  0  0  0
  195.6010  172.0420  145.7000 C   0  0  0  0  0  2  0  0  0  0  0  0
  193.2440  169.4130  144.0560 C   0  0  0  0  0  2  0  0  0  0  0  0
  194.3580  169.5280  146.1340 O   0  0  0  0  0  0  0  0  0  0  0  0
  190.4290  170.8340  142.0850 C   0  0  0  0  0  1  0  0  0  0  0  0
  191.5560  170.0000  142.3230 O   0  0  0  0  0  0  0  0  0  0  0  0
  190.0350  177.2320  146.9150 O   0  0  0  0  0  0  0  0  0  0  0  0
  188.2940  177.6240  145.2410 C   0  0  0  0  0  0  0  0  0  0  0  0
  186.9420  177.9180  144.9920 C   0  0  0  0  0  0  0  0  0  0  0  0
  188.6970  177.5410  146.6070 C   0  0  0  0  0  0  0  0  0  0  0  0
  185.0480  178.3430  143.9280 N   0  0  0  0  0  0  0  0  0  0  0  0
  183.6960  178.6440  145.8630 O   0  0  0  0  0  0  0  0  0  0  0  0
  186.4040  178.0420  147.3480 C   0  0  0  0  0  3  0  0  0  0  0  0
  184.8100  178.3950  145.3320 C   0  0  0  0  0  0  0  0  0  0  0  0
  186.0500  178.1170  146.0110 C   0  0  0  0  0  0  0  0  0  0  0  0
  187.7430  177.7480  147.6360 C   0  0  0  0  0  3  0  0  0  0  0  0
  186.2800  178.0690  143.7310 N   0  0  0  0  0  0  0  0  0  0  0  0
  189.1770  176.4260  143.2960 N   0  0  0  0  0  0  0  0  0  0  0  0
  190.2620  176.5230  142.3340 C   0  0  0  0  0  3  0  0  0  0  0  0
  190.3830  178.2780  143.8090 C   0  0  0  0  0  3  0  0  0  0  0  0
  190.9880  177.7590  142.7530 C   0  0  0  0  0  3  0  0  0  0  0  0
  189.2520  177.4160  144.1210 C   0  0  2  0  0  3  0  0  0  0  0  0
  1 12  2  0  0  0  0
  1 15  1  0  0  0  0
  3 14  1  1  0  0  0
  3  5  1  0  0  0  0
  4 18  1  0  0  0  0
  5  2  1  1  0  0  0
  6 16  1  0  0  0  0
  7  4  1  1  0  0  0
  7  8  1  0  0  0  0
  8  9  1  1  0  0  0
  8 14  1  0  0  0  0
 10 13  1  0  0  0  0
 10 20  1  1  0  0  0
 11  7  1  0  0  0  0
 11 17  1  0  0  0  0
 12 21  1  0  0  0  0
 13 22  2  0  0  0  0
 15 11  1  0  0  0  0
 15 10  1  0  0  0  0
 16  5  1  0  0  0  0
 16 19  1  0  0  0  0
 17 20  1  0  0  0  0
 17  9  1  0  0  0  0
 18  6  1  0  0  0  0
 18  3  1  0  0  0  0
 21 13  1  0  0  0  0
 23 24  1  0  0  0  0
 24 12  1  0  0  0  0
 25  5  1  0  0  0  0
 26 28  1  0  0  0  0
 27 26  2  0  0  0  0
 27 33  1  0  0  0  0
 28 25  1  0  0  0  0
 28 34  2  0  0  0  0
 29 32  1  0  0  0  0
 31 34  1  0  0  0  0
 32 30  2  0  0  0  0
 32 33  1  0  0  0  0
 33 31  2  0  0  0  0
 35 29  2  0  0  0  0
 35 27  1  0  0  0  0
 36 40  1  0  0  0  0
 37 39  1  0  0  0  0
 37 36  2  0  0  0  0
 38 40  1  0  0  0  0
 39 38  2  0  0  0  0
 40 26  1  0  0  0  0
M  END
>  <MODEL>
2

>  <REMARK>
 VINA RESULT:      -9.0      1.692      2.876
  Name = 
  4 active torsions:
  status: ('A' for Active; 'I' for Inactive)
    1  A    between atoms: C_3  and  C_34
    2  A    between atoms: C_8  and  O_16
    3  A    between atoms: C_12  and  O_16
    4  A    between atoms: C_20  and  O_22
                            x       y       z     vdW  Elec       q    Type
                         _______ _______ _______ _____ _____    ______ ____

>  <TORSDO>
F 4

$$$$
=
 OpenBabel11062419313D

 40 47  0  0  1  0  0  0  0  0999 V2000
  197.3070  174.5020  141.9130 C   0  0  0  0  0  3  0  0  0  0  0  0
  190.8710  174.7520  144.6790 C   0  0  0  0  0  1  0  0  0  0  0  0
  192.8060  176.2850  144.0890 C   0  0  1  0  0  3  0  0  0  0  0  0
  194.9860  175.9820  142.9690 C   0  0  0  0  0  2  0  0  0  0  0  0
  191.3430  175.9360  143.8250 C   0  0  1  0  0  0  0  0  0  0  0  0
  192.7940  175.2710  141.9200 C   0  0  0  0  0  2  0  0  0  0  0  0
  195.8410  176.0260  144.2610 C   0  0  1  0  0  3  0  0  0  0  0  0
  195.0340  175.6400  145.4780 C   0  0  2  0  0  3  0  0  0  0  0  0
  195.4860  174.6130  146.1050 N   0  0  0  0  0  2  0  0  0  0  0  0
  197.5790  172.7880  143.8340 C   0  0  1  0  0  3  0  0  0  0  0  0
  196.8770  174.9380  144.3260 C   0  0  2  0  0  3  0  0  0  0  0  0
  197.3290  173.5390  140.9770 C   0  0  0  0  0  0  0  0  0  0  0  0
  197.1160  171.8010  142.7980 C   0  0  0  0  0  0  0  0  0  0  0  0
  193.3950  176.3020  145.8320 S   0  0  0  0  0  0  0  0  0  0  0  0
  197.3470  174.1750  143.3460 C   0  0  2  0  0  3  0  0  0  0  0  0
  191.3570  175.5730  142.3280 C   0  0  1  0  0  3  0  0  0  0  0  0
  196.7580  174.1900  145.5890 C   0  0  2  0  0  3  0  0  0  0  0  0
  193.6060  175.3740  143.1890 C   0  0  2  0  0  3  0  0  0  0  0  0
  190.5190  174.4980  142.0140 O   0  0  0  0  0  1  0  0  0  0  0  0
  196.7600  172.7400  145.1280 C   0  0  0  0  0  2  0  0  0  0  0  0
  197.3930  172.0730  141.3420 C   0  0  0  0  0  2  0  0  0  0  0  0
  196.6280  170.7320  143.1280 O   0  0  0  0  0  0  0  0  0  0  0  0
  197.1580  175.1950  139.1360 C   0  0  0  0  0  1  0  0  0  0  0  0
  197.3000  173.8640  139.6160 O   0  0  0  0  0  0  0  0  0  0  0  0
  190.4980  177.0830  143.9820 O   0  0  0  0  0  0  0  0  0  0  0  0
  188.0860  177.2090  144.3730 C   0  0  0  0  0  0  0  0  0  0  0  0
  187.0490  177.3570  145.3100 C   0  0  0  0  0  0  0  0  0  0  0  0
  189.4220  177.2440  144.8740 C   0  0  0  0  0  0  0  0  0  0  0  0
  185.0280  177.5360  146.1920 N   0  0  0  0  0  0  0  0  0  0  0  0
  185.7250  177.8150  148.4500 O   0  0  0  0  0  0  0  0  0  0  0  0
  188.5870  177.5630  147.1670 C   0  0  0  0  0  3  0  0  0  0  0  0
  185.9950  177.6440  147.2320 C   0  0  0  0  0  0  0  0  0  0  0  0
  187.3050  177.5270  146.6440 C   0  0  0  0  0  0  0  0  0  0  0  0
  189.6470  177.4170  146.2630 C   0  0  0  0  0  3  0  0  0  0  0  0
  185.6360  177.3700  145.0820 N   0  0  0  0  0  0  0  0  0  0  0  0
  187.6540  175.8760  142.3640 N   0  0  0  0  0  0  0  0  0  0  0  0
  187.3760  176.0620  140.9500 C   0  0  0  0  0  3  0  0  0  0  0  0
  187.6220  178.1080  141.9600 C   0  0  0  0  0  3  0  0  0  0  0  0
  187.3760  177.5460  140.7880 C   0  0  0  0  0  3  0  0  0  0  0  0
  187.7910  177.0310  142.9240 C   0  0  2  0  0  3  0  0  0  0  0  0
  1 15  1  0  0  0  0
  3 14  1  1  0  0  0
  4 18  1  0  0  0  0
  5 25  1  0  0  0  0
  5  3  1  0  0  0  0
  5  2  1  1  0  0  0
  6 16  1  0  0  0  0
  6 18  1  0  0  0  0
  7  4  1  6  0  0  0
  7 11  1  0  0  0  0
  7  8  1  0  0  0  0
  8 14  1  6  0  0  0
  8  9  1  0  0  0  0
 10 20  1  1  0  0  0
 11 17  1  0  0  0  0
 12 21  1  0  0  0  0
 12  1  2  0  0  0  0
 13 22  2  0  0  0  0
 13 10  1  0  0  0  0
 15 10  1  0  0  0  0
 15 11  1  0  0  0  0
 16  5  1  0  0  0  0
 17  9  1  0  0  0  0
 18  3  1  0  0  0  0
 19 16  1  0  0  0  0
 20 17  1  0  0  0  0
 21 13  1  0  0  0  0
 23 24  1  0  0  0  0
 24 12  1  0  0  0  0
 25 28  1  0  0  0  0
 26 28  2  0  0  0  0
 26 27  1  0  0  0  0
 27 33  2  0  0  0  0
 28 34  1  0  0  0  0
 29 32  1  0  0  0  0
 32 30  2  0  0  0  0
 33 31  1  0  0  0  0
 33 32  1  0  0  0  0
 34 31  2  0  0  0  0
 35 27  1  0  0  0  0
 35 29  2  0  0  0  0
 36 40  1  0  0  0  0
 37 36  2  0  0  0  0
 38 40  1  0  0  0  0
 39 37  1  0  0  0  0
 39 38  2  0  0  0  0
 40 26  1  0  0  0  0
M  END
>  <MODEL>
3

>  <REMARK>
 VINA RESULT:      -8.7      2.584      4.333
  Name = 
  4 active torsions:
  status: ('A' for Active; 'I' for Inactive)
    1  A    between atoms: C_3  and  C_34
    2  A    between atoms: C_8  and  O_16
    3  A    between atoms: C_12  and  O_16
    4  A    between atoms: C_20  and  O_22
                            x       y       z     vdW  Elec       q    Type
                         _______ _______ _______ _____ _____    ______ ____

>  <TORSDO>
F 4

$$$$
=
 OpenBabel11062419313D

 40 47  0  0  1  0  0  0  0  0999 V2000
  196.0700  172.5570  143.7100 C   0  0  0  0  0  3  0  0  0  0  0  0
  190.7110  177.0240  144.3880 C   0  0  0  0  0  1  0  0  0  0  0  0
  191.1760  174.6110  143.7520 C   0  0  1  0  0  3  0  0  0  0  0  0
  193.1890  173.1810  143.7110 C   0  0  0  0  0  2  0  0  0  0  0  0
  190.4760  175.5480  144.7350 C   0  0  1  0  0  0  0  0  0  0  0  0
  192.4480  174.4470  145.7740 C   0  0  0  0  0  2  0  0  0  0  0  0
  193.3900  173.2270  142.1750 C   0  0  1  0  0  3  0  0  0  0  0  0
  192.7580  174.4560  141.5650 C   0  0  2  0  0  3  0  0  0  0  0  0
  193.5850  175.2200  140.9470 N   0  0  0  0  0  2  0  0  0  0  0  0
  196.8770  174.4640  142.1540 C   0  0  1  0  0  3  0  0  0  0  0  0
  194.8150  173.4840  141.7690 C   0  0  2  0  0  3  0  0  0  0  0  0
  196.9900  172.8540  144.6420 C   0  0  0  0  0  0  0  0  0  0  0  0
  197.5070  174.9990  143.4100 C   0  0  0  0  0  0  0  0  0  0  0  0
  191.0890  175.0100  141.9580 S   0  0  0  0  0  0  0  0  0  0  0  0
  195.9210  173.3750  142.4960 C   0  0  2  0  0  3  0  0  0  0  0  0
  191.1430  175.1770  146.0730 C   0  0  1  0  0  3  0  0  0  0  0  0
  194.8870  174.6230  140.8380 C   0  0  2  0  0  3  0  0  0  0  0  0
  192.5860  174.4640  144.2710 C   0  0  2  0  0  3  0  0  0  0  0  0
  191.3750  176.2830  146.8980 O   0  0  0  0  0  1  0  0  0  0  0  0
  195.9890  175.4850  141.4370 C   0  0  0  0  0  2  0  0  0  0  0  0
  197.9170  174.0400  144.4980 C   0  0  0  0  0  2  0  0  0  0  0  0
  197.7980  176.1810  143.5090 O   0  0  0  0  0  0  0  0  0  0  0  0
  197.1270  170.6420  145.7570 C   0  0  0  0  0  1  0  0  0  0  0  0
  197.1280  172.0640  145.7880 O   0  0  0  0  0  0  0  0  0  0  0  0
  189.0820  175.2360  144.8470 O   0  0  0  0  0  0  0  0  0  0  0  0
  187.2030  176.7810  144.5820 C   0  0  0  0  0  0  0  0  0  0  0  0
  186.1960  177.5320  145.2120 C   0  0  0  0  0  0  0  0  0  0  0  0
  188.0680  176.0210  145.4260 C   0  0  0  0  0  0  0  0  0  0  0  0
  184.4810  178.8940  145.5280 N   0  0  0  0  0  0  0  0  0  0  0  0
  184.4270  178.7410  147.9020 O   0  0  0  0  0  0  0  0  0  0  0  0
  186.8670  176.8120  147.4240 C   0  0  0  0  0  3  0  0  0  0  0  0
  184.9330  178.4230  146.7940 C   0  0  0  0  0  0  0  0  0  0  0  0
  186.0490  177.5380  146.5730 C   0  0  0  0  0  0  0  0  0  0  0  0
  187.8810  176.0490  146.8320 C   0  0  0  0  0  3  0  0  0  0  0  0
  185.2110  178.3810  144.6140 N   0  0  0  0  0  0  0  0  0  0  0  0
  187.0710  175.7760  142.3530 N   0  0  0  0  0  0  0  0  0  0  0  0
  187.3330  176.1220  140.9650 C   0  0  0  0  0  3  0  0  0  0  0  0
  187.8300  177.9140  142.3100 C   0  0  0  0  0  3  0  0  0  0  0  0
  187.8220  177.5300  141.0440 C   0  0  0  0  0  3  0  0  0  0  0  0
  187.3530  176.7890  143.1010 C   0  0  2  0  0  3  0  0  0  0  0  0
  1 12  2  0  0  0  0
  3 14  1  6  0  0  0
  3 18  1  0  0  0  0
  3  5  1  0  0  0  0
  4 18  1  0  0  0  0
  5  2  1  6  0  0  0
  5 25  1  0  0  0  0
  5 16  1  0  0  0  0
  6 16  1  0  0  0  0
  7  4  1  1  0  0  0
  8  9  1  1  0  0  0
  8 14  1  0  0  0  0
  8  7  1  0  0  0  0
 10 20  1  1  0  0  0
 10 15  1  0  0  0  0
 10 13  1  0  0  0  0
 11  7  1  0  0  0  0
 11 15  1  0  0  0  0
 12 24  1  0  0  0  0
 13 22  2  0  0  0  0
 13 21  1  0  0  0  0
 15  1  1  0  0  0  0
 16 19  1  0  0  0  0
 17  9  1  0  0  0  0
 17 20  1  0  0  0  0
 17 11  1  0  0  0  0
 18  6  1  0  0  0  0
 21 12  1  0  0  0  0
 23 24  1  0  0  0  0
 25 28  1  0  0  0  0
 26 27  2  0  0  0  0
 26 28  1  0  0  0  0
 27 33  1  0  0  0  0
 28 34  2  0  0  0  0
 29 32  1  0  0  0  0
 32 30  2  0  0  0  0
 33 32  1  0  0  0  0
 33 31  2  0  0  0  0
 34 31  1  0  0  0  0
 35 27  1  0  0  0  0
 35 29  2  0  0  0  0
 36 40  1  0  0  0  0
 37 39  1  0  0  0  0
 37 36  2  0  0  0  0
 38 40  1  0  0  0  0
 39 38  2  0  0  0  0
 40 26  1  0  0  0  0
M  END
>  <MODEL>
4

>  <REMARK>
 VINA RESULT:      -8.5      2.491      4.276
  Name = 
  4 active torsions:
  status: ('A' for Active; 'I' for Inactive)
    1  A    between atoms: C_3  and  C_34
    2  A    between atoms: C_8  and  O_16
    3  A    between atoms: C_12  and  O_16
    4  A    between atoms: C_20  and  O_22
                            x       y       z     vdW  Elec       q    Type
                         _______ _______ _______ _____ _____    ______ ____

>  <TORSDO>
F 4

$$$$
=
 OpenBabel11062419313D

 40 47  0  0  1  0  0  0  0  0999 V2000
  193.5640  170.6240  142.8580 C   0  0  0  0  0  3  0  0  0  0  0  0
  191.2700  175.9150  146.8410 C   0  0  0  0  0  1  0  0  0  0  0  0
  191.6650  175.3330  144.4020 C   0  0  1  0  0  3  0  0  0  0  0  0
  192.3770  173.3010  143.1930 C   0  0  0  0  0  2  0  0  0  0  0  0
  190.6310  175.7140  145.4600 C   0  0  1  0  0  0  0  0  0  0  0  0
  190.4230  173.3260  144.8020 C   0  0  0  0  0  2  0  0  0  0  0  0
  193.8280  173.7720  142.9220 C   0  0  1  0  0  3  0  0  0  0  0  0
  194.2740  174.8110  143.9240 C   0  0  2  0  0  3  0  0  0  0  0  0
  195.3060  174.4700  144.6110 N   0  0  0  0  0  2  0  0  0  0  0  0
  195.5900  170.8980  144.4480 C   0  0  1  0  0  3  0  0  0  0  0  0
  194.8610  172.7190  143.2180 C   0  0  2  0  0  3  0  0  0  0  0  0
  193.1980  169.4680  143.4350 C   0  0  0  0  0  0  0  0  0  0  0  0
  194.8450  169.9080  145.3000 C   0  0  0  0  0  0  0  0  0  0  0  0
  193.2700  176.2330  144.3910 S   0  0  0  0  0  0  0  0  0  0  0  0
  194.6950  171.4110  143.3740 C   0  0  2  0  0  3  0  0  0  0  0  0
  189.6910  174.4940  145.4540 C   0  0  1  0  0  3  0  0  0  0  0  0
  195.8900  173.2490  144.1290 C   0  0  2  0  0  3  0  0  0  0  0  0
  191.8130  173.8340  144.5040 C   0  0  2  0  0  3  0  0  0  0  0  0
  189.2370  174.1410  146.7290 O   0  0  0  0  0  1  0  0  0  0  0  0
  195.9850  172.1730  145.2000 C   0  0  0  0  0  2  0  0  0  0  0  0
  193.9210  168.9160  144.6440 C   0  0  0  0  0  2  0  0  0  0  0  0
  195.0700  169.8210  146.4970 O   0  0  0  0  0  0  0  0  0  0  0  0
  191.2720  169.1940  141.8950 C   0  0  0  0  0  1  0  0  0  0  0  0
  192.1260  168.7240  142.9290 O   0  0  0  0  0  0  0  0  0  0  0  0
  189.8630  176.8520  145.0510 O   0  0  0  0  0  0  0  0  0  0  0  0
  187.5140  177.3900  144.6270 C   0  0  0  0  0  0  0  0  0  0  0  0
  186.2790  177.7860  145.1680 C   0  0  0  0  0  0  0  0  0  0  0  0
  188.6080  177.2630  145.5350 C   0  0  0  0  0  0  0  0  0  0  0  0
  184.1490  178.3620  145.3340 N   0  0  0  0  0  0  0  0  0  0  0  0
  184.1380  178.7410  147.6830 O   0  0  0  0  0  0  0  0  0  0  0  0
  187.1650  177.9250  147.4160 C   0  0  0  0  0  3  0  0  0  0  0  0
  184.7420  178.4160  146.6280 C   0  0  0  0  0  0  0  0  0  0  0  0
  186.1280  178.0400  146.5050 C   0  0  0  0  0  0  0  0  0  0  0  0
  188.4110  177.5290  146.9140 C   0  0  0  0  0  3  0  0  0  0  0  0
  185.0360  177.9990  144.4910 N   0  0  0  0  0  0  0  0  0  0  0  0
  187.7080  178.0560  142.2780 N   0  0  0  0  0  0  0  0  0  0  0  0
  187.8550  177.4520  140.9650 C   0  0  0  0  0  3  0  0  0  0  0  0
  187.7720  175.8060  142.5620 C   0  0  0  0  0  3  0  0  0  0  0  0
  187.8860  175.9880  141.2570 C   0  0  0  0  0  3  0  0  0  0  0  0
  187.6630  177.1240  143.1700 C   0  0  2  0  0  3  0  0  0  0  0  0
  1 15  1  0  0  0  0
  1 12  2  0  0  0  0
  3 14  1  1  0  0  0
  3 18  1  0  0  0  0
  3  5  1  0  0  0  0
  4 18  1  0  0  0  0
  5  2  1  1  0  0  0
  6 16  1  0  0  0  0
  7  4  1  1  0  0  0
  7 11  1  0  0  0  0
  7  8  1  0  0  0  0
  8 14  1  1  0  0  0
  8  9  1  0  0  0  0
 10 20  1  1  0  0  0
 10 13  1  0  0  0  0
 11 15  1  0  0  0  0
 11 17  1  0  0  0  0
 12 21  1  0  0  0  0
 13 22  2  0  0  0  0
 15 10  1  0  0  0  0
 16  5  1  0  0  0  0
 16 19  1  0  0  0  0
 17  9  1  0  0  0  0
 17 20  1  0  0  0  0
 18  6  1  0  0  0  0
 21 13  1  0  0  0  0
 23 24  1  0  0  0  0
 24 12  1  0  0  0  0
 25  5  1  0  0  0  0
 25 28  1  0  0  0  0
 26 27  2  0  0  0  0
 26 28  1  0  0  0  0
 27 33  1  0  0  0  0
 28 34  2  0  0  0  0
 29 32  1  0  0  0  0
 32 30  2  0  0  0  0
 33 32  1  0  0  0  0
 33 31  2  0  0  0  0
 34 31  1  0  0  0  0
 35 27  1  0  0  0  0
 35 29  2  0  0  0  0
 36 40  1  0  0  0  0
 37 39  1  0  0  0  0
 37 36  2  0  0  0  0
 38 40  1  0  0  0  0
 39 38  2  0  0  0  0
 40 26  1  0  0  0  0
M  END
>  <MODEL>
5

>  <REMARK>
 VINA RESULT:      -8.4      1.533      2.998
  Name = 
  4 active torsions:
  status: ('A' for Active; 'I' for Inactive)
    1  A    between atoms: C_3  and  C_34
    2  A    between atoms: C_8  and  O_16
    3  A    between atoms: C_12  and  O_16
    4  A    between atoms: C_20  and  O_22
                            x       y       z     vdW  Elec       q    Type
                         _______ _______ _______ _____ _____    ______ ____

>  <TORSDO>
F 4

$$$$
=
 OpenBabel11062419313D

 40 47  0  0  1  0  0  0  0  0999 V2000
  195.9490  176.3740  142.5570 C   0  0  0  0  0  3  0  0  0  0  0  0
  189.9730  173.1800  144.3470 C   0  0  0  0  0  1  0  0  0  0  0  0
  190.9220  175.5110  144.0230 C   0  0  1  0  0  3  0  0  0  0  0  0
  193.0820  176.4160  143.2390 C   0  0  0  0  0  2  0  0  0  0  0  0
  189.8880  174.4890  143.5530 C   0  0  1  0  0  0  0  0  0  0  0  0
  191.7160  174.7640  141.8920 C   0  0  0  0  0  2  0  0  0  0  0  0
  193.6140  176.8050  144.6410 C   0  0  1  0  0  3  0  0  0  0  0  0
  192.9600  175.9920  145.7330 C   0  0  2  0  0  3  0  0  0  0  0  0
  193.7820  175.2970  146.4350 N   0  0  0  0  0  2  0  0  0  0  0  0
  196.7930  174.9160  144.5240 C   0  0  1  0  0  3  0  0  0  0  0  0
  195.0390  176.3860  144.8750 C   0  0  2  0  0  3  0  0  0  0  0  0
  196.5820  175.6130  141.6490 C   0  0  0  0  0  0  0  0  0  0  0  0
  197.0380  173.8960  143.4460 C   0  0  0  0  0  0  0  0  0  0  0  0
  191.1810  175.7160  145.8330 S   0  0  0  0  0  0  0  0  0  0  0  0
  195.9570  176.0250  143.9860 C   0  0  2  0  0  3  0  0  0  0  0  0
  190.2850  174.2750  142.0800 C   0  0  1  0  0  3  0  0  0  0  0  0
  195.1490  175.6040  146.1180 C   0  0  2  0  0  3  0  0  0  0  0  0
  192.1850  175.1840  143.2640 C   0  0  2  0  0  3  0  0  0  0  0  0
  190.1580  172.9460  141.6630 O   0  0  0  0  0  1  0  0  0  0  0  0
  195.9470  174.3840  145.6840 C   0  0  0  0  0  2  0  0  0  0  0  0
  197.3310  174.3590  142.0430 C   0  0  0  0  0  2  0  0  0  0  0  0
  197.1200  172.7080  143.7170 O   0  0  0  0  0  0  0  0  0  0  0  0
  196.6550  175.0040  139.2450 C   0  0  0  0  0  1  0  0  0  0  0  0
  196.5750  175.9600  140.2940 O   0  0  0  0  0  0  0  0  0  0  0  0
  188.5660  175.0430  143.5670 O   0  0  0  0  0  0  0  0  0  0  0  0
  187.2140  177.0100  144.1030 C   0  0  0  0  0  0  0  0  0  0  0  0
  186.6590  177.8230  145.1070 C   0  0  0  0  0  0  0  0  0  0  0  0
  188.0020  175.9010  144.5300 C   0  0  0  0  0  0  0  0  0  0  0  0
  185.5490  179.4510  146.1140 N   0  0  0  0  0  0  0  0  0  0  0  0
  186.0460  178.7960  148.3470 O   0  0  0  0  0  0  0  0  0  0  0  0
  187.6210  176.4950  146.8880 C   0  0  0  0  0  3  0  0  0  0  0  0
  186.1450  178.6180  147.1050 C   0  0  0  0  0  0  0  0  0  0  0  0
  186.8640  177.5640  146.4350 C   0  0  0  0  0  0  0  0  0  0  0  0
  188.1880  175.6620  145.9160 C   0  0  0  0  0  3  0  0  0  0  0  0
  185.8460  178.9920  144.9600 N   0  0  0  0  0  0  0  0  0  0  0  0
  185.8380  177.1860  142.0850 N   0  0  0  0  0  0  0  0  0  0  0  0
  185.9670  177.5550  140.6850 C   0  0  0  0  0  3  0  0  0  0  0  0
  188.0020  177.7670  141.7260 C   0  0  0  0  0  3  0  0  0  0  0  0
  187.4100  177.9150  140.5520 C   0  0  0  0  0  3  0  0  0  0  0  0
  186.9850  177.3090  142.6620 C   0  0  2  0  0  3  0  0  0  0  0  0
  1 15  1  0  0  0  0
  3 14  1  1  0  0  0
  4 18  1  0  0  0  0
  5 25  1  0  0  0  0
  5  3  1  0  0  0  0
  5  2  1  1  0  0  0
  6 16  1  0  0  0  0
  6 18  1  0  0  0  0
  7  4  1  6  0  0  0
  7 11  1  0  0  0  0
  7  8  1  0  0  0  0
  8 14  1  6  0  0  0
  8  9  1  0  0  0  0
 10 20  1  1  0  0  0
 11 17  1  0  0  0  0
 12 21  1  0  0  0  0
 12  1  2  0  0  0  0
 13 22  2  0  0  0  0
 13 10  1  0  0  0  0
 15 10  1  0  0  0  0
 15 11  1  0  0  0  0
 16  5  1  0  0  0  0
 17  9  1  0  0  0  0
 18  3  1  0  0  0  0
 19 16  1  0  0  0  0
 20 17  1  0  0  0  0
 21 13  1  0  0  0  0
 23 24  1  0  0  0  0
 24 12  1  0  0  0  0
 25 28  1  0  0  0  0
 26 28  2  0  0  0  0
 26 27  1  0  0  0  0
 27 33  2  0  0  0  0
 28 34  1  0  0  0  0
 29 32  1  0  0  0  0
 32 30  2  0  0  0  0
 33 31  1  0  0  0  0
 33 32  1  0  0  0  0
 34 31  2  0  0  0  0
 35 27  1  0  0  0  0
 35 29  2  0  0  0  0
 36 40  1  0  0  0  0
 37 36  2  0  0  0  0
 38 40  1  0  0  0  0
 39 37  1  0  0  0  0
 39 38  2  0  0  0  0
 40 26  1  0  0  0  0
M  END
>  <MODEL>
6

>  <REMARK>
 VINA RESULT:      -8.2      2.579      4.544
  Name = 
  4 active torsions:
  status: ('A' for Active; 'I' for Inactive)
    1  A    between atoms: C_3  and  C_34
    2  A    between atoms: C_8  and  O_16
    3  A    between atoms: C_12  and  O_16
    4  A    between atoms: C_20  and  O_22
                            x       y       z     vdW  Elec       q    Type
                         _______ _______ _______ _____ _____    ______ ____

>  <TORSDO>
F 4

$$$$
=
 OpenBabel11062419313D

 40 47  0  0  1  0  0  0  0  0999 V2000
  195.2880  171.7090  143.7350 C   0  0  0  0  0  3  0  0  0  0  0  0
  190.8210  176.7480  145.6800 C   0  0  0  0  0  1  0  0  0  0  0  0
  191.2440  175.1460  143.7570 C   0  0  1  0  0  3  0  0  0  0  0  0
  192.8500  173.3170  143.3390 C   0  0  0  0  0  2  0  0  0  0  0  0
  190.2780  175.5700  144.8610 C   0  0  1  0  0  0  0  0  0  0  0  0
  191.3720  173.4030  145.3930 C   0  0  0  0  0  2  0  0  0  0  0  0
  193.7610  174.1170  142.3740 C   0  0  1  0  0  3  0  0  0  0  0  0
  193.6450  175.6060  142.6010 C   0  0  2  0  0  3  0  0  0  0  0  0
  194.7500  176.1760  142.9250 N   0  0  0  0  0  2  0  0  0  0  0  0
  196.9570  173.6400  144.1760 C   0  0  1  0  0  3  0  0  0  0  0  0
  195.2260  173.9600  142.6710 C   0  0  2  0  0  3  0  0  0  0  0  0
  195.6830  171.0450  144.8340 C   0  0  0  0  0  0  0  0  0  0  0  0
  196.9720  173.0880  145.5740 C   0  0  0  0  0  0  0  0  0  0  0  0
  192.0680  176.4620  142.7700 S   0  0  0  0  0  0  0  0  0  0  0  0
  195.8320  173.0370  143.4090 C   0  0  2  0  0  3  0  0  0  0  0  0
  190.1790  174.2940  145.7190 C   0  0  1  0  0  3  0  0  0  0  0  0
  195.8660  175.2790  142.8170 C   0  0  2  0  0  3  0  0  0  0  0  0
  192.2100  174.1890  144.4130 C   0  0  2  0  0  3  0  0  0  0  0  0
  190.1190  174.5560  147.0910 O   0  0  0  0  0  1  0  0  0  0  0  0
  196.6440  175.1390  144.1180 C   0  0  0  0  0  2  0  0  0  0  0  0
  196.6990  171.6220  145.7930 C   0  0  0  0  0  2  0  0  0  0  0  0
  197.3180  173.7820  146.5170 O   0  0  0  0  0  0  0  0  0  0  0  0
  194.5890  169.4470  146.3850 C   0  0  0  0  0  1  0  0  0  0  0  0
  195.1650  169.7790  145.1280 O   0  0  0  0  0  0  0  0  0  0  0  0
  188.9720  175.8370  144.3350 O   0  0  0  0  0  0  0  0  0  0  0  0
  186.9640  177.2280  144.2010 C   0  0  0  0  0  0  0  0  0  0  0  0
  185.9010  177.8360  144.8920 C   0  0  0  0  0  0  0  0  0  0  0  0
  187.8990  176.4820  144.9780 C   0  0  0  0  0  0  0  0  0  0  0  0
  184.0780  179.0140  145.3220 N   0  0  0  0  0  0  0  0  0  0  0  0
  184.0600  178.6650  147.6750 O   0  0  0  0  0  0  0  0  0  0  0  0
  186.6540  177.0020  147.0360 C   0  0  0  0  0  3  0  0  0  0  0  0
  184.5810  178.4830  146.5440 C   0  0  0  0  0  0  0  0  0  0  0  0
  185.7670  177.7200  146.2490 C   0  0  0  0  0  0  0  0  0  0  0  0
  187.7240  176.3800  146.3810 C   0  0  0  0  0  3  0  0  0  0  0  0
  184.8400  178.6410  144.3680 N   0  0  0  0  0  0  0  0  0  0  0  0
  186.3100  176.7910  141.8810 N   0  0  0  0  0  0  0  0  0  0  0  0
  186.7210  177.1370  140.5310 C   0  0  0  0  0  3  0  0  0  0  0  0
  188.1130  178.1580  142.0430 C   0  0  0  0  0  3  0  0  0  0  0  0
  187.9000  178.0270  140.7440 C   0  0  0  0  0  3  0  0  0  0  0  0
  187.0980  177.3690  142.7250 C   0  0  2  0  0  3  0  0  0  0  0  0
  1 12  2  0  0  0  0
  3 14  1  1  0  0  0
  3 18  1  0  0  0  0
  3  5  1  0  0  0  0
  4 18  1  0  0  0  0
  5  2  1  1  0  0  0
  5 16  1  0  0  0  0
  6 16  1  0  0  0  0
  7  8  1  0  0  0  0
  7 11  1  0  0  0  0
  7  4  1  1  0  0  0
  8 14  1  1  0  0  0
  8  9  1  0  0  0  0
 10 20  1  1  0  0  0
 10 13  1  0  0  0  0
 11 17  1  0  0  0  0
 11 15  1  0  0  0  0
 12 24  1  0  0  0  0
 12 21  1  0  0  0  0
 13 21  1  0  0  0  0
 13 22  2  0  0  0  0
 15  1  1  0  0  0  0
 15 10  1  0  0  0  0
 16 19  1  0  0  0  0
 17  9  1  0  0  0  0
 17 20  1  0  0  0  0
 18  6  1  0  0  0  0
 24 23  1  0  0  0  0
 25  5  1  0  0  0  0
 25 28  1  0  0  0  0
 26 27  2  0  0  0  0
 26 28  1  0  0  0  0
 27 33  1  0  0  0  0
 28 34  2  0  0  0  0
 29 32  1  0  0  0  0
 32 30  2  0  0  0  0
 33 32  1  0  0  0  0
 33 31  2  0  0  0  0
 34 31  1  0  0  0  0
 35 27  1  0  0  0  0
 35 29  2  0  0  0  0
 36 40  1  0  0  0  0
 37 39  1  0  0  0  0
 37 36  2  0  0  0  0
 38 40  1  0  0  0  0
 39 38  2  0  0  0  0
 40 26  1  0  0  0  0
M  END
>  <MODEL>
7

>  <REMARK>
 VINA RESULT:      -8.1      1.934      3.516
  Name = 
  4 active torsions:
  status: ('A' for Active; 'I' for Inactive)
    1  A    between atoms: C_3  and  C_34
    2  A    between atoms: C_8  and  O_16
    3  A    between atoms: C_12  and  O_16
    4  A    between atoms: C_20  and  O_22
                            x       y       z     vdW  Elec       q    Type
                         _______ _______ _______ _____ _____    ______ ____

>  <TORSDO>
F 4

$$$$
=
 OpenBabel11062419313D

 40 47  0  0  1  0  0  0  0  0999 V2000
  195.6120  174.9720  142.4210 C   0  0  0  0  0  3  0  0  0  0  0  0
  189.1230  175.2060  145.0600 C   0  0  0  0  0  1  0  0  0  0  0  0
  190.9990  176.7590  144.3430 C   0  0  1  0  0  3  0  0  0  0  0  0
  193.2090  176.4430  143.2900 C   0  0  0  0  0  2  0  0  0  0  0  0
  189.5570  176.3180  144.0970 C   0  0  1  0  0  0  0  0  0  0  0  0
  191.0710  175.5320  142.2890 C   0  0  0  0  0  2  0  0  0  0  0  0
  194.0380  176.6570  144.5820 C   0  0  1  0  0  3  0  0  0  0  0  0
  193.2270  176.3590  145.8220 C   0  0  2  0  0  3  0  0  0  0  0  0
  193.7130  175.4230  146.5550 N   0  0  0  0  0  2  0  0  0  0  0  0
  195.9240  173.4750  144.5110 C   0  0  1  0  0  3  0  0  0  0  0  0
  195.1200  175.6300  144.7720 C   0  0  2  0  0  3  0  0  0  0  0  0
  195.6940  173.9220  141.5890 C   0  0  0  0  0  0  0  0  0  0  0  0
  195.5250  172.3680  143.5740 C   0  0  0  0  0  0  0  0  0  0  0  0
  191.5550  176.9780  146.0840 S   0  0  0  0  0  0  0  0  0  0  0  0
  195.6400  174.7940  143.8810 C   0  0  2  0  0  3  0  0  0  0  0  0
  189.6140  175.8070  142.6440 C   0  0  1  0  0  3  0  0  0  0  0  0
  195.0110  175.0080  146.1030 C   0  0  2  0  0  3  0  0  0  0  0  0
  191.8540  175.7990  143.5520 C   0  0  2  0  0  3  0  0  0  0  0  0
  188.8300  174.6690  142.4300 O   0  0  0  0  0  1  0  0  0  0  0  0
  195.0860  173.5200  145.7920 C   0  0  0  0  0  2  0  0  0  0  0  0
  195.8150  172.5050  142.1020 C   0  0  0  0  0  2  0  0  0  0  0  0
  195.0770  171.3170  144.0040 O   0  0  0  0  0  0  0  0  0  0  0  0
  196.7660  174.6570  139.4750 C   0  0  0  0  0  1  0  0  0  0  0  0
  195.6750  174.1060  140.2020 O   0  0  0  0  0  0  0  0  0  0  0  0
  188.6600  177.4360  144.1250 O   0  0  0  0  0  0  0  0  0  0  0  0
  186.2690  177.9340  143.9830 C   0  0  0  0  0  0  0  0  0  0  0  0
  185.1550  178.1420  143.1520 C   0  0  0  0  0  0  0  0  0  0  0  0
  187.5080  177.6360  143.3420 C   0  0  0  0  0  0  0  0  0  0  0  0
  183.0870  178.5500  142.4770 N   0  0  0  0  0  0  0  0  0  0  0  0
  183.5060  178.3630  140.1420 O   0  0  0  0  0  0  0  0  0  0  0  0
  186.4360  177.7800  141.1310 C   0  0  0  0  0  3  0  0  0  0  0  0
  183.9090  178.3290  141.3340 C   0  0  0  0  0  0  0  0  0  0  0  0
  185.2500  178.0640  141.7890 C   0  0  0  0  0  0  0  0  0  0  0  0
  187.5690  177.5690  141.9270 C   0  0  0  0  0  3  0  0  0  0  0  0
  183.8060  178.4420  143.5270 N   0  0  0  0  0  0  0  0  0  0  0  0
  186.1200  176.9810  146.2350 N   0  0  0  0  0  0  0  0  0  0  0  0
  185.9910  177.4170  147.6150 C   0  0  0  0  0  2  0  0  0  0  0  0
  186.0390  179.2490  146.2330 C   0  0  0  0  0  3  0  0  0  0  0  0
  185.9460  178.9060  147.5070 C   0  0  0  0  0  3  0  0  0  0  0  0
  186.1460  178.0170  145.4650 C   0  0  0  0  0  0  0  0  0  0  0  0
  1 15  1  0  0  0  0
  3 14  1  1  0  0  0
  4 18  1  0  0  0  0
  5 25  1  0  0  0  0
  5  3  1  0  0  0  0
  5  2  1  1  0  0  0
  6 16  1  0  0  0  0
  6 18  1  0  0  0  0
  7  4  1  6  0  0  0
  7 11  1  0  0  0  0
  7  8  1  0  0  0  0
  8 14  1  6  0  0  0
  8  9  1  0  0  0  0
 10 20  1  1  0  0  0
 11 17  1  0  0  0  0
 12 21  1  0  0  0  0
 12  1  2  0  0  0  0
 13 22  2  0  0  0  0
 13 10  1  0  0  0  0
 15 10  1  0  0  0  0
 15 11  1  0  0  0  0
 16  5  1  0  0  0  0
 17  9  1  0  0  0  0
 18  3  1  0  0  0  0
 19 16  1  0  0  0  0
 20 17  1  0  0  0  0
 21 13  1  0  0  0  0
 23 24  1  0  0  0  0
 24 12  1  0  0  0  0
 26 40  1  0  0  0  0
 27 35  1  0  0  0  0
 27 26  2  0  0  0  0
 28 26  1  0  0  0  0
 28 25  1  0  0  0  0
 29 35  2  0  0  0  0
 30 32  2  0  0  0  0
 31 33  2  0  0  0  0
 31 34  1  0  0  0  0
 32 33  1  0  0  0  0
 32 29  1  0  0  0  0
 33 27  1  0  0  0  0
 34 28  2  0  0  0  0
 36 37  1  0  0  0  0
 38 39  2  0  0  0  0
 39 37  1  0  0  0  0
 40 38  1  0  0  0  0
 40 36  2  0  0  0  0
M  END
>  <MODEL>
8

>  <REMARK>
 VINA RESULT:      -8.1      2.014      2.816
  Name = 
  4 active torsions:
  status: ('A' for Active; 'I' for Inactive)
    1  A    between atoms: C_3  and  C_34
    2  A    between atoms: C_8  and  O_16
    3  A    between atoms: C_12  and  O_16
    4  A    between atoms: C_20  and  O_22
                            x       y       z     vdW  Elec       q    Type
                         _______ _______ _______ _____ _____    ______ ____

>  <TORSDO>
F 4

$$$$
=
 OpenBabel11062419313D

 40 47  0  0  1  0  0  0  0  0999 V2000
  192.6880  169.8120  144.2920 C   0  0  0  0  0  3  0  0  0  0  0  0
  192.9470  176.5070  142.2350 C   0  0  0  0  0  1  0  0  0  0  0  0
  191.3980  174.8860  143.4250 C   0  0  1  0  0  3  0  0  0  0  0  0
  191.5800  172.5410  144.1750 C   0  0  0  0  0  2  0  0  0  0  0  0
  192.2110  176.1750  143.5390 C   0  0  1  0  0  0  0  0  0  0  0  0
  193.2560  174.3220  144.8250 C   0  0  0  0  0  2  0  0  0  0  0  0
  190.7160  171.9390  143.0370 C   0  0  1  0  0  3  0  0  0  0  0  0
  190.7010  172.8280  141.8160 C   0  0  2  0  0  3  0  0  0  0  0  0
  191.1580  172.2690  140.7540 N   0  0  0  0  0  2  0  0  0  0  0  0
  193.1800  169.4860  141.7700 C   0  0  1  0  0  3  0  0  0  0  0  0
  191.3250  170.7130  142.4130 C   0  0  2  0  0  3  0  0  0  0  0  0
  193.9260  169.4270  144.6390 C   0  0  0  0  0  0  0  0  0  0  0  0
  194.6160  169.5460  142.2120 C   0  0  0  0  0  0  0  0  0  0  0  0
  190.4220  174.6070  141.8900 S   0  0  0  0  0  0  0  0  0  0  0  0
  192.2940  169.9350  142.8800 C   0  0  2  0  0  3  0  0  0  0  0  0
  193.2030  175.8380  144.6690 C   0  0  1  0  0  3  0  0  0  0  0  0
  191.4090  170.8690  140.9510 C   0  0  2  0  0  3  0  0  0  0  0  0
  192.3660  173.7710  143.7370 C   0  0  2  0  0  3  0  0  0  0  0  0
  194.4830  176.3570  144.4500 O   0  0  0  0  0  1  0  0  0  0  0  0
  192.8470  170.4740  140.6480 C   0  0  0  0  0  2  0  0  0  0  0  0
  194.9800  169.1030  143.6040 C   0  0  0  0  0  2  0  0  0  0  0  0
  195.5010  169.8350  141.4210 O   0  0  0  0  0  0  0  0  0  0  0  0
  195.5910  169.5950  146.4720 C   0  0  0  0  0  1  0  0  0  0  0  0
  194.2860  169.3040  145.9860 O   0  0  0  0  0  0  0  0  0  0  0  0
  191.3970  177.2640  143.9910 O   0  0  0  0  0  0  0  0  0  0  0  0
  189.3450  177.0070  145.2980 C   0  0  0  0  0  0  0  0  0  0  0  0
  187.9420  177.0940  145.3210 C   0  0  0  0  0  0  0  0  0  0  0  0
  189.9930  177.3180  144.0650 C   0  0  0  0  0  0  0  0  0  0  0  0
  185.8460  177.0160  146.0250 N   0  0  0  0  0  0  0  0  0  0  0  0
  184.8310  177.6740  143.9770 O   0  0  0  0  0  0  0  0  0  0  0  0
  187.8210  177.7710  143.0000 C   0  0  0  0  0  3  0  0  0  0  0  0
  185.8570  177.4140  144.6580 C   0  0  0  0  0  0  0  0  0  0  0  0
  187.2270  177.4600  144.2130 C   0  0  0  0  0  0  0  0  0  0  0  0
  189.2180  177.6980  142.9400 C   0  0  0  0  0  3  0  0  0  0  0  0
  187.0500  176.8300  146.4090 N   0  0  0  0  0  0  0  0  0  0  0  0
  190.6360  177.4460  147.3320 N   0  0  0  0  0  0  0  0  0  0  0  0
  191.3050  176.7180  148.3980 C   0  0  0  0  0  2  0  0  0  0  0  0
  190.3600  175.2300  146.9280 C   0  0  0  0  0  3  0  0  0  0  0  0
  191.0680  175.2870  148.0440 C   0  0  0  0  0  3  0  0  0  0  0  0
  190.1080  176.6020  146.5110 C   0  0  0  0  0  0  0  0  0  0  0  0
  1 12  2  0  0  0  0
  3 14  1  6  0  0  0
  3  5  1  0  0  0  0
  3 18  1  0  0  0  0
  5  2  1  6  0  0  0
  5 25  1  0  0  0  0
  5 16  1  0  0  0  0
  7  4  1  1  0  0  0
  8  9  1  1  0  0  0
  8 14  1  0  0  0  0
  8  7  1  0  0  0  0
  9 17  1  0  0  0  0
 10 20  1  6  0  0  0
 10 13  1  0  0  0  0
 10 15  1  0  0  0  0
 11 15  1  0  0  0  0
 11  7  1  0  0  0  0
 12 24  1  0  0  0  0
 13 21  1  0  0  0  0
 15  1  1  0  0  0  0
 16  6  1  0  0  0  0
 17 11  1  0  0  0  0
 18  4  1  0  0  0  0
 18  6  1  0  0  0  0
 19 16  1  0  0  0  0
 20 17  1  0  0  0  0
 21 12  1  0  0  0  0
 22 13  2  0  0  0  0
 24 23  1  0  0  0  0
 25 28  1  0  0  0  0
 26 27  1  0  0  0  0
 26 40  1  0  0  0  0
 27 35  1  0  0  0  0
 28 26  2  0  0  0  0
 29 35  2  0  0  0  0
 30 32  2  0  0  0  0
 31 33  1  0  0  0  0
 32 29  1  0  0  0  0
 33 32  1  0  0  0  0
 33 27  2  0  0  0  0
 34 31  2  0  0  0  0
 34 28  1  0  0  0  0
 36 37  1  0  0  0  0
 38 39  2  0  0  0  0
 39 37  1  0  0  0  0
 40 38  1  0  0  0  0
 40 36  2  0  0  0  0
M  END
>  <MODEL>
9

>  <REMARK>
 VINA RESULT:      -8.1      2.447      4.070
  Name = 
  4 active torsions:
  status: ('A' for Active; 'I' for Inactive)
    1  A    between atoms: C_3  and  C_34
    2  A    between atoms: C_8  and  O_16
    3  A    between atoms: C_12  and  O_16
    4  A    between atoms: C_20  and  O_22
                            x       y       z     vdW  Elec       q    Type
                         _______ _______ _______ _____ _____    ______ ____

>  <TORSDO>
F 4

$$$$
