=
 OpenBabel11062423123D

 28 31  0  0  1  0  0  0  0  0999 V2000
  188.5500  176.9770  146.5910 C   0  0  0  0  0  1  0  0  0  0  0  0
  186.3720  177.6090  143.5810 C   0  0  0  0  0  0  0  0  0  0  0  0
  186.0680  177.9480  148.1320 Cl  0  0  0  0  0  0  0  0  0  0  0  0
  186.1750  177.8200  146.3730 C   0  0  0  0  0  0  0  0  0  0  0  0
  185.0730  178.1750  145.5670 C   0  0  0  0  0  0  0  0  0  0  0  0
  186.8410  177.2160  140.0300 C   0  0  0  0  0  3  0  0  0  0  0  0
  184.1560  178.3120  142.0050 C   0  0  0  0  0  3  0  0  0  0  0  0
  187.3870  177.1250  141.3060 C   0  0  0  0  0  0  0  0  0  0  0  0
  183.8050  178.6620  146.1950 C   0  0  0  0  0  1  0  0  0  0  0  0
  185.3340  177.8610  141.4210 C   0  0  0  0  0  0  0  0  0  0  0  0
  187.4590  177.2610  144.3850 C   0  0  0  0  0  3  0  0  0  0  0  0
  185.5690  177.6830  140.1070 N   0  0  0  0  0  0  0  0  0  0  0  0
  186.4120  177.5230  142.1880 C   0  0  0  0  0  0  0  0  0  0  0  0
  184.1030  178.4060  143.3670 N   0  0  0  0  0  0  0  0  0  0  0  0
  185.1660  178.0700  144.1680 C   0  0  2  0  0  3  0  0  0  0  0  0
  187.3660  177.3630  145.7730 C   0  0  0  0  0  0  0  0  0  0  0  0
  188.6720  176.6010  141.6590 N   0  0  0  0  0  2  0  0  0  0  0  0
  190.7990  172.9840  144.2530 C   0  0  0  0  0  1  0  0  0  0  0  0
  189.1040  172.4230  142.5080 C   0  0  0  0  0  2  0  0  0  0  0  0
  189.6890  174.8320  142.9740 C   0  0  0  0  0  0  0  0  0  0  0  0
  188.9820  175.2190  141.8830 C   0  0  0  0  0  0  0  0  0  0  0  0
  188.6990  172.8960  141.1460 C   0  0  0  0  0  3  0  0  0  0  0  0
  188.2180  174.5810  139.5920 O   0  0  0  0  0  1  0  0  0  0  0  0
  188.6080  174.1960  140.8690 C   0  0  0  0  0  0  0  0  0  0  0  0
  189.9250  173.4270  143.1810 N   0  0  0  0  0  0  0  0  0  0  0  0
  190.2020  175.7300  143.9310 O   0  0  0  0  0  0  0  0  0  0  0  0
  191.0890  177.9570  143.9240 C   0  0  0  0  0  1  0  0  0  0  0  0
  191.4020  176.4820  143.8090 C   0  0  0  0  0  2  0  0  0  0  0  0
  2 15  1  0  0  0  0
  2 11  1  0  0  0  0
  4  3  1  0  0  0  0
  5  9  1  0  0  0  0
  5  4  2  0  0  0  0
  6 12  1  0  0  0  0
  6  8  2  0  0  0  0
  7 14  2  0  0  0  0
  8 17  1  0  0  0  0
  8 13  1  0  0  0  0
 10  7  1  0  0  0  0
 10 13  1  0  0  0  0
 11 16  2  0  0  0  0
 12 10  2  0  0  0  0
 13  2  2  0  0  0  0
 15 14  1  1  0  0  0
 15  5  1  0  0  0  0
 16  4  1  0  0  0  0
 16  1  1  0  0  0  0
 17 21  1  0  0  0  0
 19 25  1  0  0  0  0
 20 25  1  0  0  0  0
 20 26  1  0  0  0  0
 21 20  2  0  0  0  0
 22 19  1  0  0  0  0
 23 24  1  0  0  0  0
 24 22  2  0  0  0  0
 24 21  1  0  0  0  0
 25 18  1  0  0  0  0
 28 27  1  0  0  0  0
 28 26  1  0  0  0  0
M  END
>  <MODEL>
1

>  <REMARK>
 VINA RESULT:      -8.0      0.000      0.000
  Name = 
  4 active torsions:
  status: ('A' for Active; 'I' for Inactive)
    1  A    between atoms: C_9  and  N_23
    2  A    between atoms: O_14  and  C_17
    3  A    between atoms: O_14  and  C_27
    4  A    between atoms: C_19  and  N_23
                            x       y       z     vdW  Elec       q    Type
                         _______ _______ _______ _____ _____    ______ ____

>  <TORSDO>
F 4

$$$$
=
 OpenBabel11062423123D

 28 31  0  0  1  0  0  0  0  0999 V2000
  187.3860  176.6850  147.2720 C   0  0  0  0  0  1  0  0  0  0  0  0
  187.3010  176.7660  143.5050 C   0  0  0  0  0  0  0  0  0  0  0  0
  185.7660  179.2880  146.9980 Cl  0  0  0  0  0  0  0  0  0  0  0  0
  186.3540  178.3200  145.6420 C   0  0  0  0  0  0  0  0  0  0  0  0
  186.0900  178.7230  144.3160 C   0  0  0  0  0  0  0  0  0  0  0  0
  188.5760  174.5940  140.9280 C   0  0  0  0  0  3  0  0  0  0  0  0
  186.7480  177.5890  140.8770 C   0  0  0  0  0  3  0  0  0  0  0  0
  188.4640  174.8680  142.2870 C   0  0  0  0  0  0  0  0  0  0  0  0
  185.3100  179.9710  144.0470 C   0  0  0  0  0  1  0  0  0  0  0  0
  187.4740  176.4290  141.1250 C   0  0  0  0  0  0  0  0  0  0  0  0
  187.5580  176.3750  144.8200 C   0  0  0  0  0  3  0  0  0  0  0  0
  187.9680  175.5730  140.2110 N   0  0  0  0  0  0  0  0  0  0  0  0
  187.7450  176.0320  142.4030 C   0  0  0  0  0  0  0  0  0  0  0  0
  186.3100  178.3210  141.9450 N   0  0  0  0  0  0  0  0  0  0  0  0
  186.5610  177.9480  143.2420 C   0  0  2  0  0  3  0  0  0  0  0  0
  187.0900  177.1440  145.8850 C   0  0  0  0  0  0  0  0  0  0  0  0
  188.9010  174.0420  143.3720 N   0  0  0  0  0  2  0  0  0  0  0  0
  193.6230  174.7790  144.5970 C   0  0  0  0  0  1  0  0  0  0  0  0
  192.7290  172.4510  144.4610 C   0  0  0  0  0  2  0  0  0  0  0  0
  191.2100  174.4180  144.0210 C   0  0  0  0  0  0  0  0  0  0  0  0
  190.2410  173.5750  143.5840 C   0  0  0  0  0  0  0  0  0  0  0  0
  191.7790  171.6640  143.6130 C   0  0  0  0  0  3  0  0  0  0  0  0
  189.7580  171.3980  142.4590 O   0  0  0  0  0  1  0  0  0  0  0  0
  190.6070  172.1760  143.2380 C   0  0  0  0  0  0  0  0  0  0  0  0
  192.5250  173.8860  144.2700 N   0  0  0  0  0  0  0  0  0  0  0  0
  191.0030  175.7910  144.2590 O   0  0  0  0  0  0  0  0  0  0  0  0
  190.7620  178.1520  143.9180 C   0  0  0  0  0  1  0  0  0  0  0  0
  191.2320  176.8400  143.3270 C   0  0  0  0  0  2  0  0  0  0  0  0
  2 11  1  0  0  0  0
  4 16  1  0  0  0  0
  4  3  1  0  0  0  0
  5  4  2  0  0  0  0
  6  8  2  0  0  0  0
  7 10  1  0  0  0  0
  7 14  2  0  0  0  0
  8 13  1  0  0  0  0
  8 17  1  0  0  0  0
  9  5  1  0  0  0  0
 10 13  1  0  0  0  0
 11 16  2  0  0  0  0
 12  6  1  0  0  0  0
 12 10  2  0  0  0  0
 13  2  2  0  0  0  0
 15 14  1  1  0  0  0
 15  2  1  0  0  0  0
 15  5  1  0  0  0  0
 16  1  1  0  0  0  0
 17 21  1  0  0  0  0
 20 26  1  0  0  0  0
 20 25  1  0  0  0  0
 21 20  2  0  0  0  0
 22 19  1  0  0  0  0
 23 24  1  0  0  0  0
 24 21  1  0  0  0  0
 24 22  2  0  0  0  0
 25 19  1  0  0  0  0
 25 18  1  0  0  0  0
 28 27  1  0  0  0  0
 28 26  1  0  0  0  0
M  END
>  <MODEL>
2

>  <REMARK>
 VINA RESULT:      -7.8      1.670      2.582
  Name = 
  4 active torsions:
  status: ('A' for Active; 'I' for Inactive)
    1  A    between atoms: C_9  and  N_23
    2  A    between atoms: O_14  and  C_17
    3  A    between atoms: O_14  and  C_27
    4  A    between atoms: C_19  and  N_23
                            x       y       z     vdW  Elec       q    Type
                         _______ _______ _______ _____ _____    ______ ____

>  <TORSDO>
F 4

$$$$
=
 OpenBabel11062423123D

 28 31  0  0  1  0  0  0  0  0999 V2000
  186.3720  176.9380  147.6530 C   0  0  0  0  0  1  0  0  0  0  0  0
  186.9850  176.6120  143.9480 C   0  0  0  0  0  0  0  0  0  0  0  0
  183.9710  178.6310  146.7330 Cl  0  0  0  0  0  0  0  0  0  0  0  0
  185.1300  177.8550  145.6490 C   0  0  0  0  0  0  0  0  0  0  0  0
  184.9920  177.9870  144.2520 C   0  0  0  0  0  0  0  0  0  0  0  0
  189.4560  174.8960  141.9650 C   0  0  0  0  0  3  0  0  0  0  0  0
  186.6760  176.8840  141.1700 C   0  0  0  0  0  3  0  0  0  0  0  0
  188.9900  175.2320  143.2320 C   0  0  0  0  0  0  0  0  0  0  0  0
  183.8640  178.7840  143.6760 C   0  0  0  0  0  1  0  0  0  0  0  0
  187.7240  176.1440  141.7030 C   0  0  0  0  0  0  0  0  0  0  0  0
  187.1150  176.4870  145.3320 C   0  0  0  0  0  3  0  0  0  0  0  0
  188.6710  175.4730  141.0200 N   0  0  0  0  0  0  0  0  0  0  0  0
  187.8760  176.0150  143.0540 C   0  0  0  0  0  0  0  0  0  0  0  0
  185.7980  177.4780  142.0320 N   0  0  0  0  0  0  0  0  0  0  0  0
  185.9180  177.3660  143.3950 C   0  0  2  0  0  3  0  0  0  0  0  0
  186.1950  177.1020  146.1820 C   0  0  0  0  0  0  0  0  0  0  0  0
  189.4910  174.7610  144.4880 N   0  0  0  0  0  2  0  0  0  0  0  0
  193.8900  172.7800  145.5200 C   0  0  0  0  0  1  0  0  0  0  0  0
  193.6560  175.2620  145.3640 C   0  0  0  0  0  2  0  0  0  0  0  0
  191.6610  173.7740  144.9470 C   0  0  0  0  0  0  0  0  0  0  0  0
  190.8490  174.8610  144.9400 C   0  0  0  0  0  0  0  0  0  0  0  0
  192.6590  176.3180  145.7250 C   0  0  0  0  0  3  0  0  0  0  0  0
  190.4760  177.1600  145.8400 O   0  0  0  0  0  1  0  0  0  0  0  0
  191.3580  176.1440  145.4930 C   0  0  0  0  0  0  0  0  0  0  0  0
  193.0310  173.9410  145.3580 N   0  0  0  0  0  0  0  0  0  0  0  0
  191.2450  172.4840  144.5650 O   0  0  0  0  0  0  0  0  0  0  0  0
  189.9280  171.4670  142.8380 C   0  0  0  0  0  1  0  0  0  0  0  0
  191.3030  171.9460  143.2500 C   0  0  0  0  0  2  0  0  0  0  0  0
  2 11  1  0  0  0  0
  4 16  1  0  0  0  0
  4  3  1  0  0  0  0
  5  4  2  0  0  0  0
  6  8  2  0  0  0  0
  7 10  1  0  0  0  0
  7 14  2  0  0  0  0
  8 17  1  0  0  0  0
  9  5  1  0  0  0  0
 10 13  1  0  0  0  0
 11 16  2  0  0  0  0
 12 10  2  0  0  0  0
 12  6  1  0  0  0  0
 13  8  1  0  0  0  0
 13  2  2  0  0  0  0
 15 14  1  6  0  0  0
 15  2  1  0  0  0  0
 15  5  1  0  0  0  0
 16  1  1  0  0  0  0
 17 21  1  0  0  0  0
 19 22  1  0  0  0  0
 20 25  1  0  0  0  0
 21 20  2  0  0  0  0
 21 24  1  0  0  0  0
 24 22  2  0  0  0  0
 24 23  1  0  0  0  0
 25 19  1  0  0  0  0
 25 18  1  0  0  0  0
 26 20  1  0  0  0  0
 27 28  1  0  0  0  0
 28 26  1  0  0  0  0
M  END
>  <MODEL>
3

>  <REMARK>
 VINA RESULT:      -7.6      1.941      3.802
  Name = 
  4 active torsions:
  status: ('A' for Active; 'I' for Inactive)
    1  A    between atoms: C_9  and  N_23
    2  A    between atoms: O_14  and  C_17
    3  A    between atoms: O_14  and  C_27
    4  A    between atoms: C_19  and  N_23
                            x       y       z     vdW  Elec       q    Type
                         _______ _______ _______ _____ _____    ______ ____

>  <TORSDO>
F 4

$$$$
=
 OpenBabel11062423123D

 28 31  0  0  0  0  0  0  0  0999 V2000
  186.8530  177.3550  140.2180 C   0  0  0  0  0  1  0  0  0  0  0  0
  186.3580  177.2170  143.9520 C   0  0  0  0  0  0  0  0  0  0  0  0
  184.0680  178.6650  140.2670 Cl  0  0  0  0  0  0  0  0  0  0  0  0
  184.9450  178.1090  141.6970 C   0  0  0  0  0  0  0  0  0  0  0  0
  184.3740  178.2520  142.9790 C   0  0  0  0  0  0  0  0  0  0  0  0
  188.3720  176.0400  146.6990 C   0  0  0  0  0  3  0  0  0  0  0  0
  185.1990  177.5260  146.4910 C   0  0  0  0  0  3  0  0  0  0  0  0
  188.2350  176.1990  145.3240 C   0  0  0  0  0  0  0  0  0  0  0  0
  183.0230  178.8750  143.1390 C   0  0  0  0  0  1  0  0  0  0  0  0
  186.4540  176.9460  146.3440 C   0  0  0  0  0  0  0  0  0  0  0  0
  186.9160  177.0780  142.6800 C   0  0  0  0  0  3  0  0  0  0  0  0
  187.2580  176.4970  147.3270 N   0  0  0  0  0  2  0  0  0  0  0  0
  187.0150  176.7930  145.1090 C   0  0  0  0  0  0  0  0  0  0  0  0
  184.5410  177.9420  145.3680 N   0  0  0  0  0  0  0  0  0  0  0  0
  185.0780  177.8070  144.1120 C   0  0  0  0  0  0  0  0  0  0  0  0
  186.2170  177.5210  141.5560 C   0  0  0  0  0  0  0  0  0  0  0  0
  189.2170  175.9170  144.3210 N   0  0  0  0  0  2  0  0  0  0  0  0
  193.0670  172.9110  145.0150 C   0  0  0  0  0  1  0  0  0  0  0  0
  190.9160  171.9870  144.1470 C   0  0  0  0  0  2  0  0  0  0  0  0
  191.1020  174.4380  144.7120 C   0  0  0  0  0  0  0  0  0  0  0  0
  189.8940  174.6650  144.1390 C   0  0  0  0  0  0  0  0  0  0  0  0
  189.8160  172.3930  143.2170 C   0  0  0  0  0  3  0  0  0  0  0  0
  188.2900  173.9530  142.3620 O   0  0  0  0  0  1  0  0  0  0  0  0
  189.3170  173.6300  143.2400 C   0  0  0  0  0  0  0  0  0  0  0  0
  191.7130  173.1450  144.5430 N   0  0  0  0  0  0  0  0  0  0  0  0
  191.7970  175.3960  145.4770 O   0  0  0  0  0  0  0  0  0  0  0  0
  193.8390  176.5890  145.8700 C   0  0  0  0  0  1  0  0  0  0  0  0
  192.6390  176.4200  144.9650 C   0  0  0  0  0  2  0  0  0  0  0  0
  1 16  1  0  0  0  0
  2 15  1  0  0  0  0
  2 13  1  0  0  0  0
  3  4  1  0  0  0  0
  4  5  1  0  0  0  0
  5  9  1  0  0  0  0
  5 15  2  0  0  0  0
  6 12  1  0  0  0  0
  8  6  2  0  0  0  0
 10  7  1  0  0  0  0
 10 12  1  0  0  0  0
 11  2  2  0  0  0  0
 13  8  1  0  0  0  0
 13 10  2  0  0  0  0
 14  7  2  0  0  0  0
 15 14  1  0  0  0  0
 16  4  2  0  0  0  0
 16 11  1  0  0  0  0
 17  8  1  0  0  0  0
 19 25  1  0  0  0  0
 20 26  1  0  0  0  0
 21 17  1  0  0  0  0
 21 20  2  0  0  0  0
 22 24  2  0  0  0  0
 22 19  1  0  0  0  0
 23 24  1  0  0  0  0
 24 21  1  0  0  0  0
 25 20  1  0  0  0  0
 25 18  1  0  0  0  0
 28 26  1  0  0  0  0
 28 27  1  0  0  0  0
M  END
>  <MODEL>
4

>  <REMARK>
 VINA RESULT:      -7.5      2.433      3.943
  Name = 
  4 active torsions:
  status: ('A' for Active; 'I' for Inactive)
    1  A    between atoms: C_9  and  N_23
    2  A    between atoms: O_14  and  C_17
    3  A    between atoms: O_14  and  C_27
    4  A    between atoms: C_19  and  N_23
                            x       y       z     vdW  Elec       q    Type
                         _______ _______ _______ _____ _____    ______ ____

>  <TORSDO>
F 4

$$$$
=
 OpenBabel11062423123D

 28 31  0  0  0  0  0  0  0  0999 V2000
  188.8550  172.2160  142.8200 C   0  0  0  0  0  1  0  0  0  0  0  0
  190.6330  174.4660  145.2660 C   0  0  0  0  0  0  0  0  0  0  0  0
  191.5780  170.7830  142.7240 Cl  0  0  0  0  0  0  0  0  0  0  0  0
  191.2230  172.2060  143.7090 C   0  0  0  0  0  0  0  0  0  0  0  0
  192.2220  172.7660  144.5310 C   0  0  0  0  0  0  0  0  0  0  0  0
  189.6350  177.3360  147.2040 C   0  0  0  0  0  3  0  0  0  0  0  0
  192.6420  175.5520  146.9000 C   0  0  0  0  0  3  0  0  0  0  0  0
  189.2870  176.3720  146.2620 C   0  0  0  0  0  0  0  0  0  0  0  0
  193.5900  172.1630  144.5750 C   0  0  0  0  0  1  0  0  0  0  0  0
  191.3720  176.1150  146.8590 C   0  0  0  0  0  0  0  0  0  0  0  0
  189.6490  173.9060  144.4490 C   0  0  0  0  0  3  0  0  0  0  0  0
  190.9340  177.1770  147.5630 N   0  0  0  0  0  2  0  0  0  0  0  0
  190.3970  175.5890  146.0620 C   0  0  0  0  0  0  0  0  0  0  0  0
  192.8910  174.4560  146.1230 N   0  0  0  0  0  0  0  0  0  0  0  0
  191.9320  173.8990  145.3130 C   0  0  0  0  0  0  0  0  0  0  0  0
  189.9370  172.7820  143.6740 C   0  0  0  0  0  0  0  0  0  0  0  0
  187.9910  176.1500  145.6950 N   0  0  0  0  0  2  0  0  0  0  0  0
  185.4600  179.9990  143.9290 C   0  0  0  0  0  1  0  0  0  0  0  0
  184.4070  178.4980  145.6240 C   0  0  0  0  0  2  0  0  0  0  0  0
  186.7360  178.0180  144.7840 C   0  0  0  0  0  0  0  0  0  0  0  0
  186.8880  177.0670  145.7390 C   0  0  0  0  0  0  0  0  0  0  0  0
  184.8070  177.7380  146.8500 C   0  0  0  0  0  3  0  0  0  0  0  0
  186.2640  176.3480  148.0470 O   0  0  0  0  0  1  0  0  0  0  0  0
  185.9440  177.0440  146.8880 C   0  0  0  0  0  0  0  0  0  0  0  0
  185.5820  178.8770  144.8440 N   0  0  0  0  0  0  0  0  0  0  0  0
  187.6420  178.2120  143.7220 O   0  0  0  0  0  0  0  0  0  0  0  0
  188.9860  176.8470  142.2790 C   0  0  0  0  0  1  0  0  0  0  0  0
  187.6400  177.5070  142.4870 C   0  0  0  0  0  2  0  0  0  0  0  0
  1 16  1  0  0  0  0
  2 15  1  0  0  0  0
  2 13  1  0  0  0  0
  3  4  1  0  0  0  0
  4  5  1  0  0  0  0
  5  9  1  0  0  0  0
  5 15  2  0  0  0  0
  6 12  1  0  0  0  0
  8  6  2  0  0  0  0
 10  7  1  0  0  0  0
 10 12  1  0  0  0  0
 11  2  2  0  0  0  0
 13  8  1  0  0  0  0
 13 10  2  0  0  0  0
 14  7  2  0  0  0  0
 15 14  1  0  0  0  0
 16  4  2  0  0  0  0
 16 11  1  0  0  0  0
 17 21  1  0  0  0  0
 17  8  1  0  0  0  0
 18 25  1  0  0  0  0
 19 22  1  0  0  0  0
 20 25  1  0  0  0  0
 20 21  2  0  0  0  0
 21 24  1  0  0  0  0
 22 24  2  0  0  0  0
 24 23  1  0  0  0  0
 25 19  1  0  0  0  0
 26 20  1  0  0  0  0
 27 28  1  0  0  0  0
 28 26  1  0  0  0  0
M  END
>  <MODEL>
5

>  <REMARK>
 VINA RESULT:      -7.4      3.246      7.456
  Name = 
  4 active torsions:
  status: ('A' for Active; 'I' for Inactive)
    1  A    between atoms: C_9  and  N_23
    2  A    between atoms: O_14  and  C_17
    3  A    between atoms: O_14  and  C_27
    4  A    between atoms: C_19  and  N_23
                            x       y       z     vdW  Elec       q    Type
                         _______ _______ _______ _____ _____    ______ ____

>  <TORSDO>
F 4

$$$$
=
 OpenBabel11062423123D

 28 31  0  0  1  0  0  0  0  0999 V2000
  192.9220  176.4330  145.8470 C   0  0  0  0  0  1  0  0  0  0  0  0
  190.6870  174.2370  143.7520 C   0  0  0  0  0  0  0  0  0  0  0  0
  194.7790  173.9780  145.7790 Cl  0  0  0  0  0  0  0  0  0  0  0  0
  193.1990  174.0680  144.9920 C   0  0  0  0  0  0  0  0  0  0  0  0
  192.7050  172.9650  144.2660 C   0  0  0  0  0  0  0  0  0  0  0  0
  187.4620  174.6980  142.2110 C   0  0  0  0  0  3  0  0  0  0  0  0
  189.7360  172.0260  142.3040 C   0  0  0  0  0  3  0  0  0  0  0  0
  188.4720  175.2270  143.0080 C   0  0  0  0  0  0  0  0  0  0  0  0
  193.5130  171.7100  144.1560 C   0  0  0  0  0  1  0  0  0  0  0  0
  188.9840  173.1910  142.4060 C   0  0  0  0  0  0  0  0  0  0  0  0
  191.1830  175.3240  144.4720 C   0  0  0  0  0  3  0  0  0  0  0  0
  187.7810  173.4290  141.8480 N   0  0  0  0  0  0  0  0  0  0  0  0
  189.4460  174.2640  143.1130 C   0  0  0  0  0  0  0  0  0  0  0  0
  190.9510  171.9820  142.9270 N   0  0  0  0  0  0  0  0  0  0  0  0
  191.4470  173.0440  143.6420 C   0  0  2  0  0  3  0  0  0  0  0  0
  192.4320  175.2460  145.0900 C   0  0  0  0  0  0  0  0  0  0  0  0
  188.5540  176.5600  143.5250 N   0  0  0  0  0  2  0  0  0  0  0  0
  185.1230  177.8430  146.8310 C   0  0  0  0  0  1  0  0  0  0  0  0
  185.5910  179.3400  144.8880 C   0  0  0  0  0  2  0  0  0  0  0  0
  186.9020  177.2050  145.1840 C   0  0  0  0  0  0  0  0  0  0  0  0
  187.4440  177.3630  143.9500 C   0  0  0  0  0  0  0  0  0  0  0  0
  185.9220  179.2180  143.4340 C   0  0  0  0  0  3  0  0  0  0  0  0
  187.0910  178.2570  141.6450 O   0  0  0  0  0  1  0  0  0  0  0  0
  186.8120  178.3220  143.0040 C   0  0  0  0  0  0  0  0  0  0  0  0
  185.8250  178.0750  145.5800 N   0  0  0  0  0  0  0  0  0  0  0  0
  187.3400  176.2400  146.1120 O   0  0  0  0  0  0  0  0  0  0  0  0
  188.9710  174.9060  147.2560 C   0  0  0  0  0  1  0  0  0  0  0  0
  188.5340  176.3050  146.8800 C   0  0  0  0  0  2  0  0  0  0  0  0
  2 11  1  0  0  0  0
  4 16  1  0  0  0  0
  4  3  1  0  0  0  0
  5  4  2  0  0  0  0
  6  8  2  0  0  0  0
  7 10  1  0  0  0  0
  7 14  2  0  0  0  0
  8 13  1  0  0  0  0
  8 17  1  0  0  0  0
  9  5  1  0  0  0  0
 10 13  1  0  0  0  0
 11 16  2  0  0  0  0
 12  6  1  0  0  0  0
 12 10  2  0  0  0  0
 13  2  2  0  0  0  0
 15 14  1  6  0  0  0
 15  2  1  0  0  0  0
 15  5  1  0  0  0  0
 16  1  1  0  0  0  0
 17 21  1  0  0  0  0
 19 25  1  0  0  0  0
 20 25  1  0  0  0  0
 20 26  1  0  0  0  0
 21 20  2  0  0  0  0
 22 19  1  0  0  0  0
 23 24  1  0  0  0  0
 24 22  2  0  0  0  0
 24 21  1  0  0  0  0
 25 18  1  0  0  0  0
 26 28  1  0  0  0  0
 28 27  1  0  0  0  0
M  END
>  <MODEL>
6

>  <REMARK>
 VINA RESULT:      -7.4      2.809      6.488
  Name = 
  4 active torsions:
  status: ('A' for Active; 'I' for Inactive)
    1  A    between atoms: C_9  and  N_23
    2  A    between atoms: O_14  and  C_17
    3  A    between atoms: O_14  and  C_27
    4  A    between atoms: C_19  and  N_23
                            x       y       z     vdW  Elec       q    Type
                         _______ _______ _______ _____ _____    ______ ____

>  <TORSDO>
F 4

$$$$
=
 OpenBabel11062423123D

 28 31  0  0  0  0  0  0  0  0999 V2000
  186.8580  176.8740  140.7960 C   0  0  0  0  0  1  0  0  0  0  0  0
  185.8660  177.6700  144.3440 C   0  0  0  0  0  0  0  0  0  0  0  0
  184.1130  178.1050  140.1420 Cl  0  0  0  0  0  0  0  0  0  0  0  0
  184.7820  177.9420  141.7690 C   0  0  0  0  0  0  0  0  0  0  0  0
  184.0480  178.3930  142.8860 C   0  0  0  0  0  0  0  0  0  0  0  0
  187.4740  177.2580  147.5420 C   0  0  0  0  0  3  0  0  0  0  0  0
  184.3840  178.5880  146.5460 C   0  0  0  0  0  3  0  0  0  0  0  0
  187.5250  177.0640  146.1650 C   0  0  0  0  0  0  0  0  0  0  0  0
  182.6980  179.0120  142.7020 C   0  0  0  0  0  1  0  0  0  0  0  0
  185.6370  178.0120  146.7180 C   0  0  0  0  0  0  0  0  0  0  0  0
  186.5860  177.2260  143.2340 C   0  0  0  0  0  3  0  0  0  0  0  0
  186.2950  177.8380  147.8800 N   0  0  0  0  0  2  0  0  0  0  0  0
  186.3550  177.5630  145.6470 C   0  0  0  0  0  0  0  0  0  0  0  0
  183.8890  178.6960  145.2770 N   0  0  0  0  0  0  0  0  0  0  0  0
  184.5860  178.2590  144.1780 C   0  0  0  0  0  0  0  0  0  0  0  0
  186.0520  177.3590  141.9520 C   0  0  0  0  0  0  0  0  0  0  0  0
  188.6280  176.5560  145.4060 N   0  0  0  0  0  2  0  0  0  0  0  0
  193.5190  177.1800  145.2250 C   0  0  0  0  0  1  0  0  0  0  0  0
  192.4700  176.2100  147.2730 C   0  0  0  0  0  2  0  0  0  0  0  0
  191.0280  176.9120  145.3250 C   0  0  0  0  0  0  0  0  0  0  0  0
  189.9520  176.3220  145.9050 C   0  0  0  0  0  0  0  0  0  0  0  0
  191.3540  175.2760  147.6260 C   0  0  0  0  0  3  0  0  0  0  0  0
  189.1670  174.4710  147.3850 O   0  0  0  0  0  1  0  0  0  0  0  0
  190.1730  175.3550  147.0130 C   0  0  0  0  0  0  0  0  0  0  0  0
  192.3290  176.6880  145.9000 N   0  0  0  0  0  0  0  0  0  0  0  0
  190.9470  177.7450  144.1930 O   0  0  0  0  0  0  0  0  0  0  0  0
  191.1130  175.9130  142.6550 C   0  0  0  0  0  1  0  0  0  0  0  0
  190.6220  177.3270  142.8730 C   0  0  0  0  0  2  0  0  0  0  0  0
  1 16  1  0  0  0  0
  2 13  1  0  0  0  0
  3  4  1  0  0  0  0
  4 16  2  0  0  0  0
  4  5  1  0  0  0  0
  5 15  2  0  0  0  0
  6 12  1  0  0  0  0
  7 10  1  0  0  0  0
  8  6  2  0  0  0  0
  9  5  1  0  0  0  0
 10 12  1  0  0  0  0
 11  2  2  0  0  0  0
 13  8  1  0  0  0  0
 13 10  2  0  0  0  0
 14  7  2  0  0  0  0
 15  2  1  0  0  0  0
 15 14  1  0  0  0  0
 16 11  1  0  0  0  0
 17 21  1  0  0  0  0
 17  8  1  0  0  0  0
 18 25  1  0  0  0  0
 19 22  1  0  0  0  0
 20 25  1  0  0  0  0
 20 21  2  0  0  0  0
 21 24  1  0  0  0  0
 24 23  1  0  0  0  0
 24 22  2  0  0  0  0
 25 19  1  0  0  0  0
 26 20  1  0  0  0  0
 27 28  1  0  0  0  0
 28 26  1  0  0  0  0
M  END
>  <MODEL>
7

>  <REMARK>
 VINA RESULT:      -7.3      3.003      4.956
  Name = 
  4 active torsions:
  status: ('A' for Active; 'I' for Inactive)
    1  A    between atoms: C_9  and  N_23
    2  A    between atoms: O_14  and  C_17
    3  A    between atoms: O_14  and  C_27
    4  A    between atoms: C_19  and  N_23
                            x       y       z     vdW  Elec       q    Type
                         _______ _______ _______ _____ _____    ______ ____

>  <TORSDO>
F 4

$$$$
=
 OpenBabel11062423123D

 28 31  0  0  0  0  0  0  0  0999 V2000
  187.0210  177.1990  140.2060 C   0  0  0  0  0  1  0  0  0  0  0  0
  186.5780  177.0680  143.9460 C   0  0  0  0  0  0  0  0  0  0  0  0
  184.2850  178.6070  140.3000 Cl  0  0  0  0  0  0  0  0  0  0  0  0
  185.1630  178.0160  141.7150 C   0  0  0  0  0  0  0  0  0  0  0  0
  184.6180  178.1760  143.0050 C   0  0  0  0  0  0  0  0  0  0  0  0
  188.5900  175.8130  146.6590 C   0  0  0  0  0  3  0  0  0  0  0  0
  185.4700  177.4120  146.5040 C   0  0  0  0  0  3  0  0  0  0  0  0
  188.4380  175.9810  145.2870 C   0  0  0  0  0  0  0  0  0  0  0  0
  183.2920  178.8460  143.1870 C   0  0  0  0  0  1  0  0  0  0  0  0
  186.7010  176.7880  146.3360 C   0  0  0  0  0  0  0  0  0  0  0  0
  187.1110  176.9130  142.6650 C   0  0  0  0  0  3  0  0  0  0  0  0
  187.5030  176.3070  147.3050 N   0  0  0  0  0  2  0  0  0  0  0  0
  187.2370  176.6180  145.0920 C   0  0  0  0  0  0  0  0  0  0  0  0
  184.8100  177.8530  145.3920 N   0  0  0  0  0  0  0  0  0  0  0  0
  185.3230  177.7030  144.1270 C   0  0  0  0  0  0  0  0  0  0  0  0
  186.4120  177.3830  141.5530 C   0  0  0  0  0  0  0  0  0  0  0  0
  189.3940  175.6670  144.2690 N   0  0  0  0  0  2  0  0  0  0  0  0
  193.8140  173.7260  145.2870 C   0  0  0  0  0  1  0  0  0  0  0  0
  193.6700  175.9340  144.1310 C   0  0  0  0  0  2  0  0  0  0  0  0
  191.5640  174.6800  144.7310 C   0  0  0  0  0  0  0  0  0  0  0  0
  190.8200  175.7650  144.3990 C   0  0  0  0  0  0  0  0  0  0  0  0
  192.8200  177.1660  144.1710 C   0  0  0  0  0  3  0  0  0  0  0  0
  190.7510  178.2580  144.2820 O   0  0  0  0  0  1  0  0  0  0  0  0
  191.4930  177.0840  144.2580 C   0  0  0  0  0  0  0  0  0  0  0  0
  192.9960  174.8200  144.7940 N   0  0  0  0  0  0  0  0  0  0  0  0
  191.0170  173.4130  145.0110 O   0  0  0  0  0  0  0  0  0  0  0  0
  189.3180  171.9170  144.2200 C   0  0  0  0  0  1  0  0  0  0  0  0
  190.7440  172.3950  144.0560 C   0  0  0  0  0  2  0  0  0  0  0  0
  1 16  1  0  0  0  0
  2 15  1  0  0  0  0
  2 13  1  0  0  0  0
  3  4  1  0  0  0  0
  4  5  1  0  0  0  0
  5  9  1  0  0  0  0
  5 15  2  0  0  0  0
  6 12  1  0  0  0  0
  8  6  2  0  0  0  0
 10  7  1  0  0  0  0
 10 12  1  0  0  0  0
 11  2  2  0  0  0  0
 13  8  1  0  0  0  0
 13 10  2  0  0  0  0
 14  7  2  0  0  0  0
 15 14  1  0  0  0  0
 16  4  2  0  0  0  0
 16 11  1  0  0  0  0
 17 21  1  0  0  0  0
 17  8  1  0  0  0  0
 19 22  1  0  0  0  0
 19 25  1  0  0  0  0
 20 25  1  0  0  0  0
 20 26  1  0  0  0  0
 21 20  2  0  0  0  0
 22 24  2  0  0  0  0
 24 23  1  0  0  0  0
 24 21  1  0  0  0  0
 25 18  1  0  0  0  0
 28 27  1  0  0  0  0
 28 26  1  0  0  0  0
M  END
>  <MODEL>
8

>  <REMARK>
 VINA RESULT:      -7.3      2.747      4.717
  Name = 
  4 active torsions:
  status: ('A' for Active; 'I' for Inactive)
    1  A    between atoms: C_9  and  N_23
    2  A    between atoms: O_14  and  C_17
    3  A    between atoms: O_14  and  C_27
    4  A    between atoms: C_19  and  N_23
                            x       y       z     vdW  Elec       q    Type
                         _______ _______ _______ _____ _____    ______ ____

>  <TORSDO>
F 4

$$$$
=
 OpenBabel11062423123D

 28 31  0  0  0  0  0  0  0  0999 V2000
  187.0340  177.2150  140.2340 C   0  0  0  0  0  1  0  0  0  0  0  0
  186.7790  176.9380  143.9840 C   0  0  0  0  0  0  0  0  0  0  0  0
  184.2770  178.5560  140.5140 Cl  0  0  0  0  0  0  0  0  0  0  0  0
  185.2360  177.9340  141.8610 C   0  0  0  0  0  0  0  0  0  0  0  0
  184.7520  178.0350  143.1820 C   0  0  0  0  0  0  0  0  0  0  0  0
  188.9480  175.6310  146.5480 C   0  0  0  0  0  3  0  0  0  0  0  0
  185.7920  177.1640  146.6040 C   0  0  0  0  0  3  0  0  0  0  0  0
  188.7250  175.8450  145.1910 C   0  0  0  0  0  0  0  0  0  0  0  0
  183.4240  178.6680  143.4530 C   0  0  0  0  0  1  0  0  0  0  0  0
  187.0260  176.5740  146.3530 C   0  0  0  0  0  0  0  0  0  0  0  0
  187.2510  176.8420  142.6740 C   0  0  0  0  0  3  0  0  0  0  0  0
  187.8850  176.0770  147.2640 N   0  0  0  0  0  2  0  0  0  0  0  0
  187.5030  176.4620  145.0790 C   0  0  0  0  0  0  0  0  0  0  0  0
  185.0690  177.6310  145.5420 N   0  0  0  0  0  0  0  0  0  0  0  0
  185.5210  177.5380  144.2490 C   0  0  0  0  0  0  0  0  0  0  0  0
  186.4880  177.3360  141.6150 C   0  0  0  0  0  0  0  0  0  0  0  0
  189.6360  175.5900  144.1170 N   0  0  0  0  0  2  0  0  0  0  0  0
  192.0100  171.2700  143.8950 C   0  0  0  0  0  1  0  0  0  0  0  0
  193.3130  173.4000  143.8830 C   0  0  0  0  0  2  0  0  0  0  0  0
  190.7920  173.4600  143.9590 C   0  0  0  0  0  0  0  0  0  0  0  0
  190.8280  174.7950  144.1990 C   0  0  0  0  0  0  0  0  0  0  0  0
  193.2590  174.7510  144.5260 C   0  0  0  0  0  3  0  0  0  0  0  0
  192.1140  176.6680  145.2360 O   0  0  0  0  0  1  0  0  0  0  0  0
  192.1070  175.4130  144.6390 C   0  0  0  0  0  0  0  0  0  0  0  0
  192.0260  172.7190  144.0010 N   0  0  0  0  0  0  0  0  0  0  0  0
  189.6120  172.7520  143.6600 O   0  0  0  0  0  0  0  0  0  0  0  0
  187.9350  173.2280  142.0130 C   0  0  0  0  0  1  0  0  0  0  0  0
  189.1570  172.4050  142.3580 C   0  0  0  0  0  2  0  0  0  0  0  0
  1 16  1  0  0  0  0
  2 15  1  0  0  0  0
  2 13  1  0  0  0  0
  3  4  1  0  0  0  0
  4  5  1  0  0  0  0
  5  9  1  0  0  0  0
  5 15  2  0  0  0  0
  6 12  1  0  0  0  0
  8  6  2  0  0  0  0
 10  7  1  0  0  0  0
 10 12  1  0  0  0  0
 11  2  2  0  0  0  0
 13  8  1  0  0  0  0
 13 10  2  0  0  0  0
 14  7  2  0  0  0  0
 15 14  1  0  0  0  0
 16  4  2  0  0  0  0
 16 11  1  0  0  0  0
 17 21  1  0  0  0  0
 17  8  1  0  0  0  0
 18 25  1  0  0  0  0
 19 25  1  0  0  0  0
 19 22  1  0  0  0  0
 20 25  1  0  0  0  0
 20 21  2  0  0  0  0
 21 24  1  0  0  0  0
 22 24  2  0  0  0  0
 24 23  1  0  0  0  0
 26 20  1  0  0  0  0
 27 28  1  0  0  0  0
 28 26  1  0  0  0  0
M  END
>  <MODEL>
9

>  <REMARK>
 VINA RESULT:      -7.3      2.530      4.611
  Name = 
  4 active torsions:
  status: ('A' for Active; 'I' for Inactive)
    1  A    between atoms: C_9  and  N_23
    2  A    between atoms: O_14  and  C_17
    3  A    between atoms: O_14  and  C_27
    4  A    between atoms: C_19  and  N_23
                            x       y       z     vdW  Elec       q    Type
                         _______ _______ _______ _____ _____    ______ ____

>  <TORSDO>
F 4

$$$$
