=
 OpenBabel11062423123D

 28 31  0  0  1  0  0  0  0  0999 V2000
  188.0350  176.5610  145.2610 N   0  0  0  0  0  0  0  0  0  0  0  0
  191.7550  176.7620  145.5700 C   0  0  0  0  0  0  0  0  0  0  0  0
  188.3930  175.8360  146.4170 N   0  0  0  0  0  2  0  0  0  0  0  0
  190.3740  176.5790  145.6190 C   0  0  0  0  0  0  0  0  0  0  0  0
  192.5460  176.1640  146.5870 C   0  0  0  0  0  0  0  0  0  0  0  0
  192.3010  177.4950  144.5670 F   0  0  0  0  0  0  0  0  0  0  0  0
  191.9120  175.4120  147.6010 C   0  0  0  0  0  3  0  0  0  0  0  0
  189.3090  177.0840  144.7130 C   0  0  0  0  0  2  0  0  0  0  0  0
  190.5170  175.2520  147.6170 C   0  0  0  0  0  3  0  0  0  0  0  0
  189.7860  175.8580  146.5990 C   0  0  0  0  0  0  0  0  0  0  0  0
  195.6680  174.5740  145.5690 C   0  0  0  0  0  3  0  0  0  0  0  0
  194.0150  176.2790  146.6520 C   0  0  0  0  0  3  0  0  0  0  0  0
  194.8400  175.4240  146.1090 C   0  0  0  0  0  0  0  0  0  0  0  0
  194.9480  174.4840  141.1870 O   0  0  0  0  0  1  0  0  0  0  0  0
  194.4050  175.0140  143.4530 C   0  0  0  0  0  2  0  0  0  0  0  0
  196.0140  176.4350  142.1490 C   0  0  2  0  0  3  0  0  0  0  0  0
  196.9700  175.9780  143.2570 C   0  0  0  0  0  2  0  0  0  0  0  0
  194.7570  175.5530  142.0690 C   0  0  1  0  0  3  0  0  0  0  0  0
  195.6150  174.3100  144.1010 C   0  0  1  0  0  3  0  0  0  0  0  0
  196.6800  176.4760  140.9220 O   0  0  0  0  0  1  0  0  0  0  0  0
  196.8590  174.5900  143.4760 O   0  0  0  0  0  0  0  0  0  0  0  0
  187.2500  177.7040  145.7040 C   0  0  0  0  0  2  0  0  0  0  0  0
  185.1060  178.8410  145.0980 C   0  0  0  0  0  3  0  0  0  0  0  0
  184.0530  179.0460  144.2050 C   0  0  0  0  0  3  0  0  0  0  0  0
  186.1300  177.9540  144.7530 C   0  0  0  0  0  0  0  0  0  0  0  0
  186.0870  177.2930  143.5640 N   0  0  0  0  0  0  0  0  0  0  0  0
  185.0680  177.4800  142.6820 C   0  0  0  0  0  3  0  0  0  0  0  0
  184.0300  178.3630  142.9880 C   0  0  0  0  0  3  0  0  0  0  0  0
  1 22  1  0  0  0  0
  1  3  1  0  0  0  0
  2  4  2  0  0  0  0
  2  5  1  0  0  0  0
  3 10  1  0  0  0  0
  4 10  1  0  0  0  0
  5 12  1  0  0  0  0
  5  7  2  0  0  0  0
  6  2  1  0  0  0  0
  7  9  1  0  0  0  0
  8  1  1  0  0  0  0
  8  4  1  0  0  0  0
 10  9  2  0  0  0  0
 11 13  2  0  0  0  0
 13 12  2  0  0  0  0
 15 19  1  0  0  0  0
 16 20  1  6  0  0  0
 16 17  1  0  0  0  0
 17 21  1  0  0  0  0
 18 14  1  6  0  0  0
 18 16  1  0  0  0  0
 18 15  1  0  0  0  0
 19 11  1  1  0  0  0
 21 19  1  0  0  0  0
 24 23  2  0  0  0  0
 25 23  1  0  0  0  0
 25 22  1  0  0  0  0
 26 25  2  0  0  0  0
 27 28  2  0  0  0  0
 27 26  1  0  0  0  0
 28 24  1  0  0  0  0
M  END
>  <MODEL>
1

>  <REMARK>
 VINA RESULT:      -7.9      0.000      0.000
  Name = 
  4 active torsions:
  status: ('A' for Active; 'I' for Inactive)
    1  A    between atoms: N_1  and  C_11
    2  A    between atoms: C_9  and  C_20
    3  A    between atoms: C_10  and  C_19
    4  A    between atoms: C_11  and  C_14
                            x       y       z     vdW  Elec       q    Type
                         _______ _______ _______ _____ _____    ______ ____

>  <TORSDO>
F 4

$$$$
=
 OpenBabel11062423123D

 28 31  0  0  1  0  0  0  0  0999 V2000
  193.3460  175.5570  146.4790 N   0  0  0  0  0  0  0  0  0  0  0  0
  189.9660  176.9560  147.2530 C   0  0  0  0  0  0  0  0  0  0  0  0
  192.3990  174.7200  145.8510 N   0  0  0  0  0  2  0  0  0  0  0  0
  191.1310  176.2960  146.8630 C   0  0  0  0  0  0  0  0  0  0  0  0
  188.7210  176.4220  146.8290 C   0  0  0  0  0  0  0  0  0  0  0  0
  190.0520  178.0750  148.0160 F   0  0  0  0  0  0  0  0  0  0  0  0
  188.7050  175.2530  146.0360 C   0  0  0  0  0  3  0  0  0  0  0  0
  192.5540  176.6190  147.1430 C   0  0  0  0  0  2  0  0  0  0  0  0
  189.9000  174.6170  145.6630 C   0  0  0  0  0  3  0  0  0  0  0  0
  191.0950  175.1790  146.1030 C   0  0  0  0  0  0  0  0  0  0  0  0
  186.0080  178.4940  145.5400 C   0  0  0  0  0  3  0  0  0  0  0  0
  187.4180  177.0220  147.1700 C   0  0  0  0  0  3  0  0  0  0  0  0
  186.7140  177.7590  146.3520 C   0  0  0  0  0  0  0  0  0  0  0  0
  184.9210  177.6550  141.3160 O   0  0  0  0  0  1  0  0  0  0  0  0
  185.3410  179.0680  143.1970 C   0  0  0  0  0  2  0  0  0  0  0  0
  187.2380  178.1230  141.8480 C   0  0  2  0  0  3  0  0  0  0  0  0
  187.5760  177.4700  143.1930 C   0  0  0  0  0  2  0  0  0  0  0  0
  185.7890  178.6380  141.8020 C   0  0  1  0  0  3  0  0  0  0  0  0
  185.5650  177.9410  144.2260 C   0  0  1  0  0  3  0  0  0  0  0  0
  187.4890  177.2330  140.8020 O   0  0  0  0  0  1  0  0  0  0  0  0
  186.4260  176.9040  143.7800 O   0  0  0  0  0  0  0  0  0  0  0  0
  194.1210  176.1890  145.4200 C   0  0  0  0  0  2  0  0  0  0  0  0
  195.7840  174.4460  146.0940 C   0  0  0  0  0  3  0  0  0  0  0  0
  196.9720  173.7510  145.8630 C   0  0  0  0  0  3  0  0  0  0  0  0
  195.3740  175.4200  145.1770 C   0  0  0  0  0  0  0  0  0  0  0  0
  196.1370  175.6890  144.0830 N   0  0  0  0  0  0  0  0  0  0  0  0
  197.2970  175.0220  143.8420 C   0  0  0  0  0  3  0  0  0  0  0  0
  197.7370  174.0370  144.7310 C   0  0  0  0  0  3  0  0  0  0  0  0
  1  8  1  0  0  0  0
  2  6  1  0  0  0  0
  3 10  1  0  0  0  0
  3  1  1  0  0  0  0
  4  8  1  0  0  0  0
  4  2  1  0  0  0  0
  5 12  1  0  0  0  0
  5  2  2  0  0  0  0
  7  5  1  0  0  0  0
  9  7  2  0  0  0  0
  9 10  1  0  0  0  0
 10  4  2  0  0  0  0
 11 13  2  0  0  0  0
 13 12  2  0  0  0  0
 15 19  1  0  0  0  0
 16 20  1  6  0  0  0
 16 17  1  0  0  0  0
 17 21  1  0  0  0  0
 18 14  1  1  0  0  0
 18 16  1  0  0  0  0
 18 15  1  0  0  0  0
 19 11  1  1  0  0  0
 21 19  1  0  0  0  0
 22  1  1  0  0  0  0
 24 23  1  0  0  0  0
 25 22  1  0  0  0  0
 25 23  2  0  0  0  0
 26 25  1  0  0  0  0
 27 26  2  0  0  0  0
 27 28  1  0  0  0  0
 28 24  2  0  0  0  0
M  END
>  <MODEL>
2

>  <REMARK>
 VINA RESULT:      -7.8      3.911      8.613
  Name = 
  4 active torsions:
  status: ('A' for Active; 'I' for Inactive)
    1  A    between atoms: N_1  and  C_11
    2  A    between atoms: C_9  and  C_20
    3  A    between atoms: C_10  and  C_19
    4  A    between atoms: C_11  and  C_14
                            x       y       z     vdW  Elec       q    Type
                         _______ _______ _______ _____ _____    ______ ____

>  <TORSDO>
F 4

$$$$
=
 OpenBabel11062423123D

 28 31  0  0  1  0  0  0  0  0999 V2000
  182.8680  178.8150  141.4130 N   0  0  0  0  0  0  0  0  0  0  0  0
  184.6640  178.3850  144.6630 C   0  0  0  0  0  0  0  0  0  0  0  0
  184.1000  178.1910  141.1240 N   0  0  0  0  0  2  0  0  0  0  0  0
  184.1500  178.4600  143.3690 C   0  0  0  0  0  0  0  0  0  0  0  0
  185.9490  177.8080  144.8420 C   0  0  0  0  0  0  0  0  0  0  0  0
  183.9330  178.8590  145.7040 F   0  0  0  0  0  0  0  0  0  0  0  0
  186.6560  177.3360  143.7140 C   0  0  0  0  0  3  0  0  0  0  0  0
  182.8520  178.9950  142.8840 C   0  0  0  0  0  2  0  0  0  0  0  0
  186.1050  177.4270  142.4250 C   0  0  0  0  0  3  0  0  0  0  0  0
  184.8420  178.0010  142.3030 C   0  0  0  0  0  0  0  0  0  0  0  0
  188.1820  175.6920  146.8030 C   0  0  0  0  0  3  0  0  0  0  0  0
  186.6050  177.6690  146.1550 C   0  0  0  0  0  3  0  0  0  0  0  0
  187.3940  176.6780  146.4770 C   0  0  0  0  0  0  0  0  0  0  0  0
  191.9890  175.7750  144.5190 O   0  0  0  0  0  1  0  0  0  0  0  0
  189.9990  176.7320  145.4330 C   0  0  0  0  0  2  0  0  0  0  0  0
  192.0310  176.3700  146.8670 C   0  0  2  0  0  3  0  0  0  0  0  0
  191.0590  175.4560  147.6230 C   0  0  0  0  0  2  0  0  0  0  0  0
  191.5260  176.7060  145.4530 C   0  0  1  0  0  3  0  0  0  0  0  0
  189.4130  175.4240  146.0050 C   0  0  1  0  0  3  0  0  0  0  0  0
  193.3020  175.7940  146.8240 O   0  0  0  0  0  1  0  0  0  0  0  0
  190.3440  174.6340  146.7290 O   0  0  0  0  0  0  0  0  0  0  0  0
  181.8210  177.8600  141.0780 C   0  0  0  0  0  2  0  0  0  0  0  0
  179.4060  177.9380  141.7240 C   0  0  0  0  0  3  0  0  0  0  0  0
  178.1640  178.5750  141.6960 C   0  0  0  0  0  3  0  0  0  0  0  0
  180.4940  178.5370  141.0800 C   0  0  0  0  0  0  0  0  0  0  0  0
  180.3310  179.7190  140.4260 N   0  0  0  0  0  0  0  0  0  0  0  0
  179.1280  180.3530  140.3890 C   0  0  0  0  0  3  0  0  0  0  0  0
  178.0200  179.7900  141.0260 C   0  0  0  0  0  3  0  0  0  0  0  0
  1  8  1  0  0  0  0
  2  5  1  0  0  0  0
  2  6  1  0  0  0  0
  3  1  1  0  0  0  0
  3 10  1  0  0  0  0
  4  2  2  0  0  0  0
  5 12  1  0  0  0  0
  7  5  2  0  0  0  0
  8  4  1  0  0  0  0
  9  7  1  0  0  0  0
 10  9  2  0  0  0  0
 10  4  1  0  0  0  0
 12 13  2  0  0  0  0
 13 11  2  0  0  0  0
 15 18  1  0  0  0  0
 15 19  1  0  0  0  0
 16 20  1  6  0  0  0
 16 17  1  0  0  0  0
 18 14  1  6  0  0  0
 18 16  1  0  0  0  0
 19 21  1  0  0  0  0
 19 11  1  1  0  0  0
 21 17  1  0  0  0  0
 22 25  1  0  0  0  0
 22  1  1  0  0  0  0
 24 23  1  0  0  0  0
 25 23  2  0  0  0  0
 26 25  1  0  0  0  0
 27 26  2  0  0  0  0
 27 28  1  0  0  0  0
 28 24  2  0  0  0  0
M  END
>  <MODEL>
3

>  <REMARK>
 VINA RESULT:      -7.7      3.884      6.859
  Name = 
  4 active torsions:
  status: ('A' for Active; 'I' for Inactive)
    1  A    between atoms: N_1  and  C_11
    2  A    between atoms: C_9  and  C_20
    3  A    between atoms: C_10  and  C_19
    4  A    between atoms: C_11  and  C_14
                            x       y       z     vdW  Elec       q    Type
                         _______ _______ _______ _____ _____    ______ ____

>  <TORSDO>
F 4

$$$$
=
 OpenBabel11062423123D

 28 31  0  0  1  0  0  0  0  0999 V2000
  194.0680  175.4510  145.3910 N   0  0  0  0  0  0  0  0  0  0  0  0
  190.7490  175.9500  147.0370 C   0  0  0  0  0  0  0  0  0  0  0  0
  193.1140  174.7640  144.6120 N   0  0  0  0  0  2  0  0  0  0  0  0
  191.8890  175.6580  146.2890 C   0  0  0  0  0  0  0  0  0  0  0  0
  189.5060  175.4240  146.5940 C   0  0  0  0  0  0  0  0  0  0  0  0
  190.8540  176.7180  148.1500 F   0  0  0  0  0  0  0  0  0  0  0  0
  189.4690  174.6310  145.4270 C   0  0  0  0  0  3  0  0  0  0  0  0
  193.3020  176.0700  146.4980 C   0  0  0  0  0  2  0  0  0  0  0  0
  190.6390  174.3600  144.7000 C   0  0  0  0  0  3  0  0  0  0  0  0
  191.8330  174.8980  145.1730 C   0  0  0  0  0  0  0  0  0  0  0  0
  186.3650  177.2730  146.4370 C   0  0  0  0  0  3  0  0  0  0  0  0
  188.2280  175.6570  147.2920 C   0  0  0  0  0  3  0  0  0  0  0  0
  187.2970  176.4670  146.8620 C   0  0  0  0  0  0  0  0  0  0  0  0
  184.4360  177.5420  142.4460 O   0  0  0  0  0  1  0  0  0  0  0  0
  184.9370  178.2990  144.6560 C   0  0  0  0  0  2  0  0  0  0  0  0
  186.5730  178.6330  142.7780 C   0  0  2  0  0  3  0  0  0  0  0  0
  187.4440  177.7470  143.6770 C   0  0  0  0  0  2  0  0  0  0  0  0
  185.0850  178.5560  143.1580 C   0  0  1  0  0  3  0  0  0  0  0  0
  185.7530  177.0640  145.0930 C   0  0  1  0  0  3  0  0  0  0  0  0
  186.7690  178.3020  141.4360 O   0  0  0  0  0  1  0  0  0  0  0  0
  186.7150  176.6330  144.1420 O   0  0  0  0  0  0  0  0  0  0  0  0
  194.5920  176.5300  144.5660 C   0  0  0  0  0  2  0  0  0  0  0  0
  196.6820  175.1870  144.2760 C   0  0  0  0  0  3  0  0  0  0  0  0
  197.7380  174.7460  143.4770 C   0  0  0  0  0  3  0  0  0  0  0  0
  195.7130  176.0290  143.7220 C   0  0  0  0  0  0  0  0  0  0  0  0
  195.8130  176.4190  142.4220 N   0  0  0  0  0  0  0  0  0  0  0  0
  196.8360  176.0000  141.6290 C   0  0  0  0  0  3  0  0  0  0  0  0
  197.8190  175.1520  142.1450 C   0  0  0  0  0  3  0  0  0  0  0  0
  1  8  1  0  0  0  0
  2  6  1  0  0  0  0
  3 10  1  0  0  0  0
  3  1  1  0  0  0  0
  4  8  1  0  0  0  0
  4  2  2  0  0  0  0
  5  2  1  0  0  0  0
  5 12  1  0  0  0  0
  7  5  2  0  0  0  0
  9 10  2  0  0  0  0
  9  7  1  0  0  0  0
 10  4  1  0  0  0  0
 11 13  2  0  0  0  0
 13 12  2  0  0  0  0
 15 19  1  0  0  0  0
 16 20  1  6  0  0  0
 16 18  1  0  0  0  0
 16 17  1  0  0  0  0
 17 21  1  0  0  0  0
 18 14  1  6  0  0  0
 18 15  1  0  0  0  0
 19 11  1  1  0  0  0
 21 19  1  0  0  0  0
 22  1  1  0  0  0  0
 24 23  2  0  0  0  0
 25 23  1  0  0  0  0
 25 22  1  0  0  0  0
 26 25  2  0  0  0  0
 27 28  2  0  0  0  0
 27 26  1  0  0  0  0
 28 24  1  0  0  0  0
M  END
>  <MODEL>
4

>  <REMARK>
 VINA RESULT:      -7.6      4.110      8.681
  Name = 
  4 active torsions:
  status: ('A' for Active; 'I' for Inactive)
    1  A    between atoms: N_1  and  C_11
    2  A    between atoms: C_9  and  C_20
    3  A    between atoms: C_10  and  C_19
    4  A    between atoms: C_11  and  C_14
                            x       y       z     vdW  Elec       q    Type
                         _______ _______ _______ _____ _____    ______ ____

>  <TORSDO>
F 4

$$$$
=
 OpenBabel11062423123D

 28 31  0  0  1  0  0  0  0  0999 V2000
  187.4490  176.9550  143.7370 N   0  0  0  0  0  0  0  0  0  0  0  0
  190.8220  177.0440  145.3470 C   0  0  0  0  0  0  0  0  0  0  0  0
  187.3650  176.1820  144.9140 N   0  0  0  0  0  2  0  0  0  0  0  0
  189.5100  176.8980  144.8980 C   0  0  0  0  0  0  0  0  0  0  0  0
  191.1930  176.3910  146.5530 C   0  0  0  0  0  0  0  0  0  0  0  0
  191.6970  177.7950  144.6320 F   0  0  0  0  0  0  0  0  0  0  0  0
  190.2310  175.6230  147.2460 C   0  0  0  0  0  3  0  0  0  0  0  0
  188.8410  177.4610  143.6960 C   0  0  0  0  0  2  0  0  0  0  0  0
  188.9190  175.5010  146.7620 C   0  0  0  0  0  3  0  0  0  0  0  0
  188.6040  176.1600  145.5770 C   0  0  0  0  0  0  0  0  0  0  0  0
  194.7140  175.6790  145.9150 C   0  0  0  0  0  3  0  0  0  0  0  0
  192.5450  176.4640  147.1370 C   0  0  0  0  0  3  0  0  0  0  0  0
  193.6290  176.0700  146.5230 C   0  0  0  0  0  0  0  0  0  0  0  0
  196.3880  176.7690  141.9490 O   0  0  0  0  0  1  0  0  0  0  0  0
  196.4040  175.6680  144.0700 C   0  0  0  0  0  2  0  0  0  0  0  0
  195.0940  174.7300  142.1420 C   0  0  2  0  0  3  0  0  0  0  0  0
  193.9260  174.9780  143.1050 C   0  0  0  0  0  2  0  0  0  0  0  0
  196.3560  175.5080  142.5520 C   0  0  1  0  0  3  0  0  0  0  0  0
  195.0960  176.2850  144.6060 C   0  0  1  0  0  3  0  0  0  0  0  0
  194.7150  175.0380  140.8340 O   0  0  0  0  0  1  0  0  0  0  0  0
  194.0160  176.2600  143.6850 O   0  0  0  0  0  0  0  0  0  0  0  0
  186.5730  178.1040  143.9200 C   0  0  0  0  0  2  0  0  0  0  0  0
  185.9810  178.1830  141.4910 C   0  0  0  0  0  3  0  0  0  0  0  0
  185.0220  178.2540  140.4790 C   0  0  0  0  0  3  0  0  0  0  0  0
  185.5630  178.1550  142.8260 C   0  0  0  0  0  0  0  0  0  0  0  0
  184.2370  178.2100  143.1250 N   0  0  0  0  0  0  0  0  0  0  0  0
  183.2890  178.2800  142.1520 C   0  0  0  0  0  3  0  0  0  0  0  0
  183.6670  178.3030  140.8070 C   0  0  0  0  0  3  0  0  0  0  0  0
  1 22  1  0  0  0  0
  1  3  1  0  0  0  0
  2  5  1  0  0  0  0
  3 10  1  0  0  0  0
  4  2  2  0  0  0  0
  4 10  1  0  0  0  0
  5 12  1  0  0  0  0
  5  7  2  0  0  0  0
  6  2  1  0  0  0  0
  8  1  1  0  0  0  0
  8  4  1  0  0  0  0
  9  7  1  0  0  0  0
 10  9  2  0  0  0  0
 11 13  2  0  0  0  0
 13 12  2  0  0  0  0
 15 19  1  0  0  0  0
 16 20  1  6  0  0  0
 16 18  1  0  0  0  0
 16 17  1  0  0  0  0
 17 21  1  0  0  0  0
 18 14  1  6  0  0  0
 18 15  1  0  0  0  0
 19 11  1  1  0  0  0
 21 19  1  0  0  0  0
 23 25  1  0  0  0  0
 24 28  1  0  0  0  0
 24 23  2  0  0  0  0
 25 26  2  0  0  0  0
 25 22  1  0  0  0  0
 27 26  1  0  0  0  0
 28 27  2  0  0  0  0
M  END
>  <MODEL>
5

>  <REMARK>
 VINA RESULT:      -7.6      1.329      2.153
  Name = 
  4 active torsions:
  status: ('A' for Active; 'I' for Inactive)
    1  A    between atoms: N_1  and  C_11
    2  A    between atoms: C_9  and  C_20
    3  A    between atoms: C_10  and  C_19
    4  A    between atoms: C_11  and  C_14
                            x       y       z     vdW  Elec       q    Type
                         _______ _______ _______ _____ _____    ______ ____

>  <TORSDO>
F 4

$$$$
=
 OpenBabel11062423123D

 28 31  0  0  1  0  0  0  0  0999 V2000
  192.8250  174.9110  144.4680 N   0  0  0  0  0  0  0  0  0  0  0  0
  190.3340  177.4090  143.2310 C   0  0  0  0  0  0  0  0  0  0  0  0
  191.8820  174.2040  143.6930 N   0  0  0  0  0  2  0  0  0  0  0  0
  191.1570  176.3440  143.5950 C   0  0  0  0  0  0  0  0  0  0  0  0
  189.2020  177.1330  142.4190 C   0  0  0  0  0  0  0  0  0  0  0  0
  190.6310  178.6630  143.6560 F   0  0  0  0  0  0  0  0  0  0  0  0
  188.9520  175.8040  142.0130 C   0  0  0  0  0  3  0  0  0  0  0  0
  192.3960  176.3280  144.4160 C   0  0  0  0  0  2  0  0  0  0  0  0
  189.8050  174.7580  142.3990 C   0  0  0  0  0  3  0  0  0  0  0  0
  190.9010  175.0790  143.1950 C   0  0  0  0  0  0  0  0  0  0  0  0
  185.9050  178.5710  143.0300 C   0  0  0  0  0  3  0  0  0  0  0  0
  188.2530  178.1670  141.9640 C   0  0  0  0  0  3  0  0  0  0  0  0
  187.0780  178.3670  142.4990 C   0  0  0  0  0  0  0  0  0  0  0  0
  184.8340  179.0400  147.3150 O   0  0  0  0  0  1  0  0  0  0  0  0
  184.3820  178.5700  145.0160 C   0  0  0  0  0  2  0  0  0  0  0  0
  185.4340  176.8380  146.5020 C   0  0  2  0  0  3  0  0  0  0  0  0
  186.5740  176.9810  145.4870 C   0  0  0  0  0  2  0  0  0  0  0  0
  184.4510  178.0200  146.4390 C   0  0  1  0  0  3  0  0  0  0  0  0
  185.7890  178.9050  144.4790 C   0  0  1  0  0  3  0  0  0  0  0  0
  185.9490  176.6800  147.7900 O   0  0  0  0  0  1  0  0  0  0  0  0
  186.8520  178.3400  145.2320 O   0  0  0  0  0  0  0  0  0  0  0  0
  194.1010  174.8170  143.7740 C   0  0  0  0  0  2  0  0  0  0  0  0
  195.9480  174.5410  145.4380 C   0  0  0  0  0  3  0  0  0  0  0  0
  196.8370  173.7240  146.1380 C   0  0  0  0  0  3  0  0  0  0  0  0
  195.0410  173.9580  144.5480 C   0  0  0  0  0  0  0  0  0  0  0  0
  195.0400  172.6090  144.3640 N   0  0  0  0  0  0  0  0  0  0  0  0
  195.9000  171.7980  145.0370 C   0  0  0  0  0  3  0  0  0  0  0  0
  196.8160  172.3430  145.9390 C   0  0  0  0  0  3  0  0  0  0  0  0
  2  4  1  0  0  0  0
  2  6  1  0  0  0  0
  3  1  1  0  0  0  0
  4  8  1  0  0  0  0
  5  2  2  0  0  0  0
  7  9  2  0  0  0  0
  7  5  1  0  0  0  0
  8  1  1  0  0  0  0
  9 10  1  0  0  0  0
 10  4  2  0  0  0  0
 10  3  1  0  0  0  0
 12  5  1  0  0  0  0
 12 13  2  0  0  0  0
 13 11  2  0  0  0  0
 15 18  1  0  0  0  0
 16 20  1  1  0  0  0
 17 16  1  0  0  0  0
 18 16  1  0  0  0  0
 18 14  1  1  0  0  0
 19 11  1  6  0  0  0
 19 15  1  0  0  0  0
 19 21  1  0  0  0  0
 21 17  1  0  0  0  0
 22  1  1  0  0  0  0
 22 25  1  0  0  0  0
 23 24  1  0  0  0  0
 25 23  2  0  0  0  0
 26 25  1  0  0  0  0
 26 27  2  0  0  0  0
 27 28  1  0  0  0  0
 28 24  2  0  0  0  0
M  END
>  <MODEL>
6

>  <REMARK>
 VINA RESULT:      -7.5      4.569      9.351
  Name = 
  4 active torsions:
  status: ('A' for Active; 'I' for Inactive)
    1  A    between atoms: N_1  and  C_11
    2  A    between atoms: C_9  and  C_20
    3  A    between atoms: C_10  and  C_19
    4  A    between atoms: C_11  and  C_14
                            x       y       z     vdW  Elec       q    Type
                         _______ _______ _______ _____ _____    ______ ____

>  <TORSDO>
F 4

$$$$
=
 OpenBabel11062423123D

 28 31  0  0  1  0  0  0  0  0999 V2000
  193.7610  176.5010  144.9890 N   0  0  0  0  0  0  0  0  0  0  0  0
  190.0570  176.8110  145.3920 C   0  0  0  0  0  0  0  0  0  0  0  0
  193.3990  175.7100  146.0990 N   0  0  0  0  0  2  0  0  0  0  0  0
  191.4320  176.5770  145.3970 C   0  0  0  0  0  0  0  0  0  0  0  0
  189.2680  176.1860  146.3930 C   0  0  0  0  0  0  0  0  0  0  0  0
  189.5180  177.6170  144.4430 F   0  0  0  0  0  0  0  0  0  0  0  0
  189.8950  175.3600  147.3510 C   0  0  0  0  0  3  0  0  0  0  0  0
  192.4920  177.0770  144.4850 C   0  0  0  0  0  2  0  0  0  0  0  0
  191.2830  175.1460  147.3230 C   0  0  0  0  0  3  0  0  0  0  0  0
  192.0130  175.7800  146.3220 C   0  0  0  0  0  0  0  0  0  0  0  0
  186.4780  178.3540  145.4820 C   0  0  0  0  0  3  0  0  0  0  0  0
  187.8060  176.3510  146.4990 C   0  0  0  0  0  3  0  0  0  0  0  0
  187.1440  177.3550  145.9890 C   0  0  0  0  0  0  0  0  0  0  0  0
  186.4230  178.3040  141.0410 O   0  0  0  0  0  1  0  0  0  0  0  0
  186.5870  177.3120  143.2090 C   0  0  0  0  0  2  0  0  0  0  0  0
  184.3510  177.9120  142.2320 C   0  0  2  0  0  3  0  0  0  0  0  0
  184.3090  178.8280  143.4620 C   0  0  0  0  0  2  0  0  0  0  0  0
  185.7770  177.4290  141.9190 C   0  0  1  0  0  3  0  0  0  0  0  0
  186.5410  178.6260  144.0160 C   0  0  1  0  0  3  0  0  0  0  0  0
  183.7840  178.5570  141.1310 O   0  0  0  0  0  1  0  0  0  0  0  0
  185.5240  179.5280  143.6080 O   0  0  0  0  0  0  0  0  0  0  0  0
  194.2650  175.5940  143.9680 C   0  0  0  0  0  2  0  0  0  0  0  0
  194.6570  173.2630  144.7870 C   0  0  0  0  0  3  0  0  0  0  0  0
  195.4830  172.3140  145.3910 C   0  0  0  0  0  3  0  0  0  0  0  0
  195.1400  174.5610  144.5890 C   0  0  0  0  0  0  0  0  0  0  0  0
  196.3970  174.8890  144.9960 N   0  0  0  0  0  0  0  0  0  0  0  0
  197.2140  173.9770  145.5870 C   0  0  0  0  0  3  0  0  0  0  0  0
  196.7700  172.6690  145.7960 C   0  0  0  0  0  3  0  0  0  0  0  0
  1  3  1  0  0  0  0
  2  4  2  0  0  0  0
  2  5  1  0  0  0  0
  3 10  1  0  0  0  0
  4 10  1  0  0  0  0
  5 12  1  0  0  0  0
  5  7  2  0  0  0  0
  6  2  1  0  0  0  0
  8  1  1  0  0  0  0
  8  4  1  0  0  0  0
  9  7  1  0  0  0  0
 10  9  2  0  0  0  0
 11 13  2  0  0  0  0
 13 12  2  0  0  0  0
 15 19  1  0  0  0  0
 16 20  1  6  0  0  0
 16 17  1  0  0  0  0
 17 21  1  0  0  0  0
 18 14  1  6  0  0  0
 18 16  1  0  0  0  0
 18 15  1  0  0  0  0
 19 11  1  1  0  0  0
 21 19  1  0  0  0  0
 22 25  1  0  0  0  0
 22  1  1  0  0  0  0
 23 24  1  0  0  0  0
 24 28  2  0  0  0  0
 25 23  2  0  0  0  0
 25 26  1  0  0  0  0
 26 27  2  0  0  0  0
 27 28  1  0  0  0  0
M  END
>  <MODEL>
7

>  <REMARK>
 VINA RESULT:      -7.5      4.270      8.873
  Name = 
  4 active torsions:
  status: ('A' for Active; 'I' for Inactive)
    1  A    between atoms: N_1  and  C_11
    2  A    between atoms: C_9  and  C_20
    3  A    between atoms: C_10  and  C_19
    4  A    between atoms: C_11  and  C_14
                            x       y       z     vdW  Elec       q    Type
                         _______ _______ _______ _____ _____    ______ ____

>  <TORSDO>
F 4

$$$$
=
 OpenBabel11062423123D

 28 31  0  0  1  0  0  0  0  0999 V2000
  188.4090  177.5630  145.8790 N   0  0  0  0  0  0  0  0  0  0  0  0
  191.7890  176.2430  146.7760 C   0  0  0  0  0  0  0  0  0  0  0  0
  189.2640  177.8480  144.7940 N   0  0  0  0  0  2  0  0  0  0  0  0
  190.6110  176.7930  146.2730 C   0  0  0  0  0  0  0  0  0  0  0  0
  192.9590  176.3210  145.9750 C   0  0  0  0  0  0  0  0  0  0  0  0
  191.7880  175.6560  148.0000 F   0  0  0  0  0  0  0  0  0  0  0  0
  192.8900  176.9470  144.7110 C   0  0  0  0  0  3  0  0  0  0  0  0
  189.2510  176.8520  146.8700 C   0  0  0  0  0  2  0  0  0  0  0  0
  191.6840  177.4880  144.2380 C   0  0  0  0  0  3  0  0  0  0  0  0
  190.5640  177.3860  145.0600 C   0  0  0  0  0  0  0  0  0  0  0  0
  195.4410  173.7480  145.2470 C   0  0  0  0  0  3  0  0  0  0  0  0
  194.2680  175.7800  146.3880 C   0  0  0  0  0  3  0  0  0  0  0  0
  194.8530  174.7620  145.8150 C   0  0  0  0  0  0  0  0  0  0  0  0
  195.6200  174.3110  140.8450 O   0  0  0  0  0  1  0  0  0  0  0  0
  194.5120  174.1280  142.9540 C   0  0  0  0  0  2  0  0  0  0  0  0
  195.6270  176.2720  142.2670 C   0  0  2  0  0  3  0  0  0  0  0  0
  196.4690  175.9730  143.5140 C   0  0  0  0  0  2  0  0  0  0  0  0
  194.8630  175.0310  141.7740 C   0  0  1  0  0  3  0  0  0  0  0  0
  195.7640  173.7920  143.7900 C   0  0  1  0  0  3  0  0  0  0  0  0
  196.4310  176.8030  141.2570 O   0  0  0  0  0  1  0  0  0  0  0  0
  196.8830  174.6250  143.5290 O   0  0  0  0  0  0  0  0  0  0  0  0
  187.4110  176.6180  145.3970 C   0  0  0  0  0  2  0  0  0  0  0  0
  185.4120  178.0810  145.7390 C   0  0  0  0  0  3  0  0  0  0  0  0
  184.2930  178.7430  145.2300 C   0  0  0  0  0  3  0  0  0  0  0  0
  186.2270  177.3510  144.8680 C   0  0  0  0  0  0  0  0  0  0  0  0
  185.9200  177.2830  143.5440 N   0  0  0  0  0  0  0  0  0  0  0  0
  184.8340  177.9210  143.0310 C   0  0  0  0  0  3  0  0  0  0  0  0
  183.9990  178.6660  143.8680 C   0  0  0  0  0  3  0  0  0  0  0  0
  1  8  1  0  0  0  0
  2  6  1  0  0  0  0
  3 10  1  0  0  0  0
  3  1  1  0  0  0  0
  4  2  1  0  0  0  0
  4  8  1  0  0  0  0
  5 12  1  0  0  0  0
  5  2  2  0  0  0  0
  7  5  1  0  0  0  0
  9  7  2  0  0  0  0
  9 10  1  0  0  0  0
 10  4  2  0  0  0  0
 11 13  2  0  0  0  0
 13 12  2  0  0  0  0
 15 19  1  0  0  0  0
 16 20  1  6  0  0  0
 16 17  1  0  0  0  0
 17 21  1  0  0  0  0
 18 14  1  6  0  0  0
 18 16  1  0  0  0  0
 18 15  1  0  0  0  0
 19 11  1  1  0  0  0
 21 19  1  0  0  0  0
 22  1  1  0  0  0  0
 24 23  1  0  0  0  0
 25 22  1  0  0  0  0
 25 23  2  0  0  0  0
 26 25  1  0  0  0  0
 27 26  2  0  0  0  0
 27 28  1  0  0  0  0
 28 24  2  0  0  0  0
M  END
>  <MODEL>
8

>  <REMARK>
 VINA RESULT:      -7.4      1.189      1.657
  Name = 
  4 active torsions:
  status: ('A' for Active; 'I' for Inactive)
    1  A    between atoms: N_1  and  C_11
    2  A    between atoms: C_9  and  C_20
    3  A    between atoms: C_10  and  C_19
    4  A    between atoms: C_11  and  C_14
                            x       y       z     vdW  Elec       q    Type
                         _______ _______ _______ _____ _____    ______ ____

>  <TORSDO>
F 4

$$$$
=
 OpenBabel11062423123D

 28 31  0  0  1  0  0  0  0  0999 V2000
  194.2380  175.7340  145.9300 N   0  0  0  0  0  0  0  0  0  0  0  0
  190.6610  176.1840  146.9180 C   0  0  0  0  0  0  0  0  0  0  0  0
  193.4940  174.7520  145.2430 N   0  0  0  0  0  2  0  0  0  0  0  0
  191.9310  175.8690  146.4380 C   0  0  0  0  0  0  0  0  0  0  0  0
  189.5630  175.4030  146.4710 C   0  0  0  0  0  0  0  0  0  0  0  0
  190.5090  177.2150  147.7880 F   0  0  0  0  0  0  0  0  0  0  0  0
  189.7930  174.3440  145.5650 C   0  0  0  0  0  3  0  0  0  0  0  0
  193.2460  176.5040  146.7160 C   0  0  0  0  0  2  0  0  0  0  0  0
  191.0870  174.0570  145.1020 C   0  0  0  0  0  3  0  0  0  0  0  0
  192.1310  174.8520  145.5700 C   0  0  0  0  0  0  0  0  0  0  0  0
  186.9120  177.9030  146.6480 C   0  0  0  0  0  3  0  0  0  0  0  0
  188.1710  175.6310  146.9010 C   0  0  0  0  0  3  0  0  0  0  0  0
  187.5430  176.7700  146.7740 C   0  0  0  0  0  0  0  0  0  0  0  0
  186.2630  178.8890  142.3660 O   0  0  0  0  0  1  0  0  0  0  0  0
  186.8410  177.4530  144.1870 C   0  0  0  0  0  2  0  0  0  0  0  0
  184.4360  177.9140  143.6230 C   0  0  2  0  0  3  0  0  0  0  0  0
  184.4470  178.4980  145.0410 C   0  0  0  0  0  2  0  0  0  0  0  0
  185.8560  177.7440  143.0570 C   0  0  1  0  0  3  0  0  0  0  0  0
  186.7420  178.5180  145.2990 C   0  0  1  0  0  3  0  0  0  0  0  0
  183.6500  178.7040  142.7810 O   0  0  0  0  0  1  0  0  0  0  0  0
  185.5740  179.3230  145.2360 O   0  0  0  0  0  0  0  0  0  0  0  0
  194.7880  176.6310  144.9240 C   0  0  0  0  0  2  0  0  0  0  0  0
  196.6000  176.6510  143.2000 C   0  0  0  0  0  3  0  0  0  0  0  0
  197.6270  176.0010  142.5130 C   0  0  0  0  0  3  0  0  0  0  0  0
  195.9030  175.9610  144.1970 C   0  0  0  0  0  0  0  0  0  0  0  0
  196.2200  174.6680  144.4790 N   0  0  0  0  0  0  0  0  0  0  0  0
  197.2170  174.0190  143.8200 C   0  0  0  0  0  3  0  0  0  0  0  0
  197.9410  174.6770  142.8220 C   0  0  0  0  0  3  0  0  0  0  0  0
  1  8  1  0  0  0  0
  2  6  1  0  0  0  0
  3 10  1  0  0  0  0
  3  1  1  0  0  0  0
  4  8  1  0  0  0  0
  4  2  2  0  0  0  0
  5 12  1  0  0  0  0
  5  2  1  0  0  0  0
  7  5  2  0  0  0  0
  9  7  1  0  0  0  0
  9 10  2  0  0  0  0
 10  4  1  0  0  0  0
 11 13  2  0  0  0  0
 13 12  2  0  0  0  0
 15 19  1  0  0  0  0
 16 20  1  6  0  0  0
 16 17  1  0  0  0  0
 17 21  1  0  0  0  0
 18 14  1  1  0  0  0
 18 16  1  0  0  0  0
 18 15  1  0  0  0  0
 19 11  1  1  0  0  0
 21 19  1  0  0  0  0
 22  1  1  0  0  0  0
 23 25  1  0  0  0  0
 24 28  1  0  0  0  0
 24 23  2  0  0  0  0
 25 26  2  0  0  0  0
 25 22  1  0  0  0  0
 27 26  1  0  0  0  0
 28 27  2  0  0  0  0
M  END
>  <MODEL>
9

>  <REMARK>
 VINA RESULT:      -7.4      4.444      9.014
  Name = 
  4 active torsions:
  status: ('A' for Active; 'I' for Inactive)
    1  A    between atoms: N_1  and  C_11
    2  A    between atoms: C_9  and  C_20
    3  A    between atoms: C_10  and  C_19
    4  A    between atoms: C_11  and  C_14
                            x       y       z     vdW  Elec       q    Type
                         _______ _______ _______ _____ _____    ______ ____

>  <TORSDO>
F 4

$$$$
