=
 OpenBabel11062420563D

 31 32  0  0  1  0  0  0  0  0999 V2000
  187.9480  174.8600  142.4430 C   0  0  0  0  0  3  0  0  0  0  0  0
  189.0120  173.6170  140.6520 C   0  0  0  0  0  3  0  0  0  0  0  0
  188.0330  173.5360  141.7700 C   0  0  0  0  0  2  0  0  0  0  0  0
  190.3260  174.7970  143.1990 C   0  0  0  0  0  0  0  0  0  0  0  0
  188.9780  175.4390  143.0770 C   0  0  0  0  0  0  0  0  0  0  0  0
  190.3050  173.8620  140.8620 C   0  0  0  0  0  3  0  0  0  0  0  0
  190.9210  174.1110  142.1820 C   0  0  0  0  0  0  0  0  0  0  0  0
  192.5430  173.4390  142.3390 Cl  0  0  0  0  0  0  0  0  0  0  0  0
  191.5250  175.2260  146.7020 C   0  0  0  0  0  0  0  0  0  0  0  0
  191.4670  175.2330  148.1920 C   0  0  0  0  0  1  0  0  0  0  0  0
  192.2480  175.4480  144.5680 N   0  0  0  0  0  0  0  0  0  0  0  0
  190.3950  174.8180  145.8270 C   0  0  0  0  0  3  0  0  0  0  0  0
  192.5600  175.5780  145.9470 C   0  0  1  0  0  3  0  0  0  0  0  0
  191.0350  175.0030  144.4880 C   0  0  0  0  0  0  0  0  0  0  0  0
  193.9810  177.2920  147.0240 O   0  0  0  0  0  1  0  0  0  0  0  0
  193.8760  176.0500  146.4120 C   0  0  0  0  0  0  0  0  0  0  0  0
  194.9090  175.3450  146.2660 O   0  0  0  0  0  0  0  0  0  0  0  0
  187.8450  177.0180  144.5870 C   0  0  0  0  0  0  0  0  0  0  0  0
  188.7830  176.7620  143.7110 C   0  0  0  0  0  3  0  0  0  0  0  0
  186.9100  177.2750  145.4610 C   0  0  0  0  0  3  0  0  0  0  0  0
  186.3660  178.6590  145.6160 C   0  0  2  0  0  3  0  0  0  0  0  0
  186.1910  179.3470  147.9100 O   0  0  0  0  0  1  0  0  0  0  0  0
  184.3100  178.4000  147.0060 O   0  0  0  0  0  0  0  0  0  0  0  0
  185.6270  178.8300  146.9090 C   0  0  0  0  0  0  0  0  0  0  0  0
  185.5030  179.0250  144.4520 C   0  0  0  0  0  0  0  0  0  0  0  0
  185.3880  180.2360  144.1270 O   0  0  0  0  0  0  0  0  0  0  0  0
  184.8050  178.0090  143.7220 N   0  0  0  0  0  2  0  0  0  0  0  0
  183.9070  178.3130  142.6160 C   0  0  0  0  0  2  0  0  0  0  0  0
  184.5280  177.8950  141.2930 C   0  0  2  0  0  3  0  0  0  0  0  0
  186.0240  178.1440  141.3150 C   0  0  0  0  0  1  0  0  0  0  0  0
  183.9540  178.6340  140.2600 O   0  0  0  0  0  1  0  0  0  0  0  0
  1  5  2  0  0  0  0
  2  6  2  0  0  0  0
  2  3  1  0  0  0  0
  3  1  1  0  0  0  0
  4 14  1  0  0  0  0
  5  4  1  0  0  0  0
  5 19  1  0  0  0  0
  6  7  1  0  0  0  0
  7  8  1  0  0  0  0
  7  4  2  0  0  0  0
  9 10  1  0  0  0  0
 11 13  1  0  0  0  0
 12  9  2  0  0  0  0
 13 16  1  6  0  0  0
 13  9  1  0  0  0  0
 14 11  2  0  0  0  0
 14 12  1  0  0  0  0
 16 15  1  0  0  0  0
 17 16  2  0  0  0  0
 18 20  2  0  0  0  0
 19 18  2  0  0  0  0
 21 20  1  6  0  0  0
 21 24  1  0  0  0  0
 24 23  2  0  0  0  0
 24 22  1  0  0  0  0
 25 21  1  0  0  0  0
 26 25  2  0  0  0  0
 27 25  1  0  0  0  0
 28 27  1  0  0  0  0
 29 30  1  1  0  0  0
 29 28  1  0  0  0  0
 31 29  1  0  0  0  0
M  END
>  <MODEL>
1

>  <REMARK>
 VINA RESULT:      -7.4      0.000      0.000
  Name = 
  8 active torsions:
  status: ('A' for Active; 'I' for Inactive)
    1  A    between atoms: C_1  and  C_12
    2  A    between atoms: C_8  and  C_16
    3  A    between atoms: C_8  and  C_28
    4  A    between atoms: C_8  and  C_30
    5  A    between atoms: C_10  and  C_29
    6  A    between atoms: C_11  and  C_26
    7  A    between atoms: C_12  and  N_24
    8  A    between atoms: C_25  and  C_27
                            x       y       z     vdW  Elec       q    Type
                         _______ _______ _______ _____ _____    ______ ____

>  <TORSDO>
F 8

$$$$
=
 OpenBabel11062420563D

 31 32  0  0  1  0  0  0  0  0999 V2000
  186.3200  179.0390  144.3060 C   0  0  0  0  0  3  0  0  0  0  0  0
  184.3350  178.6790  145.6520 C   0  0  0  0  0  3  0  0  0  0  0  0
  185.3690  179.6730  145.2580 C   0  0  0  0  0  2  0  0  0  0  0  0
  187.1280  177.3790  145.9860 C   0  0  0  0  0  0  0  0  0  0  0  0
  187.1060  178.0000  144.6220 C   0  0  0  0  0  0  0  0  0  0  0  0
  184.6410  177.5700  146.3240 C   0  0  0  0  0  3  0  0  0  0  0  0
  186.0050  177.1690  146.7290 C   0  0  0  0  0  0  0  0  0  0  0  0
  186.0650  176.3620  148.2960 Cl  0  0  0  0  0  0  0  0  0  0  0  0
  190.2460  175.6540  147.0790 C   0  0  0  0  0  0  0  0  0  0  0  0
  191.2070  174.5320  147.2830 C   0  0  0  0  0  1  0  0  0  0  0  0
  189.2750  177.6990  147.1160 N   0  0  0  0  0  0  0  0  0  0  0  0
  188.9420  175.5160  146.3800 C   0  0  0  0  0  3  0  0  0  0  0  0
  190.3970  176.9110  147.4830 C   0  0  1  0  0  3  0  0  0  0  0  0
  188.4550  176.9280  146.4780 C   0  0  0  0  0  0  0  0  0  0  0  0
  191.3250  178.1950  149.3830 O   0  0  0  0  0  1  0  0  0  0  0  0
  191.5450  177.4730  148.2170 C   0  0  0  0  0  0  0  0  0  0  0  0
  192.7240  177.3100  147.8060 O   0  0  0  0  0  0  0  0  0  0  0  0
  187.8070  176.3080  142.9790 C   0  0  0  0  0  0  0  0  0  0  0  0
  188.0140  177.4440  143.5950 C   0  0  0  0  0  3  0  0  0  0  0  0
  187.6010  175.1760  142.3620 C   0  0  0  0  0  3  0  0  0  0  0  0
  188.7450  174.3770  141.8260 C   0  0  2  0  0  3  0  0  0  0  0  0
  187.2130  172.5390  141.6300 O   0  0  0  0  0  1  0  0  0  0  0  0
  189.0870  172.4180  140.3180 O   0  0  0  0  0  0  0  0  0  0  0  0
  188.2950  173.0650  141.2570 C   0  0  0  0  0  0  0  0  0  0  0  0
  189.7910  174.1760  142.8740 C   0  0  0  0  0  0  0  0  0  0  0  0
  189.5750  173.3650  143.8130 O   0  0  0  0  0  0  0  0  0  0  0  0
  191.0210  174.9080  142.8180 N   0  0  0  0  0  2  0  0  0  0  0  0
  192.0510  174.7950  143.8420 C   0  0  0  0  0  2  0  0  0  0  0  0
  192.6020  176.1660  144.2000 C   0  0  2  0  0  3  0  0  0  0  0  0
  191.5910  177.2430  143.8560 C   0  0  0  0  0  1  0  0  0  0  0  0
  193.7770  176.3930  143.4850 O   0  0  0  0  0  1  0  0  0  0  0  0
  1  5  2  0  0  0  0
  1  3  1  0  0  0  0
  2  6  2  0  0  0  0
  3  2  1  0  0  0  0
  4 14  1  0  0  0  0
  4  7  2  0  0  0  0
  5  4  1  0  0  0  0
  6  7  1  0  0  0  0
  7  8  1  0  0  0  0
  9 10  1  0  0  0  0
  9 13  1  0  0  0  0
 11 13  1  0  0  0  0
 12 14  1  0  0  0  0
 12  9  2  0  0  0  0
 13 16  1  1  0  0  0
 14 11  2  0  0  0  0
 16 15  1  0  0  0  0
 17 16  2  0  0  0  0
 18 19  2  0  0  0  0
 19  5  1  0  0  0  0
 20 18  2  0  0  0  0
 21 20  1  1  0  0  0
 21 25  1  0  0  0  0
 23 24  2  0  0  0  0
 24 22  1  0  0  0  0
 24 21  1  0  0  0  0
 25 26  2  0  0  0  0
 27 25  1  0  0  0  0
 27 28  1  0  0  0  0
 28 29  1  0  0  0  0
 29 30  1  6  0  0  0
 31 29  1  0  0  0  0
M  END
>  <MODEL>
2

>  <REMARK>
 VINA RESULT:      -7.2      3.594      6.415
  Name = 
  8 active torsions:
  status: ('A' for Active; 'I' for Inactive)
    1  A    between atoms: C_1  and  C_12
    2  A    between atoms: C_8  and  C_16
    3  A    between atoms: C_8  and  C_28
    4  A    between atoms: C_8  and  C_30
    5  A    between atoms: C_10  and  C_29
    6  A    between atoms: C_11  and  C_26
    7  A    between atoms: C_12  and  N_24
    8  A    between atoms: C_25  and  C_27
                            x       y       z     vdW  Elec       q    Type
                         _______ _______ _______ _____ _____    ______ ____

>  <TORSDO>
F 8

$$$$
=
 OpenBabel11062420563D

 31 32  0  0  1  0  0  0  0  0999 V2000
  185.9560  179.0220  143.1300 C   0  0  0  0  0  3  0  0  0  0  0  0
  184.4220  178.8320  145.0000 C   0  0  0  0  0  3  0  0  0  0  0  0
  185.2990  179.7640  144.2400 C   0  0  0  0  0  2  0  0  0  0  0  0
  187.2110  177.5190  144.6790 C   0  0  0  0  0  0  0  0  0  0  0  0
  186.8080  178.0040  143.3190 C   0  0  0  0  0  0  0  0  0  0  0  0
  184.9120  177.7890  145.6680 C   0  0  0  0  0  3  0  0  0  0  0  0
  186.3380  177.4040  145.7200 C   0  0  0  0  0  0  0  0  0  0  0  0
  186.8350  176.7530  147.2810 Cl  0  0  0  0  0  0  0  0  0  0  0  0
  190.8990  176.9760  144.7060 C   0  0  0  0  0  0  0  0  0  0  0  0
  192.3420  177.2730  144.4750 C   0  0  0  0  0  1  0  0  0  0  0  0
  188.9740  175.9330  145.2840 N   0  0  0  0  0  0  0  0  0  0  0  0
  189.7930  177.9140  144.3770 C   0  0  0  0  0  3  0  0  0  0  0  0
  190.3900  175.8610  145.2190 C   0  0  1  0  0  3  0  0  0  0  0  0
  188.6260  177.0930  144.8290 C   0  0  0  0  0  0  0  0  0  0  0  0
  191.9600  174.7710  146.7890 O   0  0  0  0  0  1  0  0  0  0  0  0
  191.1380  174.6750  145.6740 C   0  0  0  0  0  0  0  0  0  0  0  0
  191.0440  173.5750  145.0700 O   0  0  0  0  0  0  0  0  0  0  0  0
  187.5760  176.0390  142.0530 C   0  0  0  0  0  0  0  0  0  0  0  0
  187.4040  177.3340  142.1430 C   0  0  0  0  0  3  0  0  0  0  0  0
  187.7480  174.7490  141.9620 C   0  0  0  0  0  3  0  0  0  0  0  0
  188.8350  174.1790  141.1070 C   0  0  2  0  0  3  0  0  0  0  0  0
  188.1590  174.6390  138.8490 O   0  0  0  0  0  0  0  0  0  0  0  0
  188.0410  172.4450  139.4980 O   0  0  0  0  0  1  0  0  0  0  0  0
  188.3310  173.7780  139.7530 C   0  0  0  0  0  0  0  0  0  0  0  0
  189.5050  173.0330  141.7910 C   0  0  0  0  0  0  0  0  0  0  0  0
  188.8650  172.3700  142.6510 O   0  0  0  0  0  0  0  0  0  0  0  0
  190.8630  172.6980  141.4830 N   0  0  0  0  0  2  0  0  0  0  0  0
  191.5820  171.6280  142.1600 C   0  0  0  0  0  2  0  0  0  0  0  0
  191.6410  170.3860  141.2850 C   0  0  2  0  0  3  0  0  0  0  0  0
  191.5760  170.7740  139.8190 C   0  0  0  0  0  1  0  0  0  0  0  0
  190.5620  169.5560  141.5880 O   0  0  0  0  0  1  0  0  0  0  0  0
  1  5  2  0  0  0  0
  1  3  1  0  0  0  0
  2  6  2  0  0  0  0
  3  2  1  0  0  0  0
  4 14  1  0  0  0  0
  4  7  2  0  0  0  0
  5  4  1  0  0  0  0
  6  7  1  0  0  0  0
  7  8  1  0  0  0  0
  9 13  1  0  0  0  0
 10  9  1  0  0  0  0
 12  9  2  0  0  0  0
 12 14  1  0  0  0  0
 13 11  1  0  0  0  0
 13 16  1  6  0  0  0
 14 11  2  0  0  0  0
 16 15  1  0  0  0  0
 17 16  2  0  0  0  0
 18 19  2  0  0  0  0
 19  5  1  0  0  0  0
 20 18  2  0  0  0  0
 21 25  1  0  0  0  0
 21 20  1  1  0  0  0
 22 24  2  0  0  0  0
 23 24  1  0  0  0  0
 24 21  1  0  0  0  0
 25 26  2  0  0  0  0
 27 25  1  0  0  0  0
 27 28  1  0  0  0  0
 29 30  1  6  0  0  0
 29 31  1  0  0  0  0
 29 28  1  0  0  0  0
M  END
>  <MODEL>
3

>  <REMARK>
 VINA RESULT:      -7.0      3.678      6.872
  Name = 
  8 active torsions:
  status: ('A' for Active; 'I' for Inactive)
    1  A    between atoms: C_1  and  C_12
    2  A    between atoms: C_8  and  C_16
    3  A    between atoms: C_8  and  C_28
    4  A    between atoms: C_8  and  C_30
    5  A    between atoms: C_10  and  C_29
    6  A    between atoms: C_11  and  C_26
    7  A    between atoms: C_12  and  N_24
    8  A    between atoms: C_25  and  C_27
                            x       y       z     vdW  Elec       q    Type
                         _______ _______ _______ _____ _____    ______ ____

>  <TORSDO>
F 8

$$$$
=
 OpenBabel11062420563D

 31 32  0  0  1  0  0  0  0  0999 V2000
  185.3850  177.6290  145.7360 C   0  0  0  0  0  3  0  0  0  0  0  0
  184.8430  179.6000  144.4300 C   0  0  0  0  0  3  0  0  0  0  0  0
  184.3240  178.3020  144.9390 C   0  0  0  0  0  2  0  0  0  0  0  0
  186.9130  177.3880  143.7760 C   0  0  0  0  0  0  0  0  0  0  0  0
  186.5570  177.2260  145.2220 C   0  0  0  0  0  0  0  0  0  0  0  0
  185.8610  179.6670  143.5740 C   0  0  0  0  0  3  0  0  0  0  0  0
  186.6140  178.5050  143.0540 C   0  0  0  0  0  0  0  0  0  0  0  0
  187.1210  178.6910  141.3760 Cl  0  0  0  0  0  0  0  0  0  0  0  0
  189.3380  175.0230  142.2200 C   0  0  0  0  0  0  0  0  0  0  0  0
  190.6470  174.5200  141.7130 C   0  0  0  0  0  1  0  0  0  0  0  0
  187.1400  175.1820  142.7410 N   0  0  0  0  0  0  0  0  0  0  0  0
  189.1520  176.3450  142.8760 C   0  0  0  0  0  2  0  0  0  0  0  0
  188.1690  174.3940  142.1620 C   0  0  0  0  0  0  0  0  0  0  0  0
  187.6850  176.2770  143.1630 C   0  0  0  0  0  0  0  0  0  0  0  0
  187.9850  172.8830  140.2130 O   0  0  0  0  0  0  0  0  0  0  0  0
  187.9090  173.0620  141.5880 C   0  0  0  0  0  0  0  0  0  0  0  0
  187.6190  172.0810  142.3220 O   0  0  0  0  0  1  0  0  0  0  0  0
  188.8130  176.8890  146.1450 C   0  0  0  0  0  0  0  0  0  0  0  0
  187.5440  176.5690  146.1060 C   0  0  0  0  0  3  0  0  0  0  0  0
  190.0770  177.2080  146.1860 C   0  0  0  0  0  3  0  0  0  0  0  0
  191.1080  176.2030  146.5890 C   0  0  2  0  0  3  0  0  0  0  0  0
  191.3500  175.1220  148.7190 O   0  0  0  0  0  0  0  0  0  0  0  0
  191.5400  177.4050  148.7320 O   0  0  0  0  0  1  0  0  0  0  0  0
  191.3430  176.2020  148.0690 C   0  0  0  0  0  0  0  0  0  0  0  0
  192.3850  176.4230  145.8440 C   0  0  0  0  0  0  0  0  0  0  0  0
  192.3750  177.1280  144.8000 O   0  0  0  0  0  0  0  0  0  0  0  0
  193.6030  175.8280  146.3050 N   0  0  0  0  0  2  0  0  0  0  0  0
  194.8640  175.9620  145.5880 C   0  0  0  0  0  2  0  0  0  0  0  0
  195.6820  174.6850  145.7000 C   0  0  2  0  0  3  0  0  0  0  0  0
  196.8100  174.6940  144.6850 C   0  0  0  0  0  1  0  0  0  0  0  0
  194.8580  173.5860  145.4620 O   0  0  0  0  0  1  0  0  0  0  0  0
  2  3  1  0  0  0  0
  3  1  1  0  0  0  0
  4  5  1  0  0  0  0
  5  1  2  0  0  0  0
  5 19  1  0  0  0  0
  6  2  2  0  0  0  0
  7  6  1  0  0  0  0
  7  4  2  0  0  0  0
  8  7  1  0  0  0  0
  9 12  1  0  0  0  0
 10  9  1  0  0  0  0
 11 14  2  0  0  0  0
 12 14  1  0  0  0  0
 13  9  2  0  0  0  0
 13 11  1  0  0  0  0
 14  4  1  0  0  0  0
 15 16  2  0  0  0  0
 16 13  1  0  0  0  0
 16 17  1  0  0  0  0
 18 20  2  0  0  0  0
 19 18  2  0  0  0  0
 21 20  1  1  0  0  0
 21 24  1  0  0  0  0
 24 22  2  0  0  0  0
 24 23  1  0  0  0  0
 25 27  1  0  0  0  0
 25 21  1  0  0  0  0
 26 25  2  0  0  0  0
 28 29  1  0  0  0  0
 28 27  1  0  0  0  0
 29 30  1  6  0  0  0
 31 29  1  0  0  0  0
M  END
>  <MODEL>
4

>  <REMARK>
 VINA RESULT:      -7.0      3.275      7.479
  Name = 
  8 active torsions:
  status: ('A' for Active; 'I' for Inactive)
    1  A    between atoms: C_1  and  C_12
    2  A    between atoms: C_8  and  C_16
    3  A    between atoms: C_8  and  C_28
    4  A    between atoms: C_8  and  C_30
    5  A    between atoms: C_10  and  C_29
    6  A    between atoms: C_11  and  C_26
    7  A    between atoms: C_12  and  N_24
    8  A    between atoms: C_25  and  C_27
                            x       y       z     vdW  Elec       q    Type
                         _______ _______ _______ _____ _____    ______ ____

>  <TORSDO>
F 8

$$$$
=
 OpenBabel11062420563D

 31 32  0  0  1  0  0  0  0  0999 V2000
  185.9260  179.0630  143.1510 C   0  0  0  0  0  3  0  0  0  0  0  0
  184.3900  178.8180  145.0130 C   0  0  0  0  0  3  0  0  0  0  0  0
  185.2630  179.7730  144.2780 C   0  0  0  0  0  2  0  0  0  0  0  0
  187.1870  177.5280  144.6630 C   0  0  0  0  0  0  0  0  0  0  0  0
  186.7830  178.0450  143.3160 C   0  0  0  0  0  0  0  0  0  0  0  0
  184.8840  177.7610  145.6550 C   0  0  0  0  0  3  0  0  0  0  0  0
  186.3120  177.3820  145.7000 C   0  0  0  0  0  0  0  0  0  0  0  0
  186.8090  176.6940  147.2450 Cl  0  0  0  0  0  0  0  0  0  0  0  0
  190.8740  176.9860  144.6560 C   0  0  0  0  0  0  0  0  0  0  0  0
  192.3140  177.2780  144.4000 C   0  0  0  0  0  1  0  0  0  0  0  0
  188.9580  175.9560  145.2830 N   0  0  0  0  0  0  0  0  0  0  0  0
  189.7640  177.9160  144.3200 C   0  0  0  0  0  3  0  0  0  0  0  0
  190.3730  175.8820  145.2010 C   0  0  1  0  0  3  0  0  0  0  0  0
  188.6040  177.1060  144.8050 C   0  0  0  0  0  0  0  0  0  0  0  0
  191.9090  174.8100  146.8150 O   0  0  0  0  0  1  0  0  0  0  0  0
  191.1260  174.7070  145.6730 C   0  0  0  0  0  0  0  0  0  0  0  0
  191.0720  173.6090  145.0600 O   0  0  0  0  0  0  0  0  0  0  0  0
  187.5710  176.1180  142.0050 C   0  0  0  0  0  0  0  0  0  0  0  0
  187.3840  177.4080  142.1240 C   0  0  0  0  0  3  0  0  0  0  0  0
  187.7570  174.8320  141.8840 C   0  0  0  0  0  3  0  0  0  0  0  0
  188.8480  174.2940  141.0150 C   0  0  2  0  0  3  0  0  0  0  0  0
  188.1780  174.6250  138.7330 O   0  0  0  0  0  0  0  0  0  0  0  0
  187.9990  172.4820  139.5240 O   0  0  0  0  0  1  0  0  0  0  0  0
  188.3290  173.8200  139.6910 C   0  0  0  0  0  0  0  0  0  0  0  0
  189.5990  173.2090  141.7160 C   0  0  0  0  0  0  0  0  0  0  0  0
  189.0350  172.5680  142.6420 O   0  0  0  0  0  0  0  0  0  0  0  0
  190.9510  172.9100  141.3470 N   0  0  0  0  0  2  0  0  0  0  0  0
  191.7490  171.9030  142.0330 C   0  0  0  0  0  2  0  0  0  0  0  0
  193.1590  172.4140  142.2790 C   0  0  2  0  0  3  0  0  0  0  0  0
  193.7530  171.7430  143.5040 C   0  0  0  0  0  1  0  0  0  0  0  0
  193.1220  173.7920  142.4840 O   0  0  0  0  0  1  0  0  0  0  0  0
  1  5  2  0  0  0  0
  1  3  1  0  0  0  0
  2  6  2  0  0  0  0
  3  2  1  0  0  0  0
  4 14  1  0  0  0  0
  4  7  2  0  0  0  0
  5  4  1  0  0  0  0
  6  7  1  0  0  0  0
  7  8  1  0  0  0  0
  9 13  1  0  0  0  0
 10  9  1  0  0  0  0
 12  9  2  0  0  0  0
 12 14  1  0  0  0  0
 13 11  1  0  0  0  0
 13 16  1  6  0  0  0
 14 11  2  0  0  0  0
 16 15  1  0  0  0  0
 17 16  2  0  0  0  0
 18 19  2  0  0  0  0
 19  5  1  0  0  0  0
 20 18  2  0  0  0  0
 21 25  1  0  0  0  0
 21 20  1  1  0  0  0
 22 24  2  0  0  0  0
 23 24  1  0  0  0  0
 24 21  1  0  0  0  0
 25 26  2  0  0  0  0
 27 25  1  0  0  0  0
 27 28  1  0  0  0  0
 28 29  1  0  0  0  0
 29 31  1  0  0  0  0
 29 30  1  1  0  0  0
M  END
>  <MODEL>
5

>  <REMARK>
 VINA RESULT:      -6.9      3.647      6.875
  Name = 
  8 active torsions:
  status: ('A' for Active; 'I' for Inactive)
    1  A    between atoms: C_1  and  C_12
    2  A    between atoms: C_8  and  C_16
    3  A    between atoms: C_8  and  C_28
    4  A    between atoms: C_8  and  C_30
    5  A    between atoms: C_10  and  C_29
    6  A    between atoms: C_11  and  C_26
    7  A    between atoms: C_12  and  N_24
    8  A    between atoms: C_25  and  C_27
                            x       y       z     vdW  Elec       q    Type
                         _______ _______ _______ _____ _____    ______ ____

>  <TORSDO>
F 8

$$$$
=
 OpenBabel11062420563D

 31 32  0  0  1  0  0  0  0  0999 V2000
  189.5210  172.2290  141.2570 C   0  0  0  0  0  3  0  0  0  0  0  0
  191.5120  172.6300  139.9300 C   0  0  0  0  0  3  0  0  0  0  0  0
  190.8680  171.7060  140.9030 C   0  0  0  0  0  2  0  0  0  0  0  0
  190.4360  174.3000  142.3090 C   0  0  0  0  0  0  0  0  0  0  0  0
  189.3180  173.4000  141.8780 C   0  0  0  0  0  0  0  0  0  0  0  0
  191.8200  173.8860  140.2460 C   0  0  0  0  0  3  0  0  0  0  0  0
  191.5460  174.5280  141.5500 C   0  0  0  0  0  0  0  0  0  0  0  0
  192.8020  175.6570  142.0560 Cl  0  0  0  0  0  0  0  0  0  0  0  0
  190.0800  176.6050  145.2160 C   0  0  0  0  0  0  0  0  0  0  0  0
  189.9810  177.8990  145.9510 C   0  0  0  0  0  1  0  0  0  0  0  0
  190.1920  174.3940  144.7420 N   0  0  0  0  0  0  0  0  0  0  0  0
  190.2060  176.4940  143.7390 C   0  0  0  0  0  3  0  0  0  0  0  0
  190.0760  175.3880  145.7490 C   0  0  1  0  0  3  0  0  0  0  0  0
  190.2480  175.0050  143.6030 C   0  0  0  0  0  0  0  0  0  0  0  0
  191.0510  175.2890  148.0200 O   0  0  0  0  0  1  0  0  0  0  0  0
  189.9730  175.0480  147.1790 C   0  0  0  0  0  0  0  0  0  0  0  0
  188.9220  174.5410  147.6530 O   0  0  0  0  0  0  0  0  0  0  0  0
  187.5030  175.0540  142.0360 C   0  0  0  0  0  0  0  0  0  0  0  0
  187.9340  173.8260  142.1800 C   0  0  0  0  0  3  0  0  0  0  0  0
  187.0710  176.2760  141.8920 C   0  0  0  0  0  3  0  0  0  0  0  0
  185.9420  176.7930  142.7250 C   0  0  2  0  0  3  0  0  0  0  0  0
  184.0880  178.3040  142.5140 O   0  0  0  0  0  1  0  0  0  0  0  0
  185.4860  178.1820  140.7020 O   0  0  0  0  0  0  0  0  0  0  0  0
  185.1170  177.8040  141.9860 C   0  0  0  0  0  0  0  0  0  0  0  0
  186.4450  177.3520  144.0160 C   0  0  0  0  0  0  0  0  0  0  0  0
  187.2860  178.2910  143.9940 O   0  0  0  0  0  0  0  0  0  0  0  0
  185.9870  176.8180  145.2630 N   0  0  0  0  0  2  0  0  0  0  0  0
  186.4860  177.2860  146.5490 C   0  0  0  0  0  2  0  0  0  0  0  0
  185.4200  178.0890  147.2770 C   0  0  2  0  0  3  0  0  0  0  0  0
  184.2160  178.2960  146.3780 C   0  0  0  0  0  1  0  0  0  0  0  0
  185.9420  179.3300  147.6380 O   0  0  0  0  0  1  0  0  0  0  0  0
  1  5  2  0  0  0  0
  2  6  2  0  0  0  0
  2  3  1  0  0  0  0
  3  1  1  0  0  0  0
  4 14  1  0  0  0  0
  5 19  1  0  0  0  0
  5  4  1  0  0  0  0
  6  7  1  0  0  0  0
  7  8  1  0  0  0  0
  7  4  2  0  0  0  0
  9 13  1  0  0  0  0
  9 10  1  0  0  0  0
 11 13  1  0  0  0  0
 12  9  2  0  0  0  0
 13 16  1  1  0  0  0
 14 12  1  0  0  0  0
 14 11  2  0  0  0  0
 16 17  2  0  0  0  0
 16 15  1  0  0  0  0
 18 19  2  0  0  0  0
 20 18  2  0  0  0  0
 21 20  1  6  0  0  0
 21 25  1  0  0  0  0
 23 24  2  0  0  0  0
 24 22  1  0  0  0  0
 24 21  1  0  0  0  0
 25 27  1  0  0  0  0
 26 25  2  0  0  0  0
 27 28  1  0  0  0  0
 28 29  1  0  0  0  0
 29 30  1  6  0  0  0
 29 31  1  0  0  0  0
M  END
>  <MODEL>
6

>  <REMARK>
 VINA RESULT:      -6.9      1.994      3.890
  Name = 
  8 active torsions:
  status: ('A' for Active; 'I' for Inactive)
    1  A    between atoms: C_1  and  C_12
    2  A    between atoms: C_8  and  C_16
    3  A    between atoms: C_8  and  C_28
    4  A    between atoms: C_8  and  C_30
    5  A    between atoms: C_10  and  C_29
    6  A    between atoms: C_11  and  C_26
    7  A    between atoms: C_12  and  N_24
    8  A    between atoms: C_25  and  C_27
                            x       y       z     vdW  Elec       q    Type
                         _______ _______ _______ _____ _____    ______ ____

>  <TORSDO>
F 8

$$$$
=
 OpenBabel11062420563D

 31 32  0  0  1  0  0  0  0  0999 V2000
  185.2490  179.0250  145.6380 C   0  0  0  0  0  3  0  0  0  0  0  0
  185.3760  178.2640  147.9380 C   0  0  0  0  0  3  0  0  0  0  0  0
  185.6840  179.3890  147.0130 C   0  0  0  0  0  2  0  0  0  0  0  0
  186.8640  177.1290  145.4680 C   0  0  0  0  0  0  0  0  0  0  0  0
  185.7670  178.0030  144.9410 C   0  0  0  0  0  0  0  0  0  0  0  0
  185.9530  177.0700  147.8140 C   0  0  0  0  0  3  0  0  0  0  0  0
  186.9190  176.6960  146.7600 C   0  0  0  0  0  0  0  0  0  0  0  0
  188.1840  175.6030  147.3200 Cl  0  0  0  0  0  0  0  0  0  0  0  0
  189.7740  176.4990  143.2250 C   0  0  0  0  0  0  0  0  0  0  0  0
  191.1540  176.6410  142.6780 C   0  0  0  0  0  1  0  0  0  0  0  0
  187.6260  175.8490  143.5260 N   0  0  0  0  0  0  0  0  0  0  0  0
  189.2710  177.2350  144.4150 C   0  0  0  0  0  2  0  0  0  0  0  0
  188.8070  175.7220  142.7490 C   0  0  0  0  0  0  0  0  0  0  0  0
  187.8810  176.6870  144.4790 C   0  0  0  0  0  0  0  0  0  0  0  0
  189.6400  173.6670  141.6530 O   0  0  0  0  0  1  0  0  0  0  0  0
  188.8850  174.8300  141.5780 C   0  0  0  0  0  0  0  0  0  0  0  0
  188.2760  175.1020  140.5100 O   0  0  0  0  0  0  0  0  0  0  0  0
  184.1260  178.1950  143.1180 C   0  0  0  0  0  0  0  0  0  0  0  0
  185.2580  177.7270  143.5800 C   0  0  0  0  0  3  0  0  0  0  0  0
  182.9990  178.6620  142.6540 C   0  0  0  0  0  3  0  0  0  0  0  0
  182.2470  177.9300  141.5890 C   0  0  2  0  0  3  0  0  0  0  0  0
  182.6130  177.1660  139.3430 O   0  0  0  0  0  0  0  0  0  0  0  0
  184.1310  178.6870  140.1390 O   0  0  0  0  0  1  0  0  0  0  0  0
  182.9960  177.9020  140.2910 C   0  0  0  0  0  0  0  0  0  0  0  0
  180.8820  178.5110  141.4080 C   0  0  0  0  0  0  0  0  0  0  0  0
  179.9040  177.9830  142.0030 O   0  0  0  0  0  0  0  0  0  0  0  0
  180.6860  179.6470  140.5580 N   0  0  0  0  0  2  0  0  0  0  0  0
  179.3710  180.2190  140.3010 C   0  0  0  0  0  2  0  0  0  0  0  0
  179.4980  181.6490  139.8010 C   0  0  2  0  0  3  0  0  0  0  0  0
  178.3730  182.5010  140.3580 C   0  0  0  0  0  1  0  0  0  0  0  0
  179.4360  181.6580  138.4080 O   0  0  0  0  0  1  0  0  0  0  0  0
  1  3  1  0  0  0  0
  3  2  1  0  0  0  0
  4  7  2  0  0  0  0
  5  4  1  0  0  0  0
  5  1  2  0  0  0  0
  6  2  2  0  0  0  0
  7  8  1  0  0  0  0
  7  6  1  0  0  0  0
  9 12  1  0  0  0  0
 10  9  1  0  0  0  0
 11 14  2  0  0  0  0
 12 14  1  0  0  0  0
 13  9  2  0  0  0  0
 13 11  1  0  0  0  0
 14  4  1  0  0  0  0
 16 15  1  0  0  0  0
 16 13  1  0  0  0  0
 17 16  2  0  0  0  0
 18 19  2  0  0  0  0
 19  5  1  0  0  0  0
 20 18  2  0  0  0  0
 21 20  1  1  0  0  0
 22 24  2  0  0  0  0
 23 24  1  0  0  0  0
 24 21  1  0  0  0  0
 25 21  1  0  0  0  0
 25 26  2  0  0  0  0
 27 25  1  0  0  0  0
 28 27  1  0  0  0  0
 29 28  1  0  0  0  0
 29 30  1  1  0  0  0
 31 29  1  0  0  0  0
M  END
>  <MODEL>
7

>  <REMARK>
 VINA RESULT:      -6.8      3.791      6.402
  Name = 
  8 active torsions:
  status: ('A' for Active; 'I' for Inactive)
    1  A    between atoms: C_1  and  C_12
    2  A    between atoms: C_8  and  C_16
    3  A    between atoms: C_8  and  C_28
    4  A    between atoms: C_8  and  C_30
    5  A    between atoms: C_10  and  C_29
    6  A    between atoms: C_11  and  C_26
    7  A    between atoms: C_12  and  N_24
    8  A    between atoms: C_25  and  C_27
                            x       y       z     vdW  Elec       q    Type
                         _______ _______ _______ _____ _____    ______ ____

>  <TORSDO>
F 8

$$$$
=
 OpenBabel11062420563D

 31 32  0  0  1  0  0  0  0  0999 V2000
  188.3860  174.4720  140.8010 C   0  0  0  0  0  3  0  0  0  0  0  0
  190.1710  173.2840  139.6650 C   0  0  0  0  0  3  0  0  0  0  0  0
  188.8090  173.1560  140.2510 C   0  0  0  0  0  2  0  0  0  0  0  0
  190.2040  174.5080  142.5130 C   0  0  0  0  0  0  0  0  0  0  0  0
  189.0150  175.0920  141.8100 C   0  0  0  0  0  0  0  0  0  0  0  0
  191.2340  173.5830  140.4100 C   0  0  0  0  0  3  0  0  0  0  0  0
  191.2080  173.8530  141.8630 C   0  0  0  0  0  0  0  0  0  0  0  0
  192.6280  173.2510  142.7160 Cl  0  0  0  0  0  0  0  0  0  0  0  0
  189.8210  174.7740  146.2110 C   0  0  0  0  0  0  0  0  0  0  0  0
  189.2330  174.5370  147.5600 C   0  0  0  0  0  1  0  0  0  0  0  0
  191.1300  175.5390  144.5300 N   0  0  0  0  0  0  0  0  0  0  0  0
  189.3100  174.1540  144.9600 C   0  0  0  0  0  3  0  0  0  0  0  0
  190.8560  175.5550  145.9220 C   0  0  1  0  0  3  0  0  0  0  0  0
  190.2760  174.7390  143.9780 C   0  0  0  0  0  0  0  0  0  0  0  0
  193.0290  176.4320  146.7140 O   0  0  0  0  0  0  0  0  0  0  0  0
  191.6510  176.3560  146.8700 C   0  0  0  0  0  0  0  0  0  0  0  0
  191.1030  176.9750  147.8190 O   0  0  0  0  0  1  0  0  0  0  0  0
  187.2640  176.6280  142.6010 C   0  0  0  0  0  0  0  0  0  0  0  0
  188.5120  176.4010  142.2780 C   0  0  0  0  0  3  0  0  0  0  0  0
  186.0200  176.8550  142.9250 C   0  0  0  0  0  3  0  0  0  0  0  0
  185.4350  178.2260  142.8060 C   0  0  2  0  0  3  0  0  0  0  0  0
  184.6270  177.8840  145.0410 O   0  0  0  0  0  1  0  0  0  0  0  0
  184.4880  180.0290  144.2470 O   0  0  0  0  0  0  0  0  0  0  0  0
  184.8330  178.6930  144.0970 C   0  0  0  0  0  0  0  0  0  0  0  0
  184.4370  178.2830  141.6960 C   0  0  0  0  0  0  0  0  0  0  0  0
  184.8410  178.4110  140.5100 O   0  0  0  0  0  0  0  0  0  0  0  0
  183.0350  178.2060  141.9790 N   0  0  0  0  0  2  0  0  0  0  0  0
  182.0160  178.3140  140.9440 C   0  0  0  0  0  2  0  0  0  0  0  0
  180.7590  178.9670  141.4960 C   0  0  2  0  0  3  0  0  0  0  0  0
  179.6590  177.9350  141.6550 C   0  0  0  0  0  1  0  0  0  0  0  0
  180.3320  179.9620  140.6180 O   0  0  0  0  0  1  0  0  0  0  0  0
  1  5  2  0  0  0  0
  2  3  1  0  0  0  0
  2  6  2  0  0  0  0
  3  1  1  0  0  0  0
  4 14  1  0  0  0  0
  5 19  1  0  0  0  0
  5  4  1  0  0  0  0
  6  7  1  0  0  0  0
  7  4  2  0  0  0  0
  7  8  1  0  0  0  0
  9 10  1  0  0  0  0
 11 13  1  0  0  0  0
 12  9  2  0  0  0  0
 13  9  1  0  0  0  0
 13 16  1  6  0  0  0
 14 11  2  0  0  0  0
 14 12  1  0  0  0  0
 15 16  2  0  0  0  0
 16 17  1  0  0  0  0
 18 20  2  0  0  0  0
 19 18  2  0  0  0  0
 21 20  1  1  0  0  0
 21 24  1  0  0  0  0
 24 23  2  0  0  0  0
 24 22  1  0  0  0  0
 25 27  1  0  0  0  0
 25 21  1  0  0  0  0
 26 25  2  0  0  0  0
 28 29  1  0  0  0  0
 28 27  1  0  0  0  0
 29 30  1  6  0  0  0
 31 29  1  0  0  0  0
M  END
>  <MODEL>
8

>  <REMARK>
 VINA RESULT:      -6.7      1.852      2.664
  Name = 
  8 active torsions:
  status: ('A' for Active; 'I' for Inactive)
    1  A    between atoms: C_1  and  C_12
    2  A    between atoms: C_8  and  C_16
    3  A    between atoms: C_8  and  C_28
    4  A    between atoms: C_8  and  C_30
    5  A    between atoms: C_10  and  C_29
    6  A    between atoms: C_11  and  C_26
    7  A    between atoms: C_12  and  N_24
    8  A    between atoms: C_25  and  C_27
                            x       y       z     vdW  Elec       q    Type
                         _______ _______ _______ _____ _____    ______ ____

>  <TORSDO>
F 8

$$$$
=
 OpenBabel11062420563D

 31 32  0  0  1  0  0  0  0  0999 V2000
  190.0570  172.0910  141.1130 C   0  0  0  0  0  3  0  0  0  0  0  0
  192.0880  170.7650  141.1280 C   0  0  0  0  0  3  0  0  0  0  0  0
  190.6090  170.7190  141.2800 C   0  0  0  0  0  2  0  0  0  0  0  0
  191.2360  172.9720  143.1290 C   0  0  0  0  0  0  0  0  0  0  0  0
  190.3440  173.1120  141.9330 C   0  0  0  0  0  0  0  0  0  0  0  0
  192.8650  171.4380  141.9750 C   0  0  0  0  0  3  0  0  0  0  0  0
  192.3820  172.2340  143.1230 C   0  0  0  0  0  0  0  0  0  0  0  0
  193.4470  172.1610  144.5270 Cl  0  0  0  0  0  0  0  0  0  0  0  0
  189.7990  174.4630  146.2290 C   0  0  0  0  0  0  0  0  0  0  0  0
  188.9430  174.5650  147.4450 C   0  0  0  0  0  1  0  0  0  0  0  0
  191.2820  174.9390  144.5860 N   0  0  0  0  0  0  0  0  0  0  0  0
  189.8240  173.2820  145.3250 C   0  0  0  0  0  3  0  0  0  0  0  0
  190.6410  175.3830  145.7720 C   0  0  1  0  0  3  0  0  0  0  0  0
  190.8430  173.7480  144.3330 C   0  0  0  0  0  0  0  0  0  0  0  0
  191.7170  176.7910  147.4970 O   0  0  0  0  0  1  0  0  0  0  0  0
  190.9170  176.7030  146.3650 C   0  0  0  0  0  0  0  0  0  0  0  0
  190.4410  177.7550  145.8640 O   0  0  0  0  0  0  0  0  0  0  0  0
  188.7210  174.9160  142.3380 C   0  0  0  0  0  0  0  0  0  0  0  0
  189.7410  174.4380  141.6730 C   0  0  0  0  0  3  0  0  0  0  0  0
  187.7040  175.3960  143.0010 C   0  0  0  0  0  3  0  0  0  0  0  0
  186.7760  176.3860  142.3710 C   0  0  2  0  0  3  0  0  0  0  0  0
  187.2750  177.8160  140.5080 O   0  0  0  0  0  0  0  0  0  0  0  0
  188.4930  178.1960  142.4110 O   0  0  0  0  0  1  0  0  0  0  0  0
  187.5190  177.5050  141.7050 C   0  0  0  0  0  0  0  0  0  0  0  0
  185.8000  176.9110  143.3720 C   0  0  0  0  0  0  0  0  0  0  0  0
  184.8120  177.5840  142.9750 O   0  0  0  0  0  0  0  0  0  0  0  0
  185.9920  176.6620  144.7700 N   0  0  0  0  0  2  0  0  0  0  0  0
  185.1050  177.1970  145.7930 C   0  0  0  0  0  2  0  0  0  0  0  0
  185.7880  178.3170  146.5620 C   0  0  2  0  0  3  0  0  0  0  0  0
  187.1540  177.8650  147.0420 C   0  0  0  0  0  1  0  0  0  0  0  0
  185.0060  178.6660  147.6620 O   0  0  0  0  0  1  0  0  0  0  0  0
  1  3  1  0  0  0  0
  1  5  2  0  0  0  0
  2  3  1  0  0  0  0
  2  6  2  0  0  0  0
  4 14  1  0  0  0  0
  5  4  1  0  0  0  0
  6  7  1  0  0  0  0
  7  4  2  0  0  0  0
  7  8  1  0  0  0  0
  9 10  1  0  0  0  0
 11 13  1  0  0  0  0
 12  9  2  0  0  0  0
 13  9  1  0  0  0  0
 13 16  1  6  0  0  0
 14 11  2  0  0  0  0
 14 12  1  0  0  0  0
 16 15  1  0  0  0  0
 17 16  2  0  0  0  0
 18 20  2  0  0  0  0
 19  5  1  0  0  0  0
 19 18  2  0  0  0  0
 21 20  1  1  0  0  0
 21 25  1  0  0  0  0
 22 24  2  0  0  0  0
 24 21  1  0  0  0  0
 24 23  1  0  0  0  0
 25 27  1  0  0  0  0
 26 25  2  0  0  0  0
 27 28  1  0  0  0  0
 28 29  1  0  0  0  0
 29 30  1  1  0  0  0
 29 31  1  0  0  0  0
M  END
>  <MODEL>
9

>  <REMARK>
 VINA RESULT:      -6.7      2.218      3.916
  Name = 
  8 active torsions:
  status: ('A' for Active; 'I' for Inactive)
    1  A    between atoms: C_1  and  C_12
    2  A    between atoms: C_8  and  C_16
    3  A    between atoms: C_8  and  C_28
    4  A    between atoms: C_8  and  C_30
    5  A    between atoms: C_10  and  C_29
    6  A    between atoms: C_11  and  C_26
    7  A    between atoms: C_12  and  N_24
    8  A    between atoms: C_25  and  C_27
                            x       y       z     vdW  Elec       q    Type
                         _______ _______ _______ _____ _____    ______ ____

>  <TORSDO>
F 8

$$$$
