=
 OpenBabel11062420033D

 42 45  0  0  1  0  0  0  0  0999 V2000
  190.5270  173.9790  145.5600 C   0  0  0  0  0  0  0  0  0  0  0  0
  192.3930  176.6620  147.2210 O   0  0  0  0  0  0  0  0  0  0  0  0
  195.6240  174.6980  145.4000 C   0  0  0  0  0  3  0  0  0  0  0  0
  191.6460  173.2370  145.0320 N   0  0  0  0  0  0  0  0  0  0  0  0
  189.3700  173.4860  145.5280 O   0  0  0  0  0  0  0  0  0  0  0  0
  192.9920  173.7420  145.1490 C   0  0  0  0  0  0  0  0  0  0  0  0
  195.3760  173.5210  144.6960 C   0  0  0  0  0  3  0  0  0  0  0  0
  194.5660  175.4010  145.9740 C   0  0  0  0  0  3  0  0  0  0  0  0
  190.7220  175.3400  146.1630 C   0  0  1  0  0  3  0  0  0  0  0  0
  193.2500  174.9360  145.8460 C   0  0  0  0  0  0  0  0  0  0  0  0
  194.0680  173.0470  144.5710 C   0  0  0  0  0  3  0  0  0  0  0  0
  192.1480  175.6980  146.4500 C   0  0  0  0  0  0  0  0  0  0  0  0
  189.6790  178.0610  143.6430 C   0  0  0  0  0  2  0  0  0  0  0  0
  188.1630  176.0500  144.0340 C   0  0  1  0  0  3  0  0  0  0  0  0
  187.6970  176.3910  145.3990 C   0  0  0  0  0  0  0  0  0  0  0  0
  188.6590  176.6520  146.2140 N   0  0  0  0  0  0  0  0  0  0  0  0
  187.4260  178.0400  142.5680 C   0  0  2  0  0  3  0  0  0  0  0  0
  187.2560  176.5570  142.9030 C   0  0  0  0  0  2  0  0  0  0  0  0
  189.9450  176.5260  145.5470 C   0  0  2  0  0  3  0  0  0  0  0  0
  189.6200  176.5620  144.0340 C   0  0  2  0  0  0  0  0  0  0  0  0
  188.8970  178.3750  142.3780 C   0  0  0  0  0  2  0  0  0  0  0  0
  186.7800  178.9520  143.6130 C   0  0  0  0  0  2  0  0  0  0  0  0
  185.2720  178.9500  143.4560 C   0  0  0  0  0  1  0  0  0  0  0  0
  186.3530  176.4040  145.7850 O   0  0  0  0  0  0  0  0  0  0  0  0
  185.8970  177.1860  146.8710 C   0  0  0  0  0  1  0  0  0  0  0  0
  190.4320  175.6740  143.2700 O   0  0  0  0  0  0  0  0  0  0  0  0
  191.5920  176.2940  142.7650 C   0  0  0  0  0  2  0  0  0  0  0  0
  192.4590  175.2820  142.0350 C   0  0  0  0  0  1  0  0  0  0  0  0
  191.4170  171.9200  144.4460 C   0  0  0  0  0  2  0  0  0  0  0  0
  191.0270  172.0560  142.9840 C   0  0  2  0  0  3  0  0  0  0  0  0
  187.6050  172.5260  141.7430 O   0  0  0  0  0  0  0  0  0  0  0  0
  189.5800  172.0410  142.8640 N   0  0  0  0  0  2  0  0  0  0  0  0
  188.8490  172.6970  141.8150 C   0  0  0  0  0  0  0  0  0  0  0  0
  189.5040  173.5870  140.8020 C   0  0  2  0  0  3  0  0  0  0  0  0
  188.9250  174.8410  140.7750 F   0  0  0  0  0  0  0  0  0  0  0  0
  188.1530  173.1650  138.3050 O   0  0  0  0  0  1  0  0  0  0  0  0
  189.5880  172.8450  139.1450 P   0  0  0  0  0  0  0  0  0  0  0  0
  189.7630  171.3490  139.2660 O   0  0  0  0  0  1  0  0  0  0  0  0
  190.8890  173.4740  138.2740 O   0  0  0  0  0  0  0  0  0  0  0  0
  190.9200  169.7750  141.9780 O   0  0  0  0  0  1  0  0  0  0  0  0
  192.7720  171.0850  141.6600 O   0  0  0  0  0  0  0  0  0  0  0  0
  191.6350  170.9490  142.1830 C   0  0  0  0  0  0  0  0  0  0  0  0
  3  8  1  0  0  0  0
  4  6  1  0  0  0  0
  4  1  1  0  0  0  0
  5  1  2  0  0  0  0
  6 10  1  0  0  0  0
  7  3  2  0  0  0  0
  9  1  1  6  0  0  0
  9 12  1  0  0  0  0
 10  8  2  0  0  0  0
 10 12  1  0  0  0  0
 11  7  1  0  0  0  0
 11  6  2  0  0  0  0
 12  2  2  0  0  0  0
 13 20  1  0  0  0  0
 14 18  1  6  0  0  0
 14 15  1  0  0  0  0
 15 24  1  0  0  0  0
 15 16  2  0  0  0  0
 17 18  1  0  0  0  0
 17 22  1  1  0  0  0
 19  9  1  0  0  0  0
 19 16  1  1  0  0  0
 20 26  1  6  0  0  0
 20 14  1  0  0  0  0
 20 19  1  0  0  0  0
 21 17  1  0  0  0  0
 21 13  1  0  0  0  0
 23 22  1  0  0  0  0
 24 25  1  0  0  0  0
 27 26  1  0  0  0  0
 28 27  1  0  0  0  0
 29  4  1  0  0  0  0
 30 29  1  1  0  0  0
 31 33  2  0  0  0  0
 32 30  1  0  0  0  0
 33 32  1  0  0  0  0
 34 35  1  6  0  0  0
 34 33  1  0  0  0  0
 36 37  1  0  0  0  0
 37 38  1  0  0  0  0
 37 34  1  0  0  0  0
 39 37  2  0  0  0  0
 40 42  1  0  0  0  0
 41 42  2  0  0  0  0
 42 30  1  0  0  0  0
M  END
>  <MODEL>
1

>  <REMARK>
 VINA RESULT:      -6.6      0.000      0.000
  Name = 
  11 active torsions:
  status: ('A' for Active; 'I' for Inactive)
    1  A    between atoms: C_4  and  C_31
    2  A    between atoms: C_5  and  O_18
    3  A    between atoms: N_9  and  C_22
    4  A    between atoms: P_10  and  C_11
    5  A    between atoms: C_11  and  C_40
    6  A    between atoms: C_14  and  O_21
    7  A    between atoms: CA_15  and  C_22
    8  A    between atoms: CA_15  and  N_25
    9  A    between atoms: CA_15  and  C_42
   10  A    between atoms: O_18  and  C_38
   11  A    between atoms: C_28  and  C_35
                            x       y       z     vdW  Elec       q    Type
                         _______ _______ _______ _____ _____    ______ ____

>  <TORSDO>
F 11

$$$$
=
 OpenBabel11062420033D

 42 45  0  0  1  0  0  0  0  0999 V2000
  193.3830  174.5740  145.9400 C   0  0  0  0  0  0  0  0  0  0  0  0
  194.9510  177.8520  145.4500 O   0  0  0  0  0  0  0  0  0  0  0  0
  197.4460  175.5920  142.9430 C   0  0  0  0  0  3  0  0  0  0  0  0
  194.3100  173.7780  145.1730 N   0  0  0  0  0  0  0  0  0  0  0  0
  192.5230  174.0160  146.6700 O   0  0  0  0  0  0  0  0  0  0  0  0
  195.3650  174.3990  144.4100 C   0  0  0  0  0  0  0  0  0  0  0  0
  197.2540  174.2130  142.8820 C   0  0  0  0  0  3  0  0  0  0  0  0
  196.6020  176.3770  143.7270 C   0  0  0  0  0  3  0  0  0  0  0  0
  193.4330  176.0740  145.8910 C   0  0  1  0  0  3  0  0  0  0  0  0
  195.5570  175.7910  144.4540 C   0  0  0  0  0  0  0  0  0  0  0  0
  196.2200  173.6210  143.6100 C   0  0  0  0  0  3  0  0  0  0  0  0
  194.6720  176.6380  145.2670 C   0  0  0  0  0  0  0  0  0  0  0  0
  190.8420  177.6990  143.5490 C   0  0  0  0  0  2  0  0  0  0  0  0
  190.2560  175.5500  144.7870 C   0  0  1  0  0  3  0  0  0  0  0  0
  190.1510  176.1100  146.1550 C   0  0  0  0  0  0  0  0  0  0  0  0
  191.1790  176.8030  146.5010 N   0  0  0  0  0  0  0  0  0  0  0  0
  188.5000  176.8440  143.4100 C   0  0  2  0  0  3  0  0  0  0  0  0
  188.9300  175.5050  144.0110 C   0  0  0  0  0  2  0  0  0  0  0  0
  192.1640  176.8290  145.4320 C   0  0  2  0  0  3  0  0  0  0  0  0
  191.3940  176.3880  144.1640 C   0  0  2  0  0  0  0  0  0  0  0  0
  189.6490  177.4700  142.6340 C   0  0  0  0  0  2  0  0  0  0  0  0
  187.9520  177.8080  144.4630 C   0  0  0  0  0  2  0  0  0  0  0  0
  186.6020  177.3320  144.9620 C   0  0  0  0  0  1  0  0  0  0  0  0
  189.0650  175.8900  147.0080 O   0  0  0  0  0  0  0  0  0  0  0  0
  188.8230  174.6270  147.5960 C   0  0  0  0  0  1  0  0  0  0  0  0
  192.1700  175.5610  143.3010 O   0  0  0  0  0  0  0  0  0  0  0  0
  192.7790  176.2820  142.2550 C   0  0  0  0  0  2  0  0  0  0  0  0
  193.5670  175.3470  141.3540 C   0  0  0  0  0  1  0  0  0  0  0  0
  194.2270  172.3220  145.2400 C   0  0  0  0  0  2  0  0  0  0  0  0
  193.3880  171.7910  144.0900 C   0  0  2  0  0  3  0  0  0  0  0  0
  189.7270  171.9910  143.9330 O   0  0  0  0  0  0  0  0  0  0  0  0
  191.9830  171.8270  144.4560 N   0  0  0  0  0  2  0  0  0  0  0  0
  190.9150  172.0930  143.5320 C   0  0  0  0  0  0  0  0  0  0  0  0
  191.1520  172.5000  142.1090 C   0  0  2  0  0  3  0  0  0  0  0  0
  190.3190  173.5340  141.7290 F   0  0  0  0  0  0  0  0  0  0  0  0
  192.5810  170.9060  140.1980 O   0  0  0  0  0  1  0  0  0  0  0  0
  191.0750  171.1050  140.9450 P   0  0  0  0  0  0  0  0  0  0  0  0
  190.0330  171.3840  139.8860 O   0  0  0  0  0  0  0  0  0  0  0  0
  190.6650  169.6790  141.7490 O   0  0  0  0  0  1  0  0  0  0  0  0
  193.1570  169.3180  144.3320 O   0  0  0  0  0  1  0  0  0  0  0  0
  194.7190  170.1930  142.9020 O   0  0  0  0  0  0  0  0  0  0  0  0
  193.8080  170.3980  143.7460 C   0  0  0  0  0  0  0  0  0  0  0  0
  1  5  2  0  0  0  0
  3  8  1  0  0  0  0
  4 29  1  0  0  0  0
  4  1  1  0  0  0  0
  6 10  1  0  0  0  0
  6  4  1  0  0  0  0
  7  3  2  0  0  0  0
  7 11  1  0  0  0  0
  8 10  2  0  0  0  0
  9 12  1  6  0  0  0
  9  1  1  0  0  0  0
 10 12  1  0  0  0  0
 11  6  2  0  0  0  0
 12  2  2  0  0  0  0
 13 20  1  0  0  0  0
 14 18  1  6  0  0  0
 14 15  1  0  0  0  0
 15 16  2  0  0  0  0
 15 24  1  0  0  0  0
 17 18  1  0  0  0  0
 17 22  1  1  0  0  0
 19  9  1  0  0  0  0
 19 16  1  1  0  0  0
 20 26  1  6  0  0  0
 20 14  1  0  0  0  0
 20 19  1  0  0  0  0
 21 17  1  0  0  0  0
 21 13  1  0  0  0  0
 22 23  1  0  0  0  0
 24 25  1  0  0  0  0
 27 26  1  0  0  0  0
 28 27  1  0  0  0  0
 30 32  1  0  0  0  0
 30 29  1  1  0  0  0
 33 31  2  0  0  0  0
 33 32  1  0  0  0  0
 34 35  1  6  0  0  0
 34 33  1  0  0  0  0
 36 37  1  0  0  0  0
 37 39  1  0  0  0  0
 37 34  1  0  0  0  0
 38 37  2  0  0  0  0
 41 42  2  0  0  0  0
 42 30  1  0  0  0  0
 42 40  1  0  0  0  0
M  END
>  <MODEL>
2

>  <REMARK>
 VINA RESULT:      -6.3      1.910      2.768
  Name = 
  11 active torsions:
  status: ('A' for Active; 'I' for Inactive)
    1  A    between atoms: C_4  and  C_31
    2  A    between atoms: C_5  and  O_18
    3  A    between atoms: N_9  and  C_22
    4  A    between atoms: P_10  and  C_11
    5  A    between atoms: C_11  and  C_40
    6  A    between atoms: C_14  and  O_21
    7  A    between atoms: CA_15  and  C_22
    8  A    between atoms: CA_15  and  N_25
    9  A    between atoms: CA_15  and  C_42
   10  A    between atoms: O_18  and  C_38
   11  A    between atoms: C_28  and  C_35
                            x       y       z     vdW  Elec       q    Type
                         _______ _______ _______ _____ _____    ______ ____

>  <TORSDO>
F 11

$$$$
=
 OpenBabel11062420033D

 42 45  0  0  1  0  0  0  0  0999 V2000
  191.2430  174.5260  142.9660 C   0  0  0  0  0  0  0  0  0  0  0  0
  190.0490  174.5890  146.4310 O   0  0  0  0  0  0  0  0  0  0  0  0
  193.6710  176.6360  146.9870 C   0  0  0  0  0  3  0  0  0  0  0  0
  192.5390  175.1230  143.1760 N   0  0  0  0  0  0  0  0  0  0  0  0
  190.9630  173.9970  141.8590 O   0  0  0  0  0  0  0  0  0  0  0  0
  192.9140  175.6450  144.4680 C   0  0  0  0  0  0  0  0  0  0  0  0
  194.5280  176.7800  145.8980 C   0  0  0  0  0  3  0  0  0  0  0  0
  192.4380  176.0060  146.8240 C   0  0  0  0  0  3  0  0  0  0  0  0
  190.2140  174.5130  144.0590 C   0  0  1  0  0  3  0  0  0  0  0  0
  192.0490  175.5170  145.5690 C   0  0  0  0  0  0  0  0  0  0  0  0
  194.1500  176.2880  144.6460 C   0  0  0  0  0  3  0  0  0  0  0  0
  190.7410  174.8640  145.4160 C   0  0  0  0  0  0  0  0  0  0  0  0
  187.3290  177.0580  144.2640 C   0  0  0  0  0  2  0  0  0  0  0  0
  188.7570  176.9310  142.1570 C   0  0  1  0  0  3  0  0  0  0  0  0
  188.2720  175.6270  141.6450 C   0  0  0  0  0  0  0  0  0  0  0  0
  188.3190  174.6870  142.5230 N   0  0  0  0  0  0  0  0  0  0  0  0
  186.6500  178.4140  142.2810 C   0  0  2  0  0  3  0  0  0  0  0  0
  188.0010  178.1530  141.6120 C   0  0  0  0  0  2  0  0  0  0  0  0
  188.8500  175.1860  143.7810 C   0  0  2  0  0  3  0  0  0  0  0  0
  188.7300  176.7260  143.6880 C   0  0  2  0  0  0  0  0  0  0  0  0
  186.7970  178.4030  143.7940 C   0  0  0  0  0  2  0  0  0  0  0  0
  185.5710  177.4330  141.8210 C   0  0  0  0  0  2  0  0  0  0  0  0
  184.1920  178.0160  142.0590 C   0  0  0  0  0  1  0  0  0  0  0  0
  187.8340  175.4170  140.3340 O   0  0  0  0  0  0  0  0  0  0  0  0
  188.3480  174.3690  139.5350 C   0  0  0  0  0  1  0  0  0  0  0  0
  189.8350  177.4080  144.2750 O   0  0  0  0  0  0  0  0  0  0  0  0
  190.5930  178.1300  143.3320 C   0  0  0  0  0  2  0  0  0  0  0  0
  191.5770  179.0490  144.0370 C   0  0  0  0  0  1  0  0  0  0  0  0
  193.5110  175.1230  142.0870 C   0  0  0  0  0  2  0  0  0  0  0  0
  194.1810  173.7630  141.9820 C   0  0  2  0  0  3  0  0  0  0  0  0
  197.2950  173.3630  143.8830 O   0  0  0  0  0  0  0  0  0  0  0  0
  195.5610  173.8660  142.4230 N   0  0  0  0  0  2  0  0  0  0  0  0
  196.0600  173.3130  143.6520 C   0  0  0  0  0  0  0  0  0  0  0  0
  195.1700  172.6830  144.6810 C   0  0  2  0  0  3  0  0  0  0  0  0
  195.1040  173.4420  145.8320 F   0  0  0  0  0  0  0  0  0  0  0  0
  196.0060  170.1610  143.5950 O   0  0  0  0  0  0  0  0  0  0  0  0
  195.6000  170.9520  145.0350 P   0  0  0  0  0  0  0  0  0  0  0  0
  194.4170  170.2530  145.6640 O   0  0  0  0  0  1  0  0  0  0  0  0
  196.9080  170.8680  146.0980 O   0  0  0  0  0  1  0  0  0  0  0  0
  193.6920  174.1150  139.5600 O   0  0  0  0  0  0  0  0  0  0  0  0
  194.4700  172.0890  140.2940 O   0  0  0  0  0  1  0  0  0  0  0  0
  194.1130  173.2630  140.5750 C   0  0  0  0  0  0  0  0  0  0  0  0
  1  4  1  0  0  0  0
  4  6  1  0  0  0  0
  5  1  2  0  0  0  0
  6 11  2  0  0  0  0
  6 10  1  0  0  0  0
  7  3  2  0  0  0  0
  8  3  1  0  0  0  0
  9  1  1  6  0  0  0
  9 12  1  0  0  0  0
 10  8  2  0  0  0  0
 11  7  1  0  0  0  0
 12 10  1  0  0  0  0
 12  2  2  0  0  0  0
 14 18  1  1  0  0  0
 14 20  1  0  0  0  0
 15 14  1  0  0  0  0
 15 16  2  0  0  0  0
 17 22  1  1  0  0  0
 17 21  1  0  0  0  0
 18 17  1  0  0  0  0
 19 16  1  6  0  0  0
 19  9  1  0  0  0  0
 20 19  1  0  0  0  0
 20 13  1  0  0  0  0
 20 26  1  1  0  0  0
 21 13  1  0  0  0  0
 22 23  1  0  0  0  0
 24 15  1  0  0  0  0
 25 24  1  0  0  0  0
 27 28  1  0  0  0  0
 27 26  1  0  0  0  0
 29  4  1  0  0  0  0
 30 29  1  6  0  0  0
 30 32  1  0  0  0  0
 32 33  1  0  0  0  0
 33 31  2  0  0  0  0
 33 34  1  0  0  0  0
 34 37  1  0  0  0  0
 34 35  1  1  0  0  0
 36 37  2  0  0  0  0
 37 38  1  0  0  0  0
 37 39  1  0  0  0  0
 40 42  2  0  0  0  0
 41 42  1  0  0  0  0
 42 30  1  0  0  0  0
M  END
>  <MODEL>
3

>  <REMARK>
 VINA RESULT:      -6.0      3.021      4.962
  Name = 
  11 active torsions:
  status: ('A' for Active; 'I' for Inactive)
    1  A    between atoms: C_4  and  C_31
    2  A    between atoms: C_5  and  O_18
    3  A    between atoms: N_9  and  C_22
    4  A    between atoms: P_10  and  C_11
    5  A    between atoms: C_11  and  C_40
    6  A    between atoms: C_14  and  O_21
    7  A    between atoms: CA_15  and  C_22
    8  A    between atoms: CA_15  and  N_25
    9  A    between atoms: CA_15  and  C_42
   10  A    between atoms: O_18  and  C_38
   11  A    between atoms: C_28  and  C_35
                            x       y       z     vdW  Elec       q    Type
                         _______ _______ _______ _____ _____    ______ ____

>  <TORSDO>
F 11

$$$$
=
 OpenBabel11062420033D

 42 45  0  0  1  0  0  0  0  0999 V2000
  189.7140  174.2390  143.8310 C   0  0  0  0  0  0  0  0  0  0  0  0
  188.3600  176.8480  141.6400 O   0  0  0  0  0  0  0  0  0  0  0  0
  188.3790  173.6790  138.8890 C   0  0  0  0  0  3  0  0  0  0  0  0
  189.8310  173.1830  142.8560 N   0  0  0  0  0  0  0  0  0  0  0  0
  190.2360  174.1110  144.9690 O   0  0  0  0  0  0  0  0  0  0  0  0
  189.3270  173.3520  141.5150 C   0  0  0  0  0  0  0  0  0  0  0  0
  188.9120  172.4550  139.2880 C   0  0  0  0  0  3  0  0  0  0  0  0
  188.3110  174.7370  139.7950 C   0  0  0  0  0  3  0  0  0  0  0  0
  188.9820  175.5090  143.5050 C   0  0  1  0  0  3  0  0  0  0  0  0
  188.7740  174.5790  141.1080 C   0  0  0  0  0  0  0  0  0  0  0  0
  189.3820  172.2930  140.5930 C   0  0  0  0  0  3  0  0  0  0  0  0
  188.6850  175.7040  142.0510 C   0  0  0  0  0  0  0  0  0  0  0  0
  187.0070  176.8110  146.5460 C   0  0  0  0  0  2  0  0  0  0  0  0
  187.0740  178.1830  144.4000 C   0  0  1  0  0  3  0  0  0  0  0  0
  186.2250  177.3080  143.5570 C   0  0  0  0  0  0  0  0  0  0  0  0
  186.6040  176.0780  143.5580 N   0  0  0  0  0  0  0  0  0  0  0  0
  185.5690  178.8460  146.3870 C   0  0  2  0  0  3  0  0  0  0  0  0
  186.3140  179.3000  145.1310 C   0  0  0  0  0  2  0  0  0  0  0  0
  187.7800  175.9040  144.3950 C   0  0  2  0  0  3  0  0  0  0  0  0
  187.8330  177.1690  145.2840 C   0  0  2  0  0  0  0  0  0  0  0  0
  186.4910  178.0360  147.2860 C   0  0  0  0  0  2  0  0  0  0  0  0
  184.2920  178.0710  146.0610 C   0  0  0  0  0  2  0  0  0  0  0  0
  183.3260  178.9470  145.2870 C   0  0  0  0  0  1  0  0  0  0  0  0
  185.1360  177.7640  142.8070 O   0  0  0  0  0  0  0  0  0  0  0  0
  185.3010  178.3230  141.5190 C   0  0  0  0  0  1  0  0  0  0  0  0
  189.1600  177.6380  145.5060 O   0  0  0  0  0  0  0  0  0  0  0  0
  189.7110  177.1660  146.7140 C   0  0  0  0  0  2  0  0  0  0  0  0
  191.1720  176.7960  146.5210 C   0  0  0  0  0  1  0  0  0  0  0  0
  190.5440  171.9590  143.2110 C   0  0  0  0  0  2  0  0  0  0  0  0
  191.9700  172.2840  143.6230 C   0  0  2  0  0  3  0  0  0  0  0  0
  194.0500  174.5300  141.5980 O   0  0  0  0  0  0  0  0  0  0  0  0
  192.6690  172.9010  142.5100 N   0  0  0  0  0  2  0  0  0  0  0  0
  193.3870  174.1430  142.5940 C   0  0  0  0  0  0  0  0  0  0  0  0
  193.3750  175.0070  143.8190 C   0  0  2  0  0  3  0  0  0  0  0  0
  192.7780  176.2290  143.5750 F   0  0  0  0  0  0  0  0  0  0  0  0
  194.8450  175.5160  146.2310 O   0  0  0  0  0  1  0  0  0  0  0  0
  195.0160  175.1950  144.5780 P   0  0  0  0  0  0  0  0  0  0  0  0
  195.7480  176.3460  143.9270 O   0  0  0  0  0  0  0  0  0  0  0  0
  195.9290  173.7900  144.3810 O   0  0  0  0  0  1  0  0  0  0  0  0
  193.6720  171.1210  145.0310 O   0  0  0  0  0  1  0  0  0  0  0  0
  192.3480  169.9190  143.5990 O   0  0  0  0  0  0  0  0  0  0  0  0
  192.6750  171.0410  144.0650 C   0  0  0  0  0  0  0  0  0  0  0  0
  1  5  2  0  0  0  0
  2 12  2  0  0  0  0
  3  7  2  0  0  0  0
  3  8  1  0  0  0  0
  4 29  1  0  0  0  0
  4  1  1  0  0  0  0
  6  4  1  0  0  0  0
  7 11  1  0  0  0  0
  8 10  2  0  0  0  0
  9 12  1  6  0  0  0
  9  1  1  0  0  0  0
  9 19  1  0  0  0  0
 10  6  1  0  0  0  0
 10 12  1  0  0  0  0
 11  6  2  0  0  0  0
 13 21  1  0  0  0  0
 14 18  1  1  0  0  0
 14 20  1  0  0  0  0
 15 16  2  0  0  0  0
 15 14  1  0  0  0  0
 17 22  1  6  0  0  0
 17 21  1  0  0  0  0
 18 17  1  0  0  0  0
 19 16  1  6  0  0  0
 19 20  1  0  0  0  0
 20 26  1  1  0  0  0
 20 13  1  0  0  0  0
 23 22  1  0  0  0  0
 24 15  1  0  0  0  0
 25 24  1  0  0  0  0
 26 27  1  0  0  0  0
 28 27  1  0  0  0  0
 30 29  1  6  0  0  0
 30 42  1  0  0  0  0
 31 33  2  0  0  0  0
 32 33  1  0  0  0  0
 32 30  1  0  0  0  0
 33 34  1  0  0  0  0
 34 35  1  6  0  0  0
 34 37  1  0  0  0  0
 37 36  1  0  0  0  0
 38 37  2  0  0  0  0
 39 37  1  0  0  0  0
 41 42  2  0  0  0  0
 42 40  1  0  0  0  0
M  END
>  <MODEL>
4

>  <REMARK>
 VINA RESULT:      -5.9      2.777      5.284
  Name = 
  11 active torsions:
  status: ('A' for Active; 'I' for Inactive)
    1  A    between atoms: C_4  and  C_31
    2  A    between atoms: C_5  and  O_18
    3  A    between atoms: N_9  and  C_22
    4  A    between atoms: P_10  and  C_11
    5  A    between atoms: C_11  and  C_40
    6  A    between atoms: C_14  and  O_21
    7  A    between atoms: CA_15  and  C_22
    8  A    between atoms: CA_15  and  N_25
    9  A    between atoms: CA_15  and  C_42
   10  A    between atoms: O_18  and  C_38
   11  A    between atoms: C_28  and  C_35
                            x       y       z     vdW  Elec       q    Type
                         _______ _______ _______ _____ _____    ______ ____

>  <TORSDO>
F 11

$$$$
=
 OpenBabel11062420033D

 42 45  0  0  1  0  0  0  0  0999 V2000
  188.9190  175.1230  143.6620 C   0  0  0  0  0  0  0  0  0  0  0  0
  191.5800  172.6820  143.0250 O   0  0  0  0  0  0  0  0  0  0  0  0
  189.4300  172.1990  139.4530 C   0  0  0  0  0  3  0  0  0  0  0  0
  188.1170  174.8730  142.4900 N   0  0  0  0  0  0  0  0  0  0  0  0
  188.4730  175.8400  144.5940 O   0  0  0  0  0  0  0  0  0  0  0  0
  188.5720  173.9740  141.4570 C   0  0  0  0  0  0  0  0  0  0  0  0
  188.2410  172.9080  139.2910 C   0  0  0  0  0  3  0  0  0  0  0  0
  190.1930  172.3760  140.6060 C   0  0  0  0  0  3  0  0  0  0  0  0
  190.2910  174.5270  143.7960 C   0  0  1  0  0  3  0  0  0  0  0  0
  189.7770  173.2650  141.6060 C   0  0  0  0  0  0  0  0  0  0  0  0
  187.8160  173.7910  140.2870 C   0  0  0  0  0  3  0  0  0  0  0  0
  190.6020  173.4440  142.8090 C   0  0  0  0  0  0  0  0  0  0  0  0
  192.8810  176.7690  145.5590 C   0  0  0  0  0  2  0  0  0  0  0  0
  193.6150  174.5570  144.5290 C   0  0  1  0  0  3  0  0  0  0  0  0
  193.4840  174.9290  143.1000 C   0  0  0  0  0  0  0  0  0  0  0  0
  192.3370  175.4350  142.8100 N   0  0  0  0  0  0  0  0  0  0  0  0
  195.3190  176.2370  145.4930 C   0  0  2  0  0  3  0  0  0  0  0  0
  195.0140  174.7840  145.1230 C   0  0  0  0  0  2  0  0  0  0  0  0
  191.4860  175.4890  143.9880 C   0  0  2  0  0  3  0  0  0  0  0  0
  192.4500  175.3270  145.1890 C   0  0  2  0  0  0  0  0  0  0  0  0
  194.1900  176.8190  146.3300 C   0  0  0  0  0  2  0  0  0  0  0  0
  195.6040  177.1050  144.2660 C   0  0  0  0  0  2  0  0  0  0  0  0
  196.8100  176.5770  143.5150 C   0  0  0  0  0  1  0  0  0  0  0  0
  194.4860  174.7280  142.1460 O   0  0  0  0  0  0  0  0  0  0  0  0
  194.2290  174.0630  140.9250 C   0  0  0  0  0  1  0  0  0  0  0  0
  191.9010  174.5390  146.2420 O   0  0  0  0  0  0  0  0  0  0  0  0
  191.3260  175.3190  147.2640 C   0  0  0  0  0  2  0  0  0  0  0  0
  189.8780  174.9160  147.4890 C   0  0  0  0  0  1  0  0  0  0  0  0
  186.7910  175.4760  142.3910 C   0  0  0  0  0  2  0  0  0  0  0  0
  186.8880  176.9850  142.5380 C   0  0  2  0  0  3  0  0  0  0  0  0
  183.9810  179.0030  143.5100 O   0  0  0  0  0  0  0  0  0  0  0  0
  185.5530  177.5530  142.6070 N   0  0  0  0  0  2  0  0  0  0  0  0
  185.1250  178.4900  143.6090 C   0  0  0  0  0  0  0  0  0  0  0  0
  185.9790  178.8780  144.7780 C   0  0  2  0  0  3  0  0  0  0  0  0
  187.3190  178.6670  144.5220 F   0  0  0  0  0  0  0  0  0  0  0  0
  185.4400  176.4160  146.1520 O   0  0  0  0  0  0  0  0  0  0  0  0
  185.4560  178.0990  146.3350 P   0  0  0  0  0  0  0  0  0  0  0  0
  184.0650  178.5680  146.6960 O   0  0  0  0  0  1  0  0  0  0  0  0
  186.5090  178.5070  147.5900 O   0  0  0  0  0  1  0  0  0  0  0  0
  188.8090  178.2950  141.6320 O   0  0  0  0  0  1  0  0  0  0  0  0
  187.2730  177.3710  140.2050 O   0  0  0  0  0  0  0  0  0  0  0  0
  187.6500  177.5670  141.3910 C   0  0  0  0  0  0  0  0  0  0  0  0
  1  9  1  0  0  0  0
  1  5  2  0  0  0  0
  3  8  1  0  0  0  0
  4  1  1  0  0  0  0
  6 10  1  0  0  0  0
  6  4  1  0  0  0  0
  7  3  2  0  0  0  0
  7 11  1  0  0  0  0
  8 10  2  0  0  0  0
  9 12  1  6  0  0  0
  9 19  1  0  0  0  0
 10 12  1  0  0  0  0
 11  6  2  0  0  0  0
 12  2  2  0  0  0  0
 13 21  1  0  0  0  0
 14 18  1  1  0  0  0
 14 20  1  0  0  0  0
 15 14  1  0  0  0  0
 16 15  2  0  0  0  0
 17 22  1  6  0  0  0
 17 21  1  0  0  0  0
 18 17  1  0  0  0  0
 19 16  1  6  0  0  0
 19 20  1  0  0  0  0
 20 13  1  0  0  0  0
 20 26  1  1  0  0  0
 23 22  1  0  0  0  0
 24 15  1  0  0  0  0
 25 24  1  0  0  0  0
 26 27  1  0  0  0  0
 27 28  1  0  0  0  0
 29  4  1  0  0  0  0
 30 29  1  6  0  0  0
 30 32  1  0  0  0  0
 31 33  2  0  0  0  0
 32 33  1  0  0  0  0
 33 34  1  0  0  0  0
 34 35  1  6  0  0  0
 34 37  1  0  0  0  0
 36 37  2  0  0  0  0
 37 38  1  0  0  0  0
 37 39  1  0  0  0  0
 41 42  2  0  0  0  0
 42 40  1  0  0  0  0
 42 30  1  0  0  0  0
M  END
>  <MODEL>
5

>  <REMARK>
 VINA RESULT:      -5.8      2.926      7.280
  Name = 
  11 active torsions:
  status: ('A' for Active; 'I' for Inactive)
    1  A    between atoms: C_4  and  C_31
    2  A    between atoms: C_5  and  O_18
    3  A    between atoms: N_9  and  C_22
    4  A    between atoms: P_10  and  C_11
    5  A    between atoms: C_11  and  C_40
    6  A    between atoms: C_14  and  O_21
    7  A    between atoms: CA_15  and  C_22
    8  A    between atoms: CA_15  and  N_25
    9  A    between atoms: CA_15  and  C_42
   10  A    between atoms: O_18  and  C_38
   11  A    between atoms: C_28  and  C_35
                            x       y       z     vdW  Elec       q    Type
                         _______ _______ _______ _____ _____    ______ ____

>  <TORSDO>
F 11

$$$$
=
 OpenBabel11062420033D

 42 45  0  0  1  0  0  0  0  0999 V2000
  190.9310  174.3310  142.9160 C   0  0  0  0  0  0  0  0  0  0  0  0
  193.9410  175.7750  141.4020 O   0  0  0  0  0  0  0  0  0  0  0  0
  195.1310  175.9400  145.4240 C   0  0  0  0  0  3  0  0  0  0  0  0
  191.2900  174.4960  144.3030 N   0  0  0  0  0  0  0  0  0  0  0  0
  189.7590  173.9960  142.6010 O   0  0  0  0  0  0  0  0  0  0  0  0
  192.5980  174.9750  144.6780 C   0  0  0  0  0  0  0  0  0  0  0  0
  194.2210  175.5460  146.4030 C   0  0  0  0  0  3  0  0  0  0  0  0
  194.7850  175.8500  144.0760 C   0  0  0  0  0  3  0  0  0  0  0  0
  191.9380  174.5650  141.8270 C   0  0  1  0  0  3  0  0  0  0  0  0
  193.5270  175.3610  143.6960 C   0  0  0  0  0  0  0  0  0  0  0  0
  192.9630  175.0660  146.0320 C   0  0  0  0  0  3  0  0  0  0  0  0
  193.1850  175.2650  142.2700 C   0  0  0  0  0  0  0  0  0  0  0  0
  193.3780  171.2450  140.5080 C   0  0  0  0  0  2  0  0  0  0  0  0
  190.8790  171.4470  140.9650 C   0  0  1  0  0  3  0  0  0  0  0  0
  190.5260  172.3490  139.8440 C   0  0  0  0  0  0  0  0  0  0  0  0
  191.2660  173.4000  139.7840 N   0  0  0  0  0  0  0  0  0  0  0  0
  191.8870  169.3570  139.8390 C   0  0  2  0  0  3  0  0  0  0  0  0
  190.7350  169.9500  140.6520 C   0  0  0  0  0  2  0  0  0  0  0  0
  192.2460  173.4000  140.8590 C   0  0  2  0  0  3  0  0  0  0  0  0
  192.2880  171.9380  141.3650 C   0  0  2  0  0  0  0  0  0  0  0  0
  193.2230  169.7320  140.4610 C   0  0  0  0  0  2  0  0  0  0  0  0
  191.8290  169.7600  138.3640 C   0  0  0  0  0  2  0  0  0  0  0  0
  190.6820  169.0540  137.6690 C   0  0  0  0  0  1  0  0  0  0  0  0
  189.4770  172.1100  138.9500 O   0  0  0  0  0  0  0  0  0  0  0  0
  188.1910  172.6660  139.1440 C   0  0  0  0  0  1  0  0  0  0  0  0
  192.4370  171.8430  142.7790 O   0  0  0  0  0  0  0  0  0  0  0  0
  193.7820  171.7180  143.1790 C   0  0  0  0  0  2  0  0  0  0  0  0
  193.8770  171.5990  144.6910 C   0  0  0  0  0  1  0  0  0  0  0  0
  190.2860  174.2520  145.3350 C   0  0  0  0  0  2  0  0  0  0  0  0
  189.2840  175.3930  145.3720 C   0  0  2  0  0  3  0  0  0  0  0  0
  190.2420  178.6890  144.0710 O   0  0  0  0  0  0  0  0  0  0  0  0
  189.9740  176.6530  145.1540 N   0  0  0  0  0  2  0  0  0  0  0  0
  189.6560  177.5770  144.1010 C   0  0  0  0  0  0  0  0  0  0  0  0
  188.6590  177.2710  143.0240 C   0  0  2  0  0  3  0  0  0  0  0  0
  189.0490  177.7890  141.8050 F   0  0  0  0  0  0  0  0  0  0  0  0
  186.3630  178.8270  142.2850 O   0  0  0  0  0  0  0  0  0  0  0  0
  186.9640  177.7650  143.4580 P   0  0  0  0  0  0  0  0  0  0  0  0
  186.9650  178.4620  144.7990 O   0  0  0  0  0  1  0  0  0  0  0  0
  185.9530  176.4160  143.5480 O   0  0  0  0  0  1  0  0  0  0  0  0
  188.9650  174.5410  147.6960 O   0  0  0  0  0  1  0  0  0  0  0  0
  187.6270  176.2180  146.8910 O   0  0  0  0  0  0  0  0  0  0  0  0
  188.5650  175.4050  146.6820 C   0  0  0  0  0  0  0  0  0  0  0  0
  1  4  1  0  0  0  0
  2 12  2  0  0  0  0
  3  7  1  0  0  0  0
  4  6  1  0  0  0  0
  4 29  1  0  0  0  0
  5  1  2  0  0  0  0
  6 11  1  0  0  0  0
  8  3  2  0  0  0  0
  9 12  1  1  0  0  0
  9  1  1  0  0  0  0
 10  8  1  0  0  0  0
 10  6  2  0  0  0  0
 11  7  2  0  0  0  0
 12 10  1  0  0  0  0
 13 20  1  0  0  0  0
 14 18  1  6  0  0  0
 14 20  1  0  0  0  0
 15 14  1  0  0  0  0
 16 15  2  0  0  0  0
 17 22  1  6  0  0  0
 17 21  1  0  0  0  0
 17 18  1  0  0  0  0
 19 16  1  6  0  0  0
 19 20  1  0  0  0  0
 19  9  1  0  0  0  0
 20 26  1  1  0  0  0
 21 13  1  0  0  0  0
 23 22  1  0  0  0  0
 24 25  1  0  0  0  0
 24 15  1  0  0  0  0
 26 27  1  0  0  0  0
 27 28  1  0  0  0  0
 30 29  1  1  0  0  0
 30 42  1  0  0  0  0
 31 33  2  0  0  0  0
 32 30  1  0  0  0  0
 33 32  1  0  0  0  0
 34 35  1  6  0  0  0
 34 37  1  0  0  0  0
 34 33  1  0  0  0  0
 36 37  2  0  0  0  0
 37 39  1  0  0  0  0
 37 38  1  0  0  0  0
 42 41  2  0  0  0  0
 42 40  1  0  0  0  0
M  END
>  <MODEL>
6

>  <REMARK>
 VINA RESULT:      -5.7      2.499      6.560
  Name = 
  11 active torsions:
  status: ('A' for Active; 'I' for Inactive)
    1  A    between atoms: C_4  and  C_31
    2  A    between atoms: C_5  and  O_18
    3  A    between atoms: N_9  and  C_22
    4  A    between atoms: P_10  and  C_11
    5  A    between atoms: C_11  and  C_40
    6  A    between atoms: C_14  and  O_21
    7  A    between atoms: CA_15  and  C_22
    8  A    between atoms: CA_15  and  N_25
    9  A    between atoms: CA_15  and  C_42
   10  A    between atoms: O_18  and  C_38
   11  A    between atoms: C_28  and  C_35
                            x       y       z     vdW  Elec       q    Type
                         _______ _______ _______ _____ _____    ______ ____

>  <TORSDO>
F 11

$$$$
=
 OpenBabel11062420033D

 42 45  0  0  1  0  0  0  0  0999 V2000
  192.2390  175.0040  143.0480 C   0  0  0  0  0  0  0  0  0  0  0  0
  191.2430  171.6610  144.1770 O   0  0  0  0  0  0  0  0  0  0  0  0
  195.1280  171.7180  145.7630 C   0  0  0  0  0  3  0  0  0  0  0  0
  193.6110  174.9770  143.4900 N   0  0  0  0  0  0  0  0  0  0  0  0
  191.8330  175.9270  142.2950 O   0  0  0  0  0  0  0  0  0  0  0  0
  194.1180  173.8750  144.2700 C   0  0  0  0  0  0  0  0  0  0  0  0
  195.9400  172.8190  145.4960 C   0  0  0  0  0  3  0  0  0  0  0  0
  193.8160  171.6910  145.2930 C   0  0  0  0  0  3  0  0  0  0  0  0
  191.2750  173.9300  143.4660 C   0  0  1  0  0  3  0  0  0  0  0  0
  193.3020  172.7660  144.5560 C   0  0  0  0  0  0  0  0  0  0  0  0
  195.4370  173.8910  144.7550 C   0  0  0  0  0  3  0  0  0  0  0  0
  191.9120  172.7220  144.0780 C   0  0  0  0  0  0  0  0  0  0  0  0
  189.0410  175.3430  146.2680 C   0  0  0  0  0  2  0  0  0  0  0  0
  189.2980  176.6320  144.0850 C   0  0  1  0  0  3  0  0  0  0  0  0
  188.5260  175.7240  143.2050 C   0  0  0  0  0  0  0  0  0  0  0  0
  188.9020  174.4950  143.2860 N   0  0  0  0  0  0  0  0  0  0  0  0
  187.6250  177.3670  145.9050 C   0  0  2  0  0  3  0  0  0  0  0  0
  188.4780  177.7750  144.7020 C   0  0  0  0  0  2  0  0  0  0  0  0
  190.0000  174.3560  144.2290 C   0  0  2  0  0  3  0  0  0  0  0  0
  189.9750  175.6550  145.0710 C   0  0  2  0  0  0  0  0  0  0  0  0
  188.4630  176.5940  146.9110 C   0  0  0  0  0  2  0  0  0  0  0  0
  186.3800  176.5780  145.4970 C   0  0  0  0  0  2  0  0  0  0  0  0
  185.1920  176.9890  146.3450 C   0  0  0  0  0  1  0  0  0  0  0  0
  187.5080  176.1480  142.3440 O   0  0  0  0  0  0  0  0  0  0  0  0
  187.7830  176.9130  141.1860 C   0  0  0  0  0  1  0  0  0  0  0  0
  191.2780  176.1350  145.3910 O   0  0  0  0  0  0  0  0  0  0  0  0
  191.7520  175.6450  146.6240 C   0  0  0  0  0  2  0  0  0  0  0  0
  193.1620  176.1490  146.8880 C   0  0  0  0  0  1  0  0  0  0  0  0
  194.5170  176.0420  143.0690 C   0  0  0  0  0  2  0  0  0  0  0  0
  195.0780  175.7390  141.6900 C   0  0  2  0  0  3  0  0  0  0  0  0
  194.3660  172.4920  140.1340 O   0  0  0  0  0  0  0  0  0  0  0  0
  194.9910  174.3120  141.4330 N   0  0  0  0  0  2  0  0  0  0  0  0
  194.2840  173.7320  140.3250 C   0  0  0  0  0  0  0  0  0  0  0  0
  193.4400  174.5410  139.3860 C   0  0  2  0  0  3  0  0  0  0  0  0
  192.1400  174.0760  139.3400 F   0  0  0  0  0  0  0  0  0  0  0  0
  193.9360  173.2500  136.8710 O   0  0  0  0  0  0  0  0  0  0  0  0
  194.1630  174.6940  137.7250 P   0  0  0  0  0  0  0  0  0  0  0  0
  195.6450  174.9690  137.8400 O   0  0  0  0  0  1  0  0  0  0  0  0
  193.4400  175.9580  136.8730 O   0  0  0  0  0  1  0  0  0  0  0  0
  197.1030  176.7910  142.7020 O   0  0  0  0  0  1  0  0  0  0  0  0
  197.1560  176.0420  140.5370 O   0  0  0  0  0  0  0  0  0  0  0  0
  196.4950  176.2070  141.5960 C   0  0  0  0  0  0  0  0  0  0  0  0
  1  4  1  0  0  0  0
  4  6  1  0  0  0  0
  5  1  2  0  0  0  0
  6 10  2  0  0  0  0
  6 11  1  0  0  0  0
  7  3  1  0  0  0  0
  8  3  2  0  0  0  0
  9  1  1  1  0  0  0
  9 12  1  0  0  0  0
  9 19  1  0  0  0  0
 10  8  1  0  0  0  0
 11  7  2  0  0  0  0
 12  2  2  0  0  0  0
 12 10  1  0  0  0  0
 13 21  1  0  0  0  0
 14 18  1  1  0  0  0
 14 20  1  0  0  0  0
 15 16  2  0  0  0  0
 15 14  1  0  0  0  0
 17 22  1  6  0  0  0
 17 21  1  0  0  0  0
 18 17  1  0  0  0  0
 19 16  1  6  0  0  0
 19 20  1  0  0  0  0
 20 26  1  1  0  0  0
 20 13  1  0  0  0  0
 22 23  1  0  0  0  0
 24 15  1  0  0  0  0
 25 24  1  0  0  0  0
 26 27  1  0  0  0  0
 27 28  1  0  0  0  0
 29  4  1  0  0  0  0
 30 29  1  1  0  0  0
 31 33  2  0  0  0  0
 32 30  1  0  0  0  0
 33 32  1  0  0  0  0
 34 35  1  6  0  0  0
 34 33  1  0  0  0  0
 36 37  2  0  0  0  0
 37 38  1  0  0  0  0
 37 34  1  0  0  0  0
 39 37  1  0  0  0  0
 41 42  2  0  0  0  0
 42 30  1  0  0  0  0
 42 40  1  0  0  0  0
M  END
>  <MODEL>
7

>  <REMARK>
 VINA RESULT:      -5.7      2.831      4.526
  Name = 
  11 active torsions:
  status: ('A' for Active; 'I' for Inactive)
    1  A    between atoms: C_4  and  C_31
    2  A    between atoms: C_5  and  O_18
    3  A    between atoms: N_9  and  C_22
    4  A    between atoms: P_10  and  C_11
    5  A    between atoms: C_11  and  C_40
    6  A    between atoms: C_14  and  O_21
    7  A    between atoms: CA_15  and  C_22
    8  A    between atoms: CA_15  and  N_25
    9  A    between atoms: CA_15  and  C_42
   10  A    between atoms: O_18  and  C_38
   11  A    between atoms: C_28  and  C_35
                            x       y       z     vdW  Elec       q    Type
                         _______ _______ _______ _____ _____    ______ ____

>  <TORSDO>
F 11

$$$$
=
 OpenBabel11062420033D

 42 45  0  0  1  0  0  0  0  0999 V2000
  191.4580  175.6270  142.5520 C   0  0  0  0  0  0  0  0  0  0  0  0
  190.0410  175.8680  145.9240 O   0  0  0  0  0  0  0  0  0  0  0  0
  194.0590  176.6060  146.8880 C   0  0  0  0  0  3  0  0  0  0  0  0
  192.8520  175.7630  142.8970 N   0  0  0  0  0  0  0  0  0  0  0  0
  191.1250  175.2820  141.3890 O   0  0  0  0  0  0  0  0  0  0  0  0
  193.2560  176.0600  144.2500 C   0  0  0  0  0  0  0  0  0  0  0  0
  195.0110  176.5300  145.8730 C   0  0  0  0  0  3  0  0  0  0  0  0
  192.7100  176.4160  146.5920 C   0  0  0  0  0  3  0  0  0  0  0  0
  190.3850  175.8820  143.5710 C   0  0  1  0  0  3  0  0  0  0  0  0
  192.3000  176.1520  145.2770 C   0  0  0  0  0  0  0  0  0  0  0  0
  194.6110  176.2600  144.5620 C   0  0  0  0  0  3  0  0  0  0  0  0
  190.8720  175.9650  144.9840 C   0  0  0  0  0  0  0  0  0  0  0  0
  187.7390  177.9090  141.6390 C   0  0  0  0  0  2  0  0  0  0  0  0
  187.0300  176.4570  143.6100 C   0  0  1  0  0  3  0  0  0  0  0  0
  187.6200  177.2690  144.7000 C   0  0  0  0  0  0  0  0  0  0  0  0
  188.8620  177.5500  144.5090 N   0  0  0  0  0  0  0  0  0  0  0  0
  185.3750  178.0440  142.4290 C   0  0  2  0  0  3  0  0  0  0  0  0
  185.5660  176.7910  143.2850 C   0  0  0  0  0  2  0  0  0  0  0  0
  189.3330  176.9720  143.2610 C   0  0  2  0  0  3  0  0  0  0  0  0
  188.0500  176.6340  142.4640 C   0  0  2  0  0  0  0  0  0  0  0  0
  186.2820  177.9970  141.2100 C   0  0  0  0  0  2  0  0  0  0  0  0
  185.5820  179.3330  143.2260 C   0  0  0  0  0  2  0  0  0  0  0  0
  184.5230  179.4650  144.3020 C   0  0  0  0  0  1  0  0  0  0  0  0
  186.9200  177.6710  145.8420 O   0  0  0  0  0  0  0  0  0  0  0  0
  186.6950  176.7910  146.9260 C   0  0  0  0  0  1  0  0  0  0  0  0
  188.1550  175.4150  141.7330 O   0  0  0  0  0  0  0  0  0  0  0  0
  187.5360  174.3320  142.3870 C   0  0  0  0  0  2  0  0  0  0  0  0
  188.2180  173.0260  142.0130 C   0  0  0  0  0  1  0  0  0  0  0  0
  193.8670  175.5140  141.8780 C   0  0  0  0  0  2  0  0  0  0  0  0
  194.0730  174.0190  141.6960 C   0  0  2  0  0  3  0  0  0  0  0  0
  196.4670  172.4800  144.0140 O   0  0  0  0  0  0  0  0  0  0  0  0
  195.3020  173.6140  142.3570 N   0  0  0  0  0  2  0  0  0  0  0  0
  195.3510  172.8750  143.5880 C   0  0  0  0  0  0  0  0  0  0  0  0
  194.1290  172.5600  144.3980 C   0  0  2  0  0  3  0  0  0  0  0  0
  194.2940  172.9060  145.7240 F   0  0  0  0  0  0  0  0  0  0  0  0
  194.0920  170.2320  142.7190 O   0  0  0  0  0  0  0  0  0  0  0  0
  193.5710  170.8400  144.2100 P   0  0  0  0  0  0  0  0  0  0  0  0
  192.0620  170.7870  144.2630 O   0  0  0  0  0  1  0  0  0  0  0  0
  194.1920  169.8730  145.4470 O   0  0  0  0  0  1  0  0  0  0  0  0
  194.0930  174.6960  139.2940 O   0  0  0  0  0  0  0  0  0  0  0  0
  194.2200  172.4810  139.8660 O   0  0  0  0  0  1  0  0  0  0  0  0
  194.1190  173.6780  140.2410 C   0  0  0  0  0  0  0  0  0  0  0  0
  1  4  1  0  0  0  0
  4  6  1  0  0  0  0
  5  1  2  0  0  0  0
  6 11  2  0  0  0  0
  6 10  1  0  0  0  0
  7  3  2  0  0  0  0
  8  3  1  0  0  0  0
  9  1  1  6  0  0  0
  9 12  1  0  0  0  0
 10  8  2  0  0  0  0
 11  7  1  0  0  0  0
 12 10  1  0  0  0  0
 12  2  2  0  0  0  0
 13 20  1  0  0  0  0
 14 18  1  6  0  0  0
 14 15  1  0  0  0  0
 15 24  1  0  0  0  0
 16 15  2  0  0  0  0
 17 22  1  1  0  0  0
 17 18  1  0  0  0  0
 19  9  1  0  0  0  0
 19 16  1  1  0  0  0
 20 26  1  6  0  0  0
 20 19  1  0  0  0  0
 20 14  1  0  0  0  0
 21 13  1  0  0  0  0
 21 17  1  0  0  0  0
 22 23  1  0  0  0  0
 24 25  1  0  0  0  0
 26 27  1  0  0  0  0
 28 27  1  0  0  0  0
 29  4  1  0  0  0  0
 30 29  1  6  0  0  0
 30 32  1  0  0  0  0
 32 33  1  0  0  0  0
 33 31  2  0  0  0  0
 33 34  1  0  0  0  0
 34 35  1  1  0  0  0
 36 37  2  0  0  0  0
 37 38  1  0  0  0  0
 37 34  1  0  0  0  0
 37 39  1  0  0  0  0
 40 42  2  0  0  0  0
 41 42  1  0  0  0  0
 42 30  1  0  0  0  0
M  END
>  <MODEL>
8

>  <REMARK>
 VINA RESULT:      -5.7      2.695      4.328
  Name = 
  11 active torsions:
  status: ('A' for Active; 'I' for Inactive)
    1  A    between atoms: C_4  and  C_31
    2  A    between atoms: C_5  and  O_18
    3  A    between atoms: N_9  and  C_22
    4  A    between atoms: P_10  and  C_11
    5  A    between atoms: C_11  and  C_40
    6  A    between atoms: C_14  and  O_21
    7  A    between atoms: CA_15  and  C_22
    8  A    between atoms: CA_15  and  N_25
    9  A    between atoms: CA_15  and  C_42
   10  A    between atoms: O_18  and  C_38
   11  A    between atoms: C_28  and  C_35
                            x       y       z     vdW  Elec       q    Type
                         _______ _______ _______ _____ _____    ______ ____

>  <TORSDO>
F 11

$$$$
=
 OpenBabel11062420033D

 42 45  0  0  1  0  0  0  0  0999 V2000
  193.2480  174.1580  142.9510 C   0  0  0  0  0  0  0  0  0  0  0  0
  191.9070  170.9980  144.2370 O   0  0  0  0  0  0  0  0  0  0  0  0
  195.6920  170.8440  146.0430 C   0  0  0  0  0  3  0  0  0  0  0  0
  194.5870  174.0490  143.4740 N   0  0  0  0  0  0  0  0  0  0  0  0
  192.9650  175.0570  142.1170 O   0  0  0  0  0  0  0  0  0  0  0  0
  194.9540  172.9670  144.3540 C   0  0  0  0  0  0  0  0  0  0  0  0
  196.6090  171.8530  145.7530 C   0  0  0  0  0  3  0  0  0  0  0  0
  194.4100  170.8930  145.4990 C   0  0  0  0  0  3  0  0  0  0  0  0
  192.1730  173.2010  143.3810 C   0  0  1  0  0  3  0  0  0  0  0  0
  194.0310  171.9520  144.6640 C   0  0  0  0  0  0  0  0  0  0  0  0
  196.2410  172.9080  144.9140 C   0  0  0  0  0  3  0  0  0  0  0  0
  192.6700  171.9900  144.1080 C   0  0  0  0  0  0  0  0  0  0  0  0
  189.7810  174.4920  146.1110 C   0  0  0  0  0  2  0  0  0  0  0  0
  190.8150  176.1310  144.4560 C   0  0  1  0  0  3  0  0  0  0  0  0
  190.0610  175.7230  143.2470 C   0  0  0  0  0  0  0  0  0  0  0  0
  190.1040  174.4560  143.0240 N   0  0  0  0  0  0  0  0  0  0  0  0
  189.0070  176.8650  146.1430 C   0  0  2  0  0  3  0  0  0  0  0  0
  190.1760  177.2820  145.2490 C   0  0  0  0  0  2  0  0  0  0  0  0
  190.9010  173.7840  144.0380 C   0  0  2  0  0  3  0  0  0  0  0  0
  191.0030  174.7950  145.2060 C   0  0  2  0  0  0  0  0  0  0  0  0
  189.3920  175.6660  146.9950 C   0  0  0  0  0  2  0  0  0  0  0  0
  187.7310  176.5920  145.3450 C   0  0  0  0  0  2  0  0  0  0  0  0
  187.1310  177.8920  144.8460 C   0  0  0  0  0  1  0  0  0  0  0  0
  189.3910  176.6170  142.4060 O   0  0  0  0  0  0  0  0  0  0  0  0
  188.2500  176.2290  141.6640 C   0  0  0  0  0  1  0  0  0  0  0  0
  192.2790  174.7850  145.8400 O   0  0  0  0  0  0  0  0  0  0  0  0
  192.8700  176.0630  145.8960 C   0  0  0  0  0  2  0  0  0  0  0  0
  194.2710  175.9750  146.4800 C   0  0  0  0  0  1  0  0  0  0  0  0
  195.6030  175.0030  143.0390 C   0  0  0  0  0  2  0  0  0  0  0  0
  196.0250  174.7040  141.6100 C   0  0  2  0  0  3  0  0  0  0  0  0
  197.9400  171.6010  141.1920 O   0  0  0  0  0  0  0  0  0  0  0  0
  197.0950  173.7220  141.6150 N   0  0  0  0  0  2  0  0  0  0  0  0
  196.9240  172.3390  141.2620 C   0  0  0  0  0  0  0  0  0  0  0  0
  195.5830  171.7320  140.9800 C   0  0  2  0  0  3  0  0  0  0  0  0
  195.3330  170.6480  141.7980 F   0  0  0  0  0  0  0  0  0  0  0  0
  196.2130  169.9340  138.8330 O   0  0  0  0  0  1  0  0  0  0  0  0
  195.3350  171.3270  139.2250 P   0  0  0  0  0  0  0  0  0  0  0  0
  195.8210  172.4720  138.3660 O   0  0  0  0  0  0  0  0  0  0  0  0
  193.7010  171.0590  138.8990 O   0  0  0  0  0  1  0  0  0  0  0  0
  197.3460  175.8900  139.8550 O   0  0  0  0  0  0  0  0  0  0  0  0
  196.0170  177.0780  141.2930 O   0  0  0  0  0  1  0  0  0  0  0  0
  196.4660  175.9600  140.9290 C   0  0  0  0  0  0  0  0  0  0  0  0
  1  4  1  0  0  0  0
  4  6  1  0  0  0  0
  5  1  2  0  0  0  0
  6 10  2  0  0  0  0
  6 11  1  0  0  0  0
  7  3  1  0  0  0  0
  8  3  2  0  0  0  0
  9  1  1  1  0  0  0
  9 19  1  0  0  0  0
  9 12  1  0  0  0  0
 10  8  1  0  0  0  0
 11  7  2  0  0  0  0
 12  2  2  0  0  0  0
 12 10  1  0  0  0  0
 13 21  1  0  0  0  0
 14 20  1  0  0  0  0
 14 18  1  1  0  0  0
 15 14  1  0  0  0  0
 16 15  2  0  0  0  0
 17 22  1  6  0  0  0
 17 21  1  0  0  0  0
 18 17  1  0  0  0  0
 19 16  1  6  0  0  0
 19 20  1  0  0  0  0
 20 26  1  1  0  0  0
 20 13  1  0  0  0  0
 23 22  1  0  0  0  0
 24 15  1  0  0  0  0
 25 24  1  0  0  0  0
 26 27  1  0  0  0  0
 27 28  1  0  0  0  0
 29  4  1  0  0  0  0
 30 32  1  0  0  0  0
 30 29  1  1  0  0  0
 31 33  2  0  0  0  0
 33 32  1  0  0  0  0
 34 33  1  0  0  0  0
 34 35  1  1  0  0  0
 36 37  1  0  0  0  0
 37 34  1  0  0  0  0
 38 37  2  0  0  0  0
 39 37  1  0  0  0  0
 40 42  2  0  0  0  0
 42 41  1  0  0  0  0
 42 30  1  0  0  0  0
M  END
>  <MODEL>
9

>  <REMARK>
 VINA RESULT:      -5.7      3.302      5.297
  Name = 
  11 active torsions:
  status: ('A' for Active; 'I' for Inactive)
    1  A    between atoms: C_4  and  C_31
    2  A    between atoms: C_5  and  O_18
    3  A    between atoms: N_9  and  C_22
    4  A    between atoms: P_10  and  C_11
    5  A    between atoms: C_11  and  C_40
    6  A    between atoms: C_14  and  O_21
    7  A    between atoms: CA_15  and  C_22
    8  A    between atoms: CA_15  and  N_25
    9  A    between atoms: CA_15  and  C_42
   10  A    between atoms: O_18  and  C_38
   11  A    between atoms: C_28  and  C_35
                            x       y       z     vdW  Elec       q    Type
                         _______ _______ _______ _____ _____    ______ ____

>  <TORSDO>
F 11

$$$$
