=
 OpenBabel11062421183D

 51 56  0  0  1  0  0  0  0  0999 V2000
  190.7450  171.6700  139.4190 N   0  0  0  0  0  0  0  0  0  0  0  0
  189.8290  172.7330  142.2430 N   0  0  1  0  0  0  0  0  0  0  0  0
  191.0500  171.9790  141.9330 C   0  0  1  0  0  3  0  0  0  0  0  0
  189.5750  176.2780  142.2300 O   0  0  0  0  0  0  0  0  0  0  0  0
  189.6630  173.8620  140.0460 C   0  0  0  0  0  2  0  0  0  0  0  0
  193.4570  170.7340  144.5990 C   0  0  0  0  0  2  0  0  0  0  0  0
  189.0610  174.9640  142.3080 C   0  0  1  0  0  0  0  0  0  0  0  0
  187.3370  176.2320  141.5450 C   0  0  0  0  0  3  0  0  0  0  0  0
  189.1150  174.3720  143.7160 C   0  0  1  0  0  3  0  0  0  0  0  0
  188.5090  177.1000  141.8130 C   0  0  0  0  0  2  0  0  0  0  0  0
  191.5140  171.0320  143.0350 C   0  0  2  0  0  3  0  0  0  0  0  0
  189.7770  173.0720  143.6130 N   0  0  0  0  0  2  0  0  0  0  0  0
  192.5070  171.7430  143.9650 C   0  0  0  0  0  2  0  0  0  0  0  0
  191.7780  169.9470  140.8380 C   0  0  0  0  0  2  0  0  0  0  0  0
  190.7530  171.0560  140.7580 C   0  0  2  0  0  3  0  0  0  0  0  0
  190.8510  173.1440  139.3960 C   0  0  2  0  0  3  0  0  0  0  0  0
  187.6510  174.9930  141.8330 C   0  0  0  0  0  3  0  0  0  0  0  0
  189.5210  171.2350  138.7550 C   0  0  0  0  0  1  0  0  0  0  0  0
  193.5650  169.5900  142.5070 C   0  0  0  0  0  3  0  0  0  0  0  0
  194.1710  170.0300  143.5580 N   0  0  0  0  0  0  0  0  0  0  0  0
  192.0850  169.7870  142.3160 C   0  0  1  0  0  3  0  0  0  0  0  0
  189.9370  174.0000  141.5430 C   0  0  1  0  0  3  0  0  0  0  0  0
  189.8730  175.2410  144.7180 C   0  0  0  0  0  2  0  0  0  0  0  0
  188.2880  176.4170  146.3220 N   0  0  0  0  0  2  0  0  0  0  0  0
  189.3730  174.4580  146.9190 O   0  0  0  0  0  0  0  0  0  0  0  0
  189.1580  175.3230  146.0310 C   0  0  0  0  0  0  0  0  0  0  0  0
  188.0730  177.5120  145.3950 C   0  0  0  0  0  2  0  0  0  0  0  0
  186.6290  177.5320  144.9280 C   0  0  0  0  0  2  0  0  0  0  0  0
  185.8780  178.7450  145.4760 C   0  0  2  0  0  3  0  0  0  0  0  0
  184.7890  176.8880  146.6130 N   0  0  0  0  0  1  0  0  0  0  0  0
  184.7120  178.3170  146.3590 C   0  0  0  0  0  2  0  0  0  0  0  0
  186.0490  179.3390  143.1420 O   0  0  0  0  0  1  0  0  0  0  0  0
  185.3780  179.6290  144.3340 C   0  0  0  0  0  2  0  0  0  0  0  0
  191.1360  173.7560  137.7000 S   0  0  0  0  0  0  0  0  0  0  0  0
  192.8680  173.2980  137.7310 C   0  0  0  0  0  3  0  0  0  0  0  0
  193.7080  173.9210  138.5580 C   0  0  0  0  0  3  0  0  0  0  0  0
  195.1570  173.5640  138.5990 C   0  0  0  0  0  2  0  0  0  0  0  0
  196.7200  175.3290  138.8850 O   0  0  0  0  0  0  0  0  0  0  0  0
  195.7370  174.5330  140.8550 N   0  0  0  0  0  2  0  0  0  0  0  0
  195.9240  174.5260  139.4380 C   0  0  0  0  0  0  0  0  0  0  0  0
  196.1060  177.0900  141.4740 O   0  0  0  0  0  0  0  0  0  0  0  0
  197.9410  175.5270  141.9080 O   0  0  0  0  0  0  0  0  0  0  0  0
  196.4490  175.6960  141.9280 S   0  0  0  0  0  0  0  0  0  0  0  0
  194.4710  177.5540  146.2380 F   0  0  0  0  0  0  0  0  0  0  0  0
  193.8220  174.9330  145.8120 S   0  0  0  0  0  0  0  0  0  0  0  0
  195.2670  173.8900  145.4190 C   0  0  2  0  0  3  0  0  0  0  0  0
  194.6760  176.4760  145.4460 C   0  0  0  0  0  0  0  0  0  0  0  0
  195.8440  175.4220  143.5530 C   0  0  0  0  0  0  0  0  0  0  0  0
  196.2900  174.1460  146.3150 F   0  0  0  0  0  0  0  0  0  0  0  0
  195.4750  176.5860  144.3810 C   0  0  0  0  0  3  0  0  0  0  0  0
  195.7300  174.1730  144.0190 C   0  0  0  0  0  3  0  0  0  0  0  0
  1 15  1  0  0  0  0
  2 12  1  1  0  0  0
  3  2  1  0  0  0  0
  3 11  1  0  0  0  0
  4  7  1  0  0  0  0
  5 22  1  0  0  0  0
  7  9  1  0  0  0  0
  8 10  1  0  0  0  0
  8 17  2  0  0  0  0
  9 23  1  0  0  0  0
 10  4  1  0  0  0  0
 11 13  1  0  0  0  0
 12  9  1  0  0  0  0
 13  6  1  0  0  0  0
 14 21  1  0  0  0  0
 15 14  1  0  0  0  0
 15  3  1  0  0  0  0
 16  1  1  0  0  0  0
 16  5  1  0  0  0  0
 17  7  1  0  0  0  0
 18  1  1  0  0  0  0
 19 20  2  0  0  0  0
 20  6  1  0  0  0  0
 21 19  1  0  0  0  0
 21 11  1  0  0  0  0
 22  2  1  0  0  0  0
 22  7  1  0  0  0  0
 23 26  1  0  0  0  0
 26 24  1  0  0  0  0
 26 25  2  0  0  0  0
 27 24  1  0  0  0  0
 28 27  1  0  0  0  0
 28 29  1  0  0  0  0
 29 31  1  0  0  0  0
 31 30  1  0  0  0  0
 32 33  1  0  0  0  0
 33 29  1  0  0  0  0
 34 35  1  0  0  0  0
 34 16  1  0  0  0  0
 35 36  2  0  0  0  0
 36 37  1  0  0  0  0
 37 40  1  0  0  0  0
 38 40  2  0  0  0  0
 39 43  1  0  0  0  0
 40 39  1  0  0  0  0
 41 43  2  0  0  0  0
 42 43  2  0  0  0  0
 43 48  1  0  0  0  0
 46 45  1  0  0  0  0
 46 49  1  0  0  0  0
 47 45  1  0  0  0  0
 47 44  1  0  0  0  0
 48 51  2  0  0  0  0
 48 50  1  0  0  0  0
 50 47  2  0  0  0  0
 51 46  1  0  0  0  0
M  END
>  <MODEL>
1

>  <REMARK>
 VINA RESULT:      -7.3      0.000      0.000
  Name = 
  13 active torsions:
  status: ('A' for Active; 'I' for Inactive)
    1  A    between atoms: C_14  and  C_16
    2  A    between atoms: C_14  and  C_39
    3  A    between atoms: C_16  and  N_22
    4  A    between atoms: C_19  and  C_32
    5  A    between atoms: C_20  and  S_44
    6  A    between atoms: C_28  and  C_39
    7  A    between atoms: C_29  and  S_49
    8  A    between atoms: C_32  and  C_50
    9  A    between atoms: C_33  and  C_43
   10  A    between atoms: C_33  and  C_51
   11  A    between atoms: N_35  and  S_44
   12  A    between atoms: C_36  and  S_49
   13  A    between atoms: C_39  and  C_47
                            x       y       z     vdW  Elec       q    Type
                         _______ _______ _______ _____ _____    ______ ____

>  <TORSDO>
F 13

$$$$
=
 OpenBabel11062421183D

 51 56  0  0  1  0  0  0  0  0999 V2000
  193.3460  173.0060  144.8490 N   0  0  0  0  0  0  0  0  0  0  0  0
  193.6460  173.0630  141.7100 N   0  0  1  0  0  0  0  0  0  0  0  0
  192.3970  173.0990  142.4830 C   0  0  1  0  0  3  0  0  0  0  0  0
  195.4730  175.9290  140.6740 O   0  0  0  0  0  0  0  0  0  0  0  0
  195.0280  174.2160  143.4100 C   0  0  0  0  0  2  0  0  0  0  0  0
  188.9550  172.9490  140.8770 C   0  0  0  0  0  2  0  0  0  0  0  0
  195.2730  174.5420  140.8540 C   0  0  1  0  0  0  0  0  0  0  0  0
  197.5280  174.8190  140.8290 C   0  0  0  0  0  3  0  0  0  0  0  0
  194.4900  173.8870  139.7170 C   0  0  1  0  0  3  0  0  0  0  0  0
  196.8660  176.1250  140.5960 C   0  0  0  0  0  2  0  0  0  0  0  0
  191.2150  172.3960  141.8220 C   0  0  2  0  0  3  0  0  0  0  0  0
  193.3860  173.1440  140.3250 N   0  0  0  0  0  2  0  0  0  0  0  0
  190.4090  173.3910  140.9750 C   0  0  0  0  0  2  0  0  0  0  0  0
  191.2360  171.9010  144.2360 C   0  0  0  0  0  2  0  0  0  0  0  0
  192.6130  172.3170  143.7720 C   0  0  2  0  0  3  0  0  0  0  0  0
  193.9370  174.3100  144.4820 C   0  0  2  0  0  3  0  0  0  0  0  0
  196.6090  173.8970  140.9760 C   0  0  0  0  0  3  0  0  0  0  0  0
  194.3790  172.0900  145.3190 C   0  0  0  0  0  1  0  0  0  0  0  0
  189.0420  172.3090  143.1740 C   0  0  0  0  0  3  0  0  0  0  0  0
  188.3920  172.8590  142.2050 N   0  0  0  0  0  0  0  0  0  0  0  0
  190.4170  171.7330  142.9690 C   0  0  1  0  0  3  0  0  0  0  0  0
  194.3670  174.2810  142.0340 C   0  0  1  0  0  3  0  0  0  0  0  0
  193.9260  174.8840  138.7070 C   0  0  0  0  0  2  0  0  0  0  0  0
  193.8560  175.0150  136.1690 N   0  0  0  0  0  2  0  0  0  0  0  0
  195.7640  174.3220  137.2880 O   0  0  0  0  0  0  0  0  0  0  0  0
  194.5810  174.7450  137.3680 C   0  0  0  0  0  0  0  0  0  0  0  0
  192.4580  175.3990  136.1700 C   0  0  0  0  0  2  0  0  0  0  0  0
  191.5760  174.1870  135.9350 C   0  0  0  0  0  2  0  0  0  0  0  0
  190.8440  173.7680  137.2080 C   0  0  2  0  0  3  0  0  0  0  0  0
  192.3860  171.8890  137.0770 N   0  0  0  0  0  1  0  0  0  0  0  0
  191.0560  172.2880  137.5040 C   0  0  0  0  0  2  0  0  0  0  0  0
  188.5810  172.9560  137.4250 O   0  0  0  0  0  1  0  0  0  0  0  0
  189.3520  174.0760  137.0970 C   0  0  0  0  0  2  0  0  0  0  0  0
  194.5450  175.1950  145.9570 S   0  0  0  0  0  0  0  0  0  0  0  0
  192.9480  175.1240  146.7670 C   0  0  0  0  0  3  0  0  0  0  0  0
  192.2790  176.2480  147.0230 C   0  0  0  0  0  3  0  0  0  0  0  0
  190.9510  176.2190  147.7020 C   0  0  0  0  0  2  0  0  0  0  0  0
  188.9970  175.2010  146.8160 O   0  0  0  0  0  0  0  0  0  0  0  0
  189.7470  177.0970  145.6660 N   0  0  0  0  0  2  0  0  0  0  0  0
  189.8420  176.1280  146.7120 C   0  0  0  0  0  0  0  0  0  0  0  0
  188.0500  175.8160  144.0730 O   0  0  0  0  0  0  0  0  0  0  0  0
  188.8530  178.0180  143.3620 O   0  0  0  0  0  0  0  0  0  0  0  0
  188.4270  177.1960  144.5440 S   0  0  0  0  0  0  0  0  0  0  0  0
  184.1660  179.9680  144.2200 F   0  0  0  0  0  0  0  0  0  0  0  0
  184.2030  178.3220  146.4040 S   0  0  0  0  0  0  0  0  0  0  0  0
  185.7400  178.4580  147.3780 C   0  0  2  0  0  3  0  0  0  0  0  0
  184.9120  179.0980  144.9410 C   0  0  0  0  0  0  0  0  0  0  0  0
  187.0590  177.9600  145.3360 C   0  0  0  0  0  0  0  0  0  0  0  0
  186.0480  179.7900  147.5910 F   0  0  0  0  0  0  0  0  0  0  0  0
  186.1470  178.7960  144.5310 C   0  0  0  0  0  3  0  0  0  0  0  0
  186.8650  177.7830  146.6470 C   0  0  0  0  0  3  0  0  0  0  0  0
  1 18  1  0  0  0  0
  2 12  1  6  0  0  0
  2 22  1  0  0  0  0
  2  3  1  0  0  0  0
  3 15  1  0  0  0  0
  4  7  1  0  0  0  0
  5 16  1  0  0  0  0
  6 13  1  0  0  0  0
  6 20  1  0  0  0  0
  7 17  1  0  0  0  0
  7 22  1  0  0  0  0
  8 17  2  0  0  0  0
  9 12  1  0  0  0  0
  9  7  1  0  0  0  0
 10  4  1  0  0  0  0
 10  8  1  0  0  0  0
 11  3  1  0  0  0  0
 11 21  1  0  0  0  0
 13 11  1  0  0  0  0
 15 14  1  0  0  0  0
 15  1  1  0  0  0  0
 16  1  1  0  0  0  0
 16 34  1  0  0  0  0
 20 19  2  0  0  0  0
 21 19  1  0  0  0  0
 21 14  1  0  0  0  0
 22  5  1  0  0  0  0
 23  9  1  0  0  0  0
 24 27  1  0  0  0  0
 24 26  1  0  0  0  0
 25 26  2  0  0  0  0
 26 23  1  0  0  0  0
 28 27  1  0  0  0  0
 28 29  1  0  0  0  0
 29 31  1  0  0  0  0
 30 31  1  0  0  0  0
 33 29  1  0  0  0  0
 33 32  1  0  0  0  0
 34 35  1  0  0  0  0
 35 36  2  0  0  0  0
 36 37  1  0  0  0  0
 39 40  1  0  0  0  0
 40 38  2  0  0  0  0
 40 37  1  0  0  0  0
 41 43  2  0  0  0  0
 42 43  2  0  0  0  0
 43 48  1  0  0  0  0
 43 39  1  0  0  0  0
 44 47  1  0  0  0  0
 45 46  1  0  0  0  0
 46 49  1  0  0  0  0
 47 45  1  0  0  0  0
 48 51  2  0  0  0  0
 50 47  2  0  0  0  0
 50 48  1  0  0  0  0
 51 46  1  0  0  0  0
M  END
>  <MODEL>
2

>  <REMARK>
 VINA RESULT:      -6.9      3.321      8.631
  Name = 
  13 active torsions:
  status: ('A' for Active; 'I' for Inactive)
    1  A    between atoms: C_14  and  C_16
    2  A    between atoms: C_14  and  C_39
    3  A    between atoms: C_16  and  N_22
    4  A    between atoms: C_19  and  C_32
    5  A    between atoms: C_20  and  S_44
    6  A    between atoms: C_28  and  C_39
    7  A    between atoms: C_29  and  S_49
    8  A    between atoms: C_32  and  C_50
    9  A    between atoms: C_33  and  C_43
   10  A    between atoms: C_33  and  C_51
   11  A    between atoms: N_35  and  S_44
   12  A    between atoms: C_36  and  S_49
   13  A    between atoms: C_39  and  C_47
                            x       y       z     vdW  Elec       q    Type
                         _______ _______ _______ _____ _____    ______ ____

>  <TORSDO>
F 13

$$$$
=
 OpenBabel11062421183D

 51 56  0  0  1  0  0  0  0  0999 V2000
  193.0160  173.2190  144.8780 N   0  0  0  0  0  0  0  0  0  0  0  0
  193.5790  173.0080  141.7820 N   0  0  1  0  0  0  0  0  0  0  0  0
  192.2690  173.0650  142.4440 C   0  0  1  0  0  3  0  0  0  0  0  0
  195.3990  175.8390  140.6400 O   0  0  0  0  0  0  0  0  0  0  0  0
  194.7760  174.3590  143.4760 C   0  0  0  0  0  2  0  0  0  0  0  0
  188.9810  172.6410  140.5830 C   0  0  0  0  0  2  0  0  0  0  0  0
  195.2270  174.4660  140.9300 C   0  0  1  0  0  0  0  0  0  0  0  0
  197.4660  174.8260  141.0630 C   0  0  0  0  0  3  0  0  0  0  0  0
  194.5640  173.6830  139.7980 C   0  0  1  0  0  3  0  0  0  0  0  0
  196.7870  176.0800  140.6580 C   0  0  0  0  0  2  0  0  0  0  0  0
  191.1690  172.2610  141.7560 C   0  0  2  0  0  3  0  0  0  0  0  0
  193.4350  172.9560  140.3780 N   0  0  0  0  0  2  0  0  0  0  0  0
  190.4080  173.1450  140.7580 C   0  0  0  0  0  2  0  0  0  0  0  0
  191.0000  171.9830  144.1990 C   0  0  0  0  0  2  0  0  0  0  0  0
  192.3990  172.4090  143.8130 C   0  0  2  0  0  3  0  0  0  0  0  0
  193.5960  174.5060  144.4420 C   0  0  2  0  0  3  0  0  0  0  0  0
  196.5670  173.8860  141.2190 C   0  0  0  0  0  3  0  0  0  0  0  0
  194.0340  172.3880  145.5130 C   0  0  0  0  0  1  0  0  0  0  0  0
  188.8930  172.2120  142.9290 C   0  0  0  0  0  3  0  0  0  0  0  0
  188.3110  172.6480  141.8630 N   0  0  0  0  0  0  0  0  0  0  0  0
  190.2980  171.6720  142.8900 C   0  0  1  0  0  3  0  0  0  0  0  0
  194.2320  174.2760  142.0500 C   0  0  1  0  0  3  0  0  0  0  0  0
  194.0570  174.5640  138.6570 C   0  0  0  0  0  2  0  0  0  0  0  0
  193.0380  173.7200  136.4860 N   0  0  0  0  0  2  0  0  0  0  0  0
  195.2750  173.3720  136.9840 O   0  0  0  0  0  0  0  0  0  0  0  0
  194.1760  173.8770  137.3330 C   0  0  0  0  0  0  0  0  0  0  0  0
  191.7140  174.1750  136.8640 C   0  0  0  0  0  2  0  0  0  0  0  0
  190.8110  172.9910  137.1560 C   0  0  0  0  0  2  0  0  0  0  0  0
  191.4560  171.6740  136.7300 C   0  0  2  0  0  3  0  0  0  0  0  0
  189.3030  171.6020  135.5960 N   0  0  0  0  0  1  0  0  0  0  0  0
  190.5940  170.9430  135.7080 C   0  0  0  0  0  2  0  0  0  0  0  0
  193.0650  170.4690  138.0670 O   0  0  0  0  0  1  0  0  0  0  0  0
  191.7070  170.7800  137.9440 C   0  0  0  0  0  2  0  0  0  0  0  0
  194.0490  175.5420  145.8750 S   0  0  0  0  0  0  0  0  0  0  0  0
  192.9650  176.8740  145.3680 C   0  0  0  0  0  3  0  0  0  0  0  0
  192.0410  176.6630  144.4300 C   0  0  0  0  0  3  0  0  0  0  0  0
  191.1300  177.7570  143.9840 C   0  0  0  0  0  2  0  0  0  0  0  0
  189.2360  176.3900  144.4180 O   0  0  0  0  0  0  0  0  0  0  0  0
  189.1100  177.6860  142.4720 N   0  0  0  0  0  2  0  0  0  0  0  0
  189.7780  177.2280  143.6500 C   0  0  0  0  0  0  0  0  0  0  0  0
  187.3530  175.7760  141.9070 O   0  0  0  0  0  0  0  0  0  0  0  0
  187.1360  177.9180  140.7400 O   0  0  0  0  0  0  0  0  0  0  0  0
  187.4800  177.2690  142.0500 S   0  0  0  0  0  0  0  0  0  0  0  0
  184.8440  176.3910  146.3190 F   0  0  0  0  0  0  0  0  0  0  0  0
  185.5000  179.0250  145.9950 S   0  0  0  0  0  0  0  0  0  0  0  0
  185.0710  179.6740  144.3440 C   0  0  2  0  0  3  0  0  0  0  0  0
  185.3980  177.3010  145.4840 C   0  0  0  0  0  0  0  0  0  0  0  0
  186.3970  177.8520  143.3030 C   0  0  0  0  0  0  0  0  0  0  0  0
  183.7800  179.3020  144.0120 F   0  0  0  0  0  0  0  0  0  0  0  0
  185.8990  176.8980  144.3130 C   0  0  0  0  0  3  0  0  0  0  0  0
  186.0350  179.1400  143.3240 C   0  0  0  0  0  3  0  0  0  0  0  0
  1 18  1  0  0  0  0
  2 12  1  6  0  0  0
  2 22  1  0  0  0  0
  2  3  1  0  0  0  0
  3 15  1  0  0  0  0
  4 10  1  0  0  0  0
  4  7  1  0  0  0  0
  5 16  1  0  0  0  0
  6 13  1  0  0  0  0
  6 20  1  0  0  0  0
  7 17  1  0  0  0  0
  7 22  1  0  0  0  0
  8 17  2  0  0  0  0
  9 12  1  0  0  0  0
  9  7  1  0  0  0  0
 10  8  1  0  0  0  0
 11  3  1  0  0  0  0
 11 21  1  0  0  0  0
 13 11  1  0  0  0  0
 15 14  1  0  0  0  0
 15  1  1  0  0  0  0
 16  1  1  0  0  0  0
 16 34  1  0  0  0  0
 20 19  2  0  0  0  0
 21 19  1  0  0  0  0
 21 14  1  0  0  0  0
 22  5  1  0  0  0  0
 23  9  1  0  0  0  0
 24 27  1  0  0  0  0
 24 26  1  0  0  0  0
 25 26  2  0  0  0  0
 26 23  1  0  0  0  0
 27 28  1  0  0  0  0
 29 28  1  0  0  0  0
 29 33  1  0  0  0  0
 30 31  1  0  0  0  0
 31 29  1  0  0  0  0
 33 32  1  0  0  0  0
 35 34  1  0  0  0  0
 36 35  2  0  0  0  0
 37 36  1  0  0  0  0
 39 40  1  0  0  0  0
 40 37  1  0  0  0  0
 40 38  2  0  0  0  0
 41 43  2  0  0  0  0
 42 43  2  0  0  0  0
 43 39  1  0  0  0  0
 43 48  1  0  0  0  0
 46 45  1  0  0  0  0
 47 45  1  0  0  0  0
 47 44  1  0  0  0  0
 48 51  2  0  0  0  0
 48 50  1  0  0  0  0
 49 46  1  0  0  0  0
 50 47  2  0  0  0  0
 51 46  1  0  0  0  0
M  END
>  <MODEL>
3

>  <REMARK>
 VINA RESULT:      -6.9      3.463      8.737
  Name = 
  13 active torsions:
  status: ('A' for Active; 'I' for Inactive)
    1  A    between atoms: C_14  and  C_16
    2  A    between atoms: C_14  and  C_39
    3  A    between atoms: C_16  and  N_22
    4  A    between atoms: C_19  and  C_32
    5  A    between atoms: C_20  and  S_44
    6  A    between atoms: C_28  and  C_39
    7  A    between atoms: C_29  and  S_49
    8  A    between atoms: C_32  and  C_50
    9  A    between atoms: C_33  and  C_43
   10  A    between atoms: C_33  and  C_51
   11  A    between atoms: N_35  and  S_44
   12  A    between atoms: C_36  and  S_49
   13  A    between atoms: C_39  and  C_47
                            x       y       z     vdW  Elec       q    Type
                         _______ _______ _______ _____ _____    ______ ____

>  <TORSDO>
F 13

$$$$
=
 OpenBabel11062421183D

 51 56  0  0  1  0  0  0  0  0999 V2000
  192.9960  173.0940  144.8760 N   0  0  0  0  0  0  0  0  0  0  0  0
  193.5310  173.1920  141.7700 N   0  0  1  0  0  0  0  0  0  0  0  0
  192.2270  173.1660  142.4450 C   0  0  1  0  0  3  0  0  0  0  0  0
  195.3030  176.1450  140.8920 O   0  0  0  0  0  0  0  0  0  0  0  0
  194.7270  174.3900  143.5770 C   0  0  0  0  0  2  0  0  0  0  0  0
  188.9280  172.8790  140.5790 C   0  0  0  0  0  2  0  0  0  0  0  0
  195.1520  174.7490  141.0490 C   0  0  1  0  0  0  0  0  0  0  0  0
  197.3880  175.1250  141.1980 C   0  0  0  0  0  3  0  0  0  0  0  0
  194.4880  174.0700  139.8520 C   0  0  1  0  0  3  0  0  0  0  0  0
  196.6880  176.4030  140.9220 C   0  0  0  0  0  2  0  0  0  0  0  0
  191.1320  172.4180  141.6910 C   0  0  2  0  0  3  0  0  0  0  0  0
  193.3750  173.2740  140.3690 N   0  0  0  0  0  2  0  0  0  0  0  0
  190.3490  173.3840  140.7910 C   0  0  0  0  0  2  0  0  0  0  0  0
  190.9900  171.9030  144.0970 C   0  0  0  0  0  2  0  0  0  0  0  0
  192.3790  172.3830  143.7430 C   0  0  2  0  0  3  0  0  0  0  0  0
  193.5550  174.4260  144.5620 C   0  0  2  0  0  3  0  0  0  0  0  0
  196.5020  174.1620  141.2690 C   0  0  0  0  0  3  0  0  0  0  0  0
  194.0300  172.2200  145.4190 C   0  0  0  0  0  1  0  0  0  0  0  0
  188.8670  172.2240  142.8730 C   0  0  0  0  0  3  0  0  0  0  0  0
  188.2690  172.7530  141.8590 N   0  0  0  0  0  0  0  0  0  0  0  0
  190.2790  171.7100  142.7700 C   0  0  1  0  0  3  0  0  0  0  0  0
  194.1700  174.4370  142.1540 C   0  0  1  0  0  3  0  0  0  0  0  0
  193.9590  175.0500  138.8070 C   0  0  0  0  0  2  0  0  0  0  0  0
  194.0160  174.9510  136.2670 N   0  0  0  0  0  2  0  0  0  0  0  0
  195.9540  174.7640  137.5240 O   0  0  0  0  0  0  0  0  0  0  0  0
  194.7070  174.9390  137.5150 C   0  0  0  0  0  0  0  0  0  0  0  0
  192.5700  175.0360  136.1740 C   0  0  0  0  0  2  0  0  0  0  0  0
  191.9720  173.6570  135.9730 C   0  0  0  0  0  2  0  0  0  0  0  0
  191.0170  173.2870  137.1060 C   0  0  2  0  0  3  0  0  0  0  0  0
  191.6480  171.1880  138.1650 N   0  0  0  0  0  1  0  0  0  0  0  0
  190.7830  171.7820  137.1600 C   0  0  0  0  0  2  0  0  0  0  0  0
  189.2480  173.9940  135.6240 O   0  0  0  0  0  1  0  0  0  0  0  0
  189.6870  174.0220  136.9510 C   0  0  0  0  0  2  0  0  0  0  0  0
  194.0070  175.3240  146.0850 S   0  0  0  0  0  0  0  0  0  0  0  0
  192.4380  174.9660  146.8700 C   0  0  0  0  0  3  0  0  0  0  0  0
  191.3250  175.5580  146.4370 C   0  0  0  0  0  3  0  0  0  0  0  0
  190.0050  175.2840  147.0780 C   0  0  0  0  0  2  0  0  0  0  0  0
  189.4160  177.5580  146.7290 O   0  0  0  0  0  0  0  0  0  0  0  0
  187.6580  176.0270  146.5240 N   0  0  0  0  0  2  0  0  0  0  0  0
  189.0250  176.3630  146.7730 C   0  0  0  0  0  0  0  0  0  0  0  0
  186.6230  178.4630  146.7510 O   0  0  0  0  0  0  0  0  0  0  0  0
  185.0920  176.6010  146.3170 O   0  0  0  0  0  0  0  0  0  0  0  0
  186.4510  177.1630  146.0110 S   0  0  0  0  0  0  0  0  0  0  0  0
  189.3820  178.2920  142.0010 F   0  0  0  0  0  0  0  0  0  0  0  0
  187.1910  176.7990  141.3320 S   0  0  0  0  0  0  0  0  0  0  0  0
  185.6320  177.4730  142.0010 C   0  0  2  0  0  3  0  0  0  0  0  0
  188.2310  177.7460  142.4590 C   0  0  0  0  0  0  0  0  0  0  0  0
  186.6090  177.4240  144.2820 C   0  0  0  0  0  0  0  0  0  0  0  0
  185.5640  178.8340  141.7570 F   0  0  0  0  0  0  0  0  0  0  0  0
  187.9070  177.8800  143.7480 C   0  0  0  0  0  3  0  0  0  0  0  0
  185.5610  177.2140  143.4790 C   0  0  0  0  0  3  0  0  0  0  0  0
  1 18  1  0  0  0  0
  2 12  1  6  0  0  0
  2 22  1  0  0  0  0
  2  3  1  0  0  0  0
  3 15  1  0  0  0  0
  4 10  1  0  0  0  0
  4  7  1  0  0  0  0
  5 16  1  0  0  0  0
  6 13  1  0  0  0  0
  6 20  1  0  0  0  0
  7 17  1  0  0  0  0
  7 22  1  0  0  0  0
  8 17  2  0  0  0  0
  9 12  1  0  0  0  0
  9  7  1  0  0  0  0
 10  8  1  0  0  0  0
 11  3  1  0  0  0  0
 11 21  1  0  0  0  0
 13 11  1  0  0  0  0
 15 14  1  0  0  0  0
 15  1  1  0  0  0  0
 16  1  1  0  0  0  0
 16 34  1  0  0  0  0
 20 19  2  0  0  0  0
 21 19  1  0  0  0  0
 21 14  1  0  0  0  0
 22  5  1  0  0  0  0
 23  9  1  0  0  0  0
 24 26  1  0  0  0  0
 26 25  2  0  0  0  0
 26 23  1  0  0  0  0
 27 24  1  0  0  0  0
 28 27  1  0  0  0  0
 28 29  1  0  0  0  0
 29 31  1  0  0  0  0
 31 30  1  0  0  0  0
 32 33  1  0  0  0  0
 33 29  1  0  0  0  0
 34 35  1  0  0  0  0
 36 35  2  0  0  0  0
 36 37  1  0  0  0  0
 38 40  2  0  0  0  0
 39 40  1  0  0  0  0
 40 37  1  0  0  0  0
 43 42  2  0  0  0  0
 43 39  1  0  0  0  0
 43 41  2  0  0  0  0
 44 47  1  0  0  0  0
 45 46  1  0  0  0  0
 45 47  1  0  0  0  0
 46 51  1  0  0  0  0
 47 50  2  0  0  0  0
 48 43  1  0  0  0  0
 49 46  1  0  0  0  0
 50 48  1  0  0  0  0
 51 48  2  0  0  0  0
M  END
>  <MODEL>
4

>  <REMARK>
 VINA RESULT:      -6.7      3.153      8.704
  Name = 
  13 active torsions:
  status: ('A' for Active; 'I' for Inactive)
    1  A    between atoms: C_14  and  C_16
    2  A    between atoms: C_14  and  C_39
    3  A    between atoms: C_16  and  N_22
    4  A    between atoms: C_19  and  C_32
    5  A    between atoms: C_20  and  S_44
    6  A    between atoms: C_28  and  C_39
    7  A    between atoms: C_29  and  S_49
    8  A    between atoms: C_32  and  C_50
    9  A    between atoms: C_33  and  C_43
   10  A    between atoms: C_33  and  C_51
   11  A    between atoms: N_35  and  S_44
   12  A    between atoms: C_36  and  S_49
   13  A    between atoms: C_39  and  C_47
                            x       y       z     vdW  Elec       q    Type
                         _______ _______ _______ _____ _____    ______ ____

>  <TORSDO>
F 13

$$$$
=
 OpenBabel11062421183D

 51 56  0  0  1  0  0  0  0  0999 V2000
  192.5320  170.2070  140.8310 N   0  0  0  0  0  0  0  0  0  0  0  0
  191.1680  171.6740  143.2670 N   0  0  1  0  0  0  0  0  0  0  0  0
  192.6050  171.4590  143.0520 C   0  0  1  0  0  3  0  0  0  0  0  0
  189.3580  174.5260  142.1630 O   0  0  0  0  0  0  0  0  0  0  0  0
  190.5690  171.7930  140.8680 C   0  0  0  0  0  2  0  0  0  0  0  0
  195.2490  172.3620  145.6300 C   0  0  0  0  0  2  0  0  0  0  0  0
  189.4830  173.2340  142.7220 C   0  0  1  0  0  0  0  0  0  0  0  0
  187.3940  173.2950  141.8330 C   0  0  0  0  0  3  0  0  0  0  0  0
  189.7620  173.2450  144.2250 C   0  0  1  0  0  3  0  0  0  0  0  0
  188.0470  174.6140  141.6530 C   0  0  0  0  0  2  0  0  0  0  0  0
  193.4170  171.2440  144.3260 C   0  0  2  0  0  3  0  0  0  0  0  0
  190.9380  172.4050  144.4530 N   0  0  0  0  0  2  0  0  0  0  0  0
  193.9650  172.5820  144.8420 C   0  0  0  0  0  2  0  0  0  0  0  0
  194.1910  169.6950  142.5720 C   0  0  0  0  0  2  0  0  0  0  0  0
  192.7810  170.1570  142.2820 C   0  0  2  0  0  3  0  0  0  0  0  0
  191.9680  171.4770  140.3270 C   0  0  2  0  0  3  0  0  0  0  0  0
  188.2210  172.4920  142.4550 C   0  0  0  0  0  3  0  0  0  0  0  0
  191.6480  169.0920  140.5080 C   0  0  0  0  0  1  0  0  0  0  0  0
  195.9080  170.7340  144.0150 C   0  0  0  0  0  3  0  0  0  0  0  0
  196.2280  171.7210  144.7810 N   0  0  0  0  0  0  0  0  0  0  0  0
  194.5010  170.1990  143.9700 C   0  0  1  0  0  3  0  0  0  0  0  0
  190.7160  172.5400  142.1930 C   0  0  1  0  0  3  0  0  0  0  0  0
  190.0270  174.6400  144.7890 C   0  0  0  0  0  2  0  0  0  0  0  0
  188.4160  176.1050  146.1010 N   0  0  0  0  0  2  0  0  0  0  0  0
  189.2270  174.1200  146.9790 O   0  0  0  0  0  0  0  0  0  0  0  0
  189.1940  174.9130  146.0020 C   0  0  0  0  0  0  0  0  0  0  0  0
  188.4100  177.1230  145.0670 C   0  0  0  0  0  2  0  0  0  0  0  0
  187.0700  177.1430  144.3540 C   0  0  0  0  0  2  0  0  0  0  0  0
  186.4030  178.5140  144.4490 C   0  0  2  0  0  3  0  0  0  0  0  0
  184.9040  177.4140  146.0200 N   0  0  0  0  0  1  0  0  0  0  0  0
  185.6120  178.6530  145.7430 C   0  0  0  0  0  2  0  0  0  0  0  0
  185.0550  177.5460  142.6970 O   0  0  0  0  0  1  0  0  0  0  0  0
  185.4930  178.7540  143.2460 C   0  0  0  0  0  2  0  0  0  0  0  0
  191.9910  171.5290  138.5030 S   0  0  0  0  0  0  0  0  0  0  0  0
  193.2370  172.8150  138.4660 C   0  0  0  0  0  3  0  0  0  0  0  0
  192.8840  174.0800  138.2400 C   0  0  0  0  0  3  0  0  0  0  0  0
  193.9020  175.1700  138.1960 C   0  0  0  0  0  2  0  0  0  0  0  0
  196.0720  174.6390  139.0030 O   0  0  0  0  0  0  0  0  0  0  0  0
  194.5320  175.3000  140.6370 N   0  0  0  0  0  2  0  0  0  0  0  0
  194.9050  175.0130  139.2870 C   0  0  0  0  0  0  0  0  0  0  0  0
  196.8720  176.0860  141.6170 O   0  0  0  0  0  0  0  0  0  0  0  0
  196.0270  173.8880  142.2880 O   0  0  0  0  0  0  0  0  0  0  0  0
  195.6370  175.3040  141.9750 S   0  0  0  0  0  0  0  0  0  0  0  0
  191.5120  177.4680  144.0360 F   0  0  0  0  0  0  0  0  0  0  0  0
  193.0960  176.2210  145.8830 S   0  0  0  0  0  0  0  0  0  0  0  0
  194.8550  176.6940  145.7570 C   0  0  2  0  0  3  0  0  0  0  0  0
  192.6850  176.8220  144.2360 C   0  0  0  0  0  0  0  0  0  0  0  0
  194.8450  176.0240  143.3670 C   0  0  0  0  0  0  0  0  0  0  0  0
  194.9670  178.0690  145.6590 F   0  0  0  0  0  0  0  0  0  0  0  0
  193.4980  176.6030  143.1990 C   0  0  0  0  0  3  0  0  0  0  0  0
  195.4690  176.0430  144.5500 C   0  0  0  0  0  3  0  0  0  0  0  0
  1 15  1  0  0  0  0
  2 12  1  1  0  0  0
  3  2  1  0  0  0  0
  3 11  1  0  0  0  0
  4  7  1  0  0  0  0
  5 22  1  0  0  0  0
  7  9  1  0  0  0  0
  8 17  2  0  0  0  0
  9 12  1  0  0  0  0
  9 23  1  0  0  0  0
 10  8  1  0  0  0  0
 10  4  1  0  0  0  0
 11 13  1  0  0  0  0
 13  6  1  0  0  0  0
 14 21  1  0  0  0  0
 15 14  1  0  0  0  0
 15  3  1  0  0  0  0
 16  1  1  0  0  0  0
 16  5  1  0  0  0  0
 17  7  1  0  0  0  0
 18  1  1  0  0  0  0
 19 20  2  0  0  0  0
 20  6  1  0  0  0  0
 21 19  1  0  0  0  0
 21 11  1  0  0  0  0
 22  7  1  0  0  0  0
 22  2  1  0  0  0  0
 23 26  1  0  0  0  0
 26 24  1  0  0  0  0
 26 25  2  0  0  0  0
 27 24  1  0  0  0  0
 28 29  1  0  0  0  0
 28 27  1  0  0  0  0
 29 31  1  0  0  0  0
 31 30  1  0  0  0  0
 32 33  1  0  0  0  0
 33 29  1  0  0  0  0
 34 16  1  0  0  0  0
 35 34  1  0  0  0  0
 36 35  2  0  0  0  0
 37 36  1  0  0  0  0
 37 40  1  0  0  0  0
 38 40  2  0  0  0  0
 39 43  1  0  0  0  0
 40 39  1  0  0  0  0
 41 43  2  0  0  0  0
 43 42  2  0  0  0  0
 43 48  1  0  0  0  0
 44 47  1  0  0  0  0
 46 45  1  0  0  0  0
 47 45  1  0  0  0  0
 48 51  2  0  0  0  0
 49 46  1  0  0  0  0
 50 48  1  0  0  0  0
 50 47  2  0  0  0  0
 51 46  1  0  0  0  0
M  END
>  <MODEL>
5

>  <REMARK>
 VINA RESULT:      -6.7      1.544      2.112
  Name = 
  13 active torsions:
  status: ('A' for Active; 'I' for Inactive)
    1  A    between atoms: C_14  and  C_16
    2  A    between atoms: C_14  and  C_39
    3  A    between atoms: C_16  and  N_22
    4  A    between atoms: C_19  and  C_32
    5  A    between atoms: C_20  and  S_44
    6  A    between atoms: C_28  and  C_39
    7  A    between atoms: C_29  and  S_49
    8  A    between atoms: C_32  and  C_50
    9  A    between atoms: C_33  and  C_43
   10  A    between atoms: C_33  and  C_51
   11  A    between atoms: N_35  and  S_44
   12  A    between atoms: C_36  and  S_49
   13  A    between atoms: C_39  and  C_47
                            x       y       z     vdW  Elec       q    Type
                         _______ _______ _______ _____ _____    ______ ____

>  <TORSDO>
F 13

$$$$
=
 OpenBabel11062421183D

 51 56  0  0  1  0  0  0  0  0999 V2000
  189.2440  176.3170  145.7930 N   0  0  0  0  0  0  0  0  0  0  0  0
  188.4030  174.8320  143.1400 N   0  0  1  0  0  0  0  0  0  0  0  0
  187.9440  176.1480  143.6040 C   0  0  1  0  0  3  0  0  0  0  0  0
  191.2280  174.2910  141.0530 O   0  0  0  0  0  0  0  0  0  0  0  0
  190.6430  174.9630  144.1880 C   0  0  0  0  0  2  0  0  0  0  0  0
  185.2320  178.1420  141.8390 C   0  0  0  0  0  2  0  0  0  0  0  0
  190.1620  173.8820  141.8860 C   0  0  1  0  0  0  0  0  0  0  0  0
  191.7040  172.2210  142.0370 C   0  0  0  0  0  3  0  0  0  0  0  0
  188.8330  173.7370  141.1460 C   0  0  1  0  0  3  0  0  0  0  0  0
  192.1780  173.2500  141.0810 C   0  0  0  0  0  2  0  0  0  0  0  0
  186.5020  176.4880  143.2370 C   0  0  2  0  0  3  0  0  0  0  0  0
  187.8380  174.5120  141.8860 N   0  0  0  0  0  2  0  0  0  0  0  0
  186.4560  177.2390  141.8990 C   0  0  0  0  0  2  0  0  0  0  0  0
  186.9710  177.2230  145.5420 C   0  0  0  0  0  2  0  0  0  0  0  0
  187.9410  176.1400  145.1280 C   0  0  2  0  0  3  0  0  0  0  0  0
  190.4200  176.3020  144.8980 C   0  0  2  0  0  3  0  0  0  0  0  0
  190.5340  172.5800  142.5040 C   0  0  0  0  0  3  0  0  0  0  0  0
  189.3550  175.2690  146.8020 C   0  0  0  0  0  1  0  0  0  0  0  0
  185.5960  178.7120  144.1280 C   0  0  0  0  0  3  0  0  0  0  0  0
  185.2780  179.0840  142.9340 N   0  0  0  0  0  0  0  0  0  0  0  0
  185.9310  177.2770  144.4380 C   0  0  1  0  0  3  0  0  0  0  0  0
  189.8280  174.9560  142.8940 C   0  0  1  0  0  3  0  0  0  0  0  0
  188.8780  174.2310  139.7010 C   0  0  0  0  0  2  0  0  0  0  0  0
  189.0130  173.3380  137.3240 N   0  0  0  0  0  2  0  0  0  0  0  0
  188.8900  171.9080  139.1440 O   0  0  0  0  0  0  0  0  0  0  0  0
  188.9510  173.0950  138.7290 C   0  0  0  0  0  0  0  0  0  0  0  0
  188.9760  174.6740  136.7600 C   0  0  0  0  0  2  0  0  0  0  0  0
  187.5690  175.2370  136.8290 C   0  0  0  0  0  2  0  0  0  0  0  0
  187.1800  175.9420  135.5310 C   0  0  2  0  0  3  0  0  0  0  0  0
  189.0980  177.1790  134.6850 N   0  0  0  0  0  1  0  0  0  0  0  0
  187.8520  177.3050  135.4220 C   0  0  0  0  0  2  0  0  0  0  0  0
  185.0680  176.0230  136.6970 O   0  0  0  0  0  1  0  0  0  0  0  0
  185.6630  176.0930  135.4340 C   0  0  0  0  0  2  0  0  0  0  0  0
  191.9260  176.8300  145.7850 S   0  0  0  0  0  0  0  0  0  0  0  0
  193.0080  176.1990  144.5050 C   0  0  0  0  0  3  0  0  0  0  0  0
  194.3220  176.4140  144.5760 C   0  0  0  0  0  3  0  0  0  0  0  0
  195.2460  175.9060  143.5200 C   0  0  0  0  0  2  0  0  0  0  0  0
  197.3910  175.1830  144.2390 O   0  0  0  0  0  0  0  0  0  0  0  0
  195.6880  173.5840  144.4040 N   0  0  0  0  0  2  0  0  0  0  0  0
  196.1800  174.8840  144.0690 C   0  0  0  0  0  0  0  0  0  0  0  0
  197.2170  172.8970  146.4650 O   0  0  0  0  0  0  0  0  0  0  0  0
  197.7470  171.9410  144.2730 O   0  0  0  0  0  0  0  0  0  0  0  0
  196.6310  172.3560  145.1880 S   0  0  0  0  0  0  0  0  0  0  0  0
  192.3470  169.7550  144.2790 F   0  0  0  0  0  0  0  0  0  0  0  0
  194.3670  168.1800  145.2370 S   0  0  0  0  0  0  0  0  0  0  0  0
  195.1520  168.8560  146.7400 C   0  0  2  0  0  3  0  0  0  0  0  0
  193.6060  169.7470  144.7770 C   0  0  0  0  0  0  0  0  0  0  0  0
  195.6010  170.9770  145.5310 C   0  0  0  0  0  0  0  0  0  0  0  0
  194.1810  169.2500  147.6430 F   0  0  0  0  0  0  0  0  0  0  0  0
  194.2790  170.8960  144.8780 C   0  0  0  0  0  3  0  0  0  0  0  0
  196.0190  170.0270  146.3750 C   0  0  0  0  0  3  0  0  0  0  0  0
  1 18  1  0  0  0  0
  2 12  1  6  0  0  0
  2  3  1  0  0  0  0
  3 15  1  0  0  0  0
  4 10  1  0  0  0  0
  4  7  1  0  0  0  0
  5 16  1  0  0  0  0
  6 13  1  0  0  0  0
  6 20  1  0  0  0  0
  7 17  1  0  0  0  0
  7 22  1  0  0  0  0
  8 17  2  0  0  0  0
  9 12  1  0  0  0  0
  9  7  1  0  0  0  0
 10  8  1  0  0  0  0
 11  3  1  0  0  0  0
 11 21  1  0  0  0  0
 13 11  1  0  0  0  0
 15 14  1  0  0  0  0
 15  1  1  0  0  0  0
 16 34  1  0  0  0  0
 16  1  1  0  0  0  0
 19 21  1  0  0  0  0
 20 19  2  0  0  0  0
 21 14  1  0  0  0  0
 22  2  1  0  0  0  0
 22  5  1  0  0  0  0
 23  9  1  0  0  0  0
 24 26  1  0  0  0  0
 26 25  2  0  0  0  0
 26 23  1  0  0  0  0
 27 28  1  0  0  0  0
 27 24  1  0  0  0  0
 29 28  1  0  0  0  0
 30 31  1  0  0  0  0
 31 29  1  0  0  0  0
 33 29  1  0  0  0  0
 33 32  1  0  0  0  0
 35 36  2  0  0  0  0
 35 34  1  0  0  0  0
 37 40  1  0  0  0  0
 37 36  1  0  0  0  0
 39 43  1  0  0  0  0
 40 38  2  0  0  0  0
 40 39  1  0  0  0  0
 42 43  2  0  0  0  0
 43 48  1  0  0  0  0
 43 41  2  0  0  0  0
 44 47  1  0  0  0  0
 45 46  1  0  0  0  0
 46 49  1  0  0  0  0
 47 50  2  0  0  0  0
 47 45  1  0  0  0  0
 48 51  2  0  0  0  0
 50 48  1  0  0  0  0
 51 46  1  0  0  0  0
M  END
>  <MODEL>
6

>  <REMARK>
 VINA RESULT:      -6.7      3.421      7.359
  Name = 
  13 active torsions:
  status: ('A' for Active; 'I' for Inactive)
    1  A    between atoms: C_14  and  C_16
    2  A    between atoms: C_14  and  C_39
    3  A    between atoms: C_16  and  N_22
    4  A    between atoms: C_19  and  C_32
    5  A    between atoms: C_20  and  S_44
    6  A    between atoms: C_28  and  C_39
    7  A    between atoms: C_29  and  S_49
    8  A    between atoms: C_32  and  C_50
    9  A    between atoms: C_33  and  C_43
   10  A    between atoms: C_33  and  C_51
   11  A    between atoms: N_35  and  S_44
   12  A    between atoms: C_36  and  S_49
   13  A    between atoms: C_39  and  C_47
                            x       y       z     vdW  Elec       q    Type
                         _______ _______ _______ _____ _____    ______ ____

>  <TORSDO>
F 13

$$$$
=
 OpenBabel11062421183D

 51 56  0  0  1  0  0  0  0  0999 V2000
  187.3780  175.5620  141.8260 N   0  0  0  0  0  0  0  0  0  0  0  0
  189.6620  176.4440  143.8140 N   0  0  1  0  0  0  0  0  0  0  0  0
  188.2300  176.3070  144.1120 C   0  0  1  0  0  3  0  0  0  0  0  0
  192.0690  173.8570  144.1920 O   0  0  0  0  0  0  0  0  0  0  0  0
  189.7290  174.6800  142.0790 C   0  0  0  0  0  2  0  0  0  0  0  0
  186.6940  177.3180  147.4390 C   0  0  0  0  0  2  0  0  0  0  0  0
  191.6250  175.1340  143.7810 C   0  0  1  0  0  0  0  0  0  0  0  0
  193.3580  174.6350  142.3990 C   0  0  0  0  0  3  0  0  0  0  0  0
  191.7000  176.1880  144.8840 C   0  0  1  0  0  3  0  0  0  0  0  0
  193.1840  173.5440  143.3890 C   0  0  0  0  0  2  0  0  0  0  0  0
  187.6910  177.3030  145.1340 C   0  0  2  0  0  3  0  0  0  0  0  0
  190.3850  176.8230  144.9670 N   0  0  0  0  0  2  0  0  0  0  0  0
  187.7710  176.7120  146.5490 C   0  0  0  0  0  2  0  0  0  0  0  0
  186.0650  177.0240  143.3040 C   0  0  0  0  0  2  0  0  0  0  0  0
  187.4480  176.6240  142.8440 C   0  0  2  0  0  3  0  0  0  0  0  0
  188.2260  174.3790  142.0840 C   0  0  2  0  0  3  0  0  0  0  0  0
  192.4580  175.5610  142.6240 C   0  0  0  0  0  3  0  0  0  0  0  0
  187.7250  176.1710  140.5460 C   0  0  0  0  0  1  0  0  0  0  0  0
  185.1750  177.2040  145.6030 C   0  0  0  0  0  3  0  0  0  0  0  0
  185.3950  177.0540  146.8660 N   0  0  0  0  0  0  0  0  0  0  0  0
  186.2610  177.6630  144.6670 C   0  0  1  0  0  3  0  0  0  0  0  0
  190.1440  175.1150  143.4840 C   0  0  1  0  0  3  0  0  0  0  0  0
  192.0680  175.6190  146.2530 C   0  0  0  0  0  2  0  0  0  0  0  0
  194.3770  176.6110  146.6390 N   0  0  0  0  0  2  0  0  0  0  0  0
  192.5830  177.1710  147.9940 O   0  0  0  0  0  0  0  0  0  0  0  0
  192.9990  176.5250  146.9970 C   0  0  0  0  0  0  0  0  0  0  0  0
  194.9590  175.8170  145.5740 C   0  0  0  0  0  2  0  0  0  0  0  0
  195.6070  174.5670  146.1410 C   0  0  0  0  0  2  0  0  0  0  0  0
  196.8470  174.1660  145.3450 C   0  0  2  0  0  3  0  0  0  0  0  0
  196.8790  173.7740  142.9430 N   0  0  0  0  0  1  0  0  0  0  0  0
  196.8460  174.8080  143.9640 C   0  0  0  0  0  2  0  0  0  0  0  0
  195.7270  172.0390  145.5690 O   0  0  0  0  0  1  0  0  0  0  0  0
  196.9370  172.6450  145.2200 C   0  0  0  0  0  2  0  0  0  0  0  0
  187.8270  173.0210  140.9310 S   0  0  0  0  0  0  0  0  0  0  0  0
  189.4710  172.3190  141.0500 C   0  0  0  0  0  3  0  0  0  0  0  0
  190.1690  172.0630  139.9430 C   0  0  0  0  0  3  0  0  0  0  0  0
  191.5370  171.4710  140.0130 C   0  0  0  0  0  2  0  0  0  0  0  0
  193.4890  171.4720  138.6590 O   0  0  0  0  0  0  0  0  0  0  0  0
  192.0960  173.3370  138.4090 N   0  0  0  0  0  2  0  0  0  0  0  0
  192.4390  172.0800  138.9960 C   0  0  0  0  0  0  0  0  0  0  0  0
  192.2310  175.2910  136.6140 O   0  0  0  0  0  0  0  0  0  0  0  0
  193.1090  173.0930  135.9860 O   0  0  0  0  0  0  0  0  0  0  0  0
  192.9740  174.0800  137.1100 S   0  0  0  0  0  0  0  0  0  0  0  0
  195.9000  176.0530  140.7830 F   0  0  0  0  0  0  0  0  0  0  0  0
  197.2550  174.3230  139.1560 S   0  0  0  0  0  0  0  0  0  0  0  0
  197.0260  174.6800  137.3800 C   0  0  2  0  0  3  0  0  0  0  0  0
  195.8250  175.2930  139.6650 C   0  0  0  0  0  0  0  0  0  0  0  0
  194.5670  174.5410  137.6880 C   0  0  0  0  0  0  0  0  0  0  0  0
  197.2010  176.0320  137.1440 F   0  0  0  0  0  0  0  0  0  0  0  0
  194.6790  175.2420  138.9820 C   0  0  0  0  0  3  0  0  0  0  0  0
  195.6490  174.2590  136.9530 C   0  0  0  0  0  3  0  0  0  0  0  0
  1 16  1  0  0  0  0
  1 15  1  0  0  0  0
  2  3  1  0  0  0  0
  2 12  1  1  0  0  0
  3 11  1  0  0  0  0
  5 16  1  0  0  0  0
  5 22  1  0  0  0  0
  7  4  1  0  0  0  0
  7  9  1  0  0  0  0
  8 17  2  0  0  0  0
  8 10  1  0  0  0  0
  9 12  1  0  0  0  0
  9 23  1  0  0  0  0
 10  4  1  0  0  0  0
 11 13  1  0  0  0  0
 13  6  1  0  0  0  0
 14 21  1  0  0  0  0
 15 14  1  0  0  0  0
 15  3  1  0  0  0  0
 17  7  1  0  0  0  0
 18  1  1  0  0  0  0
 19 20  2  0  0  0  0
 20  6  1  0  0  0  0
 21 11  1  0  0  0  0
 21 19  1  0  0  0  0
 22  7  1  0  0  0  0
 22  2  1  0  0  0  0
 23 26  1  0  0  0  0
 24 26  1  0  0  0  0
 26 25  2  0  0  0  0
 27 28  1  0  0  0  0
 27 24  1  0  0  0  0
 29 28  1  0  0  0  0
 30 31  1  0  0  0  0
 31 29  1  0  0  0  0
 33 29  1  0  0  0  0
 33 32  1  0  0  0  0
 34 35  1  0  0  0  0
 34 16  1  0  0  0  0
 36 37  1  0  0  0  0
 36 35  2  0  0  0  0
 38 40  2  0  0  0  0
 39 40  1  0  0  0  0
 40 37  1  0  0  0  0
 41 43  2  0  0  0  0
 42 43  2  0  0  0  0
 43 48  1  0  0  0  0
 43 39  1  0  0  0  0
 45 47  1  0  0  0  0
 46 45  1  0  0  0  0
 47 44  1  0  0  0  0
 48 50  1  0  0  0  0
 49 46  1  0  0  0  0
 50 47  2  0  0  0  0
 51 46  1  0  0  0  0
 51 48  2  0  0  0  0
M  END
>  <MODEL>
7

>  <REMARK>
 VINA RESULT:      -6.7      3.104      7.326
  Name = 
  13 active torsions:
  status: ('A' for Active; 'I' for Inactive)
    1  A    between atoms: C_14  and  C_16
    2  A    between atoms: C_14  and  C_39
    3  A    between atoms: C_16  and  N_22
    4  A    between atoms: C_19  and  C_32
    5  A    between atoms: C_20  and  S_44
    6  A    between atoms: C_28  and  C_39
    7  A    between atoms: C_29  and  S_49
    8  A    between atoms: C_32  and  C_50
    9  A    between atoms: C_33  and  C_43
   10  A    between atoms: C_33  and  C_51
   11  A    between atoms: N_35  and  S_44
   12  A    between atoms: C_36  and  S_49
   13  A    between atoms: C_39  and  C_47
                            x       y       z     vdW  Elec       q    Type
                         _______ _______ _______ _____ _____    ______ ____

>  <TORSDO>
F 13

$$$$
=
 OpenBabel11062421183D

 51 56  0  0  1  0  0  0  0  0999 V2000
  187.0330  176.7870  141.7880 N   0  0  0  0  0  0  0  0  0  0  0  0
  189.2500  177.2540  143.9820 N   0  0  1  0  0  0  0  0  0  0  0  0
  187.8050  177.1070  144.1980 C   0  0  1  0  0  3  0  0  0  0  0  0
  191.5840  174.5740  143.9990 O   0  0  0  0  0  0  0  0  0  0  0  0
  189.3520  175.8110  141.9730 C   0  0  0  0  0  2  0  0  0  0  0  0
  186.1540  177.5780  147.5900 C   0  0  0  0  0  2  0  0  0  0  0  0
  191.1850  175.9140  143.7970 C   0  0  1  0  0  0  0  0  0  0  0  0
  192.9630  175.6110  142.4160 C   0  0  0  0  0  3  0  0  0  0  0  0
  191.2370  176.7630  145.0670 C   0  0  1  0  0  3  0  0  0  0  0  0
  192.7250  174.3730  143.1960 C   0  0  0  0  0  2  0  0  0  0  0  0
  187.2450  177.9290  145.3550 C   0  0  2  0  0  3  0  0  0  0  0  0
  189.9320  177.4100  145.2080 N   0  0  0  0  0  2  0  0  0  0  0  0
  187.2540  177.1030  146.6490 C   0  0  0  0  0  2  0  0  0  0  0  0
  185.6900  178.0120  143.4450 C   0  0  0  0  0  2  0  0  0  0  0  0
  187.0830  177.6580  142.9750 C   0  0  2  0  0  3  0  0  0  0  0  0
  187.8440  175.5550  141.8700 C   0  0  2  0  0  3  0  0  0  0  0  0
  192.0740  176.5100  142.7630 C   0  0  0  0  0  3  0  0  0  0  0  0
  187.4450  177.5960  140.6460 C   0  0  0  0  0  1  0  0  0  0  0  0
  184.7100  177.8210  145.7060 C   0  0  0  0  0  3  0  0  0  0  0  0
  184.8740  177.4520  146.9310 N   0  0  0  0  0  0  0  0  0  0  0  0
  185.8430  178.4030  144.9040 C   0  0  1  0  0  3  0  0  0  0  0  0
  189.7170  175.9880  143.4460 C   0  0  1  0  0  3  0  0  0  0  0  0
  191.5360  175.9590  146.3300 C   0  0  0  0  0  2  0  0  0  0  0  0
  193.7660  177.0020  146.9630 N   0  0  0  0  0  2  0  0  0  0  0  0
  191.9520  177.0680  148.4040 O   0  0  0  0  0  0  0  0  0  0  0  0
  192.4030  176.7230  147.2810 C   0  0  0  0  0  0  0  0  0  0  0  0
  194.3930  176.5420  145.7380 C   0  0  0  0  0  2  0  0  0  0  0  0
  195.2620  175.3290  146.0140 C   0  0  0  0  0  2  0  0  0  0  0  0
  195.9590  174.8370  144.7470 C   0  0  2  0  0  3  0  0  0  0  0  0
  197.1960  173.7210  146.5210 N   0  0  0  0  0  1  0  0  0  0  0  0
  197.1140  173.9020  145.0810 C   0  0  0  0  0  2  0  0  0  0  0  0
  196.4190  175.7240  142.5490 O   0  0  0  0  0  1  0  0  0  0  0  0
  196.4600  176.0170  143.9150 C   0  0  0  0  0  2  0  0  0  0  0  0
  187.4650  174.4260  140.4880 S   0  0  0  0  0  0  0  0  0  0  0  0
  189.1200  173.7390  140.4780 C   0  0  0  0  0  3  0  0  0  0  0  0
  189.3030  172.4420  140.2280 C   0  0  0  0  0  3  0  0  0  0  0  0
  190.6690  171.8430  140.2210 C   0  0  0  0  0  2  0  0  0  0  0  0
  190.1060  170.9820  142.3620 O   0  0  0  0  0  0  0  0  0  0  0  0
  192.3990  171.1310  141.9150 N   0  0  0  0  0  2  0  0  0  0  0  0
  191.0240  171.2980  141.5610 C   0  0  0  0  0  0  0  0  0  0  0  0
  192.4810  168.9390  143.4130 O   0  0  0  0  0  0  0  0  0  0  0  0
  192.3700  171.1040  144.5510 O   0  0  0  0  0  0  0  0  0  0  0  0
  192.9460  170.3700  143.3750 S   0  0  0  0  0  0  0  0  0  0  0  0
  197.2350  170.4960  146.1190 F   0  0  0  0  0  0  0  0  0  0  0  0
  197.6010  169.4500  143.6190 S   0  0  0  0  0  0  0  0  0  0  0  0
  196.9040  170.4960  142.2950 C   0  0  2  0  0  3  0  0  0  0  0  0
  196.6490  170.2490  144.9240 C   0  0  0  0  0  0  0  0  0  0  0  0
  194.6990  170.4390  143.4340 C   0  0  0  0  0  0  0  0  0  0  0  0
  197.2820  171.8130  142.4870 F   0  0  0  0  0  0  0  0  0  0  0  0
  195.3630  170.5610  144.7470 C   0  0  0  0  0  3  0  0  0  0  0  0
  195.4060  170.3880  142.2990 C   0  0  0  0  0  3  0  0  0  0  0  0
  1 16  1  0  0  0  0
  1 15  1  0  0  0  0
  2  3  1  0  0  0  0
  2 12  1  1  0  0  0
  3 11  1  0  0  0  0
  5 22  1  0  0  0  0
  7  4  1  0  0  0  0
  7  9  1  0  0  0  0
  8 17  2  0  0  0  0
  8 10  1  0  0  0  0
  9 12  1  0  0  0  0
  9 23  1  0  0  0  0
 10  4  1  0  0  0  0
 11 13  1  0  0  0  0
 13  6  1  0  0  0  0
 14 21  1  0  0  0  0
 15 14  1  0  0  0  0
 15  3  1  0  0  0  0
 16  5  1  0  0  0  0
 17  7  1  0  0  0  0
 18  1  1  0  0  0  0
 19 20  2  0  0  0  0
 20  6  1  0  0  0  0
 21 11  1  0  0  0  0
 21 19  1  0  0  0  0
 22  7  1  0  0  0  0
 22  2  1  0  0  0  0
 23 26  1  0  0  0  0
 24 26  1  0  0  0  0
 26 25  2  0  0  0  0
 27 28  1  0  0  0  0
 27 24  1  0  0  0  0
 29 31  1  0  0  0  0
 29 28  1  0  0  0  0
 31 30  1  0  0  0  0
 32 33  1  0  0  0  0
 33 29  1  0  0  0  0
 34 16  1  0  0  0  0
 35 34  1  0  0  0  0
 36 35  2  0  0  0  0
 37 36  1  0  0  0  0
 37 40  1  0  0  0  0
 39 43  1  0  0  0  0
 40 39  1  0  0  0  0
 40 38  2  0  0  0  0
 43 41  2  0  0  0  0
 43 48  1  0  0  0  0
 43 42  2  0  0  0  0
 45 47  1  0  0  0  0
 46 51  1  0  0  0  0
 46 49  1  0  0  0  0
 46 45  1  0  0  0  0
 47 44  1  0  0  0  0
 48 50  1  0  0  0  0
 50 47  2  0  0  0  0
 51 48  2  0  0  0  0
M  END
>  <MODEL>
8

>  <REMARK>
 VINA RESULT:      -6.7      3.080      7.362
  Name = 
  13 active torsions:
  status: ('A' for Active; 'I' for Inactive)
    1  A    between atoms: C_14  and  C_16
    2  A    between atoms: C_14  and  C_39
    3  A    between atoms: C_16  and  N_22
    4  A    between atoms: C_19  and  C_32
    5  A    between atoms: C_20  and  S_44
    6  A    between atoms: C_28  and  C_39
    7  A    between atoms: C_29  and  S_49
    8  A    between atoms: C_32  and  C_50
    9  A    between atoms: C_33  and  C_43
   10  A    between atoms: C_33  and  C_51
   11  A    between atoms: N_35  and  S_44
   12  A    between atoms: C_36  and  S_49
   13  A    between atoms: C_39  and  C_47
                            x       y       z     vdW  Elec       q    Type
                         _______ _______ _______ _____ _____    ______ ____

>  <TORSDO>
F 13

$$$$
=
 OpenBabel11062421183D

 51 56  0  0  1  0  0  0  0  0999 V2000
  196.2480  172.7730  144.5610 N   0  0  0  0  0  0  0  0  0  0  0  0
  194.4530  175.3340  144.1550 N   0  0  1  0  0  0  0  0  0  0  0  0
  195.0870  174.5210  143.1090 C   0  0  1  0  0  3  0  0  0  0  0  0
  191.1840  174.7940  145.4400 O   0  0  0  0  0  0  0  0  0  0  0  0
  194.1480  173.4800  145.7670 C   0  0  0  0  0  2  0  0  0  0  0  0
  195.0310  175.4590  139.4260 C   0  0  0  0  0  2  0  0  0  0  0  0
  192.4570  175.4070  145.4120 C   0  0  1  0  0  0  0  0  0  0  0  0
  191.7690  175.5670  147.5720 C   0  0  0  0  0  3  0  0  0  0  0  0
  192.5380  176.6000  144.4610 C   0  0  1  0  0  3  0  0  0  0  0  0
  190.7050  174.9300  146.7590 C   0  0  0  0  0  2  0  0  0  0  0  0
  195.5420  175.3010  141.8800 C   0  0  2  0  0  3  0  0  0  0  0  0
  193.6920  176.3810  143.5900 N   0  0  0  0  0  2  0  0  0  0  0  0
  194.4320  175.3200  140.8200 C   0  0  0  0  0  2  0  0  0  0  0  0
  197.2430  173.6210  142.4770 C   0  0  0  0  0  2  0  0  0  0  0  0
  196.3790  173.9430  143.6740 C   0  0  2  0  0  3  0  0  0  0  0  0
  194.8650  172.4110  144.9350 C   0  0  2  0  0  3  0  0  0  0  0  0
  192.7860  175.8490  146.7950 C   0  0  0  0  0  3  0  0  0  0  0  0
  197.0460  173.0460  145.7510 C   0  0  0  0  0  1  0  0  0  0  0  0
  196.7730  173.9640  140.0750 C   0  0  0  0  0  3  0  0  0  0  0  0
  195.9310  174.3560  139.1800 N   0  0  0  0  0  0  0  0  0  0  0  0
  196.8620  174.6390  141.4180 C   0  0  1  0  0  3  0  0  0  0  0  0
  193.4860  174.4760  144.8150 C   0  0  1  0  0  3  0  0  0  0  0  0
  191.2890  176.7830  143.6000 C   0  0  0  0  0  2  0  0  0  0  0  0
  189.1600  177.9130  144.4080 N   0  0  0  0  0  2  0  0  0  0  0  0
  191.0550  179.1420  143.8900 O   0  0  0  0  0  0  0  0  0  0  0  0
  190.5220  178.0070  143.9910 C   0  0  0  0  0  0  0  0  0  0  0  0
  188.4390  176.6550  144.4450 C   0  0  0  0  0  2  0  0  0  0  0  0
  187.3510  176.6390  143.3870 C   0  0  0  0  0  2  0  0  0  0  0  0
  185.9790  176.9400  143.9850 C   0  0  2  0  0  3  0  0  0  0  0  0
  186.2170  178.7810  142.4100 N   0  0  0  0  0  1  0  0  0  0  0  0
  185.5000  178.3320  143.5920 C   0  0  0  0  0  2  0  0  0  0  0  0
  185.7600  178.0300  146.1280 O   0  0  0  0  0  1  0  0  0  0  0  0
  186.0140  176.8040  145.5070 C   0  0  0  0  0  2  0  0  0  0  0  0
  194.8140  170.7900  145.7700 S   0  0  0  0  0  0  0  0  0  0  0  0
  194.1620  169.9640  144.3200 C   0  0  0  0  0  3  0  0  0  0  0  0
  192.8730  170.0890  144.0030 C   0  0  0  0  0  3  0  0  0  0  0  0
  192.3030  169.4070  142.8050 C   0  0  0  0  0  2  0  0  0  0  0  0
  190.4360  169.6800  141.3620 O   0  0  0  0  0  0  0  0  0  0  0  0
  191.0660  171.5920  142.5560 N   0  0  0  0  0  2  0  0  0  0  0  0
  191.2160  170.2190  142.1910 C   0  0  0  0  0  0  0  0  0  0  0  0
  189.8090  173.9240  142.7560 O   0  0  0  0  0  0  0  0  0  0  0  0
  188.4580  171.9220  142.3520 O   0  0  0  0  0  0  0  0  0  0  0  0
  189.7570  172.6040  142.0340 S   0  0  0  0  0  0  0  0  0  0  0  0
  192.6310  173.6550  137.9610 F   0  0  0  0  0  0  0  0  0  0  0  0
  190.3940  172.2090  137.3420 S   0  0  0  0  0  0  0  0  0  0  0  0
  188.8640  172.9200  138.0400 C   0  0  2  0  0  3  0  0  0  0  0  0
  191.4770  173.1360  138.4440 C   0  0  0  0  0  0  0  0  0  0  0  0
  189.8860  172.8560  140.3010 C   0  0  0  0  0  0  0  0  0  0  0  0
  188.8210  174.2810  137.7920 F   0  0  0  0  0  0  0  0  0  0  0  0
  191.1830  173.2820  139.7380 C   0  0  0  0  0  3  0  0  0  0  0  0
  188.8170  172.6670  139.5190 C   0  0  0  0  0  3  0  0  0  0  0  0
  1 16  1  0  0  0  0
  1 18  1  0  0  0  0
  2 12  1  6  0  0  0
  2 22  1  0  0  0  0
  3 15  1  0  0  0  0
  3  2  1  0  0  0  0
  4 10  1  0  0  0  0
  6 13  1  0  0  0  0
  7  4  1  0  0  0  0
  7 17  1  0  0  0  0
  9  7  1  0  0  0  0
 10  8  1  0  0  0  0
 11  3  1  0  0  0  0
 12  9  1  0  0  0  0
 13 11  1  0  0  0  0
 14 15  1  0  0  0  0
 15  1  1  0  0  0  0
 16  5  1  0  0  0  0
 16 34  1  0  0  0  0
 17  8  2  0  0  0  0
 19 21  1  0  0  0  0
 20  6  1  0  0  0  0
 20 19  2  0  0  0  0
 21 11  1  0  0  0  0
 21 14  1  0  0  0  0
 22  7  1  0  0  0  0
 22  5  1  0  0  0  0
 23 26  1  0  0  0  0
 23  9  1  0  0  0  0
 24 27  1  0  0  0  0
 25 26  2  0  0  0  0
 26 24  1  0  0  0  0
 28 29  1  0  0  0  0
 28 27  1  0  0  0  0
 29 33  1  0  0  0  0
 30 31  1  0  0  0  0
 31 29  1  0  0  0  0
 33 32  1  0  0  0  0
 35 34  1  0  0  0  0
 36 35  2  0  0  0  0
 37 36  1  0  0  0  0
 38 40  2  0  0  0  0
 40 39  1  0  0  0  0
 40 37  1  0  0  0  0
 43 42  2  0  0  0  0
 43 39  1  0  0  0  0
 43 41  2  0  0  0  0
 44 47  1  0  0  0  0
 45 46  1  0  0  0  0
 45 47  1  0  0  0  0
 46 51  1  0  0  0  0
 47 50  2  0  0  0  0
 48 43  1  0  0  0  0
 49 46  1  0  0  0  0
 50 48  1  0  0  0  0
 51 48  2  0  0  0  0
M  END
>  <MODEL>
9

>  <REMARK>
 VINA RESULT:      -6.7      3.362      6.671
  Name = 
  13 active torsions:
  status: ('A' for Active; 'I' for Inactive)
    1  A    between atoms: C_14  and  C_16
    2  A    between atoms: C_14  and  C_39
    3  A    between atoms: C_16  and  N_22
    4  A    between atoms: C_19  and  C_32
    5  A    between atoms: C_20  and  S_44
    6  A    between atoms: C_28  and  C_39
    7  A    between atoms: C_29  and  S_49
    8  A    between atoms: C_32  and  C_50
    9  A    between atoms: C_33  and  C_43
   10  A    between atoms: C_33  and  C_51
   11  A    between atoms: N_35  and  S_44
   12  A    between atoms: C_36  and  S_49
   13  A    between atoms: C_39  and  C_47
                            x       y       z     vdW  Elec       q    Type
                         _______ _______ _______ _____ _____    ______ ____

>  <TORSDO>
F 13

$$$$
