=
 OpenBabel11062420073D

 35 37  0  0  1  0  0  0  0  0999 V2000
  191.1370  175.2840  147.1440 C   0  0  0  0  0  0  0  0  0  0  0  0
  189.7980  174.1740  145.4630 C   0  0  0  0  0  3  0  0  0  0  0  0
  191.2440  176.0330  148.3090 O   0  0  0  0  0  1  0  0  0  0  0  0
  192.2940  174.8900  146.4700 C   0  0  0  0  0  3  0  0  0  0  0  0
  190.9580  173.7790  144.7820 C   0  0  0  0  0  0  0  0  0  0  0  0
  192.2220  174.1370  145.2890 C   0  0  0  0  0  0  0  0  0  0  0  0
  189.8800  174.9190  146.6410 C   0  0  0  0  0  0  0  0  0  0  0  0
  190.8430  172.9710  143.5230 C   0  0  2  0  0  3  0  0  0  0  0  0
  190.7200  173.8130  142.4160 O   0  0  0  0  0  1  0  0  0  0  0  0
  189.6720  172.0430  143.5970 C   0  0  0  0  0  3  0  0  0  0  0  0
  188.7670  172.1310  142.7840 O   0  0  0  0  0  0  0  0  0  0  0  0
  188.6220  175.3370  147.3250 C   0  0  0  0  0  2  0  0  0  0  0  0
  188.3460  176.8050  147.0510 C   0  0  0  0  0  2  0  0  0  0  0  0
  186.9100  176.9960  146.5900 C   0  0  0  0  0  2  0  0  0  0  0  0
  187.9580  178.1380  141.0350 O   0  0  0  0  0  0  0  0  0  0  0  0
  185.1610  178.9320  143.0050 C   0  0  0  0  0  2  0  0  0  0  0  0
  187.2860  177.9120  142.0780 C   0  0  0  0  0  0  0  0  0  0  0  0
  185.3540  178.2880  140.7190 O   0  0  0  0  0  1  0  0  0  0  0  0
  185.7790  177.9560  142.0060 C   0  0  2  0  0  3  0  0  0  0  0  0
  187.5070  177.9830  144.4920 O   0  0  0  0  0  0  0  0  0  0  0  0
  186.8080  176.9100  145.0740 C   0  0  2  0  0  3  0  0  0  0  0  0
  187.9700  177.5450  143.2920 N   0  0  0  0  0  0  0  0  0  0  0  0
  184.1760  178.8980  145.1440 O   0  0  0  0  0  0  0  0  0  0  0  0
  185.3330  176.9050  144.6630 C   0  0  0  0  0  2  0  0  0  0  0  0
  184.8290  178.2800  144.3210 C   0  0  0  0  0  0  0  0  0  0  0  0
  189.3310  177.0170  143.2300 C   0  0  0  0  0  2  0  0  0  0  0  0
  191.7180  177.4790  143.8180 C   0  0  0  0  0  1  0  0  0  0  0  0
  190.2720  177.8250  144.1130 C   0  0  0  0  0  2  0  0  0  0  0  0
  193.4070  173.7200  144.5870 N   0  0  0  0  0  2  0  0  0  0  0  0
  194.5110  171.5840  145.2260 C   0  0  0  0  0  3  0  0  0  0  0  0
  195.6310  170.9050  145.7180 C   0  0  0  0  0  3  0  0  0  0  0  0
  195.6880  173.6850  145.4420 C   0  0  0  0  0  3  0  0  0  0  0  0
  196.8080  173.0080  145.9340 C   0  0  0  0  0  3  0  0  0  0  0  0
  194.5330  172.9810  145.0840 C   0  0  0  0  0  0  0  0  0  0  0  0
  196.7790  171.6170  146.0720 C   0  0  0  0  0  3  0  0  0  0  0  0
  1  3  1  0  0  0  0
  2  7  2  0  0  0  0
  4  1  2  0  0  0  0
  5  6  2  0  0  0  0
  5  2  1  0  0  0  0
  6  4  1  0  0  0  0
  7  1  1  0  0  0  0
  7 12  1  0  0  0  0
  8  9  1  6  0  0  0
  8 10  1  0  0  0  0
  8  5  1  0  0  0  0
 11 10  2  0  0  0  0
 13 12  1  0  0  0  0
 14 13  1  0  0  0  0
 15 17  2  0  0  0  0
 16 25  1  0  0  0  0
 17 22  1  0  0  0  0
 19 18  1  6  0  0  0
 19 17  1  0  0  0  0
 19 16  1  0  0  0  0
 20 21  1  0  0  0  0
 21 14  1  1  0  0  0
 22 20  1  0  0  0  0
 24 21  1  0  0  0  0
 25 24  1  0  0  0  0
 25 23  2  0  0  0  0
 26 22  1  0  0  0  0
 26 28  1  0  0  0  0
 27 28  1  0  0  0  0
 29 34  1  0  0  0  0
 29  6  1  0  0  0  0
 30 31  1  0  0  0  0
 31 35  2  0  0  0  0
 32 33  2  0  0  0  0
 33 35  1  0  0  0  0
 34 30  2  0  0  0  0
 34 32  1  0  0  0  0
M  END
>  <MODEL>
1

>  <REMARK>
 VINA RESULT:      -7.6      0.000      0.000
  Name = 
  10 active torsions:
  status: ('A' for Active; 'I' for Inactive)
    1  A    between atoms: C_1  and  C_5
    2  A    between atoms: C_5  and  C_25
    3  A    between atoms: C_6  and  C_18
    4  A    between atoms: C_6  and  C_35
    5  A    between atoms: C_7  and  C_18
    6  A    between atoms: C_7  and  C_21
    7  A    between atoms: C_9  and  N_22
    8  A    between atoms: C_9  and  C_29
    9  A    between atoms: N_26  and  C_31
   10  A    between atoms: N_26  and  C_32
                            x       y       z     vdW  Elec       q    Type
                         _______ _______ _______ _____ _____    ______ ____

>  <TORSDO>
F 10

$$$$
=
 OpenBabel11062420073D

 35 37  0  0  1  0  0  0  0  0999 V2000
  191.1650  175.5460  147.1930 C   0  0  0  0  0  0  0  0  0  0  0  0
  189.9260  174.1550  145.6500 C   0  0  0  0  0  3  0  0  0  0  0  0
  191.2070  176.4180  148.2740 O   0  0  0  0  0  1  0  0  0  0  0  0
  192.3510  175.1890  146.5500 C   0  0  0  0  0  3  0  0  0  0  0  0
  191.1150  173.7960  145.0000 C   0  0  0  0  0  0  0  0  0  0  0  0
  192.3430  174.3140  145.4530 C   0  0  0  0  0  0  0  0  0  0  0  0
  189.9440  175.0220  146.7450 C   0  0  0  0  0  0  0  0  0  0  0  0
  191.0690  172.8560  143.8320 C   0  0  2  0  0  3  0  0  0  0  0  0
  191.1920  173.5630  142.6340 O   0  0  0  0  0  1  0  0  0  0  0  0
  189.7970  172.0690  143.8360 C   0  0  0  0  0  3  0  0  0  0  0  0
  189.1990  171.8620  142.7940 O   0  0  0  0  0  0  0  0  0  0  0  0
  188.6560  175.3960  147.3960 C   0  0  0  0  0  2  0  0  0  0  0  0
  187.7190  176.0180  146.3760 C   0  0  0  0  0  2  0  0  0  0  0  0
  188.2780  177.3430  145.8840 C   0  0  0  0  0  2  0  0  0  0  0  0
  183.7440  178.1610  142.4150 O   0  0  0  0  0  0  0  0  0  0  0  0
  186.7680  176.4830  141.8050 C   0  0  0  0  0  2  0  0  0  0  0  0
  184.9460  177.9680  142.7470 C   0  0  0  0  0  0  0  0  0  0  0  0
  185.4030  177.8420  140.4030 O   0  0  0  0  0  1  0  0  0  0  0  0
  185.9870  177.7870  141.6700 C   0  0  2  0  0  3  0  0  0  0  0  0
  186.2560  177.1510  144.6170 O   0  0  0  0  0  0  0  0  0  0  0  0
  187.4400  177.8990  144.7410 C   0  0  2  0  0  3  0  0  0  0  0  0
  185.3060  177.9970  144.1420 N   0  0  0  0  0  0  0  0  0  0  0  0
  188.8190  175.7230  142.6790 O   0  0  0  0  0  0  0  0  0  0  0  0
  188.2630  177.8770  143.4500 C   0  0  0  0  0  2  0  0  0  0  0  0
  188.0150  176.6390  142.6340 C   0  0  0  0  0  0  0  0  0  0  0  0
  184.4300  178.6600  145.1070 C   0  0  0  0  0  2  0  0  0  0  0  0
  185.0640  178.5730  147.5250 C   0  0  0  0  0  1  0  0  0  0  0  0
  184.3380  177.8620  146.4000 C   0  0  0  0  0  2  0  0  0  0  0  0
  193.5590  173.9330  144.7830 N   0  0  0  0  0  2  0  0  0  0  0  0
  194.3680  171.6460  145.3340 C   0  0  0  0  0  3  0  0  0  0  0  0
  195.3930  170.8020  145.7730 C   0  0  0  0  0  3  0  0  0  0  0  0
  195.8360  173.5520  145.5630 C   0  0  0  0  0  3  0  0  0  0  0  0
  196.8620  172.7110  146.0010 C   0  0  0  0  0  3  0  0  0  0  0  0
  194.5830  173.0290  145.2260 C   0  0  0  0  0  0  0  0  0  0  0  0
  196.6400  171.3350  146.1070 C   0  0  0  0  0  3  0  0  0  0  0  0
  1  3  1  0  0  0  0
  2  7  2  0  0  0  0
  4  1  2  0  0  0  0
  5  6  2  0  0  0  0
  5  2  1  0  0  0  0
  6  4  1  0  0  0  0
  7  1  1  0  0  0  0
  7 12  1  0  0  0  0
  8  9  1  6  0  0  0
  8 10  1  0  0  0  0
  8  5  1  0  0  0  0
 11 10  2  0  0  0  0
 13 12  1  0  0  0  0
 14 13  1  0  0  0  0
 15 17  2  0  0  0  0
 16 25  1  0  0  0  0
 17 22  1  0  0  0  0
 19 18  1  6  0  0  0
 19 16  1  0  0  0  0
 19 17  1  0  0  0  0
 20 21  1  0  0  0  0
 21 14  1  1  0  0  0
 22 20  1  0  0  0  0
 22 26  1  0  0  0  0
 24 21  1  0  0  0  0
 25 23  2  0  0  0  0
 25 24  1  0  0  0  0
 26 28  1  0  0  0  0
 28 27  1  0  0  0  0
 29 34  1  0  0  0  0
 29  6  1  0  0  0  0
 30 31  1  0  0  0  0
 31 35  2  0  0  0  0
 32 33  2  0  0  0  0
 33 35  1  0  0  0  0
 34 30  2  0  0  0  0
 34 32  1  0  0  0  0
M  END
>  <MODEL>
2

>  <REMARK>
 VINA RESULT:      -7.6      1.293      2.662
  Name = 
  10 active torsions:
  status: ('A' for Active; 'I' for Inactive)
    1  A    between atoms: C_1  and  C_5
    2  A    between atoms: C_5  and  C_25
    3  A    between atoms: C_6  and  C_18
    4  A    between atoms: C_6  and  C_35
    5  A    between atoms: C_7  and  C_18
    6  A    between atoms: C_7  and  C_21
    7  A    between atoms: C_9  and  N_22
    8  A    between atoms: C_9  and  C_29
    9  A    between atoms: N_26  and  C_31
   10  A    between atoms: N_26  and  C_32
                            x       y       z     vdW  Elec       q    Type
                         _______ _______ _______ _____ _____    ______ ____

>  <TORSDO>
F 10

$$$$
=
 OpenBabel11062420073D

 35 37  0  0  1  0  0  0  0  0999 V2000
  191.4220  175.2000  146.9960 C   0  0  0  0  0  0  0  0  0  0  0  0
  190.0980  174.2940  145.1860 C   0  0  0  0  0  3  0  0  0  0  0  0
  191.5200  175.8500  148.2210 O   0  0  0  0  0  1  0  0  0  0  0  0
  192.5850  174.8030  146.3340 C   0  0  0  0  0  3  0  0  0  0  0  0
  191.2630  173.8960  144.5170 C   0  0  0  0  0  0  0  0  0  0  0  0
  192.5230  174.1480  145.0940 C   0  0  0  0  0  0  0  0  0  0  0  0
  190.1700  174.9400  146.4230 C   0  0  0  0  0  0  0  0  0  0  0  0
  191.1590  173.1950  143.1940 C   0  0  2  0  0  3  0  0  0  0  0  0
  190.3900  173.9490  142.3050 O   0  0  0  0  0  1  0  0  0  0  0  0
  190.5630  171.8330  143.3640 C   0  0  0  0  0  3  0  0  0  0  0  0
  189.4420  171.5970  142.9460 O   0  0  0  0  0  0  0  0  0  0  0  0
  188.9080  175.3660  147.0940 C   0  0  0  0  0  2  0  0  0  0  0  0
  188.7050  176.8600  146.9160 C   0  0  0  0  0  2  0  0  0  0  0  0
  187.2250  177.1820  146.7890 C   0  0  0  0  0  2  0  0  0  0  0  0
  186.8250  178.0270  141.0980 O   0  0  0  0  0  0  0  0  0  0  0  0
  184.5880  178.8930  143.6630 C   0  0  0  0  0  2  0  0  0  0  0  0
  186.4400  177.8500  142.2860 C   0  0  0  0  0  0  0  0  0  0  0  0
  184.2210  178.1250  141.4360 O   0  0  0  0  0  1  0  0  0  0  0  0
  184.9630  177.8710  142.5920 C   0  0  2  0  0  3  0  0  0  0  0  0
  187.2540  178.0580  144.5610 O   0  0  0  0  0  0  0  0  0  0  0  0
  186.7510  177.0110  145.3530 C   0  0  2  0  0  3  0  0  0  0  0  0
  187.4140  177.5600  143.3070 N   0  0  0  0  0  0  0  0  0  0  0  0
  184.1670  178.9660  145.9790 O   0  0  0  0  0  0  0  0  0  0  0  0
  185.2210  176.9640  145.3250 C   0  0  0  0  0  2  0  0  0  0  0  0
  184.6110  178.3110  145.0510 C   0  0  0  0  0  0  0  0  0  0  0  0
  188.7310  177.0470  142.9340 C   0  0  0  0  0  2  0  0  0  0  0  0
  191.2040  177.3260  143.1920 C   0  0  0  0  0  1  0  0  0  0  0  0
  189.8400  177.8590  143.5860 C   0  0  0  0  0  2  0  0  0  0  0  0
  193.7120  173.7280  144.4020 N   0  0  0  0  0  2  0  0  0  0  0  0
  194.7470  175.6700  143.2420 C   0  0  0  0  0  3  0  0  0  0  0  0
  195.8890  176.3990  142.8950 C   0  0  0  0  0  3  0  0  0  0  0  0
  196.1220  174.0920  144.4520 C   0  0  0  0  0  3  0  0  0  0  0  0
  197.2640  174.8190  144.1060 C   0  0  0  0  0  3  0  0  0  0  0  0
  194.8560  174.5100  144.0250 C   0  0  0  0  0  0  0  0  0  0  0  0
  197.1470  175.9740  143.3260 C   0  0  0  0  0  3  0  0  0  0  0  0
  1  3  1  0  0  0  0
  2  7  2  0  0  0  0
  4  1  2  0  0  0  0
  5  6  2  0  0  0  0
  5  2  1  0  0  0  0
  6  4  1  0  0  0  0
  7  1  1  0  0  0  0
  7 12  1  0  0  0  0
  8  9  1  6  0  0  0
  8 10  1  0  0  0  0
  8  5  1  0  0  0  0
 11 10  2  0  0  0  0
 13 12  1  0  0  0  0
 14 13  1  0  0  0  0
 15 17  2  0  0  0  0
 16 25  1  0  0  0  0
 17 19  1  0  0  0  0
 17 22  1  0  0  0  0
 19 18  1  6  0  0  0
 19 16  1  0  0  0  0
 20 21  1  0  0  0  0
 21 14  1  1  0  0  0
 22 20  1  0  0  0  0
 24 21  1  0  0  0  0
 25 24  1  0  0  0  0
 25 23  2  0  0  0  0
 26 22  1  0  0  0  0
 26 28  1  0  0  0  0
 27 28  1  0  0  0  0
 29  6  1  0  0  0  0
 30 34  1  0  0  0  0
 31 30  2  0  0  0  0
 31 35  1  0  0  0  0
 33 32  1  0  0  0  0
 34 29  1  0  0  0  0
 34 32  2  0  0  0  0
 35 33  2  0  0  0  0
M  END
>  <MODEL>
3

>  <REMARK>
 VINA RESULT:      -7.3      1.293      1.776
  Name = 
  10 active torsions:
  status: ('A' for Active; 'I' for Inactive)
    1  A    between atoms: C_1  and  C_5
    2  A    between atoms: C_5  and  C_25
    3  A    between atoms: C_6  and  C_18
    4  A    between atoms: C_6  and  C_35
    5  A    between atoms: C_7  and  C_18
    6  A    between atoms: C_7  and  C_21
    7  A    between atoms: C_9  and  N_22
    8  A    between atoms: C_9  and  C_29
    9  A    between atoms: N_26  and  C_31
   10  A    between atoms: N_26  and  C_32
                            x       y       z     vdW  Elec       q    Type
                         _______ _______ _______ _____ _____    ______ ____

>  <TORSDO>
F 10

$$$$
=
 OpenBabel11062420073D

 35 37  0  0  1  0  0  0  0  0999 V2000
  191.6260  175.6560  146.8840 C   0  0  0  0  0  0  0  0  0  0  0  0
  190.5350  174.0970  145.3910 C   0  0  0  0  0  3  0  0  0  0  0  0
  191.5800  176.5580  147.9400 O   0  0  0  0  0  1  0  0  0  0  0  0
  192.8400  175.4120  146.2390 C   0  0  0  0  0  3  0  0  0  0  0  0
  191.7510  173.8500  144.7400 C   0  0  0  0  0  0  0  0  0  0  0  0
  192.9200  174.5110  145.1670 C   0  0  0  0  0  0  0  0  0  0  0  0
  190.4660  174.9910  146.4610 C   0  0  0  0  0  0  0  0  0  0  0  0
  191.8000  172.8780  143.5980 C   0  0  2  0  0  3  0  0  0  0  0  0
  190.6980  173.0570  142.7600 O   0  0  0  0  0  1  0  0  0  0  0  0
  191.8390  171.4710  144.1040 C   0  0  0  0  0  3  0  0  0  0  0  0
  192.9030  170.9500  144.3910 O   0  0  0  0  0  0  0  0  0  0  0  0
  189.1490  175.2420  147.1150 C   0  0  0  0  0  2  0  0  0  0  0  0
  188.1750  175.8310  146.1100 C   0  0  0  0  0  2  0  0  0  0  0  0
  188.5900  177.2450  145.7380 C   0  0  0  0  0  2  0  0  0  0  0  0
  183.9540  177.9490  142.3800 O   0  0  0  0  0  0  0  0  0  0  0  0
  187.0660  176.4970  141.6420 C   0  0  0  0  0  2  0  0  0  0  0  0
  185.1710  177.8160  142.6840 C   0  0  0  0  0  0  0  0  0  0  0  0
  185.5940  177.8370  140.3300 O   0  0  0  0  0  1  0  0  0  0  0  0
  186.2020  177.7550  141.5850 C   0  0  2  0  0  3  0  0  0  0  0  0
  186.5620  176.9900  144.4910 O   0  0  0  0  0  0  0  0  0  0  0  0
  187.7000  177.8040  144.6370 C   0  0  2  0  0  3  0  0  0  0  0  0
  185.5530  177.7980  144.0740 N   0  0  0  0  0  0  0  0  0  0  0  0
  189.1750  175.8250  142.4470 O   0  0  0  0  0  0  0  0  0  0  0  0
  188.4990  177.8990  143.3350 C   0  0  0  0  0  2  0  0  0  0  0  0
  188.3150  176.6890  142.4590 C   0  0  0  0  0  0  0  0  0  0  0  0
  184.6550  178.3550  145.0830 C   0  0  0  0  0  2  0  0  0  0  0  0
  185.3030  178.3300  147.5000 C   0  0  0  0  0  1  0  0  0  0  0  0
  184.6940  177.5320  146.3640 C   0  0  0  0  0  2  0  0  0  0  0  0
  194.1650  174.2440  144.4970 N   0  0  0  0  0  2  0  0  0  0  0  0
  195.9770  175.8800  144.0160 C   0  0  0  0  0  3  0  0  0  0  0  0
  196.6610  176.6890  143.1030 C   0  0  0  0  0  3  0  0  0  0  0  0
  194.5160  175.1160  142.2480 C   0  0  0  0  0  3  0  0  0  0  0  0
  195.1980  175.9240  141.3340 C   0  0  0  0  0  3  0  0  0  0  0  0
  194.8980  175.0860  143.5940 C   0  0  0  0  0  0  0  0  0  0  0  0
  196.2720  176.7110  141.7620 C   0  0  0  0  0  3  0  0  0  0  0  0
  1  3  1  0  0  0  0
  2  7  2  0  0  0  0
  4  1  2  0  0  0  0
  5  6  2  0  0  0  0
  5  2  1  0  0  0  0
  6  4  1  0  0  0  0
  7  1  1  0  0  0  0
  7 12  1  0  0  0  0
  8  9  1  6  0  0  0
  8 10  1  0  0  0  0
  8  5  1  0  0  0  0
 10 11  2  0  0  0  0
 13 12  1  0  0  0  0
 14 13  1  0  0  0  0
 15 17  2  0  0  0  0
 16 25  1  0  0  0  0
 17 22  1  0  0  0  0
 19 18  1  6  0  0  0
 19 16  1  0  0  0  0
 19 17  1  0  0  0  0
 20 21  1  0  0  0  0
 21 14  1  1  0  0  0
 22 20  1  0  0  0  0
 22 26  1  0  0  0  0
 23 25  2  0  0  0  0
 24 21  1  0  0  0  0
 25 24  1  0  0  0  0
 26 28  1  0  0  0  0
 28 27  1  0  0  0  0
 29  6  1  0  0  0  0
 31 30  2  0  0  0  0
 32 34  2  0  0  0  0
 33 35  2  0  0  0  0
 33 32  1  0  0  0  0
 34 30  1  0  0  0  0
 34 29  1  0  0  0  0
 35 31  1  0  0  0  0
M  END
>  <MODEL>
4

>  <REMARK>
 VINA RESULT:      -7.1      2.095      3.529
  Name = 
  10 active torsions:
  status: ('A' for Active; 'I' for Inactive)
    1  A    between atoms: C_1  and  C_5
    2  A    between atoms: C_5  and  C_25
    3  A    between atoms: C_6  and  C_18
    4  A    between atoms: C_6  and  C_35
    5  A    between atoms: C_7  and  C_18
    6  A    between atoms: C_7  and  C_21
    7  A    between atoms: C_9  and  N_22
    8  A    between atoms: C_9  and  C_29
    9  A    between atoms: N_26  and  C_31
   10  A    between atoms: N_26  and  C_32
                            x       y       z     vdW  Elec       q    Type
                         _______ _______ _______ _____ _____    ______ ____

>  <TORSDO>
F 10

$$$$
=
 OpenBabel11062420073D

 35 37  0  0  1  0  0  0  0  0999 V2000
  187.0520  176.8440  146.3950 C   0  0  0  0  0  0  0  0  0  0  0  0
  188.9340  176.6180  144.8930 C   0  0  0  0  0  3  0  0  0  0  0  0
  186.4160  176.5500  147.5950 O   0  0  0  0  0  1  0  0  0  0  0  0
  186.4210  177.6740  145.4670 C   0  0  0  0  0  3  0  0  0  0  0  0
  188.3030  177.4490  143.9570 C   0  0  0  0  0  0  0  0  0  0  0  0
  187.0330  177.9870  144.2440 C   0  0  0  0  0  0  0  0  0  0  0  0
  188.3200  176.3170  146.1110 C   0  0  0  0  0  0  0  0  0  0  0  0
  188.9890  177.7650  142.6610 C   0  0  2  0  0  3  0  0  0  0  0  0
  188.5980  176.8600  141.6720 O   0  0  0  0  0  1  0  0  0  0  0  0
  190.4750  177.7350  142.8290 C   0  0  0  0  0  3  0  0  0  0  0  0
  191.0460  178.6440  143.4070 O   0  0  0  0  0  0  0  0  0  0  0  0
  189.0150  175.4130  147.0710 C   0  0  0  0  0  2  0  0  0  0  0  0
  190.2800  176.0780  147.5860 C   0  0  0  0  0  2  0  0  0  0  0  0
  191.4480  175.1070  147.5300 C   0  0  0  0  0  2  0  0  0  0  0  0
  194.5760  173.1940  143.0780 O   0  0  0  0  0  0  0  0  0  0  0  0
  194.9980  176.0670  145.0530 C   0  0  0  0  0  2  0  0  0  0  0  0
  194.0700  174.0210  143.8850 C   0  0  0  0  0  0  0  0  0  0  0  0
  195.3420  175.6830  142.7260 O   0  0  0  0  0  1  0  0  0  0  0  0
  194.4290  175.4820  143.7630 C   0  0  2  0  0  3  0  0  0  0  0  0
  193.0840  174.1030  146.0990 O   0  0  0  0  0  0  0  0  0  0  0  0
  192.0230  175.0260  146.1230 C   0  0  2  0  0  3  0  0  0  0  0  0
  193.1060  173.5630  144.8530 N   0  0  0  0  0  0  0  0  0  0  0  0
  194.2670  177.3130  146.9140 O   0  0  0  0  0  0  0  0  0  0  0  0
  192.4740  176.4190  145.6760 C   0  0  0  0  0  2  0  0  0  0  0  0
  193.9350  176.6610  145.9380 C   0  0  0  0  0  0  0  0  0  0  0  0
  192.4010  172.3010  144.6380 C   0  0  0  0  0  2  0  0  0  0  0  0
  189.9900  172.9320  144.4160 C   0  0  0  0  0  1  0  0  0  0  0  0
  191.2350  172.4820  143.6770 C   0  0  0  0  0  2  0  0  0  0  0  0
  186.3970  178.8450  143.2800 N   0  0  0  0  0  2  0  0  0  0  0  0
  183.9490  178.5660  142.9390 C   0  0  0  0  0  3  0  0  0  0  0  0
  182.8730  178.2900  142.0890 C   0  0  0  0  0  3  0  0  0  0  0  0
  185.4810  178.2970  141.0890 C   0  0  0  0  0  3  0  0  0  0  0  0
  184.4070  178.0220  140.2380 C   0  0  0  0  0  3  0  0  0  0  0  0
  185.2620  178.5710  142.4440 C   0  0  0  0  0  0  0  0  0  0  0  0
  183.1020  178.0180  140.7380 C   0  0  0  0  0  3  0  0  0  0  0  0
  1  3  1  0  0  0  0
  2  7  2  0  0  0  0
  4  1  2  0  0  0  0
  5  6  2  0  0  0  0
  5  2  1  0  0  0  0
  6  4  1  0  0  0  0
  7  1  1  0  0  0  0
  7 12  1  0  0  0  0
  8  9  1  6  0  0  0
  8 10  1  0  0  0  0
  8  5  1  0  0  0  0
 10 11  2  0  0  0  0
 12 13  1  0  0  0  0
 14 13  1  0  0  0  0
 15 17  2  0  0  0  0
 16 25  1  0  0  0  0
 17 22  1  0  0  0  0
 19 18  1  6  0  0  0
 19 17  1  0  0  0  0
 19 16  1  0  0  0  0
 20 21  1  0  0  0  0
 21 14  1  1  0  0  0
 22 20  1  0  0  0  0
 24 25  1  0  0  0  0
 24 21  1  0  0  0  0
 25 23  2  0  0  0  0
 26 22  1  0  0  0  0
 28 27  1  0  0  0  0
 28 26  1  0  0  0  0
 29  6  1  0  0  0  0
 31 30  2  0  0  0  0
 32 34  2  0  0  0  0
 33 35  2  0  0  0  0
 33 32  1  0  0  0  0
 34 30  1  0  0  0  0
 34 29  1  0  0  0  0
 35 31  1  0  0  0  0
M  END
>  <MODEL>
5

>  <REMARK>
 VINA RESULT:      -7.1      2.278      8.326
  Name = 
  10 active torsions:
  status: ('A' for Active; 'I' for Inactive)
    1  A    between atoms: C_1  and  C_5
    2  A    between atoms: C_5  and  C_25
    3  A    between atoms: C_6  and  C_18
    4  A    between atoms: C_6  and  C_35
    5  A    between atoms: C_7  and  C_18
    6  A    between atoms: C_7  and  C_21
    7  A    between atoms: C_9  and  N_22
    8  A    between atoms: C_9  and  C_29
    9  A    between atoms: N_26  and  C_31
   10  A    between atoms: N_26  and  C_32
                            x       y       z     vdW  Elec       q    Type
                         _______ _______ _______ _____ _____    ______ ____

>  <TORSDO>
F 10

$$$$
=
 OpenBabel11062420073D

 35 37  0  0  1  0  0  0  0  0999 V2000
  190.4850  173.0920  144.8180 C   0  0  0  0  0  0  0  0  0  0  0  0
  191.5450  175.0520  145.7580 C   0  0  0  0  0  3  0  0  0  0  0  0
  189.3500  172.3320  144.5600 O   0  0  0  0  0  1  0  0  0  0  0  0
  191.7320  172.6320  144.3890 C   0  0  0  0  0  3  0  0  0  0  0  0
  192.7990  174.5930  145.3320 C   0  0  0  0  0  0  0  0  0  0  0  0
  192.8990  173.3720  144.6370 C   0  0  0  0  0  0  0  0  0  0  0  0
  190.3890  174.3110  145.5020 C   0  0  0  0  0  0  0  0  0  0  0  0
  194.0250  175.4120  145.6110 C   0  0  2  0  0  3  0  0  0  0  0  0
  193.9530  175.9730  146.8880 O   0  0  0  0  0  1  0  0  0  0  0  0
  194.1870  176.4880  144.5840 C   0  0  0  0  0  3  0  0  0  0  0  0
  194.4970  176.2020  143.4400 O   0  0  0  0  0  0  0  0  0  0  0  0
  189.0760  174.8230  145.9900 C   0  0  0  0  0  2  0  0  0  0  0  0
  189.2860  176.0690  146.8330 C   0  0  0  0  0  2  0  0  0  0  0  0
  187.9580  176.7640  147.0890 C   0  0  0  0  0  2  0  0  0  0  0  0
  186.1790  178.6650  141.9430 O   0  0  0  0  0  0  0  0  0  0  0  0
  184.6780  178.9870  145.1020 C   0  0  0  0  0  2  0  0  0  0  0  0
  186.0970  178.2590  143.1350 C   0  0  0  0  0  0  0  0  0  0  0  0
  183.7460  178.6490  142.9340 O   0  0  0  0  0  1  0  0  0  0  0  0
  184.7430  178.1940  143.7990 C   0  0  2  0  0  3  0  0  0  0  0  0
  187.4580  178.0470  145.1310 O   0  0  0  0  0  0  0  0  0  0  0  0
  187.1360  176.8590  145.8120 C   0  0  2  0  0  3  0  0  0  0  0  0
  187.2860  177.7980  143.8060 N   0  0  0  0  0  0  0  0  0  0  0  0
  184.8500  178.6120  147.4200 O   0  0  0  0  0  0  0  0  0  0  0  0
  185.6470  176.7900  146.1590 C   0  0  0  0  0  2  0  0  0  0  0  0
  185.0290  178.1540  146.3050 C   0  0  0  0  0  0  0  0  0  0  0  0
  188.4520  177.3900  143.0260 C   0  0  0  0  0  2  0  0  0  0  0  0
  190.9510  177.3420  142.9320 C   0  0  0  0  0  1  0  0  0  0  0  0
  189.7410  177.8800  143.6700 C   0  0  0  0  0  2  0  0  0  0  0  0
  194.1900  172.9150  144.1970 N   0  0  0  0  0  2  0  0  0  0  0  0
  196.4850  172.1270  144.7440 C   0  0  0  0  0  3  0  0  0  0  0  0
  197.3240  171.2140  145.3900 C   0  0  0  0  0  3  0  0  0  0  0  0
  194.5510  170.9550  145.6000 C   0  0  0  0  0  3  0  0  0  0  0  0
  195.3890  170.0420  146.2460 C   0  0  0  0  0  3  0  0  0  0  0  0
  195.0900  172.0030  144.8450 C   0  0  0  0  0  0  0  0  0  0  0  0
  196.7760  170.1710  146.1410 C   0  0  0  0  0  3  0  0  0  0  0  0
  1  7  1  0  0  0  0
  3  1  1  0  0  0  0
  4  6  1  0  0  0  0
  4  1  2  0  0  0  0
  5  8  1  0  0  0  0
  5  2  1  0  0  0  0
  6  5  2  0  0  0  0
  7  2  2  0  0  0  0
  7 12  1  0  0  0  0
  8  9  1  1  0  0  0
 10  8  1  0  0  0  0
 11 10  2  0  0  0  0
 12 13  1  0  0  0  0
 13 14  1  0  0  0  0
 15 17  2  0  0  0  0
 16 25  1  0  0  0  0
 17 19  1  0  0  0  0
 17 22  1  0  0  0  0
 19 18  1  6  0  0  0
 19 16  1  0  0  0  0
 20 21  1  0  0  0  0
 21 24  1  0  0  0  0
 21 14  1  1  0  0  0
 22 20  1  0  0  0  0
 24 25  1  0  0  0  0
 25 23  2  0  0  0  0
 26 28  1  0  0  0  0
 26 22  1  0  0  0  0
 27 28  1  0  0  0  0
 29  6  1  0  0  0  0
 29 34  1  0  0  0  0
 30 34  2  0  0  0  0
 30 31  1  0  0  0  0
 31 35  2  0  0  0  0
 32 33  2  0  0  0  0
 34 32  1  0  0  0  0
 35 33  1  0  0  0  0
M  END
>  <MODEL>
6

>  <REMARK>
 VINA RESULT:      -7.1      1.595      2.865
  Name = 
  10 active torsions:
  status: ('A' for Active; 'I' for Inactive)
    1  A    between atoms: C_1  and  C_5
    2  A    between atoms: C_5  and  C_25
    3  A    between atoms: C_6  and  C_18
    4  A    between atoms: C_6  and  C_35
    5  A    between atoms: C_7  and  C_18
    6  A    between atoms: C_7  and  C_21
    7  A    between atoms: C_9  and  N_22
    8  A    between atoms: C_9  and  C_29
    9  A    between atoms: N_26  and  C_31
   10  A    between atoms: N_26  and  C_32
                            x       y       z     vdW  Elec       q    Type
                         _______ _______ _______ _____ _____    ______ ____

>  <TORSDO>
F 10

$$$$
=
 OpenBabel11062420073D

 35 37  0  0  1  0  0  0  0  0999 V2000
  189.0710  176.0070  144.3080 C   0  0  0  0  0  0  0  0  0  0  0  0
  187.9400  176.5400  146.3790 C   0  0  0  0  0  3  0  0  0  0  0  0
  190.0150  175.2790  143.5940 O   0  0  0  0  0  1  0  0  0  0  0  0
  188.2990  176.9650  143.6490 C   0  0  0  0  0  3  0  0  0  0  0  0
  187.1640  177.5050  145.7210 C   0  0  0  0  0  0  0  0  0  0  0  0
  187.3400  177.7210  144.3400 C   0  0  0  0  0  0  0  0  0  0  0  0
  188.8880  175.7880  145.6810 C   0  0  0  0  0  0  0  0  0  0  0  0
  186.1460  178.2920  146.4910 C   0  0  2  0  0  3  0  0  0  0  0  0
  186.5920  178.5190  147.7950 O   0  0  0  0  0  1  0  0  0  0  0  0
  184.8320  177.5780  146.5140 C   0  0  0  0  0  3  0  0  0  0  0  0
  183.7890  178.2080  146.4790 O   0  0  0  0  0  0  0  0  0  0  0  0
  189.7080  174.7860  146.4210 C   0  0  0  0  0  2  0  0  0  0  0  0
  190.5790  175.4860  147.4480 C   0  0  0  0  0  2  0  0  0  0  0  0
  192.0230  175.0290  147.3170 C   0  0  0  0  0  2  0  0  0  0  0  0
  194.9440  173.7330  142.5150 O   0  0  0  0  0  0  0  0  0  0  0  0
  195.2590  176.4940  144.6640 C   0  0  0  0  0  2  0  0  0  0  0  0
  194.4310  174.4510  143.4170 C   0  0  0  0  0  0  0  0  0  0  0  0
  195.4480  176.3030  142.2960 O   0  0  0  0  0  1  0  0  0  0  0  0
  194.6430  175.9450  143.3790 C   0  0  2  0  0  3  0  0  0  0  0  0
  193.6230  174.2870  145.6980 O   0  0  0  0  0  0  0  0  0  0  0  0
  192.4880  175.0990  145.8690 C   0  0  2  0  0  3  0  0  0  0  0  0
  193.5940  173.8370  144.4170 N   0  0  0  0  0  0  0  0  0  0  0  0
  194.5690  177.5340  146.6610 O   0  0  0  0  0  0  0  0  0  0  0  0
  192.7710  176.5560  145.4960 C   0  0  0  0  0  2  0  0  0  0  0  0
  194.2210  176.9200  145.6670 C   0  0  0  0  0  0  0  0  0  0  0  0
  192.9920  172.5300  144.1610 C   0  0  0  0  0  2  0  0  0  0  0  0
  193.8780  170.1910  144.0880 C   0  0  0  0  0  1  0  0  0  0  0  0
  193.7100  171.4350  144.9380 C   0  0  0  0  0  2  0  0  0  0  0  0
  186.5330  178.7080  143.6730 N   0  0  0  0  0  2  0  0  0  0  0  0
  185.9020  178.3830  141.2890 C   0  0  0  0  0  3  0  0  0  0  0  0
  184.9120  178.2040  140.3170 C   0  0  0  0  0  3  0  0  0  0  0  0
  184.2010  178.4740  143.0050 C   0  0  0  0  0  3  0  0  0  0  0  0
  183.2110  178.2960  142.0350 C   0  0  0  0  0  3  0  0  0  0  0  0
  185.5520  178.5190  142.6420 C   0  0  0  0  0  0  0  0  0  0  0  0
  183.5670  178.1610  140.6900 C   0  0  0  0  0  3  0  0  0  0  0  0
  1  7  1  0  0  0  0
  3  1  1  0  0  0  0
  4  1  2  0  0  0  0
  4  6  1  0  0  0  0
  5  2  1  0  0  0  0
  5  8  1  0  0  0  0
  6  5  2  0  0  0  0
  7  2  2  0  0  0  0
  7 12  1  0  0  0  0
  8 10  1  0  0  0  0
  8  9  1  1  0  0  0
 11 10  2  0  0  0  0
 12 13  1  0  0  0  0
 14 13  1  0  0  0  0
 15 17  2  0  0  0  0
 16 25  1  0  0  0  0
 17 22  1  0  0  0  0
 19 18  1  6  0  0  0
 19 17  1  0  0  0  0
 19 16  1  0  0  0  0
 20 21  1  0  0  0  0
 21 14  1  1  0  0  0
 22 20  1  0  0  0  0
 24 25  1  0  0  0  0
 24 21  1  0  0  0  0
 25 23  2  0  0  0  0
 26 22  1  0  0  0  0
 26 28  1  0  0  0  0
 27 28  1  0  0  0  0
 29  6  1  0  0  0  0
 30 34  1  0  0  0  0
 31 35  1  0  0  0  0
 31 30  2  0  0  0  0
 33 32  1  0  0  0  0
 34 32  2  0  0  0  0
 34 29  1  0  0  0  0
 35 33  2  0  0  0  0
M  END
>  <MODEL>
7

>  <REMARK>
 VINA RESULT:      -7.0      2.358      8.599
  Name = 
  10 active torsions:
  status: ('A' for Active; 'I' for Inactive)
    1  A    between atoms: C_1  and  C_5
    2  A    between atoms: C_5  and  C_25
    3  A    between atoms: C_6  and  C_18
    4  A    between atoms: C_6  and  C_35
    5  A    between atoms: C_7  and  C_18
    6  A    between atoms: C_7  and  C_21
    7  A    between atoms: C_9  and  N_22
    8  A    between atoms: C_9  and  C_29
    9  A    between atoms: N_26  and  C_31
   10  A    between atoms: N_26  and  C_32
                            x       y       z     vdW  Elec       q    Type
                         _______ _______ _______ _____ _____    ______ ____

>  <TORSDO>
F 10

$$$$
=
 OpenBabel11062420073D

 35 37  0  0  1  0  0  0  0  0999 V2000
  191.1030  176.9840  144.8620 C   0  0  0  0  0  0  0  0  0  0  0  0
  191.5750  174.7700  145.7140 C   0  0  0  0  0  3  0  0  0  0  0  0
  190.4680  178.2150  144.9700 O   0  0  0  0  0  1  0  0  0  0  0  0
  191.9170  176.7250  143.7580 C   0  0  0  0  0  3  0  0  0  0  0  0
  192.3920  174.5050  144.6050 C   0  0  0  0  0  0  0  0  0  0  0  0
  192.5690  175.4900  143.6150 C   0  0  0  0  0  0  0  0  0  0  0  0
  190.9340  176.0040  145.8500 C   0  0  0  0  0  0  0  0  0  0  0  0
  193.0760  173.1750  144.4880 C   0  0  2  0  0  3  0  0  0  0  0  0
  192.1420  172.1400  144.5580 O   0  0  0  0  0  1  0  0  0  0  0  0
  194.1050  173.0140  145.5620 C   0  0  0  0  0  3  0  0  0  0  0  0
  195.2680  173.3150  145.3490 O   0  0  0  0  0  0  0  0  0  0  0  0
  190.0580  176.2400  147.0330 C   0  0  0  0  0  2  0  0  0  0  0  0
  188.6420  175.7860  146.7280 C   0  0  0  0  0  2  0  0  0  0  0  0
  187.7120  176.9840  146.6280 C   0  0  0  0  0  2  0  0  0  0  0  0
  185.8420  178.3770  141.3530 O   0  0  0  0  0  0  0  0  0  0  0  0
  184.3100  178.8470  144.4780 C   0  0  0  0  0  2  0  0  0  0  0  0
  185.7790  178.0590  142.5720 C   0  0  0  0  0  0  0  0  0  0  0  0
  183.4100  178.2890  142.3440 O   0  0  0  0  0  1  0  0  0  0  0  0
  184.4300  177.9620  143.2400 C   0  0  2  0  0  3  0  0  0  0  0  0
  187.1430  178.0820  144.5780 O   0  0  0  0  0  0  0  0  0  0  0  0
  186.8910  176.9320  145.3470 C   0  0  2  0  0  3  0  0  0  0  0  0
  186.9910  177.7240  143.2760 N   0  0  0  0  0  0  0  0  0  0  0  0
  184.4960  178.6600  146.8190 O   0  0  0  0  0  0  0  0  0  0  0  0
  185.4070  176.7990  145.7000 C   0  0  0  0  0  2  0  0  0  0  0  0
  184.7060  178.1300  145.7410 C   0  0  0  0  0  0  0  0  0  0  0  0
  188.1830  177.3290  142.5280 C   0  0  0  0  0  2  0  0  0  0  0  0
  188.7160  174.9290  142.9950 C   0  0  0  0  0  1  0  0  0  0  0  0
  188.0650  175.8970  142.0260 C   0  0  0  0  0  2  0  0  0  0  0  0
  193.4160  175.2110  142.4860 N   0  0  0  0  0  2  0  0  0  0  0  0
  195.5650  174.8740  141.2800 C   0  0  0  0  0  3  0  0  0  0  0  0
  196.9460  175.0800  141.1950 C   0  0  0  0  0  3  0  0  0  0  0  0
  195.5030  176.1330  143.3430 C   0  0  0  0  0  3  0  0  0  0  0  0
  196.8820  176.3400  143.2590 C   0  0  0  0  0  3  0  0  0  0  0  0
  194.8330  175.4000  142.3560 C   0  0  0  0  0  0  0  0  0  0  0  0
  197.6040  175.8130  142.1850 C   0  0  0  0  0  3  0  0  0  0  0  0
  1  3  1  0  0  0  0
  1  7  1  0  0  0  0
  2  7  2  0  0  0  0
  4  1  2  0  0  0  0
  5  2  1  0  0  0  0
  6  4  1  0  0  0  0
  6  5  2  0  0  0  0
  7 12  1  0  0  0  0
  8  9  1  1  0  0  0
  8  5  1  0  0  0  0
  8 10  1  0  0  0  0
 11 10  2  0  0  0  0
 13 12  1  0  0  0  0
 14 13  1  0  0  0  0
 15 17  2  0  0  0  0
 16 25  1  0  0  0  0
 17 19  1  0  0  0  0
 17 22  1  0  0  0  0
 19 18  1  6  0  0  0
 19 16  1  0  0  0  0
 20 21  1  0  0  0  0
 21 24  1  0  0  0  0
 21 14  1  1  0  0  0
 22 20  1  0  0  0  0
 24 25  1  0  0  0  0
 25 23  2  0  0  0  0
 26 22  1  0  0  0  0
 28 26  1  0  0  0  0
 28 27  1  0  0  0  0
 29  6  1  0  0  0  0
 30 34  1  0  0  0  0
 31 30  2  0  0  0  0
 31 35  1  0  0  0  0
 33 32  1  0  0  0  0
 34 29  1  0  0  0  0
 34 32  2  0  0  0  0
 35 33  2  0  0  0  0
M  END
>  <MODEL>
8

>  <REMARK>
 VINA RESULT:      -7.0      2.358      3.170
  Name = 
  10 active torsions:
  status: ('A' for Active; 'I' for Inactive)
    1  A    between atoms: C_1  and  C_5
    2  A    between atoms: C_5  and  C_25
    3  A    between atoms: C_6  and  C_18
    4  A    between atoms: C_6  and  C_35
    5  A    between atoms: C_7  and  C_18
    6  A    between atoms: C_7  and  C_21
    7  A    between atoms: C_9  and  N_22
    8  A    between atoms: C_9  and  C_29
    9  A    between atoms: N_26  and  C_31
   10  A    between atoms: N_26  and  C_32
                            x       y       z     vdW  Elec       q    Type
                         _______ _______ _______ _____ _____    ______ ____

>  <TORSDO>
F 10

$$$$
=
 OpenBabel11062420073D

 35 37  0  0  1  0  0  0  0  0999 V2000
  191.8940  175.3160  146.7830 C   0  0  0  0  0  0  0  0  0  0  0  0
  191.6160  175.9650  144.4690 C   0  0  0  0  0  3  0  0  0  0  0  0
  191.4890  175.3570  148.1110 O   0  0  0  0  0  1  0  0  0  0  0  0
  193.0220  174.5720  146.4300 C   0  0  0  0  0  3  0  0  0  0  0  0
  192.7490  175.2210  144.1120 C   0  0  0  0  0  0  0  0  0  0  0  0
  193.4610  174.5130  145.0990 C   0  0  0  0  0  0  0  0  0  0  0  0
  191.1820  176.0130  145.7960 C   0  0  0  0  0  0  0  0  0  0  0  0
  193.1880  175.1780  142.6780 C   0  0  2  0  0  3  0  0  0  0  0  0
  193.7490  176.4010  142.3050 O   0  0  0  0  0  1  0  0  0  0  0  0
  192.0360  174.8460  141.7820 C   0  0  0  0  0  3  0  0  0  0  0  0
  191.6370  173.6970  141.6960 O   0  0  0  0  0  0  0  0  0  0  0  0
  189.9840  176.8320  146.1400 C   0  0  0  0  0  2  0  0  0  0  0  0
  188.8230  175.9240  146.5040 C   0  0  0  0  0  2  0  0  0  0  0  0
  187.5720  176.7460  146.7700 C   0  0  0  0  0  2  0  0  0  0  0  0
  185.6520  178.6740  141.6850 O   0  0  0  0  0  0  0  0  0  0  0  0
  184.2530  179.0050  144.8890 C   0  0  0  0  0  2  0  0  0  0  0  0
  185.6030  178.2670  142.8780 C   0  0  0  0  0  0  0  0  0  0  0  0
  183.2510  178.6800  142.7510 O   0  0  0  0  0  1  0  0  0  0  0  0
  184.2710  178.2140  143.5830 C   0  0  2  0  0  3  0  0  0  0  0  0
  187.0240  178.0380  144.8300 O   0  0  0  0  0  0  0  0  0  0  0  0
  186.7120  176.8520  145.5190 C   0  0  2  0  0  3  0  0  0  0  0  0
  186.8080  177.7930  143.5110 N   0  0  0  0  0  0  0  0  0  0  0  0
  184.4930  178.6230  147.2010 O   0  0  0  0  0  0  0  0  0  0  0  0
  185.2330  176.7960  145.9120 C   0  0  0  0  0  2  0  0  0  0  0  0
  184.6330  178.1650  146.0790 C   0  0  0  0  0  0  0  0  0  0  0  0
  187.9450  177.3750  142.6940 C   0  0  0  0  0  2  0  0  0  0  0  0
  188.4890  174.9370  142.8260 C   0  0  0  0  0  1  0  0  0  0  0  0
  187.7050  176.0020  142.0840 C   0  0  0  0  0  2  0  0  0  0  0  0
  194.6180  173.7460  144.7200 N   0  0  0  0  0  2  0  0  0  0  0  0
  194.1920  171.3490  145.2330 C   0  0  0  0  0  3  0  0  0  0  0  0
  194.6490  170.1200  145.7180 C   0  0  0  0  0  3  0  0  0  0  0  0
  196.3580  172.3290  145.6700 C   0  0  0  0  0  3  0  0  0  0  0  0
  196.8170  171.1010  146.1550 C   0  0  0  0  0  3  0  0  0  0  0  0
  195.0450  172.4640  145.2050 C   0  0  0  0  0  0  0  0  0  0  0  0
  195.9620  169.9960  146.1790 C   0  0  0  0  0  3  0  0  0  0  0  0
  1  3  1  0  0  0  0
  2  7  1  0  0  0  0
  4  1  1  0  0  0  0
  5  2  2  0  0  0  0
  5  6  1  0  0  0  0
  6  4  2  0  0  0  0
  7 12  1  0  0  0  0
  7  1  2  0  0  0  0
  8  9  1  6  0  0  0
  8  5  1  0  0  0  0
 10  8  1  0  0  0  0
 11 10  2  0  0  0  0
 12 13  1  0  0  0  0
 13 14  1  0  0  0  0
 15 17  2  0  0  0  0
 16 25  1  0  0  0  0
 17 22  1  0  0  0  0
 17 19  1  0  0  0  0
 19 18  1  6  0  0  0
 19 16  1  0  0  0  0
 20 21  1  0  0  0  0
 21 24  1  0  0  0  0
 21 14  1  1  0  0  0
 22 20  1  0  0  0  0
 24 25  1  0  0  0  0
 25 23  2  0  0  0  0
 26 22  1  0  0  0  0
 28 26  1  0  0  0  0
 28 27  1  0  0  0  0
 29  6  1  0  0  0  0
 29 34  1  0  0  0  0
 30 31  1  0  0  0  0
 31 35  2  0  0  0  0
 32 33  2  0  0  0  0
 33 35  1  0  0  0  0
 34 30  2  0  0  0  0
 34 32  1  0  0  0  0
M  END
>  <MODEL>
9

>  <REMARK>
 VINA RESULT:      -7.0      1.586      2.200
  Name = 
  10 active torsions:
  status: ('A' for Active; 'I' for Inactive)
    1  A    between atoms: C_1  and  C_5
    2  A    between atoms: C_5  and  C_25
    3  A    between atoms: C_6  and  C_18
    4  A    between atoms: C_6  and  C_35
    5  A    between atoms: C_7  and  C_18
    6  A    between atoms: C_7  and  C_21
    7  A    between atoms: C_9  and  N_22
    8  A    between atoms: C_9  and  C_29
    9  A    between atoms: N_26  and  C_31
   10  A    between atoms: N_26  and  C_32
                            x       y       z     vdW  Elec       q    Type
                         _______ _______ _______ _____ _____    ______ ____

>  <TORSDO>
F 10

$$$$
