=
 OpenBabel11072408483D

 26 29  0  0  1  0  0  0  0  0999 V2000
  185.9930  177.3120  145.6870 C   0  0  0  0  0  0  0  0  0  0  0  0
  188.3220  176.5370  144.2340 C   0  0  2  0  0  3  0  0  0  0  0  0
  183.9760  178.8570  144.6480 N   0  0  0  0  0  0  0  0  0  0  0  0
  185.0410  177.8530  146.5450 C   0  0  0  0  0  3  0  0  0  0  0  0
  184.8960  178.3290  143.7920 C   0  0  0  0  0  0  0  0  0  0  0  0
  185.9460  177.5490  144.2970 C   0  0  0  0  0  0  0  0  0  0  0  0
  189.1090  177.4670  143.3240 C   0  0  2  0  0  3  0  0  0  0  0  0
  184.0270  178.6410  145.9930 C   0  0  0  0  0  3  0  0  0  0  0  0
  187.0300  176.8940  143.4200 C   0  0  1  0  0  3  0  0  0  0  0  0
  187.8330  177.8820  142.5920 C   0  0  0  0  0  2  0  0  0  0  0  0
  188.3270  176.5340  146.8680 C   0  0  2  0  0  3  0  0  0  0  0  0
  187.0940  176.4060  146.1060 C   0  0  2  0  0  3  0  0  0  0  0  0
  184.7760  178.5720  142.3930 N   0  0  0  0  0  1  0  0  0  0  0  0
  188.2400  177.1770  145.5520 N   0  0  2  0  0  0  0  0  0  0  0  0
  190.6740  175.6710  143.2140 O   0  0  0  0  0  0  0  0  0  0  0  0
  191.8860  176.9160  143.0190 P   0  0  0  0  0  0  0  0  0  0  0  0
  192.9880  176.3430  142.1590 O   0  0  0  0  0  0  0  0  0  0  0  0
  192.3650  177.3640  144.5790 O   0  0  0  0  0  0  0  0  0  0  0  0
  190.1610  176.6920  142.5050 C   0  0  0  0  0  2  0  0  0  0  0  0
  189.1400  175.2440  146.7960 C   0  0  2  0  0  3  0  0  0  0  0  0
  188.7700  174.4160  147.8600 O   0  0  0  0  0  1  0  0  0  0  0  0
  190.6440  175.5320  146.8590 C   0  0  2  0  0  3  0  0  0  0  0  0
  191.4400  174.4420  146.1520 C   0  0  0  0  0  2  0  0  0  0  0  0
  192.7990  174.5860  146.4310 O   0  0  0  0  0  1  0  0  0  0  0  0
  191.0590  175.5950  148.1920 O   0  0  0  0  0  0  0  0  0  0  0  0
  191.4320  176.9260  148.3890 C   0  0  0  0  0  1  0  0  0  0  0  0
  1 12  1  0  0  0  0
  1  4  1  0  0  0  0
  2 14  1  0  0  0  0
  3  8  1  0  0  0  0
  5  6  1  0  0  0  0
  5  3  2  0  0  0  0
  6  1  2  0  0  0  0
  7  2  1  0  0  0  0
  8  4  2  0  0  0  0
  9  2  1  0  0  0  0
  9  6  1  0  0  0  0
 10  7  1  0  0  0  0
 10  9  1  0  0  0  0
 12 11  1  0  0  0  0
 13  5  1  0  0  0  0
 14 12  1  0  0  0  0
 14 11  1  0  0  0  0
 16 15  1  0  0  0  0
 16 18  2  0  0  0  0
 17 16  2  0  0  0  0
 19 15  1  0  0  0  0
 19  7  1  0  0  0  0
 20 22  1  0  0  0  0
 20 11  1  0  0  0  0
 20 21  1  0  0  0  0
 22 25  1  0  0  0  0
 23 24  1  0  0  0  0
 23 22  1  0  0  0  0
 25 26  1  0  0  0  0
M  END
>  <MODEL>
1

>  <REMARK>
 VINA RESULT:      -6.9      0.000      0.000
  Name = 
  5 active torsions:
  status: ('A' for Active; 'I' for Inactive)
    1  A    between atoms: C_3  and  C_18
    2  A    between atoms: C_3  and  C_19
    3  A    between atoms: C_10  and  C_18
    4  A    between atoms: C_12  and  C_23
    5  A    between atoms: O_15  and  C_18
                            x       y       z     vdW  Elec       q    Type
                         _______ _______ _______ _____ _____    ______ ____

>  <TORSDO>
F 5

$$$$
=
 OpenBabel11072408483D

 26 29  0  0  1  0  0  0  0  0999 V2000
  186.3400  177.2030  146.1070 C   0  0  0  0  0  0  0  0  0  0  0  0
  188.5170  176.2390  144.5360 C   0  0  2  0  0  3  0  0  0  0  0  0
  184.1620  178.5170  145.0730 N   0  0  0  0  0  0  0  0  0  0  0  0
  185.4710  177.8620  146.9700 C   0  0  0  0  0  3  0  0  0  0  0  0
  184.9990  177.8710  144.2130 C   0  0  0  0  0  0  0  0  0  0  0  0
  186.1280  177.2050  144.7120 C   0  0  0  0  0  0  0  0  0  0  0  0
  189.1620  177.0190  143.4010 C   0  0  2  0  0  3  0  0  0  0  0  0
  184.3730  178.5290  146.4200 C   0  0  0  0  0  3  0  0  0  0  0  0
  187.1290  176.4320  143.8320 C   0  0  1  0  0  3  0  0  0  0  0  0
  187.7960  177.2830  142.7660 C   0  0  0  0  0  2  0  0  0  0  0  0
  188.8190  176.6740  147.1160 C   0  0  2  0  0  3  0  0  0  0  0  0
  187.5130  176.3990  146.5360 C   0  0  2  0  0  3  0  0  0  0  0  0
  184.7130  177.8760  142.8180 N   0  0  0  0  0  1  0  0  0  0  0  0
  188.5600  177.0870  145.7330 N   0  0  2  0  0  0  0  0  0  0  0  0
  190.7930  175.2800  143.4070 O   0  0  0  0  0  0  0  0  0  0  0  0
  191.9040  176.5030  142.8340 P   0  0  0  0  0  0  0  0  0  0  0  0
  192.9180  175.8130  141.9510 O   0  0  0  0  0  0  0  0  0  0  0  0
  192.5500  177.2450  144.2100 O   0  0  0  0  0  0  0  0  0  0  0  0
  190.1420  176.1370  142.6010 C   0  0  0  0  0  2  0  0  0  0  0  0
  189.6660  175.4040  147.1610 C   0  0  2  0  0  3  0  0  0  0  0  0
  188.8950  174.3650  147.6880 O   0  0  0  0  0  1  0  0  0  0  0  0
  190.9220  175.6060  148.0150 C   0  0  2  0  0  3  0  0  0  0  0  0
  191.4450  177.0310  147.8910 C   0  0  0  0  0  2  0  0  0  0  0  0
  191.5250  177.6230  149.1510 O   0  0  0  0  0  1  0  0  0  0  0  0
  191.9240  174.7250  147.5990 O   0  0  0  0  0  0  0  0  0  0  0  0
  192.7450  175.4850  146.7640 C   0  0  0  0  0  1  0  0  0  0  0  0
  1 12  1  0  0  0  0
  1  4  1  0  0  0  0
  2 14  1  0  0  0  0
  3  8  1  0  0  0  0
  5  6  1  0  0  0  0
  5  3  2  0  0  0  0
  6  1  2  0  0  0  0
  7  2  1  0  0  0  0
  8  4  2  0  0  0  0
  9  2  1  0  0  0  0
  9  6  1  0  0  0  0
 10  7  1  0  0  0  0
 10  9  1  0  0  0  0
 11 20  1  0  0  0  0
 12 11  1  0  0  0  0
 13  5  1  0  0  0  0
 14 12  1  0  0  0  0
 14 11  1  0  0  0  0
 16 15  1  0  0  0  0
 16 18  2  0  0  0  0
 17 16  2  0  0  0  0
 19  7  1  0  0  0  0
 19 15  1  0  0  0  0
 20 21  1  0  0  0  0
 20 22  1  0  0  0  0
 23 22  1  0  0  0  0
 23 24  1  0  0  0  0
 25 22  1  0  0  0  0
 26 25  1  0  0  0  0
M  END
>  <MODEL>
2

>  <REMARK>
 VINA RESULT:      -6.9      0.842      1.303
  Name = 
  5 active torsions:
  status: ('A' for Active; 'I' for Inactive)
    1  A    between atoms: C_3  and  C_18
    2  A    between atoms: C_3  and  C_19
    3  A    between atoms: C_10  and  C_18
    4  A    between atoms: C_12  and  C_23
    5  A    between atoms: O_15  and  C_18
                            x       y       z     vdW  Elec       q    Type
                         _______ _______ _______ _____ _____    ______ ____

>  <TORSDO>
F 5

$$$$
=
 OpenBabel11072408483D

 26 29  0  0  1  0  0  0  0  0999 V2000
  191.0960  176.1170  143.7920 C   0  0  0  0  0  0  0  0  0  0  0  0
  188.6520  176.4210  145.2320 C   0  0  2  0  0  3  0  0  0  0  0  0
  193.5850  176.4560  144.9000 N   0  0  0  0  0  0  0  0  0  0  0  0
  192.2050  176.2090  142.9570 C   0  0  0  0  0  3  0  0  0  0  0  0
  192.5110  176.3610  145.7330 C   0  0  0  0  0  0  0  0  0  0  0  0
  191.2260  176.2030  145.1950 C   0  0  0  0  0  0  0  0  0  0  0  0
  188.3790  177.5420  146.2220 C   0  0  2  0  0  3  0  0  0  0  0  0
  193.4600  176.3890  143.5440 C   0  0  0  0  0  3  0  0  0  0  0  0
  189.9480  176.0700  146.0440 C   0  0  1  0  0  3  0  0  0  0  0  0
  189.6890  177.2560  146.9570 C   0  0  0  0  0  2  0  0  0  0  0  0
  188.6890  176.6120  142.6060 C   0  0  2  0  0  3  0  0  0  0  0  0
  189.7060  175.8660  143.3310 C   0  0  2  0  0  3  0  0  0  0  0  0
  192.7080  176.4160  147.1430 N   0  0  0  0  0  1  0  0  0  0  0  0
  189.0460  177.0410  143.9620 N   0  0  2  0  0  0  0  0  0  0  0  0
  186.0780  176.9150  146.1820 O   0  0  0  0  0  0  0  0  0  0  0  0
  185.7650  178.5290  146.7750 P   0  0  0  0  0  0  0  0  0  0  0  0
  184.5310  178.4610  147.6440 O   0  0  0  0  0  0  0  0  0  0  0  0
  185.6180  179.5190  145.4110 O   0  0  0  0  0  0  0  0  0  0  0  0
  187.0730  177.2920  147.0040 C   0  0  0  0  0  2  0  0  0  0  0  0
  187.3660  175.8510  142.6000 C   0  0  2  0  0  3  0  0  0  0  0  0
  187.5270  174.6660  141.8790 O   0  0  0  0  0  1  0  0  0  0  0  0
  186.2460  176.6920  141.9770 C   0  0  2  0  0  3  0  0  0  0  0  0
  186.8140  177.7710  141.0650 C   0  0  0  0  0  2  0  0  0  0  0  0
  186.7120  177.3750  139.7320 O   0  0  0  0  0  1  0  0  0  0  0  0
  185.4980  177.3070  142.9850 O   0  0  0  0  0  0  0  0  0  0  0  0
  184.4920  178.0020  142.3110 C   0  0  0  0  0  1  0  0  0  0  0  0
  1  6  1  0  0  0  0
  2  9  1  0  0  0  0
  2  7  1  0  0  0  0
  3  5  1  0  0  0  0
  4  8  1  0  0  0  0
  4  1  2  0  0  0  0
  5 13  1  0  0  0  0
  6  5  2  0  0  0  0
  6  9  1  0  0  0  0
  7 10  1  0  0  0  0
  7 19  1  0  0  0  0
  8  3  2  0  0  0  0
  9 10  1  0  0  0  0
 11 12  1  0  0  0  0
 11 14  1  0  0  0  0
 12  1  1  0  0  0  0
 12 14  1  0  0  0  0
 14  2  1  0  0  0  0
 15 16  1  0  0  0  0
 15 19  1  0  0  0  0
 16 17  2  0  0  0  0
 18 16  2  0  0  0  0
 20 11  1  0  0  0  0
 21 20  1  0  0  0  0
 22 20  1  0  0  0  0
 22 25  1  0  0  0  0
 23 22  1  0  0  0  0
 24 23  1  0  0  0  0
 26 25  1  0  0  0  0
M  END
>  <MODEL>
3

>  <REMARK>
 VINA RESULT:      -6.8      3.621      6.903
  Name = 
  5 active torsions:
  status: ('A' for Active; 'I' for Inactive)
    1  A    between atoms: C_3  and  C_18
    2  A    between atoms: C_3  and  C_19
    3  A    between atoms: C_10  and  C_18
    4  A    between atoms: C_12  and  C_23
    5  A    between atoms: O_15  and  C_18
                            x       y       z     vdW  Elec       q    Type
                         _______ _______ _______ _____ _____    ______ ____

>  <TORSDO>
F 5

$$$$
=
 OpenBabel11072408483D

 26 29  0  0  1  0  0  0  0  0999 V2000
  186.5550  177.8110  145.1100 C   0  0  0  0  0  0  0  0  0  0  0  0
  187.8530  175.8210  143.5300 C   0  0  2  0  0  3  0  0  0  0  0  0
  184.4490  179.3370  144.2320 N   0  0  0  0  0  0  0  0  0  0  0  0
  186.1690  178.9250  145.8480 C   0  0  0  0  0  3  0  0  0  0  0  0
  184.8090  178.2450  143.5000 C   0  0  0  0  0  0  0  0  0  0  0  0
  185.8910  177.4570  143.9160 C   0  0  0  0  0  0  0  0  0  0  0  0
  188.2140  175.9970  142.0640 C   0  0  2  0  0  3  0  0  0  0  0  0
  185.0980  179.6900  145.3780 C   0  0  0  0  0  3  0  0  0  0  0  0
  186.3720  176.1960  143.1740 C   0  0  1  0  0  3  0  0  0  0  0  0
  186.7910  176.4500  141.7360 C   0  0  0  0  0  2  0  0  0  0  0  0
  189.0820  176.9010  145.5950 C   0  0  2  0  0  3  0  0  0  0  0  0
  187.6300  176.8640  145.5050 C   0  0  2  0  0  3  0  0  0  0  0  0
  184.0770  177.9150  142.3230 N   0  0  0  0  0  1  0  0  0  0  0  0
  188.4560  176.9370  144.2690 N   0  0  2  0  0  0  0  0  0  0  0  0
  188.9480  173.7520  142.3870 O   0  0  0  0  0  0  0  0  0  0  0  0
  190.4420  174.2740  141.6440 P   0  0  0  0  0  0  0  0  0  0  0  0
  191.0190  173.0880  140.9060 O   0  0  0  0  0  0  0  0  0  0  0  0
  191.4130  174.8720  142.8940 O   0  0  0  0  0  0  0  0  0  0  0  0
  188.6830  174.6670  141.4390 C   0  0  0  0  0  2  0  0  0  0  0  0
  189.6370  175.5130  145.9030 C   0  0  2  0  0  3  0  0  0  0  0  0
  188.8520  174.9210  146.8960 O   0  0  0  0  0  1  0  0  0  0  0  0
  191.0950  175.5900  146.3690 C   0  0  2  0  0  3  0  0  0  0  0  0
  191.1860  175.5690  147.8890 C   0  0  0  0  0  2  0  0  0  0  0  0
  191.1930  176.8720  148.3870 O   0  0  0  0  0  1  0  0  0  0  0  0
  191.6790  176.7720  145.9040 O   0  0  0  0  0  0  0  0  0  0  0  0
  192.9810  176.4130  145.5500 C   0  0  0  0  0  1  0  0  0  0  0  0
  1 12  1  0  0  0  0
  1  4  1  0  0  0  0
  2 14  1  0  0  0  0
  3  8  1  0  0  0  0
  5  6  1  0  0  0  0
  5  3  2  0  0  0  0
  6  1  2  0  0  0  0
  7  2  1  0  0  0  0
  8  4  2  0  0  0  0
  9  2  1  0  0  0  0
  9  6  1  0  0  0  0
 10  7  1  0  0  0  0
 10  9  1  0  0  0  0
 11 20  1  0  0  0  0
 12 11  1  0  0  0  0
 13  5  1  0  0  0  0
 14 12  1  0  0  0  0
 14 11  1  0  0  0  0
 16 15  1  0  0  0  0
 16 18  2  0  0  0  0
 17 16  2  0  0  0  0
 19  7  1  0  0  0  0
 19 15  1  0  0  0  0
 20 22  1  0  0  0  0
 20 21  1  0  0  0  0
 22 23  1  0  0  0  0
 23 24  1  0  0  0  0
 25 22  1  0  0  0  0
 26 25  1  0  0  0  0
M  END
>  <MODEL>
4

>  <REMARK>
 VINA RESULT:      -6.6      1.713      2.075
  Name = 
  5 active torsions:
  status: ('A' for Active; 'I' for Inactive)
    1  A    between atoms: C_3  and  C_18
    2  A    between atoms: C_3  and  C_19
    3  A    between atoms: C_10  and  C_18
    4  A    between atoms: C_12  and  C_23
    5  A    between atoms: O_15  and  C_18
                            x       y       z     vdW  Elec       q    Type
                         _______ _______ _______ _____ _____    ______ ____

>  <TORSDO>
F 5

$$$$
=
 OpenBabel11072408483D

 26 29  0  0  1  0  0  0  0  0999 V2000
  185.8630  177.9290  144.7080 C   0  0  0  0  0  0  0  0  0  0  0  0
  188.5110  176.8850  144.5180 C   0  0  2  0  0  3  0  0  0  0  0  0
  184.7650  178.9240  147.0200 N   0  0  0  0  0  0  0  0  0  0  0  0
  184.4930  178.1660  144.7630 C   0  0  0  0  0  3  0  0  0  0  0  0
  186.1100  178.7060  146.9810 C   0  0  0  0  0  0  0  0  0  0  0  0
  186.6950  178.1840  145.8190 C   0  0  0  0  0  0  0  0  0  0  0  0
  189.1440  175.9720  145.5560 C   0  0  2  0  0  3  0  0  0  0  0  0
  183.9560  178.6660  145.9530 C   0  0  0  0  0  3  0  0  0  0  0  0
  188.2030  177.9130  145.6630 C   0  0  1  0  0  3  0  0  0  0  0  0
  188.7620  176.9350  146.6810 C   0  0  0  0  0  2  0  0  0  0  0  0
  186.6810  176.2210  142.7440 C   0  0  2  0  0  3  0  0  0  0  0  0
  186.5940  177.4600  143.5030 C   0  0  2  0  0  3  0  0  0  0  0  0
  186.9050  179.0170  148.1210 N   0  0  0  0  0  1  0  0  0  0  0  0
  187.2510  176.2620  144.0940 N   0  0  2  0  0  0  0  0  0  0  0  0
  191.0560  174.5500  145.6500 O   0  0  0  0  0  0  0  0  0  0  0  0
  191.7170  175.7340  146.7540 P   0  0  0  0  0  0  0  0  0  0  0  0
  193.2170  175.7350  146.5710 O   0  0  0  0  0  0  0  0  0  0  0  0
  191.1910  175.2910  148.3000 O   0  0  0  0  0  0  0  0  0  0  0  0
  190.6510  175.7790  145.2860 C   0  0  0  0  0  2  0  0  0  0  0  0
  187.7740  176.3170  141.6820 C   0  0  2  0  0  3  0  0  0  0  0  0
  187.2990  177.0770  140.6110 O   0  0  0  0  0  1  0  0  0  0  0  0
  188.1910  174.9270  141.1900 C   0  0  2  0  0  3  0  0  0  0  0  0
  189.5610  174.5420  141.7340 C   0  0  0  0  0  2  0  0  0  0  0  0
  189.4190  173.6650  142.8090 O   0  0  0  0  0  1  0  0  0  0  0  0
  188.2470  174.9160  139.7940 O   0  0  0  0  0  0  0  0  0  0  0  0
  188.5510  173.5950  139.4580 C   0  0  0  0  0  1  0  0  0  0  0  0
  1  4  2  0  0  0  0
  1  6  1  0  0  0  0
  2  7  1  0  0  0  0
  2  9  1  0  0  0  0
  4  8  1  0  0  0  0
  5  3  1  0  0  0  0
  5 13  1  0  0  0  0
  6  5  2  0  0  0  0
  7 10  1  0  0  0  0
  8  3  2  0  0  0  0
  9  6  1  0  0  0  0
  9 10  1  0  0  0  0
 11 12  1  0  0  0  0
 11 14  1  0  0  0  0
 12 14  1  0  0  0  0
 12  1  1  0  0  0  0
 14  2  1  0  0  0  0
 15 16  1  0  0  0  0
 16 18  2  0  0  0  0
 17 16  2  0  0  0  0
 19  7  1  0  0  0  0
 19 15  1  0  0  0  0
 20 11  1  0  0  0  0
 21 20  1  0  0  0  0
 22 20  1  0  0  0  0
 22 23  1  0  0  0  0
 23 24  1  0  0  0  0
 25 22  1  0  0  0  0
 26 25  1  0  0  0  0
M  END
>  <MODEL>
5

>  <REMARK>
 VINA RESULT:      -6.5      2.326      4.624
  Name = 
  5 active torsions:
  status: ('A' for Active; 'I' for Inactive)
    1  A    between atoms: C_3  and  C_18
    2  A    between atoms: C_3  and  C_19
    3  A    between atoms: C_10  and  C_18
    4  A    between atoms: C_12  and  C_23
    5  A    between atoms: O_15  and  C_18
                            x       y       z     vdW  Elec       q    Type
                         _______ _______ _______ _____ _____    ______ ____

>  <TORSDO>
F 5

$$$$
=
 OpenBabel11072408483D

 26 29  0  0  1  0  0  0  0  0999 V2000
  186.3340  177.8360  142.9030 C   0  0  0  0  0  0  0  0  0  0  0  0
  188.1200  177.3050  145.0630 C   0  0  2  0  0  3  0  0  0  0  0  0
  183.7080  178.5680  143.2250 N   0  0  0  0  0  0  0  0  0  0  0  0
  185.4820  177.8130  141.8030 C   0  0  0  0  0  3  0  0  0  0  0  0
  184.5300  178.6030  144.3120 C   0  0  0  0  0  0  0  0  0  0  0  0
  185.8720  178.2200  144.1800 C   0  0  0  0  0  0  0  0  0  0  0  0
  187.7470  176.5070  146.3020 C   0  0  2  0  0  3  0  0  0  0  0  0
  184.1480  178.1830  141.9940 C   0  0  0  0  0  3  0  0  0  0  0  0
  186.8880  178.2370  145.3360 C   0  0  1  0  0  3  0  0  0  0  0  0
  186.4960  177.3610  146.5140 C   0  0  0  0  0  2  0  0  0  0  0  0
  188.6060  176.3450  142.6590 C   0  0  2  0  0  3  0  0  0  0  0  0
  187.7870  177.5320  142.8560 C   0  0  2  0  0  3  0  0  0  0  0  0
  184.0150  179.0360  145.5680 N   0  0  0  0  0  1  0  0  0  0  0  0
  187.8260  176.4670  143.8940 N   0  0  2  0  0  0  0  0  0  0  0  0
  189.9910  177.0800  146.8670 O   0  0  0  0  0  0  0  0  0  0  0  0
  190.1860  175.3860  147.2520 P   0  0  0  0  0  0  0  0  0  0  0  0
  191.1980  175.2900  148.3700 O   0  0  0  0  0  0  0  0  0  0  0  0
  190.6430  174.6190  145.8150 O   0  0  0  0  0  0  0  0  0  0  0  0
  188.8450  176.6010  147.3810 C   0  0  0  0  0  2  0  0  0  0  0  0
  190.0790  176.6610  142.9060 C   0  0  2  0  0  3  0  0  0  0  0  0
  190.3650  177.9260  142.3850 O   0  0  0  0  0  1  0  0  0  0  0  0
  190.9870  175.6130  142.2540 C   0  0  2  0  0  3  0  0  0  0  0  0
  190.3100  174.2490  142.2150 C   0  0  0  0  0  2  0  0  0  0  0  0
  190.2620  173.7750  140.9050 O   0  0  0  0  0  1  0  0  0  0  0  0
  192.1770  175.5000  142.9790 O   0  0  0  0  0  0  0  0  0  0  0  0
  193.1770  175.3790  142.0110 C   0  0  0  0  0  1  0  0  0  0  0  0
  1  6  1  0  0  0  0
  2  9  1  0  0  0  0
  2  7  1  0  0  0  0
  3  5  1  0  0  0  0
  4  8  1  0  0  0  0
  4  1  2  0  0  0  0
  5 13  1  0  0  0  0
  6  5  2  0  0  0  0
  6  9  1  0  0  0  0
  7 10  1  0  0  0  0
  7 19  1  0  0  0  0
  8  3  2  0  0  0  0
  9 10  1  0  0  0  0
 11 12  1  0  0  0  0
 11 20  1  0  0  0  0
 11 14  1  0  0  0  0
 12  1  1  0  0  0  0
 12 14  1  0  0  0  0
 14  2  1  0  0  0  0
 15 16  1  0  0  0  0
 15 19  1  0  0  0  0
 16 17  2  0  0  0  0
 18 16  2  0  0  0  0
 21 20  1  0  0  0  0
 22 20  1  0  0  0  0
 22 25  1  0  0  0  0
 23 22  1  0  0  0  0
 24 23  1  0  0  0  0
 26 25  1  0  0  0  0
M  END
>  <MODEL>
6

>  <REMARK>
 VINA RESULT:      -6.4      1.901      4.220
  Name = 
  5 active torsions:
  status: ('A' for Active; 'I' for Inactive)
    1  A    between atoms: C_3  and  C_18
    2  A    between atoms: C_3  and  C_19
    3  A    between atoms: C_10  and  C_18
    4  A    between atoms: C_12  and  C_23
    5  A    between atoms: O_15  and  C_18
                            x       y       z     vdW  Elec       q    Type
                         _______ _______ _______ _____ _____    ______ ____

>  <TORSDO>
F 5

$$$$
=
 OpenBabel11072408483D

 26 29  0  0  1  0  0  0  0  0999 V2000
  185.8950  177.8690  144.5330 C   0  0  0  0  0  0  0  0  0  0  0  0
  188.4620  176.6490  144.2950 C   0  0  2  0  0  3  0  0  0  0  0  0
  184.8460  178.7950  146.8950 N   0  0  0  0  0  0  0  0  0  0  0  0
  184.5450  178.2000  144.5940 C   0  0  0  0  0  3  0  0  0  0  0  0
  186.1720  178.4830  146.8510 C   0  0  0  0  0  0  0  0  0  0  0  0
  186.7310  177.9930  145.6620 C   0  0  0  0  0  0  0  0  0  0  0  0
  189.0170  175.6300  145.2780 C   0  0  2  0  0  3  0  0  0  0  0  0
  184.0330  178.6630  145.8090 C   0  0  0  0  0  3  0  0  0  0  0  0
  188.2170  177.6230  145.5000 C   0  0  1  0  0  3  0  0  0  0  0  0
  188.6930  176.5460  146.4590 C   0  0  0  0  0  2  0  0  0  0  0  0
  186.6090  176.2300  142.4710 C   0  0  2  0  0  3  0  0  0  0  0  0
  186.6030  177.4230  143.3050 C   0  0  2  0  0  3  0  0  0  0  0  0
  186.9750  178.6650  148.0140 N   0  0  0  0  0  1  0  0  0  0  0  0
  187.1660  176.1460  143.8250 N   0  0  2  0  0  0  0  0  0  0  0  0
  190.6860  174.8010  143.7900 O   0  0  0  0  0  0  0  0  0  0  0  0
  190.9950  173.5970  145.0200 P   0  0  0  0  0  0  0  0  0  0  0  0
  192.4620  173.2440  144.9480 O   0  0  0  0  0  0  0  0  0  0  0  0
  189.9400  172.3120  144.7050 O   0  0  0  0  0  0  0  0  0  0  0  0
  190.5090  175.3450  145.0060 C   0  0  0  0  0  2  0  0  0  0  0  0
  187.7170  176.3120  141.4250 C   0  0  2  0  0  3  0  0  0  0  0  0
  187.4740  177.4070  140.5910 O   0  0  0  0  0  1  0  0  0  0  0  0
  187.7870  175.0280  140.5900 C   0  0  2  0  0  3  0  0  0  0  0  0
  189.0290  174.2170  140.9370 C   0  0  0  0  0  2  0  0  0  0  0  0
  188.6980  173.1900  141.8220 O   0  0  0  0  0  1  0  0  0  0  0  0
  187.8290  175.3490  139.2310 O   0  0  0  0  0  0  0  0  0  0  0  0
  188.1910  174.1600  138.5930 C   0  0  0  0  0  1  0  0  0  0  0  0
  1  4  2  0  0  0  0
  1  6  1  0  0  0  0
  2  7  1  0  0  0  0
  2  9  1  0  0  0  0
  4  8  1  0  0  0  0
  5  3  1  0  0  0  0
  5 13  1  0  0  0  0
  6  5  2  0  0  0  0
  7 10  1  0  0  0  0
  8  3  2  0  0  0  0
  9  6  1  0  0  0  0
  9 10  1  0  0  0  0
 11 12  1  0  0  0  0
 11 14  1  0  0  0  0
 12 14  1  0  0  0  0
 12  1  1  0  0  0  0
 14  2  1  0  0  0  0
 15 19  1  0  0  0  0
 15 16  1  0  0  0  0
 17 16  2  0  0  0  0
 18 16  2  0  0  0  0
 19  7  1  0  0  0  0
 20 11  1  0  0  0  0
 21 20  1  0  0  0  0
 22 23  1  0  0  0  0
 22 20  1  0  0  0  0
 23 24  1  0  0  0  0
 25 22  1  0  0  0  0
 26 25  1  0  0  0  0
M  END
>  <MODEL>
7

>  <REMARK>
 VINA RESULT:      -6.4      2.615      4.902
  Name = 
  5 active torsions:
  status: ('A' for Active; 'I' for Inactive)
    1  A    between atoms: C_3  and  C_18
    2  A    between atoms: C_3  and  C_19
    3  A    between atoms: C_10  and  C_18
    4  A    between atoms: C_12  and  C_23
    5  A    between atoms: O_15  and  C_18
                            x       y       z     vdW  Elec       q    Type
                         _______ _______ _______ _____ _____    ______ ____

>  <TORSDO>
F 5

$$$$
=
 OpenBabel11072408483D

 26 29  0  0  1  0  0  0  0  0999 V2000
  190.1790  176.9000  146.1730 C   0  0  0  0  0  0  0  0  0  0  0  0
  189.4530  176.0160  143.5600 C   0  0  2  0  0  3  0  0  0  0  0  0
  192.6430  176.4790  147.3080 N   0  0  0  0  0  0  0  0  0  0  0  0
  190.3490  177.1300  147.5350 C   0  0  0  0  0  3  0  0  0  0  0  0
  192.4970  176.2550  145.9720 C   0  0  0  0  0  0  0  0  0  0  0  0
  191.2460  176.4470  145.3690 C   0  0  0  0  0  0  0  0  0  0  0  0
  189.8030  174.6490  142.9940 C   0  0  2  0  0  3  0  0  0  0  0  0
  191.6110  176.9020  148.0910 C   0  0  0  0  0  3  0  0  0  0  0  0
  190.9750  176.2390  143.8670 C   0  0  1  0  0  3  0  0  0  0  0  0
  191.2720  174.8320  143.3770 C   0  0  0  0  0  2  0  0  0  0  0  0
  187.6000  176.5490  145.3550 C   0  0  2  0  0  3  0  0  0  0  0  0
  188.9230  177.1520  145.4210 C   0  0  2  0  0  3  0  0  0  0  0  0
  193.6210  175.8350  145.2030 N   0  0  0  0  0  1  0  0  0  0  0  0
  188.7440  175.7990  144.8270 N   0  0  2  0  0  0  0  0  0  0  0  0
  188.2070  174.9220  141.2430 O   0  0  0  0  0  0  0  0  0  0  0  0
  188.3980  173.2030  140.9820 P   0  0  0  0  0  0  0  0  0  0  0  0
  188.1850  172.9430  139.5090 O   0  0  0  0  0  0  0  0  0  0  0  0
  187.2870  172.4390  142.0050 O   0  0  0  0  0  0  0  0  0  0  0  0
  189.4810  174.5690  141.4870 C   0  0  0  0  0  2  0  0  0  0  0  0
  186.7830  177.1710  144.2250 C   0  0  2  0  0  3  0  0  0  0  0  0
  187.2200  178.4820  144.0180 O   0  0  0  0  0  1  0  0  0  0  0  0
  185.2860  177.1680  144.5580 C   0  0  2  0  0  3  0  0  0  0  0  0
  184.5650  178.3050  143.8470 C   0  0  0  0  0  2  0  0  0  0  0  0
  184.2490  177.9300  142.5420 O   0  0  0  0  0  1  0  0  0  0  0  0
  185.1080  177.3190  145.9360 O   0  0  0  0  0  0  0  0  0  0  0  0
  184.3410  178.4780  146.0740 C   0  0  0  0  0  1  0  0  0  0  0  0
  1  4  1  0  0  0  0
  2  9  1  0  0  0  0
  2 14  1  0  0  0  0
  3  8  1  0  0  0  0
  4  8  2  0  0  0  0
  5  3  2  0  0  0  0
  6  5  1  0  0  0  0
  6  1  2  0  0  0  0
  7 10  1  0  0  0  0
  7  2  1  0  0  0  0
  9  6  1  0  0  0  0
 10  9  1  0  0  0  0
 11 12  1  0  0  0  0
 12  1  1  0  0  0  0
 13  5  1  0  0  0  0
 14 11  1  0  0  0  0
 14 12  1  0  0  0  0
 15 19  1  0  0  0  0
 16 15  1  0  0  0  0
 16 18  2  0  0  0  0
 17 16  2  0  0  0  0
 19  7  1  0  0  0  0
 20 22  1  0  0  0  0
 20 11  1  0  0  0  0
 21 20  1  0  0  0  0
 22 25  1  0  0  0  0
 23 22  1  0  0  0  0
 24 23  1  0  0  0  0
 25 26  1  0  0  0  0
M  END
>  <MODEL>
8

>  <REMARK>
 VINA RESULT:      -6.3      3.412      6.042
  Name = 
  5 active torsions:
  status: ('A' for Active; 'I' for Inactive)
    1  A    between atoms: C_3  and  C_18
    2  A    between atoms: C_3  and  C_19
    3  A    between atoms: C_10  and  C_18
    4  A    between atoms: C_12  and  C_23
    5  A    between atoms: O_15  and  C_18
                            x       y       z     vdW  Elec       q    Type
                         _______ _______ _______ _____ _____    ______ ____

>  <TORSDO>
F 5

$$$$
=
 OpenBabel11072408483D

 26 29  0  0  1  0  0  0  0  0999 V2000
  191.7120  175.6560  145.2500 C   0  0  0  0  0  0  0  0  0  0  0  0
  188.8670  175.8520  145.3380 C   0  0  2  0  0  3  0  0  0  0  0  0
  193.3860  176.7490  147.1310 N   0  0  0  0  0  0  0  0  0  0  0  0
  193.0740  175.7350  144.9830 C   0  0  0  0  0  3  0  0  0  0  0  0
  192.0550  176.6720  147.4130 C   0  0  0  0  0  0  0  0  0  0  0  0
  191.1740  176.1330  146.4650 C   0  0  0  0  0  0  0  0  0  0  0  0
  188.1100  177.1210  145.6970 C   0  0  2  0  0  3  0  0  0  0  0  0
  193.9060  176.3020  145.9530 C   0  0  0  0  0  3  0  0  0  0  0  0
  189.6580  175.9860  146.6860 C   0  0  1  0  0  3  0  0  0  0  0  0
  188.9450  177.2980  146.9650 C   0  0  0  0  0  2  0  0  0  0  0  0
  190.1030  175.3450  143.0680 C   0  0  2  0  0  3  0  0  0  0  0  0
  190.7070  175.0280  144.3540 C   0  0  2  0  0  3  0  0  0  0  0  0
  191.5760  177.1360  148.6720 N   0  0  0  0  0  1  0  0  0  0  0  0
  189.7710  176.1780  144.2280 N   0  0  2  0  0  0  0  0  0  0  0  0
  185.9500  176.8870  144.7150 O   0  0  0  0  0  0  0  0  0  0  0  0
  185.5040  178.2680  145.6890 P   0  0  0  0  0  0  0  0  0  0  0  0
  184.0420  178.1200  146.0400 O   0  0  0  0  0  0  0  0  0  0  0  0
  185.8770  179.6400  144.7710 O   0  0  0  0  0  0  0  0  0  0  0  0
  186.6050  176.8410  145.8870 C   0  0  0  0  0  2  0  0  0  0  0  0
  188.9730  174.3690  142.7500 C   0  0  2  0  0  3  0  0  0  0  0  0
  189.2900  173.1180  143.2840 O   0  0  0  0  0  1  0  0  0  0  0  0
  188.7540  174.2490  141.2380 C   0  0  2  0  0  3  0  0  0  0  0  0
  187.9840  175.4480  140.6990 C   0  0  0  0  0  2  0  0  0  0  0  0
  187.1620  175.9750  141.6940 O   0  0  0  0  0  1  0  0  0  0  0  0
  188.0280  173.0890  140.9550 O   0  0  0  0  0  0  0  0  0  0  0  0
  188.2270  172.8650  139.5910 C   0  0  0  0  0  1  0  0  0  0  0  0
  1  6  1  0  0  0  0
  2  7  1  0  0  0  0
  2  9  1  0  0  0  0
  3  5  1  0  0  0  0
  4  1  2  0  0  0  0
  4  8  1  0  0  0  0
  5 13  1  0  0  0  0
  6  9  1  0  0  0  0
  6  5  2  0  0  0  0
  7 19  1  0  0  0  0
  7 10  1  0  0  0  0
  8  3  2  0  0  0  0
  9 10  1  0  0  0  0
 11 14  1  0  0  0  0
 11 12  1  0  0  0  0
 12  1  1  0  0  0  0
 14 12  1  0  0  0  0
 14  2  1  0  0  0  0
 15 16  1  0  0  0  0
 15 19  1  0  0  0  0
 16 17  2  0  0  0  0
 18 16  2  0  0  0  0
 20 11  1  0  0  0  0
 20 21  1  0  0  0  0
 22 20  1  0  0  0  0
 23 22  1  0  0  0  0
 23 24  1  0  0  0  0
 25 22  1  0  0  0  0
 26 25  1  0  0  0  0
M  END
>  <MODEL>
9

>  <REMARK>
 VINA RESULT:      -6.2      3.596      6.740
  Name = 
  5 active torsions:
  status: ('A' for Active; 'I' for Inactive)
    1  A    between atoms: C_3  and  C_18
    2  A    between atoms: C_3  and  C_19
    3  A    between atoms: C_10  and  C_18
    4  A    between atoms: C_12  and  C_23
    5  A    between atoms: O_15  and  C_18
                            x       y       z     vdW  Elec       q    Type
                         _______ _______ _______ _____ _____    ______ ____

>  <TORSDO>
F 5

$$$$
