=
 OpenBabel11062421363D

 52 55  0  0  1  0  0  0  0  0999 V2000
  189.1190  176.2660  143.4160 O   0  0  0  0  0  0  0  0  0  0  0  0
  192.2240  173.7790  142.5210 C   0  0  2  0  0  3  0  0  0  0  0  0
  187.7300  176.8780  145.2990 C   0  0  0  0  0  2  0  0  0  0  0  0
  186.4560  176.4900  144.5400 C   0  0  2  0  0  3  0  0  0  0  0  0
  188.0380  175.6650  142.7410 C   0  0  2  0  0  3  0  0  0  0  0  0
  191.6310  174.2150  141.2170 C   0  0  0  0  0  3  0  0  0  0  0  0
  191.9880  175.9360  143.7820 C   0  0  0  0  0  2  0  0  0  0  0  0
  188.9140  176.0330  144.7910 C   0  0  2  0  0  3  0  0  0  0  0  0
  191.3570  175.4160  145.0710 C   0  0  0  0  0  2  0  0  0  0  0  0
  190.2050  176.2820  145.6070 C   0  0  1  0  0  0  0  0  0  0  0  0
  190.3390  174.2490  141.0730 C   0  0  0  0  0  0  0  0  0  0  0  0
  188.3270  175.5650  141.2520 C   0  0  0  0  0  2  0  0  0  0  0  0
  192.9690  174.9150  143.2310 C   0  0  2  0  0  3  0  0  0  0  0  0
  186.7250  176.4230  143.0200 C   0  0  2  0  0  3  0  0  0  0  0  0
  189.0360  174.2800  140.9520 C   0  0  0  0  0  0  0  0  0  0  0  0
  190.5840  177.7650  145.5590 C   0  0  0  0  0  1  0  0  0  0  0  0
  184.7590  177.0430  146.3350 C   0  0  0  0  0  2  0  0  0  0  0  0
  185.2510  177.3710  144.9040 C   0  0  1  0  0  3  0  0  0  0  0  0
  184.5980  178.2640  147.2520 C   0  0  0  0  0  2  0  0  0  0  0  0
  186.2250  179.4720  145.8830 C   0  0  0  0  0  3  0  0  0  0  0  0
  185.7640  179.1910  147.0990 C   0  0  0  0  0  0  0  0  0  0  0  0
  185.5500  178.8680  144.6880 C   0  0  0  0  0  2  0  0  0  0  0  0
  186.3570  179.7570  148.2200 O   0  0  0  0  0  1  0  0  0  0  0  0
  189.2610  174.7190  147.3460 O   0  0  0  0  0  0  0  0  0  0  0  0
  189.9880  175.8670  147.0430 C   0  0  0  0  0  0  0  0  0  0  0  0
  190.3990  176.5990  147.9850 O   0  0  0  0  0  1  0  0  0  0  0  0
  187.5890  172.4330  141.6320 C   0  0  0  0  0  2  0  0  0  0  0  0
  188.2790  173.0380  140.6700 C   0  0  0  0  0  0  0  0  0  0  0  0
  188.1850  172.4850  139.2840 C   0  0  0  0  0  2  0  0  0  0  0  0
  188.0810  173.5710  138.3250 N   0  0  0  0  0  1  0  0  0  0  0  0
  193.1190  172.5980  142.3300 C   0  0  0  0  0  3  0  0  0  0  0  0
  193.1410  171.6140  143.2300 C   0  0  0  0  0  3  0  0  0  0  0  0
  194.0370  170.4300  143.0550 C   0  0  0  0  0  2  0  0  0  0  0  0
  196.6330  171.8450  145.3360 C   0  0  0  0  0  0  0  0  0  0  0  0
  197.3610  169.6960  144.6160 N   0  0  0  0  0  0  0  0  0  0  0  0
  196.2320  169.5510  143.8750 C   0  0  0  0  0  3  0  0  0  0  0  0
  197.5830  170.8210  145.3460 C   0  0  0  0  0  3  0  0  0  0  0  0
  195.5040  171.7020  144.5930 N   0  0  0  0  0  0  0  0  0  0  0  0
  195.2810  170.5750  143.8650 C   0  0  0  0  0  0  0  0  0  0  0  0
  196.9260  174.1820  145.2420 O   0  0  0  0  0  1  0  0  0  0  0  0
  196.8600  173.0960  146.1110 C   0  0  0  0  0  2  0  0  0  0  0  0
  193.9160  175.5720  142.3390 N   0  0  0  0  0  2  0  0  0  0  0  0
  194.9880  176.0310  143.1190 N   0  0  0  0  0  2  0  0  0  0  0  0
  197.0870  177.0180  143.2550 O   0  0  0  0  0  1  0  0  0  0  0  0
  196.1450  176.6150  142.5240 C   0  0  0  0  0  0  0  0  0  0  0  0
  196.2460  176.7280  141.1430 O   0  0  0  0  0  0  0  0  0  0  0  0
  186.5730  177.6500  142.3200 O   0  0  0  0  0  0  0  0  0  0  0  0
  185.9790  177.4230  141.0670 C   0  0  0  0  0  2  0  0  0  0  0  0
  184.6680  178.1350  140.9960 C   0  0  0  0  0  0  0  0  0  0  0  0
  184.4770  178.9730  140.0800 O   0  0  0  0  0  0  0  0  0  0  0  0
  183.6680  177.9240  141.9460 O   0  0  0  0  0  0  0  0  0  0  0  0
  182.3370  178.3860  141.7640 C   0  0  0  0  0  1  0  0  0  0  0  0
  1  8  1  0  0  0  0
  2 31  1  6  0  0  0
  2 13  1  0  0  0  0
  4 18  1  0  0  0  0
  4  3  1  1  0  0  0
  5 12  1  6  0  0  0
  5 14  1  0  0  0  0
  5  1  1  0  0  0  0
  6  2  1  0  0  0  0
  7  9  1  0  0  0  0
  8  3  1  1  0  0  0
  8 10  1  0  0  0  0
  9 10  1  0  0  0  0
 10 16  1  6  0  0  0
 10 25  1  0  0  0  0
 11  6  2  0  0  0  0
 13 42  1  6  0  0  0
 13  7  1  0  0  0  0
 14 47  1  1  0  0  0
 14  4  1  0  0  0  0
 15 11  2  0  0  0  0
 15 12  1  0  0  0  0
 17 19  1  0  0  0  0
 18 22  1  1  0  0  0
 18 17  1  0  0  0  0
 20 21  2  0  0  0  0
 21 19  1  0  0  0  0
 21 23  1  0  0  0  0
 22 20  1  0  0  0  0
 25 24  2  0  0  0  0
 25 26  1  0  0  0  0
 28 15  1  0  0  0  0
 28 27  2  0  0  0  0
 29 28  1  0  0  0  0
 30 29  1  0  0  0  0
 31 32  2  0  0  0  0
 33 32  1  0  0  0  0
 33 39  1  0  0  0  0
 34 37  1  0  0  0  0
 34 41  1  0  0  0  0
 35 37  2  0  0  0  0
 36 35  1  0  0  0  0
 38 34  2  0  0  0  0
 39 36  2  0  0  0  0
 39 38  1  0  0  0  0
 40 41  1  0  0  0  0
 42 43  1  0  0  0  0
 45 43  1  0  0  0  0
 45 44  1  0  0  0  0
 46 45  2  0  0  0  0
 48 47  1  0  0  0  0
 49 48  1  0  0  0  0
 49 51  1  0  0  0  0
 50 49  2  0  0  0  0
 52 51  1  0  0  0  0
M  END
>  <MODEL>
1

>  <REMARK>
 VINA RESULT:      -7.8      0.000      0.000
  Name = 
  14 active torsions:
  status: ('A' for Active; 'I' for Inactive)
    1  A    between atoms: C_3  and  C_6
    2  A    between atoms: C_4  and  C_30
    3  A    between atoms: C_7  and  C_32
    4  A    between atoms: C_7  and  C_52
    5  A    between atoms: C_10  and  C_19
    6  A    between atoms: C_14  and  C_27
    7  A    between atoms: CA_16  and  C_42
    8  A    between atoms: C_21  and  C_23
    9  A    between atoms: C_21  and  O_24
   10  A    between atoms: C_23  and  O_36
   11  A    between atoms: N_26  and  N_28
   12  A    between atoms: N_26  and  C_34
   13  A    between atoms: C_27  and  C_44
   14  A    between atoms: O_36  and  C_38
                            x       y       z     vdW  Elec       q    Type
                         _______ _______ _______ _____ _____    ______ ____

>  <TORSDO>
F 14

$$$$
=
 OpenBabel11062421363D

 52 55  0  0  1  0  0  0  0  0999 V2000
  189.5320  176.4090  143.5540 O   0  0  0  0  0  0  0  0  0  0  0  0
  192.9040  174.2400  142.8180 C   0  0  2  0  0  3  0  0  0  0  0  0
  188.1020  177.0250  145.4060 C   0  0  0  0  0  2  0  0  0  0  0  0
  186.8750  176.4180  144.7160 C   0  0  2  0  0  3  0  0  0  0  0  0
  188.5240  175.6230  142.9630 C   0  0  2  0  0  3  0  0  0  0  0  0
  192.2470  174.4770  141.4930 C   0  0  0  0  0  3  0  0  0  0  0  0
  192.4240  176.4620  143.8800 C   0  0  0  0  0  2  0  0  0  0  0  0
  189.3740  176.2840  144.9500 C   0  0  2  0  0  3  0  0  0  0  0  0
  191.8770  175.9940  145.2270 C   0  0  0  0  0  2  0  0  0  0  0  0
  190.6350  176.7620  145.7080 C   0  0  1  0  0  0  0  0  0  0  0  0
  190.9580  174.3420  141.3780 C   0  0  0  0  0  0  0  0  0  0  0  0
  188.8040  175.4180  141.4830 C   0  0  0  0  0  2  0  0  0  0  0  0
  193.5140  175.5190  143.4030 C   0  0  2  0  0  3  0  0  0  0  0  0
  187.1320  176.2410  143.2030 C   0  0  2  0  0  3  0  0  0  0  0  0
  189.6600  174.2050  141.2860 C   0  0  0  0  0  0  0  0  0  0  0  0
  190.8310  178.2690  145.5150 C   0  0  0  0  0  1  0  0  0  0  0  0
  185.0730  176.8230  146.4470 C   0  0  0  0  0  2  0  0  0  0  0  0
  185.5770  177.1780  145.0260 C   0  0  1  0  0  3  0  0  0  0  0  0
  184.7600  178.0330  147.3360 C   0  0  0  0  0  2  0  0  0  0  0  0
  186.3030  179.3800  146.0000 C   0  0  0  0  0  3  0  0  0  0  0  0
  185.8320  179.0710  147.2050 C   0  0  0  0  0  0  0  0  0  0  0  0
  185.7330  178.6950  144.7950 C   0  0  0  0  0  2  0  0  0  0  0  0
  186.3280  179.7090  148.3350 O   0  0  0  0  0  1  0  0  0  0  0  0
  190.2400  175.1630  147.6160 O   0  0  0  0  0  0  0  0  0  0  0  0
  190.4890  176.4620  147.1800 C   0  0  0  0  0  0  0  0  0  0  0  0
  190.5140  177.3970  148.0270 O   0  0  0  0  0  1  0  0  0  0  0  0
  188.1890  172.6110  140.1620 C   0  0  0  0  0  2  0  0  0  0  0  0
  189.0560  172.8600  141.1380 C   0  0  0  0  0  0  0  0  0  0  0  0
  189.4740  171.7210  142.0130 C   0  0  0  0  0  2  0  0  0  0  0  0
  189.0820  171.9850  143.3870 N   0  0  0  0  0  1  0  0  0  0  0  0
  193.9340  173.1620  142.7150 C   0  0  0  0  0  3  0  0  0  0  0  0
  193.5680  171.8810  142.6480 C   0  0  0  0  0  3  0  0  0  0  0  0
  194.5870  170.7930  142.5520 C   0  0  0  0  0  2  0  0  0  0  0  0
  195.4380  169.7730  146.0430 C   0  0  0  0  0  0  0  0  0  0  0  0
  197.2410  171.0650  145.1800 N   0  0  0  0  0  0  0  0  0  0  0  0
  196.5830  171.2170  144.0020 C   0  0  0  0  0  3  0  0  0  0  0  0
  196.6960  170.3560  146.2040 C   0  0  0  0  0  3  0  0  0  0  0  0
  194.7760  169.9270  144.8650 N   0  0  0  0  0  0  0  0  0  0  0  0
  195.3240  170.6330  143.8400 C   0  0  0  0  0  0  0  0  0  0  0  0
  193.8200  168.1700  146.6480 O   0  0  0  0  0  1  0  0  0  0  0  0
  194.8090  169.0090  147.1550 C   0  0  0  0  0  2  0  0  0  0  0  0
  194.3640  176.1980  142.4310 N   0  0  0  0  0  2  0  0  0  0  0  0
  195.6140  176.4080  143.0310 N   0  0  0  0  0  2  0  0  0  0  0  0
  197.9030  176.0150  143.0780 O   0  0  0  0  0  1  0  0  0  0  0  0
  196.7980  175.8030  142.5150 C   0  0  0  0  0  0  0  0  0  0  0  0
  196.7380  174.9710  141.4050 O   0  0  0  0  0  0  0  0  0  0  0  0
  186.8230  177.3690  142.3970 O   0  0  0  0  0  0  0  0  0  0  0  0
  185.6360  177.1420  141.6800 C   0  0  0  0  0  2  0  0  0  0  0  0
  185.7220  177.8040  140.3440 C   0  0  0  0  0  0  0  0  0  0  0  0
  184.8340  178.6270  140.0110 O   0  0  0  0  0  0  0  0  0  0  0  0
  186.7410  177.4990  139.4400 O   0  0  0  0  0  0  0  0  0  0  0  0
  186.5280  176.6710  138.3050 C   0  0  0  0  0  1  0  0  0  0  0  0
  1  8  1  0  0  0  0
  2 31  1  6  0  0  0
  2 13  1  0  0  0  0
  4 18  1  0  0  0  0
  4  3  1  6  0  0  0
  5 12  1  6  0  0  0
  5 14  1  0  0  0  0
  5  1  1  0  0  0  0
  6  2  1  0  0  0  0
  7  9  1  0  0  0  0
  8  3  1  1  0  0  0
  8 10  1  0  0  0  0
  9 10  1  0  0  0  0
 10 16  1  6  0  0  0
 10 25  1  0  0  0  0
 11  6  2  0  0  0  0
 13 42  1  6  0  0  0
 13  7  1  0  0  0  0
 14 47  1  6  0  0  0
 14  4  1  0  0  0  0
 15 11  2  0  0  0  0
 15 12  1  0  0  0  0
 17 19  1  0  0  0  0
 18 22  1  1  0  0  0
 18 17  1  0  0  0  0
 20 21  2  0  0  0  0
 21 19  1  0  0  0  0
 21 23  1  0  0  0  0
 22 20  1  0  0  0  0
 25 24  2  0  0  0  0
 25 26  1  0  0  0  0
 27 28  2  0  0  0  0
 28 15  1  0  0  0  0
 28 29  1  0  0  0  0
 29 30  1  0  0  0  0
 32 31  2  0  0  0  0
 33 32  1  0  0  0  0
 33 39  1  0  0  0  0
 34 37  1  0  0  0  0
 34 41  1  0  0  0  0
 35 37  2  0  0  0  0
 36 35  1  0  0  0  0
 38 34  2  0  0  0  0
 39 36  2  0  0  0  0
 39 38  1  0  0  0  0
 40 41  1  0  0  0  0
 42 43  1  0  0  0  0
 45 43  1  0  0  0  0
 45 44  1  0  0  0  0
 46 45  2  0  0  0  0
 48 47  1  0  0  0  0
 49 48  1  0  0  0  0
 50 49  2  0  0  0  0
 51 49  1  0  0  0  0
 52 51  1  0  0  0  0
M  END
>  <MODEL>
2

>  <REMARK>
 VINA RESULT:      -7.4      1.686      1.957
  Name = 
  14 active torsions:
  status: ('A' for Active; 'I' for Inactive)
    1  A    between atoms: C_3  and  C_6
    2  A    between atoms: C_4  and  C_30
    3  A    between atoms: C_7  and  C_32
    4  A    between atoms: C_7  and  C_52
    5  A    between atoms: C_10  and  C_19
    6  A    between atoms: C_14  and  C_27
    7  A    between atoms: CA_16  and  C_42
    8  A    between atoms: C_21  and  C_23
    9  A    between atoms: C_21  and  O_24
   10  A    between atoms: C_23  and  O_36
   11  A    between atoms: N_26  and  N_28
   12  A    between atoms: N_26  and  C_34
   13  A    between atoms: C_27  and  C_44
   14  A    between atoms: O_36  and  C_38
                            x       y       z     vdW  Elec       q    Type
                         _______ _______ _______ _____ _____    ______ ____

>  <TORSDO>
F 14

$$$$
=
 OpenBabel11062421363D

 52 55  0  0  1  0  0  0  0  0999 V2000
  192.6980  173.2110  144.0210 O   0  0  0  0  0  0  0  0  0  0  0  0
  190.0940  176.2000  144.9710 C   0  0  2  0  0  3  0  0  0  0  0  0
  194.8680  172.9130  142.9940 C   0  0  0  0  0  2  0  0  0  0  0  0
  194.2850  171.9660  141.9380 C   0  0  2  0  0  3  0  0  0  0  0  0
  192.0430  172.5560  142.9610 C   0  0  2  0  0  3  0  0  0  0  0  0
  189.3250  174.9170  145.0520 C   0  0  0  0  0  3  0  0  0  0  0  0
  192.2780  175.3910  145.9040 C   0  0  0  0  0  2  0  0  0  0  0  0
  193.7850  173.9080  143.4530 C   0  0  2  0  0  3  0  0  0  0  0  0
  193.2330  175.9490  144.8520 C   0  0  0  0  0  2  0  0  0  0  0  0
  194.3430  174.9750  144.4240 C   0  0  1  0  0  0  0  0  0  0  0  0
  189.4760  174.0140  144.1280 C   0  0  0  0  0  0  0  0  0  0  0  0
  190.6780  172.0540  143.4040 C   0  0  0  0  0  2  0  0  0  0  0  0
  191.1120  176.3420  146.1080 C   0  0  2  0  0  3  0  0  0  0  0  0
  192.9140  171.4180  142.3940 C   0  0  2  0  0  3  0  0  0  0  0  0
  189.6450  173.1190  143.1890 C   0  0  0  0  0  0  0  0  0  0  0  0
  194.9660  174.3020  145.6510 C   0  0  0  0  0  1  0  0  0  0  0  0
  194.7930  170.1990  140.1980 C   0  0  0  0  0  2  0  0  0  0  0  0
  195.2680  170.8650  141.5130 C   0  0  1  0  0  3  0  0  0  0  0  0
  195.8610  170.1200  139.0990 C   0  0  0  0  0  2  0  0  0  0  0  0
  197.0130  172.0210  140.1190 C   0  0  0  0  0  3  0  0  0  0  0  0
  196.6140  171.4120  139.0060 C   0  0  0  0  0  0  0  0  0  0  0  0
  196.7180  171.3870  141.4450 C   0  0  0  0  0  2  0  0  0  0  0  0
  196.8960  171.9680  137.7650 O   0  0  0  0  0  1  0  0  0  0  0  0
  195.1060  176.4330  142.5130 O   0  0  0  0  0  0  0  0  0  0  0  0
  195.3930  175.8030  143.7220 C   0  0  0  0  0  0  0  0  0  0  0  0
  196.5650  175.8710  144.1840 O   0  0  0  0  0  1  0  0  0  0  0  0
  187.6780  172.8450  141.7660 C   0  0  0  0  0  2  0  0  0  0  0  0
  188.9390  173.2450  141.8930 C   0  0  0  0  0  0  0  0  0  0  0  0
  189.5840  173.9140  140.7210 C   0  0  0  0  0  2  0  0  0  0  0  0
  189.1330  173.2930  139.4880 N   0  0  0  0  0  1  0  0  0  0  0  0
  189.1680  177.3730  144.9400 C   0  0  0  0  0  3  0  0  0  0  0  0
  187.8470  177.1920  144.9520 C   0  0  0  0  0  3  0  0  0  0  0  0
  186.9100  178.3560  144.9140 C   0  0  0  0  0  2  0  0  0  0  0  0
  185.6420  177.9120  141.4290 C   0  0  0  0  0  0  0  0  0  0  0  0
  183.7870  178.3720  142.8480 N   0  0  0  0  0  0  0  0  0  0  0  0
  184.6150  178.4570  143.9210 C   0  0  0  0  0  3  0  0  0  0  0  0
  184.2700  178.1040  141.6060 C   0  0  0  0  0  3  0  0  0  0  0  0
  186.4720  178.0000  142.5020 N   0  0  0  0  0  0  0  0  0  0  0  0
  185.9880  178.2640  143.7450 C   0  0  0  0  0  0  0  0  0  0  0  0
  187.1700  176.6430  140.1630 O   0  0  0  0  0  1  0  0  0  0  0  0
  186.2000  177.6380  140.0770 C   0  0  0  0  0  2  0  0  0  0  0  0
  190.4970  176.0990  147.4080 N   0  0  0  0  0  2  0  0  0  0  0  0
  191.3140  176.6910  148.3820 N   0  0  0  0  0  2  0  0  0  0  0  0
  191.7430  178.4550  149.8320 O   0  0  0  0  0  1  0  0  0  0  0  0
  190.9890  177.9540  148.9590 C   0  0  0  0  0  0  0  0  0  0  0  0
  189.8520  178.6420  148.5520 O   0  0  0  0  0  0  0  0  0  0  0  0
  192.9640  170.2400  143.1860 O   0  0  0  0  0  0  0  0  0  0  0  0
  193.5250  170.5230  144.4430 C   0  0  0  0  0  2  0  0  0  0  0  0
  194.0820  169.2710  145.0370 C   0  0  0  0  0  0  0  0  0  0  0  0
  193.3000  168.3320  145.3270 O   0  0  0  0  0  0  0  0  0  0  0  0
  195.4420  169.1360  145.3180 O   0  0  0  0  0  0  0  0  0  0  0  0
  195.9460  169.1130  146.6470 C   0  0  0  0  0  1  0  0  0  0  0  0
  2 31  1  1  0  0  0
  2  6  1  0  0  0  0
  2 13  1  0  0  0  0
  4 14  1  0  0  0  0
  4  3  1  1  0  0  0
  5 12  1  1  0  0  0
  5  1  1  0  0  0  0
  7 13  1  0  0  0  0
  8  3  1  1  0  0  0
  8  1  1  0  0  0  0
  8 10  1  0  0  0  0
  9  7  1  0  0  0  0
 10  9  1  0  0  0  0
 10 16  1  1  0  0  0
 11  6  2  0  0  0  0
 13 42  1  1  0  0  0
 14  5  1  0  0  0  0
 14 47  1  1  0  0  0
 15 12  1  0  0  0  0
 15 11  2  0  0  0  0
 18 17  1  6  0  0  0
 18  4  1  0  0  0  0
 19 17  1  0  0  0  0
 20 22  1  0  0  0  0
 21 19  1  0  0  0  0
 21 20  2  0  0  0  0
 22 18  1  0  0  0  0
 23 21  1  0  0  0  0
 24 25  2  0  0  0  0
 25 26  1  0  0  0  0
 25 10  1  0  0  0  0
 27 28  2  0  0  0  0
 28 15  1  0  0  0  0
 29 28  1  0  0  0  0
 30 29  1  0  0  0  0
 31 32  2  0  0  0  0
 33 32  1  0  0  0  0
 34 37  2  0  0  0  0
 34 38  1  0  0  0  0
 35 36  2  0  0  0  0
 37 35  1  0  0  0  0
 38 39  2  0  0  0  0
 39 36  1  0  0  0  0
 39 33  1  0  0  0  0
 41 40  1  0  0  0  0
 41 34  1  0  0  0  0
 42 43  1  0  0  0  0
 43 45  1  0  0  0  0
 45 44  1  0  0  0  0
 46 45  2  0  0  0  0
 47 48  1  0  0  0  0
 48 49  1  0  0  0  0
 49 51  1  0  0  0  0
 49 50  2  0  0  0  0
 51 52  1  0  0  0  0
M  END
>  <MODEL>
3

>  <REMARK>
 VINA RESULT:      -7.1      3.217     10.080
  Name = 
  14 active torsions:
  status: ('A' for Active; 'I' for Inactive)
    1  A    between atoms: C_3  and  C_6
    2  A    between atoms: C_4  and  C_30
    3  A    between atoms: C_7  and  C_32
    4  A    between atoms: C_7  and  C_52
    5  A    between atoms: C_10  and  C_19
    6  A    between atoms: C_14  and  C_27
    7  A    between atoms: CA_16  and  C_42
    8  A    between atoms: C_21  and  C_23
    9  A    between atoms: C_21  and  O_24
   10  A    between atoms: C_23  and  O_36
   11  A    between atoms: N_26  and  N_28
   12  A    between atoms: N_26  and  C_34
   13  A    between atoms: C_27  and  C_44
   14  A    between atoms: O_36  and  C_38
                            x       y       z     vdW  Elec       q    Type
                         _______ _______ _______ _____ _____    ______ ____

>  <TORSDO>
F 14

$$$$
=
 OpenBabel11062421363D

 52 55  0  0  1  0  0  0  0  0999 V2000
  193.1080  173.7440  143.2770 O   0  0  0  0  0  0  0  0  0  0  0  0
  190.1800  176.5780  143.1430 C   0  0  2  0  0  3  0  0  0  0  0  0
  195.3780  173.4000  142.5160 C   0  0  0  0  0  2  0  0  0  0  0  0
  194.9760  172.1320  141.7530 C   0  0  2  0  0  3  0  0  0  0  0  0
  192.6090  172.7440  142.4200 C   0  0  2  0  0  3  0  0  0  0  0  0
  189.5210  175.2970  143.5530 C   0  0  0  0  0  3  0  0  0  0  0  0
  192.3340  176.3140  144.4040 C   0  0  0  0  0  2  0  0  0  0  0  0
  194.1770  174.3620  142.5950 C   0  0  2  0  0  3  0  0  0  0  0  0
  193.3280  176.6460  143.2920 C   0  0  0  0  0  2  0  0  0  0  0  0
  194.5520  175.7180  143.2390 C   0  0  1  0  0  0  0  0  0  0  0  0
  189.8310  174.1880  142.9480 C   0  0  0  0  0  0  0  0  0  0  0  0
  191.2580  172.2460  142.9090 C   0  0  0  0  0  2  0  0  0  0  0  0
  191.0770  177.1520  144.2460 C   0  0  2  0  0  3  0  0  0  0  0  0
  193.6230  171.5930  142.2680 C   0  0  2  0  0  3  0  0  0  0  0  0
  190.1610  173.0850  142.3280 C   0  0  0  0  0  0  0  0  0  0  0  0
  195.1180  175.4990  144.6450 C   0  0  0  0  0  1  0  0  0  0  0  0
  195.7890  170.0060  140.6460 C   0  0  0  0  0  2  0  0  0  0  0  0
  196.0840  171.0700  141.7330 C   0  0  1  0  0  3  0  0  0  0  0  0
  196.9540  169.7320  139.6860 C   0  0  0  0  0  2  0  0  0  0  0  0
  197.8410  171.9590  140.1680 C   0  0  0  0  0  3  0  0  0  0  0  0
  197.5980  171.0170  139.2620 C   0  0  0  0  0  0  0  0  0  0  0  0
  197.4840  171.7040  141.6020 C   0  0  0  0  0  2  0  0  0  0  0  0
  197.9410  171.2190  137.9320 O   0  0  0  0  0  1  0  0  0  0  0  0
  196.7720  176.8770  142.9500 O   0  0  0  0  0  1  0  0  0  0  0  0
  195.5840  176.4170  142.3880 C   0  0  0  0  0  0  0  0  0  0  0  0
  195.3480  176.6610  141.1720 O   0  0  0  0  0  0  0  0  0  0  0  0
  188.2480  172.7990  140.8340 C   0  0  0  0  0  2  0  0  0  0  0  0
  189.5650  172.7550  141.0110 C   0  0  0  0  0  0  0  0  0  0  0  0
  190.4240  172.4630  139.8230 C   0  0  0  0  0  2  0  0  0  0  0  0
  190.5270  171.0270  139.6290 N   0  0  0  0  0  1  0  0  0  0  0  0
  189.1640  177.5840  142.7120 C   0  0  0  0  0  3  0  0  0  0  0  0
  187.8650  177.2820  142.7250 C   0  0  0  0  0  3  0  0  0  0  0  0
  186.8380  178.2760  142.2900 C   0  0  0  0  0  2  0  0  0  0  0  0
  185.3570  178.8630  145.6680 C   0  0  0  0  0  0  0  0  0  0  0  0
  183.5990  178.9020  144.0630 N   0  0  0  0  0  0  0  0  0  0  0  0
  184.4910  178.6710  143.0660 C   0  0  0  0  0  3  0  0  0  0  0  0
  184.0020  179.0010  145.3580 C   0  0  0  0  0  3  0  0  0  0  0  0
  186.2500  178.6280  144.6700 N   0  0  0  0  0  0  0  0  0  0  0  0
  185.8470  178.5330  143.3750 C   0  0  0  0  0  0  0  0  0  0  0  0
  185.8560  177.6730  147.6400 O   0  0  0  0  0  1  0  0  0  0  0  0
  185.8230  178.9470  147.0790 C   0  0  0  0  0  2  0  0  0  0  0  0
  190.3720  177.2270  145.5210 N   0  0  0  0  0  2  0  0  0  0  0  0
  191.1740  176.6030  146.4880 N   0  0  0  0  0  2  0  0  0  0  0  0
  191.3900  175.0850  148.2330 O   0  0  0  0  0  1  0  0  0  0  0  0
  190.6410  175.6260  147.3790 C   0  0  0  0  0  0  0  0  0  0  0  0
  189.2970  175.2780  147.3210 O   0  0  0  0  0  0  0  0  0  0  0  0
  193.7030  170.7050  143.3740 O   0  0  0  0  0  0  0  0  0  0  0  0
  194.0810  171.4060  144.5320 C   0  0  0  0  0  2  0  0  0  0  0  0
  195.0210  170.5720  145.3390 C   0  0  0  0  0  0  0  0  0  0  0  0
  194.5670  169.8810  146.2850 O   0  0  0  0  0  0  0  0  0  0  0  0
  196.3950  170.5740  145.0960 O   0  0  0  0  0  0  0  0  0  0  0  0
  197.2840  169.6780  145.7480 C   0  0  0  0  0  1  0  0  0  0  0  0
  2 31  1  1  0  0  0
  2  6  1  0  0  0  0
  2 13  1  0  0  0  0
  4 14  1  0  0  0  0
  4  3  1  1  0  0  0
  5 12  1  1  0  0  0
  5  1  1  0  0  0  0
  8  3  1  1  0  0  0
  8 10  1  0  0  0  0
  8  1  1  0  0  0  0
  9  7  1  0  0  0  0
 10  9  1  0  0  0  0
 10 16  1  1  0  0  0
 11  6  2  0  0  0  0
 13  7  1  0  0  0  0
 13 42  1  1  0  0  0
 14  5  1  0  0  0  0
 14 47  1  1  0  0  0
 15 12  1  0  0  0  0
 15 11  2  0  0  0  0
 18 17  1  6  0  0  0
 18  4  1  0  0  0  0
 19 17  1  0  0  0  0
 20 22  1  0  0  0  0
 21 19  1  0  0  0  0
 21 20  2  0  0  0  0
 22 18  1  0  0  0  0
 23 21  1  0  0  0  0
 25 24  1  0  0  0  0
 25 10  1  0  0  0  0
 26 25  2  0  0  0  0
 27 28  2  0  0  0  0
 28 15  1  0  0  0  0
 29 28  1  0  0  0  0
 30 29  1  0  0  0  0
 31 32  2  0  0  0  0
 33 32  1  0  0  0  0
 33 39  1  0  0  0  0
 34 41  1  0  0  0  0
 35 37  2  0  0  0  0
 36 39  2  0  0  0  0
 36 35  1  0  0  0  0
 37 34  1  0  0  0  0
 38 34  2  0  0  0  0
 39 38  1  0  0  0  0
 41 40  1  0  0  0  0
 42 43  1  0  0  0  0
 43 45  1  0  0  0  0
 45 44  1  0  0  0  0
 46 45  2  0  0  0  0
 47 48  1  0  0  0  0
 48 49  1  0  0  0  0
 49 50  2  0  0  0  0
 51 49  1  0  0  0  0
 51 52  1  0  0  0  0
M  END
>  <MODEL>
4

>  <REMARK>
 VINA RESULT:      -7.1      3.171     10.274
  Name = 
  14 active torsions:
  status: ('A' for Active; 'I' for Inactive)
    1  A    between atoms: C_3  and  C_6
    2  A    between atoms: C_4  and  C_30
    3  A    between atoms: C_7  and  C_32
    4  A    between atoms: C_7  and  C_52
    5  A    between atoms: C_10  and  C_19
    6  A    between atoms: C_14  and  C_27
    7  A    between atoms: CA_16  and  C_42
    8  A    between atoms: C_21  and  C_23
    9  A    between atoms: C_21  and  O_24
   10  A    between atoms: C_23  and  O_36
   11  A    between atoms: N_26  and  N_28
   12  A    between atoms: N_26  and  C_34
   13  A    between atoms: C_27  and  C_44
   14  A    between atoms: O_36  and  C_38
                            x       y       z     vdW  Elec       q    Type
                         _______ _______ _______ _____ _____    ______ ____

>  <TORSDO>
F 14

$$$$
=
 OpenBabel11062421363D

 52 55  0  0  1  0  0  0  0  0999 V2000
  189.1590  176.2880  143.5390 O   0  0  0  0  0  0  0  0  0  0  0  0
  192.2360  173.8270  142.4910 C   0  0  2  0  0  3  0  0  0  0  0  0
  187.8710  176.9010  145.4930 C   0  0  0  0  0  2  0  0  0  0  0  0
  186.5610  176.4930  144.8090 C   0  0  2  0  0  3  0  0  0  0  0  0
  188.0490  175.6700  142.9310 C   0  0  2  0  0  3  0  0  0  0  0  0
  191.5670  174.2450  141.2180 C   0  0  0  0  0  3  0  0  0  0  0  0
  192.0480  175.9920  143.7450 C   0  0  0  0  0  2  0  0  0  0  0  0
  189.0340  176.0640  144.9260 C   0  0  2  0  0  3  0  0  0  0  0  0
  191.4960  175.4760  145.0720 C   0  0  0  0  0  2  0  0  0  0  0  0
  190.3660  176.3340  145.6650 C   0  0  1  0  0  0  0  0  0  0  0  0
  190.2680  174.2650  141.1470 C   0  0  0  0  0  0  0  0  0  0  0  0
  188.2550  175.5600  141.4290 C   0  0  0  0  0  2  0  0  0  0  0  0
  193.0070  174.9760  143.1490 C   0  0  2  0  0  3  0  0  0  0  0  0
  186.7460  176.4160  143.2770 C   0  0  2  0  0  3  0  0  0  0  0  0
  188.9600  174.2800  141.0990 C   0  0  0  0  0  0  0  0  0  0  0  0
  190.7260  177.8210  145.5840 C   0  0  0  0  0  1  0  0  0  0  0  0
  184.9050  176.9810  146.6610 C   0  0  0  0  0  2  0  0  0  0  0  0
  185.3690  177.3640  145.2340 C   0  0  1  0  0  3  0  0  0  0  0  0
  184.7690  178.1640  147.6290 C   0  0  0  0  0  2  0  0  0  0  0  0
  186.3750  179.4190  146.2780 C   0  0  0  0  0  3  0  0  0  0  0  0
  185.9370  179.0910  147.4900 C   0  0  0  0  0  0  0  0  0  0  0  0
  185.6720  178.8680  145.0730 C   0  0  0  0  0  2  0  0  0  0  0  0
  186.5560  179.6080  148.6210 O   0  0  0  0  0  1  0  0  0  0  0  0
  189.5290  174.7830  147.4680 O   0  0  0  0  0  0  0  0  0  0  0  0
  190.2350  175.9290  147.1140 C   0  0  0  0  0  0  0  0  0  0  0  0
  190.7000  176.6670  148.0260 O   0  0  0  0  0  1  0  0  0  0  0  0
  187.4470  172.5080  141.8330 C   0  0  0  0  0  2  0  0  0  0  0  0
  188.2020  173.0280  140.8700 C   0  0  0  0  0  0  0  0  0  0  0  0
  188.1820  172.3680  139.5280 C   0  0  0  0  0  2  0  0  0  0  0  0
  188.1920  173.3750  138.4820 N   0  0  0  0  0  1  0  0  0  0  0  0
  193.1320  172.6540  142.2590 C   0  0  0  0  0  3  0  0  0  0  0  0
  193.2200  172.0990  141.0500 C   0  0  0  0  0  3  0  0  0  0  0  0
  194.1070  170.9210  140.8050 C   0  0  0  0  0  2  0  0  0  0  0  0
  191.6150  169.2000  138.6200 C   0  0  0  0  0  0  0  0  0  0  0  0
  193.7560  168.2440  138.2100 N   0  0  0  0  0  0  0  0  0  0  0  0
  194.3150  169.0800  139.1230 C   0  0  0  0  0  3  0  0  0  0  0  0
  192.4230  168.2840  137.9440 C   0  0  0  0  0  3  0  0  0  0  0  0
  192.1730  170.0350  139.5360 N   0  0  0  0  0  0  0  0  0  0  0  0
  193.5070  169.9980  139.7980 C   0  0  0  0  0  0  0  0  0  0  0  0
  189.8930  170.0760  137.2700 O   0  0  0  0  0  1  0  0  0  0  0  0
  190.1500  169.2510  138.3620 C   0  0  0  0  0  2  0  0  0  0  0  0
  193.8960  175.6360  142.1990 N   0  0  0  0  0  2  0  0  0  0  0  0
  195.2010  175.1930  142.4590 N   0  0  0  0  0  2  0  0  0  0  0  0
  197.1610  175.3550  143.6960 O   0  0  0  0  0  0  0  0  0  0  0  0
  195.9940  175.7790  143.4890 C   0  0  0  0  0  0  0  0  0  0  0  0
  195.4940  176.8230  144.2560 O   0  0  0  0  0  1  0  0  0  0  0  0
  186.5400  177.6350  142.5780 O   0  0  0  0  0  0  0  0  0  0  0  0
  185.2030  177.7350  142.1590 C   0  0  0  0  0  2  0  0  0  0  0  0
  185.1550  178.0960  140.7110 C   0  0  0  0  0  0  0  0  0  0  0  0
  186.1790  177.9220  140.0040 O   0  0  0  0  0  0  0  0  0  0  0  0
  184.0170  178.6620  140.1340 O   0  0  0  0  0  0  0  0  0  0  0  0
  182.7030  178.2870  140.5210 C   0  0  0  0  0  1  0  0  0  0  0  0
  1  8  1  0  0  0  0
  2 31  1  6  0  0  0
  2 13  1  0  0  0  0
  4 18  1  0  0  0  0
  4  3  1  1  0  0  0
  5 12  1  6  0  0  0
  5 14  1  0  0  0  0
  5  1  1  0  0  0  0
  6  2  1  0  0  0  0
  7  9  1  0  0  0  0
  8  3  1  1  0  0  0
  8 10  1  0  0  0  0
  9 10  1  0  0  0  0
 10 16  1  6  0  0  0
 10 25  1  0  0  0  0
 11  6  2  0  0  0  0
 13 42  1  6  0  0  0
 13  7  1  0  0  0  0
 14 47  1  1  0  0  0
 14  4  1  0  0  0  0
 15 11  2  0  0  0  0
 15 12  1  0  0  0  0
 17 19  1  0  0  0  0
 18 22  1  1  0  0  0
 18 17  1  0  0  0  0
 20 21  2  0  0  0  0
 21 19  1  0  0  0  0
 21 23  1  0  0  0  0
 22 20  1  0  0  0  0
 25 24  2  0  0  0  0
 25 26  1  0  0  0  0
 28 15  1  0  0  0  0
 28 27  2  0  0  0  0
 29 28  1  0  0  0  0
 30 29  1  0  0  0  0
 32 31  2  0  0  0  0
 33 32  1  0  0  0  0
 34 38  1  0  0  0  0
 35 36  2  0  0  0  0
 36 39  1  0  0  0  0
 37 35  1  0  0  0  0
 37 34  2  0  0  0  0
 38 39  2  0  0  0  0
 39 33  1  0  0  0  0
 40 41  1  0  0  0  0
 41 34  1  0  0  0  0
 42 43  1  0  0  0  0
 43 45  1  0  0  0  0
 45 44  2  0  0  0  0
 45 46  1  0  0  0  0
 48 47  1  0  0  0  0
 49 48  1  0  0  0  0
 50 49  2  0  0  0  0
 51 52  1  0  0  0  0
 51 49  1  0  0  0  0
M  END
>  <MODEL>
5

>  <REMARK>
 VINA RESULT:      -7.0      2.362      3.390
  Name = 
  14 active torsions:
  status: ('A' for Active; 'I' for Inactive)
    1  A    between atoms: C_3  and  C_6
    2  A    between atoms: C_4  and  C_30
    3  A    between atoms: C_7  and  C_32
    4  A    between atoms: C_7  and  C_52
    5  A    between atoms: C_10  and  C_19
    6  A    between atoms: C_14  and  C_27
    7  A    between atoms: CA_16  and  C_42
    8  A    between atoms: C_21  and  C_23
    9  A    between atoms: C_21  and  O_24
   10  A    between atoms: C_23  and  O_36
   11  A    between atoms: N_26  and  N_28
   12  A    between atoms: N_26  and  C_34
   13  A    between atoms: C_27  and  C_44
   14  A    between atoms: O_36  and  C_38
                            x       y       z     vdW  Elec       q    Type
                         _______ _______ _______ _____ _____    ______ ____

>  <TORSDO>
F 14

$$$$
=
 OpenBabel11062421363D

 52 55  0  0  1  0  0  0  0  0999 V2000
  190.1910  173.9570  143.0870 O   0  0  0  0  0  0  0  0  0  0  0  0
  193.3140  173.0690  140.6200 C   0  0  2  0  0  3  0  0  0  0  0  0
  188.1150  175.1990  143.0600 C   0  0  0  0  0  2  0  0  0  0  0  0
  188.5610  176.0500  144.2560 C   0  0  2  0  0  3  0  0  0  0  0  0
  190.7740  174.8390  144.0170 C   0  0  2  0  0  3  0  0  0  0  0  0
  193.7560  172.7370  142.0110 C   0  0  0  0  0  3  0  0  0  0  0  0
  190.9250  172.3200  140.7940 C   0  0  0  0  0  2  0  0  0  0  0  0
  189.3510  174.7360  142.2650 C   0  0  2  0  0  3  0  0  0  0  0  0
  190.2250  173.5430  140.2060 C   0  0  0  0  0  2  0  0  0  0  0  0
  188.9650  173.9810  140.9710 C   0  0  1  0  0  0  0  0  0  0  0  0
  193.4880  173.5540  142.9880 C   0  0  0  0  0  0  0  0  0  0  0  0
  191.9400  174.1730  144.7280 C   0  0  0  0  0  2  0  0  0  0  0  0
  192.2550  172.0930  140.0960 C   0  0  2  0  0  3  0  0  0  0  0  0
  189.7200  175.3640  145.0120 C   0  0  2  0  0  3  0  0  0  0  0  0
  193.2050  174.3880  143.9550 C   0  0  0  0  0  0  0  0  0  0  0  0
  188.0940  172.7660  141.3050 C   0  0  0  0  0  1  0  0  0  0  0  0
  187.6770  177.8280  145.8260 C   0  0  0  0  0  2  0  0  0  0  0  0
  187.3940  176.4540  145.1700 C   0  0  1  0  0  3  0  0  0  0  0  0
  186.5430  178.8510  145.6820 C   0  0  0  0  0  2  0  0  0  0  0  0
  185.7650  177.6680  143.6880 C   0  0  0  0  0  3  0  0  0  0  0  0
  185.9950  178.8320  144.2880 C   0  0  0  0  0  0  0  0  0  0  0  0
  186.0410  176.3960  144.4320 C   0  0  0  0  0  2  0  0  0  0  0  0
  185.7240  180.0240  143.6280 O   0  0  0  0  0  1  0  0  0  0  0  0
  187.7650  176.1470  140.4980 O   0  0  0  0  0  1  0  0  0  0  0  0
  188.2040  174.9040  140.0500 C   0  0  0  0  0  0  0  0  0  0  0  0
  187.8900  174.5270  138.8870 O   0  0  0  0  0  0  0  0  0  0  0  0
  194.1060  176.1590  145.3770 C   0  0  0  0  0  2  0  0  0  0  0  0
  194.0380  175.5940  144.1760 C   0  0  0  0  0  0  0  0  0  0  0  0
  194.9010  176.1500  143.0880 C   0  0  0  0  0  2  0  0  0  0  0  0
  196.2940  175.8380  143.3540 N   0  0  0  0  0  1  0  0  0  0  0  0
  194.4820  173.1310  139.6910 C   0  0  0  0  0  3  0  0  0  0  0  0
  195.0540  174.3000  139.3990 C   0  0  0  0  0  3  0  0  0  0  0  0
  196.2190  174.3760  138.4660 C   0  0  0  0  0  2  0  0  0  0  0  0
  194.3270  176.3400  135.9150 C   0  0  0  0  0  0  0  0  0  0  0  0
  196.6490  176.5200  135.4260 N   0  0  0  0  0  0  0  0  0  0  0  0
  196.9450  175.7350  136.4940 C   0  0  0  0  0  3  0  0  0  0  0  0
  195.3620  176.8330  135.1190 C   0  0  0  0  0  3  0  0  0  0  0  0
  194.6220  175.5510  136.9820 N   0  0  0  0  0  0  0  0  0  0  0  0
  195.9090  175.2420  137.2910 C   0  0  0  0  0  0  0  0  0  0  0  0
  192.7880  177.9970  135.2520 O   0  0  0  0  0  1  0  0  0  0  0  0
  192.9080  176.6520  135.5890 C   0  0  0  0  0  2  0  0  0  0  0  0
  192.6740  170.7070  140.2710 N   0  0  0  0  0  2  0  0  0  0  0  0
  192.6020  170.0790  139.0190 N   0  0  0  0  0  2  0  0  0  0  0  0
  191.4870  168.6680  137.5480 O   0  0  0  0  0  0  0  0  0  0  0  0
  191.5200  169.2130  138.6810 C   0  0  0  0  0  0  0  0  0  0  0  0
  190.5110  168.9550  139.6010 O   0  0  0  0  0  1  0  0  0  0  0  0
  189.3290  174.4450  146.0220 O   0  0  0  0  0  0  0  0  0  0  0  0
  189.2400  175.0970  147.2640 C   0  0  0  0  0  2  0  0  0  0  0  0
  190.5660  175.6840  147.6190 C   0  0  0  0  0  0  0  0  0  0  0  0
  191.5250  174.9150  147.8800 O   0  0  0  0  0  0  0  0  0  0  0  0
  190.7560  177.0640  147.7090 O   0  0  0  0  0  0  0  0  0  0  0  0
  191.4110  177.6710  148.8140 C   0  0  0  0  0  1  0  0  0  0  0  0
  1  5  1  0  0  0  0
  2 31  1  6  0  0  0
  2  6  1  0  0  0  0
  4  3  1  6  0  0  0
  4 14  1  0  0  0  0
  4 18  1  0  0  0  0
  5 12  1  1  0  0  0
  5 14  1  0  0  0  0
  6 11  2  0  0  0  0
  8  3  1  1  0  0  0
  8  1  1  0  0  0  0
  9  7  1  0  0  0  0
  9 10  1  0  0  0  0
 10 16  1  1  0  0  0
 10  8  1  0  0  0  0
 11 15  2  0  0  0  0
 13 42  1  1  0  0  0
 13  2  1  0  0  0  0
 13  7  1  0  0  0  0
 14 47  1  6  0  0  0
 15 28  1  0  0  0  0
 15 12  1  0  0  0  0
 18 22  1  6  0  0  0
 18 17  1  0  0  0  0
 19 17  1  0  0  0  0
 20 21  2  0  0  0  0
 20 22  1  0  0  0  0
 21 19  1  0  0  0  0
 23 21  1  0  0  0  0
 25 24  1  0  0  0  0
 25 10  1  0  0  0  0
 26 25  2  0  0  0  0
 28 27  2  0  0  0  0
 29 30  1  0  0  0  0
 29 28  1  0  0  0  0
 32 31  2  0  0  0  0
 33 32  1  0  0  0  0
 34 38  1  0  0  0  0
 35 36  2  0  0  0  0
 36 39  1  0  0  0  0
 37 35  1  0  0  0  0
 37 34  2  0  0  0  0
 38 39  2  0  0  0  0
 39 33  1  0  0  0  0
 40 41  1  0  0  0  0
 41 34  1  0  0  0  0
 43 42  1  0  0  0  0
 44 45  2  0  0  0  0
 45 43  1  0  0  0  0
 45 46  1  0  0  0  0
 47 48  1  0  0  0  0
 48 49  1  0  0  0  0
 49 51  1  0  0  0  0
 49 50  2  0  0  0  0
 51 52  1  0  0  0  0
M  END
>  <MODEL>
6

>  <REMARK>
 VINA RESULT:      -6.9      3.769      7.243
  Name = 
  14 active torsions:
  status: ('A' for Active; 'I' for Inactive)
    1  A    between atoms: C_3  and  C_6
    2  A    between atoms: C_4  and  C_30
    3  A    between atoms: C_7  and  C_32
    4  A    between atoms: C_7  and  C_52
    5  A    between atoms: C_10  and  C_19
    6  A    between atoms: C_14  and  C_27
    7  A    between atoms: CA_16  and  C_42
    8  A    between atoms: C_21  and  C_23
    9  A    between atoms: C_21  and  O_24
   10  A    between atoms: C_23  and  O_36
   11  A    between atoms: N_26  and  N_28
   12  A    between atoms: N_26  and  C_34
   13  A    between atoms: C_27  and  C_44
   14  A    between atoms: O_36  and  C_38
                            x       y       z     vdW  Elec       q    Type
                         _______ _______ _______ _____ _____    ______ ____

>  <TORSDO>
F 14

$$$$
=
 OpenBabel11062421363D

 52 55  0  0  1  0  0  0  0  0999 V2000
  194.2330  173.0260  140.6610 O   0  0  0  0  0  0  0  0  0  0  0  0
  192.4540  173.6370  144.2780 C   0  0  2  0  0  3  0  0  0  0  0  0
  195.7610  174.1320  139.1470 C   0  0  0  0  0  2  0  0  0  0  0  0
  194.7330  174.0880  138.0100 C   0  0  2  0  0  3  0  0  0  0  0  0
  193.1570  173.1580  139.7620 C   0  0  2  0  0  3  0  0  0  0  0  0
  191.7050  172.5250  143.6120 C   0  0  0  0  0  3  0  0  0  0  0  0
  194.7700  173.0370  143.5220 C   0  0  0  0  0  2  0  0  0  0  0  0
  195.0320  174.1770  140.5030 C   0  0  2  0  0  3  0  0  0  0  0  0
  195.2420  174.4000  143.0200 C   0  0  0  0  0  2  0  0  0  0  0  0
  196.0100  174.3540  141.6890 C   0  0  1  0  0  0  0  0  0  0  0  0
  191.4010  172.6150  142.3510 C   0  0  0  0  0  0  0  0  0  0  0  0
  192.0660  172.1480  140.0810 C   0  0  0  0  0  2  0  0  0  0  0  0
  193.8570  173.2100  144.7230 C   0  0  2  0  0  3  0  0  0  0  0  0
  193.6400  173.0360  138.3030 C   0  0  2  0  0  3  0  0  0  0  0  0
  191.1090  172.7250  141.0800 C   0  0  0  0  0  0  0  0  0  0  0  0
  197.0370  173.2180  141.7040 C   0  0  0  0  0  1  0  0  0  0  0  0
  194.5380  174.6500  135.5490 C   0  0  0  0  0  2  0  0  0  0  0  0
  195.3800  173.9210  136.6260 C   0  0  1  0  0  3  0  0  0  0  0  0
  195.3380  175.6020  134.6490 C   0  0  0  0  0  2  0  0  0  0  0  0
  197.0160  175.8190  136.4140 C   0  0  0  0  0  3  0  0  0  0  0  0
  196.2980  176.4120  135.4650 C   0  0  0  0  0  0  0  0  0  0  0  0
  196.8630  174.3430  136.6320 C   0  0  0  0  0  2  0  0  0  0  0  0
  196.4400  177.7730  135.2280 O   0  0  0  0  0  1  0  0  0  0  0  0
  196.1260  176.7510  140.9150 O   0  0  0  0  0  0  0  0  0  0  0  0
  196.7290  175.6760  141.5630 C   0  0  0  0  0  0  0  0  0  0  0  0
  197.9140  175.7980  141.9780 O   0  0  0  0  0  1  0  0  0  0  0  0
  189.4310  174.4640  141.4330 C   0  0  0  0  0  2  0  0  0  0  0  0
  189.9410  173.5260  140.6430 C   0  0  0  0  0  0  0  0  0  0  0  0
  189.3670  173.3740  139.2710 C   0  0  0  0  0  2  0  0  0  0  0  0
  188.1600  172.5680  139.3270 N   0  0  0  0  0  1  0  0  0  0  0  0
  191.6780  174.1850  145.4310 C   0  0  0  0  0  3  0  0  0  0  0  0
  190.3470  174.2470  145.3820 C   0  0  0  0  0  3  0  0  0  0  0  0
  189.5580  174.7990  146.5250 C   0  0  0  0  0  2  0  0  0  0  0  0
  186.8740  177.3960  146.4970 C   0  0  0  0  0  0  0  0  0  0  0  0
  187.9960  177.4570  144.3990 N   0  0  0  0  0  0  0  0  0  0  0  0
  188.8170  176.4510  144.7970 C   0  0  0  0  0  3  0  0  0  0  0  0
  187.0270  177.9410  145.2210 C   0  0  0  0  0  3  0  0  0  0  0  0
  187.6940  176.3870  146.8960 N   0  0  0  0  0  0  0  0  0  0  0  0
  188.6650  175.9060  146.0750 C   0  0  0  0  0  0  0  0  0  0  0  0
  185.1990  179.0150  146.8540 O   0  0  0  0  0  1  0  0  0  0  0  0
  185.8090  177.8940  147.4100 C   0  0  0  0  0  2  0  0  0  0  0  0
  193.8190  171.9730  145.4960 N   0  0  0  0  0  2  0  0  0  0  0  0
  195.1430  171.5980  145.7650 N   0  0  0  0  0  2  0  0  0  0  0  0
  196.6780  169.9600  146.3650 O   0  0  0  0  0  1  0  0  0  0  0  0
  195.4780  170.2620  146.1330 C   0  0  0  0  0  0  0  0  0  0  0  0
  194.4880  169.2940  146.2510 O   0  0  0  0  0  0  0  0  0  0  0  0
  193.9330  171.7160  137.8690 O   0  0  0  0  0  0  0  0  0  0  0  0
  193.0560  171.3370  136.8390 C   0  0  0  0  0  2  0  0  0  0  0  0
  192.4510  170.0090  137.1560 C   0  0  0  0  0  0  0  0  0  0  0  0
  193.1580  169.1340  137.7150 O   0  0  0  0  0  0  0  0  0  0  0  0
  191.1350  169.7030  136.8100 O   0  0  0  0  0  0  0  0  0  0  0  0
  190.0810  169.6900  137.7620 C   0  0  0  0  0  1  0  0  0  0  0  0
  2 13  1  0  0  0  0
  2 31  1  1  0  0  0
  4 14  1  0  0  0  0
  4  3  1  1  0  0  0
  5 12  1  1  0  0  0
  5  1  1  0  0  0  0
  6  2  1  0  0  0  0
  7 13  1  0  0  0  0
  8  3  1  6  0  0  0
  8  1  1  0  0  0  0
  8 10  1  0  0  0  0
  9  7  1  0  0  0  0
 10 16  1  1  0  0  0
 10  9  1  0  0  0  0
 11  6  2  0  0  0  0
 12 15  1  0  0  0  0
 13 42  1  6  0  0  0
 14 47  1  1  0  0  0
 14  5  1  0  0  0  0
 15 11  2  0  0  0  0
 18 17  1  6  0  0  0
 18 22  1  0  0  0  0
 18  4  1  0  0  0  0
 19 21  1  0  0  0  0
 19 17  1  0  0  0  0
 20 22  1  0  0  0  0
 21 20  2  0  0  0  0
 23 21  1  0  0  0  0
 24 25  2  0  0  0  0
 25 10  1  0  0  0  0
 25 26  1  0  0  0  0
 28 15  1  0  0  0  0
 28 27  2  0  0  0  0
 29 30  1  0  0  0  0
 29 28  1  0  0  0  0
 32 31  2  0  0  0  0
 32 33  1  0  0  0  0
 34 38  1  0  0  0  0
 34 41  1  0  0  0  0
 35 36  2  0  0  0  0
 35 37  1  0  0  0  0
 36 39  1  0  0  0  0
 37 34  2  0  0  0  0
 39 33  1  0  0  0  0
 39 38  2  0  0  0  0
 40 41  1  0  0  0  0
 42 43  1  0  0  0  0
 43 45  1  0  0  0  0
 45 46  2  0  0  0  0
 45 44  1  0  0  0  0
 48 49  1  0  0  0  0
 48 47  1  0  0  0  0
 49 50  2  0  0  0  0
 51 49  1  0  0  0  0
 51 52  1  0  0  0  0
M  END
>  <MODEL>
7

>  <REMARK>
 VINA RESULT:      -6.7      4.181      9.587
  Name = 
  14 active torsions:
  status: ('A' for Active; 'I' for Inactive)
    1  A    between atoms: C_3  and  C_6
    2  A    between atoms: C_4  and  C_30
    3  A    between atoms: C_7  and  C_32
    4  A    between atoms: C_7  and  C_52
    5  A    between atoms: C_10  and  C_19
    6  A    between atoms: C_14  and  C_27
    7  A    between atoms: CA_16  and  C_42
    8  A    between atoms: C_21  and  C_23
    9  A    between atoms: C_21  and  O_24
   10  A    between atoms: C_23  and  O_36
   11  A    between atoms: N_26  and  N_28
   12  A    between atoms: N_26  and  C_34
   13  A    between atoms: C_27  and  C_44
   14  A    between atoms: O_36  and  C_38
                            x       y       z     vdW  Elec       q    Type
                         _______ _______ _______ _____ _____    ______ ____

>  <TORSDO>
F 14

$$$$
=
 OpenBabel11062421363D

 52 55  0  0  1  0  0  0  0  0999 V2000
  190.9570  175.3970  143.0770 O   0  0  0  0  0  0  0  0  0  0  0  0
  187.1550  176.8400  143.3710 C   0  0  2  0  0  3  0  0  0  0  0  0
  192.1170  173.2830  142.8820 C   0  0  0  0  0  2  0  0  0  0  0  0
  192.9300  173.5640  144.1510 C   0  0  2  0  0  3  0  0  0  0  0  0
  191.4750  175.6270  144.3660 C   0  0  2  0  0  3  0  0  0  0  0  0
  188.0710  177.9530  143.7810 C   0  0  0  0  0  3  0  0  0  0  0  0
  188.5440  175.8710  141.5190 C   0  0  0  0  0  2  0  0  0  0  0  0
  190.7590  174.0050  142.9660 C   0  0  2  0  0  3  0  0  0  0  0  0
  188.4910  174.3940  141.9010 C   0  0  0  0  0  2  0  0  0  0  0  0
  189.8350  173.6580  141.7740 C   0  0  1  0  0  0  0  0  0  0  0  0
  189.0810  177.7030  144.5620 C   0  0  0  0  0  0  0  0  0  0  0  0
  191.4120  177.1060  144.7120 C   0  0  0  0  0  2  0  0  0  0  0  0
  187.2300  176.5480  141.8680 C   0  0  2  0  0  3  0  0  0  0  0  0
  192.9070  175.0710  144.4920 C   0  0  2  0  0  3  0  0  0  0  0  0
  190.0930  177.4290  145.3450 C   0  0  0  0  0  0  0  0  0  0  0  0
  190.5180  174.0180  140.4510 C   0  0  0  0  0  1  0  0  0  0  0  0
  194.9560  172.9040  145.5180 C   0  0  0  0  0  2  0  0  0  0  0  0
  194.3490  172.9760  144.0950 C   0  0  1  0  0  3  0  0  0  0  0  0
  195.5350  171.5330  145.8980 C   0  0  0  0  0  2  0  0  0  0  0  0
  194.0520  170.4850  144.2600 C   0  0  0  0  0  3  0  0  0  0  0  0
  194.6090  170.4370  145.4660 C   0  0  0  0  0  0  0  0  0  0  0  0
  194.3810  171.6280  143.3480 C   0  0  0  0  0  2  0  0  0  0  0  0
  194.3390  169.3760  146.3210 O   0  0  0  0  0  1  0  0  0  0  0  0
  189.0540  171.5680  142.9490 O   0  0  0  0  0  1  0  0  0  0  0  0
  189.5190  172.1810  141.7880 C   0  0  0  0  0  0  0  0  0  0  0  0
  189.7450  171.4720  140.7690 O   0  0  0  0  0  0  0  0  0  0  0  0
  188.7840  177.7410  147.3840 C   0  0  0  0  0  2  0  0  0  0  0  0
  189.8970  177.2990  146.8080 C   0  0  0  0  0  0  0  0  0  0  0  0
  190.8940  176.5830  147.6630 C   0  0  0  0  0  2  0  0  0  0  0  0
  191.4650  177.5030  148.6310 N   0  0  0  0  0  1  0  0  0  0  0  0
  185.7490  177.1310  143.7840 C   0  0  0  0  0  3  0  0  0  0  0  0
  185.2470  178.3600  143.6570 C   0  0  0  0  0  3  0  0  0  0  0  0
  183.8450  178.6660  144.0720 C   0  0  0  0  0  2  0  0  0  0  0  0
  180.7750  179.0330  141.9770 C   0  0  0  0  0  0  0  0  0  0  0  0
  182.5530  178.2930  140.5770 N   0  0  0  0  0  0  0  0  0  0  0  0
  183.4010  178.2890  141.6380 C   0  0  0  0  0  3  0  0  0  0  0  0
  181.2500  178.6560  140.7190 C   0  0  0  0  0  3  0  0  0  0  0  0
  181.6220  179.0270  143.0400 N   0  0  0  0  0  0  0  0  0  0  0  0
  182.9260  178.6670  142.8970 C   0  0  0  0  0  0  0  0  0  0  0  0
  178.6240  178.3180  142.6190 O   0  0  0  0  0  1  0  0  0  0  0  0
  179.3490  179.4160  142.1640 C   0  0  0  0  0  2  0  0  0  0  0  0
  187.0770  177.7650  141.0790 N   0  0  0  0  0  2  0  0  0  0  0  0
  187.4410  177.4640  139.7590 N   0  0  0  0  0  2  0  0  0  0  0  0
  186.8260  176.8880  137.5940 O   0  0  0  0  0  0  0  0  0  0  0  0
  186.4630  177.1500  138.7700 C   0  0  0  0  0  0  0  0  0  0  0  0
  185.1140  177.1180  139.0990 O   0  0  0  0  0  1  0  0  0  0  0  0
  193.9180  175.8510  143.8690 O   0  0  0  0  0  0  0  0  0  0  0  0
  193.8680  175.6850  142.4740 C   0  0  0  0  0  2  0  0  0  0  0  0
  195.2140  175.9580  141.8880 C   0  0  0  0  0  0  0  0  0  0  0  0
  195.3040  176.7150  140.8890 O   0  0  0  0  0  0  0  0  0  0  0  0
  196.3680  175.3590  142.3940 O   0  0  0  0  0  0  0  0  0  0  0  0
  197.3860  176.1030  143.0490 C   0  0  0  0  0  1  0  0  0  0  0  0
  1  5  1  0  0  0  0
  2  6  1  0  0  0  0
  2 31  1  6  0  0  0
  4  3  1  6  0  0  0
  4 14  1  0  0  0  0
  5 14  1  0  0  0  0
  5 12  1  6  0  0  0
  6 11  2  0  0  0  0
  7 13  1  0  0  0  0
  7  9  1  0  0  0  0
  8  3  1  6  0  0  0
  8  1  1  0  0  0  0
 10 16  1  6  0  0  0
 10 25  1  0  0  0  0
 10  9  1  0  0  0  0
 10  8  1  0  0  0  0
 11 15  2  0  0  0  0
 12 15  1  0  0  0  0
 13 42  1  6  0  0  0
 13  2  1  0  0  0  0
 14 47  1  6  0  0  0
 15 28  1  0  0  0  0
 17 19  1  0  0  0  0
 18 22  1  1  0  0  0
 18  4  1  0  0  0  0
 18 17  1  0  0  0  0
 20 21  2  0  0  0  0
 21 19  1  0  0  0  0
 21 23  1  0  0  0  0
 22 20  1  0  0  0  0
 25 24  1  0  0  0  0
 26 25  2  0  0  0  0
 28 27  2  0  0  0  0
 28 29  1  0  0  0  0
 29 30  1  0  0  0  0
 32 31  2  0  0  0  0
 32 33  1  0  0  0  0
 34 41  1  0  0  0  0
 34 38  1  0  0  0  0
 35 37  1  0  0  0  0
 35 36  2  0  0  0  0
 36 39  1  0  0  0  0
 37 34  2  0  0  0  0
 39 38  2  0  0  0  0
 39 33  1  0  0  0  0
 41 40  1  0  0  0  0
 43 42  1  0  0  0  0
 44 45  2  0  0  0  0
 45 46  1  0  0  0  0
 45 43  1  0  0  0  0
 48 47  1  0  0  0  0
 49 51  1  0  0  0  0
 49 48  1  0  0  0  0
 50 49  2  0  0  0  0
 51 52  1  0  0  0  0
M  END
>  <MODEL>
8

>  <REMARK>
 VINA RESULT:      -6.7      3.275     10.719
  Name = 
  14 active torsions:
  status: ('A' for Active; 'I' for Inactive)
    1  A    between atoms: C_3  and  C_6
    2  A    between atoms: C_4  and  C_30
    3  A    between atoms: C_7  and  C_32
    4  A    between atoms: C_7  and  C_52
    5  A    between atoms: C_10  and  C_19
    6  A    between atoms: C_14  and  C_27
    7  A    between atoms: CA_16  and  C_42
    8  A    between atoms: C_21  and  C_23
    9  A    between atoms: C_21  and  O_24
   10  A    between atoms: C_23  and  O_36
   11  A    between atoms: N_26  and  N_28
   12  A    between atoms: N_26  and  C_34
   13  A    between atoms: C_27  and  C_44
   14  A    between atoms: O_36  and  C_38
                            x       y       z     vdW  Elec       q    Type
                         _______ _______ _______ _____ _____    ______ ____

>  <TORSDO>
F 14

$$$$
=
 OpenBabel11062421363D

 52 55  0  0  1  0  0  0  0  0999 V2000
  193.3680  173.5220  140.7550 O   0  0  0  0  0  0  0  0  0  0  0  0
  191.9200  174.8850  144.3140 C   0  0  2  0  0  3  0  0  0  0  0  0
  194.8860  174.2030  138.9990 C   0  0  0  0  0  2  0  0  0  0  0  0
  193.7810  174.0920  137.9420 C   0  0  2  0  0  3  0  0  0  0  0  0
  192.2490  173.6270  139.9060 C   0  0  2  0  0  3  0  0  0  0  0  0
  191.0190  173.7700  143.8810 C   0  0  0  0  0  3  0  0  0  0  0  0
  194.1060  173.9260  143.5420 C   0  0  0  0  0  2  0  0  0  0  0  0
  194.2630  174.5400  140.3670 C   0  0  2  0  0  3  0  0  0  0  0  0
  194.6720  175.1330  142.7980 C   0  0  0  0  0  2  0  0  0  0  0  0
  195.3350  174.7950  141.4530 C   0  0  1  0  0  0  0  0  0  0  0  0
  190.6370  173.6920  142.6400 C   0  0  0  0  0  0  0  0  0  0  0  0
  191.0900  172.8040  140.4450 C   0  0  0  0  0  2  0  0  0  0  0  0
  193.3020  174.3840  144.7460 C   0  0  2  0  0  3  0  0  0  0  0  0
  192.6130  173.2250  138.4630 C   0  0  2  0  0  3  0  0  0  0  0  0
  190.2680  173.6310  141.3860 C   0  0  0  0  0  0  0  0  0  0  0  0
  196.2440  173.5710  141.5990 C   0  0  0  0  0  1  0  0  0  0  0  0
  193.7650  174.5670  135.4560 C   0  0  0  0  0  2  0  0  0  0  0  0
  194.3070  173.6400  136.5720 C   0  0  1  0  0  3  0  0  0  0  0  0
  194.8380  175.1290  134.5130 C   0  0  0  0  0  2  0  0  0  0  0  0
  196.5070  174.8210  136.2730 C   0  0  0  0  0  3  0  0  0  0  0  0
  196.0340  175.5840  135.2920 C   0  0  0  0  0  0  0  0  0  0  0  0
  195.8440  173.5080  136.5630 C   0  0  0  0  0  2  0  0  0  0  0  0
  196.6460  176.7930  134.9880 O   0  0  0  0  0  1  0  0  0  0  0  0
  197.4660  175.8320  140.5900 O   0  0  0  0  0  0  0  0  0  0  0  0
  196.1700  175.9950  141.0730 C   0  0  0  0  0  0  0  0  0  0  0  0
  195.7300  177.1620  141.2620 O   0  0  0  0  0  1  0  0  0  0  0  0
  188.5260  174.1680  139.7590 C   0  0  0  0  0  2  0  0  0  0  0  0
  189.1560  174.4750  140.8880 C   0  0  0  0  0  0  0  0  0  0  0  0
  188.6450  175.6330  141.6850 C   0  0  0  0  0  2  0  0  0  0  0  0
  187.4330  175.2520  142.3890 N   0  0  0  0  0  1  0  0  0  0  0  0
  191.2850  175.6890  145.4010 C   0  0  0  0  0  3  0  0  0  0  0  0
  190.0590  176.1900  145.2450 C   0  0  0  0  0  3  0  0  0  0  0  0
  189.4150  177.0020  146.3220 C   0  0  0  0  0  2  0  0  0  0  0  0
  186.3020  178.1620  144.6150 C   0  0  0  0  0  0  0  0  0  0  0  0
  185.6800  177.0100  146.6040 N   0  0  0  0  0  0  0  0  0  0  0  0
  186.9870  176.7780  146.8900 C   0  0  0  0  0  3  0  0  0  0  0  0
  185.3160  177.6920  145.4850 C   0  0  0  0  0  3  0  0  0  0  0  0
  187.6110  177.9330  144.9030 N   0  0  0  0  0  0  0  0  0  0  0  0
  187.9740  177.2470  146.0190 C   0  0  0  0  0  0  0  0  0  0  0  0
  186.8320  178.6460  142.3710 O   0  0  0  0  0  1  0  0  0  0  0  0
  185.9310  178.9280  143.3940 C   0  0  0  0  0  2  0  0  0  0  0  0
  193.1970  173.2960  145.7120 N   0  0  0  0  0  2  0  0  0  0  0  0
  194.4400  172.6490  145.7610 N   0  0  0  0  0  2  0  0  0  0  0  0
  195.7140  170.7320  145.4440 O   0  0  0  0  0  1  0  0  0  0  0  0
  194.5820  171.2800  145.3900 C   0  0  0  0  0  0  0  0  0  0  0  0
  193.4770  170.5420  144.9830 O   0  0  0  0  0  0  0  0  0  0  0  0
  192.7440  171.8290  138.2370 O   0  0  0  0  0  0  0  0  0  0  0  0
  192.0370  171.4560  137.0800 C   0  0  0  0  0  2  0  0  0  0  0  0
  190.5960  171.2540  137.4150 C   0  0  0  0  0  0  0  0  0  0  0  0
  190.2640  170.2670  138.1170 O   0  0  0  0  0  0  0  0  0  0  0  0
  189.6050  172.1100  136.9320 O   0  0  0  0  0  0  0  0  0  0  0  0
  189.8780  173.1250  135.9750 C   0  0  0  0  0  1  0  0  0  0  0  0
  2 13  1  0  0  0  0
  2 31  1  1  0  0  0
  4 14  1  0  0  0  0
  4  3  1  1  0  0  0
  5 12  1  1  0  0  0
  5  1  1  0  0  0  0
  6  2  1  0  0  0  0
  7 13  1  0  0  0  0
  8  3  1  6  0  0  0
  8  1  1  0  0  0  0
  8 10  1  0  0  0  0
  9  7  1  0  0  0  0
 10 16  1  1  0  0  0
 10  9  1  0  0  0  0
 11  6  2  0  0  0  0
 12 15  1  0  0  0  0
 13 42  1  1  0  0  0
 14 47  1  1  0  0  0
 14  5  1  0  0  0  0
 15 11  2  0  0  0  0
 18 17  1  6  0  0  0
 18  4  1  0  0  0  0
 19 21  1  0  0  0  0
 19 17  1  0  0  0  0
 20 22  1  0  0  0  0
 21 20  2  0  0  0  0
 22 18  1  0  0  0  0
 23 21  1  0  0  0  0
 24 25  2  0  0  0  0
 25 26  1  0  0  0  0
 25 10  1  0  0  0  0
 27 28  2  0  0  0  0
 28 15  1  0  0  0  0
 28 29  1  0  0  0  0
 29 30  1  0  0  0  0
 32 31  2  0  0  0  0
 32 33  1  0  0  0  0
 34 38  2  0  0  0  0
 34 37  1  0  0  0  0
 35 36  1  0  0  0  0
 37 35  2  0  0  0  0
 38 39  1  0  0  0  0
 39 33  1  0  0  0  0
 39 36  2  0  0  0  0
 40 41  1  0  0  0  0
 41 34  1  0  0  0  0
 42 43  1  0  0  0  0
 45 44  1  0  0  0  0
 45 43  1  0  0  0  0
 46 45  2  0  0  0  0
 48 49  1  0  0  0  0
 48 47  1  0  0  0  0
 49 50  2  0  0  0  0
 51 49  1  0  0  0  0
 52 51  1  0  0  0  0
M  END
>  <MODEL>
9

>  <REMARK>
 VINA RESULT:      -6.7      4.032      9.371
  Name = 
  14 active torsions:
  status: ('A' for Active; 'I' for Inactive)
    1  A    between atoms: C_3  and  C_6
    2  A    between atoms: C_4  and  C_30
    3  A    between atoms: C_7  and  C_32
    4  A    between atoms: C_7  and  C_52
    5  A    between atoms: C_10  and  C_19
    6  A    between atoms: C_14  and  C_27
    7  A    between atoms: CA_16  and  C_42
    8  A    between atoms: C_21  and  C_23
    9  A    between atoms: C_21  and  O_24
   10  A    between atoms: C_23  and  O_36
   11  A    between atoms: N_26  and  N_28
   12  A    between atoms: N_26  and  C_34
   13  A    between atoms: C_27  and  C_44
   14  A    between atoms: O_36  and  C_38
                            x       y       z     vdW  Elec       q    Type
                         _______ _______ _______ _____ _____    ______ ____

>  <TORSDO>
F 14

$$$$
