=
 OpenBabel11062422543D

 29 32  0  0  1  0  0  0  0  0999 V2000
  190.8730  176.1370  144.6880 C   0  0  0  0  0  0  0  0  0  0  0  0
  190.9730  173.6960  145.2250 N   0  0  0  0  0  2  0  0  0  0  0  0
  188.5050  176.3800  146.1120 C   0  0  0  0  0  0  0  0  0  0  0  0
  193.0280  175.4110  143.4580 C   0  0  2  0  0  3  0  0  0  0  0  0
  191.9800  176.3900  143.9030 C   0  0  0  0  0  0  0  0  0  0  0  0
  192.5360  172.1740  144.4640 O   0  0  0  0  0  0  0  0  0  0  0  0
  190.3690  174.9920  145.3210 C   0  0  0  0  0  0  0  0  0  0  0  0
  189.1640  175.1320  146.0340 C   0  0  0  0  0  3  0  0  0  0  0  0
  191.9500  177.6940  143.5320 N   0  0  0  0  0  0  0  0  0  0  0  0
  189.0420  177.5090  145.4670 C   0  0  0  0  0  3  0  0  0  0  0  0
  193.3470  174.4310  144.5970 C   0  0  1  0  0  3  0  0  0  0  0  0
  192.2830  173.3740  144.7460 C   0  0  0  0  0  0  0  0  0  0  0  0
  190.2270  177.3410  144.7590 C   0  0  0  0  0  0  0  0  0  0  0  0
  190.8890  178.2350  144.0680 O   0  0  0  0  0  0  0  0  0  0  0  0
  194.7950  173.8940  144.6190 C   0  0  0  0  0  2  0  0  0  0  0  0
  195.0480  175.3660  146.4750 F   0  0  0  0  0  0  0  0  0  0  0  0
  196.6890  175.2830  144.9450 F   0  0  0  0  0  0  0  0  0  0  0  0
  196.4220  173.5820  146.3880 F   0  0  0  0  0  0  0  0  0  0  0  0
  195.7550  174.5300  145.6320 C   0  0  0  0  0  0  0  0  0  0  0  0
  194.2250  176.1330  143.0390 N   0  0  0  0  0  2  0  0  0  0  0  0
  194.2780  176.0630  141.6420 N   0  0  0  0  0  2  0  0  0  0  0  0
  195.3650  176.7730  141.2580 O   0  0  0  0  0  1  0  0  0  0  0  0
  187.2420  176.4990  146.8970 C   0  0  0  0  0  2  0  0  0  0  0  0
  186.2080  177.2550  146.1300 C   0  0  0  0  0  0  0  0  0  0  0  0
  184.9680  177.6330  144.0820 C   0  0  0  0  0  3  0  0  0  0  0  0
  185.4780  178.2710  146.7570 C   0  0  0  0  0  3  0  0  0  0  0  0
  184.2450  178.6520  144.7080 C   0  0  0  0  0  3  0  0  0  0  0  0
  184.5000  178.9710  146.0460 C   0  0  0  0  0  3  0  0  0  0  0  0
  185.9480  176.9320  144.7920 C   0  0  0  0  0  3  0  0  0  0  0  0
  1 13  2  0  0  0  0
  1  7  1  0  0  0  0
  2  7  1  0  0  0  0
  3 23  1  0  0  0  0
  4 20  1  1  0  0  0
  4  5  1  0  0  0  0
  4 11  1  0  0  0  0
  5  1  1  0  0  0  0
  6 12  2  0  0  0  0
  7  8  2  0  0  0  0
  8  3  1  0  0  0  0
  9  5  2  0  0  0  0
  9 14  1  0  0  0  0
 10  3  2  0  0  0  0
 11 15  1  6  0  0  0
 11 12  1  0  0  0  0
 12  2  1  0  0  0  0
 13 10  1  0  0  0  0
 14 13  1  0  0  0  0
 15 19  1  0  0  0  0
 17 19  1  0  0  0  0
 19 18  1  0  0  0  0
 19 16  1  0  0  0  0
 21 20  1  0  0  0  0
 22 21  1  0  0  0  0
 24 26  1  0  0  0  0
 24 23  1  0  0  0  0
 25 27  2  0  0  0  0
 25 29  1  0  0  0  0
 27 28  1  0  0  0  0
 28 26  2  0  0  0  0
 29 24  2  0  0  0  0
M  END
>  <MODEL>
1

>  <REMARK>
 VINA RESULT:      -7.4      0.000      0.000
  Name = 
  6 active torsions:
  status: ('A' for Active; 'I' for Inactive)
    1  A    between atoms: C_1  and  C_26
    2  A    between atoms: C_5  and  C_26
    3  A    between atoms: C_6  and  N_25
    4  A    between atoms: C_15  and  C_21
    5  A    between atoms: C_20  and  C_21
    6  A    between atoms: N_22  and  N_25
                            x       y       z     vdW  Elec       q    Type
                         _______ _______ _______ _____ _____    ______ ____

>  <TORSDO>
F 6

$$$$
=
 OpenBabel11062422543D

 29 32  0  0  1  0  0  0  0  0999 V2000
  190.2290  177.1770  144.7840 C   0  0  0  0  0  0  0  0  0  0  0  0
  189.2190  177.3650  147.0650 N   0  0  0  0  0  2  0  0  0  0  0  0
  192.6830  176.5190  145.8960 C   0  0  0  0  0  0  0  0  0  0  0  0
  187.7970  177.8620  144.2330 C   0  0  2  0  0  3  0  0  0  0  0  0
  189.2130  177.4870  143.9020 C   0  0  0  0  0  0  0  0  0  0  0  0
  187.0670  178.0310  147.5750 O   0  0  0  0  0  0  0  0  0  0  0  0
  190.3110  177.0830  146.1810 C   0  0  0  0  0  0  0  0  0  0  0  0
  191.5650  176.7540  146.7270 C   0  0  0  0  0  3  0  0  0  0  0  0
  189.7180  177.4560  142.6430 N   0  0  0  0  0  0  0  0  0  0  0  0
  192.5630  176.6180  144.4980 C   0  0  0  0  0  3  0  0  0  0  0  0
  187.2930  177.0160  145.4100 C   0  0  1  0  0  3  0  0  0  0  0  0
  187.8350  177.5040  146.7290 C   0  0  0  0  0  0  0  0  0  0  0  0
  191.3160  176.9560  143.9830 C   0  0  0  0  0  0  0  0  0  0  0  0
  190.9790  177.1290  142.7290 O   0  0  0  0  0  0  0  0  0  0  0  0
  185.7770  176.7190  145.4080 C   0  0  0  0  0  2  0  0  0  0  0  0
  183.9960  177.7680  146.5910 F   0  0  0  0  0  0  0  0  0  0  0  0
  184.0650  177.9780  144.3570 F   0  0  0  0  0  0  0  0  0  0  0  0
  185.5220  179.1190  145.6310 F   0  0  0  0  0  0  0  0  0  0  0  0
  184.8340  177.9250  145.5050 C   0  0  0  0  0  0  0  0  0  0  0  0
  186.9540  177.6770  143.0570 N   0  0  0  0  0  2  0  0  0  0  0  0
  186.5980  178.9530  142.6030 N   0  0  0  0  0  2  0  0  0  0  0  0
  185.5900  178.7820  141.7140 O   0  0  0  0  0  1  0  0  0  0  0  0
  193.9920  176.1470  146.5080 C   0  0  0  0  0  2  0  0  0  0  0  0
  194.4290  174.7960  146.0480 C   0  0  0  0  0  0  0  0  0  0  0  0
  193.8970  172.5230  145.3960 C   0  0  0  0  0  3  0  0  0  0  0  0
  195.7830  174.5480  145.7980 C   0  0  0  0  0  3  0  0  0  0  0  0
  195.2510  172.2760  145.1530 C   0  0  0  0  0  3  0  0  0  0  0  0
  196.1940  173.2890  145.3540 C   0  0  0  0  0  3  0  0  0  0  0  0
  193.4850  173.7820  145.8420 C   0  0  0  0  0  3  0  0  0  0  0  0
  1  7  1  0  0  0  0
  3 23  1  0  0  0  0
  3  8  1  0  0  0  0
  4 20  1  6  0  0  0
  4 11  1  0  0  0  0
  5  4  1  0  0  0  0
  5  1  1  0  0  0  0
  7  8  2  0  0  0  0
  7  2  1  0  0  0  0
  9 14  1  0  0  0  0
  9  5  2  0  0  0  0
 10  3  2  0  0  0  0
 11 15  1  1  0  0  0
 11 12  1  0  0  0  0
 12  2  1  0  0  0  0
 12  6  2  0  0  0  0
 13 10  1  0  0  0  0
 13  1  2  0  0  0  0
 14 13  1  0  0  0  0
 15 19  1  0  0  0  0
 17 19  1  0  0  0  0
 19 18  1  0  0  0  0
 19 16  1  0  0  0  0
 21 20  1  0  0  0  0
 22 21  1  0  0  0  0
 24 23  1  0  0  0  0
 25 29  2  0  0  0  0
 26 24  2  0  0  0  0
 27 28  2  0  0  0  0
 27 25  1  0  0  0  0
 28 26  1  0  0  0  0
 29 24  1  0  0  0  0
M  END
>  <MODEL>
2

>  <REMARK>
 VINA RESULT:      -7.4      4.389      8.128
  Name = 
  6 active torsions:
  status: ('A' for Active; 'I' for Inactive)
    1  A    between atoms: C_1  and  C_26
    2  A    between atoms: C_5  and  C_26
    3  A    between atoms: C_6  and  N_25
    4  A    between atoms: C_15  and  C_21
    5  A    between atoms: C_20  and  C_21
    6  A    between atoms: N_22  and  N_25
                            x       y       z     vdW  Elec       q    Type
                         _______ _______ _______ _____ _____    ______ ____

>  <TORSDO>
F 6

$$$$
=
 OpenBabel11062422543D

 29 32  0  0  1  0  0  0  0  0999 V2000
  190.4350  175.1760  143.9610 C   0  0  0  0  0  0  0  0  0  0  0  0
  191.3910  176.8010  145.6040 N   0  0  0  0  0  2  0  0  0  0  0  0
  188.2610  176.8460  143.5340 C   0  0  0  0  0  0  0  0  0  0  0  0
  192.5870  173.9600  144.7180 C   0  0  2  0  0  3  0  0  0  0  0  0
  191.3180  174.1150  143.9310 C   0  0  0  0  0  0  0  0  0  0  0  0
  193.2950  176.5190  146.8810 O   0  0  0  0  0  0  0  0  0  0  0  0
  190.4010  176.3960  144.6500 C   0  0  0  0  0  0  0  0  0  0  0  0
  189.2890  177.2280  144.4260 C   0  0  0  0  0  3  0  0  0  0  0  0
  190.8210  173.1700  143.0940 N   0  0  0  0  0  0  0  0  0  0  0  0
  188.3300  175.6150  142.8560 C   0  0  0  0  0  3  0  0  0  0  0  0
  193.3160  175.3080  144.8070 C   0  0  1  0  0  3  0  0  0  0  0  0
  192.6830  176.2260  145.8210 C   0  0  0  0  0  0  0  0  0  0  0  0
  189.4340  174.8060  143.1040 C   0  0  0  0  0  0  0  0  0  0  0  0
  189.6940  173.6210  142.6110 O   0  0  0  0  0  0  0  0  0  0  0  0
  194.8560  175.2210  144.8910 C   0  0  0  0  0  2  0  0  0  0  0  0
  196.9670  175.8200  143.9640 F   0  0  0  0  0  0  0  0  0  0  0  0
  195.6280  177.4560  144.7190 F   0  0  0  0  0  0  0  0  0  0  0  0
  195.1320  176.4060  142.7950 F   0  0  0  0  0  0  0  0  0  0  0  0
  195.6550  176.2380  144.0650 C   0  0  0  0  0  0  0  0  0  0  0  0
  193.4310  172.9490  144.0910 N   0  0  0  0  0  2  0  0  0  0  0  0
  193.3400  171.7930  144.8750 N   0  0  0  0  0  2  0  0  0  0  0  0
  194.2860  171.9000  145.8380 O   0  0  0  0  0  1  0  0  0  0  0  0
  187.1080  177.7630  143.3000 C   0  0  0  0  0  2  0  0  0  0  0  0
  186.2740  177.8930  144.5310 C   0  0  0  0  0  0  0  0  0  0  0  0
  185.0720  179.2710  146.1210 C   0  0  0  0  0  3  0  0  0  0  0  0
  185.8770  176.7460  145.2290 C   0  0  0  0  0  3  0  0  0  0  0  0
  184.6820  178.1250  146.8200 C   0  0  0  0  0  3  0  0  0  0  0  0
  185.0840  176.8630  146.3730 C   0  0  0  0  0  3  0  0  0  0  0  0
  185.8660  179.1560  144.9770 C   0  0  0  0  0  3  0  0  0  0  0  0
  1  7  1  0  0  0  0
  2 12  1  0  0  0  0
  3  8  1  0  0  0  0
  4 20  1  6  0  0  0
  4 11  1  0  0  0  0
  5  1  1  0  0  0  0
  5  4  1  0  0  0  0
  7  2  1  0  0  0  0
  8  7  2  0  0  0  0
  9  5  2  0  0  0  0
 10 13  1  0  0  0  0
 10  3  2  0  0  0  0
 11 15  1  1  0  0  0
 11 12  1  0  0  0  0
 12  6  2  0  0  0  0
 13  1  2  0  0  0  0
 14  9  1  0  0  0  0
 14 13  1  0  0  0  0
 16 19  1  0  0  0  0
 18 19  1  0  0  0  0
 19 17  1  0  0  0  0
 19 15  1  0  0  0  0
 20 21  1  0  0  0  0
 21 22  1  0  0  0  0
 23  3  1  0  0  0  0
 23 24  1  0  0  0  0
 24 29  2  0  0  0  0
 24 26  1  0  0  0  0
 25 27  2  0  0  0  0
 26 28  2  0  0  0  0
 28 27  1  0  0  0  0
 29 25  1  0  0  0  0
M  END
>  <MODEL>
3

>  <REMARK>
 VINA RESULT:      -7.3      2.290      3.310
  Name = 
  6 active torsions:
  status: ('A' for Active; 'I' for Inactive)
    1  A    between atoms: C_1  and  C_26
    2  A    between atoms: C_5  and  C_26
    3  A    between atoms: C_6  and  N_25
    4  A    between atoms: C_15  and  C_21
    5  A    between atoms: C_20  and  C_21
    6  A    between atoms: N_22  and  N_25
                            x       y       z     vdW  Elec       q    Type
                         _______ _______ _______ _____ _____    ______ ____

>  <TORSDO>
F 6

$$$$
=
 OpenBabel11062422543D

 29 32  0  0  1  0  0  0  0  0999 V2000
  188.5380  175.6760  143.8740 C   0  0  0  0  0  0  0  0  0  0  0  0
  188.7580  176.3820  146.2630 N   0  0  0  0  0  2  0  0  0  0  0  0
  190.8350  174.1360  144.0900 C   0  0  0  0  0  0  0  0  0  0  0  0
  186.5150  177.2630  144.1460 C   0  0  2  0  0  3  0  0  0  0  0  0
  187.4170  176.3260  143.3960 C   0  0  0  0  0  0  0  0  0  0  0  0
  187.4220  177.8940  147.3890 O   0  0  0  0  0  0  0  0  0  0  0  0
  189.1820  175.6320  145.1180 C   0  0  0  0  0  0  0  0  0  0  0  0
  190.3490  174.8500  145.2080 C   0  0  0  0  0  3  0  0  0  0  0  0
  187.2780  176.0240  142.0810 N   0  0  0  0  0  0  0  0  0  0  0  0
  190.1600  174.2000  142.8580 C   0  0  0  0  0  3  0  0  0  0  0  0
  186.3160  176.7600  145.5830 C   0  0  1  0  0  3  0  0  0  0  0  0
  187.5090  177.0550  146.4550 C   0  0  0  0  0  0  0  0  0  0  0  0
  189.0170  174.9890  142.7910 C   0  0  0  0  0  0  0  0  0  0  0  0
  188.2510  175.2160  141.7540 O   0  0  0  0  0  0  0  0  0  0  0  0
  184.9520  177.1070  146.2200 C   0  0  0  0  0  2  0  0  0  0  0  0
  184.5180  178.8530  147.7820 F   0  0  0  0  0  0  0  0  0  0  0  0
  183.4420  178.8890  145.8110 F   0  0  0  0  0  0  0  0  0  0  0  0
  185.6250  179.4130  145.9010 F   0  0  0  0  0  0  0  0  0  0  0  0
  184.6430  178.5950  146.4300 C   0  0  0  0  0  0  0  0  0  0  0  0
  185.2380  177.3740  143.4500 N   0  0  0  0  0  2  0  0  0  0  0  0
  185.2070  178.6390  142.8500 N   0  0  0  0  0  2  0  0  0  0  0  0
  184.8410  178.4500  141.5600 O   0  0  0  0  0  1  0  0  0  0  0  0
  192.0610  173.2960  144.2270 C   0  0  0  0  0  2  0  0  0  0  0  0
  193.2680  174.1490  144.4360 C   0  0  0  0  0  0  0  0  0  0  0  0
  195.0940  174.9000  145.8410 C   0  0  0  0  0  3  0  0  0  0  0  0
  193.7310  174.9680  143.4000 C   0  0  0  0  0  3  0  0  0  0  0  0
  195.5510  175.7230  144.8070 C   0  0  0  0  0  3  0  0  0  0  0  0
  194.8690  175.7560  143.5870 C   0  0  0  0  0  3  0  0  0  0  0  0
  193.9540  174.1120  145.6560 C   0  0  0  0  0  3  0  0  0  0  0  0
  1  7  1  0  0  0  0
  2 12  1  0  0  0  0
  3 23  1  0  0  0  0
  3  8  1  0  0  0  0
  4 20  1  6  0  0  0
  4 11  1  0  0  0  0
  5  1  1  0  0  0  0
  5  4  1  0  0  0  0
  7  8  2  0  0  0  0
  7  2  1  0  0  0  0
  9  5  2  0  0  0  0
 10  3  2  0  0  0  0
 11 15  1  1  0  0  0
 11 12  1  0  0  0  0
 12  6  2  0  0  0  0
 13 10  1  0  0  0  0
 13  1  2  0  0  0  0
 14  9  1  0  0  0  0
 14 13  1  0  0  0  0
 15 19  1  0  0  0  0
 17 19  1  0  0  0  0
 18 19  1  0  0  0  0
 19 16  1  0  0  0  0
 21 20  1  0  0  0  0
 22 21  1  0  0  0  0
 23 24  1  0  0  0  0
 24 29  1  0  0  0  0
 26 28  1  0  0  0  0
 26 24  2  0  0  0  0
 27 25  1  0  0  0  0
 28 27  2  0  0  0  0
 29 25  2  0  0  0  0
M  END
>  <MODEL>
4

>  <REMARK>
 VINA RESULT:      -7.3      4.766      8.278
  Name = 
  6 active torsions:
  status: ('A' for Active; 'I' for Inactive)
    1  A    between atoms: C_1  and  C_26
    2  A    between atoms: C_5  and  C_26
    3  A    between atoms: C_6  and  N_25
    4  A    between atoms: C_15  and  C_21
    5  A    between atoms: C_20  and  C_21
    6  A    between atoms: N_22  and  N_25
                            x       y       z     vdW  Elec       q    Type
                         _______ _______ _______ _____ _____    ______ ____

>  <TORSDO>
F 6

$$$$
=
 OpenBabel11062422543D

 29 32  0  0  1  0  0  0  0  0999 V2000
  190.3140  176.3680  143.2180 C   0  0  0  0  0  0  0  0  0  0  0  0
  190.1270  174.0380  142.3280 N   0  0  0  0  0  2  0  0  0  0  0  0
  187.5540  176.6360  143.1690 C   0  0  0  0  0  0  0  0  0  0  0  0
  192.7970  175.6690  143.0370 C   0  0  2  0  0  3  0  0  0  0  0  0
  191.6680  176.6060  143.3540 C   0  0  0  0  0  0  0  0  0  0  0  0
  191.8690  172.6320  141.7530 O   0  0  0  0  0  0  0  0  0  0  0  0
  189.5570  175.2670  142.7930 C   0  0  0  0  0  0  0  0  0  0  0  0
  188.1590  175.4230  142.7700 C   0  0  0  0  0  3  0  0  0  0  0  0
  191.8350  177.8820  143.7830 N   0  0  0  0  0  0  0  0  0  0  0  0
  188.3450  177.7190  143.5930 C   0  0  0  0  0  3  0  0  0  0  0  0
  192.4230  174.2390  143.4510 C   0  0  1  0  0  3  0  0  0  0  0  0
  191.4810  173.5940  142.4660 C   0  0  0  0  0  0  0  0  0  0  0  0
  189.7250  177.5440  143.5960 C   0  0  0  0  0  0  0  0  0  0  0  0
  190.6490  178.4120  143.9230 O   0  0  0  0  0  0  0  0  0  0  0  0
  193.6070  173.3470  143.8860 C   0  0  0  0  0  2  0  0  0  0  0  0
  192.8180  173.8210  146.0840 F   0  0  0  0  0  0  0  0  0  0  0  0
  195.0350  173.7150  145.7440 F   0  0  0  0  0  0  0  0  0  0  0  0
  193.8170  171.8270  145.7620 F   0  0  0  0  0  0  0  0  0  0  0  0
  193.8170  173.1610  145.3950 C   0  0  0  0  0  0  0  0  0  0  0  0
  194.0070  176.1120  143.7200 N   0  0  0  0  0  2  0  0  0  0  0  0
  194.9740  176.3440  142.7340 N   0  0  0  0  0  2  0  0  0  0  0  0
  196.1170  176.6770  143.3800 O   0  0  0  0  0  1  0  0  0  0  0  0
  186.0670  176.7580  143.1560 C   0  0  0  0  0  2  0  0  0  0  0  0
  185.5670  177.3010  144.4540 C   0  0  0  0  0  0  0  0  0  0  0  0
  184.2510  178.9180  145.6890 C   0  0  0  0  0  3  0  0  0  0  0  0
  185.9140  176.6700  145.6540 C   0  0  0  0  0  3  0  0  0  0  0  0
  184.6050  178.2910  146.8870 C   0  0  0  0  0  3  0  0  0  0  0  0
  185.4360  177.1660  146.8690 C   0  0  0  0  0  3  0  0  0  0  0  0
  184.7300  178.4240  144.4720 C   0  0  0  0  0  3  0  0  0  0  0  0
  1  5  1  0  0  0  0
  1 13  1  0  0  0  0
  2 12  1  0  0  0  0
  2  7  1  0  0  0  0
  3 10  1  0  0  0  0
  4  5  1  0  0  0  0
  4 11  1  0  0  0  0
  4 20  1  1  0  0  0
  5  9  2  0  0  0  0
  6 12  2  0  0  0  0
  7  1  2  0  0  0  0
  8  7  1  0  0  0  0
  8  3  2  0  0  0  0
  9 14  1  0  0  0  0
 10 13  2  0  0  0  0
 11 15  1  6  0  0  0
 12 11  1  0  0  0  0
 13 14  1  0  0  0  0
 15 19  1  0  0  0  0
 19 17  1  0  0  0  0
 19 18  1  0  0  0  0
 19 16  1  0  0  0  0
 21 22  1  0  0  0  0
 21 20  1  0  0  0  0
 23  3  1  0  0  0  0
 23 24  1  0  0  0  0
 24 29  2  0  0  0  0
 24 26  1  0  0  0  0
 25 27  2  0  0  0  0
 26 28  2  0  0  0  0
 28 27  1  0  0  0  0
 29 25  1  0  0  0  0
M  END
>  <MODEL>
5

>  <REMARK>
 VINA RESULT:      -7.2      1.792      2.220
  Name = 
  6 active torsions:
  status: ('A' for Active; 'I' for Inactive)
    1  A    between atoms: C_1  and  C_26
    2  A    between atoms: C_5  and  C_26
    3  A    between atoms: C_6  and  N_25
    4  A    between atoms: C_15  and  C_21
    5  A    between atoms: C_20  and  C_21
    6  A    between atoms: N_22  and  N_25
                            x       y       z     vdW  Elec       q    Type
                         _______ _______ _______ _____ _____    ______ ____

>  <TORSDO>
F 6

$$$$
=
 OpenBabel11062422543D

 29 32  0  0  1  0  0  0  0  0999 V2000
  192.5040  175.0910  145.8950 C   0  0  0  0  0  0  0  0  0  0  0  0
  191.9030  173.1990  144.3740 N   0  0  0  0  0  2  0  0  0  0  0  0
  189.8810  175.2460  146.7830 C   0  0  0  0  0  0  0  0  0  0  0  0
  194.7660  174.5990  144.7430 C   0  0  2  0  0  3  0  0  0  0  0  0
  193.8500  175.3240  145.6850 C   0  0  0  0  0  0  0  0  0  0  0  0
  193.2930  172.1460  142.8580 O   0  0  0  0  0  0  0  0  0  0  0  0
  191.5820  174.1710  145.3770 C   0  0  0  0  0  0  0  0  0  0  0  0
  190.2550  174.2680  145.8340 C   0  0  0  0  0  3  0  0  0  0  0  0
  194.2220  176.3820  146.4470 N   0  0  0  0  0  0  0  0  0  0  0  0
  190.8340  176.1510  147.2850 C   0  0  0  0  0  3  0  0  0  0  0  0
  194.4380  173.0990  144.7430 C   0  0  1  0  0  3  0  0  0  0  0  0
  193.2030  172.7910  143.9350 C   0  0  0  0  0  0  0  0  0  0  0  0
  192.1360  176.0420  146.8080 C   0  0  0  0  0  0  0  0  0  0  0  0
  193.1720  176.7840  147.1110 O   0  0  0  0  0  0  0  0  0  0  0  0
  195.6350  172.1620  144.4700 C   0  0  0  0  0  2  0  0  0  0  0  0
  194.9270  170.7530  146.2560 F   0  0  0  0  0  0  0  0  0  0  0  0
  196.8180  171.9340  146.5120 F   0  0  0  0  0  0  0  0  0  0  0  0
  196.7950  170.1460  145.1520 F   0  0  0  0  0  0  0  0  0  0  0  0
  196.0530  171.2210  145.6080 C   0  0  0  0  0  0  0  0  0  0  0  0
  196.1520  174.8310  145.1330 N   0  0  0  0  0  2  0  0  0  0  0  0
  196.7700  175.5030  144.0710 N   0  0  0  0  0  2  0  0  0  0  0  0
  197.9410  174.8650  143.8350 O   0  0  0  0  0  1  0  0  0  0  0  0
  188.4700  175.3050  147.2650 C   0  0  0  0  0  2  0  0  0  0  0  0
  187.7170  176.3930  146.5730 C   0  0  0  0  0  0  0  0  0  0  0  0
  187.4050  177.8450  144.6580 C   0  0  0  0  0  3  0  0  0  0  0  0
  186.5870  176.9530  147.1800 C   0  0  0  0  0  3  0  0  0  0  0  0
  186.2800  178.4080  145.2690 C   0  0  0  0  0  3  0  0  0  0  0  0
  185.8710  177.9610  146.5290 C   0  0  0  0  0  3  0  0  0  0  0  0
  188.1230  176.8360  145.3090 C   0  0  0  0  0  3  0  0  0  0  0  0
  1 13  1  0  0  0  0
  2  7  1  0  0  0  0
  3 23  1  0  0  0  0
  3 10  1  0  0  0  0
  4 11  1  0  0  0  0
  4 20  1  1  0  0  0
  4  5  1  0  0  0  0
  5  1  1  0  0  0  0
  5  9  2  0  0  0  0
  6 12  2  0  0  0  0
  7  8  1  0  0  0  0
  7  1  2  0  0  0  0
  8  3  2  0  0  0  0
  9 14  1  0  0  0  0
 11 15  1  6  0  0  0
 12  2  1  0  0  0  0
 12 11  1  0  0  0  0
 13 14  1  0  0  0  0
 13 10  2  0  0  0  0
 15 19  1  0  0  0  0
 18 19  1  0  0  0  0
 19 16  1  0  0  0  0
 19 17  1  0  0  0  0
 21 20  1  0  0  0  0
 22 21  1  0  0  0  0
 24 26  1  0  0  0  0
 24 23  1  0  0  0  0
 25 27  2  0  0  0  0
 25 29  1  0  0  0  0
 27 28  1  0  0  0  0
 28 26  2  0  0  0  0
 29 24  2  0  0  0  0
M  END
>  <MODEL>
6

>  <REMARK>
 VINA RESULT:      -7.2      2.290      2.733
  Name = 
  6 active torsions:
  status: ('A' for Active; 'I' for Inactive)
    1  A    between atoms: C_1  and  C_26
    2  A    between atoms: C_5  and  C_26
    3  A    between atoms: C_6  and  N_25
    4  A    between atoms: C_15  and  C_21
    5  A    between atoms: C_20  and  C_21
    6  A    between atoms: N_22  and  N_25
                            x       y       z     vdW  Elec       q    Type
                         _______ _______ _______ _____ _____    ______ ____

>  <TORSDO>
F 6

$$$$
=
 OpenBabel11062422543D

 29 32  0  0  1  0  0  0  0  0999 V2000
  190.8240  175.9460  145.7870 C   0  0  0  0  0  0  0  0  0  0  0  0
  190.5050  174.5270  143.7520 N   0  0  0  0  0  2  0  0  0  0  0  0
  193.5000  175.2250  145.9030 C   0  0  0  0  0  0  0  0  0  0  0  0
  188.3060  176.2780  145.2970 C   0  0  2  0  0  3  0  0  0  0  0  0
  189.5830  176.4900  146.0580 C   0  0  0  0  0  0  0  0  0  0  0  0
  188.5200  174.1300  142.6380 O   0  0  0  0  0  0  0  0  0  0  0  0
  191.3160  175.0930  144.7890 C   0  0  0  0  0  0  0  0  0  0  0  0
  192.6740  174.7330  144.8670 C   0  0  0  0  0  3  0  0  0  0  0  0
  189.6820  177.2300  147.1910 N   0  0  0  0  0  0  0  0  0  0  0  0
  192.9720  176.0830  146.8850 C   0  0  0  0  0  3  0  0  0  0  0  0
  188.5950  176.2360  143.7900 C   0  0  1  0  0  3  0  0  0  0  0  0
  189.1830  174.9150  143.3650 C   0  0  0  0  0  0  0  0  0  0  0  0
  191.6240  176.4140  146.7930 C   0  0  0  0  0  0  0  0  0  0  0  0
  190.9200  177.1660  147.6010 O   0  0  0  0  0  0  0  0  0  0  0  0
  187.4560  176.7550  142.8850 C   0  0  0  0  0  2  0  0  0  0  0  0
  186.9940  179.0390  142.3930 F   0  0  0  0  0  0  0  0  0  0  0  0
  187.4560  177.6500  140.6900 F   0  0  0  0  0  0  0  0  0  0  0  0
  189.1060  178.3260  142.0580 F   0  0  0  0  0  0  0  0  0  0  0  0
  187.7710  177.9670  141.9990 C   0  0  0  0  0  0  0  0  0  0  0  0
  187.3630  177.3430  145.6200 N   0  0  0  0  0  2  0  0  0  0  0  0
  186.4000  176.7930  146.4740 N   0  0  0  0  0  2  0  0  0  0  0  0
  185.2200  176.8380  145.8100 O   0  0  0  0  0  1  0  0  0  0  0  0
  194.9410  174.8440  145.9410 C   0  0  0  0  0  2  0  0  0  0  0  0
  195.6090  175.1580  144.6430 C   0  0  0  0  0  0  0  0  0  0  0  0
  196.6270  174.4230  142.5700 C   0  0  0  0  0  3  0  0  0  0  0  0
  195.8040  176.4910  144.2640 C   0  0  0  0  0  3  0  0  0  0  0  0
  196.8270  175.7550  142.1970 C   0  0  0  0  0  3  0  0  0  0  0  0
  196.4160  176.7890  143.0440 C   0  0  0  0  0  3  0  0  0  0  0  0
  196.0160  174.1240  143.7920 C   0  0  0  0  0  3  0  0  0  0  0  0
  1  5  1  0  0  0  0
  1 13  1  0  0  0  0
  2  7  1  0  0  0  0
  3 23  1  0  0  0  0
  3 10  1  0  0  0  0
  4 20  1  6  0  0  0
  4  5  1  0  0  0  0
  5  9  2  0  0  0  0
  6 12  2  0  0  0  0
  7  8  1  0  0  0  0
  7  1  2  0  0  0  0
  8  3  2  0  0  0  0
  9 14  1  0  0  0  0
 11 15  1  6  0  0  0
 11  4  1  0  0  0  0
 12  2  1  0  0  0  0
 12 11  1  0  0  0  0
 13 10  2  0  0  0  0
 13 14  1  0  0  0  0
 17 19  1  0  0  0  0
 19 18  1  0  0  0  0
 19 16  1  0  0  0  0
 19 15  1  0  0  0  0
 20 21  1  0  0  0  0
 22 21  1  0  0  0  0
 24 23  1  0  0  0  0
 25 29  1  0  0  0  0
 26 24  1  0  0  0  0
 27 25  2  0  0  0  0
 27 28  1  0  0  0  0
 28 26  2  0  0  0  0
 29 24  2  0  0  0  0
M  END
>  <MODEL>
7

>  <REMARK>
 VINA RESULT:      -6.9      4.152      7.843
  Name = 
  6 active torsions:
  status: ('A' for Active; 'I' for Inactive)
    1  A    between atoms: C_1  and  C_26
    2  A    between atoms: C_5  and  C_26
    3  A    between atoms: C_6  and  N_25
    4  A    between atoms: C_15  and  C_21
    5  A    between atoms: C_20  and  C_21
    6  A    between atoms: N_22  and  N_25
                            x       y       z     vdW  Elec       q    Type
                         _______ _______ _______ _____ _____    ______ ____

>  <TORSDO>
F 6

$$$$
=
 OpenBabel11062422543D

 29 32  0  0  1  0  0  0  0  0999 V2000
  190.9420  175.9540  144.8100 C   0  0  0  0  0  0  0  0  0  0  0  0
  190.0230  174.9390  142.7160 N   0  0  0  0  0  2  0  0  0  0  0  0
  193.5250  175.3480  144.0010 C   0  0  0  0  0  0  0  0  0  0  0  0
  188.3960  176.2580  145.1460 C   0  0  2  0  0  3  0  0  0  0  0  0
  189.8430  176.3780  145.5310 C   0  0  0  0  0  0  0  0  0  0  0  0
  187.7940  174.6730  142.1690 O   0  0  0  0  0  0  0  0  0  0  0  0
  191.1090  175.3320  143.5640 C   0  0  0  0  0  0  0  0  0  0  0  0
  192.4260  175.0270  143.1730 C   0  0  0  0  0  3  0  0  0  0  0  0
  190.2780  176.8890  146.7090 N   0  0  0  0  0  0  0  0  0  0  0  0
  193.3200  175.9750  145.2430 C   0  0  0  0  0  3  0  0  0  0  0  0
  188.2300  176.5200  143.6430 C   0  0  1  0  0  3  0  0  0  0  0  0
  188.6510  175.3340  142.8130 C   0  0  0  0  0  0  0  0  0  0  0  0
  192.0080  176.2550  145.6130 C   0  0  0  0  0  0  0  0  0  0  0  0
  191.5810  176.8050  146.7220 O   0  0  0  0  0  0  0  0  0  0  0  0
  186.8820  177.1500  143.2280 C   0  0  0  0  0  2  0  0  0  0  0  0
  188.2570  178.6420  141.9790 F   0  0  0  0  0  0  0  0  0  0  0  0
  186.3140  179.4110  142.7980 F   0  0  0  0  0  0  0  0  0  0  0  0
  186.3080  178.0150  141.0380 F   0  0  0  0  0  0  0  0  0  0  0  0
  186.9390  178.3160  142.2320 C   0  0  0  0  0  0  0  0  0  0  0  0
  187.6020  177.1960  145.9310 N   0  0  0  0  0  2  0  0  0  0  0  0
  186.8160  176.4370  146.8060 N   0  0  0  0  0  2  0  0  0  0  0  0
  185.5330  176.8280  146.6160 O   0  0  0  0  0  1  0  0  0  0  0  0
  194.9100  175.0330  143.5440 C   0  0  0  0  0  2  0  0  0  0  0  0
  195.5520  174.0320  144.4460 C   0  0  0  0  0  0  0  0  0  0  0  0
  195.7510  171.7580  145.2610 C   0  0  0  0  0  3  0  0  0  0  0  0
  196.5930  174.4250  145.2950 C   0  0  0  0  0  3  0  0  0  0  0  0
  196.7850  172.1540  146.1140 C   0  0  0  0  0  3  0  0  0  0  0  0
  197.2070  173.4880  146.1300 C   0  0  0  0  0  3  0  0  0  0  0  0
  195.1350  172.6950  144.4260 C   0  0  0  0  0  3  0  0  0  0  0  0
  1  5  1  0  0  0  0
  1 13  1  0  0  0  0
  2 12  1  0  0  0  0
  2  7  1  0  0  0  0
  3 10  1  0  0  0  0
  4  5  1  0  0  0  0
  4 20  1  1  0  0  0
  5  9  2  0  0  0  0
  6 12  2  0  0  0  0
  7  1  2  0  0  0  0
  8  7  1  0  0  0  0
  8  3  2  0  0  0  0
  9 14  1  0  0  0  0
 10 13  2  0  0  0  0
 11 15  1  1  0  0  0
 11  4  1  0  0  0  0
 12 11  1  0  0  0  0
 13 14  1  0  0  0  0
 16 19  1  0  0  0  0
 18 19  1  0  0  0  0
 19 17  1  0  0  0  0
 19 15  1  0  0  0  0
 20 21  1  0  0  0  0
 22 21  1  0  0  0  0
 23  3  1  0  0  0  0
 23 24  1  0  0  0  0
 24 26  1  0  0  0  0
 25 27  2  0  0  0  0
 26 28  2  0  0  0  0
 27 28  1  0  0  0  0
 29 24  2  0  0  0  0
 29 25  1  0  0  0  0
M  END
>  <MODEL>
8

>  <REMARK>
 VINA RESULT:      -6.9      4.165      8.278
  Name = 
  6 active torsions:
  status: ('A' for Active; 'I' for Inactive)
    1  A    between atoms: C_1  and  C_26
    2  A    between atoms: C_5  and  C_26
    3  A    between atoms: C_6  and  N_25
    4  A    between atoms: C_15  and  C_21
    5  A    between atoms: C_20  and  C_21
    6  A    between atoms: N_22  and  N_25
                            x       y       z     vdW  Elec       q    Type
                         _______ _______ _______ _____ _____    ______ ____

>  <TORSDO>
F 6

$$$$
=
 OpenBabel11062422543D

 29 32  0  0  1  0  0  0  0  0999 V2000
  189.0240  174.9760  143.7270 C   0  0  0  0  0  0  0  0  0  0  0  0
  189.8790  175.9740  145.8550 N   0  0  0  0  0  2  0  0  0  0  0  0
  190.7070  172.7940  144.0440 C   0  0  0  0  0  0  0  0  0  0  0  0
  187.6960  177.1920  143.8440 C   0  0  2  0  0  3  0  0  0  0  0  0
  188.1030  175.8810  143.2360 C   0  0  0  0  0  0  0  0  0  0  0  0
  189.3190  178.0340  146.7410 O   0  0  0  0  0  0  0  0  0  0  0  0
  189.8300  174.9320  144.8730 C   0  0  0  0  0  0  0  0  0  0  0  0
  190.6820  173.8210  145.0150 C   0  0  0  0  0  3  0  0  0  0  0  0
  187.6430  175.4170  142.0470 N   0  0  0  0  0  0  0  0  0  0  0  0
  189.8800  172.8690  142.9090 C   0  0  0  0  0  3  0  0  0  0  0  0
  187.6050  177.0550  145.3710 C   0  0  1  0  0  3  0  0  0  0  0  0
  188.9650  177.0640  146.0200 C   0  0  0  0  0  0  0  0  0  0  0  0
  189.0560  173.9830  142.7860 C   0  0  0  0  0  0  0  0  0  0  0  0
  188.2320  174.2750  141.8120 O   0  0  0  0  0  0  0  0  0  0  0  0
  186.5600  177.9660  146.0540 C   0  0  0  0  0  2  0  0  0  0  0  0
  184.7850  176.4170  146.4070 F   0  0  0  0  0  0  0  0  0  0  0  0
  184.8410  178.2820  147.6560 F   0  0  0  0  0  0  0  0  0  0  0  0
  186.3060  176.6250  148.0570 F   0  0  0  0  0  0  0  0  0  0  0  0
  185.6170  177.3020  147.0650 C   0  0  0  0  0  0  0  0  0  0  0  0
  186.4190  177.6170  143.2810 N   0  0  0  0  0  2  0  0  0  0  0  0
  186.6920  178.6630  142.3910 N   0  0  0  0  0  2  0  0  0  0  0  0
  186.0130  178.3920  141.2510 O   0  0  0  0  0  1  0  0  0  0  0  0
  191.6030  171.6170  144.2380 C   0  0  0  0  0  2  0  0  0  0  0  0
  193.0360  172.0350  144.2320 C   0  0  0  0  0  0  0  0  0  0  0  0
  194.9340  173.0230  143.0940 C   0  0  0  0  0  3  0  0  0  0  0  0
  193.8170  171.8650  145.3810 C   0  0  0  0  0  3  0  0  0  0  0  0
  195.7140  172.8460  144.2400 C   0  0  0  0  0  3  0  0  0  0  0  0
  195.1550  172.2670  145.3840 C   0  0  0  0  0  3  0  0  0  0  0  0
  193.5950  172.6200  143.0890 C   0  0  0  0  0  3  0  0  0  0  0  0
  1  7  1  0  0  0  0
  2 12  1  0  0  0  0
  3 23  1  0  0  0  0
  3  8  1  0  0  0  0
  4 20  1  6  0  0  0
  4 11  1  0  0  0  0
  5  1  1  0  0  0  0
  5  4  1  0  0  0  0
  7  8  2  0  0  0  0
  7  2  1  0  0  0  0
  9  5  2  0  0  0  0
 10  3  2  0  0  0  0
 11 12  1  0  0  0  0
 11 15  1  1  0  0  0
 12  6  2  0  0  0  0
 13 10  1  0  0  0  0
 13  1  2  0  0  0  0
 14  9  1  0  0  0  0
 14 13  1  0  0  0  0
 15 19  1  0  0  0  0
 16 19  1  0  0  0  0
 19 17  1  0  0  0  0
 19 18  1  0  0  0  0
 21 20  1  0  0  0  0
 22 21  1  0  0  0  0
 24 23  1  0  0  0  0
 24 26  1  0  0  0  0
 25 27  2  0  0  0  0
 26 28  2  0  0  0  0
 27 28  1  0  0  0  0
 29 25  1  0  0  0  0
 29 24  2  0  0  0  0
M  END
>  <MODEL>
9

>  <REMARK>
 VINA RESULT:      -6.8      4.401      8.016
  Name = 
  6 active torsions:
  status: ('A' for Active; 'I' for Inactive)
    1  A    between atoms: C_1  and  C_26
    2  A    between atoms: C_5  and  C_26
    3  A    between atoms: C_6  and  N_25
    4  A    between atoms: C_15  and  C_21
    5  A    between atoms: C_20  and  C_21
    6  A    between atoms: N_22  and  N_25
                            x       y       z     vdW  Elec       q    Type
                         _______ _______ _______ _____ _____    ______ ____

>  <TORSDO>
F 6

$$$$
