=
 OpenBabel11062418443D

 43 45  0  0  1  0  0  0  0  0999 V2000
  189.6250  174.0220  143.3040 C   0  0  0  0  0  2  0  0  0  0  0  0
  188.6760  174.2790  142.1820 C   0  0  0  0  0  3  0  0  0  0  0  0
  188.5440  175.4950  141.6520 C   0  0  0  0  0  3  0  0  0  0  0  0
  187.5970  175.7400  140.5200 C   0  0  0  0  0  2  0  0  0  0  0  0
  186.1520  177.4430  139.7840 O   0  0  0  0  0  0  0  0  0  0  0  0
  186.9990  177.1170  140.6010 C   0  0  0  0  0  0  0  0  0  0  0  0
  187.4070  178.1140  141.6530 C   0  0  0  0  0  2  0  0  0  0  0  0
  186.2490  178.6510  142.4880 C   0  0  0  0  0  2  0  0  0  0  0  0
  186.5550  178.5590  143.9880 C   0  0  2  0  0  3  0  0  0  0  0  0
  186.9380  177.2780  144.4500 O   0  0  0  0  0  0  0  0  0  0  0  0
  189.3050  177.5810  144.7440 C   0  0  0  0  0  2  0  0  0  0  0  0
  190.3990  177.4630  145.7590 C   0  0  0  0  0  3  0  0  0  0  0  0
  187.8840  176.2110  146.3970 C   0  0  0  0  0  2  0  0  0  0  0  0
  187.9410  177.4100  145.4250 C   0  0  2  0  0  3  0  0  0  0  0  0
  189.2260  175.4880  146.5940 C   0  0  0  0  0  2  0  0  0  0  0  0
  190.3660  176.4610  146.6430 C   0  0  0  0  0  0  0  0  0  0  0  0
  191.3680  176.2880  147.6030 O   0  0  0  0  0  0  0  0  0  0  0  0
  191.5100  177.1360  148.7360 C   0  0  0  0  0  1  0  0  0  0  0  0
  185.5500  179.2810  144.8920 C   0  0  0  0  0  2  0  0  0  0  0  0
  184.4230  178.3760  145.3610 C   0  0  0  0  0  2  0  0  0  0  0  0
  185.5890  179.1110  147.4110 C   0  0  0  0  0  1  0  0  0  0  0  0
  184.4200  178.3130  146.8720 C   0  0  0  0  0  2  0  0  0  0  0  0
  190.8760  174.8710  143.1440 C   0  0  0  0  0  2  0  0  0  0  0  0
  194.9960  172.7820  143.5540 C   0  0  1  0  0  3  0  0  0  0  0  0
  193.1920  175.1080  141.5370 O   0  0  0  0  0  0  0  0  0  0  0  0
  193.7080  173.3840  145.9340 O   0  0  0  0  0  0  0  0  0  0  0  0
  192.1350  173.1850  144.4650 C   0  0  0  0  0  2  0  0  0  0  0  0
  194.7070  174.2940  145.5420 C   0  0  2  0  0  0  0  0  0  0  0  0
  193.1620  174.1510  142.3560 C   0  0  0  0  0  0  0  0  0  0  0  0
  192.5620  173.9280  145.5690 O   0  0  0  0  0  0  0  0  0  0  0  0
  195.4710  174.0370  144.2930 C   0  0  1  0  0  3  0  0  0  0  0  0
  194.2500  173.1060  142.2470 C   0  0  2  0  0  3  0  0  0  0  0  0
  192.0740  174.0540  143.2980 N   0  0  0  0  0  0  0  0  0  0  0  0
  195.9700  173.6820  145.5660 O   0  0  0  0  0  0  0  0  0  0  0  0
  194.7550  175.6630  146.1990 C   0  0  0  0  0  1  0  0  0  0  0  0
  193.8070  171.8620  141.4620 C   0  0  1  0  0  3  0  0  0  0  0  0
  192.8110  171.0020  142.2220 C   0  0  0  0  0  1  0  0  0  0  0  0
  193.2730  172.2260  140.2260 O   0  0  0  0  0  1  0  0  0  0  0  0
  196.1370  171.7730  143.3480 C   0  0  0  0  0  2  0  0  0  0  0  0
  194.5220  170.2830  145.3130 N   0  0  0  0  0  1  0  0  0  0  0  0
  197.3200  170.2250  145.4420 O   0  0  0  0  0  1  0  0  0  0  0  0
  196.0040  170.2670  144.3810 P   0  0  2  0  0  0  0  0  0  0  0  0
  196.0370  169.0360  143.5070 O   0  0  0  0  0  0  0  0  0  0  0  0
  2  1  1  0  0  0  0
  3  2  2  0  0  0  0
  4  6  1  0  0  0  0
  4  3  1  0  0  0  0
  5  6  2  0  0  0  0
  6  7  1  0  0  0  0
  7  8  1  0  0  0  0
  9  8  1  6  0  0  0
  9 10  1  0  0  0  0
  9 19  1  0  0  0  0
 11 14  1  0  0  0  0
 11 12  1  0  0  0  0
 12 16  2  0  0  0  0
 13 15  1  0  0  0  0
 14 10  1  6  0  0  0
 14 13  1  0  0  0  0
 15 16  1  0  0  0  0
 16 17  1  0  0  0  0
 17 18  1  0  0  0  0
 19 20  1  0  0  0  0
 20 22  1  0  0  0  0
 22 21  1  0  0  0  0
 23 33  1  0  0  0  0
 23  1  1  0  0  0  0
 24 39  1  6  0  0  0
 24 31  1  0  0  0  0
 25 29  2  0  0  0  0
 27 30  1  0  0  0  0
 28 34  1  0  0  0  0
 28 26  1  0  0  0  0
 28 35  1  1  0  0  0
 29 33  1  0  0  0  0
 30 26  1  0  0  0  0
 31 28  1  0  0  0  0
 31 34  1  1  0  0  0
 32 36  1  1  0  0  0
 32 29  1  0  0  0  0
 32 24  1  0  0  0  0
 33 27  1  0  0  0  0
 36 37  1  1  0  0  0
 38 36  1  0  0  0  0
 39 42  1  0  0  0  0
 42 43  2  6  0  0  0
 42 40  1  0  0  0  0
 42 41  1  0  0  0  0
M  END
>  <MODEL>
1

>  <REMARK>
 VINA RESULT:      -6.2      0.000      0.000
  Name = 
  17 active torsions:
  status: ('A' for Active; 'I' for Inactive)
    1  A    between atoms: C_1  and  C_35
    2  A    between atoms: O_4  and  C_27
    3  A    between atoms: P_5  and  C_30
    4  A    between atoms: C_8  and  C_13
    5  A    between atoms: C_8  and  C_43
    6  A    between atoms: C_9  and  O_29
    7  A    between atoms: C_9  and  C_34
    8  A    between atoms: C_9  and  C_43
    9  A    between atoms: C_10  and  C_21
   10  A    between atoms: C_11  and  C_30
   11  A    between atoms: C_13  and  C_36
   12  A    between atoms: C_14  and  C_34
   13  A    between atoms: C_14  and  C_40
   14  A    between atoms: C_16  and  C_36
   15  A    between atoms: C_21  and  C_31
   16  A    between atoms: C_22  and  O_29
   17  A    between atoms: C_31  and  N_37
                            x       y       z     vdW  Elec       q    Type
                         _______ _______ _______ _____ _____    ______ ____

>  <TORSDO>
F 17

$$$$
=
 OpenBabel11062418443D

 43 45  0  0  1  0  0  0  0  0999 V2000
  192.1370  174.9330  143.5580 C   0  0  0  0  0  2  0  0  0  0  0  0
  193.3740  175.3990  144.2480 C   0  0  0  0  0  3  0  0  0  0  0  0
  193.8730  174.7410  145.2940 C   0  0  0  0  0  3  0  0  0  0  0  0
  195.1210  175.2110  145.9720 C   0  0  0  0  0  2  0  0  0  0  0  0
  196.7800  174.8290  144.3500 O   0  0  0  0  0  0  0  0  0  0  0  0
  196.3320  174.5000  145.4360 C   0  0  0  0  0  0  0  0  0  0  0  0
  197.0150  173.3890  146.1900 C   0  0  0  0  0  2  0  0  0  0  0  0
  196.3490  172.0260  146.0370 C   0  0  0  0  0  2  0  0  0  0  0  0
  197.1400  171.1240  145.0820 C   0  0  2  0  0  3  0  0  0  0  0  0
  196.6740  171.1000  143.7460 O   0  0  0  0  0  0  0  0  0  0  0  0
  194.5710  169.9590  143.5120 C   0  0  0  0  0  2  0  0  0  0  0  0
  193.1180  170.1930  143.2360 C   0  0  0  0  0  3  0  0  0  0  0  0
  194.9230  172.3660  142.6720 C   0  0  0  0  0  2  0  0  0  0  0  0
  195.2840  171.3000  143.7290 C   0  0  2  0  0  3  0  0  0  0  0  0
  193.8350  171.9340  141.6770 C   0  0  0  0  0  2  0  0  0  0  0  0
  192.7630  171.1350  142.3560 C   0  0  0  0  0  0  0  0  0  0  0  0
  191.4240  171.3890  142.0420 O   0  0  0  0  0  0  0  0  0  0  0  0
  190.4240  171.6010  143.0310 C   0  0  0  0  0  1  0  0  0  0  0  0
  197.4980  169.7470  145.6500 C   0  0  0  0  0  2  0  0  0  0  0  0
  196.9440  169.5250  147.0490 C   0  0  0  0  0  2  0  0  0  0  0  0
  194.6300  168.6960  147.2970 C   0  0  0  0  0  1  0  0  0  0  0  0
  196.0690  168.2910  147.0560 C   0  0  0  0  0  2  0  0  0  0  0  0
  191.3610  176.1180  143.0040 C   0  0  0  0  0  2  0  0  0  0  0  0
  187.0750  176.8540  144.6120 C   0  0  1  0  0  3  0  0  0  0  0  0
  190.2520  178.4260  144.2080 O   0  0  0  0  0  0  0  0  0  0  0  0
  187.2600  175.2190  142.3810 O   0  0  0  0  0  0  0  0  0  0  0  0
  189.1620  175.0300  143.3910 C   0  0  0  0  0  2  0  0  0  0  0  0
  186.9130  176.5570  142.1210 C   0  0  2  0  0  0  0  0  0  0  0  0
  189.5890  177.3580  144.3010 C   0  0  0  0  0  0  0  0  0  0  0  0
  188.5540  175.1280  142.1360 O   0  0  0  0  0  0  0  0  0  0  0  0
  186.7620  177.5010  143.2590 C   0  0  1  0  0  3  0  0  0  0  0  0
  188.3920  177.3620  145.2260 C   0  0  2  0  0  3  0  0  0  0  0  0
  190.0290  176.1810  143.5940 N   0  0  0  0  0  0  0  0  0  0  0  0
  185.6550  176.8570  142.6650 O   0  0  0  0  0  0  0  0  0  0  0  0
  187.0290  177.0850  140.7010 C   0  0  0  0  0  1  0  0  0  0  0  0
  188.7020  176.7630  146.6070 C   0  0  1  0  0  3  0  0  0  0  0  0
  189.0100  175.2770  146.5570 C   0  0  0  0  0  1  0  0  0  0  0  0
  189.7570  177.4460  147.2120 O   0  0  0  0  0  1  0  0  0  0  0  0
  185.8900  176.9620  145.5850 C   0  0  0  0  0  2  0  0  0  0  0  0
  185.9720  179.1850  147.5200 N   0  0  0  0  0  1  0  0  0  0  0  0
  183.6850  178.7450  145.9640 O   0  0  0  0  0  1  0  0  0  0  0  0
  185.3750  178.6800  145.9540 P   0  0  2  0  0  0  0  0  0  0  0  0
  185.8960  179.6170  144.8890 O   0  0  0  0  0  0  0  0  0  0  0  0
  1  2  1  0  0  0  0
  2  3  2  0  0  0  0
  3  4  1  0  0  0  0
  5  6  2  0  0  0  0
  6  4  1  0  0  0  0
  6  7  1  0  0  0  0
  8  7  1  0  0  0  0
  9 19  1  1  0  0  0
  9  8  1  0  0  0  0
 10  9  1  0  0  0  0
 11 14  1  0  0  0  0
 12 11  1  0  0  0  0
 13 14  1  0  0  0  0
 14 10  1  6  0  0  0
 15 16  1  0  0  0  0
 15 13  1  0  0  0  0
 16 12  2  0  0  0  0
 17 16  1  0  0  0  0
 17 18  1  0  0  0  0
 19 20  1  0  0  0  0
 20 22  1  0  0  0  0
 22 21  1  0  0  0  0
 23  1  1  0  0  0  0
 23 33  1  0  0  0  0
 24 32  1  0  0  0  0
 24 39  1  1  0  0  0
 25 29  2  0  0  0  0
 27 33  1  0  0  0  0
 28 35  1  6  0  0  0
 28 26  1  0  0  0  0
 28 34  1  0  0  0  0
 28 31  1  0  0  0  0
 29 32  1  0  0  0  0
 30 26  1  0  0  0  0
 30 27  1  0  0  0  0
 31 34  1  1  0  0  0
 31 24  1  0  0  0  0
 32 36  1  1  0  0  0
 33 29  1  0  0  0  0
 36 37  1  6  0  0  0
 36 38  1  0  0  0  0
 39 42  1  0  0  0  0
 42 43  2  6  0  0  0
 42 41  1  0  0  0  0
 42 40  1  0  0  0  0
M  END
>  <MODEL>
2

>  <REMARK>
 VINA RESULT:      -6.2      3.407     10.039
  Name = 
  17 active torsions:
  status: ('A' for Active; 'I' for Inactive)
    1  A    between atoms: C_1  and  C_35
    2  A    between atoms: O_4  and  C_27
    3  A    between atoms: P_5  and  C_30
    4  A    between atoms: C_8  and  C_13
    5  A    between atoms: C_8  and  C_43
    6  A    between atoms: C_9  and  O_29
    7  A    between atoms: C_9  and  C_34
    8  A    between atoms: C_9  and  C_43
    9  A    between atoms: C_10  and  C_21
   10  A    between atoms: C_11  and  C_30
   11  A    between atoms: C_13  and  C_36
   12  A    between atoms: C_14  and  C_34
   13  A    between atoms: C_14  and  C_40
   14  A    between atoms: C_16  and  C_36
   15  A    between atoms: C_21  and  C_31
   16  A    between atoms: C_22  and  O_29
   17  A    between atoms: C_31  and  N_37
                            x       y       z     vdW  Elec       q    Type
                         _______ _______ _______ _____ _____    ______ ____

>  <TORSDO>
F 17

$$$$
=
 OpenBabel11062418443D

 43 45  0  0  1  0  0  0  0  0999 V2000
  190.7310  173.3210  142.5470 C   0  0  0  0  0  2  0  0  0  0  0  0
  191.5460  173.0830  143.7740 C   0  0  0  0  0  3  0  0  0  0  0  0
  192.6160  172.2890  143.7510 C   0  0  0  0  0  3  0  0  0  0  0  0
  193.4330  172.0660  144.9850 C   0  0  0  0  0  2  0  0  0  0  0  0
  195.1610  171.4060  143.5340 O   0  0  0  0  0  0  0  0  0  0  0  0
  194.8770  171.8270  144.6440 C   0  0  0  0  0  0  0  0  0  0  0  0
  195.9910  172.0870  145.6230 C   0  0  0  0  0  2  0  0  0  0  0  0
  196.8260  173.3240  145.3080 C   0  0  0  0  0  2  0  0  0  0  0  0
  195.9350  174.5390  145.0230 C   0  0  2  0  0  3  0  0  0  0  0  0
  196.4770  175.4900  144.1260 O   0  0  0  0  0  0  0  0  0  0  0  0
  196.9740  176.0190  141.8330 C   0  0  0  0  0  2  0  0  0  0  0  0
  196.5470  175.7240  140.4290 C   0  0  0  0  0  3  0  0  0  0  0  0
  194.7550  174.9180  142.5350 C   0  0  0  0  0  2  0  0  0  0  0  0
  196.2680  175.0630  142.8040 C   0  0  2  0  0  3  0  0  0  0  0  0
  194.2580  175.6570  141.2830 C   0  0  0  0  0  2  0  0  0  0  0  0
  195.2480  175.5540  140.1610 C   0  0  0  0  0  0  0  0  0  0  0  0
  194.7860  175.2950  138.8680 O   0  0  0  0  0  0  0  0  0  0  0  0
  195.6530  175.0050  137.7790 C   0  0  0  0  0  1  0  0  0  0  0  0
  195.2670  175.1470  146.2600 C   0  0  0  0  0  2  0  0  0  0  0  0
  194.4840  176.4120  145.9440 C   0  0  0  0  0  2  0  0  0  0  0  0
  192.5640  175.0990  146.7760 C   0  0  0  0  0  1  0  0  0  0  0  0
  193.0330  176.0610  145.7050 C   0  0  0  0  0  2  0  0  0  0  0  0
  190.7480  174.7960  142.1780 C   0  0  0  0  0  2  0  0  0  0  0  0
  187.7350  177.6070  144.3040 C   0  0  1  0  0  3  0  0  0  0  0  0
  191.1030  177.4330  143.1380 O   0  0  0  0  0  0  0  0  0  0  0  0
  186.6610  175.9250  142.3790 O   0  0  0  0  0  0  0  0  0  0  0  0
  188.4410  174.9230  143.0900 C   0  0  0  0  0  2  0  0  0  0  0  0
  186.9110  177.2430  141.9570 C   0  0  2  0  0  0  0  0  0  0  0  0
  190.0660  176.8240  143.5150 C   0  0  0  0  0  0  0  0  0  0  0  0
  187.6840  175.2090  141.9500 O   0  0  0  0  0  0  0  0  0  0  0  0
  187.4610  178.2250  142.9290 C   0  0  1  0  0  3  0  0  0  0  0  0
  189.2380  177.4660  144.6050 C   0  0  2  0  0  3  0  0  0  0  0  0
  189.7570  175.5300  142.9550 N   0  0  0  0  0  0  0  0  0  0  0  0
  186.0810  178.1470  142.6370 O   0  0  0  0  0  0  0  0  0  0  0  0
  186.9370  177.5470  140.4680 C   0  0  0  0  0  1  0  0  0  0  0  0
  189.5390  176.8950  145.9990 C   0  0  1  0  0  3  0  0  0  0  0  0
  189.4100  177.9270  147.1070 C   0  0  0  0  0  1  0  0  0  0  0  0
  188.7150  175.8030  146.2700 O   0  0  0  0  0  1  0  0  0  0  0  0
  186.9760  178.3400  145.4220 C   0  0  0  0  0  2  0  0  0  0  0  0
  184.1140  178.3450  146.1310 N   0  0  0  0  0  1  0  0  0  0  0  0
  185.9660  176.9730  147.7230 O   0  0  0  0  0  1  0  0  0  0  0  0
  185.5800  177.3890  146.1300 P   0  0  2  0  0  0  0  0  0  0  0  0
  185.3570  176.1250  145.3320 O   0  0  0  0  0  0  0  0  0  0  0  0
  1  2  1  0  0  0  0
  3  2  2  0  0  0  0
  3  4  1  0  0  0  0
  5  6  2  0  0  0  0
  6  4  1  0  0  0  0
  6  7  1  0  0  0  0
  8  7  1  0  0  0  0
  9  8  1  1  0  0  0
  9 19  1  0  0  0  0
 10  9  1  0  0  0  0
 11 14  1  0  0  0  0
 12 11  1  0  0  0  0
 13 14  1  0  0  0  0
 14 10  1  1  0  0  0
 15 13  1  0  0  0  0
 16 12  2  0  0  0  0
 16 15  1  0  0  0  0
 17 16  1  0  0  0  0
 18 17  1  0  0  0  0
 20 19  1  0  0  0  0
 22 20  1  0  0  0  0
 22 21  1  0  0  0  0
 23  1  1  0  0  0  0
 23 33  1  0  0  0  0
 24 32  1  0  0  0  0
 24 39  1  1  0  0  0
 25 29  2  0  0  0  0
 28 35  1  6  0  0  0
 28 26  1  0  0  0  0
 28 34  1  0  0  0  0
 28 31  1  0  0  0  0
 29 32  1  0  0  0  0
 30 26  1  0  0  0  0
 30 27  1  0  0  0  0
 31 34  1  1  0  0  0
 31 24  1  0  0  0  0
 32 36  1  1  0  0  0
 33 27  1  0  0  0  0
 33 29  1  0  0  0  0
 36 38  1  0  0  0  0
 36 37  1  1  0  0  0
 39 42  1  0  0  0  0
 42 43  2  6  0  0  0
 42 40  1  0  0  0  0
 42 41  1  0  0  0  0
M  END
>  <MODEL>
3

>  <REMARK>
 VINA RESULT:      -6.1      3.277      9.071
  Name = 
  17 active torsions:
  status: ('A' for Active; 'I' for Inactive)
    1  A    between atoms: C_1  and  C_35
    2  A    between atoms: O_4  and  C_27
    3  A    between atoms: P_5  and  C_30
    4  A    between atoms: C_8  and  C_13
    5  A    between atoms: C_8  and  C_43
    6  A    between atoms: C_9  and  O_29
    7  A    between atoms: C_9  and  C_34
    8  A    between atoms: C_9  and  C_43
    9  A    between atoms: C_10  and  C_21
   10  A    between atoms: C_11  and  C_30
   11  A    between atoms: C_13  and  C_36
   12  A    between atoms: C_14  and  C_34
   13  A    between atoms: C_14  and  C_40
   14  A    between atoms: C_16  and  C_36
   15  A    between atoms: C_21  and  C_31
   16  A    between atoms: C_22  and  O_29
   17  A    between atoms: C_31  and  N_37
                            x       y       z     vdW  Elec       q    Type
                         _______ _______ _______ _____ _____    ______ ____

>  <TORSDO>
F 17

$$$$
=
 OpenBabel11062418443D

 43 45  0  0  1  0  0  0  0  0999 V2000
  191.4650  174.6810  142.6880 C   0  0  0  0  0  2  0  0  0  0  0  0
  192.6670  174.5570  141.8150 C   0  0  0  0  0  3  0  0  0  0  0  0
  193.6210  175.4890  141.8140 C   0  0  0  0  0  3  0  0  0  0  0  0
  194.8290  175.3500  140.9420 C   0  0  0  0  0  2  0  0  0  0  0  0
  195.0520  173.5050  139.5010 O   0  0  0  0  0  0  0  0  0  0  0  0
  195.1260  173.9050  140.6520 C   0  0  0  0  0  0  0  0  0  0  0  0
  195.5110  172.9280  141.7310 C   0  0  0  0  0  2  0  0  0  0  0  0
  196.8400  173.2390  142.4130 C   0  0  0  0  0  2  0  0  0  0  0  0
  196.6300  173.6760  143.8670 C   0  0  2  0  0  3  0  0  0  0  0  0
  196.3850  175.0570  144.0560 O   0  0  0  0  0  0  0  0  0  0  0  0
  194.3750  174.2270  145.0820 C   0  0  0  0  0  2  0  0  0  0  0  0
  193.3270  174.5770  146.0930 C   0  0  0  0  0  3  0  0  0  0  0  0
  195.0560  176.7060  145.2120 C   0  0  0  0  0  2  0  0  0  0  0  0
  195.5280  175.2370  145.1540 C   0  0  2  0  0  3  0  0  0  0  0  0
  193.5320  176.8830  145.3070 C   0  0  0  0  0  2  0  0  0  0  0  0
  192.9200  175.8460  146.2010 C   0  0  0  0  0  0  0  0  0  0  0  0
  191.9330  176.2310  147.1130 O   0  0  0  0  0  0  0  0  0  0  0  0
  191.5520  175.4330  148.2260 C   0  0  0  0  0  1  0  0  0  0  0  0
  197.6200  173.0700  144.8670 C   0  0  0  0  0  2  0  0  0  0  0  0
  197.5240  171.5540  144.9450 C   0  0  0  0  0  2  0  0  0  0  0  0
  196.6780  169.9160  146.5900 C   0  0  0  0  0  1  0  0  0  0  0  0
  196.3410  171.1660  145.8050 C   0  0  0  0  0  2  0  0  0  0  0  0
  191.0450  176.1380  142.8080 C   0  0  0  0  0  2  0  0  0  0  0  0
  186.7070  177.0170  144.1920 C   0  0  1  0  0  3  0  0  0  0  0  0
  189.9910  178.4100  144.1240 O   0  0  0  0  0  0  0  0  0  0  0  0
  186.9520  175.5520  141.8500 O   0  0  0  0  0  0  0  0  0  0  0  0
  188.7650  175.1650  142.9620 C   0  0  0  0  0  2  0  0  0  0  0  0
  186.7020  176.9260  141.6790 C   0  0  2  0  0  0  0  0  0  0  0  0
  189.2620  177.3830  144.0870 C   0  0  0  0  0  0  0  0  0  0  0  0
  188.2520  175.3990  141.6830 O   0  0  0  0  0  0  0  0  0  0  0  0
  186.5280  177.7860  142.8790 C   0  0  1  0  0  3  0  0  0  0  0  0
  188.0060  177.3900  144.9290 C   0  0  2  0  0  3  0  0  0  0  0  0
  189.6820  176.2390  143.3150 N   0  0  0  0  0  0  0  0  0  0  0  0
  185.4290  177.2610  142.1640 O   0  0  0  0  0  0  0  0  0  0  0  0
  186.9460  177.5550  140.3180 C   0  0  0  0  0  1  0  0  0  0  0  0
  188.1840  176.6680  146.2740 C   0  0  1  0  0  3  0  0  0  0  0  0
  188.8190  175.2950  146.1330 C   0  0  0  0  0  1  0  0  0  0  0  0
  188.9320  177.4480  147.1550 O   0  0  0  0  0  1  0  0  0  0  0  0
  185.4660  177.1230  145.0920 C   0  0  0  0  0  2  0  0  0  0  0  0
  185.5480  179.9830  144.3780 N   0  0  0  0  0  1  0  0  0  0  0  0
  185.8660  179.1770  147.0410 O   0  0  0  0  0  1  0  0  0  0  0  0
  185.0520  178.8330  145.6010 P   0  0  2  0  0  0  0  0  0  0  0  0
  183.5650  178.9580  145.8350 O   0  0  0  0  0  0  0  0  0  0  0  0
  1 23  1  0  0  0  0
  2  1  1  0  0  0  0
  3  2  2  0  0  0  0
  4  3  1  0  0  0  0
  5  6  2  0  0  0  0
  6  4  1  0  0  0  0
  6  7  1  0  0  0  0
  7  8  1  0  0  0  0
  9  8  1  6  0  0  0
  9 10  1  0  0  0  0
  9 19  1  0  0  0  0
 11 14  1  0  0  0  0
 11 12  1  0  0  0  0
 12 16  2  0  0  0  0
 13 15  1  0  0  0  0
 14 10  1  6  0  0  0
 14 13  1  0  0  0  0
 15 16  1  0  0  0  0
 16 17  1  0  0  0  0
 17 18  1  0  0  0  0
 19 20  1  0  0  0  0
 20 22  1  0  0  0  0
 22 21  1  0  0  0  0
 23 33  1  0  0  0  0
 24 32  1  0  0  0  0
 24 39  1  1  0  0  0
 27 33  1  0  0  0  0
 28 35  1  6  0  0  0
 28 26  1  0  0  0  0
 28 34  1  0  0  0  0
 28 31  1  0  0  0  0
 29 25  2  0  0  0  0
 29 32  1  0  0  0  0
 30 26  1  0  0  0  0
 30 27  1  0  0  0  0
 31 34  1  1  0  0  0
 31 24  1  0  0  0  0
 32 36  1  1  0  0  0
 33 29  1  0  0  0  0
 36 37  1  6  0  0  0
 36 38  1  0  0  0  0
 39 42  1  0  0  0  0
 42 40  1  6  0  0  0
 42 43  2  0  0  0  0
 42 41  1  0  0  0  0
M  END
>  <MODEL>
4

>  <REMARK>
 VINA RESULT:      -5.9      3.307      9.275
  Name = 
  17 active torsions:
  status: ('A' for Active; 'I' for Inactive)
    1  A    between atoms: C_1  and  C_35
    2  A    between atoms: O_4  and  C_27
    3  A    between atoms: P_5  and  C_30
    4  A    between atoms: C_8  and  C_13
    5  A    between atoms: C_8  and  C_43
    6  A    between atoms: C_9  and  O_29
    7  A    between atoms: C_9  and  C_34
    8  A    between atoms: C_9  and  C_43
    9  A    between atoms: C_10  and  C_21
   10  A    between atoms: C_11  and  C_30
   11  A    between atoms: C_13  and  C_36
   12  A    between atoms: C_14  and  C_34
   13  A    between atoms: C_14  and  C_40
   14  A    between atoms: C_16  and  C_36
   15  A    between atoms: C_21  and  C_31
   16  A    between atoms: C_22  and  O_29
   17  A    between atoms: C_31  and  N_37
                            x       y       z     vdW  Elec       q    Type
                         _______ _______ _______ _____ _____    ______ ____

>  <TORSDO>
F 17

$$$$
=
 OpenBabel11062418443D

 43 45  0  0  1  0  0  0  0  0999 V2000
  190.8200  173.5860  143.3920 C   0  0  0  0  0  2  0  0  0  0  0  0
  191.9850  173.8370  144.2890 C   0  0  0  0  0  3  0  0  0  0  0  0
  191.8370  174.4630  145.4570 C   0  0  0  0  0  3  0  0  0  0  0  0
  193.0110  174.7010  146.3540 C   0  0  0  0  0  2  0  0  0  0  0  0
  193.6450  176.8200  145.5550 O   0  0  0  0  0  0  0  0  0  0  0  0
  193.9850  175.6610  145.7300 C   0  0  0  0  0  0  0  0  0  0  0  0
  195.3700  175.2460  145.3100 C   0  0  0  0  0  2  0  0  0  0  0  0
  195.6180  175.3210  143.8070 C   0  0  0  0  0  2  0  0  0  0  0  0
  195.9760  173.9450  143.2320 C   0  0  2  0  0  3  0  0  0  0  0  0
  195.7330  173.7860  141.8470 O   0  0  0  0  0  0  0  0  0  0  0  0
  194.1620  172.1560  141.0340 C   0  0  0  0  0  2  0  0  0  0  0  0
  192.7480  172.0020  140.5660 C   0  0  0  0  0  3  0  0  0  0  0  0
  193.7730  174.6870  140.7660 C   0  0  0  0  0  2  0  0  0  0  0  0
  194.3640  173.5550  141.6330 C   0  0  2  0  0  3  0  0  0  0  0  0
  192.9930  174.2030  139.5330 C   0  0  0  0  0  2  0  0  0  0  0  0
  192.1870  172.9780  139.8450 C   0  0  0  0  0  0  0  0  0  0  0  0
  190.8780  172.8850  139.3650 O   0  0  0  0  0  0  0  0  0  0  0  0
  190.4610  171.8890  138.4380 C   0  0  0  0  0  1  0  0  0  0  0  0
  195.5310  172.7570  144.0910 C   0  0  0  0  0  2  0  0  0  0  0  0
  196.6360  171.7330  144.2970 C   0  0  0  0  0  2  0  0  0  0  0  0
  196.4120  170.4470  146.3940 C   0  0  0  0  0  1  0  0  0  0  0  0
  197.0130  171.6840  145.7610 C   0  0  0  0  0  2  0  0  0  0  0  0
  190.5140  174.8230  142.5620 C   0  0  0  0  0  2  0  0  0  0  0  0
  187.4420  177.8580  144.2500 C   0  0  1  0  0  3  0  0  0  0  0  0
  190.8570  177.5410  143.2680 O   0  0  0  0  0  0  0  0  0  0  0  0
  186.4380  175.9980  142.4550 O   0  0  0  0  0  0  0  0  0  0  0  0
  188.1690  175.0600  143.3460 C   0  0  0  0  0  2  0  0  0  0  0  0
  186.7240  177.2650  141.9150 C   0  0  2  0  0  0  0  0  0  0  0  0
  189.7970  176.9800  143.6550 C   0  0  0  0  0  0  0  0  0  0  0  0
  187.4700  175.2350  142.1480 O   0  0  0  0  0  0  0  0  0  0  0  0
  187.2390  178.3360  142.8090 C   0  0  1  0  0  3  0  0  0  0  0  0
  188.9280  177.7360  144.6350 C   0  0  2  0  0  3  0  0  0  0  0  0
  189.4980  175.6400  143.2130 N   0  0  0  0  0  0  0  0  0  0  0  0
  185.8740  178.2400  142.4610 O   0  0  0  0  0  0  0  0  0  0  0  0
  186.8220  177.4170  140.4060 C   0  0  0  0  0  1  0  0  0  0  0  0
  189.1560  177.3060  146.0920 C   0  0  1  0  0  3  0  0  0  0  0  0
  188.6530  175.9030  146.3850 C   0  0  0  0  0  1  0  0  0  0  0  0
  190.5070  177.4050  146.4260 O   0  0  0  0  0  1  0  0  0  0  0  0
  186.6410  178.7050  145.2510 C   0  0  0  0  0  2  0  0  0  0  0  0
  183.8140  178.5890  146.0810 N   0  0  0  0  0  1  0  0  0  0  0  0
  185.8310  177.6620  147.7890 O   0  0  0  0  0  1  0  0  0  0  0  0
  185.3600  177.7720  146.1690 P   0  0  2  0  0  0  0  0  0  0  0  0
  185.2270  176.3790  145.6000 O   0  0  0  0  0  0  0  0  0  0  0  0
  1  2  1  0  0  0  0
  2  3  2  0  0  0  0
  3  4  1  0  0  0  0
  5  6  2  0  0  0  0
  6  4  1  0  0  0  0
  7  6  1  0  0  0  0
  8  7  1  0  0  0  0
  9  8  1  1  0  0  0
  9 19  1  0  0  0  0
 10  9  1  0  0  0  0
 11 14  1  0  0  0  0
 12 11  1  0  0  0  0
 13 14  1  0  0  0  0
 14 10  1  6  0  0  0
 15 16  1  0  0  0  0
 15 13  1  0  0  0  0
 16 12  2  0  0  0  0
 17 16  1  0  0  0  0
 18 17  1  0  0  0  0
 19 20  1  0  0  0  0
 20 22  1  0  0  0  0
 22 21  1  0  0  0  0
 23 33  1  0  0  0  0
 23  1  1  0  0  0  0
 24 32  1  0  0  0  0
 24 39  1  1  0  0  0
 25 29  2  0  0  0  0
 28 35  1  6  0  0  0
 28 26  1  0  0  0  0
 28 34  1  0  0  0  0
 28 31  1  0  0  0  0
 29 32  1  0  0  0  0
 30 26  1  0  0  0  0
 30 27  1  0  0  0  0
 31 34  1  1  0  0  0
 31 24  1  0  0  0  0
 32 36  1  1  0  0  0
 33 27  1  0  0  0  0
 33 29  1  0  0  0  0
 36 37  1  6  0  0  0
 36 38  1  0  0  0  0
 39 42  1  0  0  0  0
 40 42  1  0  0  0  0
 42 43  2  6  0  0  0
 42 41  1  0  0  0  0
M  END
>  <MODEL>
5

>  <REMARK>
 VINA RESULT:      -5.9      3.224      9.406
  Name = 
  17 active torsions:
  status: ('A' for Active; 'I' for Inactive)
    1  A    between atoms: C_1  and  C_35
    2  A    between atoms: O_4  and  C_27
    3  A    between atoms: P_5  and  C_30
    4  A    between atoms: C_8  and  C_13
    5  A    between atoms: C_8  and  C_43
    6  A    between atoms: C_9  and  O_29
    7  A    between atoms: C_9  and  C_34
    8  A    between atoms: C_9  and  C_43
    9  A    between atoms: C_10  and  C_21
   10  A    between atoms: C_11  and  C_30
   11  A    between atoms: C_13  and  C_36
   12  A    between atoms: C_14  and  C_34
   13  A    between atoms: C_14  and  C_40
   14  A    between atoms: C_16  and  C_36
   15  A    between atoms: C_21  and  C_31
   16  A    between atoms: C_22  and  O_29
   17  A    between atoms: C_31  and  N_37
                            x       y       z     vdW  Elec       q    Type
                         _______ _______ _______ _____ _____    ______ ____

>  <TORSDO>
F 17

$$$$
=
 OpenBabel11062418443D

 43 45  0  0  1  0  0  0  0  0999 V2000
  190.3440  173.4880  143.2570 C   0  0  0  0  0  2  0  0  0  0  0  0
  191.6550  173.5140  143.9670 C   0  0  0  0  0  3  0  0  0  0  0  0
  191.8720  174.3410  144.9900 C   0  0  0  0  0  3  0  0  0  0  0  0
  193.1880  174.3510  145.7030 C   0  0  0  0  0  2  0  0  0  0  0  0
  193.3920  176.3340  146.9500 O   0  0  0  0  0  0  0  0  0  0  0  0
  193.6800  175.7560  145.9140 C   0  0  0  0  0  0  0  0  0  0  0  0
  194.5160  176.4810  144.8940 C   0  0  0  0  0  2  0  0  0  0  0  0
  195.8410  175.7970  144.5690 C   0  0  0  0  0  2  0  0  0  0  0  0
  195.7840  175.0920  143.2080 C   0  0  2  0  0  3  0  0  0  0  0  0
  196.9710  174.4250  142.8220 O   0  0  0  0  0  0  0  0  0  0  0  0
  195.4770  172.6020  143.3000 C   0  0  0  0  0  2  0  0  0  0  0  0
  195.3990  171.2880  144.0140 C   0  0  0  0  0  3  0  0  0  0  0  0
  197.6480  172.9800  144.6320 C   0  0  0  0  0  2  0  0  0  0  0  0
  196.9300  173.0940  143.2690 C   0  0  2  0  0  3  0  0  0  0  0  0
  196.8230  172.2900  145.7300 C   0  0  0  0  0  2  0  0  0  0  0  0
  196.0390  171.1370  145.1780 C   0  0  0  0  0  0  0  0  0  0  0  0
  195.9900  169.9400  145.9000 O   0  0  0  0  0  0  0  0  0  0  0  0
  194.9620  169.6420  146.8360 C   0  0  0  0  0  1  0  0  0  0  0  0
  195.1270  175.9090  142.0910 C   0  0  0  0  0  2  0  0  0  0  0  0
  193.8350  175.2850  141.5870 C   0  0  0  0  0  2  0  0  0  0  0  0
  194.0730  173.4100  139.9970 C   0  0  0  0  0  1  0  0  0  0  0  0
  193.9870  174.9160  140.1280 C   0  0  0  0  0  2  0  0  0  0  0  0
  190.1460  174.7710  142.4640 C   0  0  0  0  0  2  0  0  0  0  0  0
  187.2840  177.9790  144.2020 C   0  0  1  0  0  3  0  0  0  0  0  0
  190.6520  177.4720  143.1370 O   0  0  0  0  0  0  0  0  0  0  0  0
  186.1370  176.1610  142.4490 O   0  0  0  0  0  0  0  0  0  0  0  0
  187.8380  175.1390  143.3050 C   0  0  0  0  0  2  0  0  0  0  0  0
  186.4750  177.4070  141.8900 C   0  0  2  0  0  0  0  0  0  0  0  0
  189.5730  176.9720  143.5550 C   0  0  0  0  0  0  0  0  0  0  0  0
  187.1180  175.3420  142.1240 O   0  0  0  0  0  0  0  0  0  0  0  0
  187.0700  178.4550  142.7610 C   0  0  1  0  0  3  0  0  0  0  0  0
  188.7710  177.7810  144.5490 C   0  0  2  0  0  3  0  0  0  0  0  0
  189.1920  175.6460  143.1330 N   0  0  0  0  0  0  0  0  0  0  0  0
  185.6930  178.4290  142.4490 O   0  0  0  0  0  0  0  0  0  0  0  0
  186.5430  177.5420  140.3790 C   0  0  0  0  0  1  0  0  0  0  0  0
  189.0130  177.3500  146.0040 C   0  0  1  0  0  3  0  0  0  0  0  0
  188.5930  175.9170  146.2800 C   0  0  0  0  0  1  0  0  0  0  0  0
  190.3530  177.5270  146.3510 O   0  0  0  0  0  1  0  0  0  0  0  0
  186.5550  178.8750  145.2150 C   0  0  0  0  0  2  0  0  0  0  0  0
  185.8560  177.9590  147.9280 N   0  0  0  0  0  1  0  0  0  0  0  0
  185.1960  176.4050  145.6940 O   0  0  0  0  0  0  0  0  0  0  0  0
  185.3360  177.9930  146.2570 P   0  0  2  0  0  0  0  0  0  0  0  0
  183.9880  178.6680  146.1620 O   0  0  0  0  0  1  0  0  0  0  0  0
  1  2  1  0  0  0  0
  2  3  2  0  0  0  0
  3  4  1  0  0  0  0
  4  6  1  0  0  0  0
  6  5  2  0  0  0  0
  7  6  1  0  0  0  0
  8  7  1  0  0  0  0
  9 19  1  6  0  0  0
  9  8  1  0  0  0  0
 10  9  1  0  0  0  0
 11 12  1  0  0  0  0
 12 16  2  0  0  0  0
 13 15  1  0  0  0  0
 14 10  1  1  0  0  0
 14 11  1  0  0  0  0
 14 13  1  0  0  0  0
 16 15  1  0  0  0  0
 16 17  1  0  0  0  0
 17 18  1  0  0  0  0
 20 19  1  0  0  0  0
 21 22  1  0  0  0  0
 22 20  1  0  0  0  0
 23 33  1  0  0  0  0
 23  1  1  0  0  0  0
 24 32  1  0  0  0  0
 24 39  1  1  0  0  0
 25 29  2  0  0  0  0
 28 35  1  6  0  0  0
 28 34  1  0  0  0  0
 28 26  1  0  0  0  0
 28 31  1  0  0  0  0
 29 32  1  0  0  0  0
 30 26  1  0  0  0  0
 30 27  1  0  0  0  0
 31 34  1  1  0  0  0
 31 24  1  0  0  0  0
 32 36  1  1  0  0  0
 33 27  1  0  0  0  0
 33 29  1  0  0  0  0
 36 37  1  6  0  0  0
 36 38  1  0  0  0  0
 39 42  1  0  0  0  0
 42 41  2  6  0  0  0
 42 40  1  0  0  0  0
 43 42  1  0  0  0  0
M  END
>  <MODEL>
6

>  <REMARK>
 VINA RESULT:      -5.8      3.156      9.226
  Name = 
  17 active torsions:
  status: ('A' for Active; 'I' for Inactive)
    1  A    between atoms: C_1  and  C_35
    2  A    between atoms: O_4  and  C_27
    3  A    between atoms: P_5  and  C_30
    4  A    between atoms: C_8  and  C_13
    5  A    between atoms: C_8  and  C_43
    6  A    between atoms: C_9  and  O_29
    7  A    between atoms: C_9  and  C_34
    8  A    between atoms: C_9  and  C_43
    9  A    between atoms: C_10  and  C_21
   10  A    between atoms: C_11  and  C_30
   11  A    between atoms: C_13  and  C_36
   12  A    between atoms: C_14  and  C_34
   13  A    between atoms: C_14  and  C_40
   14  A    between atoms: C_16  and  C_36
   15  A    between atoms: C_21  and  C_31
   16  A    between atoms: C_22  and  O_29
   17  A    between atoms: C_31  and  N_37
                            x       y       z     vdW  Elec       q    Type
                         _______ _______ _______ _____ _____    ______ ____

>  <TORSDO>
F 17

$$$$
=
 OpenBabel11062418443D

 43 45  0  0  1  0  0  0  0  0999 V2000
  191.9380  174.7710  147.0790 C   0  0  0  0  0  2  0  0  0  0  0  0
  192.7270  175.9030  146.5110 C   0  0  0  0  0  3  0  0  0  0  0  0
  194.0120  175.7570  146.1890 C   0  0  0  0  0  3  0  0  0  0  0  0
  194.7920  176.8960  145.6100 C   0  0  0  0  0  2  0  0  0  0  0  0
  196.4250  177.0800  143.9280 O   0  0  0  0  0  0  0  0  0  0  0  0
  195.4010  176.5210  144.2880 C   0  0  0  0  0  0  0  0  0  0  0  0
  194.7930  175.4800  143.3860 C   0  0  0  0  0  2  0  0  0  0  0  0
  195.6630  174.2430  143.1820 C   0  0  0  0  0  2  0  0  0  0  0  0
  194.8380  172.9560  143.3050 C   0  0  2  0  0  3  0  0  0  0  0  0
  194.3300  172.4440  142.0880 O   0  0  0  0  0  0  0  0  0  0  0  0
  192.2670  171.2800  141.6730 C   0  0  0  0  0  2  0  0  0  0  0  0
  190.8150  171.5060  141.3830 C   0  0  0  0  0  3  0  0  0  0  0  0
  192.5700  173.7740  141.1100 C   0  0  0  0  0  2  0  0  0  0  0  0
  192.9350  172.6070  142.0540 C   0  0  2  0  0  3  0  0  0  0  0  0
  191.5200  173.4250  140.0440 C   0  0  0  0  0  2  0  0  0  0  0  0
  190.4550  172.5280  140.6010 C   0  0  0  0  0  0  0  0  0  0  0  0
  189.1180  172.7800  140.2800 O   0  0  0  0  0  0  0  0  0  0  0  0
  188.5600  174.0870  140.2530 C   0  0  0  0  0  1  0  0  0  0  0  0
  193.8320  172.9490  144.4610 C   0  0  0  0  0  2  0  0  0  0  0  0
  194.2750  172.0720  145.6220 C   0  0  0  0  0  2  0  0  0  0  0  0
  195.5540  170.0230  146.1380 C   0  0  0  0  0  1  0  0  0  0  0  0
  194.6980  170.7180  145.0990 C   0  0  0  0  0  2  0  0  0  0  0  0
  190.6920  175.2920  147.7780 C   0  0  0  0  0  2  0  0  0  0  0  0
  188.1520  177.5790  144.6450 C   0  0  1  0  0  3  0  0  0  0  0  0
  190.0480  178.0430  147.6310 O   0  0  0  0  0  0  0  0  0  0  0  0
  189.6400  175.4520  143.6700 O   0  0  0  0  0  0  0  0  0  0  0  0
  189.2850  174.9970  145.7530 C   0  0  0  0  0  2  0  0  0  0  0  0
  190.2100  176.7240  143.4800 C   0  0  2  0  0  0  0  0  0  0  0  0
  189.3960  177.2640  146.8860 C   0  0  0  0  0  0  0  0  0  0  0  0
  190.2380  174.9440  144.7320 O   0  0  0  0  0  0  0  0  0  0  0  0
  189.4710  177.9270  143.9450 C   0  0  1  0  0  3  0  0  0  0  0  0
  188.1970  177.8340  146.1620 C   0  0  2  0  0  3  0  0  0  0  0  0
  189.7670  175.8720  146.8120 N   0  0  0  0  0  0  0  0  0  0  0  0
  189.4290  177.4900  142.6020 O   0  0  0  0  0  0  0  0  0  0  0  0
  191.6830  176.8250  143.1230 C   0  0  0  0  0  1  0  0  0  0  0  0
  186.8700  177.5400  146.8780 C   0  0  1  0  0  3  0  0  0  0  0  0
  185.9480  178.7450  146.9440 C   0  0  0  0  0  1  0  0  0  0  0  0
  186.2110  176.4720  146.2690 O   0  0  0  0  0  1  0  0  0  0  0  0
  186.9500  178.2550  143.9670 C   0  0  0  0  0  2  0  0  0  0  0  0
  186.6820  177.5490  141.1170 N   0  0  0  0  0  1  0  0  0  0  0  0
  184.4400  177.5410  142.7960 O   0  0  0  0  0  0  0  0  0  0  0  0
  186.0970  177.2080  142.7310 P   0  0  2  0  0  0  0  0  0  0  0  0
  186.3180  175.7480  143.0490 O   0  0  0  0  0  1  0  0  0  0  0  0
  1 23  1  0  0  0  0
  2  1  1  0  0  0  0
  3  2  2  0  0  0  0
  4  3  1  0  0  0  0
  5  6  2  0  0  0  0
  6  4  1  0  0  0  0
  7  6  1  0  0  0  0
  8  7  1  0  0  0  0
  9  8  1  6  0  0  0
  9 19  1  0  0  0  0
 10  9  1  0  0  0  0
 11 14  1  0  0  0  0
 12 11  1  0  0  0  0
 13 14  1  0  0  0  0
 14 10  1  6  0  0  0
 15 16  1  0  0  0  0
 15 13  1  0  0  0  0
 16 12  2  0  0  0  0
 17 16  1  0  0  0  0
 18 17  1  0  0  0  0
 19 20  1  0  0  0  0
 22 20  1  0  0  0  0
 22 21  1  0  0  0  0
 24 39  1  6  0  0  0
 24 32  1  0  0  0  0
 26 30  1  0  0  0  0
 27 33  1  0  0  0  0
 28 35  1  6  0  0  0
 28 26  1  0  0  0  0
 28 31  1  0  0  0  0
 29 25  2  0  0  0  0
 30 27  1  0  0  0  0
 31 34  1  6  0  0  0
 31 24  1  0  0  0  0
 32 36  1  1  0  0  0
 32 29  1  0  0  0  0
 33 29  1  0  0  0  0
 33 23  1  0  0  0  0
 34 28  1  0  0  0  0
 36 37  1  6  0  0  0
 38 36  1  0  0  0  0
 42 40  1  6  0  0  0
 42 41  2  0  0  0  0
 42 43  1  0  0  0  0
 42 39  1  0  0  0  0
M  END
>  <MODEL>
7

>  <REMARK>
 VINA RESULT:      -5.7      3.147      8.971
  Name = 
  17 active torsions:
  status: ('A' for Active; 'I' for Inactive)
    1  A    between atoms: C_1  and  C_35
    2  A    between atoms: O_4  and  C_27
    3  A    between atoms: P_5  and  C_30
    4  A    between atoms: C_8  and  C_13
    5  A    between atoms: C_8  and  C_43
    6  A    between atoms: C_9  and  O_29
    7  A    between atoms: C_9  and  C_34
    8  A    between atoms: C_9  and  C_43
    9  A    between atoms: C_10  and  C_21
   10  A    between atoms: C_11  and  C_30
   11  A    between atoms: C_13  and  C_36
   12  A    between atoms: C_14  and  C_34
   13  A    between atoms: C_14  and  C_40
   14  A    between atoms: C_16  and  C_36
   15  A    between atoms: C_21  and  C_31
   16  A    between atoms: C_22  and  O_29
   17  A    between atoms: C_31  and  N_37
                            x       y       z     vdW  Elec       q    Type
                         _______ _______ _______ _____ _____    ______ ____

>  <TORSDO>
F 17

$$$$
=
 OpenBabel11062418443D

 43 45  0  0  1  0  0  0  0  0999 V2000
  192.3510  175.9150  144.1360 C   0  0  0  0  0  2  0  0  0  0  0  0
  193.7380  176.0680  143.6090 C   0  0  0  0  0  3  0  0  0  0  0  0
  194.7790  176.2130  144.4300 C   0  0  0  0  0  3  0  0  0  0  0  0
  196.1670  176.3550  143.8920 C   0  0  0  0  0  2  0  0  0  0  0  0
  197.4590  174.5340  144.6300 O   0  0  0  0  0  0  0  0  0  0  0  0
  196.8180  175.0130  143.7080 C   0  0  0  0  0  0  0  0  0  0  0  0
  196.7130  174.2340  142.4230 C   0  0  0  0  0  2  0  0  0  0  0  0
  196.8420  172.7230  142.5950 C   0  0  0  0  0  2  0  0  0  0  0  0
  195.5670  172.0010  142.1410 C   0  0  2  0  0  3  0  0  0  0  0  0
  194.8190  172.6650  141.1400 O   0  0  0  0  0  0  0  0  0  0  0  0
  193.1980  171.3320  139.9660 C   0  0  0  0  0  2  0  0  0  0  0  0
  191.7270  171.0720  139.8620 C   0  0  0  0  0  3  0  0  0  0  0  0
  192.5380  173.4390  141.2900 C   0  0  0  0  0  2  0  0  0  0  0  0
  193.4850  172.2250  141.1810 C   0  0  2  0  0  3  0  0  0  0  0  0
  191.4150  173.4660  140.2410 C   0  0  0  0  0  2  0  0  0  0  0  0
  190.8710  172.0910  139.9900 C   0  0  0  0  0  0  0  0  0  0  0  0
  189.4890  171.9150  139.8850 O   0  0  0  0  0  0  0  0  0  0  0  0
  188.5980  172.9640  139.5260 C   0  0  0  0  0  1  0  0  0  0  0  0
  194.7230  171.4170  143.2780 C   0  0  0  0  0  2  0  0  0  0  0  0
  195.3130  171.6940  144.6520 C   0  0  0  0  0  2  0  0  0  0  0  0
  192.9850  172.4820  144.9000 C   0  0  0  0  0  1  0  0  0  0  0  0
  194.4010  172.6290  145.4140 C   0  0  0  0  0  2  0  0  0  0  0  0
  191.3370  176.3780  143.1010 C   0  0  0  0  0  2  0  0  0  0  0  0
  186.9940  176.9260  144.6300 C   0  0  1  0  0  3  0  0  0  0  0  0
  190.1110  178.6300  144.2970 O   0  0  0  0  0  0  0  0  0  0  0  0
  187.2900  175.3150  142.3930 O   0  0  0  0  0  0  0  0  0  0  0  0
  189.1780  175.1980  143.4390 C   0  0  0  0  0  2  0  0  0  0  0  0
  186.8930  176.6390  142.1340 C   0  0  2  0  0  0  0  0  0  0  0  0
  189.4910  177.5360  144.3710 C   0  0  0  0  0  0  0  0  0  0  0  0
  188.5910  175.2790  142.1730 O   0  0  0  0  0  0  0  0  0  0  0  0
  186.6820  177.5690  143.2750 C   0  0  1  0  0  3  0  0  0  0  0  0
  188.2770  177.4830  145.2720 C   0  0  2  0  0  3  0  0  0  0  0  0
  189.9940  176.3820  143.6660 N   0  0  0  0  0  0  0  0  0  0  0  0
  185.6140  176.8830  142.6550 O   0  0  0  0  0  0  0  0  0  0  0  0
  187.0140  177.1810  140.7200 C   0  0  0  0  0  1  0  0  0  0  0  0
  188.5850  176.8890  146.6560 C   0  0  1  0  0  3  0  0  0  0  0  0
  188.8370  175.3910  146.6190 C   0  0  0  0  0  1  0  0  0  0  0  0
  189.6730  177.5390  147.2370 O   0  0  0  0  0  1  0  0  0  0  0  0
  185.7870  176.9790  145.5800 C   0  0  0  0  0  2  0  0  0  0  0  0
  185.6000  179.7680  144.6440 N   0  0  0  0  0  1  0  0  0  0  0  0
  185.9370  179.2060  147.3670 O   0  0  0  0  0  1  0  0  0  0  0  0
  185.1930  178.6710  145.9460 P   0  0  2  0  0  0  0  0  0  0  0  0
  183.6960  178.6630  146.1490 O   0  0  0  0  0  0  0  0  0  0  0  0
  2  1  1  0  0  0  0
  2  3  2  0  0  0  0
  4  3  1  0  0  0  0
  6  4  1  0  0  0  0
  6  5  2  0  0  0  0
  7  8  1  0  0  0  0
  7  6  1  0  0  0  0
  9  8  1  1  0  0  0
  9 19  1  0  0  0  0
 10  9  1  0  0  0  0
 11 14  1  0  0  0  0
 12 11  1  0  0  0  0
 12 16  2  0  0  0  0
 14 10  1  6  0  0  0
 14 13  1  0  0  0  0
 15 13  1  0  0  0  0
 16 15  1  0  0  0  0
 17 16  1  0  0  0  0
 18 17  1  0  0  0  0
 19 20  1  0  0  0  0
 20 22  1  0  0  0  0
 21 22  1  0  0  0  0
 23 33  1  0  0  0  0
 23  1  1  0  0  0  0
 24 32  1  0  0  0  0
 24 39  1  1  0  0  0
 25 29  2  0  0  0  0
 27 33  1  0  0  0  0
 28 35  1  6  0  0  0
 28 26  1  0  0  0  0
 28 34  1  0  0  0  0
 28 31  1  0  0  0  0
 29 32  1  0  0  0  0
 30 26  1  0  0  0  0
 30 27  1  0  0  0  0
 31 34  1  1  0  0  0
 31 24  1  0  0  0  0
 32 36  1  1  0  0  0
 33 29  1  0  0  0  0
 36 37  1  6  0  0  0
 36 38  1  0  0  0  0
 39 42  1  0  0  0  0
 42 40  1  6  0  0  0
 42 43  2  0  0  0  0
 42 41  1  0  0  0  0
M  END
>  <MODEL>
8

>  <REMARK>
 VINA RESULT:      -5.7      3.279      9.589
  Name = 
  17 active torsions:
  status: ('A' for Active; 'I' for Inactive)
    1  A    between atoms: C_1  and  C_35
    2  A    between atoms: O_4  and  C_27
    3  A    between atoms: P_5  and  C_30
    4  A    between atoms: C_8  and  C_13
    5  A    between atoms: C_8  and  C_43
    6  A    between atoms: C_9  and  O_29
    7  A    between atoms: C_9  and  C_34
    8  A    between atoms: C_9  and  C_43
    9  A    between atoms: C_10  and  C_21
   10  A    between atoms: C_11  and  C_30
   11  A    between atoms: C_13  and  C_36
   12  A    between atoms: C_14  and  C_34
   13  A    between atoms: C_14  and  C_40
   14  A    between atoms: C_16  and  C_36
   15  A    between atoms: C_21  and  C_31
   16  A    between atoms: C_22  and  O_29
   17  A    between atoms: C_31  and  N_37
                            x       y       z     vdW  Elec       q    Type
                         _______ _______ _______ _____ _____    ______ ____

>  <TORSDO>
F 17

$$$$
=
 OpenBabel11062418443D

 43 45  0  0  1  0  0  0  0  0999 V2000
  188.1600  173.6780  142.1960 C   0  0  0  0  0  2  0  0  0  0  0  0
  187.7540  175.0860  141.9200 C   0  0  0  0  0  3  0  0  0  0  0  0
  188.6110  176.0960  142.0730 C   0  0  0  0  0  3  0  0  0  0  0  0
  188.1970  177.5040  141.7820 C   0  0  0  0  0  2  0  0  0  0  0  0
  186.1280  178.4270  142.4120 O   0  0  0  0  0  0  0  0  0  0  0  0
  187.2050  177.9980  142.7970 C   0  0  0  0  0  0  0  0  0  0  0  0
  187.4880  177.9870  144.2760 C   0  0  0  0  0  2  0  0  0  0  0  0
  186.9500  176.7610  145.0070 C   0  0  0  0  0  2  0  0  0  0  0  0
  187.3900  176.7530  146.4760 C   0  0  2  0  0  3  0  0  0  0  0  0
  188.2440  175.6870  146.8460 O   0  0  0  0  0  0  0  0  0  0  0  0
  189.7620  174.2810  145.6200 C   0  0  0  0  0  2  0  0  0  0  0  0
  191.1200  174.2660  144.9910 C   0  0  0  0  0  3  0  0  0  0  0  0
  190.5370  176.4370  146.7930 C   0  0  0  0  0  2  0  0  0  0  0  0
  189.3980  175.7090  146.0460 C   0  0  2  0  0  3  0  0  0  0  0  0
  191.8550  175.6500  146.8670 C   0  0  0  0  0  2  0  0  0  0  0  0
  192.1240  174.9170  145.5870 C   0  0  0  0  0  0  0  0  0  0  0  0
  193.4180  174.9260  145.0570 O   0  0  0  0  0  0  0  0  0  0  0  0
  193.9400  176.0130  144.3050 C   0  0  0  0  0  1  0  0  0  0  0  0
  186.2700  177.0420  147.4810 C   0  0  0  0  0  2  0  0  0  0  0  0
  184.9160  177.2290  146.8170 C   0  0  0  0  0  2  0  0  0  0  0  0
  184.0350  179.0390  145.3850 C   0  0  0  0  0  1  0  0  0  0  0  0
  184.5810  178.7020  146.7570 C   0  0  0  0  0  2  0  0  0  0  0  0
  188.2570  172.8900  140.8990 C   0  0  0  0  0  2  0  0  0  0  0  0
  192.5550  172.3390  139.2470 C   0  0  1  0  0  3  0  0  0  0  0  0
  190.2740  171.0650  141.6770 O   0  0  0  0  0  0  0  0  0  0  0  0
  190.6340  173.0760  137.3880 O   0  0  0  0  0  0  0  0  0  0  0  0
  189.9070  173.8100  139.2870 C   0  0  0  0  0  2  0  0  0  0  0  0
  190.9480  171.7050  137.4190 C   0  0  2  0  0  0  0  0  0  0  0  0
  190.6240  172.0200  140.9340 C   0  0  0  0  0  0  0  0  0  0  0  0
  189.5220  173.2070  138.0860 O   0  0  0  0  0  0  0  0  0  0  0  0
  191.9880  171.2210  138.3650 C   0  0  1  0  0  3  0  0  0  0  0  0
  192.1070  172.2240  140.7160 C   0  0  2  0  0  3  0  0  0  0  0  0
  189.6230  172.9050  140.3910 N   0  0  0  0  0  0  0  0  0  0  0  0
  192.2730  171.4920  137.0090 O   0  0  0  0  0  0  0  0  0  0  0  0
  190.0080  170.7190  136.7480 C   0  0  0  0  0  1  0  0  0  0  0  0
  192.7030  173.3060  141.6300 C   0  0  1  0  0  3  0  0  0  0  0  0
  194.1160  172.9870  142.0870 C   0  0  0  0  0  1  0  0  0  0  0  0
  192.6770  174.5490  140.9990 O   0  0  0  0  0  1  0  0  0  0  0  0
  194.0800  172.4640  139.1020 C   0  0  0  0  0  2  0  0  0  0  0  0
  193.2540  174.9190  137.6950 N   0  0  0  0  0  1  0  0  0  0  0  0
  195.4700  173.4540  136.8080 O   0  0  0  0  0  0  0  0  0  0  0  0
  194.6280  173.9520  138.1870 P   0  0  2  0  0  0  0  0  0  0  0  0
  195.5460  174.7820  139.0510 O   0  0  0  0  0  1  0  0  0  0  0  0
  2  3  2  0  0  0  0
  2  1  1  0  0  0  0
  4  3  1  0  0  0  0
  4  6  1  0  0  0  0
  5  6  2  0  0  0  0
  6  7  1  0  0  0  0
  7  8  1  0  0  0  0
  9  8  1  6  0  0  0
  9 10  1  0  0  0  0
  9 19  1  0  0  0  0
 11 14  1  0  0  0  0
 12 16  2  0  0  0  0
 12 11  1  0  0  0  0
 13 15  1  0  0  0  0
 14 13  1  0  0  0  0
 14 10  1  1  0  0  0
 16 15  1  0  0  0  0
 17 16  1  0  0  0  0
 18 17  1  0  0  0  0
 20 19  1  0  0  0  0
 21 22  1  0  0  0  0
 22 20  1  0  0  0  0
 23  1  1  0  0  0  0
 24 39  1  1  0  0  0
 24 32  1  0  0  0  0
 26 28  1  0  0  0  0
 26 30  1  0  0  0  0
 27 33  1  0  0  0  0
 28 35  1  6  0  0  0
 28 31  1  0  0  0  0
 29 25  2  0  0  0  0
 30 27  1  0  0  0  0
 31 34  1  6  0  0  0
 31 24  1  0  0  0  0
 32 29  1  0  0  0  0
 32 36  1  1  0  0  0
 33 23  1  0  0  0  0
 33 29  1  0  0  0  0
 34 28  1  0  0  0  0
 36 37  1  6  0  0  0
 38 36  1  0  0  0  0
 40 42  1  0  0  0  0
 42 41  2  6  0  0  0
 42 43  1  0  0  0  0
 42 39  1  0  0  0  0
M  END
>  <MODEL>
9

>  <REMARK>
 VINA RESULT:      -5.6      2.886      5.149
  Name = 
  17 active torsions:
  status: ('A' for Active; 'I' for Inactive)
    1  A    between atoms: C_1  and  C_35
    2  A    between atoms: O_4  and  C_27
    3  A    between atoms: P_5  and  C_30
    4  A    between atoms: C_8  and  C_13
    5  A    between atoms: C_8  and  C_43
    6  A    between atoms: C_9  and  O_29
    7  A    between atoms: C_9  and  C_34
    8  A    between atoms: C_9  and  C_43
    9  A    between atoms: C_10  and  C_21
   10  A    between atoms: C_11  and  C_30
   11  A    between atoms: C_13  and  C_36
   12  A    between atoms: C_14  and  C_34
   13  A    between atoms: C_14  and  C_40
   14  A    between atoms: C_16  and  C_36
   15  A    between atoms: C_21  and  C_31
   16  A    between atoms: C_22  and  O_29
   17  A    between atoms: C_31  and  N_37
                            x       y       z     vdW  Elec       q    Type
                         _______ _______ _______ _____ _____    ______ ____

>  <TORSDO>
F 17

$$$$
