=
 OpenBabel11062419553D

 28 30  0  0  1  0  0  0  0  0999 V2000
  185.9440  176.5050  147.5020 O   0  0  0  0  0  1  0  0  0  0  0  0
  185.0430  178.1000  141.0040 C   0  0  0  0  0  2  0  0  0  0  0  0
  186.4180  177.5410  140.8380 C   0  0  0  0  0  3  0  0  0  0  0  0
  185.9510  176.8180  146.1410 C   0  0  1  0  0  3  0  0  0  0  0  0
  187.5250  176.8930  144.2630 C   0  0  0  0  0  3  0  0  0  0  0  0
  185.4630  178.2370  145.9520 C   0  0  0  0  0  2  0  0  0  0  0  0
  184.8090  178.5520  142.3730 N   0  0  0  0  0  0  0  0  0  0  0  0
  187.0550  176.9600  141.8600 C   0  0  0  0  0  0  0  0  0  0  0  0
  185.3740  178.0290  143.4220 C   0  0  0  0  0  0  0  0  0  0  0  0
  186.4220  176.9230  143.2370 C   0  0  2  0  0  3  0  0  0  0  0  0
  187.3390  176.7680  145.5840 C   0  0  0  0  0  0  0  0  0  0  0  0
  184.8730  178.4360  144.6710 O   0  0  0  0  0  0  0  0  0  0  0  0
  188.5280  176.6870  146.5080 C   0  0  1  0  0  3  0  0  0  0  0  0
  188.8920  175.2380  146.7970 C   0  0  0  0  0  1  0  0  0  0  0  0
  189.7200  177.4490  145.9410 C   0  0  0  0  0  2  0  0  0  0  0  0
  191.5160  176.0810  145.1790 O   0  0  0  0  0  0  0  0  0  0  0  0
  190.9830  176.6860  146.1450 C   0  0  0  0  0  0  0  0  0  0  0  0
  191.5910  176.6690  147.3930 O   0  0  0  0  0  1  0  0  0  0  0  0
  188.3080  176.3550  141.6660 O   0  0  0  0  0  0  0  0  0  0  0  0
  188.5010  174.9480  141.5730 C   0  0  1  0  0  3  0  0  0  0  0  0
  188.5530  174.5280  140.1060 C   0  0  0  0  0  2  0  0  0  0  0  0
  189.7800  174.5850  142.2690 C   0  0  0  0  0  3  0  0  0  0  0  0
  190.2470  173.3310  142.3540 C   0  0  0  0  0  3  0  0  0  0  0  0
  188.1950  173.1210  139.9720 N   0  0  0  0  0  2  0  0  0  0  0  0
  189.3720  172.3090  140.2570 C   0  0  0  0  0  2  0  0  0  0  0  0
  189.5460  172.1410  141.7630 C   0  0  1  0  0  3  0  0  0  0  0  0
  190.3360  170.9380  142.0280 C   0  0  0  0  0  0  0  0  0  0  0  0
  190.9620  169.9870  142.2360 N   0  0  0  0  0  0  0  0  0  0  0  0
  2  7  1  0  0  0  0
  3  2  1  0  0  0  0
  3  8  2  0  0  0  0
  4  1  1  1  0  0  0
  5 11  2  0  0  0  0
  6  4  1  0  0  0  0
  7  9  2  0  0  0  0
  8 10  1  0  0  0  0
  9 12  1  0  0  0  0
 10  9  1  0  0  0  0
 10  5  1  1  0  0  0
 11  4  1  0  0  0  0
 11 13  1  0  0  0  0
 12  6  1  0  0  0  0
 13 14  1  6  0  0  0
 15 17  1  0  0  0  0
 15 13  1  0  0  0  0
 16 17  2  0  0  0  0
 17 18  1  0  0  0  0
 19  8  1  0  0  0  0
 20 19  1  6  0  0  0
 20 22  1  0  0  0  0
 21 20  1  0  0  0  0
 22 23  2  0  0  0  0
 24 21  1  0  0  0  0
 24 25  1  0  0  0  0
 25 26  1  0  0  0  0
 26 27  1  6  0  0  0
 26 23  1  0  0  0  0
 27 28  3  0  0  0  0
M  END
>  <MODEL>
1

>  <REMARK>
 VINA RESULT:      -6.9      0.000      0.000
  Name = 
  6 active torsions:
  status: ('A' for Active; 'I' for Inactive)
    1  A    between atoms: C_5  and  O_12
    2  A    between atoms: C_8  and  C_20
    3  A    between atoms: O_12  and  C_13
    4  A    between atoms: C_20  and  C_21
    5  A    between atoms: C_21  and  C_22
    6  A    between atoms: C_23  and  C_26
                            x       y       z     vdW  Elec       q    Type
                         _______ _______ _______ _____ _____    ______ ____

>  <TORSDO>
F 6

$$$$
=
 OpenBabel11062419553D

 28 30  0  0  1  0  0  0  0  0999 V2000
  185.6050  179.3150  144.7520 O   0  0  0  0  0  1  0  0  0  0  0  0
  189.9440  174.9290  147.4930 C   0  0  0  0  0  2  0  0  0  0  0  0
  190.6900  175.1070  146.2120 C   0  0  0  0  0  3  0  0  0  0  0  0
  186.5700  178.3830  145.1380 C   0  0  1  0  0  3  0  0  0  0  0  0
  188.4530  177.1510  144.1640 C   0  0  0  0  0  3  0  0  0  0  0  0
  185.8850  177.1510  145.6860 C   0  0  0  0  0  2  0  0  0  0  0  0
  188.5260  175.2440  147.3360 N   0  0  0  0  0  0  0  0  0  0  0  0
  190.2930  176.0000  145.3000 C   0  0  0  0  0  0  0  0  0  0  0  0
  188.0600  176.1140  146.4870 C   0  0  0  0  0  0  0  0  0  0  0  0
  189.0260  176.8040  145.5140 C   0  0  2  0  0  3  0  0  0  0  0  0
  187.3820  177.9320  143.9640 C   0  0  0  0  0  0  0  0  0  0  0  0
  186.7030  176.4520  146.6200 O   0  0  0  0  0  0  0  0  0  0  0  0
  186.9410  178.2590  142.5610 C   0  0  1  0  0  3  0  0  0  0  0  0
  188.1280  178.2850  141.6100 C   0  0  0  0  0  1  0  0  0  0  0  0
  185.8720  177.2860  142.0780 C   0  0  0  0  0  2  0  0  0  0  0  0
  183.6650  178.1400  142.3610 O   0  0  0  0  0  1  0  0  0  0  0  0
  184.6640  178.0190  141.6050 C   0  0  0  0  0  0  0  0  0  0  0  0
  184.6510  178.5970  140.3420 O   0  0  0  0  0  0  0  0  0  0  0  0
  191.0580  176.2230  144.1430 O   0  0  0  0  0  0  0  0  0  0  0  0
  192.3160  175.6040  143.8940 C   0  0  1  0  0  3  0  0  0  0  0  0
  192.4570  175.3000  142.4040 C   0  0  0  0  0  2  0  0  0  0  0  0
  193.4110  176.5250  144.3480 C   0  0  0  0  0  3  0  0  0  0  0  0
  194.7150  176.2320  144.2450 C   0  0  0  0  0  3  0  0  0  0  0  0
  193.4140  174.2200  142.2000 N   0  0  0  0  0  2  0  0  0  0  0  0
  194.7610  174.7760  142.2240 C   0  0  0  0  0  2  0  0  0  0  0  0
  195.2350  174.9480  143.6640 C   0  0  1  0  0  3  0  0  0  0  0  0
  196.6980  174.9670  143.6930 C   0  0  0  0  0  0  0  0  0  0  0  0
  197.8550  174.9810  143.7180 N   0  0  0  0  0  0  0  0  0  0  0  0
  3  2  1  0  0  0  0
  4  1  1  6  0  0  0
  4  6  1  0  0  0  0
  6 12  1  0  0  0  0
  7  2  1  0  0  0  0
  8 10  1  0  0  0  0
  8  3  2  0  0  0  0
  9 12  1  0  0  0  0
  9  7  2  0  0  0  0
 10  5  1  6  0  0  0
 10  9  1  0  0  0  0
 11  5  2  0  0  0  0
 11  4  1  0  0  0  0
 13 14  1  6  0  0  0
 13 11  1  0  0  0  0
 15 13  1  0  0  0  0
 17 15  1  0  0  0  0
 17 16  1  0  0  0  0
 18 17  2  0  0  0  0
 19  8  1  0  0  0  0
 20 19  1  6  0  0  0
 20 22  1  0  0  0  0
 21 20  1  0  0  0  0
 23 22  2  0  0  0  0
 24 25  1  0  0  0  0
 24 21  1  0  0  0  0
 25 26  1  0  0  0  0
 26 27  1  6  0  0  0
 26 23  1  0  0  0  0
 27 28  3  0  0  0  0
M  END
>  <MODEL>
2

>  <REMARK>
 VINA RESULT:      -6.9      3.437      5.839
  Name = 
  6 active torsions:
  status: ('A' for Active; 'I' for Inactive)
    1  A    between atoms: C_5  and  O_12
    2  A    between atoms: C_8  and  C_20
    3  A    between atoms: O_12  and  C_13
    4  A    between atoms: C_20  and  C_21
    5  A    between atoms: C_21  and  C_22
    6  A    between atoms: C_23  and  C_26
                            x       y       z     vdW  Elec       q    Type
                         _______ _______ _______ _____ _____    ______ ____

>  <TORSDO>
F 6

$$$$
=
 OpenBabel11062419553D

 28 30  0  0  1  0  0  0  0  0999 V2000
  188.1960  178.2910  141.0710 O   0  0  0  0  0  1  0  0  0  0  0  0
  185.5660  178.8820  147.2610 C   0  0  0  0  0  2  0  0  0  0  0  0
  186.3380  177.6350  147.5380 C   0  0  0  0  0  3  0  0  0  0  0  0
  187.7020  178.2260  142.3750 C   0  0  1  0  0  3  0  0  0  0  0  0
  187.6520  176.6650  144.2650 C   0  0  0  0  0  3  0  0  0  0  0  0
  186.2040  178.4440  142.3540 C   0  0  0  0  0  2  0  0  0  0  0  0
  185.2760  179.0290  145.8370 N   0  0  0  0  0  0  0  0  0  0  0  0
  187.1640  177.1150  146.6230 C   0  0  0  0  0  0  0  0  0  0  0  0
  186.0360  178.5700  144.8850 C   0  0  0  0  0  0  0  0  0  0  0  0
  187.2780  177.7440  145.2480 C   0  0  2  0  0  3  0  0  0  0  0  0
  187.9260  176.8710  142.9700 C   0  0  0  0  0  0  0  0  0  0  0  0
  185.7230  178.9870  143.5800 O   0  0  0  0  0  0  0  0  0  0  0  0
  188.3520  175.7170  142.0980 C   0  0  1  0  0  3  0  0  0  0  0  0
  189.8390  175.4370  142.2570 C   0  0  0  0  0  1  0  0  0  0  0  0
  187.5240  174.4710  142.3880 C   0  0  0  0  0  2  0  0  0  0  0  0
  188.5540  172.3230  142.4520 O   0  0  0  0  0  1  0  0  0  0  0  0
  188.1280  173.2720  141.7430 C   0  0  0  0  0  0  0  0  0  0  0  0
  188.1910  173.1840  140.3590 O   0  0  0  0  0  0  0  0  0  0  0  0
  187.9540  175.9960  146.9320 O   0  0  0  0  0  0  0  0  0  0  0  0
  189.2970  175.8300  146.4890 C   0  0  1  0  0  3  0  0  0  0  0  0
  190.2600  176.1220  147.6380 C   0  0  0  0  0  2  0  0  0  0  0  0
  189.4770  174.4220  145.9980 C   0  0  0  0  0  3  0  0  0  0  0  0
  190.6360  173.9480  145.5190 C   0  0  0  0  0  3  0  0  0  0  0  0
  191.5660  176.5010  147.1140 N   0  0  0  0  0  2  0  0  0  0  0  0
  192.3100  175.2900  146.7860 C   0  0  0  0  0  2  0  0  0  0  0  0
  191.8900  174.7680  145.4160 C   0  0  1  0  0  3  0  0  0  0  0  0
  192.9620  173.9370  144.8650 C   0  0  0  0  0  0  0  0  0  0  0  0
  193.8090  173.2810  144.4280 N   0  0  0  0  0  0  0  0  0  0  0  0
  2  3  1  0  0  0  0
  4  1  1  6  0  0  0
  4 11  1  0  0  0  0
  6  4  1  0  0  0  0
  6 12  1  0  0  0  0
  7  2  1  0  0  0  0
  8 19  1  0  0  0  0
  8  3  2  0  0  0  0
  9 10  1  0  0  0  0
  9  7  2  0  0  0  0
 10  5  1  6  0  0  0
 10  8  1  0  0  0  0
 11  5  2  0  0  0  0
 12  9  1  0  0  0  0
 13 14  1  1  0  0  0
 13 15  1  0  0  0  0
 13 11  1  0  0  0  0
 17 15  1  0  0  0  0
 17 16  1  0  0  0  0
 18 17  2  0  0  0  0
 20 19  1  1  0  0  0
 20 21  1  0  0  0  0
 22 20  1  0  0  0  0
 23 22  2  0  0  0  0
 24 21  1  0  0  0  0
 25 24  1  0  0  0  0
 26 27  1  1  0  0  0
 26 23  1  0  0  0  0
 26 25  1  0  0  0  0
 28 27  3  0  0  0  0
M  END
>  <MODEL>
3

>  <REMARK>
 VINA RESULT:      -6.9      2.658      5.275
  Name = 
  6 active torsions:
  status: ('A' for Active; 'I' for Inactive)
    1  A    between atoms: C_5  and  O_12
    2  A    between atoms: C_8  and  C_20
    3  A    between atoms: O_12  and  C_13
    4  A    between atoms: C_20  and  C_21
    5  A    between atoms: C_21  and  C_22
    6  A    between atoms: C_23  and  C_26
                            x       y       z     vdW  Elec       q    Type
                         _______ _______ _______ _____ _____    ______ ____

>  <TORSDO>
F 6

$$$$
=
 OpenBabel11062419553D

 28 30  0  0  1  0  0  0  0  0999 V2000
  185.6250  179.9250  144.6320 O   0  0  0  0  0  1  0  0  0  0  0  0
  189.2660  174.8620  147.2180 C   0  0  0  0  0  2  0  0  0  0  0  0
  189.7300  174.6850  145.8100 C   0  0  0  0  0  3  0  0  0  0  0  0
  186.3960  178.8150  144.9830 C   0  0  1  0  0  3  0  0  0  0  0  0
  187.6600  177.0160  143.8980 C   0  0  0  0  0  3  0  0  0  0  0  0
  185.5710  177.8860  145.8460 C   0  0  0  0  0  2  0  0  0  0  0  0
  187.9690  175.5320  147.2750 N   0  0  0  0  0  0  0  0  0  0  0  0
  189.3710  175.5440  144.8510 C   0  0  0  0  0  0  0  0  0  0  0  0
  187.5520  176.3930  146.3930 C   0  0  0  0  0  0  0  0  0  0  0  0
  188.4160  176.6810  145.1580 C   0  0  2  0  0  3  0  0  0  0  0  0
  186.7940  178.0310  143.7720 C   0  0  0  0  0  0  0  0  0  0  0  0
  186.3810  177.1010  146.7160 O   0  0  0  0  0  0  0  0  0  0  0  0
  186.1450  178.3060  142.4400 C   0  0  1  0  0  3  0  0  0  0  0  0
  187.1510  178.1660  141.3070 C   0  0  0  0  0  1  0  0  0  0  0  0
  184.9380  177.4020  142.2170 C   0  0  0  0  0  2  0  0  0  0  0  0
  182.9170  178.6150  142.5730 O   0  0  0  0  0  1  0  0  0  0  0  0
  183.7660  178.1920  141.7450 C   0  0  0  0  0  0  0  0  0  0  0  0
  183.6260  178.4910  140.3960 O   0  0  0  0  0  0  0  0  0  0  0  0
  189.8910  175.4190  143.5520 O   0  0  0  0  0  0  0  0  0  0  0  0
  189.7860  174.2350  142.7680 C   0  0  1  0  0  3  0  0  0  0  0  0
  188.8250  174.4690  141.6040 C   0  0  0  0  0  2  0  0  0  0  0  0
  191.1490  173.8660  142.2580 C   0  0  0  0  0  3  0  0  0  0  0  0
  191.3850  172.7990  141.4820 C   0  0  0  0  0  3  0  0  0  0  0  0
  188.2790  173.1990  141.1410 N   0  0  0  0  0  2  0  0  0  0  0  0
  189.2390  172.5770  140.2360 C   0  0  0  0  0  2  0  0  0  0  0  0
  190.3160  171.8460  141.0310 C   0  0  1  0  0  3  0  0  0  0  0  0
  190.9190  170.8110  140.1900 C   0  0  0  0  0  0  0  0  0  0  0  0
  191.3950  169.9910  139.5270 N   0  0  0  0  0  0  0  0  0  0  0  0
  2  7  1  0  0  0  0
  3  2  1  0  0  0  0
  4  1  1  6  0  0  0
  4  6  1  0  0  0  0
  6 12  1  0  0  0  0
  8 10  1  0  0  0  0
  8  3  2  0  0  0  0
  9 12  1  0  0  0  0
  9  7  2  0  0  0  0
 10  5  1  6  0  0  0
 10  9  1  0  0  0  0
 11  5  2  0  0  0  0
 11  4  1  0  0  0  0
 13 14  1  6  0  0  0
 13 11  1  0  0  0  0
 15 13  1  0  0  0  0
 17 15  1  0  0  0  0
 17 16  1  0  0  0  0
 18 17  2  0  0  0  0
 19  8  1  0  0  0  0
 20 19  1  6  0  0  0
 21 20  1  0  0  0  0
 22 20  1  0  0  0  0
 23 22  2  0  0  0  0
 24 21  1  0  0  0  0
 25 26  1  0  0  0  0
 25 24  1  0  0  0  0
 26 27  1  6  0  0  0
 26 23  1  0  0  0  0
 28 27  3  0  0  0  0
M  END
>  <MODEL>
4

>  <REMARK>
 VINA RESULT:      -6.7      2.060      4.799
  Name = 
  6 active torsions:
  status: ('A' for Active; 'I' for Inactive)
    1  A    between atoms: C_5  and  O_12
    2  A    between atoms: C_8  and  C_20
    3  A    between atoms: O_12  and  C_13
    4  A    between atoms: C_20  and  C_21
    5  A    between atoms: C_21  and  C_22
    6  A    between atoms: C_23  and  C_26
                            x       y       z     vdW  Elec       q    Type
                         _______ _______ _______ _____ _____    ______ ____

>  <TORSDO>
F 6

$$$$
=
 OpenBabel11062419553D

 28 30  0  0  1  0  0  0  0  0999 V2000
  196.1120  176.4770  142.6410 O   0  0  0  0  0  1  0  0  0  0  0  0
  189.8760  174.1610  141.4900 C   0  0  0  0  0  2  0  0  0  0  0  0
  189.5790  174.7500  142.8290 C   0  0  0  0  0  3  0  0  0  0  0  0
  194.7940  176.0200  142.5950 C   0  0  1  0  0  3  0  0  0  0  0  0
  192.8520  175.8020  144.0760 C   0  0  0  0  0  3  0  0  0  0  0  0
  194.7810  174.5710  142.1590 C   0  0  0  0  0  2  0  0  0  0  0  0
  191.2960  173.8500  141.3430 N   0  0  0  0  0  0  0  0  0  0  0  0
  190.4980  175.4600  143.4910 C   0  0  0  0  0  0  0  0  0  0  0  0
  192.2520  174.5040  141.9360 C   0  0  0  0  0  0  0  0  0  0  0  0
  191.8960  175.6220  142.9260 C   0  0  2  0  0  3  0  0  0  0  0  0
  194.1610  176.0620  143.9500 C   0  0  0  0  0  0  0  0  0  0  0  0
  193.5610  174.2150  141.5150 O   0  0  0  0  0  0  0  0  0  0  0  0
  195.0050  176.2860  145.1790 C   0  0  1  0  0  3  0  0  0  0  0  0
  194.5630  177.5380  145.9210 C   0  0  0  0  0  1  0  0  0  0  0  0
  194.9810  175.0680  146.0940 C   0  0  0  0  0  2  0  0  0  0  0  0
  195.7130  172.8240  145.7630 O   0  0  0  0  0  1  0  0  0  0  0  0
  195.9730  174.0500  145.6470 C   0  0  0  0  0  0  0  0  0  0  0  0
  197.1710  174.4520  145.0710 O   0  0  0  0  0  0  0  0  0  0  0  0
  190.1740  176.0870  144.7050 O   0  0  0  0  0  0  0  0  0  0  0  0
  188.8410  176.2890  145.1610 C   0  0  1  0  0  3  0  0  0  0  0  0
  188.8240  176.3880  146.6850 C   0  0  0  0  0  2  0  0  0  0  0  0
  188.3010  177.5480  144.5470 C   0  0  0  0  0  3  0  0  0  0  0  0
  187.0680  178.0170  144.7840 C   0  0  0  0  0  3  0  0  0  0  0  0
  187.5040  176.0400  147.1970 N   0  0  0  0  0  2  0  0  0  0  0  0
  186.6410  177.2110  147.1020 C   0  0  0  0  0  2  0  0  0  0  0  0
  186.0800  177.3400  145.6890 C   0  0  1  0  0  3  0  0  0  0  0  0
  184.8460  178.1270  145.7280 C   0  0  0  0  0  0  0  0  0  0  0  0
  183.8720  178.7510  145.7580 N   0  0  0  0  0  0  0  0  0  0  0  0
  2  3  1  0  0  0  0
  3  8  2  0  0  0  0
  4  1  1  1  0  0  0
  4 11  1  0  0  0  0
  6  4  1  0  0  0  0
  7  2  1  0  0  0  0
  7  9  2  0  0  0  0
  8 19  1  0  0  0  0
  9 10  1  0  0  0  0
 10  8  1  0  0  0  0
 10  5  1  1  0  0  0
 11  5  2  0  0  0  0
 11 13  1  0  0  0  0
 12  9  1  0  0  0  0
 12  6  1  0  0  0  0
 13 14  1  1  0  0  0
 13 15  1  0  0  0  0
 17 16  1  0  0  0  0
 17 15  1  0  0  0  0
 18 17  2  0  0  0  0
 20 19  1  6  0  0  0
 20 21  1  0  0  0  0
 21 24  1  0  0  0  0
 22 23  2  0  0  0  0
 22 20  1  0  0  0  0
 23 26  1  0  0  0  0
 25 24  1  0  0  0  0
 26 27  1  1  0  0  0
 26 25  1  0  0  0  0
 27 28  3  0  0  0  0
M  END
>  <MODEL>
5

>  <REMARK>
 VINA RESULT:      -6.6      3.552      7.385
  Name = 
  6 active torsions:
  status: ('A' for Active; 'I' for Inactive)
    1  A    between atoms: C_5  and  O_12
    2  A    between atoms: C_8  and  C_20
    3  A    between atoms: O_12  and  C_13
    4  A    between atoms: C_20  and  C_21
    5  A    between atoms: C_21  and  C_22
    6  A    between atoms: C_23  and  C_26
                            x       y       z     vdW  Elec       q    Type
                         _______ _______ _______ _____ _____    ______ ____

>  <TORSDO>
F 6

$$$$
=
 OpenBabel11062419553D

 28 30  0  0  1  0  0  0  0  0999 V2000
  186.1500  177.1090  147.6610 O   0  0  0  0  0  1  0  0  0  0  0  0
  186.3490  177.5990  140.9300 C   0  0  0  0  0  2  0  0  0  0  0  0
  187.4760  176.6280  141.0490 C   0  0  0  0  0  3  0  0  0  0  0  0
  186.3700  177.1320  146.2820 C   0  0  1  0  0  3  0  0  0  0  0  0
  188.0310  176.3570  144.6540 C   0  0  0  0  0  3  0  0  0  0  0  0
  186.3850  178.5670  145.8020 C   0  0  0  0  0  2  0  0  0  0  0  0
  186.1630  178.3590  142.1640 N   0  0  0  0  0  0  0  0  0  0  0  0
  187.8060  176.0930  142.2290 C   0  0  0  0  0  0  0  0  0  0  0  0
  186.4400  177.9050  143.3510 C   0  0  0  0  0  0  0  0  0  0  0  0
  187.0850  176.5190  143.4930 C   0  0  2  0  0  3  0  0  0  0  0  0
  187.7080  176.5550  145.9390 C   0  0  0  0  0  0  0  0  0  0  0  0
  185.9980  178.6810  144.4360 O   0  0  0  0  0  0  0  0  0  0  0  0
  188.7260  176.2990  147.0200 C   0  0  1  0  0  3  0  0  0  0  0  0
  188.8640  174.8090  147.2950 C   0  0  0  0  0  1  0  0  0  0  0  0
  190.0730  176.9190  146.6670 C   0  0  0  0  0  2  0  0  0  0  0  0
  191.1950  177.4510  148.7020 O   0  0  0  0  0  1  0  0  0  0  0  0
  191.0760  176.6520  147.7370 C   0  0  0  0  0  0  0  0  0  0  0  0
  191.8550  175.5040  147.6880 O   0  0  0  0  0  0  0  0  0  0  0  0
  188.8060  175.1100  142.3110 O   0  0  0  0  0  0  0  0  0  0  0  0
  189.9480  175.2120  143.1550 C   0  0  1  0  0  3  0  0  0  0  0  0
  190.4740  173.8160  143.4830 C   0  0  0  0  0  2  0  0  0  0  0  0
  191.0020  176.0190  142.4550 C   0  0  0  0  0  3  0  0  0  0  0  0
  192.2020  176.2910  142.9880 C   0  0  0  0  0  3  0  0  0  0  0  0
  191.2380  173.8450  144.7240 N   0  0  0  0  0  2  0  0  0  0  0  0
  192.5920  174.2980  144.4310 C   0  0  0  0  0  2  0  0  0  0  0  0
  192.6330  175.8210  144.3470 C   0  0  1  0  0  3  0  0  0  0  0  0
  193.9980  176.2830  144.6030 C   0  0  0  0  0  0  0  0  0  0  0  0
  195.0780  176.6480  144.8080 N   0  0  0  0  0  0  0  0  0  0  0  0
  2  3  1  0  0  0  0
  2  7  1  0  0  0  0
  3  8  2  0  0  0  0
  4  1  1  1  0  0  0
  5 11  2  0  0  0  0
  6  4  1  0  0  0  0
  7  9  2  0  0  0  0
  8 19  1  0  0  0  0
  8 10  1  0  0  0  0
  9 10  1  0  0  0  0
  9 12  1  0  0  0  0
 10  5  1  1  0  0  0
 11  4  1  0  0  0  0
 11 13  1  0  0  0  0
 12  6  1  0  0  0  0
 13 14  1  6  0  0  0
 15 13  1  0  0  0  0
 15 17  1  0  0  0  0
 17 16  1  0  0  0  0
 18 17  2  0  0  0  0
 20 19  1  6  0  0  0
 20 21  1  0  0  0  0
 21 24  1  0  0  0  0
 22 23  2  0  0  0  0
 22 20  1  0  0  0  0
 23 26  1  0  0  0  0
 25 24  1  0  0  0  0
 26 25  1  0  0  0  0
 26 27  1  6  0  0  0
 27 28  3  0  0  0  0
M  END
>  <MODEL>
6

>  <REMARK>
 VINA RESULT:      -6.6      2.348      3.179
  Name = 
  6 active torsions:
  status: ('A' for Active; 'I' for Inactive)
    1  A    between atoms: C_5  and  O_12
    2  A    between atoms: C_8  and  C_20
    3  A    between atoms: O_12  and  C_13
    4  A    between atoms: C_20  and  C_21
    5  A    between atoms: C_21  and  C_22
    6  A    between atoms: C_23  and  C_26
                            x       y       z     vdW  Elec       q    Type
                         _______ _______ _______ _____ _____    ______ ____

>  <TORSDO>
F 6

$$$$
=
 OpenBabel11062419553D

 28 30  0  0  1  0  0  0  0  0999 V2000
  193.7390  173.7350  144.9010 O   0  0  0  0  0  1  0  0  0  0  0  0
  188.1910  173.3150  141.0770 C   0  0  0  0  0  2  0  0  0  0  0  0
  188.0970  174.7830  141.3290 C   0  0  0  0  0  3  0  0  0  0  0  0
  192.5440  173.8220  144.1860 C   0  0  1  0  0  3  0  0  0  0  0  0
  190.7450  175.4340  143.7660 C   0  0  0  0  0  3  0  0  0  0  0  0
  191.6150  172.7110  144.6260 C   0  0  0  0  0  2  0  0  0  0  0  0
  188.9590  172.6400  142.1220 N   0  0  0  0  0  0  0  0  0  0  0  0
  189.0600  175.4350  141.9870 C   0  0  0  0  0  0  0  0  0  0  0  0
  189.9230  173.1970  142.7950 C   0  0  0  0  0  0  0  0  0  0  0  0
  190.2430  174.6800  142.5620 C   0  0  2  0  0  3  0  0  0  0  0  0
  191.8340  175.1080  144.4740 C   0  0  0  0  0  0  0  0  0  0  0  0
  190.6950  172.3430  143.6020 O   0  0  0  0  0  0  0  0  0  0  0  0
  192.2740  175.9790  145.6230 C   0  0  1  0  0  3  0  0  0  0  0  0
  193.2010  177.0850  145.1420 C   0  0  0  0  0  1  0  0  0  0  0  0
  191.0760  176.5530  146.3700 C   0  0  0  0  0  2  0  0  0  0  0  0
  191.2080  175.2910  148.3880 O   0  0  0  0  0  1  0  0  0  0  0  0
  190.5450  175.5690  147.3550 C   0  0  0  0  0  0  0  0  0  0  0  0
  189.3030  174.9830  147.1510 O   0  0  0  0  0  0  0  0  0  0  0  0
  189.0040  176.8310  142.1330 O   0  0  0  0  0  0  0  0  0  0  0  0
  188.0590  177.5020  142.9600 C   0  0  1  0  0  3  0  0  0  0  0  0
  186.8490  177.9210  142.1280 C   0  0  0  0  0  2  0  0  0  0  0  0
  187.6400  176.5800  144.0690 C   0  0  0  0  0  3  0  0  0  0  0  0
  186.7530  176.9160  145.0150 C   0  0  0  0  0  3  0  0  0  0  0  0
  186.1650  179.0400  142.7640 N   0  0  0  0  0  2  0  0  0  0  0  0
  185.2830  178.5220  143.8030 C   0  0  0  0  0  2  0  0  0  0  0  0
  186.0730  178.2540  145.0810 C   0  0  1  0  0  3  0  0  0  0  0  0
  185.1630  178.2740  146.2260 C   0  0  0  0  0  0  0  0  0  0  0  0
  184.4410  178.2920  147.1310 N   0  0  0  0  0  0  0  0  0  0  0  0
  2  3  1  0  0  0  0
  2  7  1  0  0  0  0
  3  8  2  0  0  0  0
  4 11  1  0  0  0  0
  4  6  1  0  0  0  0
  4  1  1  1  0  0  0
  5 11  2  0  0  0  0
  7  9  2  0  0  0  0
  8 19  1  0  0  0  0
  8 10  1  0  0  0  0
  9 12  1  0  0  0  0
 10  9  1  0  0  0  0
 10  5  1  1  0  0  0
 11 13  1  0  0  0  0
 12  6  1  0  0  0  0
 13 14  1  6  0  0  0
 13 15  1  0  0  0  0
 15 17  1  0  0  0  0
 17 16  1  0  0  0  0
 18 17  2  0  0  0  0
 20 19  1  6  0  0  0
 20 22  1  0  0  0  0
 21 24  1  0  0  0  0
 21 20  1  0  0  0  0
 22 23  2  0  0  0  0
 23 26  1  0  0  0  0
 24 25  1  0  0  0  0
 25 26  1  0  0  0  0
 26 27  1  1  0  0  0
 27 28  3  0  0  0  0
M  END
>  <MODEL>
7

>  <REMARK>
 VINA RESULT:      -6.4      2.053      6.045
  Name = 
  6 active torsions:
  status: ('A' for Active; 'I' for Inactive)
    1  A    between atoms: C_5  and  O_12
    2  A    between atoms: C_8  and  C_20
    3  A    between atoms: O_12  and  C_13
    4  A    between atoms: C_20  and  C_21
    5  A    between atoms: C_21  and  C_22
    6  A    between atoms: C_23  and  C_26
                            x       y       z     vdW  Elec       q    Type
                         _______ _______ _______ _____ _____    ______ ____

>  <TORSDO>
F 6

$$$$
=
 OpenBabel11062419553D

 28 30  0  0  1  0  0  0  0  0999 V2000
  193.3980  176.3750  145.2470 O   0  0  0  0  0  1  0  0  0  0  0  0
  189.8230  171.5290  142.1940 C   0  0  0  0  0  2  0  0  0  0  0  0
  189.0080  172.6710  141.6820 C   0  0  0  0  0  3  0  0  0  0  0  0
  192.5190  175.5080  144.5950 C   0  0  1  0  0  3  0  0  0  0  0  0
  190.3540  175.5780  143.4460 C   0  0  0  0  0  3  0  0  0  0  0  0
  192.1240  174.3930  145.5380 C   0  0  0  0  0  2  0  0  0  0  0  0
  190.5220  171.8800  143.4280 N   0  0  0  0  0  0  0  0  0  0  0  0
  189.3660  173.9370  141.9190 C   0  0  0  0  0  0  0  0  0  0  0  0
  190.9210  173.0830  143.7260 C   0  0  0  0  0  0  0  0  0  0  0  0
  190.5750  174.2430  142.7830 C   0  0  2  0  0  3  0  0  0  0  0  0
  191.2540  176.2100  144.2120 C   0  0  0  0  0  0  0  0  0  0  0  0
  191.7650  173.2030  144.8430 O   0  0  0  0  0  0  0  0  0  0  0  0
  190.9410  177.5750  144.7710 C   0  0  1  0  0  3  0  0  0  0  0  0
  191.0320  178.6390  143.6870 C   0  0  0  0  0  1  0  0  0  0  0  0
  189.5750  177.5950  145.4460 C   0  0  0  0  0  2  0  0  0  0  0  0
  188.7460  176.0050  147.0160 O   0  0  0  0  0  0  0  0  0  0  0  0
  189.6180  176.8720  146.7480 C   0  0  0  0  0  0  0  0  0  0  0  0
  190.6390  177.1300  147.6530 O   0  0  0  0  0  1  0  0  0  0  0  0
  188.6430  174.9990  141.3520 O   0  0  0  0  0  0  0  0  0  0  0  0
  188.0600  176.0530  142.1100 C   0  0  1  0  0  3  0  0  0  0  0  0
  187.8040  177.2590  141.2080 C   0  0  0  0  0  2  0  0  0  0  0  0
  186.7740  175.5660  142.7140 C   0  0  0  0  0  3  0  0  0  0  0  0
  185.9830  176.3270  143.4820 C   0  0  0  0  0  3  0  0  0  0  0  0
  187.7460  178.4790  142.0040 N   0  0  0  0  0  2  0  0  0  0  0  0
  186.4090  178.6070  142.5710 C   0  0  0  0  0  2  0  0  0  0  0  0
  186.2870  177.7560  143.8310 C   0  0  1  0  0  3  0  0  0  0  0  0
  185.2100  178.2850  144.6700 C   0  0  0  0  0  0  0  0  0  0  0  0
  184.3570  178.7040  145.3310 N   0  0  0  0  0  0  0  0  0  0  0  0
  2  7  1  0  0  0  0
  3  8  2  0  0  0  0
  3  2  1  0  0  0  0
  4  1  1  1  0  0  0
  4  6  1  0  0  0  0
  5 11  2  0  0  0  0
  7  9  2  0  0  0  0
  8 10  1  0  0  0  0
  9 12  1  0  0  0  0
 10  5  1  1  0  0  0
 10  9  1  0  0  0  0
 11  4  1  0  0  0  0
 11 13  1  0  0  0  0
 12  6  1  0  0  0  0
 13 14  1  6  0  0  0
 13 15  1  0  0  0  0
 15 17  1  0  0  0  0
 17 16  2  0  0  0  0
 17 18  1  0  0  0  0
 19  8  1  0  0  0  0
 20 19  1  6  0  0  0
 20 22  1  0  0  0  0
 21 24  1  0  0  0  0
 21 20  1  0  0  0  0
 22 23  2  0  0  0  0
 23 26  1  0  0  0  0
 24 25  1  0  0  0  0
 25 26  1  0  0  0  0
 26 27  1  1  0  0  0
 27 28  3  0  0  0  0
M  END
>  <MODEL>
8

>  <REMARK>
 VINA RESULT:      -6.4      2.040      5.955
  Name = 
  6 active torsions:
  status: ('A' for Active; 'I' for Inactive)
    1  A    between atoms: C_5  and  O_12
    2  A    between atoms: C_8  and  C_20
    3  A    between atoms: O_12  and  C_13
    4  A    between atoms: C_20  and  C_21
    5  A    between atoms: C_21  and  C_22
    6  A    between atoms: C_23  and  C_26
                            x       y       z     vdW  Elec       q    Type
                         _______ _______ _______ _____ _____    ______ ____

>  <TORSDO>
F 6

$$$$
=
 OpenBabel11062419553D

 28 30  0  0  1  0  0  0  0  0999 V2000
  184.4960  178.6170  145.9600 O   0  0  0  0  0  1  0  0  0  0  0  0
  187.0340  176.7590  139.9860 C   0  0  0  0  0  2  0  0  0  0  0  0
  187.8150  175.7800  140.7990 C   0  0  0  0  0  3  0  0  0  0  0  0
  185.1630  178.1470  144.8270 C   0  0  1  0  0  3  0  0  0  0  0  0
  187.0590  176.7020  144.2570 C   0  0  0  0  0  3  0  0  0  0  0  0
  185.6520  179.3230  144.0100 C   0  0  0  0  0  2  0  0  0  0  0  0
  186.6180  177.9090  140.7860 N   0  0  0  0  0  0  0  0  0  0  0  0
  187.6050  175.6490  142.1130 C   0  0  0  0  0  0  0  0  0  0  0  0
  186.3760  177.8620  142.0630 C   0  0  0  0  0  0  0  0  0  0  0  0
  186.6150  176.5510  142.8250 C   0  0  2  0  0  3  0  0  0  0  0  0
  186.3770  177.3580  145.2050 C   0  0  0  0  0  0  0  0  0  0  0  0
  185.7780  179.0020  142.6280 O   0  0  0  0  0  0  0  0  0  0  0  0
  186.8930  177.3860  146.6210 C   0  0  1  0  0  3  0  0  0  0  0  0
  185.8460  176.8580  147.5910 C   0  0  0  0  0  1  0  0  0  0  0  0
  188.1990  176.6110  146.7480 C   0  0  0  0  0  2  0  0  0  0  0  0
  189.7200  178.0400  147.8980 O   0  0  0  0  0  1  0  0  0  0  0  0
  189.3630  177.5400  146.8000 C   0  0  0  0  0  0  0  0  0  0  0  0
  190.0760  177.8260  145.6440 O   0  0  0  0  0  0  0  0  0  0  0  0
  188.2790  174.6590  142.8470 O   0  0  0  0  0  0  0  0  0  0  0  0
  189.6870  174.6500  143.0540 C   0  0  1  0  0  3  0  0  0  0  0  0
  190.2660  176.0280  142.7400 C   0  0  0  0  0  2  0  0  0  0  0  0
  189.9680  174.2750  144.4800 C   0  0  0  0  0  3  0  0  0  0  0  0
  191.2030  174.1830  144.9930 C   0  0  0  0  0  3  0  0  0  0  0  0
  191.6800  175.9150  142.4050 N   0  0  0  0  0  2  0  0  0  0  0  0
  192.4520  175.8610  143.6400 C   0  0  0  0  0  2  0  0  0  0  0  0
  192.4530  174.4430  144.2010 C   0  0  1  0  0  3  0  0  0  0  0  0
  193.6170  174.2660  145.0710 C   0  0  0  0  0  0  0  0  0  0  0  0
  194.5360  174.1260  145.7600 N   0  0  0  0  0  0  0  0  0  0  0  0
  2  7  1  0  0  0  0
  2  3  1  0  0  0  0
  3  8  2  0  0  0  0
  4 11  1  0  0  0  0
  4  1  1  1  0  0  0
  5 11  2  0  0  0  0
  6  4  1  0  0  0  0
  7  9  2  0  0  0  0
  8 10  1  0  0  0  0
  8 19  1  0  0  0  0
  9 12  1  0  0  0  0
  9 10  1  0  0  0  0
 10  5  1  1  0  0  0
 11 13  1  0  0  0  0
 12  6  1  0  0  0  0
 13 15  1  0  0  0  0
 13 14  1  1  0  0  0
 15 17  1  0  0  0  0
 17 16  1  0  0  0  0
 18 17  2  0  0  0  0
 20 19  1  1  0  0  0
 20 22  1  0  0  0  0
 21 20  1  0  0  0  0
 22 23  2  0  0  0  0
 24 21  1  0  0  0  0
 24 25  1  0  0  0  0
 25 26  1  0  0  0  0
 26 23  1  0  0  0  0
 26 27  1  1  0  0  0
 27 28  3  0  0  0  0
M  END
>  <MODEL>
9

>  <REMARK>
 VINA RESULT:      -6.4      2.402      3.156
  Name = 
  6 active torsions:
  status: ('A' for Active; 'I' for Inactive)
    1  A    between atoms: C_5  and  O_12
    2  A    between atoms: C_8  and  C_20
    3  A    between atoms: O_12  and  C_13
    4  A    between atoms: C_20  and  C_21
    5  A    between atoms: C_21  and  C_22
    6  A    between atoms: C_23  and  C_26
                            x       y       z     vdW  Elec       q    Type
                         _______ _______ _______ _____ _____    ______ ____

>  <TORSDO>
F 6

$$$$
