=
 OpenBabel11062420573D

 31 36  0  0  1  0  0  0  0  0999 V2000
  188.2330  176.4020  144.7730 C   0  0  2  0  0  3  0  0  0  0  0  0
  185.6150  178.0410  144.2630 C   0  0  1  0  0  3  0  0  0  0  0  0
  189.8020  174.9910  143.3540 C   0  0  2  0  0  3  0  0  0  0  0  0
  189.6980  176.1340  144.3810 C   0  0  2  0  0  3  0  0  0  0  0  0
  187.0540  177.8410  143.8170 C   0  0  2  0  0  0  0  0  0  0  0  0
  191.2290  174.7760  142.7920 C   0  0  2  0  0  3  0  0  0  0  0  0
  192.8340  176.1500  144.1050 C   0  0  0  0  0  2  0  0  0  0  0  0
  189.0290  174.6480  140.9030 C   0  0  0  0  0  2  0  0  0  0  0  0
  190.7260  175.9350  145.5210 C   0  0  1  0  0  3  0  0  0  0  0  0
  192.0910  176.0340  142.7780 C   0  0  0  0  0  2  0  0  0  0  0  0
  187.2940  176.3950  143.5260 C   0  0  1  0  0  3  0  0  0  0  0  0
  191.9910  176.7630  145.2260 C   0  0  1  0  0  3  0  0  0  0  0  0
  188.0170  176.2940  142.3200 O   0  0  0  0  0  0  0  0  0  0  0  0
  190.0350  173.4980  140.8450 C   0  0  2  0  0  0  0  0  0  0  0  0
  189.5140  172.2840  141.6210 C   0  0  0  0  0  1  0  0  0  0  0  0
  192.4220  172.9250  141.6030 C   0  0  0  0  0  1  0  0  0  0  0  0
  187.9730  177.9040  144.9970 C   0  0  0  0  0  2  0  0  0  0  0  0
  185.2770  179.5170  144.1930 C   0  0  0  0  0  2  0  0  0  0  0  0
  192.7940  176.8750  146.3630 O   0  0  0  0  0  1  0  0  0  0  0  0
  188.6420  175.0370  142.3270 C   0  0  2  0  0  3  0  0  0  0  0  0
  186.1790  178.8870  143.1500 C   0  0  2  0  0  3  0  0  0  0  0  0
  191.3580  174.0080  141.4700 C   0  0  2  0  0  3  0  0  0  0  0  0
  190.2360  176.0400  146.9800 C   0  0  2  0  0  3  0  0  0  0  0  0
  190.2450  177.4160  147.4470 N   0  0  0  0  0  1  0  0  0  0  0  0
  190.9830  175.1380  147.9480 C   0  0  0  0  0  1  0  0  0  0  0  0
  191.2550  173.4310  138.8010 O   0  0  0  0  0  0  0  0  0  0  0  0
  190.2220  173.1170  139.3780 C   0  0  0  0  0  0  0  0  0  0  0  0
  189.1560  172.3810  138.5820 C   0  0  0  0  0  0  0  0  0  0  0  0
  189.5630  170.9290  138.4100 C   0  0  0  0  0  1  0  0  0  0  0  0
  187.9150  172.4230  139.2200 O   0  0  0  0  0  1  0  0  0  0  0  0
  189.0120  173.0150  137.2100 C   0  0  0  0  0  1  0  0  0  0  0  0
  1 17  1  6  0  0  0
  2 18  1  1  0  0  0
  3  4  1  0  0  0  0
  4  1  1  0  0  0  0
  4  9  1  0  0  0  0
  5  2  1  0  0  0  0
  5 17  1  0  0  0  0
  6  3  1  0  0  0  0
  7 12  1  0  0  0  0
  8 20  1  0  0  0  0
  9 23  1  0  0  0  0
 10  6  1  0  0  0  0
 10  7  1  0  0  0  0
 11  5  1  0  0  0  0
 11  1  1  0  0  0  0
 12  9  1  0  0  0  0
 12 19  1  0  0  0  0
 13 20  1  0  0  0  0
 13 11  1  0  0  0  0
 14  8  1  0  0  0  0
 14 22  1  0  0  0  0
 14 15  1  0  0  0  0
 20  3  1  0  0  0  0
 21  5  1  0  0  0  0
 21 18  1  0  0  0  0
 21  2  1  0  0  0  0
 22 16  1  0  0  0  0
 22  6  1  0  0  0  0
 23 24  1  0  0  0  0
 23 25  1  0  0  0  0
 26 27  2  0  0  0  0
 27 14  1  0  0  0  0
 28 30  1  0  0  0  0
 28 27  1  0  0  0  0
 29 28  1  0  0  0  0
 31 28  1  0  0  0  0
M  END
>  <MODEL>
1

>  <REMARK>
 VINA RESULT:      -7.6      0.000      0.000
  Name = 
  3 active torsions:
  status: ('A' for Active; 'I' for Inactive)
    1  A    between atoms: C_5  and  C_10
    2  A    between atoms: C_17  and  C_19
    3  A    between atoms: C_19  and  C_22
                            x       y       z     vdW  Elec       q    Type
                         _______ _______ _______ _____ _____    ______ ____

>  <TORSDO>
F 3

$$$$
=
 OpenBabel11062420573D

 31 36  0  0  1  0  0  0  0  0999 V2000
  190.5060  174.6740  141.6190 C   0  0  2  0  0  3  0  0  0  0  0  0
  189.3900  173.2800  139.0470 C   0  0  1  0  0  3  0  0  0  0  0  0
  189.4940  175.7920  143.6660 C   0  0  2  0  0  3  0  0  0  0  0  0
  190.5130  174.7550  143.1560 C   0  0  2  0  0  3  0  0  0  0  0  0
  189.3410  173.2920  140.5660 C   0  0  2  0  0  0  0  0  0  0  0  0
  189.3320  175.8100  145.2070 C   0  0  2  0  0  3  0  0  0  0  0  0
  191.1000  174.3900  146.2280 C   0  0  0  0  0  2  0  0  0  0  0  0
  186.9120  176.0100  143.6150 C   0  0  0  0  0  2  0  0  0  0  0  0
  191.8770  174.9390  143.8640 C   0  0  1  0  0  3  0  0  0  0  0  0
  189.6170  174.4730  145.8810 C   0  0  0  0  0  2  0  0  0  0  0  0
  189.0520  174.6760  141.0500 C   0  0  1  0  0  3  0  0  0  0  0  0
  191.9800  173.9630  145.0500 C   0  0  1  0  0  3  0  0  0  0  0  0
  188.0840  174.6010  142.0720 O   0  0  0  0  0  0  0  0  0  0  0  0
  187.0700  177.0400  144.7340 C   0  0  2  0  0  0  0  0  0  0  0  0
  187.6110  178.3620  144.1800 C   0  0  0  0  0  1  0  0  0  0  0  0
  188.4170  177.4230  146.8880 C   0  0  0  0  0  1  0  0  0  0  0  0
  190.7280  173.2320  141.1270 C   0  0  0  0  0  2  0  0  0  0  0  0
  189.3080  171.8470  138.5620 C   0  0  0  0  0  2  0  0  0  0  0  0
  193.2960  173.8630  145.5050 O   0  0  0  0  0  1  0  0  0  0  0  0
  188.1960  175.7820  142.8220 C   0  0  2  0  0  3  0  0  0  0  0  0
  188.5160  172.2910  139.7760 C   0  0  2  0  0  3  0  0  0  0  0  0
  188.0560  176.4490  145.7720 C   0  0  2  0  0  3  0  0  0  0  0  0
  193.1520  175.0070  142.9980 C   0  0  2  0  0  3  0  0  0  0  0  0
  193.7750  173.7010  142.8650 N   0  0  0  0  0  1  0  0  0  0  0  0
  194.1620  176.0410  143.4660 C   0  0  0  0  0  1  0  0  0  0  0  0
  185.1920  176.4160  146.0580 O   0  0  0  0  0  0  0  0  0  0  0  0
  185.6910  177.2770  145.3460 C   0  0  0  0  0  0  0  0  0  0  0  0
  184.8850  178.5390  145.0830 C   0  0  0  0  0  0  0  0  0  0  0  0
  183.7870  178.6660  146.1220 C   0  0  0  0  0  1  0  0  0  0  0  0
  185.6850  179.6820  145.1390 O   0  0  0  0  0  1  0  0  0  0  0  0
  184.2510  178.4650  143.7060 C   0  0  0  0  0  1  0  0  0  0  0  0
  1 17  1  1  0  0  0
  1  4  1  0  0  0  0
  2 18  1  1  0  0  0
  2 21  1  0  0  0  0
  2  5  1  0  0  0  0
  3  6  1  0  0  0  0
  4  3  1  0  0  0  0
  4  9  1  0  0  0  0
  5 11  1  0  0  0  0
  5 17  1  0  0  0  0
  6 22  1  0  0  0  0
  6 10  1  0  0  0  0
  8 14  1  0  0  0  0
  9 12  1  0  0  0  0
 10  7  1  0  0  0  0
 11  1  1  0  0  0  0
 11 13  1  0  0  0  0
 12 19  1  0  0  0  0
 12  7  1  0  0  0  0
 13 20  1  0  0  0  0
 14 27  1  0  0  0  0
 14 22  1  0  0  0  0
 15 14  1  0  0  0  0
 18 21  1  0  0  0  0
 20  8  1  0  0  0  0
 20  3  1  0  0  0  0
 21  5  1  0  0  0  0
 22 16  1  0  0  0  0
 23 25  1  0  0  0  0
 23  9  1  0  0  0  0
 24 23  1  0  0  0  0
 27 26  2  0  0  0  0
 28 30  1  0  0  0  0
 28 27  1  0  0  0  0
 28 29  1  0  0  0  0
 31 28  1  0  0  0  0
M  END
>  <MODEL>
2

>  <REMARK>
 VINA RESULT:      -7.6      2.227      6.536
  Name = 
  3 active torsions:
  status: ('A' for Active; 'I' for Inactive)
    1  A    between atoms: C_5  and  C_10
    2  A    between atoms: C_17  and  C_19
    3  A    between atoms: C_19  and  C_22
                            x       y       z     vdW  Elec       q    Type
                         _______ _______ _______ _____ _____    ______ ____

>  <TORSDO>
F 3

$$$$
=
 OpenBabel11062420573D

 31 36  0  0  1  0  0  0  0  0999 V2000
  188.3770  176.2940  144.6070 C   0  0  2  0  0  3  0  0  0  0  0  0
  185.8450  177.9520  143.8060 C   0  0  1  0  0  3  0  0  0  0  0  0
  189.9420  174.6770  143.4240 C   0  0  2  0  0  3  0  0  0  0  0  0
  189.8440  175.9340  144.3100 C   0  0  2  0  0  3  0  0  0  0  0  0
  187.2900  177.6530  143.4460 C   0  0  2  0  0  0  0  0  0  0  0  0
  191.3800  174.3500  142.9500 C   0  0  2  0  0  3  0  0  0  0  0  0
  192.9870  175.8110  144.1640 C   0  0  0  0  0  2  0  0  0  0  0  0
  189.2490  174.0810  140.9980 C   0  0  0  0  0  2  0  0  0  0  0  0
  190.8200  175.8320  145.5060 C   0  0  1  0  0  3  0  0  0  0  0  0
  192.2890  175.5680  142.8300 C   0  0  0  0  0  2  0  0  0  0  0  0
  187.4860  176.1760  143.3310 C   0  0  1  0  0  3  0  0  0  0  0  0
  192.1260  176.5770  145.1720 C   0  0  1  0  0  3  0  0  0  0  0  0
  188.2490  175.9130  142.1760 O   0  0  0  0  0  0  0  0  0  0  0  0
  190.2110  172.8990  141.1130 C   0  0  2  0  0  0  0  0  0  0  0  0
  189.6150  171.8000  141.9980 C   0  0  0  0  0  1  0  0  0  0  0  0
  192.5440  172.3350  142.0290 C   0  0  0  0  0  1  0  0  0  0  0  0
  188.1670  177.8200  144.6480 C   0  0  0  0  0  2  0  0  0  0  0  0
  185.5670  179.4210  143.5560 C   0  0  0  0  0  2  0  0  0  0  0  0
  192.8890  176.7910  146.3220 O   0  0  0  0  0  1  0  0  0  0  0  0
  188.8240  174.6450  142.3510 C   0  0  2  0  0  3  0  0  0  0  0  0
  186.4820  178.6450  142.6290 C   0  0  2  0  0  3  0  0  0  0  0  0
  191.5280  173.4320  141.7300 C   0  0  2  0  0  3  0  0  0  0  0  0
  190.2810  176.1200  146.9230 C   0  0  2  0  0  3  0  0  0  0  0  0
  190.3500  177.5370  147.2410 N   0  0  0  0  0  1  0  0  0  0  0  0
  190.9360  175.2900  148.0130 C   0  0  0  0  0  1  0  0  0  0  0  0
  190.0730  171.2080  139.4420 O   0  0  0  0  0  0  0  0  0  0  0  0
  190.4380  172.3460  139.7070 C   0  0  0  0  0  0  0  0  0  0  0  0
  191.1330  173.1440  138.6160 C   0  0  0  0  0  0  0  0  0  0  0  0
  190.0940  173.7790  137.7110 C   0  0  0  0  0  1  0  0  0  0  0  0
  191.9380  174.1530  139.1480 O   0  0  0  0  0  1  0  0  0  0  0  0
  192.0070  172.2220  137.7850 C   0  0  0  0  0  1  0  0  0  0  0  0
  1 17  1  6  0  0  0
  2 18  1  1  0  0  0
  3  4  1  0  0  0  0
  4  1  1  0  0  0  0
  4  9  1  0  0  0  0
  5  2  1  0  0  0  0
  5 17  1  0  0  0  0
  6  3  1  0  0  0  0
  7 12  1  0  0  0  0
  8 14  1  0  0  0  0
  8 20  1  0  0  0  0
  9 23  1  0  0  0  0
 10  6  1  0  0  0  0
 10  7  1  0  0  0  0
 11  5  1  0  0  0  0
 11  1  1  0  0  0  0
 12  9  1  0  0  0  0
 12 19  1  0  0  0  0
 13 20  1  0  0  0  0
 13 11  1  0  0  0  0
 14 22  1  0  0  0  0
 14 15  1  0  0  0  0
 20  3  1  0  0  0  0
 21  5  1  0  0  0  0
 21 18  1  0  0  0  0
 21  2  1  0  0  0  0
 22 16  1  0  0  0  0
 22  6  1  0  0  0  0
 23 24  1  0  0  0  0
 23 25  1  0  0  0  0
 26 27  2  0  0  0  0
 27 14  1  0  0  0  0
 28 30  1  0  0  0  0
 28 27  1  0  0  0  0
 29 28  1  0  0  0  0
 31 28  1  0  0  0  0
M  END
>  <MODEL>
3

>  <REMARK>
 VINA RESULT:      -7.4      0.868      1.337
  Name = 
  3 active torsions:
  status: ('A' for Active; 'I' for Inactive)
    1  A    between atoms: C_5  and  C_10
    2  A    between atoms: C_17  and  C_19
    3  A    between atoms: C_19  and  C_22
                            x       y       z     vdW  Elec       q    Type
                         _______ _______ _______ _____ _____    ______ ____

>  <TORSDO>
F 3

$$$$
=
 OpenBabel11062420573D

 31 36  0  0  1  0  0  0  0  0999 V2000
  191.5210  174.4850  144.5900 C   0  0  2  0  0  3  0  0  0  0  0  0
  194.1340  175.4030  146.0490 C   0  0  1  0  0  3  0  0  0  0  0  0
  189.1640  175.4020  144.3300 C   0  0  2  0  0  3  0  0  0  0  0  0
  190.3940  174.8290  143.6000 C   0  0  2  0  0  3  0  0  0  0  0  0
  193.0600  175.8220  145.0590 C   0  0  2  0  0  0  0  0  0  0  0  0
  188.0540  175.9220  143.3820 C   0  0  2  0  0  3  0  0  0  0  0  0
  188.5930  175.2440  141.0510 C   0  0  0  0  0  2  0  0  0  0  0  0
  188.6780  177.5430  145.7080 C   0  0  0  0  0  2  0  0  0  0  0  0
  189.9650  173.7420  142.5850 C   0  0  1  0  0  3  0  0  0  0  0  0
  188.5650  176.4120  142.0320 C   0  0  0  0  0  2  0  0  0  0  0  0
  191.7090  175.6060  145.6600 C   0  0  1  0  0  3  0  0  0  0  0  0
  189.8390  174.3650  141.1830 C   0  0  1  0  0  3  0  0  0  0  0  0
  190.9110  176.7360  145.3880 O   0  0  0  0  0  0  0  0  0  0  0  0
  187.1970  177.2480  145.4700 C   0  0  2  0  0  0  0  0  0  0  0  0
  186.7320  176.0770  146.3400 C   0  0  0  0  0  1  0  0  0  0  0  0
  185.6190  176.4550  143.6040 C   0  0  0  0  0  1  0  0  0  0  0  0
  192.9090  174.7810  143.9930 C   0  0  0  0  0  2  0  0  0  0  0  0
  195.4680  175.9630  145.5970 C   0  0  0  0  0  2  0  0  0  0  0  0
  189.7800  173.3760  140.1980 O   0  0  0  0  0  1  0  0  0  0  0  0
  189.5740  176.3250  145.5050 C   0  0  2  0  0  3  0  0  0  0  0  0
  194.1960  176.7660  145.4080 C   0  0  2  0  0  3  0  0  0  0  0  0
  187.0300  176.9030  143.9690 C   0  0  2  0  0  3  0  0  0  0  0  0
  190.7030  172.3870  142.6030 C   0  0  2  0  0  3  0  0  0  0  0  0
  191.8040  172.3680  141.6560 N   0  0  0  0  0  1  0  0  0  0  0  0
  189.7950  171.1870  142.3980 C   0  0  0  0  0  1  0  0  0  0  0  0
  186.2800  179.4010  145.0250 O   0  0  0  0  0  0  0  0  0  0  0  0
  186.4070  178.5000  145.8450 C   0  0  0  0  0  0  0  0  0  0  0  0
  185.7880  178.6960  147.2200 C   0  0  0  0  0  0  0  0  0  0  0  0
  184.2770  178.6270  147.1110 C   0  0  0  0  0  1  0  0  0  0  0  0
  186.2160  177.7190  148.1210 O   0  0  0  0  0  1  0  0  0  0  0  0
  186.1780  180.0570  147.7680 C   0  0  0  0  0  1  0  0  0  0  0  0
  1 17  1  6  0  0  0
  1 11  1  0  0  0  0
  2 18  1  6  0  0  0
  3 20  1  0  0  0  0
  4  3  1  0  0  0  0
  4  1  1  0  0  0  0
  5 21  1  0  0  0  0
  5 11  1  0  0  0  0
  5  2  1  0  0  0  0
  6 22  1  0  0  0  0
  6  3  1  0  0  0  0
  7 12  1  0  0  0  0
  7 10  1  0  0  0  0
  9 23  1  0  0  0  0
  9  4  1  0  0  0  0
 10  6  1  0  0  0  0
 12  9  1  0  0  0  0
 13 20  1  0  0  0  0
 13 11  1  0  0  0  0
 14  8  1  0  0  0  0
 14 27  1  0  0  0  0
 14 15  1  0  0  0  0
 16 22  1  0  0  0  0
 17  5  1  0  0  0  0
 19 12  1  0  0  0  0
 20  8  1  0  0  0  0
 21 18  1  0  0  0  0
 21  2  1  0  0  0  0
 22 14  1  0  0  0  0
 24 23  1  0  0  0  0
 25 23  1  0  0  0  0
 26 27  2  0  0  0  0
 27 28  1  0  0  0  0
 28 31  1  0  0  0  0
 28 30  1  0  0  0  0
 29 28  1  0  0  0  0
M  END
>  <MODEL>
4

>  <REMARK>
 VINA RESULT:      -7.1      2.640      7.382
  Name = 
  3 active torsions:
  status: ('A' for Active; 'I' for Inactive)
    1  A    between atoms: C_5  and  C_10
    2  A    between atoms: C_17  and  C_19
    3  A    between atoms: C_19  and  C_22
                            x       y       z     vdW  Elec       q    Type
                         _______ _______ _______ _____ _____    ______ ____

>  <TORSDO>
F 3

$$$$
=
 OpenBabel11062420573D

 31 36  0  0  1  0  0  0  0  0999 V2000
  192.2150  174.2660  142.4110 C   0  0  2  0  0  3  0  0  0  0  0  0
  191.2260  172.1200  140.3560 C   0  0  1  0  0  3  0  0  0  0  0  0
  191.1390  175.6570  144.2470 C   0  0  2  0  0  3  0  0  0  0  0  0
  192.3030  174.7170  143.8800 C   0  0  2  0  0  3  0  0  0  0  0  0
  191.2710  172.4920  141.8290 C   0  0  2  0  0  0  0  0  0  0  0  0
  191.0730  176.0200  145.7520 C   0  0  2  0  0  3  0  0  0  0  0  0
  193.1410  175.2130  146.8740 C   0  0  0  0  0  2  0  0  0  0  0  0
  188.5650  175.4130  144.4230 C   0  0  0  0  0  2  0  0  0  0  0  0
  193.6490  175.2970  144.3790 C   0  0  1  0  0  3  0  0  0  0  0  0
  191.6510  174.9550  146.6770 C   0  0  0  0  0  2  0  0  0  0  0  0
  190.7540  173.8820  142.0140 C   0  0  1  0  0  3  0  0  0  0  0  0
  194.0100  174.6700  145.7370 C   0  0  1  0  0  3  0  0  0  0  0  0
  189.8850  173.8930  143.1230 O   0  0  0  0  0  0  0  0  0  0  0  0
  188.5940  176.6940  145.2550 C   0  0  2  0  0  0  0  0  0  0  0  0
  188.8360  177.9150  144.3620 C   0  0  0  0  0  1  0  0  0  0  0  0
  189.9750  177.8120  147.1120 C   0  0  0  0  0  1  0  0  0  0  0  0
  192.6770  172.8060  142.2380 C   0  0  0  0  0  2  0  0  0  0  0  0
  191.3880  170.6200  140.2200 C   0  0  0  0  0  2  0  0  0  0  0  0
  195.3480  174.9090  146.0600 O   0  0  0  0  0  1  0  0  0  0  0  0
  189.8160  175.2220  143.5700 C   0  0  2  0  0  3  0  0  0  0  0  0
  190.6050  171.2040  141.3790 C   0  0  2  0  0  3  0  0  0  0  0  0
  189.7370  176.5490  146.2900 C   0  0  2  0  0  3  0  0  0  0  0  0
  194.8300  175.3690  143.3890 C   0  0  2  0  0  3  0  0  0  0  0  0
  195.6070  174.1410  143.3960 N   0  0  0  0  0  1  0  0  0  0  0  0
  195.7300  176.5770  143.5890 C   0  0  0  0  0  1  0  0  0  0  0  0
  187.0860  176.3990  147.0760 O   0  0  0  0  0  0  0  0  0  0  0  0
  187.2360  176.8340  145.9410 C   0  0  0  0  0  0  0  0  0  0  0  0
  186.0360  177.4710  145.2590 C   0  0  0  0  0  0  0  0  0  0  0  0
  186.3160  178.9400  145.0050 C   0  0  0  0  0  1  0  0  0  0  0  0
  185.7500  176.8550  144.0380 O   0  0  0  0  0  1  0  0  0  0  0  0
  184.8150  177.3530  146.1530 C   0  0  0  0  0  1  0  0  0  0  0  0
  1 17  1  1  0  0  0
  1  4  1  0  0  0  0
  2 18  1  1  0  0  0
  2 21  1  0  0  0  0
  2  5  1  0  0  0  0
  3  6  1  0  0  0  0
  4  3  1  0  0  0  0
  4  9  1  0  0  0  0
  5 11  1  0  0  0  0
  5 17  1  0  0  0  0
  6 22  1  0  0  0  0
  6 10  1  0  0  0  0
  8 14  1  0  0  0  0
  9 12  1  0  0  0  0
 10  7  1  0  0  0  0
 11  1  1  0  0  0  0
 11 13  1  0  0  0  0
 12 19  1  0  0  0  0
 12  7  1  0  0  0  0
 13 20  1  0  0  0  0
 14 27  1  0  0  0  0
 14 22  1  0  0  0  0
 15 14  1  0  0  0  0
 18 21  1  0  0  0  0
 20  3  1  0  0  0  0
 20  8  1  0  0  0  0
 21  5  1  0  0  0  0
 22 16  1  0  0  0  0
 23 24  1  0  0  0  0
 23 25  1  0  0  0  0
 23  9  1  0  0  0  0
 27 26  2  0  0  0  0
 28 27  1  0  0  0  0
 28 31  1  0  0  0  0
 29 28  1  0  0  0  0
 30 28  1  0  0  0  0
M  END
>  <MODEL>
5

>  <REMARK>
 VINA RESULT:      -7.1      2.479      6.653
  Name = 
  3 active torsions:
  status: ('A' for Active; 'I' for Inactive)
    1  A    between atoms: C_5  and  C_10
    2  A    between atoms: C_17  and  C_19
    3  A    between atoms: C_19  and  C_22
                            x       y       z     vdW  Elec       q    Type
                         _______ _______ _______ _____ _____    ______ ____

>  <TORSDO>
F 3

$$$$
=
 OpenBabel11062420573D

 31 36  0  0  1  0  0  0  0  0999 V2000
  194.8560  174.3720  144.0580 C   0  0  2  0  0  3  0  0  0  0  0  0
  196.5730  176.2600  142.2450 C   0  0  1  0  0  3  0  0  0  0  0  0
  192.5560  174.4810  145.1360 C   0  0  2  0  0  3  0  0  0  0  0  0
  193.5200  173.6400  144.2780 C   0  0  2  0  0  3  0  0  0  0  0  0
  195.2260  175.5700  142.3840 C   0  0  2  0  0  0  0  0  0  0  0  0
  191.1340  173.8790  145.2610 C   0  0  2  0  0  3  0  0  0  0  0  0
  191.1400  171.5780  144.3150 C   0  0  0  0  0  2  0  0  0  0  0  0
  191.3270  176.7440  144.8350 C   0  0  0  0  0  2  0  0  0  0  0  0
  193.5700  172.1800  144.7910 C   0  0  1  0  0  3  0  0  0  0  0  0
  190.7120  173.0220  144.0730 C   0  0  0  0  0  2  0  0  0  0  0  0
  194.6370  175.8800  143.7230 C   0  0  1  0  0  3  0  0  0  0  0  0
  192.6060  171.3090  143.9650 C   0  0  1  0  0  3  0  0  0  0  0  0
  193.2730  176.1910  143.5510 O   0  0  0  0  0  0  0  0  0  0  0  0
  190.4120  176.2920  145.9730 C   0  0  2  0  0  0  0  0  0  0  0  0
  191.1360  176.3860  147.3200 C   0  0  0  0  0  1  0  0  0  0  0  0
  189.1900  174.1910  146.8070 C   0  0  0  0  0  1  0  0  0  0  0  0
  195.4210  174.1090  142.6490 C   0  0  0  0  0  2  0  0  0  0  0  0
  196.9810  176.2550  140.7850 C   0  0  0  0  0  2  0  0  0  0  0  0
  192.8590  169.9500  144.1680 O   0  0  0  0  0  1  0  0  0  0  0  0
  192.6530  175.9890  144.7940 C   0  0  2  0  0  3  0  0  0  0  0  0
  195.5270  176.4350  141.1730 C   0  0  2  0  0  3  0  0  0  0  0  0
  190.0030  174.8260  145.6840 C   0  0  2  0  0  3  0  0  0  0  0  0
  194.9500  171.5320  145.0300 C   0  0  2  0  0  3  0  0  0  0  0  0
  195.4450  170.8770  143.8310 N   0  0  0  0  0  1  0  0  0  0  0  0
  194.9890  170.5850  146.2170 C   0  0  0  0  0  1  0  0  0  0  0  0
  188.8640  177.7570  147.0350 O   0  0  0  0  0  0  0  0  0  0  0  0
  189.1970  177.2170  145.9880 C   0  0  0  0  0  0  0  0  0  0  0  0
  188.3510  177.4780  144.7520 C   0  0  0  0  0  0  0  0  0  0  0  0
  187.0860  178.2140  145.1490 C   0  0  0  0  0  1  0  0  0  0  0  0
  189.0380  178.2470  143.8110 O   0  0  0  0  0  1  0  0  0  0  0  0
  187.9680  176.1590  144.1060 C   0  0  0  0  0  1  0  0  0  0  0  0
  1 17  1  6  0  0  0
  1  4  1  0  0  0  0
  2 18  1  6  0  0  0
  2  5  1  0  0  0  0
  3  6  1  0  0  0  0
  4  9  1  0  0  0  0
  4  3  1  0  0  0  0
  5 17  1  0  0  0  0
  5 11  1  0  0  0  0
  6 22  1  0  0  0  0
  8 14  1  0  0  0  0
  9 23  1  0  0  0  0
 10  7  1  0  0  0  0
 10  6  1  0  0  0  0
 11  1  1  0  0  0  0
 12 19  1  0  0  0  0
 12  7  1  0  0  0  0
 12  9  1  0  0  0  0
 13 11  1  0  0  0  0
 13 20  1  0  0  0  0
 14 27  1  0  0  0  0
 14 15  1  0  0  0  0
 18 21  1  0  0  0  0
 20  8  1  0  0  0  0
 20  3  1  0  0  0  0
 21  2  1  0  0  0  0
 21  5  1  0  0  0  0
 22 14  1  0  0  0  0
 22 16  1  0  0  0  0
 23 25  1  0  0  0  0
 24 23  1  0  0  0  0
 27 26  2  0  0  0  0
 28 29  1  0  0  0  0
 28 27  1  0  0  0  0
 30 28  1  0  0  0  0
 31 28  1  0  0  0  0
M  END
>  <MODEL>
6

>  <REMARK>
 VINA RESULT:      -6.8      3.703      7.292
  Name = 
  3 active torsions:
  status: ('A' for Active; 'I' for Inactive)
    1  A    between atoms: C_5  and  C_10
    2  A    between atoms: C_17  and  C_19
    3  A    between atoms: C_19  and  C_22
                            x       y       z     vdW  Elec       q    Type
                         _______ _______ _______ _____ _____    ______ ____

>  <TORSDO>
F 3

$$$$
=
 OpenBabel11062420573D

 31 36  0  0  1  0  0  0  0  0999 V2000
  186.3410  176.8370  144.2710 C   0  0  2  0  0  3  0  0  0  0  0  0
  185.2550  177.3740  141.3840 C   0  0  1  0  0  3  0  0  0  0  0  0
  188.5270  176.0020  145.2660 C   0  0  2  0  0  3  0  0  0  0  0  0
  187.4410  177.0950  145.3160 C   0  0  2  0  0  3  0  0  0  0  0  0
  186.3800  177.6810  142.3570 C   0  0  2  0  0  0  0  0  0  0  0  0
  189.7470  176.2850  146.1770 C   0  0  2  0  0  3  0  0  0  0  0  0
  189.2370  178.2320  147.6390 C   0  0  0  0  0  2  0  0  0  0  0  0
  190.2880  175.2410  143.5230 C   0  0  0  0  0  2  0  0  0  0  0  0
  187.0030  177.3590  146.7770 C   0  0  1  0  0  3  0  0  0  0  0  0
  190.0200  177.7650  146.4150 C   0  0  0  0  0  2  0  0  0  0  0  0
  186.9430  176.4060  142.8960 C   0  0  1  0  0  3  0  0  0  0  0  0
  187.7750  178.5680  147.3360 C   0  0  1  0  0  3  0  0  0  0  0  0
  188.3490  176.4960  142.8830 O   0  0  0  0  0  0  0  0  0  0  0  0
  190.9920  174.5340  144.6810 C   0  0  2  0  0  0  0  0  0  0  0  0
  190.2310  173.2680  145.0860 C   0  0  0  0  0  1  0  0  0  0  0  0
  191.6080  174.9200  147.1460 C   0  0  0  0  0  1  0  0  0  0  0  0
  185.8180  178.1520  143.6630 C   0  0  0  0  0  2  0  0  0  0  0  0
  184.9480  178.6180  140.5740 C   0  0  0  0  0  2  0  0  0  0  0  0
  187.1850  179.0400  148.5110 O   0  0  0  0  0  1  0  0  0  0  0  0
  188.8230  175.5560  143.8120 C   0  0  2  0  0  3  0  0  0  0  0  0
  186.3760  178.2910  140.9670 C   0  0  2  0  0  3  0  0  0  0  0  0
  191.0470  175.5300  145.8660 C   0  0  2  0  0  3  0  0  0  0  0  0
  185.4950  177.3750  147.1010 C   0  0  2  0  0  3  0  0  0  0  0  0
  184.8150  176.2280  146.5230 N   0  0  0  0  0  1  0  0  0  0  0  0
  184.7950  178.6670  146.7170 C   0  0  0  0  0  1  0  0  0  0  0  0
  192.6860  172.9680  144.0920 O   0  0  0  0  0  0  0  0  0  0  0  0
  192.3930  174.1510  144.2100 C   0  0  0  0  0  0  0  0  0  0  0  0
  193.4650  175.1850  143.9040 C   0  0  0  0  0  0  0  0  0  0  0  0
  193.9900  174.9710  142.4970 C   0  0  0  0  0  1  0  0  0  0  0  0
  192.9690  176.4860  144.0020 O   0  0  0  0  0  1  0  0  0  0  0  0
  194.6150  175.0350  144.8830 C   0  0  0  0  0  1  0  0  0  0  0  0
  1 17  1  6  0  0  0
  1  4  1  0  0  0  0
  2 18  1  1  0  0  0
  2  5  1  0  0  0  0
  3  4  1  0  0  0  0
  3  6  1  0  0  0  0
  4  9  1  0  0  0  0
  5 11  1  0  0  0  0
  5 17  1  0  0  0  0
  6 10  1  0  0  0  0
  8 20  1  0  0  0  0
  8 14  1  0  0  0  0
  9 23  1  0  0  0  0
  9 12  1  0  0  0  0
 10  7  1  0  0  0  0
 11  1  1  0  0  0  0
 12  7  1  0  0  0  0
 12 19  1  0  0  0  0
 13 11  1  0  0  0  0
 13 20  1  0  0  0  0
 14 15  1  0  0  0  0
 14 22  1  0  0  0  0
 18 21  1  0  0  0  0
 20  3  1  0  0  0  0
 21  2  1  0  0  0  0
 21  5  1  0  0  0  0
 22  6  1  0  0  0  0
 22 16  1  0  0  0  0
 24 23  1  0  0  0  0
 25 23  1  0  0  0  0
 26 27  2  0  0  0  0
 27 14  1  0  0  0  0
 28 30  1  0  0  0  0
 28 27  1  0  0  0  0
 28 31  1  0  0  0  0
 29 28  1  0  0  0  0
M  END
>  <MODEL>
7

>  <REMARK>
 VINA RESULT:      -6.8      3.192      4.880
  Name = 
  3 active torsions:
  status: ('A' for Active; 'I' for Inactive)
    1  A    between atoms: C_5  and  C_10
    2  A    between atoms: C_17  and  C_19
    3  A    between atoms: C_19  and  C_22
                            x       y       z     vdW  Elec       q    Type
                         _______ _______ _______ _____ _____    ______ ____

>  <TORSDO>
F 3

$$$$
=
 OpenBabel11062420573D

 31 36  0  0  1  0  0  0  0  0999 V2000
  189.7610  175.7840  144.2730 C   0  0  2  0  0  3  0  0  0  0  0  0
  187.8530  176.9140  142.0640 C   0  0  1  0  0  3  0  0  0  0  0  0
  192.1970  175.0640  144.3780 C   0  0  2  0  0  3  0  0  0  0  0  0
  191.0930  175.9150  145.0340 C   0  0  2  0  0  3  0  0  0  0  0  0
  189.1840  177.1170  142.7680 C   0  0  2  0  0  0  0  0  0  0  0  0
  193.6040  175.2750  144.9930 C   0  0  2  0  0  3  0  0  0  0  0  0
  193.3900  176.6400  147.0620 C   0  0  0  0  0  2  0  0  0  0  0  0
  193.4350  175.0980  142.1010 C   0  0  0  0  0  2  0  0  0  0  0  0
  191.0760  175.6960  146.5660 C   0  0  1  0  0  3  0  0  0  0  0  0
  193.8200  176.6570  145.5980 C   0  0  0  0  0  2  0  0  0  0  0  0
  189.9730  175.8480  142.7280 C   0  0  1  0  0  3  0  0  0  0  0  0
  191.8820  176.8120  147.2570 C   0  0  1  0  0  3  0  0  0  0  0  0
  191.3050  176.1580  142.3890 O   0  0  0  0  0  0  0  0  0  0  0  0
  194.4940  174.2220  142.7690 C   0  0  2  0  0  0  0  0  0  0  0  0
  193.9800  172.7890  142.9430 C   0  0  0  0  0  1  0  0  0  0  0  0
  195.7620  174.0080  144.9930 C   0  0  0  0  0  1  0  0  0  0  0  0
  188.9880  177.1160  144.2520 C   0  0  0  0  0  2  0  0  0  0  0  0
  187.2330  178.2680  141.7800 C   0  0  0  0  0  2  0  0  0  0  0  0
  191.6210  176.8430  148.6290 O   0  0  0  0  0  1  0  0  0  0  0  0
  192.0960  175.0860  142.8330 C   0  0  2  0  0  3  0  0  0  0  0  0
  188.7340  178.0760  141.6800 C   0  0  2  0  0  3  0  0  0  0  0  0
  194.8120  174.8500  144.1490 C   0  0  2  0  0  3  0  0  0  0  0  0
  189.7280  175.3840  147.2490 C   0  0  2  0  0  3  0  0  0  0  0  0
  189.1670  174.1310  146.7720 N   0  0  0  0  0  1  0  0  0  0  0  0
  188.7080  176.5050  147.1440 C   0  0  0  0  0  1  0  0  0  0  0  0
  196.1210  173.1470  141.4020 O   0  0  0  0  0  0  0  0  0  0  0  0
  195.7250  174.2080  141.8650 C   0  0  0  0  0  0  0  0  0  0  0  0
  196.5100  175.4670  141.5330 C   0  0  0  0  0  0  0  0  0  0  0  0
  196.5500  175.6600  140.0290 C   0  0  0  0  0  1  0  0  0  0  0  0
  195.9360  176.6010  142.1120 O   0  0  0  0  0  1  0  0  0  0  0  0
  197.9320  175.3350  142.0480 C   0  0  0  0  0  1  0  0  0  0  0  0
  1 17  1  1  0  0  0
  1  4  1  0  0  0  0
  2 18  1  1  0  0  0
  2  5  1  0  0  0  0
  3  6  1  0  0  0  0
  3  4  1  0  0  0  0
  4  9  1  0  0  0  0
  5 17  1  0  0  0  0
  6 10  1  0  0  0  0
  7 12  1  0  0  0  0
  8 14  1  0  0  0  0
  8 20  1  0  0  0  0
  9 23  1  0  0  0  0
  9 12  1  0  0  0  0
 10  7  1  0  0  0  0
 11  5  1  0  0  0  0
 11  1  1  0  0  0  0
 12 19  1  0  0  0  0
 13 11  1  0  0  0  0
 13 20  1  0  0  0  0
 14 15  1  0  0  0  0
 14 22  1  0  0  0  0
 20  3  1  0  0  0  0
 21 18  1  0  0  0  0
 21  2  1  0  0  0  0
 21  5  1  0  0  0  0
 22 16  1  0  0  0  0
 22  6  1  0  0  0  0
 24 23  1  0  0  0  0
 25 23  1  0  0  0  0
 26 27  2  0  0  0  0
 27 14  1  0  0  0  0
 28 27  1  0  0  0  0
 28 31  1  0  0  0  0
 28 30  1  0  0  0  0
 29 28  1  0  0  0  0
M  END
>  <MODEL>
8

>  <REMARK>
 VINA RESULT:      -6.6      3.108      4.652
  Name = 
  3 active torsions:
  status: ('A' for Active; 'I' for Inactive)
    1  A    between atoms: C_5  and  C_10
    2  A    between atoms: C_17  and  C_19
    3  A    between atoms: C_19  and  C_22
                            x       y       z     vdW  Elec       q    Type
                         _______ _______ _______ _____ _____    ______ ____

>  <TORSDO>
F 3

$$$$
=
 OpenBabel11062420573D

 31 36  0  0  1  0  0  0  0  0999 V2000
  191.3010  174.8400  145.3600 C   0  0  2  0  0  3  0  0  0  0  0  0
  188.6270  175.8190  146.6610 C   0  0  1  0  0  3  0  0  0  0  0  0
  191.9490  173.6540  143.2070 C   0  0  2  0  0  3  0  0  0  0  0  0
  192.2320  174.8510  144.1340 C   0  0  2  0  0  3  0  0  0  0  0  0
  189.4890  175.8840  145.4110 C   0  0  2  0  0  0  0  0  0  0  0  0
  192.7360  173.6890  141.8730 C   0  0  2  0  0  3  0  0  0  0  0  0
  194.4320  175.5060  141.9790 C   0  0  0  0  0  2  0  0  0  0  0  0
  189.9470  172.8950  141.7450 C   0  0  0  0  0  2  0  0  0  0  0  0
  193.7530  174.9990  144.3820 C   0  0  1  0  0  3  0  0  0  0  0  0
  193.0860  175.0930  141.3920 C   0  0  0  0  0  2  0  0  0  0  0  0
  189.8300  174.5000  144.9620 C   0  0  1  0  0  3  0  0  0  0  0  0
  194.3360  176.0410  143.4100 C   0  0  1  0  0  3  0  0  0  0  0  0
  189.6640  174.4280  143.5640 O   0  0  0  0  0  0  0  0  0  0  0  0
  190.9410  171.9870  141.0210 C   0  0  2  0  0  0  0  0  0  0  0  0
  191.3040  170.7790  141.8900 C   0  0  0  0  0  1  0  0  0  0  0  0
  193.3430  172.0200  140.1100 C   0  0  0  0  0  1  0  0  0  0  0  0
  190.8910  176.2670  145.7710 C   0  0  0  0  0  2  0  0  0  0  0  0
  187.9850  177.1730  146.8880 C   0  0  0  0  0  2  0  0  0  0  0  0
  195.6120  176.4420  143.8120 O   0  0  0  0  0  1  0  0  0  0  0  0
  190.4340  173.3420  143.1210 C   0  0  2  0  0  3  0  0  0  0  0  0
  188.1750  176.6420  145.4810 C   0  0  2  0  0  3  0  0  0  0  0  0
  192.2040  172.8310  140.7180 C   0  0  2  0  0  3  0  0  0  0  0  0
  194.2490  175.1510  145.8350 C   0  0  2  0  0  3  0  0  0  0  0  0
  194.3260  176.5480  146.2270 N   0  0  0  0  0  1  0  0  0  0  0  0
  195.5620  174.4400  146.1160 C   0  0  0  0  0  1  0  0  0  0  0  0
  190.2510  170.3020  139.4850 O   0  0  0  0  0  0  0  0  0  0  0  0
  190.2750  171.5000  139.7360 C   0  0  0  0  0  0  0  0  0  0  0  0
  189.6560  172.4510  138.7230 C   0  0  0  0  0  0  0  0  0  0  0  0
  188.1920  172.6650  139.0550 C   0  0  0  0  0  1  0  0  0  0  0  0
  190.2990  173.6910  138.7220 O   0  0  0  0  0  1  0  0  0  0  0  0
  189.7600  171.8560  137.3310 C   0  0  0  0  0  1  0  0  0  0  0  0
  1 17  1  6  0  0  0
  2 18  1  1  0  0  0
  3  4  1  0  0  0  0
  4  9  1  0  0  0  0
  4  1  1  0  0  0  0
  5 21  1  0  0  0  0
  5 17  1  0  0  0  0
  5  2  1  0  0  0  0
  6  3  1  0  0  0  0
  7 12  1  0  0  0  0
  8 20  1  0  0  0  0
  9 23  1  0  0  0  0
 10  6  1  0  0  0  0
 10  7  1  0  0  0  0
 11  1  1  0  0  0  0
 11  5  1  0  0  0  0
 12 19  1  0  0  0  0
 12  9  1  0  0  0  0
 13 11  1  0  0  0  0
 14  8  1  0  0  0  0
 14 15  1  0  0  0  0
 16 22  1  0  0  0  0
 20  3  1  0  0  0  0
 20 13  1  0  0  0  0
 21  2  1  0  0  0  0
 21 18  1  0  0  0  0
 22 14  1  0  0  0  0
 22  6  1  0  0  0  0
 23 25  1  0  0  0  0
 23 24  1  0  0  0  0
 26 27  2  0  0  0  0
 27 14  1  0  0  0  0
 28 29  1  0  0  0  0
 28 27  1  0  0  0  0
 30 28  1  0  0  0  0
 31 28  1  0  0  0  0
M  END
>  <MODEL>
9

>  <REMARK>
 VINA RESULT:      -6.6      2.183      3.076
  Name = 
  3 active torsions:
  status: ('A' for Active; 'I' for Inactive)
    1  A    between atoms: C_5  and  C_10
    2  A    between atoms: C_17  and  C_19
    3  A    between atoms: C_19  and  C_22
                            x       y       z     vdW  Elec       q    Type
                         _______ _______ _______ _____ _____    ______ ____

>  <TORSDO>
F 3

$$$$
