=
 OpenBabel11062421593D

 35 38  0  0  1  0  0  0  0  0999 V2000
  186.4620  177.8260  147.6260 N   0  0  0  0  0  1  0  0  0  0  0  0
  183.9200  178.7750  143.1630 C   0  0  0  0  0  1  0  0  0  0  0  0
  189.2140  177.7510  144.3310 O   0  0  0  0  0  0  0  0  0  0  0  0
  186.1790  177.9300  142.4650 C   0  0  0  0  0  0  0  0  0  0  0  0
  185.6550  178.3110  144.8940 C   0  0  0  0  0  0  0  0  0  0  0  0
  184.8330  178.6860  145.7740 O   0  0  0  0  0  0  0  0  0  0  0  0
  187.3550  177.5330  146.5520 C   0  0  0  0  0  0  0  0  0  0  0  0
  187.0150  177.8350  145.2660 C   0  0  0  0  0  0  0  0  0  0  0  0
  187.4670  177.6470  142.7460 C   0  0  0  0  0  0  0  0  0  0  0  0
  187.9690  177.7200  144.1340 C   0  0  0  0  0  0  0  0  0  0  0  0
  185.2700  178.3430  143.5080 N   0  0  0  0  0  0  0  0  0  0  0  0
  185.6850  177.8460  141.0500 C   0  0  0  0  0  1  0  0  0  0  0  0
  188.7220  175.4440  146.7810 C   0  0  0  0  0  3  0  0  0  0  0  0
  190.9490  175.5190  147.7250 C   0  0  0  0  0  3  0  0  0  0  0  0
  189.6660  177.5590  147.4860 C   0  0  0  0  0  3  0  0  0  0  0  0
  189.8910  174.7890  147.1770 C   0  0  0  0  0  3  0  0  0  0  0  0
  191.8580  177.6090  148.4220 F   0  0  0  0  0  0  0  0  0  0  0  0
  188.6090  176.8370  146.9140 C   0  0  0  0  0  0  0  0  0  0  0  0
  190.8360  176.9030  147.8810 C   0  0  0  0  0  0  0  0  0  0  0  0
  188.4220  177.2330  141.6630 C   0  0  0  0  0  2  0  0  0  0  0  0
  189.2620  175.0410  142.4310 C   0  0  1  0  0  3  0  0  0  0  0  0
  187.1120  173.8950  142.3150 O   0  0  0  0  0  1  0  0  0  0  0  0
  188.3400  175.7330  141.4480 C   0  0  1  0  0  3  0  0  0  0  0  0
  187.7510  175.0820  142.6820 C   0  0  2  0  0  3  0  0  0  0  0  0
  189.7730  173.7210  141.8400 C   0  0  2  0  0  3  0  0  0  0  0  0
  190.9090  173.2170  142.6410 N   0  0  0  0  0  0  0  0  0  0  0  0
  193.3620  172.9860  142.7880 C   0  0  0  0  0  2  0  0  0  0  0  0
  190.6220  171.9240  143.3140 C   0  0  1  0  0  0  0  0  0  0  0  0
  191.8830  171.3270  143.9630 C   0  0  0  0  0  2  0  0  0  0  0  0
  192.1520  173.1500  141.8610 C   0  0  0  0  0  2  0  0  0  0  0  0
  189.5970  172.1400  144.4160 C   0  0  0  0  0  1  0  0  0  0  0  0
  192.9840  172.3690  144.1360 C   0  0  0  0  0  2  0  0  0  0  0  0
  190.1170  170.9870  142.4090 O   0  0  0  0  0  1  0  0  0  0  0  0
  189.3520  172.8870  139.5100 C   0  0  0  0  0  1  0  0  0  0  0  0
  190.1120  173.8940  140.3540 C   0  0  0  0  0  2  0  0  0  0  0  0
  2 11  1  0  0  0  0
  4  9  2  0  0  0  0
  4 11  1  0  0  0  0
  5  8  1  0  0  0  0
  5  6  2  0  0  0  0
  7 18  1  0  0  0  0
  7  1  1  0  0  0  0
  8  7  2  0  0  0  0
  9 10  1  0  0  0  0
 10  3  2  0  0  0  0
 10  8  1  0  0  0  0
 11  5  1  0  0  0  0
 12  4  1  0  0  0  0
 13 18  2  0  0  0  0
 13 16  1  0  0  0  0
 14 19  1  0  0  0  0
 15 19  2  0  0  0  0
 16 14  2  0  0  0  0
 18 15  1  0  0  0  0
 19 17  1  0  0  0  0
 20  9  1  0  0  0  0
 21 25  1  6  0  0  0
 21 24  1  0  0  0  0
 23 20  1  1  0  0  0
 23 21  1  0  0  0  0
 23 24  1  0  0  0  0
 24 22  1  6  0  0  0
 25 35  1  6  0  0  0
 25 26  1  0  0  0  0
 26 28  1  0  0  0  0
 27 32  1  0  0  0  0
 28 29  1  0  0  0  0
 28 31  1  1  0  0  0
 29 32  1  0  0  0  0
 30 26  1  0  0  0  0
 30 27  1  0  0  0  0
 33 28  1  0  0  0  0
 34 35  1  0  0  0  0
M  END
>  <MODEL>
1

>  <REMARK>
 VINA RESULT:      -7.9      0.000      0.000
  Name = 
  6 active torsions:
  status: ('A' for Active; 'I' for Inactive)
    1  A    between atoms: C_3  and  C_24
    2  A    between atoms: C_3  and  C_29
    3  A    between atoms: N_5  and  C_31
    4  A    between atoms: C_7  and  C_31
    5  A    between atoms: C_19  and  C_26
    6  A    between atoms: C_30  and  C_31
                            x       y       z     vdW  Elec       q    Type
                         _______ _______ _______ _____ _____    ______ ____

>  <TORSDO>
F 6

$$$$
=
 OpenBabel11062421593D

 35 38  0  0  1  0  0  0  0  0999 V2000
  184.6460  179.1010  143.0250 N   0  0  0  0  0  1  0  0  0  0  0  0
  186.8590  176.5150  139.0620 C   0  0  0  0  0  1  0  0  0  0  0  0
  188.1970  177.1050  144.3820 O   0  0  0  0  0  0  0  0  0  0  0  0
  188.0060  175.6610  141.1260 C   0  0  0  0  0  0  0  0  0  0  0  0
  186.3280  177.5260  141.2800 C   0  0  0  0  0  0  0  0  0  0  0  0
  185.5290  178.3090  140.6970 O   0  0  0  0  0  0  0  0  0  0  0  0
  185.6560  178.2540  143.5740 C   0  0  0  0  0  0  0  0  0  0  0  0
  186.5070  177.5710  142.7570 C   0  0  0  0  0  0  0  0  0  0  0  0
  188.3160  175.7780  142.4330 C   0  0  0  0  0  0  0  0  0  0  0  0
  187.6830  176.8200  143.2670 C   0  0  0  0  0  0  0  0  0  0  0  0
  187.0760  176.5730  140.5040 N   0  0  0  0  0  0  0  0  0  0  0  0
  188.6550  174.5920  140.2950 C   0  0  0  0  0  1  0  0  0  0  0  0
  185.3490  176.8980  145.6600 C   0  0  0  0  0  3  0  0  0  0  0  0
  185.5710  177.9190  147.8430 C   0  0  0  0  0  3  0  0  0  0  0  0
  185.9060  179.2470  145.8460 C   0  0  0  0  0  3  0  0  0  0  0  0
  185.3100  176.7970  147.0540 C   0  0  0  0  0  3  0  0  0  0  0  0
  186.1100  180.2350  148.0060 F   0  0  0  0  0  0  0  0  0  0  0  0
  185.6670  178.1210  145.0470 C   0  0  0  0  0  0  0  0  0  0  0  0
  185.8670  179.1450  147.2400 C   0  0  0  0  0  0  0  0  0  0  0  0
  189.2960  174.8420  143.0820 C   0  0  0  0  0  2  0  0  0  0  0  0
  191.7000  174.9060  143.6430 C   0  0  1  0  0  3  0  0  0  0  0  0
  191.9890  177.2920  143.2290 O   0  0  0  0  0  1  0  0  0  0  0  0
  190.3800  175.6370  143.7850 C   0  0  1  0  0  3  0  0  0  0  0  0
  191.3880  176.1210  142.7630 C   0  0  2  0  0  3  0  0  0  0  0  0
  192.6060  175.2070  144.8440 C   0  0  2  0  0  3  0  0  0  0  0  0
  193.8440  174.4050  144.7540 N   0  0  0  0  0  0  0  0  0  0  0  0
  194.9320  172.2580  145.3000 C   0  0  0  0  0  2  0  0  0  0  0  0
  195.0780  175.2160  144.9180 C   0  0  1  0  0  0  0  0  0  0  0  0
  196.3320  174.3300  145.0290 C   0  0  0  0  0  2  0  0  0  0  0  0
  193.8310  173.2570  145.6710 C   0  0  0  0  0  2  0  0  0  0  0  0
  195.2600  176.1190  143.7100 C   0  0  0  0  0  1  0  0  0  0  0  0
  196.0760  172.9130  144.5230 C   0  0  0  0  0  2  0  0  0  0  0  0
  195.0090  176.0100  146.0670 O   0  0  0  0  0  1  0  0  0  0  0  0
  191.8090  176.2730  146.9720 C   0  0  0  0  0  1  0  0  0  0  0  0
  191.8420  174.9940  146.1570 C   0  0  0  0  0  2  0  0  0  0  0  0
  1  7  1  0  0  0  0
  2 11  1  0  0  0  0
  4  9  2  0  0  0  0
  5  8  1  0  0  0  0
  6  5  2  0  0  0  0
  7 18  1  0  0  0  0
  8 10  1  0  0  0  0
  8  7  2  0  0  0  0
  9 20  1  0  0  0  0
  9 10  1  0  0  0  0
 10  3  2  0  0  0  0
 11  4  1  0  0  0  0
 11  5  1  0  0  0  0
 12  4  1  0  0  0  0
 13 16  1  0  0  0  0
 15 19  2  0  0  0  0
 16 14  2  0  0  0  0
 18 13  2  0  0  0  0
 18 15  1  0  0  0  0
 19 14  1  0  0  0  0
 19 17  1  0  0  0  0
 21 23  1  0  0  0  0
 21 25  1  1  0  0  0
 23 20  1  6  0  0  0
 24 22  1  1  0  0  0
 24 21  1  0  0  0  0
 24 23  1  0  0  0  0
 25 35  1  1  0  0  0
 26 25  1  0  0  0  0
 26 28  1  0  0  0  0
 26 30  1  0  0  0  0
 27 30  1  0  0  0  0
 28 31  1  6  0  0  0
 28 29  1  0  0  0  0
 28 33  1  0  0  0  0
 32 29  1  0  0  0  0
 32 27  1  0  0  0  0
 35 34  1  0  0  0  0
M  END
>  <MODEL>
2

>  <REMARK>
 VINA RESULT:      -7.9      2.787      4.718
  Name = 
  6 active torsions:
  status: ('A' for Active; 'I' for Inactive)
    1  A    between atoms: C_3  and  C_24
    2  A    between atoms: C_3  and  C_29
    3  A    between atoms: N_5  and  C_31
    4  A    between atoms: C_7  and  C_31
    5  A    between atoms: C_19  and  C_26
    6  A    between atoms: C_30  and  C_31
                            x       y       z     vdW  Elec       q    Type
                         _______ _______ _______ _____ _____    ______ ____

>  <TORSDO>
F 6

$$$$
=
 OpenBabel11062421593D

 35 38  0  0  1  0  0  0  0  0999 V2000
  186.3810  178.5790  142.4820 N   0  0  0  0  0  1  0  0  0  0  0  0
  187.7380  175.3320  138.6220 C   0  0  0  0  0  1  0  0  0  0  0  0
  188.7440  175.3540  144.0470 O   0  0  0  0  0  0  0  0  0  0  0  0
  188.2810  174.0980  140.7400 C   0  0  0  0  0  0  0  0  0  0  0  0
  187.4570  176.4710  140.8240 C   0  0  0  0  0  0  0  0  0  0  0  0
  187.0790  177.5050  140.2060 O   0  0  0  0  0  0  0  0  0  0  0  0
  186.9300  177.4060  143.0810 C   0  0  0  0  0  0  0  0  0  0  0  0
  187.5130  176.4430  142.3110 C   0  0  0  0  0  0  0  0  0  0  0  0
  188.5000  174.0850  142.0710 C   0  0  0  0  0  0  0  0  0  0  0  0
  188.2550  175.2930  142.8870 C   0  0  0  0  0  0  0  0  0  0  0  0
  187.8370  175.3020  140.0780 N   0  0  0  0  0  0  0  0  0  0  0  0
  188.5300  172.8600  139.9280 C   0  0  0  0  0  1  0  0  0  0  0  0
  185.5720  176.7750  145.0920 C   0  0  0  0  0  3  0  0  0  0  0  0
  186.4170  177.1630  147.3260 C   0  0  0  0  0  3  0  0  0  0  0  0
  187.7650  177.7520  145.4030 C   0  0  0  0  0  3  0  0  0  0  0  0
  185.4040  176.7100  146.4780 C   0  0  0  0  0  3  0  0  0  0  0  0
  188.5740  178.1350  147.6130 F   0  0  0  0  0  0  0  0  0  0  0  0
  186.7630  177.2790  144.5450 C   0  0  0  0  0  0  0  0  0  0  0  0
  187.5960  177.6860  146.7900 C   0  0  0  0  0  0  0  0  0  0  0  0
  188.9780  172.8410  142.7640 C   0  0  0  0  0  2  0  0  0  0  0  0
  191.2020  173.3130  143.7300 C   0  0  1  0  0  3  0  0  0  0  0  0
  192.1760  171.1450  143.1810 O   0  0  0  0  0  1  0  0  0  0  0  0
  190.4740  172.6800  142.5620 C   0  0  1  0  0  3  0  0  0  0  0  0
  191.0320  171.7920  143.6550 C   0  0  2  0  0  3  0  0  0  0  0  0
  192.5790  173.8210  143.2840 C   0  0  2  0  0  3  0  0  0  0  0  0
  193.2190  174.5720  144.3840 N   0  0  0  0  0  0  0  0  0  0  0  0
  193.6800  176.8010  145.3400 C   0  0  0  0  0  2  0  0  0  0  0  0
  194.5080  173.9790  144.8240 C   0  0  1  0  0  0  0  0  0  0  0  0
  195.2470  174.8930  145.8180 C   0  0  0  0  0  2  0  0  0  0  0  0
  193.3660  176.0000  144.0710 C   0  0  0  0  0  2  0  0  0  0  0  0
  194.2480  172.6550  145.5230 C   0  0  0  0  0  1  0  0  0  0  0  0
  194.3190  175.9380  146.4300 C   0  0  0  0  0  2  0  0  0  0  0  0
  195.3550  173.7530  143.7350 O   0  0  0  0  0  1  0  0  0  0  0  0
  193.3340  174.0480  140.9010 C   0  0  0  0  0  1  0  0  0  0  0  0
  192.4560  174.6350  141.9890 C   0  0  0  0  0  2  0  0  0  0  0  0
  1  7  1  0  0  0  0
  2 11  1  0  0  0  0
  4  9  2  0  0  0  0
  5  8  1  0  0  0  0
  6  5  2  0  0  0  0
  7 18  1  0  0  0  0
  8 10  1  0  0  0  0
  8  7  2  0  0  0  0
  9 20  1  0  0  0  0
  9 10  1  0  0  0  0
 10  3  2  0  0  0  0
 11  4  1  0  0  0  0
 11  5  1  0  0  0  0
 12  4  1  0  0  0  0
 13 16  1  0  0  0  0
 15 19  2  0  0  0  0
 16 14  2  0  0  0  0
 18 13  2  0  0  0  0
 18 15  1  0  0  0  0
 19 14  1  0  0  0  0
 19 17  1  0  0  0  0
 21 25  1  6  0  0  0
 23 20  1  1  0  0  0
 23 24  1  0  0  0  0
 23 21  1  0  0  0  0
 24 22  1  6  0  0  0
 24 21  1  0  0  0  0
 25 35  1  6  0  0  0
 25 26  1  0  0  0  0
 26 28  1  0  0  0  0
 27 32  1  0  0  0  0
 28 31  1  1  0  0  0
 28 29  1  0  0  0  0
 29 32  1  0  0  0  0
 30 26  1  0  0  0  0
 30 27  1  0  0  0  0
 33 28  1  0  0  0  0
 34 35  1  0  0  0  0
M  END
>  <MODEL>
3

>  <REMARK>
 VINA RESULT:      -7.6      2.469      4.429
  Name = 
  6 active torsions:
  status: ('A' for Active; 'I' for Inactive)
    1  A    between atoms: C_3  and  C_24
    2  A    between atoms: C_3  and  C_29
    3  A    between atoms: N_5  and  C_31
    4  A    between atoms: C_7  and  C_31
    5  A    between atoms: C_19  and  C_26
    6  A    between atoms: C_30  and  C_31
                            x       y       z     vdW  Elec       q    Type
                         _______ _______ _______ _____ _____    ______ ____

>  <TORSDO>
F 6

$$$$
=
 OpenBabel11062421593D

 35 38  0  0  1  0  0  0  0  0999 V2000
  185.4870  177.6520  140.8860 N   0  0  0  0  0  1  0  0  0  0  0  0
  188.9030  174.0020  139.3690 C   0  0  0  0  0  1  0  0  0  0  0  0
  188.5380  177.1730  143.8690 O   0  0  0  0  0  0  0  0  0  0  0  0
  189.4040  174.4020  141.7960 C   0  0  0  0  0  0  0  0  0  0  0  0
  187.6820  175.7930  140.6050 C   0  0  0  0  0  0  0  0  0  0  0  0
  187.0660  176.0660  139.5380 O   0  0  0  0  0  0  0  0  0  0  0  0
  186.3170  177.3460  142.0070 C   0  0  0  0  0  0  0  0  0  0  0  0
  187.4030  176.5340  141.8640 C   0  0  0  0  0  0  0  0  0  0  0  0
  189.2970  175.1530  142.9110 C   0  0  0  0  0  0  0  0  0  0  0  0
  188.3980  176.3250  142.9470 C   0  0  0  0  0  0  0  0  0  0  0  0
  188.6690  174.7460  140.6020 N   0  0  0  0  0  0  0  0  0  0  0  0
  190.3180  173.2110  141.7800 C   0  0  0  0  0  1  0  0  0  0  0  0
  185.9240  179.2820  143.5510 C   0  0  0  0  0  3  0  0  0  0  0  0
  185.1850  178.9200  145.8270 C   0  0  0  0  0  3  0  0  0  0  0  0
  185.5230  177.0320  144.3490 C   0  0  0  0  0  3  0  0  0  0  0  0
  185.5670  179.7910  144.8030 C   0  0  0  0  0  3  0  0  0  0  0  0
  184.8040  176.6970  146.5970 F   0  0  0  0  0  0  0  0  0  0  0  0
  185.8860  177.8990  143.3090 C   0  0  0  0  0  0  0  0  0  0  0  0
  185.1650  177.5410  145.6010 C   0  0  0  0  0  0  0  0  0  0  0  0
  190.0710  174.8100  144.1520 C   0  0  0  0  0  2  0  0  0  0  0  0
  192.4960  175.2350  143.9450 C   0  0  1  0  0  3  0  0  0  0  0  0
  192.2790  177.5230  143.1290 O   0  0  0  0  0  1  0  0  0  0  0  0
  191.1710  175.8310  144.3740 C   0  0  1  0  0  3  0  0  0  0  0  0
  191.7630  176.2280  143.0370 C   0  0  2  0  0  3  0  0  0  0  0  0
  193.6420  175.8450  144.7610 C   0  0  2  0  0  3  0  0  0  0  0  0
  194.8940  175.1030  144.5040 N   0  0  0  0  0  0  0  0  0  0  0  0
  196.5590  173.5260  145.4180 C   0  0  0  0  0  2  0  0  0  0  0  0
  195.8800  175.8780  143.7090 C   0  0  1  0  0  0  0  0  0  0  0  0
  197.2430  175.1650  143.6380 C   0  0  0  0  0  2  0  0  0  0  0  0
  195.4940  174.5800  145.7390 C   0  0  0  0  0  2  0  0  0  0  0  0
  195.3730  176.0410  142.2850 C   0  0  0  0  0  1  0  0  0  0  0  0
  197.1340  173.6900  144.0090 C   0  0  0  0  0  2  0  0  0  0  0  0
  196.0860  177.1460  144.2600 O   0  0  0  0  0  1  0  0  0  0  0  0
  193.8170  177.1650  146.8890 C   0  0  0  0  0  1  0  0  0  0  0  0
  193.2690  175.9040  146.2480 C   0  0  0  0  0  2  0  0  0  0  0  0
  1  7  1  0  0  0  0
  2 11  1  0  0  0  0
  4  9  2  0  0  0  0
  5  8  1  0  0  0  0
  6  5  2  0  0  0  0
  7 18  1  0  0  0  0
  8  7  2  0  0  0  0
  8 10  1  0  0  0  0
  9 10  1  0  0  0  0
  9 20  1  0  0  0  0
 10  3  2  0  0  0  0
 11  5  1  0  0  0  0
 11  4  1  0  0  0  0
 12  4  1  0  0  0  0
 13 16  1  0  0  0  0
 15 19  2  0  0  0  0
 16 14  2  0  0  0  0
 18 13  2  0  0  0  0
 18 15  1  0  0  0  0
 19 14  1  0  0  0  0
 19 17  1  0  0  0  0
 21 23  1  0  0  0  0
 21 25  1  1  0  0  0
 23 20  1  6  0  0  0
 24 22  1  1  0  0  0
 24 21  1  0  0  0  0
 24 23  1  0  0  0  0
 25 35  1  1  0  0  0
 26 25  1  0  0  0  0
 26 30  1  0  0  0  0
 27 30  1  0  0  0  0
 28 31  1  6  0  0  0
 28 33  1  0  0  0  0
 28 26  1  0  0  0  0
 29 28  1  0  0  0  0
 29 32  1  0  0  0  0
 32 27  1  0  0  0  0
 35 34  1  0  0  0  0
M  END
>  <MODEL>
4

>  <REMARK>
 VINA RESULT:      -7.4      3.110      5.818
  Name = 
  6 active torsions:
  status: ('A' for Active; 'I' for Inactive)
    1  A    between atoms: C_3  and  C_24
    2  A    between atoms: C_3  and  C_29
    3  A    between atoms: N_5  and  C_31
    4  A    between atoms: C_7  and  C_31
    5  A    between atoms: C_19  and  C_26
    6  A    between atoms: C_30  and  C_31
                            x       y       z     vdW  Elec       q    Type
                         _______ _______ _______ _____ _____    ______ ____

>  <TORSDO>
F 6

$$$$
=
 OpenBabel11062421593D

 35 38  0  0  1  0  0  0  0  0999 V2000
  194.9030  173.0420  141.3780 N   0  0  0  0  0  1  0  0  0  0  0  0
  189.8960  173.3970  139.9330 C   0  0  0  0  0  1  0  0  0  0  0  0
  192.3560  172.5970  144.8060 O   0  0  0  0  0  0  0  0  0  0  0  0
  189.8700  173.5640  142.4370 C   0  0  0  0  0  0  0  0  0  0  0  0
  192.0190  173.1160  141.2130 C   0  0  0  0  0  0  0  0  0  0  0  0
  192.6180  172.9260  140.1180 O   0  0  0  0  0  0  0  0  0  0  0  0
  194.1190  173.1510  142.5660 C   0  0  0  0  0  0  0  0  0  0  0  0
  192.7580  173.1050  142.5040 C   0  0  0  0  0  0  0  0  0  0  0  0
  190.4720  173.4020  143.6330 C   0  0  0  0  0  0  0  0  0  0  0  0
  191.9000  173.0340  143.7150 C   0  0  0  0  0  0  0  0  0  0  0  0
  190.5990  173.3490  141.2100 N   0  0  0  0  0  0  0  0  0  0  0  0
  188.4190  173.9440  142.3740 C   0  0  0  0  0  1  0  0  0  0  0  0
  194.9420  174.6650  144.3870 C   0  0  0  0  0  3  0  0  0  0  0  0
  196.3870  173.8250  146.1370 C   0  0  0  0  0  3  0  0  0  0  0  0
  195.5820  172.3310  144.4090 C   0  0  0  0  0  3  0  0  0  0  0  0
  195.6930  174.8830  145.5450 C   0  0  0  0  0  3  0  0  0  0  0  0
  197.0140  171.5250  146.1370 F   0  0  0  0  0  0  0  0  0  0  0  0
  194.8650  173.3820  143.8220 C   0  0  0  0  0  0  0  0  0  0  0  0
  196.3330  172.5500  145.5680 C   0  0  0  0  0  0  0  0  0  0  0  0
  189.7140  173.6090  144.9140 C   0  0  0  0  0  2  0  0  0  0  0  0
  188.4530  175.5770  145.7130 C   0  0  1  0  0  3  0  0  0  0  0  0
  190.0900  176.2590  147.3860 O   0  0  0  0  0  1  0  0  0  0  0  0
  189.8300  175.0560  145.3560 C   0  0  1  0  0  3  0  0  0  0  0  0
  189.4350  175.1660  146.8140 C   0  0  2  0  0  3  0  0  0  0  0  0
  188.3760  177.0880  145.4610 C   0  0  2  0  0  3  0  0  0  0  0  0
  186.9680  177.5350  145.5100 N   0  0  0  0  0  0  0  0  0  0  0  0
  185.2060  178.8650  144.4030 C   0  0  0  0  0  2  0  0  0  0  0  0
  186.4930  177.8210  146.8870 C   0  0  1  0  0  0  0  0  0  0  0  0
  185.1020  178.4800  146.8860 C   0  0  0  0  0  2  0  0  0  0  0  0
  186.7130  178.6670  144.6080 C   0  0  0  0  0  2  0  0  0  0  0  0
  186.3840  176.5230  147.6690 C   0  0  0  0  0  1  0  0  0  0  0  0
  184.3810  178.2880  145.5550 C   0  0  0  0  0  2  0  0  0  0  0  0
  187.3740  178.6760  147.5550 O   0  0  0  0  0  1  0  0  0  0  0  0
  190.3240  178.2720  144.4120 C   0  0  0  0  0  1  0  0  0  0  0  0
  189.0780  177.4480  144.1460 C   0  0  0  0  0  2  0  0  0  0  0  0
  1  7  1  0  0  0  0
  2 11  1  0  0  0  0
  4  9  2  0  0  0  0
  5  8  1  0  0  0  0
  6  5  2  0  0  0  0
  7 18  1  0  0  0  0
  8  7  2  0  0  0  0
  8 10  1  0  0  0  0
  9 10  1  0  0  0  0
  9 20  1  0  0  0  0
 10  3  2  0  0  0  0
 11  5  1  0  0  0  0
 11  4  1  0  0  0  0
 12  4  1  0  0  0  0
 13 16  1  0  0  0  0
 15 19  2  0  0  0  0
 16 14  2  0  0  0  0
 18 13  2  0  0  0  0
 18 15  1  0  0  0  0
 19 14  1  0  0  0  0
 19 17  1  0  0  0  0
 21 25  1  1  0  0  0
 21 24  1  0  0  0  0
 23 20  1  6  0  0  0
 23 21  1  0  0  0  0
 23 24  1  0  0  0  0
 24 22  1  1  0  0  0
 25 35  1  6  0  0  0
 25 26  1  0  0  0  0
 26 28  1  0  0  0  0
 27 30  1  0  0  0  0
 27 32  1  0  0  0  0
 28 33  1  0  0  0  0
 28 31  1  1  0  0  0
 29 28  1  0  0  0  0
 30 26  1  0  0  0  0
 32 29  1  0  0  0  0
 35 34  1  0  0  0  0
M  END
>  <MODEL>
5

>  <REMARK>
 VINA RESULT:      -7.1      2.654      7.561
  Name = 
  6 active torsions:
  status: ('A' for Active; 'I' for Inactive)
    1  A    between atoms: C_3  and  C_24
    2  A    between atoms: C_3  and  C_29
    3  A    between atoms: N_5  and  C_31
    4  A    between atoms: C_7  and  C_31
    5  A    between atoms: C_19  and  C_26
    6  A    between atoms: C_30  and  C_31
                            x       y       z     vdW  Elec       q    Type
                         _______ _______ _______ _____ _____    ______ ____

>  <TORSDO>
F 6

$$$$
=
 OpenBabel11062421593D

 35 38  0  0  1  0  0  0  0  0999 V2000
  191.8890  170.8750  142.7370 N   0  0  0  0  0  1  0  0  0  0  0  0
  193.4290  174.1400  146.5120 C   0  0  0  0  0  1  0  0  0  0  0  0
  191.5690  174.9350  141.3790 O   0  0  0  0  0  0  0  0  0  0  0  0
  192.2930  175.5940  144.8100 C   0  0  0  0  0  0  0  0  0  0  0  0
  192.6260  173.1410  144.3720 C   0  0  0  0  0  0  0  0  0  0  0  0
  193.0750  172.0270  144.7600 O   0  0  0  0  0  0  0  0  0  0  0  0
  191.5210  172.1950  142.3400 C   0  0  0  0  0  0  0  0  0  0  0  0
  191.9340  173.2760  143.0620 C   0  0  0  0  0  0  0  0  0  0  0  0
  191.8070  175.7900  143.5670 C   0  0  0  0  0  0  0  0  0  0  0  0
  191.7340  174.6750  142.6010 C   0  0  0  0  0  0  0  0  0  0  0  0
  192.7840  174.2980  145.2130 N   0  0  0  0  0  0  0  0  0  0  0  0
  192.3540  176.7380  145.7800 C   0  0  0  0  0  1  0  0  0  0  0  0
  189.2690  172.6170  141.3220 C   0  0  0  0  0  3  0  0  0  0  0  0
  188.9230  172.3710  138.9400 C   0  0  0  0  0  3  0  0  0  0  0  0
  191.1170  171.9890  139.8900 C   0  0  0  0  0  3  0  0  0  0  0  0
  188.4220  172.6600  140.2120 C   0  0  0  0  0  3  0  0  0  0  0  0
  190.7520  171.7430  137.5470 F   0  0  0  0  0  0  0  0  0  0  0  0
  190.6280  172.3000  141.1660 C   0  0  0  0  0  0  0  0  0  0  0  0
  190.2690  172.0330  138.7790 C   0  0  0  0  0  0  0  0  0  0  0  0
  191.3100  177.1400  143.1360 C   0  0  0  0  0  2  0  0  0  0  0  0
  189.0190  177.8500  143.7260 C   0  0  1  0  0  3  0  0  0  0  0  0
  188.2980  178.2920  141.4380 O   0  0  0  0  0  1  0  0  0  0  0  0
  189.8470  177.0510  142.7410 C   0  0  1  0  0  3  0  0  0  0  0  0
  189.3510  178.4260  142.3460 C   0  0  2  0  0  3  0  0  0  0  0  0
  187.6110  177.2520  143.8430 C   0  0  2  0  0  3  0  0  0  0  0  0
  186.9210  177.8160  145.0230 N   0  0  0  0  0  0  0  0  0  0  0  0
  186.4180  177.5340  147.4230 C   0  0  0  0  0  2  0  0  0  0  0  0
  185.6130  178.4370  144.6930 C   0  0  1  0  0  0  0  0  0  0  0  0
  184.8300  178.8240  145.9610 C   0  0  0  0  0  2  0  0  0  0  0  0
  186.7900  176.8360  146.1100 C   0  0  0  0  0  2  0  0  0  0  0  0
  185.8400  179.7070  143.8890 C   0  0  0  0  0  1  0  0  0  0  0  0
  185.7300  178.8810  147.1920 C   0  0  0  0  0  2  0  0  0  0  0  0
  184.8170  177.5670  143.9440 O   0  0  0  0  0  1  0  0  0  0  0  0
  187.0440  175.1420  142.6070 C   0  0  0  0  0  1  0  0  0  0  0  0
  187.6790  175.7200  143.8580 C   0  0  0  0  0  2  0  0  0  0  0  0
  3 10  2  0  0  0  0
  4 11  1  0  0  0  0
  4 12  1  0  0  0  0
  5  6  2  0  0  0  0
  5 11  1  0  0  0  0
  7  1  1  0  0  0  0
  7  8  2  0  0  0  0
  8  5  1  0  0  0  0
  9  4  2  0  0  0  0
 10  8  1  0  0  0  0
 10  9  1  0  0  0  0
 11  2  1  0  0  0  0
 14 16  1  0  0  0  0
 15 18  2  0  0  0  0
 16 13  2  0  0  0  0
 17 19  1  0  0  0  0
 18 13  1  0  0  0  0
 18  7  1  0  0  0  0
 19 14  2  0  0  0  0
 19 15  1  0  0  0  0
 20  9  1  0  0  0  0
 21 25  1  6  0  0  0
 23 20  1  1  0  0  0
 23 21  1  0  0  0  0
 24 22  1  6  0  0  0
 24 23  1  0  0  0  0
 24 21  1  0  0  0  0
 25 35  1  1  0  0  0
 25 26  1  0  0  0  0
 26 30  1  0  0  0  0
 28 31  1  6  0  0  0
 28 26  1  0  0  0  0
 28 29  1  0  0  0  0
 29 32  1  0  0  0  0
 30 27  1  0  0  0  0
 32 27  1  0  0  0  0
 33 28  1  0  0  0  0
 34 35  1  0  0  0  0
M  END
>  <MODEL>
6

>  <REMARK>
 VINA RESULT:      -7.0      3.072      7.802
  Name = 
  6 active torsions:
  status: ('A' for Active; 'I' for Inactive)
    1  A    between atoms: C_3  and  C_24
    2  A    between atoms: C_3  and  C_29
    3  A    between atoms: N_5  and  C_31
    4  A    between atoms: C_7  and  C_31
    5  A    between atoms: C_19  and  C_26
    6  A    between atoms: C_30  and  C_31
                            x       y       z     vdW  Elec       q    Type
                         _______ _______ _______ _____ _____    ______ ____

>  <TORSDO>
F 6

$$$$
=
 OpenBabel11062421593D

 35 38  0  0  1  0  0  0  0  0999 V2000
  188.6450  172.5150  142.9520 N   0  0  0  0  0  1  0  0  0  0  0  0
  192.3850  171.7160  139.3940 C   0  0  0  0  0  1  0  0  0  0  0  0
  191.0700  176.0370  142.5630 O   0  0  0  0  0  0  0  0  0  0  0  0
  193.0480  173.8260  140.5820 C   0  0  0  0  0  0  0  0  0  0  0  0
  190.8650  172.6980  141.1110 C   0  0  0  0  0  0  0  0  0  0  0  0
  190.0540  171.7570  140.8870 O   0  0  0  0  0  0  0  0  0  0  0  0
  189.5690  173.5990  143.0490 C   0  0  0  0  0  0  0  0  0  0  0  0
  190.5710  173.7380  142.1340 C   0  0  0  0  0  0  0  0  0  0  0  0
  192.7480  174.8700  141.3790 C   0  0  0  0  0  0  0  0  0  0  0  0
  191.4480  174.9360  142.0790 C   0  0  0  0  0  0  0  0  0  0  0  0
  192.0930  172.7650  140.3650 N   0  0  0  0  0  0  0  0  0  0  0  0
  194.3760  173.7740  139.8830 C   0  0  0  0  0  1  0  0  0  0  0  0
  189.9930  174.1730  145.4520 C   0  0  0  0  0  3  0  0  0  0  0  0
  188.9910  176.1360  146.4510 C   0  0  0  0  0  3  0  0  0  0  0  0
  188.5880  175.6250  144.1180 C   0  0  0  0  0  3  0  0  0  0  0  0
  189.7920  174.9960  146.5630 C   0  0  0  0  0  3  0  0  0  0  0  0
  187.6030  177.5480  145.1250 F   0  0  0  0  0  0  0  0  0  0  0  0
  189.4090  174.4930  144.2160 C   0  0  0  0  0  0  0  0  0  0  0  0
  188.3880  176.4490  145.2300 C   0  0  0  0  0  0  0  0  0  0  0  0
  193.7300  175.9860  141.5960 C   0  0  0  0  0  2  0  0  0  0  0  0
  195.0350  174.7590  143.2970 C   0  0  1  0  0  3  0  0  0  0  0  0
  196.0830  176.7310  144.2770 O   0  0  0  0  0  1  0  0  0  0  0  0
  194.1950  175.9940  143.0400 C   0  0  1  0  0  3  0  0  0  0  0  0
  195.7040  176.1200  143.0790 C   0  0  2  0  0  3  0  0  0  0  0  0
  194.9190  174.3350  144.7660 C   0  0  2  0  0  3  0  0  0  0  0  0
  195.3200  172.9200  144.9150 N   0  0  0  0  0  0  0  0  0  0  0  0
  194.5880  170.6430  145.5270 C   0  0  0  0  0  2  0  0  0  0  0  0
  196.6980  172.7540  145.4440 C   0  0  1  0  0  0  0  0  0  0  0  0
  197.0060  171.2850  145.7830 C   0  0  0  0  0  2  0  0  0  0  0  0
  194.3470  172.1470  145.7000 C   0  0  0  0  0  2  0  0  0  0  0  0
  197.7030  173.2050  144.3980 C   0  0  0  0  0  1  0  0  0  0  0  0
  196.0270  170.3270  145.1120 C   0  0  0  0  0  2  0  0  0  0  0  0
  196.8850  173.5130  146.6040 O   0  0  0  0  0  1  0  0  0  0  0  0
  193.5650  175.5780  146.4750 C   0  0  0  0  0  1  0  0  0  0  0  0
  193.5100  174.6230  145.2980 C   0  0  0  0  0  2  0  0  0  0  0  0
  1  7  1  0  0  0  0
  2 11  1  0  0  0  0
  4  9  2  0  0  0  0
  5  8  1  0  0  0  0
  6  5  2  0  0  0  0
  7 18  1  0  0  0  0
  8  7  2  0  0  0  0
  9 20  1  0  0  0  0
  9 10  1  0  0  0  0
 10  8  1  0  0  0  0
 10  3  2  0  0  0  0
 11  4  1  0  0  0  0
 11  5  1  0  0  0  0
 12  4  1  0  0  0  0
 13 16  1  0  0  0  0
 14 16  2  0  0  0  0
 15 18  1  0  0  0  0
 15 19  2  0  0  0  0
 17 19  1  0  0  0  0
 18 13  2  0  0  0  0
 19 14  1  0  0  0  0
 21 25  1  1  0  0  0
 23 20  1  6  0  0  0
 23 24  1  0  0  0  0
 23 21  1  0  0  0  0
 24 21  1  0  0  0  0
 24 22  1  1  0  0  0
 25 26  1  0  0  0  0
 25 35  1  6  0  0  0
 26 28  1  0  0  0  0
 26 30  1  0  0  0  0
 27 30  1  0  0  0  0
 28 31  1  6  0  0  0
 28 29  1  0  0  0  0
 28 33  1  0  0  0  0
 32 27  1  0  0  0  0
 32 29  1  0  0  0  0
 35 34  1  0  0  0  0
M  END
>  <MODEL>
7

>  <REMARK>
 VINA RESULT:      -7.0      3.344      6.596
  Name = 
  6 active torsions:
  status: ('A' for Active; 'I' for Inactive)
    1  A    between atoms: C_3  and  C_24
    2  A    between atoms: C_3  and  C_29
    3  A    between atoms: N_5  and  C_31
    4  A    between atoms: C_7  and  C_31
    5  A    between atoms: C_19  and  C_26
    6  A    between atoms: C_30  and  C_31
                            x       y       z     vdW  Elec       q    Type
                         _______ _______ _______ _____ _____    ______ ____

>  <TORSDO>
F 6

$$$$
=
 OpenBabel11062421593D

 35 38  0  0  1  0  0  0  0  0999 V2000
  193.0180  171.7210  141.8290 N   0  0  0  0  0  1  0  0  0  0  0  0
  195.4610  174.2250  145.7080 C   0  0  0  0  0  1  0  0  0  0  0  0
  191.3130  175.6270  142.3510 O   0  0  0  0  0  0  0  0  0  0  0  0
  193.4030  175.5850  145.2420 C   0  0  0  0  0  0  0  0  0  0  0  0
  193.9690  173.5990  143.8090 C   0  0  0  0  0  0  0  0  0  0  0  0
  194.7560  172.6480  143.5460 O   0  0  0  0  0  0  0  0  0  0  0  0
  192.2570  172.8890  142.1340 C   0  0  0  0  0  0  0  0  0  0  0  0
  192.7360  173.8210  143.0060 C   0  0  0  0  0  0  0  0  0  0  0  0
  192.3680  175.9160  144.4440 C   0  0  0  0  0  0  0  0  0  0  0  0
  192.0750  175.1330  143.2250 C   0  0  0  0  0  0  0  0  0  0  0  0
  194.2700  174.4800  144.9060 N   0  0  0  0  0  0  0  0  0  0  0  0
  193.6820  176.3890  146.4790 C   0  0  0  0  0  1  0  0  0  0  0  0
  189.7710  172.5680  142.2050 C   0  0  0  0  0  3  0  0  0  0  0  0
  188.4070  173.0390  140.2630 C   0  0  0  0  0  3  0  0  0  0  0  0
  190.8010  173.3910  140.1740 C   0  0  0  0  0  3  0  0  0  0  0  0
  188.5180  172.6060  141.5860 C   0  0  0  0  0  3  0  0  0  0  0  0
  189.4390  173.8400  138.2700 F   0  0  0  0  0  0  0  0  0  0  0  0
  190.9190  172.9790  141.5090 C   0  0  0  0  0  0  0  0  0  0  0  0
  189.5470  173.4300  139.5560 C   0  0  0  0  0  0  0  0  0  0  0  0
  191.4720  177.0750  144.7790 C   0  0  0  0  0  2  0  0  0  0  0  0
  189.1700  177.9320  144.5280 C   0  0  1  0  0  3  0  0  0  0  0  0
  189.2830  178.2480  142.1120 O   0  0  0  0  0  1  0  0  0  0  0  0
  190.2220  177.0280  143.9200 C   0  0  1  0  0  3  0  0  0  0  0  0
  189.9810  178.3940  143.3130 C   0  0  2  0  0  3  0  0  0  0  0  0
  187.7660  177.4110  144.1940 C   0  0  2  0  0  3  0  0  0  0  0  0
  186.8220  177.7820  145.2700 N   0  0  0  0  0  0  0  0  0  0  0  0
  185.9040  177.1790  147.4800 C   0  0  0  0  0  2  0  0  0  0  0  0
  185.5520  178.3580  144.7600 C   0  0  1  0  0  0  0  0  0  0  0  0
  184.5150  178.5370  145.8830 C   0  0  0  0  0  2  0  0  0  0  0  0
  186.5730  176.6710  146.1980 C   0  0  0  0  0  2  0  0  0  0  0  0
  185.8180  179.7280  144.1580 C   0  0  0  0  0  1  0  0  0  0  0  0
  185.1600  178.4980  147.2660 C   0  0  0  0  0  2  0  0  0  0  0  0
  184.9860  177.5380  143.7790 O   0  0  0  0  0  1  0  0  0  0  0  0
  187.1220  175.5800  142.6030 C   0  0  0  0  0  1  0  0  0  0  0  0
  187.8050  175.9030  143.9190 C   0  0  0  0  0  2  0  0  0  0  0  0
  1  7  1  0  0  0  0
  3 10  2  0  0  0  0
  4 12  1  0  0  0  0
  5 11  1  0  0  0  0
  6  5  2  0  0  0  0
  7  8  2  0  0  0  0
  8 10  1  0  0  0  0
  8  5  1  0  0  0  0
  9 20  1  0  0  0  0
  9  4  2  0  0  0  0
 10  9  1  0  0  0  0
 11  4  1  0  0  0  0
 11  2  1  0  0  0  0
 14 16  2  0  0  0  0
 15 18  1  0  0  0  0
 16 13  1  0  0  0  0
 17 19  1  0  0  0  0
 18  7  1  0  0  0  0
 18 13  2  0  0  0  0
 19 15  2  0  0  0  0
 19 14  1  0  0  0  0
 21 25  1  6  0  0  0
 23 21  1  0  0  0  0
 23 20  1  1  0  0  0
 24 22  1  6  0  0  0
 24 23  1  0  0  0  0
 24 21  1  0  0  0  0
 25 35  1  1  0  0  0
 25 26  1  0  0  0  0
 26 30  1  0  0  0  0
 28 31  1  6  0  0  0
 28 26  1  0  0  0  0
 28 29  1  0  0  0  0
 29 32  1  0  0  0  0
 30 27  1  0  0  0  0
 32 27  1  0  0  0  0
 33 28  1  0  0  0  0
 34 35  1  0  0  0  0
M  END
>  <MODEL>
8

>  <REMARK>
 VINA RESULT:      -7.0      2.972      7.926
  Name = 
  6 active torsions:
  status: ('A' for Active; 'I' for Inactive)
    1  A    between atoms: C_3  and  C_24
    2  A    between atoms: C_3  and  C_29
    3  A    between atoms: N_5  and  C_31
    4  A    between atoms: C_7  and  C_31
    5  A    between atoms: C_19  and  C_26
    6  A    between atoms: C_30  and  C_31
                            x       y       z     vdW  Elec       q    Type
                         _______ _______ _______ _____ _____    ______ ____

>  <TORSDO>
F 6

$$$$
=
 OpenBabel11062421593D

 35 38  0  0  1  0  0  0  0  0999 V2000
  184.4460  179.8740  144.4010 N   0  0  0  0  0  1  0  0  0  0  0  0
  187.5690  178.4330  148.3330 C   0  0  0  0  0  1  0  0  0  0  0  0
  186.1250  176.0070  143.5920 O   0  0  0  0  0  0  0  0  0  0  0  0
  188.0640  176.8190  146.4750 C   0  0  0  0  0  0  0  0  0  0  0  0
  186.2360  178.5260  146.2260 C   0  0  0  0  0  0  0  0  0  0  0  0
  185.5710  179.4760  146.7250 O   0  0  0  0  0  0  0  0  0  0  0  0
  185.1740  178.7240  143.9730 C   0  0  0  0  0  0  0  0  0  0  0  0
  185.9570  178.0340  144.8500 C   0  0  0  0  0  0  0  0  0  0  0  0
  187.7380  176.2400  145.3010 C   0  0  0  0  0  0  0  0  0  0  0  0
  186.5920  176.7340  144.5100 C   0  0  0  0  0  0  0  0  0  0  0  0
  187.2810  177.9120  147.0000 N   0  0  0  0  0  0  0  0  0  0  0  0
  189.2350  176.3060  147.2630 C   0  0  0  0  0  1  0  0  0  0  0  0
  186.2280  178.2890  141.7400 C   0  0  0  0  0  3  0  0  0  0  0  0
  184.8610  177.8660  139.7880 C   0  0  0  0  0  3  0  0  0  0  0  0
  183.8150  178.2500  141.9380 C   0  0  0  0  0  3  0  0  0  0  0  0
  186.1210  178.0220  140.3720 C   0  0  0  0  0  3  0  0  0  0  0  0
  182.4870  177.8400  140.0010 F   0  0  0  0  0  0  0  0  0  0  0  0
  185.0750  178.3850  142.5360 C   0  0  0  0  0  0  0  0  0  0  0  0
  183.7090  177.9820  140.5690 C   0  0  0  0  0  0  0  0  0  0  0  0
  188.5380  175.0910  144.7570 C   0  0  0  0  0  2  0  0  0  0  0  0
  190.9430  175.0210  144.1990 C   0  0  1  0  0  3  0  0  0  0  0  0
  190.6350  174.9190  141.7810 O   0  0  0  0  0  1  0  0  0  0  0  0
  189.6020  175.6070  143.8060 C   0  0  1  0  0  3  0  0  0  0  0  0
  190.1650  174.4480  143.0100 C   0  0  2  0  0  3  0  0  0  0  0  0
  192.0750  175.9820  143.8140 C   0  0  2  0  0  3  0  0  0  0  0  0
  193.3670  175.4640  144.3130 N   0  0  0  0  0  0  0  0  0  0  0  0
  195.0260  175.5300  146.1400 C   0  0  0  0  0  2  0  0  0  0  0  0
  194.3730  175.2680  143.2380 C   0  0  1  0  0  0  0  0  0  0  0  0
  195.7610  174.9310  143.8110 C   0  0  0  0  0  2  0  0  0  0  0  0
  193.9060  176.2800  145.4100 C   0  0  0  0  0  2  0  0  0  0  0  0
  193.9500  174.1100  142.3490 C   0  0  0  0  0  1  0  0  0  0  0  0
  195.6820  174.4630  145.2610 C   0  0  0  0  0  2  0  0  0  0  0  0
  194.4980  176.4160  142.4510 O   0  0  0  0  0  1  0  0  0  0  0  0
  191.4400  178.3140  143.1370 C   0  0  0  0  0  1  0  0  0  0  0  0
  191.7630  177.4010  144.3050 C   0  0  0  0  0  2  0  0  0  0  0  0
  3 10  2  0  0  0  0
  4 11  1  0  0  0  0
  4 12  1  0  0  0  0
  5  6  2  0  0  0  0
  5 11  1  0  0  0  0
  7  1  1  0  0  0  0
  7  8  2  0  0  0  0
  8  5  1  0  0  0  0
  9  4  2  0  0  0  0
 10  8  1  0  0  0  0
 10  9  1  0  0  0  0
 11  2  1  0  0  0  0
 13 18  1  0  0  0  0
 14 16  1  0  0  0  0
 14 19  2  0  0  0  0
 15 18  2  0  0  0  0
 16 13  2  0  0  0  0
 17 19  1  0  0  0  0
 18  7  1  0  0  0  0
 19 15  1  0  0  0  0
 20  9  1  0  0  0  0
 21 25  1  6  0  0  0
 23 21  1  0  0  0  0
 23 20  1  1  0  0  0
 24 22  1  6  0  0  0
 24 23  1  0  0  0  0
 24 21  1  0  0  0  0
 25 35  1  1  0  0  0
 25 26  1  0  0  0  0
 26 30  1  0  0  0  0
 28 31  1  6  0  0  0
 28 29  1  0  0  0  0
 28 26  1  0  0  0  0
 29 32  1  0  0  0  0
 30 27  1  0  0  0  0
 32 27  1  0  0  0  0
 33 28  1  0  0  0  0
 34 35  1  0  0  0  0
M  END
>  <MODEL>
9

>  <REMARK>
 VINA RESULT:      -7.0      3.269      5.641
  Name = 
  6 active torsions:
  status: ('A' for Active; 'I' for Inactive)
    1  A    between atoms: C_3  and  C_24
    2  A    between atoms: C_3  and  C_29
    3  A    between atoms: N_5  and  C_31
    4  A    between atoms: C_7  and  C_31
    5  A    between atoms: C_19  and  C_26
    6  A    between atoms: C_30  and  C_31
                            x       y       z     vdW  Elec       q    Type
                         _______ _______ _______ _____ _____    ______ ____

>  <TORSDO>
F 6

$$$$
