=
 OpenBabel11062418223D

 66 72  0  0  1  0  0  0  0  0999 V2000
  191.9500  174.6680  142.7590 C   0  0  0  0  0  2  0  0  0  0  0  0
  192.8310  175.6780  143.2990 N   0  0  0  0  0  0  0  0  0  0  0  0
  193.9350  175.0110  144.0520 C   0  0  0  0  0  2  0  0  0  0  0  0
  194.4770  175.8220  145.0420 O   0  0  0  0  0  1  0  0  0  0  0  0
  192.0530  176.6680  144.0560 C   0  0  0  0  0  2  0  0  0  0  0  0
  191.5480  177.8120  143.1690 C   0  0  2  0  0  3  0  0  0  0  0  0
  191.7190  179.2300  143.7510 C   0  0  0  0  0  1  0  0  0  0  0  0
  190.1860  177.4670  142.4650 C   0  0  0  0  0  2  0  0  0  0  0  0
  188.9410  177.5740  143.3860 C   0  0  0  0  0  3  0  0  0  0  0  0
  188.2940  176.5960  144.0360 C   0  0  0  0  0  3  0  0  0  0  0  0
  187.2510  176.9530  145.2050 C   0  0  2  0  0  3  0  0  0  0  0  0
  187.3020  175.8030  147.2950 O   0  0  0  0  0  1  0  0  0  0  0  0
  187.8310  176.9110  146.5880 C   0  0  2  0  0  0  0  0  0  0  0  0
  187.5610  178.2360  147.2700 C   0  0  0  0  0  2  0  0  0  0  0  0
  186.2180  178.2550  148.1130 C   0  0  0  0  0  1  0  0  0  0  0  0
  189.2880  176.8310  146.5080 O   0  0  0  0  0  0  0  0  0  0  0  0
  191.2950  175.7700  146.9960 C   0  0  0  0  0  2  0  0  0  0  0  0
  189.8940  176.0240  147.4700 C   0  0  1  0  0  3  0  0  0  0  0  0
  191.0700  176.7810  148.1200 C   0  0  0  0  0  0  0  0  0  0  0  0
  191.5270  177.6110  148.9090 O   0  0  0  0  0  0  0  0  0  0  0  0
  185.8740  176.4170  144.8420 C   0  0  0  0  0  2  0  0  0  0  0  0
  185.8140  176.7630  143.3990 C   0  0  0  0  0  2  0  0  0  0  0  0
  185.4460  178.1670  143.2190 N   0  0  0  0  0  2  0  0  0  0  0  0
  184.0920  178.4580  143.6720 C   0  0  1  0  0  3  0  0  0  0  0  0
  184.2990  179.3410  144.8530 C   0  0  0  0  0  2  0  0  0  0  0  0
  183.5890  178.7770  145.9190 O   0  0  0  0  0  1  0  0  0  0  0  0
  183.0440  178.8170  142.5710 C   0  0  0  0  0  2  0  0  0  0  0  0
  183.3360  178.3330  141.1460 C   0  0  0  0  0  2  0  0  0  0  0  0
  181.7650  177.9510  140.3810 S   0  0  0  0  0  0  0  0  0  0  0  0
  180.9700  179.5820  140.7170 C   0  0  0  0  0  2  0  0  0  0  0  0
  179.4760  179.6150  140.9660 C   0  0  0  0  0  2  0  0  0  0  0  0
  178.5500  179.8230  139.0750 O   0  0  0  0  0  1  0  0  0  0  0  0
  178.7890  178.9140  139.9740 O   0  0  0  0  0  0  0  0  0  0  0  0
  192.5420  173.1690  142.8630 C   0  0  0  0  0  2  0  0  0  0  0  0
  193.8360  173.1140  140.6060 C   0  0  0  0  0  0  0  0  0  0  0  0
  196.1520  169.1950  137.8330 C   0  0  0  0  0  2  0  0  0  0  0  0
  196.7140  174.3670  137.3000 C   0  0  0  0  0  2  0  0  0  0  0  0
  193.0930  171.5340  138.7910 C   0  0  1  0  0  3  0  0  0  0  0  0
  196.1540  170.7500  137.8250 C   0  0  2  0  0  3  0  0  0  0  0  0
  194.8530  169.9400  137.8210 C   0  0  2  0  0  3  0  0  0  0  0  0
  194.4580  173.5130  137.7540 C   0  0  1  0  0  3  0  0  0  0  0  0
  194.6860  172.6210  136.5090 C   0  0  0  0  0  2  0  0  0  0  0  0
  192.9640  172.3400  141.6170 C   0  0  2  0  0  0  0  0  0  0  0  0
  197.0910  171.8820  135.6570 C   0  0  0  0  0  2  0  0  0  0  0  0
  191.7080  171.7710  140.8550 C   0  0  0  0  0  0  0  0  0  0  0  0
  191.7590  171.5960  139.4470 N   0  0  0  0  0  0  0  0  0  0  0  0
  194.7950  173.7990  141.0310 O   0  0  0  0  0  0  0  0  0  0  0  0
  190.6130  171.6970  141.4310 O   0  0  0  0  0  0  0  0  0  0  0  0
  197.0840  173.2520  134.8850 C   0  0  0  0  0  2  0  0  0  0  0  0
  193.7860  172.8590  139.0590 C   0  0  2  0  0  3  0  0  0  0  0  0
  194.0380  170.3140  139.1320 C   0  0  0  0  0  2  0  0  0  0  0  0
  195.9510  171.6440  136.5670 C   0  0  1  0  0  3  0  0  0  0  0  0
  195.3560  174.7810  137.7950 C   0  0  0  0  0  2  0  0  0  0  0  0
  196.9970  174.5140  135.8230 C   0  0  0  0  0  2  0  0  0  0  0  0
  193.7160  171.1970  142.1650 C   0  0  0  0  0  1  0  0  0  0  0  0
  189.0500  174.0930  137.2760 C   0  0  0  0  0  0  0  0  0  0  0  0
  189.0280  174.0950  138.6920 C   0  0  0  0  0  3  0  0  0  0  0  0
  190.0050  173.2790  136.6370 C   0  0  0  0  0  3  0  0  0  0  0  0
  190.7980  172.4130  138.7750 C   0  0  0  0  0  0  0  0  0  0  0  0
  190.8260  172.4810  137.3770 C   0  0  0  0  0  3  0  0  0  0  0  0
  189.8950  173.3080  139.4370 C   0  0  0  0  0  3  0  0  0  0  0  0
  188.3740  175.1850  135.0920 C   0  0  0  0  0  3  0  0  0  0  0  0
  187.0590  175.6170  137.0340 C   0  0  0  0  0  3  0  0  0  0  0  0
  186.5210  176.4470  136.0110 N   0  0  0  0  0  0  0  0  0  0  0  0
  187.3040  176.1610  134.7880 C   0  0  0  0  0  3  0  0  0  0  0  0
  188.1990  174.8740  136.5240 N   0  0  0  0  0  0  0  0  0  0  0  0
  1 34  1  0  0  0  0
  1  2  1  0  0  0  0
  2  3  1  0  0  0  0
  2  5  1  0  0  0  0
  3  4  1  0  0  0  0
  6  7  1  1  0  0  0
  6  5  1  0  0  0  0
  8  6  1  0  0  0  0
  8  9  1  0  0  0  0
  9 10  2  0  0  0  0
 11 10  1  6  0  0  0
 11 13  1  0  0  0  0
 13 14  1  0  0  0  0
 13 12  1  1  0  0  0
 14 15  1  0  0  0  0
 16 13  1  0  0  0  0
 17 18  1  0  0  0  0
 17 19  1  0  0  0  0
 18 16  1  6  0  0  0
 18 19  1  0  0  0  0
 19 20  2  0  0  0  0
 21 11  1  0  0  0  0
 22 21  1  0  0  0  0
 23 22  1  0  0  0  0
 23 24  1  0  0  0  0
 24 27  1  6  0  0  0
 24 25  1  0  0  0  0
 25 26  1  0  0  0  0
 28 27  1  0  0  0  0
 29 30  1  0  0  0  0
 29 28  1  0  0  0  0
 30 31  1  0  0  0  0
 32 33  1  0  0  0  0
 33 31  1  0  0  0  0
 35 47  2  0  0  0  0
 35 43  1  0  0  0  0
 37 53  1  0  0  0  0
 38 50  1  0  0  0  0
 38 51  1  1  0  0  0
 38 46  1  0  0  0  0
 39 36  1  6  0  0  0
 40 39  1  0  0  0  0
 40 36  1  1  0  0  0
 40 51  1  0  0  0  0
 41 42  1  1  0  0  0
 41 53  1  0  0  0  0
 41 50  1  0  0  0  0
 42 52  1  0  0  0  0
 43 55  1  1  0  0  0
 43 34  1  0  0  0  0
 45 48  2  0  0  0  0
 45 43  1  0  0  0  0
 46 45  1  0  0  0  0
 49 44  1  0  0  0  0
 49 54  1  0  0  0  0
 50 35  1  1  0  0  0
 52 44  1  1  0  0  0
 52 39  1  0  0  0  0
 54 37  1  0  0  0  0
 56 57  1  0  0  0  0
 57 61  2  0  0  0  0
 58 56  2  0  0  0  0
 58 60  1  0  0  0  0
 59 61  1  0  0  0  0
 59 46  1  0  0  0  0
 60 59  2  0  0  0  0
 62 66  1  0  0  0  0
 64 63  2  0  0  0  0
 65 62  2  0  0  0  0
 65 64  1  0  0  0  0
 66 63  1  0  0  0  0
 66 56  1  0  0  0  0
M  END
>  <MODEL>
1

>  <REMARK>
 VINA RESULT:      -5.2      0.000      0.000
  Name = 
  26 active torsions:
  status: ('A' for Active; 'I' for Inactive)
    1  A    between atoms: N_1  and  C_4
    2  A    between atoms: N_1  and  C_23
    3  A    between atoms: N_1  and  C_24
    4  A    between atoms: C_2  and  C_55
    5  A    between atoms: C_3  and  N_34
    6  A    between atoms: C_3  and  C_52
    7  A    between atoms: C_4  and  C_12
    8  A    between atoms: C_5  and  C_7
    9  A    between atoms: C_5  and  C_23
   10  A    between atoms: C_7  and  C_26
   11  A    between atoms: C_11  and  C_52
   12  A    between atoms: C_11  and  C_55
   13  A    between atoms: C_11  and  C_60
   14  A    between atoms: C_12  and  C_38
   15  A    between atoms: C_14  and  N_37
   16  A    between atoms: C_15  and  C_28
   17  A    between atoms: C_15  and  O_59
   18  A    between atoms: C_22  and  O_56
   19  A    between atoms: C_28  and  S_31
   20  A    between atoms: S_31  and  C_46
   21  A    between atoms: N_34  and  C_40
   22  A    between atoms: C_35  and  N_45
   23  A    between atoms: C_40  and  C_42
   24  A    between atoms: C_40  and  C_44
   25  A    between atoms: C_44  and  C_46
   26  A    between atoms: C_55  and  O_56
                            x       y       z     vdW  Elec       q    Type
                         _______ _______ _______ _____ _____    ______ ____

>  <TORSDO>
F 26

$$$$
=
 OpenBabel11062418223D

 66 72  0  0  1  0  0  0  0  0999 V2000
  194.0830  171.2830  145.4160 C   0  0  0  0  0  2  0  0  0  0  0  0
  195.4540  170.9540  145.1020 N   0  0  0  0  0  0  0  0  0  0  0  0
  196.3540  171.5900  146.1120 C   0  0  0  0  0  2  0  0  0  0  0  0
  196.9940  172.7230  145.6240 O   0  0  0  0  0  1  0  0  0  0  0  0
  195.7400  171.2840  143.6990 C   0  0  0  0  0  2  0  0  0  0  0  0
  195.3740  170.1400  142.7470 C   0  0  2  0  0  3  0  0  0  0  0  0
  196.4930  169.1160  142.4750 C   0  0  0  0  0  1  0  0  0  0  0  0
  194.5150  170.6310  141.5250 C   0  0  0  0  0  2  0  0  0  0  0  0
  194.8600  169.9400  140.1790 C   0  0  0  0  0  3  0  0  0  0  0  0
  194.8070  170.4490  138.9390 C   0  0  0  0  0  3  0  0  0  0  0  0
  195.5320  169.6900  137.7210 C   0  0  2  0  0  3  0  0  0  0  0  0
  197.3480  169.6830  136.1730 O   0  0  0  0  0  1  0  0  0  0  0  0
  196.9260  170.1640  137.4370 C   0  0  2  0  0  0  0  0  0  0  0  0
  197.8300  169.7270  138.5720 C   0  0  0  0  0  2  0  0  0  0  0  0
  197.7680  168.1710  138.8700 C   0  0  0  0  0  1  0  0  0  0  0  0
  196.9670  171.6240  137.4790 O   0  0  0  0  0  0  0  0  0  0  0  0
  197.9350  173.6500  138.0720 C   0  0  0  0  0  2  0  0  0  0  0  0
  197.9410  172.1690  138.3160 C   0  0  1  0  0  3  0  0  0  0  0  0
  197.2800  173.1110  139.3420 C   0  0  0  0  0  0  0  0  0  0  0  0
  196.6490  173.3160  140.3820 O   0  0  0  0  0  0  0  0  0  0  0  0
  194.5090  169.3600  136.6440 C   0  0  0  0  0  2  0  0  0  0  0  0
  193.2470  169.7150  137.3430 C   0  0  0  0  0  2  0  0  0  0  0  0
  192.1580  168.8350  136.9200 N   0  0  0  0  0  2  0  0  0  0  0  0
  190.8430  169.4270  137.1240 C   0  0  1  0  0  3  0  0  0  0  0  0
  190.4170  168.8900  138.4460 C   0  0  0  0  0  2  0  0  0  0  0  0
  189.7280  169.9140  139.1060 O   0  0  0  0  0  1  0  0  0  0  0  0
  190.6930  170.9440  136.7840 C   0  0  0  0  0  2  0  0  0  0  0  0
  189.5050  171.3470  135.9030 C   0  0  0  0  0  2  0  0  0  0  0  0
  190.0720  172.6410  134.8060 S   0  0  0  0  0  0  0  0  0  0  0  0
  189.7460  174.0460  135.9580 C   0  0  0  0  0  2  0  0  0  0  0  0
  188.6790  173.8710  137.0180 C   0  0  0  0  0  2  0  0  0  0  0  0
  188.2390  175.7310  136.1120 O   0  0  0  0  0  1  0  0  0  0  0  0
  187.6970  174.8560  136.9070 O   0  0  0  0  0  0  0  0  0  0  0  0
  193.2870  171.9770  144.1930 C   0  0  0  0  0  2  0  0  0  0  0  0
  191.4370  173.7150  143.6230 C   0  0  0  0  0  0  0  0  0  0  0  0
  190.1440  178.4600  145.6780 C   0  0  0  0  0  2  0  0  0  0  0  0
  187.3480  175.3900  142.4990 C   0  0  0  0  0  2  0  0  0  0  0  0
  192.0860  176.1010  143.1460 C   0  0  1  0  0  3  0  0  0  0  0  0
  189.4970  177.4200  144.7210 C   0  0  2  0  0  3  0  0  0  0  0  0
  190.9260  177.9350  144.5130 C   0  0  2  0  0  3  0  0  0  0  0  0
  189.7580  175.5720  142.0680 C   0  0  1  0  0  3  0  0  0  0  0  0
  189.5030  177.0980  142.0210 C   0  0  0  0  0  2  0  0  0  0  0  0
  192.8420  173.4660  144.2110 C   0  0  2  0  0  0  0  0  0  0  0  0
  187.4880  178.2870  143.2800 C   0  0  0  0  0  2  0  0  0  0  0  0
  193.8700  174.3810  143.4440 C   0  0  0  0  0  0  0  0  0  0  0  0
  193.4110  175.5410  142.7670 N   0  0  0  0  0  0  0  0  0  0  0  0
  190.4940  172.9650  143.9650 O   0  0  0  0  0  0  0  0  0  0  0  0
  195.0230  173.9760  143.2310 O   0  0  0  0  0  0  0  0  0  0  0  0
  186.6590  177.9360  141.9900 C   0  0  0  0  0  2  0  0  0  0  0  0
  191.0480  175.0290  142.8610 C   0  0  2  0  0  3  0  0  0  0  0  0
  191.9130  176.6940  144.6010 C   0  0  0  0  0  2  0  0  0  0  0  0
  188.8620  177.7440  143.3360 C   0  0  1  0  0  3  0  0  0  0  0  0
  188.4930  174.7110  141.7980 C   0  0  0  0  0  2  0  0  0  0  0  0
  186.5370  176.3910  141.7090 C   0  0  0  0  0  2  0  0  0  0  0  0
  192.8710  173.8480  145.6340 C   0  0  0  0  0  1  0  0  0  0  0  0
  194.0900  175.0790  138.5700 C   0  0  0  0  0  0  0  0  0  0  0  0
  194.8780  175.9890  139.3150 C   0  0  0  0  0  3  0  0  0  0  0  0
  193.1230  174.3290  139.2660 C   0  0  0  0  0  3  0  0  0  0  0  0
  193.6490  175.4640  141.3600 C   0  0  0  0  0  0  0  0  0  0  0  0
  192.9290  174.5350  140.5990 C   0  0  0  0  0  3  0  0  0  0  0  0
  194.6990  176.1650  140.6800 C   0  0  0  0  0  3  0  0  0  0  0  0
  195.3270  175.5080  136.4000 C   0  0  0  0  0  3  0  0  0  0  0  0
  193.3620  174.1570  136.3430 C   0  0  0  0  0  3  0  0  0  0  0  0
  193.7590  174.3190  134.9850 N   0  0  0  0  0  0  0  0  0  0  0  0
  195.0000  175.1250  135.0080 C   0  0  0  0  0  3  0  0  0  0  0  0
  194.2620  174.8910  137.2150 N   0  0  0  0  0  0  0  0  0  0  0  0
  2  1  1  0  0  0  0
  2  3  1  0  0  0  0
  4  3  1  0  0  0  0
  5  2  1  0  0  0  0
  6  7  1  6  0  0  0
  6  5  1  0  0  0  0
  8  6  1  0  0  0  0
  9  8  1  0  0  0  0
 10  9  2  0  0  0  0
 11 21  1  6  0  0  0
 11 10  1  0  0  0  0
 13 12  1  6  0  0  0
 13 16  1  0  0  0  0
 13 11  1  0  0  0  0
 13 14  1  0  0  0  0
 14 15  1  0  0  0  0
 17 18  1  0  0  0  0
 17 19  1  0  0  0  0
 18 16  1  6  0  0  0
 18 19  1  0  0  0  0
 19 20  2  0  0  0  0
 21 22  1  0  0  0  0
 23 24  1  0  0  0  0
 23 22  1  0  0  0  0
 24 27  1  1  0  0  0
 24 25  1  0  0  0  0
 25 26  1  0  0  0  0
 28 27  1  0  0  0  0
 29 28  1  0  0  0  0
 29 30  1  0  0  0  0
 30 31  1  0  0  0  0
 32 33  1  0  0  0  0
 33 31  1  0  0  0  0
 34 43  1  0  0  0  0
 34  1  1  0  0  0  0
 35 47  2  0  0  0  0
 35 43  1  0  0  0  0
 38 51  1  1  0  0  0
 39 36  1  1  0  0  0
 40 51  1  1  0  0  0
 40 39  1  0  0  0  0
 40 36  1  0  0  0  0
 41 53  1  1  0  0  0
 41 50  1  0  0  0  0
 42 41  1  0  0  0  0
 43 55  1  1  0  0  0
 44 52  1  0  0  0  0
 45 43  1  0  0  0  0
 46 38  1  0  0  0  0
 46 45  1  0  0  0  0
 48 45  2  0  0  0  0
 49 44  1  0  0  0  0
 50 38  1  0  0  0  0
 50 35  1  1  0  0  0
 52 42  1  6  0  0  0
 52 39  1  0  0  0  0
 53 37  1  0  0  0  0
 54 49  1  0  0  0  0
 54 37  1  0  0  0  0
 56 58  2  0  0  0  0
 56 57  1  0  0  0  0
 57 61  2  0  0  0  0
 58 60  1  0  0  0  0
 59 46  1  0  0  0  0
 60 59  2  0  0  0  0
 61 59  1  0  0  0  0
 62 66  1  0  0  0  0
 63 66  1  0  0  0  0
 64 65  1  0  0  0  0
 64 63  2  0  0  0  0
 65 62  2  0  0  0  0
 66 56  1  0  0  0  0
M  END
>  <MODEL>
2

>  <REMARK>
 VINA RESULT:      -4.2      4.020      9.964
  Name = 
  26 active torsions:
  status: ('A' for Active; 'I' for Inactive)
    1  A    between atoms: N_1  and  C_4
    2  A    between atoms: N_1  and  C_23
    3  A    between atoms: N_1  and  C_24
    4  A    between atoms: C_2  and  C_55
    5  A    between atoms: C_3  and  N_34
    6  A    between atoms: C_3  and  C_52
    7  A    between atoms: C_4  and  C_12
    8  A    between atoms: C_5  and  C_7
    9  A    between atoms: C_5  and  C_23
   10  A    between atoms: C_7  and  C_26
   11  A    between atoms: C_11  and  C_52
   12  A    between atoms: C_11  and  C_55
   13  A    between atoms: C_11  and  C_60
   14  A    between atoms: C_12  and  C_38
   15  A    between atoms: C_14  and  N_37
   16  A    between atoms: C_15  and  C_28
   17  A    between atoms: C_15  and  O_59
   18  A    between atoms: C_22  and  O_56
   19  A    between atoms: C_28  and  S_31
   20  A    between atoms: S_31  and  C_46
   21  A    between atoms: N_34  and  C_40
   22  A    between atoms: C_35  and  N_45
   23  A    between atoms: C_40  and  C_42
   24  A    between atoms: C_40  and  C_44
   25  A    between atoms: C_44  and  C_46
   26  A    between atoms: C_55  and  O_56
                            x       y       z     vdW  Elec       q    Type
                         _______ _______ _______ _____ _____    ______ ____

>  <TORSDO>
F 26

$$$$
=
 OpenBabel11062418223D

 66 72  0  0  1  0  0  0  0  0999 V2000
  192.1140  174.0350  143.8550 C   0  0  0  0  0  2  0  0  0  0  0  0
  193.0470  175.1350  143.9350 N   0  0  0  0  0  0  0  0  0  0  0  0
  194.2040  174.7340  144.7900 C   0  0  0  0  0  2  0  0  0  0  0  0
  193.8310  174.4350  146.0950 O   0  0  0  0  0  1  0  0  0  0  0  0
  192.3440  176.3580  144.3490 C   0  0  0  0  0  2  0  0  0  0  0  0
  191.8340  177.1680  143.1520 C   0  0  2  0  0  3  0  0  0  0  0  0
  191.6600  178.6800  143.3980 C   0  0  0  0  0  1  0  0  0  0  0  0
  190.7010  176.4180  142.3610 C   0  0  0  0  0  2  0  0  0  0  0  0
  189.2750  176.6160  142.9400 C   0  0  0  0  0  3  0  0  0  0  0  0
  188.7600  176.1330  144.0790 C   0  0  0  0  0  3  0  0  0  0  0  0
  187.3890  176.7320  144.6660 C   0  0  2  0  0  3  0  0  0  0  0  0
  187.4190  178.5850  146.1690 O   0  0  0  0  0  1  0  0  0  0  0  0
  187.4660  177.1710  146.0980 C   0  0  2  0  0  0  0  0  0  0  0  0
  188.7170  176.5850  146.7210 C   0  0  0  0  0  2  0  0  0  0  0  0
  188.4960  175.1520  147.3610 C   0  0  0  0  0  1  0  0  0  0  0  0
  186.3680  176.5750  146.8550 O   0  0  0  0  0  0  0  0  0  0  0  0
  185.9910  178.8070  147.3750 C   0  0  0  0  0  2  0  0  0  0  0  0
  185.8100  177.3910  147.8400 C   0  0  1  0  0  3  0  0  0  0  0  0
  184.6100  178.1650  147.2580 C   0  0  0  0  0  0  0  0  0  0  0  0
  183.4310  178.2370  146.9030 O   0  0  0  0  0  0  0  0  0  0  0  0
  186.2060  175.9840  144.0680 C   0  0  0  0  0  2  0  0  0  0  0  0
  186.0700  176.6800  142.7630 C   0  0  0  0  0  2  0  0  0  0  0  0
  185.9150  178.1210  142.9610 N   0  0  0  0  0  2  0  0  0  0  0  0
  184.5370  178.5100  143.2270 C   0  0  1  0  0  3  0  0  0  0  0  0
  184.6700  179.6470  144.1790 C   0  0  0  0  0  2  0  0  0  0  0  0
  185.9160  180.2400  143.9430 O   0  0  0  0  0  1  0  0  0  0  0  0
  183.5800  178.5970  141.9950 C   0  0  0  0  0  2  0  0  0  0  0  0
  182.0750  178.5300  142.2760 C   0  0  0  0  0  2  0  0  0  0  0  0
  181.2310  178.9770  140.7630 S   0  0  0  0  0  0  0  0  0  0  0  0
  179.9620  177.6380  140.8330 C   0  0  0  0  0  2  0  0  0  0  0  0
  178.5030  178.0360  140.9100 C   0  0  0  0  0  2  0  0  0  0  0  0
  178.0820  176.5500  142.3560 O   0  0  0  0  0  1  0  0  0  0  0  0
  177.6960  176.9290  141.1730 O   0  0  0  0  0  0  0  0  0  0  0  0
  192.8180  172.5820  143.9110 C   0  0  0  0  0  2  0  0  0  0  0  0
  194.0690  172.5070  141.6300 C   0  0  0  0  0  0  0  0  0  0  0  0
  196.0830  168.5260  138.7150 C   0  0  0  0  0  2  0  0  0  0  0  0
  196.9630  173.6650  138.3040 C   0  0  0  0  0  2  0  0  0  0  0  0
  193.1950  171.0260  139.7900 C   0  0  1  0  0  3  0  0  0  0  0  0
  196.1840  170.0770  138.7470 C   0  0  2  0  0  3  0  0  0  0  0  0
  194.8340  169.3520  138.7470 C   0  0  2  0  0  3  0  0  0  0  0  0
  194.6650  172.9430  138.7780 C   0  0  1  0  0  3  0  0  0  0  0  0
  194.8150  172.0720  137.5070 C   0  0  0  0  0  2  0  0  0  0  0  0
  193.1660  171.7620  142.6380 C   0  0  2  0  0  0  0  0  0  0  0  0
  197.1530  171.2060  136.5910 C   0  0  0  0  0  2  0  0  0  0  0  0
  191.8640  171.2940  141.8850 C   0  0  0  0  0  0  0  0  0  0  0  0
  191.8800  171.1540  140.4720 N   0  0  0  0  0  0  0  0  0  0  0  0
  195.0760  173.1180  142.0550 O   0  0  0  0  0  0  0  0  0  0  0  0
  190.7760  171.2740  142.4790 O   0  0  0  0  0  0  0  0  0  0  0  0
  197.2210  172.5940  135.8550 C   0  0  0  0  0  2  0  0  0  0  0  0
  193.9760  172.2970  140.0790 C   0  0  2  0  0  3  0  0  0  0  0  0
  194.0670  169.7400  140.0810 C   0  0  0  0  0  2  0  0  0  0  0  0
  196.0170  171.0160  137.5160 C   0  0  1  0  0  3  0  0  0  0  0  0
  195.6420  174.1500  138.8350 C   0  0  0  0  0  2  0  0  0  0  0  0
  197.2290  173.8340  136.8270 C   0  0  0  0  0  2  0  0  0  0  0  0
  193.8540  170.5600  143.1420 C   0  0  0  0  0  1  0  0  0  0  0  0
  189.2750  173.8320  138.3900 C   0  0  0  0  0  0  0  0  0  0  0  0
  189.4880  173.9950  139.7810 C   0  0  0  0  0  3  0  0  0  0  0  0
  189.9710  172.7960  137.7390 C   0  0  0  0  0  3  0  0  0  0  0  0
  190.9610  172.0470  139.8390 C   0  0  0  0  0  0  0  0  0  0  0  0
  190.7680  171.9530  138.4550 C   0  0  0  0  0  3  0  0  0  0  0  0
  190.3310  173.1560  140.4940 C   0  0  0  0  0  3  0  0  0  0  0  0
  187.3190  175.4350  138.2290 C   0  0  0  0  0  3  0  0  0  0  0  0
  188.4580  174.8240  136.2240 C   0  0  0  0  0  3  0  0  0  0  0  0
  187.3520  175.6200  135.8130 N   0  0  0  0  0  0  0  0  0  0  0  0
  186.6570  176.0380  137.0510 C   0  0  0  0  0  3  0  0  0  0  0  0
  188.4450  174.6620  137.6680 N   0  0  0  0  0  0  0  0  0  0  0  0
  1 34  1  0  0  0  0
  1  2  1  0  0  0  0
  2  5  1  0  0  0  0
  2  3  1  0  0  0  0
  3  4  1  0  0  0  0
  6  7  1  1  0  0  0
  6  5  1  0  0  0  0
  8  9  1  0  0  0  0
  8  6  1  0  0  0  0
  9 10  2  0  0  0  0
 10 11  1  0  0  0  0
 11 21  1  1  0  0  0
 11 13  1  0  0  0  0
 13 12  1  1  0  0  0
 13 14  1  0  0  0  0
 13 16  1  0  0  0  0
 14 15  1  0  0  0  0
 17 18  1  0  0  0  0
 18 16  1  6  0  0  0
 19 17  1  0  0  0  0
 19 18  1  0  0  0  0
 20 19  2  0  0  0  0
 22 23  1  0  0  0  0
 22 21  1  0  0  0  0
 23 24  1  0  0  0  0
 24 27  1  6  0  0  0
 24 25  1  0  0  0  0
 26 25  1  0  0  0  0
 27 28  1  0  0  0  0
 29 30  1  0  0  0  0
 29 28  1  0  0  0  0
 30 31  1  0  0  0  0
 31 33  1  0  0  0  0
 33 32  1  0  0  0  0
 35 47  2  0  0  0  0
 35 43  1  0  0  0  0
 37 53  1  0  0  0  0
 38 50  1  0  0  0  0
 38 51  1  1  0  0  0
 38 46  1  0  0  0  0
 39 36  1  6  0  0  0
 39 40  1  0  0  0  0
 40 36  1  1  0  0  0
 40 51  1  0  0  0  0
 41 42  1  1  0  0  0
 41 53  1  0  0  0  0
 41 50  1  0  0  0  0
 42 52  1  0  0  0  0
 43 55  1  1  0  0  0
 43 34  1  0  0  0  0
 45 48  2  0  0  0  0
 45 43  1  0  0  0  0
 46 45  1  0  0  0  0
 49 44  1  0  0  0  0
 49 54  1  0  0  0  0
 50 35  1  1  0  0  0
 52 44  1  1  0  0  0
 52 39  1  0  0  0  0
 54 37  1  0  0  0  0
 56 57  1  0  0  0  0
 57 61  2  0  0  0  0
 58 56  2  0  0  0  0
 58 60  1  0  0  0  0
 59 46  1  0  0  0  0
 59 61  1  0  0  0  0
 60 59  2  0  0  0  0
 63 66  1  0  0  0  0
 64 63  2  0  0  0  0
 64 65  1  0  0  0  0
 65 62  2  0  0  0  0
 66 62  1  0  0  0  0
 66 56  1  0  0  0  0
M  END
>  <MODEL>
3

>  <REMARK>
 VINA RESULT:      -3.9      1.456      2.258
  Name = 
  26 active torsions:
  status: ('A' for Active; 'I' for Inactive)
    1  A    between atoms: N_1  and  C_4
    2  A    between atoms: N_1  and  C_23
    3  A    between atoms: N_1  and  C_24
    4  A    between atoms: C_2  and  C_55
    5  A    between atoms: C_3  and  N_34
    6  A    between atoms: C_3  and  C_52
    7  A    between atoms: C_4  and  C_12
    8  A    between atoms: C_5  and  C_7
    9  A    between atoms: C_5  and  C_23
   10  A    between atoms: C_7  and  C_26
   11  A    between atoms: C_11  and  C_52
   12  A    between atoms: C_11  and  C_55
   13  A    between atoms: C_11  and  C_60
   14  A    between atoms: C_12  and  C_38
   15  A    between atoms: C_14  and  N_37
   16  A    between atoms: C_15  and  C_28
   17  A    between atoms: C_15  and  O_59
   18  A    between atoms: C_22  and  O_56
   19  A    between atoms: C_28  and  S_31
   20  A    between atoms: S_31  and  C_46
   21  A    between atoms: N_34  and  C_40
   22  A    between atoms: C_35  and  N_45
   23  A    between atoms: C_40  and  C_42
   24  A    between atoms: C_40  and  C_44
   25  A    between atoms: C_44  and  C_46
   26  A    between atoms: C_55  and  O_56
                            x       y       z     vdW  Elec       q    Type
                         _______ _______ _______ _____ _____    ______ ____

>  <TORSDO>
F 26

$$$$
=
 OpenBabel11062418223D

 66 72  0  0  1  0  0  0  0  0999 V2000
  190.2510  175.5370  143.9260 C   0  0  0  0  0  2  0  0  0  0  0  0
  190.2450  176.6680  143.0270 N   0  0  0  0  0  0  0  0  0  0  0  0
  191.4680  177.4920  143.2710 C   0  0  0  0  0  2  0  0  0  0  0  0
  191.1760  178.7470  143.7920 O   0  0  0  0  0  1  0  0  0  0  0  0
  188.9660  177.3840  143.1310 C   0  0  0  0  0  2  0  0  0  0  0  0
  188.0130  177.0400  141.9800 C   0  0  2  0  0  3  0  0  0  0  0  0
  187.6560  178.2080  141.0400 C   0  0  0  0  0  1  0  0  0  0  0  0
  186.8530  176.0790  142.4300 C   0  0  0  0  0  2  0  0  0  0  0  0
  185.5300  176.7990  142.8010 C   0  0  0  0  0  3  0  0  0  0  0  0
  185.0980  178.0080  142.4130 C   0  0  0  0  0  3  0  0  0  0  0  0
  183.5600  178.4240  142.6240 C   0  0  2  0  0  3  0  0  0  0  0  0
  181.7740  177.1690  141.6610 O   0  0  0  0  0  1  0  0  0  0  0  0
  182.6910  178.2210  141.4190 C   0  0  2  0  0  0  0  0  0  0  0  0
  183.5770  177.9730  140.2150 C   0  0  0  0  0  2  0  0  0  0  0  0
  182.9240  177.0170  139.1320 C   0  0  0  0  0  1  0  0  0  0  0  0
  181.9880  179.4630  141.1050 O   0  0  0  0  0  0  0  0  0  0  0  0
  179.9880  180.5140  140.5670 C   0  0  0  0  0  2  0  0  0  0  0  0
  180.6360  179.4840  141.4460 C   0  0  1  0  0  3  0  0  0  0  0  0
  179.7860  179.0350  140.2400 C   0  0  0  0  0  0  0  0  0  0  0  0
  179.3150  178.1650  139.5050 O   0  0  0  0  0  0  0  0  0  0  0  0
  183.4800  179.6390  143.5370 C   0  0  0  0  0  2  0  0  0  0  0  0
  184.5320  179.3080  144.5310 C   0  0  0  0  0  2  0  0  0  0  0  0
  183.9500  179.1500  145.8640 N   0  0  0  0  0  2  0  0  0  0  0  0
  184.7920  178.3680  146.7590 C   0  0  1  0  0  3  0  0  0  0  0  0
  184.7310  176.9940  146.1880 C   0  0  0  0  0  2  0  0  0  0  0  0
  185.1610  176.1120  147.1860 O   0  0  0  0  0  1  0  0  0  0  0  0
  186.1540  179.0060  147.1800 C   0  0  0  0  0  2  0  0  0  0  0  0
  187.1060  178.1350  148.0080 C   0  0  0  0  0  2  0  0  0  0  0  0
  187.9800  177.0700  146.8670 S   0  0  0  0  0  0  0  0  0  0  0  0
  189.6390  177.8460  147.0910 C   0  0  0  0  0  2  0  0  0  0  0  0
  190.8350  176.9380  147.2910 C   0  0  0  0  0  2  0  0  0  0  0  0
  191.4050  174.9030  147.3790 O   0  0  0  0  0  1  0  0  0  0  0  0
  190.4390  175.6860  147.7600 O   0  0  0  0  0  0  0  0  0  0  0  0
  191.6810  174.7930  144.0240 C   0  0  0  0  0  2  0  0  0  0  0  0
  193.0990  173.3430  142.3930 C   0  0  0  0  0  0  0  0  0  0  0  0
  194.3600  168.1660  142.2850 C   0  0  0  0  0  2  0  0  0  0  0  0
  196.5110  172.1220  139.6270 C   0  0  0  0  0  2  0  0  0  0  0  0
  192.0800  171.2810  141.3670 C   0  0  1  0  0  3  0  0  0  0  0  0
  194.8350  169.4670  141.5810 C   0  0  2  0  0  3  0  0  0  0  0  0
  193.3550  169.0730  141.6450 C   0  0  2  0  0  3  0  0  0  0  0  0
  194.0710  172.1290  139.8910 C   0  0  1  0  0  3  0  0  0  0  0  0
  194.1300  170.7120  139.2680 C   0  0  0  0  0  2  0  0  0  0  0  0
  191.9440  173.3860  143.4160 C   0  0  2  0  0  0  0  0  0  0  0  0
  196.2650  169.1370  139.4110 C   0  0  0  0  0  2  0  0  0  0  0  0
  190.6500  172.8080  142.7280 C   0  0  0  0  0  0  0  0  0  0  0  0
  190.7740  171.9530  141.6020 N   0  0  0  0  0  0  0  0  0  0  0  0
  194.1770  173.9170  142.6700 O   0  0  0  0  0  0  0  0  0  0  0  0
  189.5360  173.2740  143.0110 O   0  0  0  0  0  0  0  0  0  0  0  0
  196.7450  169.9080  138.1270 C   0  0  0  0  0  2  0  0  0  0  0  0
  193.1150  172.3740  141.1600 C   0  0  2  0  0  3  0  0  0  0  0  0
  192.5750  170.2160  142.4240 C   0  0  0  0  0  2  0  0  0  0  0  0
  195.0280  169.6400  140.0460 C   0  0  1  0  0  3  0  0  0  0  0  0
  195.3030  173.0150  139.5610 C   0  0  0  0  0  2  0  0  0  0  0  0
  196.9590  171.4520  138.3500 C   0  0  0  0  0  2  0  0  0  0  0  0
  192.2610  172.5320  144.5740 C   0  0  0  0  0  1  0  0  0  0  0  0
  189.1320  173.8190  138.1230 C   0  0  0  0  0  0  0  0  0  0  0  0
  188.2690  173.2380  139.0840 C   0  0  0  0  0  3  0  0  0  0  0  0
  190.5160  173.7840  138.3790 C   0  0  0  0  0  3  0  0  0  0  0  0
  190.1720  172.5180  140.4360 C   0  0  0  0  0  0  0  0  0  0  0  0
  190.9880  173.1520  139.4910 C   0  0  0  0  0  3  0  0  0  0  0  0
  188.7570  172.6310  140.2320 C   0  0  0  0  0  3  0  0  0  0  0  0
  189.2710  174.3170  135.6420 C   0  0  0  0  0  3  0  0  0  0  0  0
  187.5610  175.3790  136.9220 C   0  0  0  0  0  3  0  0  0  0  0  0
  187.4680  175.9370  135.6160 N   0  0  0  0  0  0  0  0  0  0  0  0
  188.5000  175.2590  134.8000 C   0  0  0  0  0  3  0  0  0  0  0  0
  188.6600  174.4310  136.9810 N   0  0  0  0  0  0  0  0  0  0  0  0
  1 34  1  0  0  0  0
  2  5  1  0  0  0  0
  2  3  1  0  0  0  0
  2  1  1  0  0  0  0
  3  4  1  0  0  0  0
  6  7  1  1  0  0  0
  6  8  1  0  0  0  0
  6  5  1  0  0  0  0
  8  9  1  0  0  0  0
 10  9  2  0  0  0  0
 11 10  1  6  0  0  0
 11 21  1  0  0  0  0
 13 12  1  1  0  0  0
 13 11  1  0  0  0  0
 14 13  1  0  0  0  0
 15 14  1  0  0  0  0
 16 13  1  0  0  0  0
 17 18  1  0  0  0  0
 18 16  1  6  0  0  0
 19 17  1  0  0  0  0
 19 18  1  0  0  0  0
 20 19  2  0  0  0  0
 21 22  1  0  0  0  0
 22 23  1  0  0  0  0
 23 24  1  0  0  0  0
 24 25  1  6  0  0  0
 24 27  1  0  0  0  0
 25 26  1  0  0  0  0
 27 28  1  0  0  0  0
 29 30  1  0  0  0  0
 29 28  1  0  0  0  0
 30 31  1  0  0  0  0
 31 33  1  0  0  0  0
 32 33  1  0  0  0  0
 35 47  2  0  0  0  0
 35 43  1  0  0  0  0
 38 46  1  0  0  0  0
 38 51  1  1  0  0  0
 39 40  1  0  0  0  0
 39 36  1  6  0  0  0
 40 36  1  1  0  0  0
 40 51  1  0  0  0  0
 41 42  1  1  0  0  0
 41 50  1  0  0  0  0
 43 34  1  0  0  0  0
 43 55  1  1  0  0  0
 44 52  1  0  0  0  0
 45 48  2  0  0  0  0
 45 43  1  0  0  0  0
 46 45  1  0  0  0  0
 49 54  1  0  0  0  0
 49 44  1  0  0  0  0
 50 38  1  0  0  0  0
 50 35  1  1  0  0  0
 52 42  1  1  0  0  0
 52 39  1  0  0  0  0
 53 37  1  0  0  0  0
 53 41  1  0  0  0  0
 54 37  1  0  0  0  0
 56 58  2  0  0  0  0
 56 57  1  0  0  0  0
 57 61  2  0  0  0  0
 58 60  1  0  0  0  0
 59 46  1  0  0  0  0
 60 59  2  0  0  0  0
 61 59  1  0  0  0  0
 62 66  1  0  0  0  0
 63 66  1  0  0  0  0
 64 63  2  0  0  0  0
 65 64  1  0  0  0  0
 65 62  2  0  0  0  0
 66 56  1  0  0  0  0
M  END
>  <MODEL>
4

>  <REMARK>
 VINA RESULT:      -3.2      2.114      6.214
  Name = 
  26 active torsions:
  status: ('A' for Active; 'I' for Inactive)
    1  A    between atoms: N_1  and  C_4
    2  A    between atoms: N_1  and  C_23
    3  A    between atoms: N_1  and  C_24
    4  A    between atoms: C_2  and  C_55
    5  A    between atoms: C_3  and  N_34
    6  A    between atoms: C_3  and  C_52
    7  A    between atoms: C_4  and  C_12
    8  A    between atoms: C_5  and  C_7
    9  A    between atoms: C_5  and  C_23
   10  A    between atoms: C_7  and  C_26
   11  A    between atoms: C_11  and  C_52
   12  A    between atoms: C_11  and  C_55
   13  A    between atoms: C_11  and  C_60
   14  A    between atoms: C_12  and  C_38
   15  A    between atoms: C_14  and  N_37
   16  A    between atoms: C_15  and  C_28
   17  A    between atoms: C_15  and  O_59
   18  A    between atoms: C_22  and  O_56
   19  A    between atoms: C_28  and  S_31
   20  A    between atoms: S_31  and  C_46
   21  A    between atoms: N_34  and  C_40
   22  A    between atoms: C_35  and  N_45
   23  A    between atoms: C_40  and  C_42
   24  A    between atoms: C_40  and  C_44
   25  A    between atoms: C_44  and  C_46
   26  A    between atoms: C_55  and  O_56
                            x       y       z     vdW  Elec       q    Type
                         _______ _______ _______ _____ _____    ______ ____

>  <TORSDO>
F 26

$$$$
=
 OpenBabel11062418223D

 66 72  0  0  1  0  0  0  0  0999 V2000
  193.6950  174.0950  144.3040 C   0  0  0  0  0  2  0  0  0  0  0  0
  192.7760  174.9990  144.9570 N   0  0  0  0  0  0  0  0  0  0  0  0
  192.8400  174.7790  146.4330 C   0  0  0  0  0  2  0  0  0  0  0  0
  193.2000  175.9240  147.1330 O   0  0  0  0  0  1  0  0  0  0  0  0
  191.4420  174.8780  144.3540 C   0  0  0  0  0  2  0  0  0  0  0  0
  190.4560  174.1410  145.2680 C   0  0  2  0  0  3  0  0  0  0  0  0
  190.2540  172.6440  144.9570 C   0  0  0  0  0  1  0  0  0  0  0  0
  189.1820  175.0020  145.5940 C   0  0  0  0  0  2  0  0  0  0  0  0
  188.4520  175.5660  144.3460 C   0  0  0  0  0  3  0  0  0  0  0  0
  187.1380  175.5860  144.0830 C   0  0  0  0  0  3  0  0  0  0  0  0
  186.5610  176.5190  142.9080 C   0  0  2  0  0  3  0  0  0  0  0  0
  187.2330  178.6690  142.1220 O   0  0  0  0  0  1  0  0  0  0  0  0
  187.6050  177.3030  142.1700 C   0  0  2  0  0  0  0  0  0  0  0  0
  187.7960  176.6900  140.7980 C   0  0  0  0  0  2  0  0  0  0  0  0
  186.6680  177.0930  139.7590 C   0  0  0  0  0  1  0  0  0  0  0  0
  188.8990  177.1390  142.8270 O   0  0  0  0  0  0  0  0  0  0  0  0
  190.2250  178.1310  144.4560 C   0  0  0  0  0  2  0  0  0  0  0  0
  189.5760  178.3240  143.1160 C   0  0  1  0  0  3  0  0  0  0  0  0
  191.0920  178.0520  143.2000 C   0  0  0  0  0  0  0  0  0  0  0  0
  192.1930  177.8600  142.6790 O   0  0  0  0  0  0  0  0  0  0  0  0
  185.2070  177.0790  143.3190 C   0  0  0  0  0  2  0  0  0  0  0  0
  185.2930  176.9550  144.7960 C   0  0  0  0  0  2  0  0  0  0  0  0
  184.5110  178.0050  145.4480 N   0  0  0  0  0  2  0  0  0  0  0  0
  184.0250  179.0110  144.5130 C   0  0  1  0  0  3  0  0  0  0  0  0
  185.0700  180.0700  144.5630 C   0  0  0  0  0  2  0  0  0  0  0  0
  186.1560  179.5470  145.2740 O   0  0  0  0  0  1  0  0  0  0  0  0
  183.4660  178.4930  143.1500 C   0  0  0  0  0  2  0  0  0  0  0  0
  182.1490  179.1050  142.6590 C   0  0  0  0  0  2  0  0  0  0  0  0
  181.7670  178.3510  141.0820 S   0  0  0  0  0  0  0  0  0  0  0  0
  179.9830  178.8230  141.0550 C   0  0  0  0  0  2  0  0  0  0  0  0
  179.2000  178.5950  139.7790 C   0  0  0  0  0  2  0  0  0  0  0  0
  179.0400  176.9190  138.4990 O   0  0  0  0  0  1  0  0  0  0  0  0
  178.7310  177.2830  139.7080 O   0  0  0  0  0  0  0  0  0  0  0  0
  193.5780  174.1050  142.6920 C   0  0  0  0  0  2  0  0  0  0  0  0
  194.7870  173.1190  140.6100 C   0  0  0  0  0  0  0  0  0  0  0  0
  196.5490  168.2370  139.3970 C   0  0  0  0  0  2  0  0  0  0  0  0
  197.6860  172.7990  137.1050 C   0  0  0  0  0  2  0  0  0  0  0  0
  193.8100  171.1090  139.4490 C   0  0  1  0  0  3  0  0  0  0  0  0
  196.7300  169.6810  138.8490 C   0  0  2  0  0  3  0  0  0  0  0  0
  195.3450  169.0810  139.1130 C   0  0  2  0  0  3  0  0  0  0  0  0
  195.3610  172.4290  137.8030 C   0  0  1  0  0  3  0  0  0  0  0  0
  195.4460  171.1410  136.9490 C   0  0  0  0  0  2  0  0  0  0  0  0
  193.8630  172.8520  141.8170 C   0  0  2  0  0  0  0  0  0  0  0  0
  197.7220  169.8720  136.4330 C   0  0  0  0  0  2  0  0  0  0  0  0
  192.5270  172.2080  141.2870 C   0  0  0  0  0  0  0  0  0  0  0  0
  192.5140  171.5520  140.0280 N   0  0  0  0  0  0  0  0  0  0  0  0
  195.8310  173.7890  140.7800 O   0  0  0  0  0  0  0  0  0  0  0  0
  191.4490  172.4690  141.8410 O   0  0  0  0  0  0  0  0  0  0  0  0
  197.8500  170.8810  135.2330 C   0  0  0  0  0  2  0  0  0  0  0  0
  194.6600  172.3520  139.2480 C   0  0  2  0  0  3  0  0  0  0  0  0
  194.6190  169.9790  140.2030 C   0  0  0  0  0  2  0  0  0  0  0  0
  196.5920  170.1020  137.3570 C   0  0  1  0  0  3  0  0  0  0  0  0
  196.4000  173.5170  137.4110 C   0  0  0  0  0  2  0  0  0  0  0  0
  197.9370  172.3910  135.6730 C   0  0  0  0  0  2  0  0  0  0  0  0
  194.4960  171.8900  142.7360 C   0  0  0  0  0  1  0  0  0  0  0  0
  189.9230  173.6760  137.3690 C   0  0  0  0  0  0  0  0  0  0  0  0
  189.5490  172.3950  137.8450 C   0  0  0  0  0  3  0  0  0  0  0  0
  191.1400  174.2140  137.8300 C   0  0  0  0  0  3  0  0  0  0  0  0
  191.6330  172.1930  139.1040 C   0  0  0  0  0  0  0  0  0  0  0  0
  191.9410  173.4830  138.6560 C   0  0  0  0  0  3  0  0  0  0  0  0
  190.3540  171.6750  138.7150 C   0  0  0  0  0  3  0  0  0  0  0  0
  188.0650  175.3380  136.9210 C   0  0  0  0  0  3  0  0  0  0  0  0
  189.1280  174.2900  135.0600 C   0  0  0  0  0  3  0  0  0  0  0  0
  188.0640  175.0620  134.5130 N   0  0  0  0  0  0  0  0  0  0  0  0
  187.4190  175.7480  135.6540 C   0  0  0  0  0  3  0  0  0  0  0  0
  189.1310  174.4050  136.5080 N   0  0  0  0  0  0  0  0  0  0  0  0
  1  2  1  0  0  0  0
  2  3  1  0  0  0  0
  3  4  1  0  0  0  0
  5  2  1  0  0  0  0
  5  6  1  0  0  0  0
  6  7  1  6  0  0  0
  6  8  1  0  0  0  0
  9  8  1  0  0  0  0
 10  9  2  0  0  0  0
 11 21  1  1  0  0  0
 11 10  1  0  0  0  0
 13 12  1  6  0  0  0
 13 16  1  0  0  0  0
 13 11  1  0  0  0  0
 14 13  1  0  0  0  0
 15 14  1  0  0  0  0
 18 16  1  6  0  0  0
 18 19  1  0  0  0  0
 18 17  1  0  0  0  0
 19 17  1  0  0  0  0
 20 19  2  0  0  0  0
 21 22  1  0  0  0  0
 22 23  1  0  0  0  0
 24 27  1  6  0  0  0
 24 25  1  0  0  0  0
 24 23  1  0  0  0  0
 25 26  1  0  0  0  0
 28 27  1  0  0  0  0
 29 28  1  0  0  0  0
 30 29  1  0  0  0  0
 31 30  1  0  0  0  0
 32 33  1  0  0  0  0
 33 31  1  0  0  0  0
 34  1  1  0  0  0  0
 35 47  2  0  0  0  0
 35 43  1  0  0  0  0
 37 53  1  0  0  0  0
 38 46  1  0  0  0  0
 38 51  1  1  0  0  0
 39 40  1  0  0  0  0
 39 36  1  6  0  0  0
 40 36  1  1  0  0  0
 40 51  1  0  0  0  0
 41 42  1  1  0  0  0
 41 50  1  0  0  0  0
 42 52  1  0  0  0  0
 43 34  1  0  0  0  0
 43 55  1  1  0  0  0
 45 43  1  0  0  0  0
 45 48  2  0  0  0  0
 46 45  1  0  0  0  0
 49 54  1  0  0  0  0
 49 44  1  0  0  0  0
 50 38  1  0  0  0  0
 50 35  1  1  0  0  0
 52 44  1  1  0  0  0
 52 39  1  0  0  0  0
 53 41  1  0  0  0  0
 54 37  1  0  0  0  0
 56 58  2  0  0  0  0
 56 57  1  0  0  0  0
 57 61  2  0  0  0  0
 58 60  1  0  0  0  0
 59 46  1  0  0  0  0
 60 59  2  0  0  0  0
 61 59  1  0  0  0  0
 63 66  1  0  0  0  0
 64 63  2  0  0  0  0
 64 65  1  0  0  0  0
 65 62  2  0  0  0  0
 66 62  1  0  0  0  0
 66 56  1  0  0  0  0
M  END
>  <MODEL>
5

>  <REMARK>
 VINA RESULT:      -3.1      1.779      2.871
  Name = 
  26 active torsions:
  status: ('A' for Active; 'I' for Inactive)
    1  A    between atoms: N_1  and  C_4
    2  A    between atoms: N_1  and  C_23
    3  A    between atoms: N_1  and  C_24
    4  A    between atoms: C_2  and  C_55
    5  A    between atoms: C_3  and  N_34
    6  A    between atoms: C_3  and  C_52
    7  A    between atoms: C_4  and  C_12
    8  A    between atoms: C_5  and  C_7
    9  A    between atoms: C_5  and  C_23
   10  A    between atoms: C_7  and  C_26
   11  A    between atoms: C_11  and  C_52
   12  A    between atoms: C_11  and  C_55
   13  A    between atoms: C_11  and  C_60
   14  A    between atoms: C_12  and  C_38
   15  A    between atoms: C_14  and  N_37
   16  A    between atoms: C_15  and  C_28
   17  A    between atoms: C_15  and  O_59
   18  A    between atoms: C_22  and  O_56
   19  A    between atoms: C_28  and  S_31
   20  A    between atoms: S_31  and  C_46
   21  A    between atoms: N_34  and  C_40
   22  A    between atoms: C_35  and  N_45
   23  A    between atoms: C_40  and  C_42
   24  A    between atoms: C_40  and  C_44
   25  A    between atoms: C_44  and  C_46
   26  A    between atoms: C_55  and  O_56
                            x       y       z     vdW  Elec       q    Type
                         _______ _______ _______ _____ _____    ______ ____

>  <TORSDO>
F 26

$$$$
=
 OpenBabel11062418223D

 66 72  0  0  1  0  0  0  0  0999 V2000
  189.7560  176.6600  145.6190 C   0  0  0  0  0  2  0  0  0  0  0  0
  188.8890  177.0910  146.6900 N   0  0  0  0  0  0  0  0  0  0  0  0
  189.6710  177.1400  147.9630 C   0  0  0  0  0  2  0  0  0  0  0  0
  190.9010  176.5010  147.8640 O   0  0  0  0  0  1  0  0  0  0  0  0
  187.6790  176.2580  146.7210 C   0  0  0  0  0  2  0  0  0  0  0  0
  186.4240  177.0690  147.0610 C   0  0  2  0  0  3  0  0  0  0  0  0
  185.1430  176.2450  147.3000 C   0  0  0  0  0  1  0  0  0  0  0  0
  186.3040  178.3780  146.1980 C   0  0  0  0  0  2  0  0  0  0  0  0
  185.9950  178.1320  144.6980 C   0  0  0  0  0  3  0  0  0  0  0  0
  186.8390  177.7810  143.7160 C   0  0  0  0  0  3  0  0  0  0  0  0
  186.2690  177.2400  142.3140 C   0  0  2  0  0  3  0  0  0  0  0  0
  186.2280  178.8460  140.5500 O   0  0  0  0  0  1  0  0  0  0  0  0
  186.9760  177.7800  141.1070 C   0  0  2  0  0  0  0  0  0  0  0  0
  187.2130  176.6450  140.1310 C   0  0  0  0  0  2  0  0  0  0  0  0
  186.3400  176.7500  138.8120 C   0  0  0  0  0  1  0  0  0  0  0  0
  188.3170  178.2250  141.4810 O   0  0  0  0  0  0  0  0  0  0  0  0
  189.8870  176.5660  141.9000 C   0  0  0  0  0  2  0  0  0  0  0  0
  188.9100  177.5170  142.5260 C   0  0  1  0  0  3  0  0  0  0  0  0
  190.4190  177.8280  142.5770 C   0  0  0  0  0  0  0  0  0  0  0  0
  191.3720  178.5510  142.8770 O   0  0  0  0  0  0  0  0  0  0  0  0
  184.7610  177.0630  142.4090 C   0  0  0  0  0  2  0  0  0  0  0  0
  184.2990  178.4250  142.0400 C   0  0  0  0  0  2  0  0  0  0  0  0
  182.8750  178.5860  142.3350 N   0  0  0  0  0  2  0  0  0  0  0  0
  182.0500  178.6240  141.1360 C   0  0  1  0  0  3  0  0  0  0  0  0
  182.9650  178.1390  140.0650 C   0  0  0  0  0  2  0  0  0  0  0  0
  182.3380  177.0500  139.4480 O   0  0  0  0  0  1  0  0  0  0  0  0
  180.5950  178.0720  141.2640 C   0  0  0  0  0  2  0  0  0  0  0  0
  179.4980  178.8130  140.4910 C   0  0  0  0  0  2  0  0  0  0  0  0
  179.8660  180.5610  140.5890 S   0  0  0  0  0  0  0  0  0  0  0  0
  178.9670  181.0470  139.0520 C   0  0  0  0  0  2  0  0  0  0  0  0
  177.9770  182.1890  139.1310 C   0  0  0  0  0  2  0  0  0  0  0  0
  178.8850  183.7330  138.0050 O   0  0  0  0  0  1  0  0  0  0  0  0
  178.6340  183.4150  139.2410 O   0  0  0  0  0  0  0  0  0  0  0  0
  189.3090  175.2610  144.9450 C   0  0  0  0  0  2  0  0  0  0  0  0
  191.6720  174.5030  144.1630 C   0  0  0  0  0  0  0  0  0  0  0  0
  194.7420  170.3210  145.3860 C   0  0  0  0  0  2  0  0  0  0  0  0
  196.0620  174.7630  142.9610 C   0  0  0  0  0  2  0  0  0  0  0  0
  191.9820  172.1850  143.2290 C   0  0  1  0  0  3  0  0  0  0  0  0
  194.9160  171.6890  144.6670 C   0  0  2  0  0  3  0  0  0  0  0  0
  193.7910  170.7150  144.2980 C   0  0  2  0  0  3  0  0  0  0  0  0
  193.8990  173.7560  142.3840 C   0  0  1  0  0  3  0  0  0  0  0  0
  194.7210  172.4820  142.0730 C   0  0  0  0  0  2  0  0  0  0  0  0
  190.2940  174.0810  144.7160 C   0  0  2  0  0  0  0  0  0  0  0  0
  197.0680  171.9430  143.1960 C   0  0  0  0  0  2  0  0  0  0  0  0
  189.6800  173.0030  143.7440 C   0  0  0  0  0  0  0  0  0  0  0  0
  190.5350  172.2560  142.8920 N   0  0  0  0  0  0  0  0  0  0  0  0
  192.2610  175.4790  144.6830 O   0  0  0  0  0  0  0  0  0  0  0  0
  188.4560  172.9670  143.5510 O   0  0  0  0  0  0  0  0  0  0  0  0
  197.6670  172.8190  142.0350 C   0  0  0  0  0  2  0  0  0  0  0  0
  192.5200  173.6050  143.1960 C   0  0  2  0  0  3  0  0  0  0  0  0
  192.4040  171.4430  144.5590 C   0  0  0  0  0  2  0  0  0  0  0  0
  195.5930  171.8970  143.2810 C   0  0  1  0  0  3  0  0  0  0  0  0
  194.7280  175.0700  142.3380 C   0  0  0  0  0  2  0  0  0  0  0  0
  197.1770  174.3160  142.0450 C   0  0  0  0  0  2  0  0  0  0  0  0
  190.4490  173.4580  146.0420 C   0  0  0  0  0  1  0  0  0  0  0  0
  189.7600  173.1990  138.7930 C   0  0  0  0  0  0  0  0  0  0  0  0
  188.8670  172.3600  139.5040 C   0  0  0  0  0  3  0  0  0  0  0  0
  190.8650  173.7210  139.4930 C   0  0  0  0  0  3  0  0  0  0  0  0
  190.2520  172.4960  141.5120 C   0  0  0  0  0  0  0  0  0  0  0  0
  191.0800  173.3650  140.7910 C   0  0  0  0  0  3  0  0  0  0  0  0
  189.0740  172.0350  140.8370 C   0  0  0  0  0  3  0  0  0  0  0  0
  190.0230  172.7380  136.3160 C   0  0  0  0  0  3  0  0  0  0  0  0
  188.9820  174.7750  136.9900 C   0  0  0  0  0  3  0  0  0  0  0  0
  189.0980  174.8520  135.5740 N   0  0  0  0  0  0  0  0  0  0  0  0
  189.7090  173.5760  135.1370 C   0  0  0  0  0  3  0  0  0  0  0  0
  189.5630  173.5340  137.4710 N   0  0  0  0  0  0  0  0  0  0  0  0
  1  2  1  0  0  0  0
  2  5  1  0  0  0  0
  2  3  1  0  0  0  0
  4  3  1  0  0  0  0
  5  6  1  0  0  0  0
  6  7  1  6  0  0  0
  8  6  1  0  0  0  0
  9  8  1  0  0  0  0
 10  9  2  0  0  0  0
 11 21  1  6  0  0  0
 11 10  1  0  0  0  0
 13 12  1  6  0  0  0
 13 16  1  0  0  0  0
 13 11  1  0  0  0  0
 14 13  1  0  0  0  0
 15 14  1  0  0  0  0
 17 18  1  0  0  0  0
 17 19  1  0  0  0  0
 18 16  1  6  0  0  0
 18 19  1  0  0  0  0
 19 20  2  0  0  0  0
 22 23  1  0  0  0  0
 22 21  1  0  0  0  0
 24 25  1  6  0  0  0
 24 27  1  0  0  0  0
 24 23  1  0  0  0  0
 26 25  1  0  0  0  0
 28 29  1  0  0  0  0
 28 27  1  0  0  0  0
 30 31  1  0  0  0  0
 30 29  1  0  0  0  0
 31 33  1  0  0  0  0
 32 33  1  0  0  0  0
 34  1  1  0  0  0  0
 35 47  2  0  0  0  0
 35 43  1  0  0  0  0
 38 51  1  1  0  0  0
 39 36  1  1  0  0  0
 40 51  1  1  0  0  0
 40 39  1  0  0  0  0
 40 36  1  0  0  0  0
 41 42  1  1  0  0  0
 41 50  1  0  0  0  0
 43 34  1  0  0  0  0
 43 55  1  1  0  0  0
 44 52  1  0  0  0  0
 45 43  1  0  0  0  0
 46 38  1  0  0  0  0
 46 45  1  0  0  0  0
 48 45  2  0  0  0  0
 49 54  1  0  0  0  0
 49 44  1  0  0  0  0
 50 38  1  0  0  0  0
 50 35  1  1  0  0  0
 52 42  1  1  0  0  0
 52 39  1  0  0  0  0
 53 41  1  0  0  0  0
 53 37  1  0  0  0  0
 54 37  1  0  0  0  0
 56 58  2  0  0  0  0
 56 57  1  0  0  0  0
 57 61  2  0  0  0  0
 58 60  1  0  0  0  0
 59 46  1  0  0  0  0
 60 59  2  0  0  0  0
 61 59  1  0  0  0  0
 62 66  1  0  0  0  0
 63 66  1  0  0  0  0
 64 63  2  0  0  0  0
 65 64  1  0  0  0  0
 65 62  2  0  0  0  0
 66 56  1  0  0  0  0
M  END
>  <MODEL>
6

>  <REMARK>
 VINA RESULT:      -3.0      3.103      4.973
  Name = 
  26 active torsions:
  status: ('A' for Active; 'I' for Inactive)
    1  A    between atoms: N_1  and  C_4
    2  A    between atoms: N_1  and  C_23
    3  A    between atoms: N_1  and  C_24
    4  A    between atoms: C_2  and  C_55
    5  A    between atoms: C_3  and  N_34
    6  A    between atoms: C_3  and  C_52
    7  A    between atoms: C_4  and  C_12
    8  A    between atoms: C_5  and  C_7
    9  A    between atoms: C_5  and  C_23
   10  A    between atoms: C_7  and  C_26
   11  A    between atoms: C_11  and  C_52
   12  A    between atoms: C_11  and  C_55
   13  A    between atoms: C_11  and  C_60
   14  A    between atoms: C_12  and  C_38
   15  A    between atoms: C_14  and  N_37
   16  A    between atoms: C_15  and  C_28
   17  A    between atoms: C_15  and  O_59
   18  A    between atoms: C_22  and  O_56
   19  A    between atoms: C_28  and  S_31
   20  A    between atoms: S_31  and  C_46
   21  A    between atoms: N_34  and  C_40
   22  A    between atoms: C_35  and  N_45
   23  A    between atoms: C_40  and  C_42
   24  A    between atoms: C_40  and  C_44
   25  A    between atoms: C_44  and  C_46
   26  A    between atoms: C_55  and  O_56
                            x       y       z     vdW  Elec       q    Type
                         _______ _______ _______ _____ _____    ______ ____

>  <TORSDO>
F 26

$$$$
=
 OpenBabel11062418223D

 66 72  0  0  1  0  0  0  0  0999 V2000
  189.8180  170.3290  141.7700 C   0  0  0  0  0  2  0  0  0  0  0  0
  189.5340  171.3230  140.7610 N   0  0  0  0  0  0  0  0  0  0  0  0
  190.5200  171.1850  139.6470 C   0  0  0  0  0  2  0  0  0  0  0  0
  190.0830  170.3260  138.6440 O   0  0  0  0  0  1  0  0  0  0  0  0
  189.4550  172.6540  141.3780 C   0  0  0  0  0  2  0  0  0  0  0  0
  189.5130  173.7800  140.3390 C   0  0  2  0  0  3  0  0  0  0  0  0
  190.9280  174.2120  139.9050 C   0  0  0  0  0  1  0  0  0  0  0  0
  188.4540  174.9080  140.6190 C   0  0  0  0  0  2  0  0  0  0  0  0
  188.5620  175.5550  142.0250 C   0  0  0  0  0  3  0  0  0  0  0  0
  187.6590  175.5570  143.0170 C   0  0  0  0  0  3  0  0  0  0  0  0
  188.0930  175.9780  144.5060 C   0  0  2  0  0  3  0  0  0  0  0  0
  188.8240  173.7860  145.1030 O   0  0  0  0  0  1  0  0  0  0  0  0
  189.2030  175.1510  145.0860 C   0  0  2  0  0  0  0  0  0  0  0  0
  189.5460  175.6910  146.4590 C   0  0  0  0  0  2  0  0  0  0  0  0
  189.0870  174.7450  147.6460 C   0  0  0  0  0  1  0  0  0  0  0  0
  190.4210  175.3450  144.3020 O   0  0  0  0  0  0  0  0  0  0  0  0
  192.1940  176.6100  143.4970 C   0  0  0  0  0  2  0  0  0  0  0  0
  190.9110  176.6500  144.2740 C   0  0  1  0  0  3  0  0  0  0  0  0
  190.9410  177.1650  142.8210 C   0  0  0  0  0  0  0  0  0  0  0  0
  190.3910  177.6310  141.8200 O   0  0  0  0  0  0  0  0  0  0  0  0
  186.8680  176.4270  145.2880 C   0  0  0  0  0  2  0  0  0  0  0  0
  186.5760  177.7230  144.6240 C   0  0  0  0  0  2  0  0  0  0  0  0
  185.2230  177.7240  144.0650 N   0  0  0  0  0  2  0  0  0  0  0  0
  185.0350  178.7450  143.0440 C   0  0  1  0  0  3  0  0  0  0  0  0
  186.4140  179.0040  142.5470 C   0  0  0  0  0  2  0  0  0  0  0  0
  186.5020  178.4490  141.2650 O   0  0  0  0  0  1  0  0  0  0  0  0
  183.8450  178.5390  142.0530 C   0  0  0  0  0  2  0  0  0  0  0  0
  182.4310  178.7290  142.6120 C   0  0  0  0  0  2  0  0  0  0  0  0
  181.3010  177.9160  141.4900 S   0  0  0  0  0  0  0  0  0  0  0  0
  180.3530  179.4280  141.0200 C   0  0  0  0  0  2  0  0  0  0  0  0
  178.8830  179.4940  141.3790 C   0  0  0  0  0  2  0  0  0  0  0  0
  178.2870  179.7110  143.3970 O   0  0  0  0  0  1  0  0  0  0  0  0
  178.6230  178.7830  142.5500 O   0  0  0  0  0  0  0  0  0  0  0  0
  190.4400  170.9430  143.1290 C   0  0  0  0  0  2  0  0  0  0  0  0
  192.5970  172.3410  142.7250 C   0  0  0  0  0  0  0  0  0  0  0  0
  197.1370  172.8960  145.4610 C   0  0  0  0  0  2  0  0  0  0  0  0
  195.2540  175.8680  141.5920 C   0  0  0  0  0  2  0  0  0  0  0  0
  194.8350  171.1860  142.7190 C   0  0  1  0  0  3  0  0  0  0  0  0
  196.4180  173.6240  144.2910 C   0  0  2  0  0  3  0  0  0  0  0  0
  196.6420  172.1080  144.2880 C   0  0  2  0  0  3  0  0  0  0  0  0
  194.9830  173.4370  141.3880 C   0  0  1  0  0  3  0  0  0  0  0  0
  196.5180  173.3800  141.5850 C   0  0  0  0  0  2  0  0  0  0  0  0
  191.9690  171.0860  143.3690 C   0  0  2  0  0  0  0  0  0  0  0  0
  197.9000  175.2500  142.8700 C   0  0  0  0  0  2  0  0  0  0  0  0
  192.7500  169.8190  142.8530 C   0  0  0  0  0  0  0  0  0  0  0  0
  194.0710  169.9630  142.3530 N   0  0  0  0  0  0  0  0  0  0  0  0
  192.0210  173.4450  142.8580 O   0  0  0  0  0  0  0  0  0  0  0  0
  192.1480  168.7520  142.6640 O   0  0  0  0  0  0  0  0  0  0  0  0
  197.9340  175.9820  141.4780 C   0  0  0  0  0  2  0  0  0  0  0  0
  194.0650  172.3760  142.1730 C   0  0  2  0  0  3  0  0  0  0  0  0
  195.2220  171.4010  144.2360 C   0  0  0  0  0  2  0  0  0  0  0  0
  197.0760  174.0240  142.9380 C   0  0  1  0  0  3  0  0  0  0  0  0
  194.4630  174.8080  140.8760 C   0  0  0  0  0  2  0  0  0  0  0  0
  196.5120  176.3730  140.9260 C   0  0  0  0  0  2  0  0  0  0  0  0
  192.1140  171.1420  144.8340 C   0  0  0  0  0  1  0  0  0  0  0  0
  194.3590  169.0730  138.1800 C   0  0  0  0  0  0  0  0  0  0  0  0
  193.4710  168.3330  138.9990 C   0  0  0  0  0  3  0  0  0  0  0  0
  195.0950  170.1100  138.7840 C   0  0  0  0  0  3  0  0  0  0  0  0
  194.1620  169.5890  140.9770 C   0  0  0  0  0  0  0  0  0  0  0  0
  194.9860  170.3330  140.1240 C   0  0  0  0  0  3  0  0  0  0  0  0
  193.3390  168.5930  140.3550 C   0  0  0  0  0  3  0  0  0  0  0  0
  195.6520  169.2350  136.0070 C   0  0  0  0  0  3  0  0  0  0  0  0
  193.4840  168.2410  135.9700 C   0  0  0  0  0  3  0  0  0  0  0  0
  193.9040  168.3020  134.6110 N   0  0  0  0  0  0  0  0  0  0  0  0
  195.2650  168.8830  134.6220 C   0  0  0  0  0  3  0  0  0  0  0  0
  194.4970  168.8280  136.8300 N   0  0  0  0  0  0  0  0  0  0  0  0
  1 34  1  0  0  0  0
  2  5  1  0  0  0  0
  2  1  1  0  0  0  0
  3  2  1  0  0  0  0
  4  3  1  0  0  0  0
  6  7  1  1  0  0  0
  6  8  1  0  0  0  0
  6  5  1  0  0  0  0
  8  9  1  0  0  0  0
  9 10  2  0  0  0  0
 11 10  1  6  0  0  0
 11 13  1  0  0  0  0
 11 21  1  0  0  0  0
 13 12  1  1  0  0  0
 13 14  1  0  0  0  0
 14 15  1  0  0  0  0
 16 13  1  0  0  0  0
 17 18  1  0  0  0  0
 18 16  1  6  0  0  0
 19 17  1  0  0  0  0
 19 18  1  0  0  0  0
 20 19  2  0  0  0  0
 22 21  1  0  0  0  0
 23 22  1  0  0  0  0
 24 27  1  6  0  0  0
 24 23  1  0  0  0  0
 25 24  1  0  0  0  0
 26 25  1  0  0  0  0
 27 28  1  0  0  0  0
 29 28  1  0  0  0  0
 30 31  1  0  0  0  0
 30 29  1  0  0  0  0
 31 33  1  0  0  0  0
 33 32  1  0  0  0  0
 34 43  1  0  0  0  0
 35 47  2  0  0  0  0
 35 43  1  0  0  0  0
 38 51  1  1  0  0  0
 39 36  1  1  0  0  0
 40 51  1  1  0  0  0
 40 39  1  0  0  0  0
 40 36  1  0  0  0  0
 41 53  1  1  0  0  0
 41 42  1  0  0  0  0
 41 50  1  0  0  0  0
 43 55  1  1  0  0  0
 44 52  1  0  0  0  0
 45 43  1  0  0  0  0
 46 38  1  0  0  0  0
 46 45  1  0  0  0  0
 48 45  2  0  0  0  0
 49 44  1  0  0  0  0
 50 38  1  0  0  0  0
 50 35  1  1  0  0  0
 52 42  1  6  0  0  0
 52 39  1  0  0  0  0
 53 37  1  0  0  0  0
 54 49  1  0  0  0  0
 54 37  1  0  0  0  0
 56 58  2  0  0  0  0
 56 57  1  0  0  0  0
 57 61  2  0  0  0  0
 58 60  1  0  0  0  0
 59 46  1  0  0  0  0
 60 59  2  0  0  0  0
 61 59  1  0  0  0  0
 62 66  1  0  0  0  0
 63 66  1  0  0  0  0
 64 65  1  0  0  0  0
 64 63  2  0  0  0  0
 65 62  2  0  0  0  0
 66 56  1  0  0  0  0
M  END
>  <MODEL>
7

>  <REMARK>
 VINA RESULT:      -2.5      3.012      5.336
  Name = 
  26 active torsions:
  status: ('A' for Active; 'I' for Inactive)
    1  A    between atoms: N_1  and  C_4
    2  A    between atoms: N_1  and  C_23
    3  A    between atoms: N_1  and  C_24
    4  A    between atoms: C_2  and  C_55
    5  A    between atoms: C_3  and  N_34
    6  A    between atoms: C_3  and  C_52
    7  A    between atoms: C_4  and  C_12
    8  A    between atoms: C_5  and  C_7
    9  A    between atoms: C_5  and  C_23
   10  A    between atoms: C_7  and  C_26
   11  A    between atoms: C_11  and  C_52
   12  A    between atoms: C_11  and  C_55
   13  A    between atoms: C_11  and  C_60
   14  A    between atoms: C_12  and  C_38
   15  A    between atoms: C_14  and  N_37
   16  A    between atoms: C_15  and  C_28
   17  A    between atoms: C_15  and  O_59
   18  A    between atoms: C_22  and  O_56
   19  A    between atoms: C_28  and  S_31
   20  A    between atoms: S_31  and  C_46
   21  A    between atoms: N_34  and  C_40
   22  A    between atoms: C_35  and  N_45
   23  A    between atoms: C_40  and  C_42
   24  A    between atoms: C_40  and  C_44
   25  A    between atoms: C_44  and  C_46
   26  A    between atoms: C_55  and  O_56
                            x       y       z     vdW  Elec       q    Type
                         _______ _______ _______ _____ _____    ______ ____

>  <TORSDO>
F 26

$$$$
