=
 OpenBabel11062421083D

 27 30  0  0  1  0  0  0  0  0999 V2000
  188.5790  177.8550  144.9110 O   0  0  0  0  0  0  0  0  0  0  0  0
  190.3760  177.7630  143.2750 C   0  0  2  0  0  3  0  0  0  0  0  0
  191.8440  177.3340  143.1160 C   0  0  0  0  0  2  0  0  0  0  0  0
  192.0790  176.0940  143.7410 O   0  0  0  0  0  0  0  0  0  0  0  0
  190.4840  176.5190  145.4870 C   0  0  0  0  0  2  0  0  0  0  0  0
  191.9540  176.3040  145.1270 C   0  0  0  0  0  2  0  0  0  0  0  0
  189.9670  177.7600  144.7620 C   0  0  2  0  0  3  0  0  0  0  0  0
  187.7700  175.5820  140.7520 N   0  0  0  0  0  2  0  0  0  0  0  0
  186.6230  177.6960  140.1840 N   0  0  0  0  0  1  0  0  0  0  0  0
  187.6450  177.0020  140.8860 C   0  0  0  0  0  0  0  0  0  0  0  0
  189.4760  176.9700  142.4360 N   0  0  0  0  0  0  0  0  0  0  0  0
  189.3950  175.5100  142.5710 C   0  0  0  0  0  2  0  0  0  0  0  0
  188.9520  174.8870  141.2520 C   0  0  0  0  0  2  0  0  0  0  0  0
  188.4810  177.6710  141.6780 C   0  0  0  0  0  3  0  0  0  0  0  0
  188.2120  176.7380  145.6650 C   0  0  0  0  0  2  0  0  0  0  0  0
  183.6310  178.6060  143.7180 C   0  0  0  0  0  2  0  0  0  0  0  0
  185.3210  178.4580  147.2120 C   0  0  1  0  0  3  0  0  0  0  0  0
  186.4490  177.4270  147.4020 C   0  0  0  0  0  0  0  0  0  0  0  0
  185.8300  179.7610  147.2510 O   0  0  0  0  0  1  0  0  0  0  0  0
  186.0050  177.7340  145.0490 C   0  0  1  0  0  3  0  0  0  0  0  0
  184.0380  179.2150  145.0680 C   0  0  0  0  0  2  0  0  0  0  0  0
  186.7300  176.8240  146.0080 C   0  0  1  0  0  3  0  0  0  0  0  0
  185.5200  177.0980  143.7570 C   0  0  0  0  0  2  0  0  0  0  0  0
  184.7950  178.1420  145.8290 C   0  0  2  0  0  3  0  0  0  0  0  0
  186.0110  176.4230  148.2440 F   0  0  0  0  0  0  0  0  0  0  0  0
  187.5750  178.0200  147.9560 F   0  0  0  0  0  0  0  0  0  0  0  0
  184.8010  178.1120  142.9740 N   0  0  0  0  0  2  0  0  0  0  0  0
  1 15  1  0  0  0  0
  2 11  1  6  0  0  0
  2  7  1  0  0  0  0
  3  2  1  0  0  0  0
  3  4  1  0  0  0  0
  4  6  1  0  0  0  0
  6  5  1  0  0  0  0
  7  1  1  6  0  0  0
  7  5  1  0  0  0  0
  8 10  1  0  0  0  0
  8 13  1  0  0  0  0
  9 10  1  0  0  0  0
 10 14  2  0  0  0  0
 11 12  1  0  0  0  0
 13 12  1  0  0  0  0
 14 11  1  0  0  0  0
 16 21  1  0  0  0  0
 17 19  1  6  0  0  0
 17 18  1  0  0  0  0
 18 26  1  0  0  0  0
 18 25  1  0  0  0  0
 20 23  1  6  0  0  0
 20 24  1  0  0  0  0
 20 22  1  0  0  0  0
 22 15  1  6  0  0  0
 22 18  1  0  0  0  0
 24 21  1  6  0  0  0
 24 17  1  0  0  0  0
 27 16  1  0  0  0  0
 27 23  1  0  0  0  0
M  END
>  <MODEL>
1

>  <REMARK>
 VINA RESULT:      -7.6      0.000      0.000
  Name = 
  4 active torsions:
  status: ('A' for Active; 'I' for Inactive)
    1  A    between atoms: O_7  and  C_22
    2  A    between atoms: O_7  and  C_25
    3  A    between atoms: C_9  and  N_12
    4  A    between atoms: C_17  and  C_25
                            x       y       z     vdW  Elec       q    Type
                         _______ _______ _______ _____ _____    ______ ____

>  <TORSDO>
F 4

$$$$
=
 OpenBabel11062421083D

 27 30  0  0  1  0  0  0  0  0999 V2000
  187.8230  176.3870  146.4010 O   0  0  0  0  0  0  0  0  0  0  0  0
  185.5650  176.8950  145.6550 C   0  0  2  0  0  3  0  0  0  0  0  0
  184.3350  177.7420  146.0200 C   0  0  0  0  0  2  0  0  0  0  0  0
  184.7130  179.0410  146.4120 O   0  0  0  0  0  0  0  0  0  0  0  0
  186.7670  178.2890  147.4070 C   0  0  0  0  0  2  0  0  0  0  0  0
  185.3930  178.9170  147.6380 C   0  0  0  0  0  2  0  0  0  0  0  0
  186.5860  176.8930  146.8120 C   0  0  2  0  0  3  0  0  0  0  0  0
  187.2350  177.9310  141.9070 N   0  0  0  0  0  2  0  0  0  0  0  0
  188.0610  175.6120  141.6840 N   0  0  0  0  0  1  0  0  0  0  0  0
  187.3550  176.6010  142.4220 C   0  0  0  0  0  0  0  0  0  0  0  0
  186.1540  177.3010  144.3770 N   0  0  0  0  0  0  0  0  0  0  0  0
  186.3190  178.7160  144.0270 C   0  0  0  0  0  2  0  0  0  0  0  0
  186.3120  178.8860  142.5120 C   0  0  0  0  0  2  0  0  0  0  0  0
  186.8150  176.2940  143.6000 C   0  0  0  0  0  3  0  0  0  0  0  0
  188.7750  177.0980  147.1350 C   0  0  0  0  0  2  0  0  0  0  0  0
  191.7770  176.7250  142.7630 C   0  0  0  0  0  2  0  0  0  0  0  0
  191.1870  174.5580  145.9320 C   0  0  1  0  0  3  0  0  0  0  0  0
  190.5710  175.2610  147.1570 C   0  0  0  0  0  0  0  0  0  0  0  0
  190.2870  173.6350  145.3880 O   0  0  0  0  0  1  0  0  0  0  0  0
  190.2700  176.6270  145.1890 C   0  0  1  0  0  3  0  0  0  0  0  0
  191.5420  175.3880  143.4830 C   0  0  0  0  0  2  0  0  0  0  0  0
  190.1720  176.6790  146.6930 C   0  0  1  0  0  3  0  0  0  0  0  0
  190.5990  177.9360  144.4920 C   0  0  0  0  0  2  0  0  0  0  0  0
  191.4200  175.6970  144.9630 C   0  0  2  0  0  3  0  0  0  0  0  0
  191.5270  175.3670  148.1490 F   0  0  0  0  0  0  0  0  0  0  0  0
  189.4900  174.5440  147.6480 F   0  0  0  0  0  0  0  0  0  0  0  0
  190.7010  177.6880  143.0480 N   0  0  0  0  0  2  0  0  0  0  0  0
  1 15  1  0  0  0  0
  2 11  1  6  0  0  0
  2  3  1  0  0  0  0
  2  7  1  0  0  0  0
  3  4  1  0  0  0  0
  4  6  1  0  0  0  0
  5  6  1  0  0  0  0
  7  1  1  6  0  0  0
  7  5  1  0  0  0  0
  8 10  1  0  0  0  0
  8 13  1  0  0  0  0
  9 10  1  0  0  0  0
 10 14  2  0  0  0  0
 12 11  1  0  0  0  0
 13 12  1  0  0  0  0
 14 11  1  0  0  0  0
 16 27  1  0  0  0  0
 16 21  1  0  0  0  0
 17 19  1  6  0  0  0
 17 18  1  0  0  0  0
 18 26  1  0  0  0  0
 18 25  1  0  0  0  0
 20 23  1  1  0  0  0
 20 22  1  0  0  0  0
 22 15  1  6  0  0  0
 22 18  1  0  0  0  0
 24 21  1  6  0  0  0
 24 20  1  0  0  0  0
 24 17  1  0  0  0  0
 27 23  1  0  0  0  0
M  END
>  <MODEL>
2

>  <REMARK>
 VINA RESULT:      -7.3      1.958      5.522
  Name = 
  4 active torsions:
  status: ('A' for Active; 'I' for Inactive)
    1  A    between atoms: O_7  and  C_22
    2  A    between atoms: O_7  and  C_25
    3  A    between atoms: C_9  and  N_12
    4  A    between atoms: C_17  and  C_25
                            x       y       z     vdW  Elec       q    Type
                         _______ _______ _______ _____ _____    ______ ____

>  <TORSDO>
F 4

$$$$
=
 OpenBabel11062421083D

 27 30  0  0  1  0  0  0  0  0999 V2000
  189.4080  175.6040  143.8530 O   0  0  0  0  0  0  0  0  0  0  0  0
  190.4080  176.8400  145.6940 C   0  0  2  0  0  3  0  0  0  0  0  0
  190.5280  176.8370  147.2270 C   0  0  0  0  0  2  0  0  0  0  0  0
  190.7540  175.5350  147.7140 O   0  0  0  0  0  0  0  0  0  0  0  0
  189.4300  174.5140  145.9880 C   0  0  0  0  0  2  0  0  0  0  0  0
  189.5760  174.8010  147.4820 C   0  0  0  0  0  2  0  0  0  0  0  0
  189.3320  175.8370  145.2300 C   0  0  2  0  0  3  0  0  0  0  0  0
  194.1690  176.1140  143.8940 N   0  0  0  0  0  2  0  0  0  0  0  0
  195.0540  175.4670  146.1090 N   0  0  0  0  0  1  0  0  0  0  0  0
  193.9730  175.9030  145.2970 C   0  0  0  0  0  0  0  0  0  0  0  0
  191.7010  176.6290  145.0400 N   0  0  0  0  0  0  0  0  0  0  0  0
  191.9760  177.1640  143.7010 C   0  0  0  0  0  2  0  0  0  0  0  0
  193.0310  176.3130  143.0030 C   0  0  0  0  0  2  0  0  0  0  0  0
  192.7800  176.1300  145.8420 C   0  0  0  0  0  3  0  0  0  0  0  0
  188.0930  175.6920  143.3920 C   0  0  0  0  0  2  0  0  0  0  0  0
  184.2210  178.8210  145.2580 C   0  0  0  0  0  2  0  0  0  0  0  0
  186.2150  178.5340  141.9370 C   0  0  1  0  0  3  0  0  0  0  0  0
  187.5560  177.7760  141.9880 C   0  0  0  0  0  0  0  0  0  0  0  0
  185.2720  177.8190  141.1900 O   0  0  0  0  0  1  0  0  0  0  0  0
  186.2640  177.2940  143.9700 C   0  0  1  0  0  3  0  0  0  0  0  0
  184.3330  178.8020  143.7250 C   0  0  0  0  0  2  0  0  0  0  0  0
  187.6520  177.1510  143.3970 C   0  0  1  0  0  3  0  0  0  0  0  0
  186.1710  177.4110  145.4820 C   0  0  0  0  0  2  0  0  0  0  0  0
  185.7980  178.5920  143.3910 C   0  0  2  0  0  3  0  0  0  0  0  0
  188.5920  178.6750  141.8250 F   0  0  0  0  0  0  0  0  0  0  0  0
  187.6240  176.8220  140.9830 F   0  0  0  0  0  0  0  0  0  0  0  0
  184.7620  177.5890  145.8540 N   0  0  0  0  0  2  0  0  0  0  0  0
  2 11  1  6  0  0  0
  2  3  1  0  0  0  0
  3  4  1  0  0  0  0
  5  6  1  0  0  0  0
  6  4  1  0  0  0  0
  7  1  1  6  0  0  0
  7  2  1  0  0  0  0
  7  5  1  0  0  0  0
  8 10  1  0  0  0  0
 10 14  2  0  0  0  0
 10  9  1  0  0  0  0
 11 14  1  0  0  0  0
 12 11  1  0  0  0  0
 13 12  1  0  0  0  0
 13  8  1  0  0  0  0
 15  1  1  0  0  0  0
 16 27  1  0  0  0  0
 17 19  1  6  0  0  0
 17 18  1  0  0  0  0
 17 24  1  0  0  0  0
 18 22  1  0  0  0  0
 20 23  1  1  0  0  0
 21 16  1  0  0  0  0
 22 15  1  6  0  0  0
 22 20  1  0  0  0  0
 23 27  1  0  0  0  0
 24 21  1  6  0  0  0
 24 20  1  0  0  0  0
 25 18  1  0  0  0  0
 26 18  1  0  0  0  0
M  END
>  <MODEL>
3

>  <REMARK>
 VINA RESULT:      -7.3      3.188      4.798
  Name = 
  4 active torsions:
  status: ('A' for Active; 'I' for Inactive)
    1  A    between atoms: O_7  and  C_22
    2  A    between atoms: O_7  and  C_25
    3  A    between atoms: C_9  and  N_12
    4  A    between atoms: C_17  and  C_25
                            x       y       z     vdW  Elec       q    Type
                         _______ _______ _______ _____ _____    ______ ____

>  <TORSDO>
F 4

$$$$
=
 OpenBabel11062421083D

 27 30  0  0  1  0  0  0  0  0999 V2000
  189.6510  176.8560  144.1960 O   0  0  0  0  0  0  0  0  0  0  0  0
  191.6550  175.4890  144.0190 C   0  0  2  0  0  3  0  0  0  0  0  0
  192.9430  175.1300  144.7780 C   0  0  0  0  0  2  0  0  0  0  0  0
  192.6820  174.9280  146.1480 O   0  0  0  0  0  0  0  0  0  0  0  0
  190.9380  176.5790  146.1990 C   0  0  0  0  0  2  0  0  0  0  0  0
  192.3300  176.1790  146.6870 C   0  0  0  0  0  2  0  0  0  0  0  0
  190.9550  176.6970  144.6760 C   0  0  2  0  0  3  0  0  0  0  0  0
  189.1600  172.1210  143.4350 N   0  0  0  0  0  2  0  0  0  0  0  0
  189.1690  172.5900  141.0080 N   0  0  0  0  0  1  0  0  0  0  0  0
  189.5940  172.9150  142.3250 C   0  0  0  0  0  0  0  0  0  0  0  0
  190.7680  174.3350  143.8620 N   0  0  0  0  0  0  0  0  0  0  0  0
  190.0670  173.7480  145.0100 C   0  0  0  0  0  2  0  0  0  0  0  0
  189.7760  172.2740  144.7490 C   0  0  0  0  0  2  0  0  0  0  0  0
  190.3850  173.9660  142.5300 C   0  0  0  0  0  3  0  0  0  0  0  0
  189.0320  177.7280  145.0930 C   0  0  0  0  0  2  0  0  0  0  0  0
  184.0650  178.5570  143.3880 C   0  0  0  0  0  2  0  0  0  0  0  0
  185.7740  178.0060  146.8320 C   0  0  1  0  0  3  0  0  0  0  0  0
  187.1700  177.3560  146.8250 C   0  0  0  0  0  0  0  0  0  0  0  0
  185.8510  179.3420  147.2410 O   0  0  0  0  0  1  0  0  0  0  0  0
  186.6140  178.1290  144.6070 C   0  0  1  0  0  3  0  0  0  0  0  0
  184.2830  178.8780  144.8740 C   0  0  0  0  0  2  0  0  0  0  0  0
  187.6020  177.2630  145.3450 C   0  0  1  0  0  3  0  0  0  0  0  0
  186.3300  177.7450  143.1640 C   0  0  0  0  0  2  0  0  0  0  0  0
  185.3500  177.9260  145.3810 C   0  0  2  0  0  3  0  0  0  0  0  0
  187.0810  176.0800  147.3480 F   0  0  0  0  0  0  0  0  0  0  0  0
  188.0640  178.0940  147.5890 F   0  0  0  0  0  0  0  0  0  0  0  0
  185.3180  178.6620  142.6230 N   0  0  0  0  0  2  0  0  0  0  0  0
  1 15  1  0  0  0  0
  2 11  1  1  0  0  0
  2  7  1  0  0  0  0
  2  3  1  0  0  0  0
  3  4  1  0  0  0  0
  4  6  1  0  0  0  0
  5  6  1  0  0  0  0
  7  1  1  6  0  0  0
  7  5  1  0  0  0  0
  8 13  1  0  0  0  0
  9 10  1  0  0  0  0
 10 14  2  0  0  0  0
 10  8  1  0  0  0  0
 11 12  1  0  0  0  0
 13 12  1  0  0  0  0
 14 11  1  0  0  0  0
 16 21  1  0  0  0  0
 17 19  1  6  0  0  0
 18 17  1  0  0  0  0
 18 25  1  0  0  0  0
 18 26  1  0  0  0  0
 20 23  1  6  0  0  0
 20 22  1  0  0  0  0
 20 24  1  0  0  0  0
 22 15  1  1  0  0  0
 22 18  1  0  0  0  0
 24 21  1  6  0  0  0
 24 17  1  0  0  0  0
 27 23  1  0  0  0  0
 27 16  1  0  0  0  0
M  END
>  <MODEL>
4

>  <REMARK>
 VINA RESULT:      -7.3      1.958      2.567
  Name = 
  4 active torsions:
  status: ('A' for Active; 'I' for Inactive)
    1  A    between atoms: O_7  and  C_22
    2  A    between atoms: O_7  and  C_25
    3  A    between atoms: C_9  and  N_12
    4  A    between atoms: C_17  and  C_25
                            x       y       z     vdW  Elec       q    Type
                         _______ _______ _______ _____ _____    ______ ____

>  <TORSDO>
F 4

$$$$
=
 OpenBabel11062421083D

 27 30  0  0  1  0  0  0  0  0999 V2000
  188.7600  177.4160  144.8290 O   0  0  0  0  0  0  0  0  0  0  0  0
  191.0330  176.5600  144.9540 C   0  0  2  0  0  3  0  0  0  0  0  0
  192.1740  176.3020  145.9530 C   0  0  0  0  0  2  0  0  0  0  0  0
  191.6820  175.7400  147.1470 O   0  0  0  0  0  0  0  0  0  0  0  0
  189.6090  176.9470  147.0220 C   0  0  0  0  0  2  0  0  0  0  0  0
  190.9170  176.7340  147.7830 C   0  0  0  0  0  2  0  0  0  0  0  0
  189.9260  177.4160  145.6030 C   0  0  2  0  0  3  0  0  0  0  0  0
  189.6410  173.0010  143.1360 N   0  0  0  0  0  2  0  0  0  0  0  0
  189.6610  174.1610  140.9530 N   0  0  0  0  0  1  0  0  0  0  0  0
  189.8960  174.1740  142.3550 C   0  0  0  0  0  0  0  0  0  0  0  0
  190.5230  175.3200  144.3670 N   0  0  0  0  0  0  0  0  0  0  0  0
  189.9510  174.2580  145.2040 C   0  0  0  0  0  2  0  0  0  0  0  0
  190.1080  172.9070  144.5160 C   0  0  0  0  0  2  0  0  0  0  0  0
  190.3420  175.2810  142.9450 C   0  0  0  0  0  3  0  0  0  0  0  0
  187.7430  177.0110  145.6960 C   0  0  0  0  0  2  0  0  0  0  0  0
  185.7250  177.5150  140.8040 C   0  0  0  0  0  2  0  0  0  0  0  0
  184.8700  178.9060  144.3280 C   0  0  1  0  0  3  0  0  0  0  0  0
  185.4430  178.1460  145.5390 C   0  0  0  0  0  0  0  0  0  0  0  0
  185.4700  180.1640  144.2050 O   0  0  0  0  0  1  0  0  0  0  0  0
  186.5910  177.4670  143.5260 C   0  0  1  0  0  3  0  0  0  0  0  0
  185.3220  178.6390  141.7710 C   0  0  0  0  0  2  0  0  0  0  0  0
  186.4040  177.0780  144.9710 C   0  0  1  0  0  3  0  0  0  0  0  0
  186.8930  176.3350  142.5590 C   0  0  0  0  0  2  0  0  0  0  0  0
  185.2530  178.0260  143.1570 C   0  0  2  0  0  3  0  0  0  0  0  0
  184.4130  177.5110  146.2060 F   0  0  0  0  0  0  0  0  0  0  0  0
  186.0790  179.0150  146.4140 F   0  0  0  0  0  0  0  0  0  0  0  0
  186.9950  176.8880  141.2030 N   0  0  0  0  0  2  0  0  0  0  0  0
  1 15  1  0  0  0  0
  2 11  1  1  0  0  0
  2  7  1  0  0  0  0
  2  3  1  0  0  0  0
  3  4  1  0  0  0  0
  4  6  1  0  0  0  0
  5  6  1  0  0  0  0
  7  1  1  6  0  0  0
  7  5  1  0  0  0  0
  8 13  1  0  0  0  0
  9 10  1  0  0  0  0
 10 14  2  0  0  0  0
 10  8  1  0  0  0  0
 11 12  1  0  0  0  0
 13 12  1  0  0  0  0
 14 11  1  0  0  0  0
 16 27  1  0  0  0  0
 16 21  1  0  0  0  0
 17 19  1  6  0  0  0
 17 18  1  0  0  0  0
 18 25  1  0  0  0  0
 18 26  1  0  0  0  0
 20 23  1  6  0  0  0
 20 22  1  0  0  0  0
 22 18  1  0  0  0  0
 22 15  1  1  0  0  0
 24 21  1  6  0  0  0
 24 20  1  0  0  0  0
 24 17  1  0  0  0  0
 27 23  1  0  0  0  0
M  END
>  <MODEL>
5

>  <REMARK>
 VINA RESULT:      -7.3      2.074      2.878
  Name = 
  4 active torsions:
  status: ('A' for Active; 'I' for Inactive)
    1  A    between atoms: O_7  and  C_22
    2  A    between atoms: O_7  and  C_25
    3  A    between atoms: C_9  and  N_12
    4  A    between atoms: C_17  and  C_25
                            x       y       z     vdW  Elec       q    Type
                         _______ _______ _______ _____ _____    ______ ____

>  <TORSDO>
F 4

$$$$
=
 OpenBabel11062421083D

 27 30  0  0  1  0  0  0  0  0999 V2000
  188.0860  175.8750  144.4000 O   0  0  0  0  0  0  0  0  0  0  0  0
  187.8210  177.7560  142.8810 C   0  0  2  0  0  3  0  0  0  0  0  0
  187.7670  178.1010  141.3840 C   0  0  0  0  0  2  0  0  0  0  0  0
  186.9930  177.1610  140.6760 O   0  0  0  0  0  0  0  0  0  0  0  0
  187.6480  175.3430  142.1040 C   0  0  0  0  0  2  0  0  0  0  0  0
  187.7010  175.9450  140.7000 C   0  0  0  0  0  2  0  0  0  0  0  0
  188.3080  176.3060  143.0880 C   0  0  2  0  0  3  0  0  0  0  0  0
  184.2160  178.6580  144.9070 N   0  0  0  0  0  2  0  0  0  0  0  0
  185.5360  179.1840  146.9290 N   0  0  0  0  0  1  0  0  0  0  0  0
  185.4810  178.7790  145.5680 C   0  0  0  0  0  0  0  0  0  0  0  0
  186.5510  178.0300  143.5560 N   0  0  0  0  0  0  0  0  0  0  0  0
  185.2730  177.5840  142.9880 C   0  0  0  0  0  2  0  0  0  0  0  0
  184.1440  178.4950  143.4580 C   0  0  0  0  0  2  0  0  0  0  0  0
  186.6030  178.4970  144.9100 C   0  0  0  0  0  3  0  0  0  0  0  0
  189.2750  175.2550  144.7900 C   0  0  0  0  0  2  0  0  0  0  0  0
  194.4090  176.4910  145.4000 C   0  0  0  0  0  2  0  0  0  0  0  0
  191.2760  176.3850  147.6940 C   0  0  1  0  0  3  0  0  0  0  0  0
  189.9010  176.4040  147.0020 C   0  0  0  0  0  0  0  0  0  0  0  0
  191.5070  175.1460  148.3020 O   0  0  0  0  0  1  0  0  0  0  0  0
  191.6210  175.8680  145.3950 C   0  0  1  0  0  3  0  0  0  0  0  0
  193.6830  176.1490  146.7100 C   0  0  0  0  0  2  0  0  0  0  0  0
  190.1710  176.2720  145.4870 C   0  0  1  0  0  3  0  0  0  0  0  0
  192.3590  176.2950  144.1370 C   0  0  0  0  0  2  0  0  0  0  0  0
  192.2420  176.5930  146.5460 C   0  0  2  0  0  3  0  0  0  0  0  0
  189.2860  177.6170  147.2430 F   0  0  0  0  0  0  0  0  0  0  0  0
  189.0900  175.3850  147.4820 F   0  0  0  0  0  0  0  0  0  0  0  0
  193.7580  175.8610  144.2410 N   0  0  0  0  0  2  0  0  0  0  0  0
  1 15  1  0  0  0  0
  2  3  1  6  0  0  0
  2  7  1  0  0  0  0
  2 11  1  0  0  0  0
  4  6  1  0  0  0  0
  4  3  1  0  0  0  0
  5  7  1  0  0  0  0
  6  5  1  0  0  0  0
  7  1  1  1  0  0  0
  8 10  1  0  0  0  0
 10  9  1  0  0  0  0
 11 14  1  0  0  0  0
 12 13  1  0  0  0  0
 12 11  1  0  0  0  0
 13  8  1  0  0  0  0
 14 10  2  0  0  0  0
 16 21  1  0  0  0  0
 17 19  1  6  0  0  0
 18 25  1  0  0  0  0
 18 26  1  0  0  0  0
 18 17  1  0  0  0  0
 20 23  1  6  0  0  0
 20 22  1  0  0  0  0
 20 24  1  0  0  0  0
 22 15  1  1  0  0  0
 22 18  1  0  0  0  0
 23 27  1  0  0  0  0
 24 21  1  1  0  0  0
 24 17  1  0  0  0  0
 27 16  1  0  0  0  0
M  END
>  <MODEL>
6

>  <REMARK>
 VINA RESULT:      -7.2      2.336      5.912
  Name = 
  4 active torsions:
  status: ('A' for Active; 'I' for Inactive)
    1  A    between atoms: O_7  and  C_22
    2  A    between atoms: O_7  and  C_25
    3  A    between atoms: C_9  and  N_12
    4  A    between atoms: C_17  and  C_25
                            x       y       z     vdW  Elec       q    Type
                         _______ _______ _______ _____ _____    ______ ____

>  <TORSDO>
F 4

$$$$
=
 OpenBabel11062421083D

 27 30  0  0  1  0  0  0  0  0999 V2000
  189.6340  177.0540  143.7960 O   0  0  0  0  0  0  0  0  0  0  0  0
  190.4940  175.0210  144.8170 C   0  0  2  0  0  3  0  0  0  0  0  0
  190.3470  173.4910  144.7720 C   0  0  0  0  0  2  0  0  0  0  0  0
  190.2670  173.0300  143.4430 O   0  0  0  0  0  0  0  0  0  0  0  0
  189.1090  174.9940  142.6880 C   0  0  0  0  0  2  0  0  0  0  0  0
  189.0420  173.4860  142.9240 C   0  0  0  0  0  2  0  0  0  0  0  0
  189.3620  175.7000  144.0190 C   0  0  2  0  0  3  0  0  0  0  0  0
  194.3940  176.2700  143.7470 N   0  0  0  0  0  2  0  0  0  0  0  0
  194.5920  177.3830  145.9450 N   0  0  0  0  0  1  0  0  0  0  0  0
  193.8400  176.6040  145.0250 C   0  0  0  0  0  0  0  0  0  0  0  0
  191.8270  175.4590  144.3980 N   0  0  0  0  0  0  0  0  0  0  0  0
  192.2410  175.4060  142.9910 C   0  0  0  0  0  2  0  0  0  0  0  0
  193.7560  175.2700  142.8960 C   0  0  0  0  0  2  0  0  0  0  0  0
  192.6140  176.1940  145.3450 C   0  0  0  0  0  3  0  0  0  0  0  0
  189.0920  177.7230  144.8960 C   0  0  0  0  0  2  0  0  0  0  0  0
  184.0800  178.5350  143.3190 C   0  0  0  0  0  2  0  0  0  0  0  0
  185.8620  177.8490  146.7020 C   0  0  1  0  0  3  0  0  0  0  0  0
  187.2700  177.2290  146.6390 C   0  0  0  0  0  0  0  0  0  0  0  0
  185.9210  179.1650  147.1750 O   0  0  0  0  0  1  0  0  0  0  0  0
  186.6590  178.0990  144.4720 C   0  0  1  0  0  3  0  0  0  0  0  0
  184.3190  178.7860  144.8160 C   0  0  0  0  0  2  0  0  0  0  0  0
  187.6770  177.2170  145.1490 C   0  0  1  0  0  3  0  0  0  0  0  0
  186.3560  177.7810  143.0170 C   0  0  0  0  0  2  0  0  0  0  0  0
  185.4130  177.8320  145.2560 C   0  0  2  0  0  3  0  0  0  0  0  0
  187.2150  175.9280  147.0990 F   0  0  0  0  0  0  0  0  0  0  0  0
  188.1630  177.9470  147.4230 F   0  0  0  0  0  0  0  0  0  0  0  0
  185.3170  178.7020  142.5390 N   0  0  0  0  0  2  0  0  0  0  0  0
  1 15  1  0  0  0  0
  2 11  1  6  0  0  0
  3  2  1  0  0  0  0
  4  3  1  0  0  0  0
  5  6  1  0  0  0  0
  5  7  1  0  0  0  0
  6  4  1  0  0  0  0
  7  1  1  6  0  0  0
  7  2  1  0  0  0  0
  8 10  1  0  0  0  0
 10 14  2  0  0  0  0
 10  9  1  0  0  0  0
 11 14  1  0  0  0  0
 12 11  1  0  0  0  0
 13 12  1  0  0  0  0
 13  8  1  0  0  0  0
 16 21  1  0  0  0  0
 17 19  1  6  0  0  0
 18 17  1  0  0  0  0
 18 25  1  0  0  0  0
 18 26  1  0  0  0  0
 20 23  1  6  0  0  0
 20 22  1  0  0  0  0
 20 24  1  0  0  0  0
 22 15  1  1  0  0  0
 22 18  1  0  0  0  0
 24 21  1  1  0  0  0
 24 17  1  0  0  0  0
 27 23  1  0  0  0  0
 27 16  1  0  0  0  0
M  END
>  <MODEL>
7

>  <REMARK>
 VINA RESULT:      -7.1      2.274      3.769
  Name = 
  4 active torsions:
  status: ('A' for Active; 'I' for Inactive)
    1  A    between atoms: O_7  and  C_22
    2  A    between atoms: O_7  and  C_25
    3  A    between atoms: C_9  and  N_12
    4  A    between atoms: C_17  and  C_25
                            x       y       z     vdW  Elec       q    Type
                         _______ _______ _______ _____ _____    ______ ____

>  <TORSDO>
F 4

$$$$
=
 OpenBabel11062421083D

 27 30  0  0  1  0  0  0  0  0999 V2000
  187.8870  175.8790  142.1240 O   0  0  0  0  0  0  0  0  0  0  0  0
  188.8980  173.8080  142.9010 C   0  0  2  0  0  3  0  0  0  0  0  0
  189.2690  172.3930  142.4280 C   0  0  0  0  0  2  0  0  0  0  0  0
  189.8430  172.4250  141.1410 O   0  0  0  0  0  0  0  0  0  0  0  0
  188.4950  174.2860  140.4390 C   0  0  0  0  0  2  0  0  0  0  0  0
  188.8240  172.8060  140.2480 C   0  0  0  0  0  2  0  0  0  0  0  0
  187.9950  174.5090  141.8650 C   0  0  2  0  0  3  0  0  0  0  0  0
  192.2930  176.0520  144.0630 N   0  0  0  0  0  2  0  0  0  0  0  0
  191.1540  176.5910  146.1890 N   0  0  0  0  0  1  0  0  0  0  0  0
  191.1590  175.9330  144.9300 C   0  0  0  0  0  0  0  0  0  0  0  0
  190.0780  174.5990  143.2540 N   0  0  0  0  0  0  0  0  0  0  0  0
  191.0670  174.9890  142.2420 C   0  0  0  0  0  2  0  0  0  0  0  0
  192.4300  175.1920  142.8920 C   0  0  0  0  0  2  0  0  0  0  0  0
  190.1040  175.2150  144.5490 C   0  0  0  0  0  3  0  0  0  0  0  0
  186.7530  176.0150  142.9260 C   0  0  0  0  0  2  0  0  0  0  0  0
  185.9070  178.1950  147.7010 C   0  0  0  0  0  2  0  0  0  0  0  0
  185.1440  179.1670  144.0180 C   0  0  1  0  0  3  0  0  0  0  0  0
  185.9650  178.4610  142.9230 C   0  0  0  0  0  0  0  0  0  0  0  0
  183.8060  178.7630  143.9710 O   0  0  0  0  0  1  0  0  0  0  0  0
  186.1880  177.2710  145.0110 C   0  0  1  0  0  3  0  0  0  0  0  0
  184.9960  178.7390  146.5890 C   0  0  0  0  0  2  0  0  0  0  0  0
  186.7910  177.3650  143.6320 C   0  0  1  0  0  3  0  0  0  0  0  0
  187.1230  176.8250  146.1240 C   0  0  0  0  0  2  0  0  0  0  0  0
  185.7920  178.6840  145.2980 C   0  0  2  0  0  3  0  0  0  0  0  0
  186.8310  179.3700  142.3450 F   0  0  0  0  0  0  0  0  0  0  0  0
  185.1360  177.9410  141.9390 F   0  0  0  0  0  0  0  0  0  0  0  0
  186.3840  176.8370  147.3930 N   0  0  0  0  0  2  0  0  0  0  0  0
  1 15  1  0  0  0  0
  2  3  1  6  0  0  0
  2 11  1  0  0  0  0
  4  3  1  0  0  0  0
  5  7  1  0  0  0  0
  6  5  1  0  0  0  0
  6  4  1  0  0  0  0
  7  1  1  1  0  0  0
  7  2  1  0  0  0  0
  8 10  1  0  0  0  0
 10  9  1  0  0  0  0
 11 14  1  0  0  0  0
 12 13  1  0  0  0  0
 12 11  1  0  0  0  0
 13  8  1  0  0  0  0
 14 10  2  0  0  0  0
 17 19  1  1  0  0  0
 17 24  1  0  0  0  0
 18 22  1  0  0  0  0
 18 17  1  0  0  0  0
 20 24  1  0  0  0  0
 20 23  1  1  0  0  0
 21 16  1  0  0  0  0
 22 15  1  6  0  0  0
 22 20  1  0  0  0  0
 23 27  1  0  0  0  0
 24 21  1  1  0  0  0
 25 18  1  0  0  0  0
 26 18  1  0  0  0  0
 27 16  1  0  0  0  0
M  END
>  <MODEL>
8

>  <REMARK>
 VINA RESULT:      -7.1      3.014      4.553
  Name = 
  4 active torsions:
  status: ('A' for Active; 'I' for Inactive)
    1  A    between atoms: O_7  and  C_22
    2  A    between atoms: O_7  and  C_25
    3  A    between atoms: C_9  and  N_12
    4  A    between atoms: C_17  and  C_25
                            x       y       z     vdW  Elec       q    Type
                         _______ _______ _______ _____ _____    ______ ____

>  <TORSDO>
F 4

$$$$
=
 OpenBabel11062421083D

 27 30  0  0  1  0  0  0  0  0999 V2000
  189.9270  175.6970  143.9430 O   0  0  0  0  0  0  0  0  0  0  0  0
  191.2660  176.3690  145.8590 C   0  0  2  0  0  3  0  0  0  0  0  0
  191.2750  176.3400  147.3960 C   0  0  0  0  0  2  0  0  0  0  0  0
  190.8470  175.0880  147.8800 O   0  0  0  0  0  0  0  0  0  0  0  0
  189.3130  174.7570  146.0610 C   0  0  0  0  0  2  0  0  0  0  0  0
  189.4810  174.9720  147.5650 C   0  0  0  0  0  2  0  0  0  0  0  0
  189.8800  175.9630  145.3150 C   0  0  2  0  0  3  0  0  0  0  0  0
  194.5060  174.1960  144.2190 N   0  0  0  0  0  2  0  0  0  0  0  0
  195.2990  176.2760  143.1450 N   0  0  0  0  0  1  0  0  0  0  0  0
  194.3610  175.5990  143.9700 C   0  0  0  0  0  0  0  0  0  0  0  0
  192.3550  175.5770  145.2860 N   0  0  0  0  0  0  0  0  0  0  0  0
  192.3040  174.1100  145.2650 C   0  0  0  0  0  2  0  0  0  0  0  0
  193.7160  173.5370  145.2540 C   0  0  0  0  0  2  0  0  0  0  0  0
  193.3390  176.2660  144.5020 C   0  0  0  0  0  3  0  0  0  0  0  0
  188.5940  175.6660  143.5280 C   0  0  0  0  0  2  0  0  0  0  0  0
  184.4310  178.5720  145.1060 C   0  0  0  0  0  2  0  0  0  0  0  0
  186.5920  178.3150  141.8890 C   0  0  1  0  0  3  0  0  0  0  0  0
  187.9780  177.6580  142.0260 C   0  0  0  0  0  0  0  0  0  0  0  0
  185.7360  177.5110  141.1280 O   0  0  0  0  0  1  0  0  0  0  0  0
  186.6330  177.1510  143.9660 C   0  0  1  0  0  3  0  0  0  0  0  0
  184.6140  178.5080  143.5820 C   0  0  0  0  0  2  0  0  0  0  0  0
  188.0520  177.0880  143.4600 C   0  0  1  0  0  3  0  0  0  0  0  0
  186.4620  177.3130  145.4680 C   0  0  0  0  0  2  0  0  0  0  0  0
  186.1040  178.3920  143.3200 C   0  0  2  0  0  3  0  0  0  0  0  0
  188.9560  178.6220  141.8760 F   0  0  0  0  0  0  0  0  0  0  0  0
  188.1590  176.6770  141.0610 F   0  0  0  0  0  0  0  0  0  0  0  0
  185.0280  177.4020  145.7710 N   0  0  0  0  0  2  0  0  0  0  0  0
  2 11  1  6  0  0  0
  2  3  1  0  0  0  0
  3  4  1  0  0  0  0
  5  6  1  0  0  0  0
  6  4  1  0  0  0  0
  7  1  1  6  0  0  0
  7  2  1  0  0  0  0
  7  5  1  0  0  0  0
  8 13  1  0  0  0  0
  9 10  1  0  0  0  0
 10  8  1  0  0  0  0
 10 14  2  0  0  0  0
 12 11  1  0  0  0  0
 13 12  1  0  0  0  0
 14 11  1  0  0  0  0
 15  1  1  0  0  0  0
 16 27  1  0  0  0  0
 17 19  1  6  0  0  0
 17 18  1  0  0  0  0
 17 24  1  0  0  0  0
 18 22  1  0  0  0  0
 20 23  1  1  0  0  0
 21 16  1  0  0  0  0
 22 15  1  6  0  0  0
 22 20  1  0  0  0  0
 23 27  1  0  0  0  0
 24 21  1  6  0  0  0
 24 20  1  0  0  0  0
 25 18  1  0  0  0  0
 26 18  1  0  0  0  0
M  END
>  <MODEL>
9

>  <REMARK>
 VINA RESULT:      -7.0      3.293      4.868
  Name = 
  4 active torsions:
  status: ('A' for Active; 'I' for Inactive)
    1  A    between atoms: O_7  and  C_22
    2  A    between atoms: O_7  and  C_25
    3  A    between atoms: C_9  and  N_12
    4  A    between atoms: C_17  and  C_25
                            x       y       z     vdW  Elec       q    Type
                         _______ _______ _______ _____ _____    ______ ____

>  <TORSDO>
F 4

$$$$
