=
 OpenBabel11062421273D

 31 35  0  0  1  0  0  0  0  0999 V2000
  189.9770  177.4200  147.1990 C   0  0  0  0  0  3  0  0  0  0  0  0
  190.5090  174.4070  144.9370 C   0  0  0  0  0  0  0  0  0  0  0  0
  192.6720  173.8660  145.1140 C   0  0  1  0  0  3  0  0  0  0  0  0
  188.4910  175.6260  145.6660 C   0  0  0  0  0  3  0  0  0  0  0  0
  190.6370  176.3950  146.5100 C   0  0  0  0  0  0  0  0  0  0  0  0
  192.9310  176.4710  145.4830 C   0  0  0  0  0  2  0  0  0  0  0  0
  192.1090  176.2420  146.7480 C   0  0  0  0  0  2  0  0  0  0  0  0
  190.4340  172.0960  144.0310 C   0  0  2  0  0  3  0  0  0  0  0  0
  187.8440  176.6550  146.3520 C   0  0  0  0  0  0  0  0  0  0  0  0
  189.8840  175.4870  145.7240 C   0  0  0  0  0  0  0  0  0  0  0  0
  192.9760  172.6610  144.3790 N   0  0  0  0  0  2  0  0  0  0  0  0
  192.2260  170.4850  144.0770 O   0  0  0  0  0  0  0  0  0  0  0  0
  193.0640  175.2230  144.6080 C   0  0  1  0  0  0  0  0  0  0  0  0
  194.0230  175.2450  143.5970 O   0  0  0  0  0  1  0  0  0  0  0  0
  189.9700  173.2150  144.8970 N   0  0  0  0  0  0  0  0  0  0  0  0
  191.7510  174.6260  144.1570 C   0  0  2  0  0  3  0  0  0  0  0  0
  191.9170  171.6990  144.2030 C   0  0  0  0  0  0  0  0  0  0  0  0
  188.5900  177.5550  147.1170 C   0  0  0  0  0  3  0  0  0  0  0  0
  190.0950  172.3290  142.6130 N   0  0  0  0  0  0  0  0  0  0  0  0
  190.4130  171.1100  141.8770 C   0  0  0  0  0  1  0  0  0  0  0  0
  188.2970  172.9310  141.0570 C   0  0  0  0  0  2  0  0  0  0  0  0
  188.3440  173.9640  142.1540 C   0  0  0  0  0  2  0  0  0  0  0  0
  188.6480  172.5120  142.4780 C   0  0  0  0  0  3  0  0  0  0  0  0
  186.3600  176.7720  146.2820 C   0  0  0  0  0  2  0  0  0  0  0  0
  185.9680  177.9390  145.3980 C   0  0  0  0  0  2  0  0  0  0  0  0
  184.6050  177.8580  145.1060 O   0  0  0  0  0  0  0  0  0  0  0  0
  185.4550  179.8640  144.1440 C   0  0  0  0  0  1  0  0  0  0  0  0
  184.3980  178.7740  144.0720 C   0  0  1  0  0  3  0  0  0  0  0  0
  183.2030  178.2050  142.0610 O   0  0  0  0  0  1  0  0  0  0  0  0
  184.4260  178.0530  142.7220 C   0  0  0  0  0  3  0  0  0  0  0  0
  185.4600  178.5460  141.9220 O   0  0  0  0  0  1  0  0  0  0  0  0
  2 10  1  0  0  0  0
  3 11  1  6  0  0  0
  4 10  2  0  0  0  0
  4  9  1  0  0  0  0
  5  7  1  0  0  0  0
  5  1  2  0  0  0  0
  6  7  1  0  0  0  0
  8 19  1  6  0  0  0
  8 17  1  0  0  0  0
  8 15  1  0  0  0  0
  9 18  2  0  0  0  0
 10  5  1  0  0  0  0
 12 17  2  0  0  0  0
 13 14  1  6  0  0  0
 13  3  1  0  0  0  0
 13  6  1  0  0  0  0
 15  2  2  0  0  0  0
 16 13  1  0  0  0  0
 16  2  1  1  0  0  0
 16  3  1  0  0  0  0
 17 11  1  0  0  0  0
 18  1  1  0  0  0  0
 20 19  1  0  0  0  0
 21 22  1  0  0  0  0
 21 23  1  0  0  0  0
 22 23  1  0  0  0  0
 23 19  1  0  0  0  0
 24  9  1  0  0  0  0
 25 24  1  0  0  0  0
 26 25  1  0  0  0  0
 28 27  1  6  0  0  0
 28 26  1  0  0  0  0
 29 30  1  0  0  0  0
 30 28  1  0  0  0  0
 31 30  1  0  0  0  0
M  END
>  <MODEL>
1

>  <REMARK>
 VINA RESULT:      -7.2      0.000      0.000
  Name = 
  7 active torsions:
  status: ('A' for Active; 'I' for Inactive)
    1  A    between atoms: C_2  and  C_15
    2  A    between atoms: C_2  and  C_17
    3  A    between atoms: C_11  and  C_12
    4  A    between atoms: C_12  and  O_31
    5  A    between atoms: C_15  and  O_31
    6  A    between atoms: C_16  and  N_19
    7  A    between atoms: N_19  and  C_25
                            x       y       z     vdW  Elec       q    Type
                         _______ _______ _______ _____ _____    ______ ____

>  <TORSDO>
F 7

$$$$
=
 OpenBabel11062421273D

 31 35  0  0  1  0  0  0  0  0999 V2000
  190.2180  177.1440  147.1740 C   0  0  0  0  0  3  0  0  0  0  0  0
  191.2860  174.2100  145.0000 C   0  0  0  0  0  0  0  0  0  0  0  0
  193.3780  173.7080  145.6100 C   0  0  1  0  0  3  0  0  0  0  0  0
  189.1300  175.3660  145.3220 C   0  0  0  0  0  3  0  0  0  0  0  0
  191.0330  176.1530  146.6130 C   0  0  0  0  0  0  0  0  0  0  0  0
  193.4880  176.3050  146.0880 C   0  0  0  0  0  2  0  0  0  0  0  0
  192.4280  176.0230  147.1480 C   0  0  0  0  0  2  0  0  0  0  0  0
  191.4600  171.9250  144.0420 C   0  0  2  0  0  3  0  0  0  0  0  0
  188.3280  176.3620  145.8830 C   0  0  0  0  0  0  0  0  0  0  0  0
  190.4830  175.2540  145.6650 C   0  0  0  0  0  0  0  0  0  0  0  0
  193.8580  172.5310  144.9260 N   0  0  0  0  0  2  0  0  0  0  0  0
  193.2440  170.3500  144.4200 O   0  0  0  0  0  0  0  0  0  0  0  0
  193.8310  175.0870  145.2300 C   0  0  1  0  0  0  0  0  0  0  0  0
  194.9790  175.1570  144.4420 O   0  0  0  0  0  1  0  0  0  0  0  0
  190.7980  173.0090  144.8190 N   0  0  0  0  0  0  0  0  0  0  0  0
  192.6560  174.4770  144.5010 C   0  0  2  0  0  3  0  0  0  0  0  0
  192.8840  171.5530  144.5090 C   0  0  0  0  0  0  0  0  0  0  0  0
  188.8760  177.2540  146.8090 C   0  0  0  0  0  3  0  0  0  0  0  0
  191.4170  172.1930  142.5910 N   0  0  0  0  0  0  0  0  0  0  0  0
  192.5980  171.5790  141.9940 C   0  0  0  0  0  1  0  0  0  0  0  0
  189.5560  172.4190  141.0090 C   0  0  0  0  0  2  0  0  0  0  0  0
  188.9850  172.2230  142.3900 C   0  0  0  0  0  2  0  0  0  0  0  0
  190.2660  171.5060  141.9990 C   0  0  0  0  0  3  0  0  0  0  0  0
  186.8890  176.4510  145.5090 C   0  0  0  0  0  2  0  0  0  0  0  0
  186.0740  176.9610  146.6810 C   0  0  0  0  0  2  0  0  0  0  0  0
  184.7520  177.1550  146.2740 O   0  0  0  0  0  0  0  0  0  0  0  0
  185.5970  179.1260  147.3080 C   0  0  0  0  0  1  0  0  0  0  0  0
  184.5230  178.5240  146.4160 C   0  0  1  0  0  3  0  0  0  0  0  0
  185.7260  179.8040  144.7690 O   0  0  0  0  0  1  0  0  0  0  0  0
  184.4960  179.1960  145.0410 C   0  0  0  0  0  3  0  0  0  0  0  0
  184.1980  178.2650  144.0430 O   0  0  0  0  0  1  0  0  0  0  0  0
  2 10  1  0  0  0  0
  3 11  1  6  0  0  0
  4 10  2  0  0  0  0
  4  9  1  0  0  0  0
  5  7  1  0  0  0  0
  5  1  2  0  0  0  0
  6  7  1  0  0  0  0
  8 19  1  6  0  0  0
  8 17  1  0  0  0  0
  8 15  1  0  0  0  0
  9 18  2  0  0  0  0
 10  5  1  0  0  0  0
 12 17  2  0  0  0  0
 13 14  1  6  0  0  0
 13  3  1  0  0  0  0
 13  6  1  0  0  0  0
 15  2  2  0  0  0  0
 16  2  1  1  0  0  0
 16 13  1  0  0  0  0
 16  3  1  0  0  0  0
 17 11  1  0  0  0  0
 18  1  1  0  0  0  0
 20 19  1  0  0  0  0
 21 23  1  0  0  0  0
 21 22  1  0  0  0  0
 23 22  1  0  0  0  0
 23 19  1  0  0  0  0
 24  9  1  0  0  0  0
 24 25  1  0  0  0  0
 26 28  1  0  0  0  0
 26 25  1  0  0  0  0
 28 27  1  1  0  0  0
 29 30  1  0  0  0  0
 30 28  1  0  0  0  0
 31 30  1  0  0  0  0
M  END
>  <MODEL>
2

>  <REMARK>
 VINA RESULT:      -7.1      1.208      1.607
  Name = 
  7 active torsions:
  status: ('A' for Active; 'I' for Inactive)
    1  A    between atoms: C_2  and  C_15
    2  A    between atoms: C_2  and  C_17
    3  A    between atoms: C_11  and  C_12
    4  A    between atoms: C_12  and  O_31
    5  A    between atoms: C_15  and  O_31
    6  A    between atoms: C_16  and  N_19
    7  A    between atoms: N_19  and  C_25
                            x       y       z     vdW  Elec       q    Type
                         _______ _______ _______ _____ _____    ______ ____

>  <TORSDO>
F 7

$$$$
=
 OpenBabel11062421273D

 31 35  0  0  1  0  0  0  0  0999 V2000
  186.7460  176.3650  141.6490 C   0  0  0  0  0  3  0  0  0  0  0  0
  190.0600  176.0250  143.4860 C   0  0  0  0  0  0  0  0  0  0  0  0
  191.2990  174.6040  142.2830 C   0  0  1  0  0  3  0  0  0  0  0  0
  188.1080  177.5010  143.8000 C   0  0  0  0  0  3  0  0  0  0  0  0
  188.0310  175.9090  141.9650 C   0  0  0  0  0  0  0  0  0  0  0  0
  188.9320  173.5750  141.7120 C   0  0  0  0  0  2  0  0  0  0  0  0
  188.6580  174.9140  141.0350 C   0  0  0  0  0  2  0  0  0  0  0  0
  192.3040  176.5410  144.4170 C   0  0  2  0  0  3  0  0  0  0  0  0
  186.8240  177.9450  143.4790 C   0  0  0  0  0  0  0  0  0  0  0  0
  188.7210  176.4790  143.0640 C   0  0  0  0  0  0  0  0  0  0  0  0
  192.6310  174.4770  142.8250 N   0  0  0  0  0  2  0  0  0  0  0  0
  194.4180  175.7620  143.5630 O   0  0  0  0  0  0  0  0  0  0  0  0
  190.2640  173.5320  142.4630 C   0  0  1  0  0  0  0  0  0  0  0  0
  190.7400  172.2840  142.8610 O   0  0  0  0  0  1  0  0  0  0  0  0
  190.9750  176.8900  143.8450 N   0  0  0  0  0  0  0  0  0  0  0  0
  190.4180  174.5870  143.5340 C   0  0  2  0  0  3  0  0  0  0  0  0
  193.1690  175.6000  143.5500 C   0  0  0  0  0  0  0  0  0  0  0  0
  186.1410  177.3730  142.4020 C   0  0  0  0  0  3  0  0  0  0  0  0
  192.1860  176.0460  145.8030 N   0  0  0  0  0  0  0  0  0  0  0  0
  193.3780  176.4740  146.5280 C   0  0  0  0  0  1  0  0  0  0  0  0
  191.0680  176.4040  147.9570 C   0  0  0  0  0  2  0  0  0  0  0  0
  190.1240  175.6580  147.0490 C   0  0  0  0  0  2  0  0  0  0  0  0
  191.0570  176.7050  146.4650 C   0  0  0  0  0  3  0  0  0  0  0  0
  186.2000  179.0420  144.2710 C   0  0  0  0  0  2  0  0  0  0  0  0
  184.9570  178.5370  144.9750 C   0  0  0  0  0  2  0  0  0  0  0  0
  184.8450  179.1630  146.2190 O   0  0  0  0  0  0  0  0  0  0  0  0
  185.0430  176.8010  146.4440 C   0  0  0  0  0  1  0  0  0  0  0  0
  185.0110  178.1430  147.1570 C   0  0  1  0  0  3  0  0  0  0  0  0
  187.3950  177.8440  147.2990 O   0  0  0  0  0  1  0  0  0  0  0  0
  186.2880  178.3780  147.9660 C   0  0  0  0  0  3  0  0  0  0  0  0
  186.4850  179.7420  148.1910 O   0  0  0  0  0  1  0  0  0  0  0  0
  1  5  2  0  0  0  0
  1 18  1  0  0  0  0
  2 15  2  0  0  0  0
  3 13  1  0  0  0  0
  3 11  1  1  0  0  0
  3 16  1  0  0  0  0
  5 10  1  0  0  0  0
  6 13  1  0  0  0  0
  7  6  1  0  0  0  0
  7  5  1  0  0  0  0
  8 19  1  1  0  0  0
  9  4  1  0  0  0  0
  9 24  1  0  0  0  0
 10  2  1  0  0  0  0
 10  4  2  0  0  0  0
 11 17  1  0  0  0  0
 13 14  1  1  0  0  0
 13 16  1  0  0  0  0
 15  8  1  0  0  0  0
 16  2  1  6  0  0  0
 17 12  2  0  0  0  0
 17  8  1  0  0  0  0
 18  9  2  0  0  0  0
 19 23  1  0  0  0  0
 19 20  1  0  0  0  0
 22 21  1  0  0  0  0
 23 22  1  0  0  0  0
 23 21  1  0  0  0  0
 24 25  1  0  0  0  0
 25 26  1  0  0  0  0
 26 28  1  0  0  0  0
 28 27  1  6  0  0  0
 28 30  1  0  0  0  0
 29 30  1  0  0  0  0
 30 31  1  0  0  0  0
M  END
>  <MODEL>
3

>  <REMARK>
 VINA RESULT:      -7.1      2.190      4.885
  Name = 
  7 active torsions:
  status: ('A' for Active; 'I' for Inactive)
    1  A    between atoms: C_2  and  C_15
    2  A    between atoms: C_2  and  C_17
    3  A    between atoms: C_11  and  C_12
    4  A    between atoms: C_12  and  O_31
    5  A    between atoms: C_15  and  O_31
    6  A    between atoms: C_16  and  N_19
    7  A    between atoms: N_19  and  C_25
                            x       y       z     vdW  Elec       q    Type
                         _______ _______ _______ _____ _____    ______ ____

>  <TORSDO>
F 7

$$$$
=
 OpenBabel11062421273D

 31 35  0  0  1  0  0  0  0  0999 V2000
  190.8540  176.5230  147.7280 C   0  0  0  0  0  3  0  0  0  0  0  0
  189.2140  176.2040  144.3100 C   0  0  0  0  0  0  0  0  0  0  0  0
  187.5130  177.6550  144.2940 C   0  0  1  0  0  3  0  0  0  0  0  0
  191.2810  175.2650  145.2770 C   0  0  0  0  0  3  0  0  0  0  0  0
  189.9410  176.7230  146.6870 C   0  0  0  0  0  0  0  0  0  0  0  0
  187.4580  177.0810  146.8740 C   0  0  0  0  0  2  0  0  0  0  0  0
  188.8430  177.7190  146.9130 C   0  0  0  0  0  2  0  0  0  0  0  0
  188.8160  176.3480  141.8630 C   0  0  2  0  0  3  0  0  0  0  0  0
  192.1820  175.0690  146.3250 C   0  0  0  0  0  0  0  0  0  0  0  0
  190.1520  176.0770  145.4420 C   0  0  0  0  0  0  0  0  0  0  0  0
  186.8750  177.7050  143.0000 N   0  0  0  0  0  2  0  0  0  0  0  0
  187.3690  177.9160  140.7420 O   0  0  0  0  0  0  0  0  0  0  0  0
  186.8860  176.9500  145.4610 C   0  0  1  0  0  0  0  0  0  0  0  0
  185.5290  176.6570  145.3400 O   0  0  0  0  0  1  0  0  0  0  0  0
  189.6610  176.3500  143.0890 N   0  0  0  0  0  0  0  0  0  0  0  0
  187.7450  176.1570  144.5030 C   0  0  2  0  0  3  0  0  0  0  0  0
  187.6780  177.3920  141.8450 C   0  0  0  0  0  0  0  0  0  0  0  0
  191.9660  175.6970  147.5540 C   0  0  0  0  0  3  0  0  0  0  0  0
  188.3160  174.9950  141.5500 N   0  0  0  0  0  0  0  0  0  0  0  0
  187.9290  174.9820  140.1420 C   0  0  0  0  0  1  0  0  0  0  0  0
  188.9250  172.6310  141.3080 C   0  0  0  0  0  2  0  0  0  0  0  0
  189.0790  173.0170  142.7580 C   0  0  0  0  0  2  0  0  0  0  0  0
  189.4100  174.0270  141.6730 C   0  0  0  0  0  3  0  0  0  0  0  0
  193.3820  174.2090  146.1180 C   0  0  0  0  0  2  0  0  0  0  0  0
  194.0130  174.5050  144.7730 C   0  0  0  0  0  2  0  0  0  0  0  0
  195.2540  175.1140  144.9690 O   0  0  0  0  0  0  0  0  0  0  0  0
  194.9410  177.4350  145.3990 C   0  0  0  0  0  1  0  0  0  0  0  0
  195.1530  176.3590  144.3470 C   0  0  1  0  0  3  0  0  0  0  0  0
  197.3250  175.5850  143.6540 O   0  0  0  0  0  1  0  0  0  0  0  0
  196.4070  176.6300  143.5130 C   0  0  0  0  0  3  0  0  0  0  0  0
  196.0780  176.7910  142.1640 O   0  0  0  0  0  1  0  0  0  0  0  0
  2 10  1  0  0  0  0
  3 11  1  6  0  0  0
  3 16  1  0  0  0  0
  3 13  1  0  0  0  0
  4 10  2  0  0  0  0
  4  9  1  0  0  0  0
  5  7  1  0  0  0  0
  5  1  2  0  0  0  0
  6  7  1  0  0  0  0
  8 19  1  1  0  0  0
  8 15  1  0  0  0  0
  9 18  2  0  0  0  0
 10  5  1  0  0  0  0
 12 17  2  0  0  0  0
 13 14  1  6  0  0  0
 13  6  1  0  0  0  0
 15  2  2  0  0  0  0
 16  2  1  1  0  0  0
 16 13  1  0  0  0  0
 17  8  1  0  0  0  0
 17 11  1  0  0  0  0
 18  1  1  0  0  0  0
 19 23  1  0  0  0  0
 20 19  1  0  0  0  0
 21 23  1  0  0  0  0
 21 22  1  0  0  0  0
 23 22  1  0  0  0  0
 24  9  1  0  0  0  0
 25 26  1  0  0  0  0
 25 24  1  0  0  0  0
 28 26  1  0  0  0  0
 28 27  1  1  0  0  0
 30 29  1  0  0  0  0
 30 28  1  0  0  0  0
 31 30  1  0  0  0  0
M  END
>  <MODEL>
4

>  <REMARK>
 VINA RESULT:      -6.9      2.447      6.982
  Name = 
  7 active torsions:
  status: ('A' for Active; 'I' for Inactive)
    1  A    between atoms: C_2  and  C_15
    2  A    between atoms: C_2  and  C_17
    3  A    between atoms: C_11  and  C_12
    4  A    between atoms: C_12  and  O_31
    5  A    between atoms: C_15  and  O_31
    6  A    between atoms: C_16  and  N_19
    7  A    between atoms: N_19  and  C_25
                            x       y       z     vdW  Elec       q    Type
                         _______ _______ _______ _____ _____    ______ ____

>  <TORSDO>
F 7

$$$$
=
 OpenBabel11062421273D

 31 35  0  0  1  0  0  0  0  0999 V2000
  194.0930  176.1730  146.3930 C   0  0  0  0  0  3  0  0  0  0  0  0
  190.5730  176.3090  144.9550 C   0  0  0  0  0  0  0  0  0  0  0  0
  189.2030  176.6670  146.6870 C   0  0  1  0  0  3  0  0  0  0  0  0
  192.8090  176.2110  143.9180 C   0  0  0  0  0  3  0  0  0  0  0  0
  192.6960  176.2550  146.3460 C   0  0  0  0  0  0  0  0  0  0  0  0
  191.0490  175.2860  147.9810 C   0  0  0  0  0  2  0  0  0  0  0  0
  191.9720  176.4530  147.6440 C   0  0  0  0  0  2  0  0  0  0  0  0
  188.5530  177.0800  143.7340 C   0  0  2  0  0  3  0  0  0  0  0  0
  194.2010  176.1230  143.9770 C   0  0  0  0  0  0  0  0  0  0  0  0
  192.0420  176.2660  145.0880 C   0  0  0  0  0  0  0  0  0  0  0  0
  187.8390  176.8480  146.2510 N   0  0  0  0  0  2  0  0  0  0  0  0
  186.5700  178.0350  144.7130 O   0  0  0  0  0  0  0  0  0  0  0  0
  189.6680  175.3950  147.3320 C   0  0  1  0  0  0  0  0  0  0  0  0
  188.6670  174.5480  147.8040 O   0  0  0  0  0  1  0  0  0  0  0  0
  190.0080  177.0630  144.0470 N   0  0  0  0  0  0  0  0  0  0  0  0
  189.6860  175.4990  145.8240 C   0  0  2  0  0  3  0  0  0  0  0  0
  187.6230  177.3810  144.9290 C   0  0  0  0  0  0  0  0  0  0  0  0
  194.8430  176.1010  145.2180 C   0  0  0  0  0  3  0  0  0  0  0  0
  188.1380  175.8560  143.0180 N   0  0  0  0  0  0  0  0  0  0  0  0
  186.7500  176.0360  142.6050 C   0  0  0  0  0  1  0  0  0  0  0  0
  188.5730  174.4180  141.0800 C   0  0  0  0  0  2  0  0  0  0  0  0
  189.8440  174.5330  141.8820 C   0  0  0  0  0  2  0  0  0  0  0  0
  188.9110  175.7270  141.7800 C   0  0  0  0  0  3  0  0  0  0  0  0
  194.9940  176.0780  142.7170 C   0  0  0  0  0  2  0  0  0  0  0  0
  195.7540  174.7700  142.6220 C   0  0  0  0  0  2  0  0  0  0  0  0
  194.8580  173.7060  142.7540 O   0  0  0  0  0  0  0  0  0  0  0  0
  197.0240  173.1470  143.5700 C   0  0  0  0  0  1  0  0  0  0  0  0
  195.5940  172.6810  143.3490 C   0  0  1  0  0  3  0  0  0  0  0  0
  195.6740  172.7220  145.7550 O   0  0  0  0  0  1  0  0  0  0  0  0
  194.9340  172.2580  144.6640 C   0  0  0  0  0  3  0  0  0  0  0  0
  193.6260  172.7460  144.7380 O   0  0  0  0  0  1  0  0  0  0  0  0
  2 10  1  0  0  0  0
  3 11  1  6  0  0  0
  3 13  1  0  0  0  0
  4  9  2  0  0  0  0
  4 10  1  0  0  0  0
  5  1  1  0  0  0  0
  5  7  1  0  0  0  0
  7  6  1  0  0  0  0
  8 19  1  1  0  0  0
  8 15  1  0  0  0  0
  8 17  1  0  0  0  0
  9 18  1  0  0  0  0
 10  5  2  0  0  0  0
 12 17  2  0  0  0  0
 13 14  1  1  0  0  0
 13  6  1  0  0  0  0
 15  2  2  0  0  0  0
 16  2  1  1  0  0  0
 16  3  1  0  0  0  0
 16 13  1  0  0  0  0
 17 11  1  0  0  0  0
 18  1  2  0  0  0  0
 20 19  1  0  0  0  0
 21 23  1  0  0  0  0
 21 22  1  0  0  0  0
 23 22  1  0  0  0  0
 23 19  1  0  0  0  0
 24  9  1  0  0  0  0
 25 24  1  0  0  0  0
 25 26  1  0  0  0  0
 26 28  1  0  0  0  0
 28 27  1  1  0  0  0
 28 30  1  0  0  0  0
 30 31  1  0  0  0  0
 30 29  1  0  0  0  0
M  END
>  <MODEL>
5

>  <REMARK>
 VINA RESULT:      -6.9      2.659      7.369
  Name = 
  7 active torsions:
  status: ('A' for Active; 'I' for Inactive)
    1  A    between atoms: C_2  and  C_15
    2  A    between atoms: C_2  and  C_17
    3  A    between atoms: C_11  and  C_12
    4  A    between atoms: C_12  and  O_31
    5  A    between atoms: C_15  and  O_31
    6  A    between atoms: C_16  and  N_19
    7  A    between atoms: N_19  and  C_25
                            x       y       z     vdW  Elec       q    Type
                         _______ _______ _______ _____ _____    ______ ____

>  <TORSDO>
F 7

$$$$
=
 OpenBabel11062421273D

 31 35  0  0  1  0  0  0  0  0999 V2000
  190.7950  177.0710  147.6320 C   0  0  0  0  0  3  0  0  0  0  0  0
  190.8480  174.5780  144.7590 C   0  0  0  0  0  0  0  0  0  0  0  0
  192.7380  173.4030  144.9850 C   0  0  1  0  0  3  0  0  0  0  0  0
  189.1390  176.1530  145.5860 C   0  0  0  0  0  3  0  0  0  0  0  0
  191.2570  176.0660  146.7750 C   0  0  0  0  0  0  0  0  0  0  0  0
  193.6180  175.6800  145.9990 C   0  0  0  0  0  2  0  0  0  0  0  0
  192.5830  175.4420  147.0940 C   0  0  0  0  0  2  0  0  0  0  0  0
  190.3030  172.6330  143.3140 C   0  0  2  0  0  3  0  0  0  0  0  0
  188.6910  177.1590  146.4430 C   0  0  0  0  0  0  0  0  0  0  0  0
  190.4200  175.6040  145.7280 C   0  0  0  0  0  0  0  0  0  0  0  0
  192.8200  172.3440  144.0080 N   0  0  0  0  0  2  0  0  0  0  0  0
  191.5760  170.5960  143.1210 O   0  0  0  0  0  0  0  0  0  0  0  0
  193.5470  174.6610  144.8610 C   0  0  1  0  0  0  0  0  0  0  0  0
  194.6210  174.6110  143.9730 O   0  0  0  0  0  1  0  0  0  0  0  0
  190.0260  173.6320  144.3830 N   0  0  0  0  0  0  0  0  0  0  0  0
  192.2080  174.5820  144.1660 C   0  0  2  0  0  3  0  0  0  0  0  0
  191.5840  171.7930  143.5120 C   0  0  0  0  0  0  0  0  0  0  0  0
  189.5220  177.6210  147.4660 C   0  0  0  0  0  3  0  0  0  0  0  0
  190.2580  173.2470  141.9720 N   0  0  0  0  0  0  0  0  0  0  0  0
  191.4300  172.7840  141.2360 C   0  0  0  0  0  1  0  0  0  0  0  0
  188.2020  173.8860  140.7980 C   0  0  0  0  0  2  0  0  0  0  0  0
  187.8260  173.0610  142.0020 C   0  0  0  0  0  2  0  0  0  0  0  0
  189.0970  172.7370  141.2380 C   0  0  0  0  0  3  0  0  0  0  0  0
  187.3190  177.7180  146.2760 C   0  0  0  0  0  2  0  0  0  0  0  0
  186.3770  176.6480  145.7620 C   0  0  0  0  0  2  0  0  0  0  0  0
  185.4120  177.2380  144.9430 O   0  0  0  0  0  0  0  0  0  0  0  0
  186.3070  176.4090  142.8980 C   0  0  0  0  0  1  0  0  0  0  0  0
  186.0980  177.6220  143.7900 C   0  0  1  0  0  3  0  0  0  0  0  0
  184.1160  178.2280  142.5650 O   0  0  0  0  0  1  0  0  0  0  0  0
  185.3240  178.7250  143.0640 C   0  0  0  0  0  3  0  0  0  0  0  0
  185.0760  179.8000  143.9210 O   0  0  0  0  0  1  0  0  0  0  0  0
  2 10  1  0  0  0  0
  3 11  1  6  0  0  0
  4 10  2  0  0  0  0
  4  9  1  0  0  0  0
  5  7  1  0  0  0  0
  5  1  2  0  0  0  0
  6  7  1  0  0  0  0
  8 19  1  6  0  0  0
  8 17  1  0  0  0  0
  8 15  1  0  0  0  0
  9 18  2  0  0  0  0
 10  5  1  0  0  0  0
 12 17  2  0  0  0  0
 13 14  1  6  0  0  0
 13  3  1  0  0  0  0
 13  6  1  0  0  0  0
 15  2  2  0  0  0  0
 16  2  1  1  0  0  0
 16 13  1  0  0  0  0
 16  3  1  0  0  0  0
 17 11  1  0  0  0  0
 18  1  1  0  0  0  0
 20 19  1  0  0  0  0
 21 23  1  0  0  0  0
 21 22  1  0  0  0  0
 23 19  1  0  0  0  0
 23 22  1  0  0  0  0
 24  9  1  0  0  0  0
 25 24  1  0  0  0  0
 26 25  1  0  0  0  0
 28 27  1  6  0  0  0
 28 26  1  0  0  0  0
 29 30  1  0  0  0  0
 30 28  1  0  0  0  0
 30 31  1  0  0  0  0
M  END
>  <MODEL>
6

>  <REMARK>
 VINA RESULT:      -6.7      1.127      1.313
  Name = 
  7 active torsions:
  status: ('A' for Active; 'I' for Inactive)
    1  A    between atoms: C_2  and  C_15
    2  A    between atoms: C_2  and  C_17
    3  A    between atoms: C_11  and  C_12
    4  A    between atoms: C_12  and  O_31
    5  A    between atoms: C_15  and  O_31
    6  A    between atoms: C_16  and  N_19
    7  A    between atoms: N_19  and  C_25
                            x       y       z     vdW  Elec       q    Type
                         _______ _______ _______ _____ _____    ______ ____

>  <TORSDO>
F 7

$$$$
=
 OpenBabel11062421273D

 31 35  0  0  1  0  0  0  0  0999 V2000
  187.0990  178.1640  147.3450 C   0  0  0  0  0  3  0  0  0  0  0  0
  188.0480  176.3400  144.1440 C   0  0  0  0  0  0  0  0  0  0  0  0
  189.9880  175.3090  144.5640 C   0  0  1  0  0  3  0  0  0  0  0  0
  186.0200  177.5570  144.8470 C   0  0  0  0  0  3  0  0  0  0  0  0
  187.8490  177.4030  146.4410 C   0  0  0  0  0  0  0  0  0  0  0  0
  190.3470  177.3900  146.1540 C   0  0  0  0  0  2  0  0  0  0  0  0
  189.1510  176.8420  146.9260 C   0  0  0  0  0  2  0  0  0  0  0  0
  188.0590  174.7010  142.2790 C   0  0  2  0  0  3  0  0  0  0  0  0
  185.2840  178.3200  145.7540 C   0  0  0  0  0  0  0  0  0  0  0  0
  187.3050  177.1010  145.1670 C   0  0  0  0  0  0  0  0  0  0  0  0
  190.4000  174.4880  143.4510 N   0  0  0  0  0  2  0  0  0  0  0  0
  189.5940  172.8650  141.9990 O   0  0  0  0  0  0  0  0  0  0  0  0
  190.6380  176.6280  144.8600 C   0  0  1  0  0  0  0  0  0  0  0  0
  191.8660  176.8570  144.2400 O   0  0  0  0  0  1  0  0  0  0  0  0
  187.4460  175.4270  143.4250 N   0  0  0  0  0  0  0  0  0  0  0  0
  189.4870  176.5840  143.8810 C   0  0  2  0  0  3  0  0  0  0  0  0
  189.3700  173.9500  142.5970 C   0  0  0  0  0  0  0  0  0  0  0  0
  185.8260  178.6270  147.0050 C   0  0  0  0  0  3  0  0  0  0  0  0
  188.2070  175.5760  141.0980 N   0  0  0  0  0  0  0  0  0  0  0  0
  188.1850  174.7250  139.9120 C   0  0  0  0  0  1  0  0  0  0  0  0
  187.1120  177.2730  139.7070 C   0  0  0  0  0  2  0  0  0  0  0  0
  187.4780  177.9030  141.0270 C   0  0  0  0  0  2  0  0  0  0  0  0
  187.0370  176.4510  140.9850 C   0  0  0  0  0  3  0  0  0  0  0  0
  183.9140  178.7830  145.3920 C   0  0  0  0  0  2  0  0  0  0  0  0
  183.8380  179.0830  143.9080 C   0  0  0  0  0  2  0  0  0  0  0  0
  182.5050  179.0260  143.4950 O   0  0  0  0  0  0  0  0  0  0  0  0
  183.7340  177.9670  141.7510 C   0  0  0  0  0  1  0  0  0  0  0  0
  182.5600  178.8640  142.1090 C   0  0  1  0  0  3  0  0  0  0  0  0
  180.2020  179.2100  141.7690 O   0  0  0  0  0  1  0  0  0  0  0  0
  181.2380  178.2870  141.5970 C   0  0  0  0  0  3  0  0  0  0  0  0
  181.3420  177.9380  140.2490 O   0  0  0  0  0  1  0  0  0  0  0  0
  2 10  1  0  0  0  0
  3 11  1  6  0  0  0
  3 13  1  0  0  0  0
  4 10  2  0  0  0  0
  4  9  1  0  0  0  0
  5  7  1  0  0  0  0
  5  1  2  0  0  0  0
  6  7  1  0  0  0  0
  8 19  1  6  0  0  0
  8 17  1  0  0  0  0
  8 15  1  0  0  0  0
  9 18  2  0  0  0  0
 10  5  1  0  0  0  0
 12 17  2  0  0  0  0
 13 14  1  6  0  0  0
 13  6  1  0  0  0  0
 15  2  2  0  0  0  0
 16  2  1  1  0  0  0
 16  3  1  0  0  0  0
 16 13  1  0  0  0  0
 17 11  1  0  0  0  0
 18  1  1  0  0  0  0
 20 19  1  0  0  0  0
 21 23  1  0  0  0  0
 21 22  1  0  0  0  0
 23 22  1  0  0  0  0
 23 19  1  0  0  0  0
 24  9  1  0  0  0  0
 25 24  1  0  0  0  0
 26 25  1  0  0  0  0
 28 27  1  1  0  0  0
 28 26  1  0  0  0  0
 30 29  1  0  0  0  0
 30 28  1  0  0  0  0
 31 30  1  0  0  0  0
M  END
>  <MODEL>
7

>  <REMARK>
 VINA RESULT:      -6.5      2.315      3.480
  Name = 
  7 active torsions:
  status: ('A' for Active; 'I' for Inactive)
    1  A    between atoms: C_2  and  C_15
    2  A    between atoms: C_2  and  C_17
    3  A    between atoms: C_11  and  C_12
    4  A    between atoms: C_12  and  O_31
    5  A    between atoms: C_15  and  O_31
    6  A    between atoms: C_16  and  N_19
    7  A    between atoms: N_19  and  C_25
                            x       y       z     vdW  Elec       q    Type
                         _______ _______ _______ _____ _____    ______ ____

>  <TORSDO>
F 7

$$$$
=
 OpenBabel11062421273D

 31 35  0  0  1  0  0  0  0  0999 V2000
  192.3380  176.6280  147.4710 C   0  0  0  0  0  3  0  0  0  0  0  0
  193.1490  174.1060  144.7400 C   0  0  0  0  0  0  0  0  0  0  0  0
  195.3490  174.2690  144.3710 C   0  0  1  0  0  3  0  0  0  0  0  0
  191.1090  174.5670  146.0500 C   0  0  0  0  0  3  0  0  0  0  0  0
  193.0760  175.9170  146.5180 C   0  0  0  0  0  0  0  0  0  0  0  0
  194.9190  176.7890  145.0460 C   0  0  0  0  0  2  0  0  0  0  0  0
  194.5400  176.2230  146.4110 C   0  0  0  0  0  2  0  0  0  0  0  0
  193.5300  171.9600  143.5500 C   0  0  2  0  0  3  0  0  0  0  0  0
  190.3810  175.2880  146.9990 C   0  0  0  0  0  0  0  0  0  0  0  0
  192.4510  174.8750  145.7890 C   0  0  0  0  0  0  0  0  0  0  0  0
  195.7990  173.2780  143.4240 N   0  0  0  0  0  2  0  0  0  0  0  0
  195.6660  171.0030  142.9800 O   0  0  0  0  0  0  0  0  0  0  0  0
  195.1890  175.7120  143.9930 C   0  0  1  0  0  0  0  0  0  0  0  0
  195.8190  176.1080  142.8140 O   0  0  0  0  0  1  0  0  0  0  0  0
  192.9890  172.8110  144.6460 N   0  0  0  0  0  0  0  0  0  0  0  0
  194.0390  174.7620  143.7530 C   0  0  2  0  0  3  0  0  0  0  0  0
  195.0580  172.0440  143.3420 C   0  0  0  0  0  0  0  0  0  0  0  0
  190.9960  176.3220  147.7080 C   0  0  0  0  0  3  0  0  0  0  0  0
  192.7970  172.1730  142.2860 N   0  0  0  0  0  0  0  0  0  0  0  0
  193.7370  171.9560  141.1900 C   0  0  0  0  0  1  0  0  0  0  0  0
  190.5370  171.7210  141.4470 C   0  0  0  0  0  2  0  0  0  0  0  0
  190.5370  171.5310  142.9430 C   0  0  0  0  0  2  0  0  0  0  0  0
  191.7650  171.1440  142.1370 C   0  0  0  0  0  3  0  0  0  0  0  0
  188.9590  174.9320  147.2650 C   0  0  0  0  0  2  0  0  0  0  0  0
  188.0350  175.9040  146.5580 C   0  0  0  0  0  2  0  0  0  0  0  0
  188.0730  175.6580  145.1840 O   0  0  0  0  0  0  0  0  0  0  0  0
  187.6250  177.9540  145.6280 C   0  0  0  0  0  1  0  0  0  0  0  0
  188.0160  176.9190  144.5870 C   0  0  1  0  0  3  0  0  0  0  0  0
  189.1710  177.8420  142.6870 O   0  0  0  0  0  1  0  0  0  0  0  0
  189.3620  177.2530  143.9410 C   0  0  0  0  0  3  0  0  0  0  0  0
  190.1010  178.1120  144.7590 O   0  0  0  0  0  1  0  0  0  0  0  0
  1 18  1  0  0  0  0
  2 10  1  0  0  0  0
  3 11  1  6  0  0  0
  4  9  1  0  0  0  0
  5  1  2  0  0  0  0
  6  7  1  0  0  0  0
  7  5  1  0  0  0  0
  8 19  1  6  0  0  0
  8 15  1  0  0  0  0
  9 24  1  0  0  0  0
  9 18  2  0  0  0  0
 10  4  2  0  0  0  0
 10  5  1  0  0  0  0
 12 17  2  0  0  0  0
 13 14  1  6  0  0  0
 13  3  1  0  0  0  0
 13  6  1  0  0  0  0
 15  2  2  0  0  0  0
 16 13  1  0  0  0  0
 16  3  1  0  0  0  0
 16  2  1  1  0  0  0
 17 11  1  0  0  0  0
 17  8  1  0  0  0  0
 20 19  1  0  0  0  0
 21 23  1  0  0  0  0
 21 22  1  0  0  0  0
 23 19  1  0  0  0  0
 23 22  1  0  0  0  0
 25 24  1  0  0  0  0
 26 25  1  0  0  0  0
 28 26  1  0  0  0  0
 28 27  1  1  0  0  0
 29 30  1  0  0  0  0
 30 28  1  0  0  0  0
 30 31  1  0  0  0  0
M  END
>  <MODEL>
8

>  <REMARK>
 VINA RESULT:      -6.3      2.517      3.329
  Name = 
  7 active torsions:
  status: ('A' for Active; 'I' for Inactive)
    1  A    between atoms: C_2  and  C_15
    2  A    between atoms: C_2  and  C_17
    3  A    between atoms: C_11  and  C_12
    4  A    between atoms: C_12  and  O_31
    5  A    between atoms: C_15  and  O_31
    6  A    between atoms: C_16  and  N_19
    7  A    between atoms: N_19  and  C_25
                            x       y       z     vdW  Elec       q    Type
                         _______ _______ _______ _____ _____    ______ ____

>  <TORSDO>
F 7

$$$$
=
 OpenBabel11062421273D

 31 35  0  0  1  0  0  0  0  0999 V2000
  190.7150  176.9970  147.7800 C   0  0  0  0  0  3  0  0  0  0  0  0
  188.8290  176.8440  144.4780 C   0  0  0  0  0  0  0  0  0  0  0  0
  186.9330  177.9880  144.7870 C   0  0  1  0  0  3  0  0  0  0  0  0
  191.0970  176.1430  145.1530 C   0  0  0  0  0  3  0  0  0  0  0  0
  189.6880  177.1730  146.8450 C   0  0  0  0  0  0  0  0  0  0  0  0
  187.2090  177.0940  147.2600 C   0  0  0  0  0  2  0  0  0  0  0  0
  188.4770  177.9400  147.2860 C   0  0  0  0  0  2  0  0  0  0  0  0
  188.1860  177.2270  142.1110 C   0  0  2  0  0  3  0  0  0  0  0  0
  192.1120  175.9670  146.0950 C   0  0  0  0  0  0  0  0  0  0  0  0
  189.8770  176.7310  145.5110 C   0  0  0  0  0  0  0  0  0  0  0  0
  186.1760  178.0950  143.5630 N   0  0  0  0  0  2  0  0  0  0  0  0
  186.4190  178.6650  141.3260 O   0  0  0  0  0  0  0  0  0  0  0  0
  186.5330  177.0500  145.8880 C   0  0  1  0  0  0  0  0  0  0  0  0
  185.2310  176.5550  145.8260 O   0  0  0  0  0  1  0  0  0  0  0  0
  189.1320  177.2130  143.2600 N   0  0  0  0  0  0  0  0  0  0  0  0
  187.4090  176.5340  144.7690 C   0  0  2  0  0  3  0  0  0  0  0  0
  186.9050  178.0650  142.3200 C   0  0  0  0  0  0  0  0  0  0  0  0
  191.9180  176.3920  147.4120 C   0  0  0  0  0  3  0  0  0  0  0  0
  187.8710  175.8600  141.6500 N   0  0  0  0  0  0  0  0  0  0  0  0
  187.4340  175.9520  140.2600 C   0  0  0  0  0  1  0  0  0  0  0  0
  188.7940  173.6450  141.1430 C   0  0  0  0  0  2  0  0  0  0  0  0
  188.9660  173.9060  142.6180 C   0  0  0  0  0  2  0  0  0  0  0  0
  189.0950  175.0540  141.6320 C   0  0  0  0  0  3  0  0  0  0  0  0
  193.4030  175.3480  145.6850 C   0  0  0  0  0  2  0  0  0  0  0  0
  193.1940  173.8920  145.3180 C   0  0  0  0  0  2  0  0  0  0  0  0
  193.8220  173.6290  144.0990 O   0  0  0  0  0  0  0  0  0  0  0  0
  192.7830  174.4820  142.1340 C   0  0  0  0  0  1  0  0  0  0  0  0
  192.7830  173.3950  143.1960 C   0  0  1  0  0  3  0  0  0  0  0  0
  192.6390  171.0140  143.5170 O   0  0  0  0  0  1  0  0  0  0  0  0
  192.9330  172.0050  142.5750 C   0  0  0  0  0  3  0  0  0  0  0  0
  192.0930  171.8670  141.4660 O   0  0  0  0  0  1  0  0  0  0  0  0
  2 10  1  0  0  0  0
  3 11  1  6  0  0  0
  3 13  1  0  0  0  0
  4 10  2  0  0  0  0
  4  9  1  0  0  0  0
  5  7  1  0  0  0  0
  5  1  2  0  0  0  0
  6  7  1  0  0  0  0
  8 19  1  1  0  0  0
  8 17  1  0  0  0  0
  8 15  1  0  0  0  0
  9 18  2  0  0  0  0
 10  5  1  0  0  0  0
 12 17  2  0  0  0  0
 13 14  1  6  0  0  0
 13  6  1  0  0  0  0
 15  2  2  0  0  0  0
 16  2  1  1  0  0  0
 16  3  1  0  0  0  0
 16 13  1  0  0  0  0
 17 11  1  0  0  0  0
 18  1  1  0  0  0  0
 20 19  1  0  0  0  0
 21 23  1  0  0  0  0
 21 22  1  0  0  0  0
 23 19  1  0  0  0  0
 23 22  1  0  0  0  0
 24  9  1  0  0  0  0
 25 24  1  0  0  0  0
 26 25  1  0  0  0  0
 28 27  1  6  0  0  0
 28 26  1  0  0  0  0
 30 28  1  0  0  0  0
 30 29  1  0  0  0  0
 31 30  1  0  0  0  0
M  END
>  <MODEL>
9

>  <REMARK>
 VINA RESULT:      -6.3      2.237      6.794
  Name = 
  7 active torsions:
  status: ('A' for Active; 'I' for Inactive)
    1  A    between atoms: C_2  and  C_15
    2  A    between atoms: C_2  and  C_17
    3  A    between atoms: C_11  and  C_12
    4  A    between atoms: C_12  and  O_31
    5  A    between atoms: C_15  and  O_31
    6  A    between atoms: C_16  and  N_19
    7  A    between atoms: N_19  and  C_25
                            x       y       z     vdW  Elec       q    Type
                         _______ _______ _______ _____ _____    ______ ____

>  <TORSDO>
F 7

$$$$
