=
 OpenBabel11072408463D

 36 42  0  0  1  0  0  0  0  0999 V2000
  190.7390  175.1800  143.8630 C   0  0  1  0  0  3  0  0  0  0  0  0
  191.1990  174.3570  141.6600 C   0  0  0  0  0  0  0  0  0  0  0  0
  190.3630  174.4760  142.7180 C   0  0  0  0  0  0  0  0  0  0  0  0
  192.4320  174.9100  141.6590 N   0  0  0  0  0  0  0  0  0  0  0  0
  192.8350  175.5960  142.7350 N   0  0  0  0  0  0  0  0  0  0  0  0
  189.4160  173.3270  141.1000 N   0  0  0  0  0  0  0  0  0  0  0  0
  189.2100  173.8140  142.3520 C   0  0  0  0  0  3  0  0  0  0  0  0
  192.0330  175.7630  143.8390 C   0  0  0  0  0  0  0  0  0  0  0  0
  190.6310  173.6580  140.6710 N   0  0  0  0  0  0  0  0  0  0  0  0
  188.1590  175.5040  147.2660 C   0  0  0  0  0  3  0  0  0  0  0  0
  188.0530  176.4550  146.2450 C   0  0  0  0  0  0  0  0  0  0  0  0
  189.8280  175.3020  145.0250 C   0  0  0  0  0  0  0  0  0  0  0  0
  189.0720  174.4550  147.1690 C   0  0  0  0  0  3  0  0  0  0  0  0
  189.8990  174.3530  146.0510 C   0  0  0  0  0  3  0  0  0  0  0  0
  188.9090  176.3670  145.1250 C   0  0  0  0  0  0  0  0  0  0  0  0
  188.8610  177.3350  144.1260 O   0  0  0  0  0  1  0  0  0  0  0  0
  184.2640  179.2320  145.3100 N   0  0  0  0  0  0  0  0  0  0  0  0
  185.6740  179.2320  147.2750 C   0  0  0  0  0  3  0  0  0  0  0  0
  185.5080  177.3750  144.0860 S   0  0  0  0  0  0  0  0  0  0  0  0
  184.2320  178.5120  144.1540 C   0  0  0  0  0  3  0  0  0  0  0  0
  185.3110  178.8350  146.0700 C   0  0  0  0  0  0  0  0  0  0  0  0
  186.8830  178.3920  147.6370 C   0  0  0  0  0  2  0  0  0  0  0  0
  186.0950  177.8720  145.5730 C   0  0  0  0  0  0  0  0  0  0  0  0
  187.0650  177.5400  146.4020 C   0  0  0  0  0  0  0  0  0  0  0  0
  192.5670  176.5220  145.0140 C   0  0  0  0  0  2  0  0  0  0  0  0
  193.2600  175.5990  146.0090 C   0  0  0  0  0  2  0  0  0  0  0  0
  194.6670  176.0840  146.3310 C   0  0  2  0  0  3  0  0  0  0  0  0
  194.7660  177.4600  146.1140 O   0  0  0  0  0  1  0  0  0  0  0  0
  196.8060  176.2370  142.3410 C   0  0  0  0  0  3  0  0  0  0  0  0
  196.9850  173.8020  144.7790 O   0  0  0  0  0  0  0  0  0  0  0  0
  196.2190  174.1550  145.7900 N   0  0  0  0  0  0  0  0  0  0  0  0
  196.9180  174.7330  143.8630 C   0  0  0  0  0  0  0  0  0  0  0  0
  197.4270  174.9930  142.6180 C   0  0  0  0  0  3  0  0  0  0  0  0
  195.6600  175.3600  145.4840 C   0  0  0  0  0  0  0  0  0  0  0  0
  196.0220  176.6310  143.3460 O   0  0  0  0  0  0  0  0  0  0  0  0
  196.1240  175.6940  144.2400 C   0  0  0  0  0  0  0  0  0  0  0  0
  1 12  1  6  0  0  0
  2  3  1  0  0  0  0
  3  1  1  0  0  0  0
  4  2  2  0  0  0  0
  4  5  1  0  0  0  0
  5  8  2  0  0  0  0
  6  7  1  0  0  0  0
  7  3  2  0  0  0  0
  8  1  1  0  0  0  0
  8 25  1  0  0  0  0
  9  6  2  0  0  0  0
  9  2  1  0  0  0  0
 11 24  1  0  0  0  0
 11 10  2  0  0  0  0
 12 15  2  0  0  0  0
 12 14  1  0  0  0  0
 13 10  1  0  0  0  0
 14 13  2  0  0  0  0
 15 11  1  0  0  0  0
 16 15  1  0  0  0  0
 17 21  1  0  0  0  0
 18 22  1  0  0  0  0
 19 20  1  0  0  0  0
 19 23  1  0  0  0  0
 20 17  2  0  0  0  0
 21 18  2  0  0  0  0
 23 21  1  0  0  0  0
 23 24  2  0  0  0  0
 24 22  1  0  0  0  0
 25 26  1  0  0  0  0
 26 27  1  0  0  0  0
 27 28  1  6  0  0  0
 29 33  2  0  0  0  0
 29 35  1  0  0  0  0
 30 31  1  0  0  0  0
 32 36  2  0  0  0  0
 32 30  1  0  0  0  0
 33 32  1  0  0  0  0
 34 31  2  0  0  0  0
 34 27  1  0  0  0  0
 35 36  1  0  0  0  0
 36 34  1  0  0  0  0
M  END
>  <MODEL>
1

>  <REMARK>
 VINA RESULT:      -8.7      0.000      0.000
  Name = 
  6 active torsions:
  status: ('A' for Active; 'I' for Inactive)
    1  A    between atoms: C_2  and  C_15
    2  A    between atoms: C_4  and  C_17
    3  A    between atoms: C_4  and  C_28
    4  A    between atoms: C_10  and  C_32
    5  A    between atoms: C_17  and  C_24
    6  A    between atoms: C_24  and  C_34
                            x       y       z     vdW  Elec       q    Type
                         _______ _______ _______ _____ _____    ______ ____

>  <TORSDO>
F 6

$$$$
=
 OpenBabel11072408463D

 36 42  0  0  1  0  0  0  0  0999 V2000
  191.6260  175.9310  144.7670 C   0  0  1  0  0  3  0  0  0  0  0  0
  193.9360  176.5340  144.5510 C   0  0  0  0  0  0  0  0  0  0  0  0
  192.8260  176.3920  145.3130 C   0  0  0  0  0  0  0  0  0  0  0  0
  193.9390  176.2390  143.2320 N   0  0  0  0  0  0  0  0  0  0  0  0
  192.8110  175.7920  142.6660 N   0  0  0  0  0  0  0  0  0  0  0  0
  194.5150  177.1100  146.5220 N   0  0  0  0  0  0  0  0  0  0  0  0
  193.2040  176.7600  146.5860 C   0  0  0  0  0  3  0  0  0  0  0  0
  191.6520  175.6150  143.3830 C   0  0  0  0  0  0  0  0  0  0  0  0
  194.9680  176.9730  145.2790 N   0  0  0  0  0  0  0  0  0  0  0  0
  188.1490  175.4700  147.2240 C   0  0  0  0  0  3  0  0  0  0  0  0
  188.2550  176.6030  146.4100 C   0  0  0  0  0  0  0  0  0  0  0  0
  190.4090  175.7840  145.5990 C   0  0  0  0  0  0  0  0  0  0  0  0
  189.1460  174.4960  147.2210 C   0  0  0  0  0  3  0  0  0  0  0  0
  190.2690  174.6510  146.4080 C   0  0  0  0  0  3  0  0  0  0  0  0
  189.4040  176.7730  145.6070 C   0  0  0  0  0  0  0  0  0  0  0  0
  189.5580  177.9210  144.8340 O   0  0  0  0  0  1  0  0  0  0  0  0
  184.3520  179.0320  145.0670 N   0  0  0  0  0  0  0  0  0  0  0  0
  185.5540  179.1680  147.1610 C   0  0  0  0  0  3  0  0  0  0  0  0
  185.8660  177.2830  143.9980 S   0  0  0  0  0  0  0  0  0  0  0  0
  184.4960  178.3040  143.9240 C   0  0  0  0  0  3  0  0  0  0  0  0
  185.3490  178.7330  145.9320 C   0  0  0  0  0  0  0  0  0  0  0  0
  186.7900  178.4380  147.6520 C   0  0  0  0  0  2  0  0  0  0  0  0
  186.2580  177.8390  145.5280 C   0  0  0  0  0  0  0  0  0  0  0  0
  187.1660  177.5980  146.4540 C   0  0  0  0  0  0  0  0  0  0  0  0
  190.4250  175.1360  142.6700 C   0  0  0  0  0  2  0  0  0  0  0  0
  190.2820  173.6220  142.7570 C   0  0  0  0  0  2  0  0  0  0  0  0
  189.0040  173.1440  142.0820 C   0  0  2  0  0  3  0  0  0  0  0  0
  188.4680  172.0560  142.7750 O   0  0  0  0  0  1  0  0  0  0  0  0
  188.1870  174.3190  137.7850 C   0  0  0  0  0  3  0  0  0  0  0  0
  189.9620  171.6070  138.9670 O   0  0  0  0  0  0  0  0  0  0  0  0
  189.9750  171.6470  140.2820 N   0  0  0  0  0  0  0  0  0  0  0  0
  189.2950  172.6420  138.5260 C   0  0  0  0  0  0  0  0  0  0  0  0
  188.9050  173.1850  137.3300 C   0  0  0  0  0  3  0  0  0  0  0  0
  189.2890  172.7610  140.6690 C   0  0  0  0  0  0  0  0  0  0  0  0
  188.1800  174.3970  139.1170 O   0  0  0  0  0  0  0  0  0  0  0  0
  188.8610  173.3660  139.5180 C   0  0  0  0  0  0  0  0  0  0  0  0
  1  3  1  0  0  0  0
  1 12  1  1  0  0  0
  2  9  1  0  0  0  0
  2  3  1  0  0  0  0
  3  7  2  0  0  0  0
  4  2  2  0  0  0  0
  5  4  1  0  0  0  0
  5  8  2  0  0  0  0
  6  7  1  0  0  0  0
  8  1  1  0  0  0  0
  9  6  2  0  0  0  0
 11 24  1  0  0  0  0
 11 10  2  0  0  0  0
 12 15  2  0  0  0  0
 12 14  1  0  0  0  0
 13 10  1  0  0  0  0
 14 13  2  0  0  0  0
 15 11  1  0  0  0  0
 16 15  1  0  0  0  0
 17 21  1  0  0  0  0
 18 22  1  0  0  0  0
 19 23  1  0  0  0  0
 20 19  1  0  0  0  0
 20 17  2  0  0  0  0
 21 18  2  0  0  0  0
 23 21  1  0  0  0  0
 23 24  2  0  0  0  0
 24 22  1  0  0  0  0
 25 26  1  0  0  0  0
 25  8  1  0  0  0  0
 27 26  1  0  0  0  0
 27 28  1  1  0  0  0
 29 35  1  0  0  0  0
 30 31  1  0  0  0  0
 31 34  2  0  0  0  0
 32 30  1  0  0  0  0
 32 36  2  0  0  0  0
 33 29  2  0  0  0  0
 33 32  1  0  0  0  0
 34 27  1  0  0  0  0
 35 36  1  0  0  0  0
 36 34  1  0  0  0  0
M  END
>  <MODEL>
2

>  <REMARK>
 VINA RESULT:      -8.6      2.578      5.477
  Name = 
  6 active torsions:
  status: ('A' for Active; 'I' for Inactive)
    1  A    between atoms: C_2  and  C_15
    2  A    between atoms: C_4  and  C_17
    3  A    between atoms: C_4  and  C_28
    4  A    between atoms: C_10  and  C_32
    5  A    between atoms: C_17  and  C_24
    6  A    between atoms: C_24  and  C_34
                            x       y       z     vdW  Elec       q    Type
                         _______ _______ _______ _____ _____    ______ ____

>  <TORSDO>
F 6

$$$$
=
 OpenBabel11072408463D

 36 42  0  0  1  0  0  0  0  0999 V2000
  191.5650  175.8690  144.6170 C   0  0  1  0  0  3  0  0  0  0  0  0
  193.8770  176.4220  144.3170 C   0  0  0  0  0  0  0  0  0  0  0  0
  192.7940  176.3000  145.1200 C   0  0  0  0  0  0  0  0  0  0  0  0
  193.8240  176.1370  142.9970 N   0  0  0  0  0  0  0  0  0  0  0  0
  192.6660  175.7190  142.4720 N   0  0  0  0  0  0  0  0  0  0  0  0
  194.5440  176.9720  146.2690 N   0  0  0  0  0  0  0  0  0  0  0  0
  193.2280  176.6510  146.3800 C   0  0  0  0  0  3  0  0  0  0  0  0
  191.5310  175.5630  143.2320 C   0  0  0  0  0  0  0  0  0  0  0  0
  194.9460  176.8330  145.0080 N   0  0  0  0  0  0  0  0  0  0  0  0
  188.1740  175.4700  147.2020 C   0  0  0  0  0  3  0  0  0  0  0  0
  188.2690  176.6010  146.3840 C   0  0  0  0  0  0  0  0  0  0  0  0
  190.3770  175.7440  145.4940 C   0  0  0  0  0  0  0  0  0  0  0  0
  189.1530  174.4780  147.1630 C   0  0  0  0  0  3  0  0  0  0  0  0
  190.2470  174.6140  146.3090 C   0  0  0  0  0  3  0  0  0  0  0  0
  189.3900  176.7500  145.5380 C   0  0  0  0  0  0  0  0  0  0  0  0
  189.5350  177.8940  144.7590 O   0  0  0  0  0  1  0  0  0  0  0  0
  184.3630  179.0980  145.1810 N   0  0  0  0  0  0  0  0  0  0  0  0
  185.6410  179.2090  147.2320 C   0  0  0  0  0  3  0  0  0  0  0  0
  185.8090  177.3260  144.0580 S   0  0  0  0  0  0  0  0  0  0  0  0
  184.4550  178.3700  144.0330 C   0  0  0  0  0  3  0  0  0  0  0  0
  185.3850  178.7810  146.0100 C   0  0  0  0  0  0  0  0  0  0  0  0
  186.8800  178.4580  147.6780 C   0  0  0  0  0  2  0  0  0  0  0  0
  186.2640  177.8720  145.5740 C   0  0  0  0  0  0  0  0  0  0  0  0
  187.2000  177.6140  146.4660 C   0  0  0  0  0  0  0  0  0  0  0  0
  190.2680  175.1160  142.5630 C   0  0  0  0  0  2  0  0  0  0  0  0
  190.4870  173.8540  141.7380 C   0  0  0  0  0  2  0  0  0  0  0  0
  189.7580  172.6610  142.3420 C   0  0  2  0  0  3  0  0  0  0  0  0
  189.0640  173.0490  143.4890 O   0  0  0  0  0  1  0  0  0  0  0  0
  193.4050  171.7500  144.8690 C   0  0  0  0  0  3  0  0  0  0  0  0
  191.8170  169.7140  142.5800 O   0  0  0  0  0  0  0  0  0  0  0  0
  190.7860  170.3590  142.0800 N   0  0  0  0  0  0  0  0  0  0  0  0
  192.4090  170.4880  143.4520 C   0  0  0  0  0  0  0  0  0  0  0  0
  193.4900  170.4570  144.2930 C   0  0  0  0  0  3  0  0  0  0  0  0
  190.7360  171.5850  142.6750 C   0  0  0  0  0  0  0  0  0  0  0  0
  192.3660  172.4350  144.3890 O   0  0  0  0  0  0  0  0  0  0  0  0
  191.7970  171.6340  143.5400 C   0  0  0  0  0  0  0  0  0  0  0  0
  1  3  1  0  0  0  0
  1 12  1  1  0  0  0
  2  9  1  0  0  0  0
  2  3  1  0  0  0  0
  3  7  2  0  0  0  0
  4  2  2  0  0  0  0
  5  4  1  0  0  0  0
  5  8  2  0  0  0  0
  6  7  1  0  0  0  0
  8  1  1  0  0  0  0
  9  6  2  0  0  0  0
 11 24  1  0  0  0  0
 11 10  2  0  0  0  0
 12 15  2  0  0  0  0
 12 14  1  0  0  0  0
 13 10  1  0  0  0  0
 14 13  2  0  0  0  0
 15 11  1  0  0  0  0
 16 15  1  0  0  0  0
 17 21  1  0  0  0  0
 18 22  1  0  0  0  0
 19 23  1  0  0  0  0
 20 19  1  0  0  0  0
 20 17  2  0  0  0  0
 21 18  2  0  0  0  0
 23 21  1  0  0  0  0
 23 24  2  0  0  0  0
 24 22  1  0  0  0  0
 25  8  1  0  0  0  0
 26 27  1  0  0  0  0
 26 25  1  0  0  0  0
 27 34  1  0  0  0  0
 27 28  1  1  0  0  0
 30 32  1  0  0  0  0
 31 30  1  0  0  0  0
 31 34  2  0  0  0  0
 32 36  2  0  0  0  0
 32 33  1  0  0  0  0
 33 29  2  0  0  0  0
 34 36  1  0  0  0  0
 35 29  1  0  0  0  0
 36 35  1  0  0  0  0
M  END
>  <MODEL>
3

>  <REMARK>
 VINA RESULT:      -8.6      2.451      4.368
  Name = 
  6 active torsions:
  status: ('A' for Active; 'I' for Inactive)
    1  A    between atoms: C_2  and  C_15
    2  A    between atoms: C_4  and  C_17
    3  A    between atoms: C_4  and  C_28
    4  A    between atoms: C_10  and  C_32
    5  A    between atoms: C_17  and  C_24
    6  A    between atoms: C_24  and  C_34
                            x       y       z     vdW  Elec       q    Type
                         _______ _______ _______ _____ _____    ______ ____

>  <TORSDO>
F 6

$$$$
=
 OpenBabel11072408463D

 36 42  0  0  1  0  0  0  0  0999 V2000
  187.9980  177.2050  144.5230 C   0  0  1  0  0  3  0  0  0  0  0  0
  186.1960  178.6350  145.1970 C   0  0  0  0  0  0  0  0  0  0  0  0
  187.1950  177.7770  145.5130 C   0  0  0  0  0  0  0  0  0  0  0  0
  185.9260  178.9780  143.9180 N   0  0  0  0  0  0  0  0  0  0  0  0
  186.6720  178.4550  142.9370 N   0  0  0  0  0  0  0  0  0  0  0  0
  186.1760  178.4880  147.3260 N   0  0  0  0  0  0  0  0  0  0  0  0
  187.1840  177.6880  146.8880 C   0  0  0  0  0  3  0  0  0  0  0  0
  187.7070  177.5870  143.1880 C   0  0  0  0  0  0  0  0  0  0  0  0
  185.5690  179.0710  146.2960 N   0  0  0  0  0  0  0  0  0  0  0  0
  191.1030  174.4160  145.4800 C   0  0  0  0  0  3  0  0  0  0  0  0
  191.4420  175.7570  145.2660 C   0  0  0  0  0  0  0  0  0  0  0  0
  189.0850  176.2600  144.8670 C   0  0  0  0  0  0  0  0  0  0  0  0
  189.7760  173.9980  145.4060 C   0  0  0  0  0  3  0  0  0  0  0  0
  188.7710  174.9170  145.1050 C   0  0  0  0  0  3  0  0  0  0  0  0
  190.4290  176.6820  144.9350 C   0  0  0  0  0  0  0  0  0  0  0  0
  190.7500  178.0090  144.6600 O   0  0  0  0  0  1  0  0  0  0  0  0
  195.9350  176.6800  143.8870 N   0  0  0  0  0  0  0  0  0  0  0  0
  194.9240  177.0580  146.0510 C   0  0  0  0  0  3  0  0  0  0  0  0
  193.8620  175.6820  142.7910 S   0  0  0  0  0  0  0  0  0  0  0  0
  195.4960  176.1790  142.6980 C   0  0  0  0  0  3  0  0  0  0  0  0
  194.9400  176.6310  144.8020 C   0  0  0  0  0  0  0  0  0  0  0  0
  193.5200  176.7900  146.5580 C   0  0  0  0  0  2  0  0  0  0  0  0
  193.7720  176.1140  144.4060 C   0  0  0  0  0  0  0  0  0  0  0  0
  192.8640  176.1410  145.3620 C   0  0  0  0  0  0  0  0  0  0  0  0
  188.4760  177.0240  142.0320 C   0  0  0  0  0  2  0  0  0  0  0  0
  187.7410  175.8570  141.3850 C   0  0  0  0  0  2  0  0  0  0  0  0
  188.7070  174.9160  140.6770 C   0  0  2  0  0  3  0  0  0  0  0  0
  188.1900  174.5350  139.4370 O   0  0  0  0  0  1  0  0  0  0  0  0
  191.9800  172.2120  142.2540 C   0  0  0  0  0  3  0  0  0  0  0  0
  188.5690  171.9270  142.6860 O   0  0  0  0  0  0  0  0  0  0  0  0
  187.9780  172.9330  142.0780 N   0  0  0  0  0  0  0  0  0  0  0  0
  189.8610  172.0460  142.5250 C   0  0  0  0  0  0  0  0  0  0  0  0
  191.0090  171.3800  142.8670 C   0  0  0  0  0  3  0  0  0  0  0  0
  188.9510  173.7100  141.5210 C   0  0  0  0  0  0  0  0  0  0  0  0
  191.4180  173.2470  141.6290 O   0  0  0  0  0  0  0  0  0  0  0  0
  190.1420  173.1050  141.8210 C   0  0  0  0  0  0  0  0  0  0  0  0
  1 12  1  1  0  0  0
  1  3  1  0  0  0  0
  2  3  1  0  0  0  0
  2  9  1  0  0  0  0
  3  7  2  0  0  0  0
  4  2  2  0  0  0  0
  5  8  2  0  0  0  0
  5  4  1  0  0  0  0
  7  6  1  0  0  0  0
  8  1  1  0  0  0  0
  9  6  2  0  0  0  0
 11 24  1  0  0  0  0
 11 10  2  0  0  0  0
 12 15  2  0  0  0  0
 12 14  1  0  0  0  0
 13 10  1  0  0  0  0
 14 13  2  0  0  0  0
 15 11  1  0  0  0  0
 16 15  1  0  0  0  0
 17 21  1  0  0  0  0
 18 22  1  0  0  0  0
 19 23  1  0  0  0  0
 20 19  1  0  0  0  0
 20 17  2  0  0  0  0
 21 18  2  0  0  0  0
 23 21  1  0  0  0  0
 23 24  2  0  0  0  0
 24 22  1  0  0  0  0
 25  8  1  0  0  0  0
 26 25  1  0  0  0  0
 27 28  1  6  0  0  0
 27 26  1  0  0  0  0
 27 34  1  0  0  0  0
 29 33  2  0  0  0  0
 31 30  1  0  0  0  0
 32 30  1  0  0  0  0
 32 33  1  0  0  0  0
 34 36  1  0  0  0  0
 34 31  2  0  0  0  0
 35 36  1  0  0  0  0
 35 29  1  0  0  0  0
 36 32  2  0  0  0  0
M  END
>  <MODEL>
4

>  <REMARK>
 VINA RESULT:      -8.5      2.821      7.206
  Name = 
  6 active torsions:
  status: ('A' for Active; 'I' for Inactive)
    1  A    between atoms: C_2  and  C_15
    2  A    between atoms: C_4  and  C_17
    3  A    between atoms: C_4  and  C_28
    4  A    between atoms: C_10  and  C_32
    5  A    between atoms: C_17  and  C_24
    6  A    between atoms: C_24  and  C_34
                            x       y       z     vdW  Elec       q    Type
                         _______ _______ _______ _____ _____    ______ ____

>  <TORSDO>
F 6

$$$$
=
 OpenBabel11072408463D

 36 42  0  0  1  0  0  0  0  0999 V2000
  187.3070  177.3340  145.2440 C   0  0  1  0  0  3  0  0  0  0  0  0
  185.3310  178.5050  145.9290 C   0  0  0  0  0  0  0  0  0  0  0  0
  186.2910  178.2620  145.0060 C   0  0  0  0  0  0  0  0  0  0  0  0
  185.3080  177.8670  147.1200 N   0  0  0  0  0  0  0  0  0  0  0  0
  186.2610  176.9670  147.3900 N   0  0  0  0  0  0  0  0  0  0  0  0
  184.8590  179.7570  144.2660 N   0  0  0  0  0  0  0  0  0  0  0  0
  185.9810  179.0680  143.9310 C   0  0  0  0  0  3  0  0  0  0  0  0
  187.2580  176.6650  146.4950 C   0  0  0  0  0  0  0  0  0  0  0  0
  184.4560  179.4160  145.4880 N   0  0  0  0  0  0  0  0  0  0  0  0
  190.4120  176.6000  142.3880 C   0  0  0  0  0  3  0  0  0  0  0  0
  189.2290  175.8580  142.3040 C   0  0  0  0  0  0  0  0  0  0  0  0
  188.3630  177.0740  144.2380 C   0  0  0  0  0  0  0  0  0  0  0  0
  190.5710  177.5770  143.3690 C   0  0  0  0  0  3  0  0  0  0  0  0
  189.5490  177.8150  144.2870 C   0  0  0  0  0  3  0  0  0  0  0  0
  188.2040  176.0810  143.2490 C   0  0  0  0  0  0  0  0  0  0  0  0
  187.0420  175.3150  143.2210 O   0  0  0  0  0  1  0  0  0  0  0  0
  189.7910  171.6850  140.0220 N   0  0  0  0  0  0  0  0  0  0  0  0
  188.4160  173.5700  139.3820 C   0  0  0  0  0  3  0  0  0  0  0  0
  190.7190  172.7370  142.1490 S   0  0  0  0  0  0  0  0  0  0  0  0
  190.6190  171.4150  141.0690 C   0  0  0  0  0  3  0  0  0  0  0  0
  189.2890  172.9360  140.1430 C   0  0  1  0  0  3  0  0  0  0  0  0
  188.1930  174.9140  140.0480 C   0  0  0  0  0  3  0  0  0  0  0  0
  189.6850  173.6520  141.2010 C   0  0  0  0  0  0  0  0  0  0  0  0
  189.1170  174.8410  141.2410 C   0  0  0  0  0  0  0  0  0  0  0  0
  188.3030  175.6650  146.8840 C   0  0  0  0  0  2  0  0  0  0  0  0
  189.6050  176.3450  147.2900 C   0  0  0  0  0  2  0  0  0  0  0  0
  190.7020  175.3260  147.5660 C   0  0  2  0  0  3  0  0  0  0  0  0
  191.3700  175.6410  148.7510 O   0  0  0  0  0  1  0  0  0  0  0  0
  194.5630  177.1530  146.0580 C   0  0  0  0  0  3  0  0  0  0  0  0
  192.5150  174.8630  144.4860 O   0  0  0  0  0  0  0  0  0  0  0  0
  191.5040  174.5820  145.2790 N   0  0  0  0  0  0  0  0  0  0  0  0
  193.2910  175.7250  145.0910 C   0  0  0  0  0  0  0  0  0  0  0  0
  194.4490  176.4160  144.8520 C   0  0  0  0  0  3  0  0  0  0  0  0
  191.6670  175.2980  146.4280 C   0  0  0  0  0  0  0  0  0  0  0  0
  193.5550  176.8910  146.8920 O   0  0  0  0  0  0  0  0  0  0  0  0
  192.8170  176.0250  146.2660 C   0  0  0  0  0  0  0  0  0  0  0  0
  1 12  1  6  0  0  0
  1  8  1  0  0  0  0
  2  4  2  0  0  0  0
  3  1  1  0  0  0  0
  3  2  1  0  0  0  0
  4  5  1  0  0  0  0
  6  9  2  0  0  0  0
  7  6  1  0  0  0  0
  7  3  2  0  0  0  0
  8 25  1  0  0  0  0
  8  5  2  0  0  0  0
  9  2  1  0  0  0  0
 10 13  1  0  0  0  0
 11 10  2  0  0  0  0
 11 15  1  0  0  0  0
 12 14  1  0  0  0  0
 13 14  2  0  0  0  0
 15 12  2  0  0  0  0
 16 15  1  0  0  0  0
 17 21  1  0  0  0  0
 17 20  2  0  0  0  0
 18 22  2  0  0  0  0
 20 19  1  0  0  0  0
 21 18  1  1  0  0  0
 21 23  1  0  0  0  0
 22 24  1  0  0  0  0
 23 24  2  0  0  0  0
 23 19  1  0  0  0  0
 24 11  1  0  0  0  0
 25 26  1  0  0  0  0
 26 27  1  0  0  0  0
 27 28  1  1  0  0  0
 29 35  1  0  0  0  0
 30 32  1  0  0  0  0
 30 31  1  0  0  0  0
 31 34  2  0  0  0  0
 32 36  2  0  0  0  0
 33 32  1  0  0  0  0
 33 29  2  0  0  0  0
 34 27  1  0  0  0  0
 36 34  1  0  0  0  0
 36 35  1  0  0  0  0
M  END
>  <MODEL>
5

>  <REMARK>
 VINA RESULT:      -8.4      2.605      6.378
  Name = 
  6 active torsions:
  status: ('A' for Active; 'I' for Inactive)
    1  A    between atoms: C_2  and  C_15
    2  A    between atoms: C_4  and  C_17
    3  A    between atoms: C_4  and  C_28
    4  A    between atoms: C_10  and  C_32
    5  A    between atoms: C_17  and  C_24
    6  A    between atoms: C_24  and  C_34
                            x       y       z     vdW  Elec       q    Type
                         _______ _______ _______ _____ _____    ______ ____

>  <TORSDO>
F 6

$$$$
=
 OpenBabel11072408463D

 36 42  0  0  1  0  0  0  0  0999 V2000
  188.1300  177.3600  144.6010 C   0  0  1  0  0  3  0  0  0  0  0  0
  186.0420  178.5350  144.6350 C   0  0  0  0  0  0  0  0  0  0  0  0
  187.1030  178.0480  143.9510 C   0  0  0  0  0  0  0  0  0  0  0  0
  185.9230  178.3830  145.9720 N   0  0  0  0  0  0  0  0  0  0  0  0
  186.8820  177.7270  146.6370 N   0  0  0  0  0  0  0  0  0  0  0  0
  185.6890  179.0400  142.5920 N   0  0  0  0  0  0  0  0  0  0  0  0
  186.8710  178.3710  142.6310 C   0  0  0  0  0  3  0  0  0  0  0  0
  187.9810  177.1990  146.0030 C   0  0  0  0  0  0  0  0  0  0  0  0
  185.1770  179.1430  143.8150 N   0  0  0  0  0  0  0  0  0  0  0  0
  191.5480  175.8730  142.4930 C   0  0  0  0  0  3  0  0  0  0  0  0
  190.3770  175.1070  142.5050 C   0  0  0  0  0  0  0  0  0  0  0  0
  189.2960  176.8340  143.8540 C   0  0  0  0  0  0  0  0  0  0  0  0
  191.5970  177.1090  143.1360 C   0  0  0  0  0  3  0  0  0  0  0  0
  190.4740  177.5880  143.8100 C   0  0  0  0  0  3  0  0  0  0  0  0
  189.2490  175.5810  143.2090 C   0  0  0  0  0  0  0  0  0  0  0  0
  188.0920  174.8090  143.2840 O   0  0  0  0  0  1  0  0  0  0  0  0
  189.3870  171.8120  139.1730 N   0  0  0  0  0  0  0  0  0  0  0  0
  190.9540  171.6630  141.0090 C   0  0  0  0  0  3  0  0  0  0  0  0
  188.5670  174.1660  139.7080 S   0  0  0  0  0  0  0  0  0  0  0  0
  188.5310  172.7700  138.7200 C   0  0  0  0  0  3  0  0  0  0  0  0
  190.0170  172.2500  140.2880 C   0  0  0  0  0  0  0  0  0  0  0  0
  191.3150  172.6570  142.0960 C   0  0  0  0  0  2  0  0  0  0  0  0
  189.6940  173.4690  140.7320 C   0  0  0  0  0  0  0  0  0  0  0  0
  190.3850  173.8100  141.8030 C   0  0  0  0  0  0  0  0  0  0  0  0
  189.0240  176.5030  146.8220 C   0  0  0  0  0  2  0  0  0  0  0  0
  190.1230  177.4630  147.2630 C   0  0  0  0  0  2  0  0  0  0  0  0
  191.1860  176.7500  148.0890 C   0  0  2  0  0  3  0  0  0  0  0  0
  191.5660  177.5420  149.1740 O   0  0  0  0  0  1  0  0  0  0  0  0
  192.8160  173.7660  145.0980 C   0  0  0  0  0  3  0  0  0  0  0  0
  194.3710  176.5490  146.4160 O   0  0  0  0  0  0  0  0  0  0  0  0
  193.5390  177.1530  147.2370 N   0  0  0  0  0  0  0  0  0  0  0  0
  193.7730  175.5000  145.9140 C   0  0  0  0  0  0  0  0  0  0  0  0
  194.0440  174.4740  145.0480 C   0  0  0  0  0  3  0  0  0  0  0  0
  192.3720  176.4470  147.2360 C   0  0  0  0  0  0  0  0  0  0  0  0
  191.9430  174.3500  145.9180 O   0  0  0  0  0  0  0  0  0  0  0  0
  192.5630  175.3910  146.3850 C   0  0  0  0  0  0  0  0  0  0  0  0
  1 12  1  6  0  0  0
  1  8  1  0  0  0  0
  2  4  2  0  0  0  0
  3  1  1  0  0  0  0
  3  2  1  0  0  0  0
  4  5  1  0  0  0  0
  6  7  1  0  0  0  0
  6  9  2  0  0  0  0
  7  3  2  0  0  0  0
  8  5  2  0  0  0  0
  8 25  1  0  0  0  0
  9  2  1  0  0  0  0
 10 11  2  0  0  0  0
 10 13  1  0  0  0  0
 11 15  1  0  0  0  0
 13 14  2  0  0  0  0
 14 12  1  0  0  0  0
 15 16  1  0  0  0  0
 15 12  2  0  0  0  0
 17 21  1  0  0  0  0
 18 22  1  0  0  0  0
 19 23  1  0  0  0  0
 20 17  2  0  0  0  0
 20 19  1  0  0  0  0
 21 23  1  0  0  0  0
 21 18  2  0  0  0  0
 23 24  2  0  0  0  0
 24 22  1  0  0  0  0
 24 11  1  0  0  0  0
 25 26  1  0  0  0  0
 26 27  1  0  0  0  0
 27 28  1  1  0  0  0
 29 35  1  0  0  0  0
 30 31  1  0  0  0  0
 32 36  2  0  0  0  0
 32 30  1  0  0  0  0
 33 29  2  0  0  0  0
 33 32  1  0  0  0  0
 34 31  2  0  0  0  0
 34 27  1  0  0  0  0
 35 36  1  0  0  0  0
 36 34  1  0  0  0  0
M  END
>  <MODEL>
6

>  <REMARK>
 VINA RESULT:      -8.3      2.723      6.179
  Name = 
  6 active torsions:
  status: ('A' for Active; 'I' for Inactive)
    1  A    between atoms: C_2  and  C_15
    2  A    between atoms: C_4  and  C_17
    3  A    between atoms: C_4  and  C_28
    4  A    between atoms: C_10  and  C_32
    5  A    between atoms: C_17  and  C_24
    6  A    between atoms: C_24  and  C_34
                            x       y       z     vdW  Elec       q    Type
                         _______ _______ _______ _____ _____    ______ ____

>  <TORSDO>
F 6

$$$$
=
 OpenBabel11072408463D

 36 42  0  0  1  0  0  0  0  0999 V2000
  191.3540  174.8310  145.1210 C   0  0  1  0  0  3  0  0  0  0  0  0
  193.3790  175.5010  146.2130 C   0  0  0  0  0  0  0  0  0  0  0  0
  192.7180  174.6710  145.3720 C   0  0  0  0  0  0  0  0  0  0  0  0
  192.7570  176.5190  146.8490 N   0  0  0  0  0  0  0  0  0  0  0  0
  191.4490  176.7110  146.6350 N   0  0  0  0  0  0  0  0  0  0  0  0
  194.8450  174.1260  145.4940 N   0  0  0  0  0  0  0  0  0  0  0  0
  193.6680  173.7880  144.9050 C   0  0  0  0  0  3  0  0  0  0  0  0
  190.7210  175.9120  145.7870 C   0  0  0  0  0  0  0  0  0  0  0  0
  194.6740  175.1750  146.2950 N   0  0  0  0  0  0  0  0  0  0  0  0
  189.2080  172.1740  142.5380 C   0  0  0  0  0  3  0  0  0  0  0  0
  189.8110  173.3110  141.9870 C   0  0  0  0  0  0  0  0  0  0  0  0
  190.6290  173.9180  144.2080 C   0  0  0  0  0  0  0  0  0  0  0  0
  189.3210  171.8980  143.8990 C   0  0  0  0  0  3  0  0  0  0  0  0
  190.0320  172.7640  144.7290 C   0  0  0  0  0  3  0  0  0  0  0  0
  190.5080  174.2020  142.8310 C   0  0  0  0  0  0  0  0  0  0  0  0
  191.0650  175.3690  142.3160 O   0  0  0  0  0  1  0  0  0  0  0  0
  190.6750  173.0130  137.2860 N   0  0  0  0  0  0  0  0  0  0  0  0
  188.8080  174.0690  138.4020 C   0  0  0  0  0  3  0  0  0  0  0  0
  191.8570  172.2410  139.4080 S   0  0  0  0  0  0  0  0  0  0  0  0
  191.7790  172.3310  137.7020 C   0  0  0  0  0  3  0  0  0  0  0  0
  189.9600  173.4270  138.3570 C   0  0  0  0  0  0  0  0  0  0  0  0
  188.4720  174.2050  139.8750 C   0  0  0  0  0  2  0  0  0  0  0  0
  190.4440  173.1260  139.5670 C   0  0  0  0  0  0  0  0  0  0  0  0
  189.6590  173.5480  140.5390 C   0  0  0  0  0  0  0  0  0  0  0  0
  189.2560  176.1770  145.6240 C   0  0  0  0  0  2  0  0  0  0  0  0
  189.0010  177.4020  144.7540 C   0  0  0  0  0  2  0  0  0  0  0  0
  187.9490  177.1190  143.6900 C   0  0  2  0  0  3  0  0  0  0  0  0
  188.4660  177.3710  142.4180 O   0  0  0  0  0  1  0  0  0  0  0  0
  184.5150  177.7910  146.5670 C   0  0  0  0  0  3  0  0  0  0  0  0
  185.1610  179.4000  143.5840 O   0  0  0  0  0  0  0  0  0  0  0  0
  186.2700  178.9150  143.0700 N   0  0  0  0  0  0  0  0  0  0  0  0
  184.9270  178.7920  144.7180 C   0  0  0  0  0  0  0  0  0  0  0  0
  183.9900  178.7960  145.7170 C   0  0  0  0  0  3  0  0  0  0  0  0
  186.7450  177.9680  143.9290 C   0  0  0  0  0  0  0  0  0  0  0  0
  185.6450  177.2750  146.0800 O   0  0  0  0  0  0  0  0  0  0  0  0
  185.8530  177.9110  144.9670 C   0  0  0  0  0  0  0  0  0  0  0  0
  1 12  1  6  0  0  0
  1  3  1  0  0  0  0
  1  8  1  0  0  0  0
  2  9  1  0  0  0  0
  2  4  2  0  0  0  0
  3  2  1  0  0  0  0
  5  4  1  0  0  0  0
  6  9  2  0  0  0  0
  7  3  2  0  0  0  0
  7  6  1  0  0  0  0
  8  5  2  0  0  0  0
 10 13  1  0  0  0  0
 11 10  2  0  0  0  0
 11 15  1  0  0  0  0
 12 14  1  0  0  0  0
 13 14  2  0  0  0  0
 15 12  2  0  0  0  0
 16 15  1  0  0  0  0
 17 20  2  0  0  0  0
 17 21  1  0  0  0  0
 18 22  1  0  0  0  0
 19 23  1  0  0  0  0
 20 19  1  0  0  0  0
 21 18  2  0  0  0  0
 21 23  1  0  0  0  0
 22 24  1  0  0  0  0
 23 24  2  0  0  0  0
 24 11  1  0  0  0  0
 25  8  1  0  0  0  0
 26 25  1  0  0  0  0
 27 28  1  6  0  0  0
 27 34  1  0  0  0  0
 27 26  1  0  0  0  0
 30 32  1  0  0  0  0
 31 30  1  0  0  0  0
 31 34  2  0  0  0  0
 32 36  2  0  0  0  0
 32 33  1  0  0  0  0
 33 29  2  0  0  0  0
 34 36  1  0  0  0  0
 35 29  1  0  0  0  0
 36 35  1  0  0  0  0
M  END
>  <MODEL>
7

>  <REMARK>
 VINA RESULT:      -8.1      3.283      8.234
  Name = 
  6 active torsions:
  status: ('A' for Active; 'I' for Inactive)
    1  A    between atoms: C_2  and  C_15
    2  A    between atoms: C_4  and  C_17
    3  A    between atoms: C_4  and  C_28
    4  A    between atoms: C_10  and  C_32
    5  A    between atoms: C_17  and  C_24
    6  A    between atoms: C_24  and  C_34
                            x       y       z     vdW  Elec       q    Type
                         _______ _______ _______ _____ _____    ______ ____

>  <TORSDO>
F 6

$$$$
=
 OpenBabel11072408463D

 36 42  0  0  1  0  0  0  0  0999 V2000
  189.4940  173.9790  141.5550 C   0  0  2  0  0  3  0  0  0  0  0  0
  189.1910  172.8450  139.4650 C   0  0  0  0  0  0  0  0  0  0  0  0
  189.7620  172.9150  140.6910 C   0  0  0  0  0  0  0  0  0  0  0  0
  188.3410  173.7950  139.0180 N   0  0  0  0  0  0  0  0  0  0  0  0
  188.0530  174.8320  139.8140 N   0  0  0  0  0  0  0  0  0  0  0  0
  190.3980  171.0930  139.6380 N   0  0  0  0  0  0  0  0  0  0  0  0
  190.5360  171.7800  140.8020 C   0  0  0  0  0  3  0  0  0  0  0  0
  188.5900  174.9600  141.0720 C   0  0  0  0  0  0  0  0  0  0  0  0
  189.5750  171.7400  138.8160 N   0  0  0  0  0  0  0  0  0  0  0  0
  191.2890  174.1470  145.4390 C   0  0  0  0  0  3  0  0  0  0  0  0
  191.9490  174.7530  144.3640 C   0  0  0  0  0  0  0  0  0  0  0  0
  190.1260  174.0610  142.8920 C   0  0  0  0  0  0  0  0  0  0  0  0
  190.0590  173.5180  145.2560 C   0  0  0  0  0  3  0  0  0  0  0  0
  189.4790  173.4790  143.9880 C   0  0  0  0  0  3  0  0  0  0  0  0
  191.3740  174.6910  143.0760 C   0  0  0  0  0  0  0  0  0  0  0  0
  192.0400  175.2350  141.9820 O   0  0  0  0  0  1  0  0  0  0  0  0
  196.6660  175.5640  144.1960 N   0  0  0  0  0  0  0  0  0  0  0  0
  194.9370  176.9670  145.1390 C   0  0  0  0  0  3  0  0  0  0  0  0
  195.1120  173.6890  143.4420 S   0  0  0  0  0  0  0  0  0  0  0  0
  196.6820  174.3580  143.5610 C   0  0  0  0  0  3  0  0  0  0  0  0
  195.4000  175.8780  144.5550 C   0  0  0  0  0  0  0  0  0  0  0  0
  193.4360  176.7760  145.2310 C   0  0  0  0  0  2  0  0  0  0  0  0
  194.4440  174.9920  144.2540 C   0  0  0  0  0  0  0  0  0  0  0  0
  193.2460  175.4070  144.6200 C   0  0  0  0  0  0  0  0  0  0  0  0
  188.2390  176.1650  141.8900 C   0  0  0  0  0  2  0  0  0  0  0  0
  186.9130  175.9820  142.6170 C   0  0  0  0  0  2  0  0  0  0  0  0
  185.9260  177.0860  142.2600 C   0  0  2  0  0  3  0  0  0  0  0  0
  186.3540  177.7680  141.1190 O   0  0  0  0  0  1  0  0  0  0  0  0
  185.2240  177.2820  146.7300 C   0  0  0  0  0  3  0  0  0  0  0  0
  185.5700  179.8890  144.4960 O   0  0  0  0  0  0  0  0  0  0  0  0
  185.7780  179.3950  143.2950 N   0  0  0  0  0  0  0  0  0  0  0  0
  185.4480  178.8960  145.3380 C   0  0  0  0  0  0  0  0  0  0  0  0
  185.2200  178.6990  146.6750 C   0  0  0  0  0  3  0  0  0  0  0  0
  185.7910  178.0350  143.4030 C   0  0  0  0  0  0  0  0  0  0  0  0
  185.4370  176.7430  145.5290 O   0  0  0  0  0  0  0  0  0  0  0  0
  185.5670  177.7540  144.7240 C   0  0  0  0  0  0  0  0  0  0  0  0
  1 12  1  6  0  0  0
  2  3  1  0  0  0  0
  3  7  2  0  0  0  0
  3  1  1  0  0  0  0
  4  2  2  0  0  0  0
  4  5  1  0  0  0  0
  5  8  2  0  0  0  0
  6  7  1  0  0  0  0
  8  1  1  0  0  0  0
  8 25  1  0  0  0  0
  9  2  1  0  0  0  0
  9  6  2  0  0  0  0
 11 24  1  0  0  0  0
 11 10  2  0  0  0  0
 12 15  2  0  0  0  0
 12 14  1  0  0  0  0
 13 10  1  0  0  0  0
 14 13  2  0  0  0  0
 15 11  1  0  0  0  0
 16 15  1  0  0  0  0
 17 21  1  0  0  0  0
 18 22  1  0  0  0  0
 19 20  1  0  0  0  0
 19 23  1  0  0  0  0
 20 17  2  0  0  0  0
 21 18  2  0  0  0  0
 23 21  1  0  0  0  0
 23 24  2  0  0  0  0
 24 22  1  0  0  0  0
 25 26  1  0  0  0  0
 27 28  1  6  0  0  0
 27 26  1  0  0  0  0
 27 34  1  0  0  0  0
 30 32  1  0  0  0  0
 31 34  2  0  0  0  0
 31 30  1  0  0  0  0
 32 33  1  0  0  0  0
 33 29  2  0  0  0  0
 34 36  1  0  0  0  0
 35 29  1  0  0  0  0
 36 32  2  0  0  0  0
 36 35  1  0  0  0  0
M  END
>  <MODEL>
8

>  <REMARK>
 VINA RESULT:      -8.1      3.073      8.255
  Name = 
  6 active torsions:
  status: ('A' for Active; 'I' for Inactive)
    1  A    between atoms: C_2  and  C_15
    2  A    between atoms: C_4  and  C_17
    3  A    between atoms: C_4  and  C_28
    4  A    between atoms: C_10  and  C_32
    5  A    between atoms: C_17  and  C_24
    6  A    between atoms: C_24  and  C_34
                            x       y       z     vdW  Elec       q    Type
                         _______ _______ _______ _____ _____    ______ ____

>  <TORSDO>
F 6

$$$$
=
 OpenBabel11072408463D

 36 42  0  0  1  0  0  0  0  0999 V2000
  190.9490  175.1060  145.9250 C   0  0  1  0  0  3  0  0  0  0  0  0
  192.8260  176.2560  146.8720 C   0  0  0  0  0  0  0  0  0  0  0  0
  192.3200  175.3590  145.9930 C   0  0  0  0  0  0  0  0  0  0  0  0
  192.0340  176.9470  147.7220 N   0  0  0  0  0  0  0  0  0  0  0  0
  190.7120  176.7380  147.6900 N   0  0  0  0  0  0  0  0  0  0  0  0
  194.5050  175.5050  145.7900 N   0  0  0  0  0  0  0  0  0  0  0  0
  193.4060  174.8790  145.2920 C   0  0  0  0  0  3  0  0  0  0  0  0
  190.1330  175.8490  146.8160 C   0  0  0  0  0  0  0  0  0  0  0  0
  194.1550  176.3500  146.7570 N   0  0  0  0  0  0  0  0  0  0  0  0
  189.3080  172.2210  143.2190 C   0  0  0  0  0  3  0  0  0  0  0  0
  189.6900  173.4710  142.7210 C   0  0  0  0  0  0  0  0  0  0  0  0
  190.3970  174.1170  144.9690 C   0  0  0  0  0  0  0  0  0  0  0  0
  189.4770  171.9090  144.5660 C   0  0  0  0  0  3  0  0  0  0  0  0
  190.0230  172.8520  145.4360 C   0  0  0  0  0  3  0  0  0  0  0  0
  190.2190  174.4360  143.6070 C   0  0  0  0  0  0  0  0  0  0  0  0
  190.5520  175.7060  143.1460 O   0  0  0  0  0  1  0  0  0  0  0  0
  190.5670  173.5440  138.0130 N   0  0  0  0  0  0  0  0  0  0  0  0
  188.5470  174.1950  139.1710 C   0  0  0  0  0  3  0  0  0  0  0  0
  191.8810  172.9040  140.1010 S   0  0  0  0  0  0  0  0  0  0  0  0
  191.7780  173.0550  138.4010 C   0  0  0  0  0  3  0  0  0  0  0  0
  189.7960  173.7740  139.1010 C   0  0  0  0  0  0  0  0  0  0  0  0
  188.2000  174.2030  140.6480 C   0  0  0  0  0  2  0  0  0  0  0  0
  190.3330  173.5110  140.2970 C   0  0  0  0  0  0  0  0  0  0  0  0
  189.4910  173.7420  141.2850 C   0  0  0  0  0  0  0  0  0  0  0  0
  188.6490  175.6530  146.8620 C   0  0  0  0  0  2  0  0  0  0  0  0
  187.9030  176.9390  146.5270 C   0  0  0  0  0  2  0  0  0  0  0  0
  187.6350  177.0540  145.0330 C   0  0  2  0  0  3  0  0  0  0  0  0
  188.5600  177.9150  144.4400 O   0  0  0  0  0  1  0  0  0  0  0  0
  184.6570  178.0740  141.7770 C   0  0  0  0  0  3  0  0  0  0  0  0
  184.3040  178.4190  145.1910 O   0  0  0  0  0  0  0  0  0  0  0  0
  185.4000  177.9880  145.7780 N   0  0  0  0  0  0  0  0  0  0  0  0
  184.4420  178.2780  143.8980 C   0  0  0  0  0  0  0  0  0  0  0  0
  183.7300  178.5190  142.7530 C   0  0  0  0  0  3  0  0  0  0  0  0
  186.2490  177.5560  144.8020 C   0  0  0  0  0  0  0  0  0  0  0  0
  185.7820  177.6240  142.3340 O   0  0  0  0  0  0  0  0  0  0  0  0
  185.6040  177.7660  143.6130 C   0  0  0  0  0  0  0  0  0  0  0  0
  1 12  1  6  0  0  0
  1  3  1  0  0  0  0
  1  8  1  0  0  0  0
  2  4  2  0  0  0  0
  3  2  1  0  0  0  0
  5  4  1  0  0  0  0
  6  9  2  0  0  0  0
  7  6  1  0  0  0  0
  7  3  2  0  0  0  0
  8 25  1  0  0  0  0
  8  5  2  0  0  0  0
  9  2  1  0  0  0  0
 10 13  1  0  0  0  0
 11 10  2  0  0  0  0
 11 15  1  0  0  0  0
 12 14  1  0  0  0  0
 13 14  2  0  0  0  0
 15 12  2  0  0  0  0
 16 15  1  0  0  0  0
 17 20  2  0  0  0  0
 17 21  1  0  0  0  0
 18 22  1  0  0  0  0
 19 23  1  0  0  0  0
 20 19  1  0  0  0  0
 21 18  2  0  0  0  0
 21 23  1  0  0  0  0
 22 24  1  0  0  0  0
 23 24  2  0  0  0  0
 24 11  1  0  0  0  0
 26 25  1  0  0  0  0
 27 28  1  1  0  0  0
 27 26  1  0  0  0  0
 29 35  1  0  0  0  0
 29 33  2  0  0  0  0
 30 31  1  0  0  0  0
 32 30  1  0  0  0  0
 33 32  1  0  0  0  0
 34 27  1  0  0  0  0
 34 31  2  0  0  0  0
 35 36  1  0  0  0  0
 36 32  2  0  0  0  0
 36 34  1  0  0  0  0
M  END
>  <MODEL>
9

>  <REMARK>
 VINA RESULT:      -8.1      3.166      8.073
  Name = 
  6 active torsions:
  status: ('A' for Active; 'I' for Inactive)
    1  A    between atoms: C_2  and  C_15
    2  A    between atoms: C_4  and  C_17
    3  A    between atoms: C_4  and  C_28
    4  A    between atoms: C_10  and  C_32
    5  A    between atoms: C_17  and  C_24
    6  A    between atoms: C_24  and  C_34
                            x       y       z     vdW  Elec       q    Type
                         _______ _______ _______ _____ _____    ______ ____

>  <TORSDO>
F 6

$$$$
