=
 OpenBabel11062420463D

 45 52  0  0  1  0  0  0  0  0999 V2000
  189.9030  174.0490  144.9330 C   0  0  1  0  0  3  0  0  0  0  0  0
  189.3400  172.7070  144.4960 C   0  0  0  0  0  2  0  0  0  0  0  0
  190.0260  174.4580  143.4770 C   0  0  2  0  0  3  0  0  0  0  0  0
  189.4960  173.1060  143.0380 C   0  0  2  0  0  3  0  0  0  0  0  0
  194.8620  176.3910  144.9840 C   0  0  1  0  0  0  0  0  0  0  0  0
  193.5310  176.4990  145.7130 C   0  0  1  0  0  3  0  0  0  0  0  0
  191.4240  174.6510  143.0860 N   0  0  0  0  0  0  0  0  0  0  0  0
  196.0730  175.5260  143.0580 O   0  0  0  0  0  1  0  0  0  0  0  0
  192.4840  174.8000  144.0610 C   0  0  2  0  0  3  0  0  0  0  0  0
  192.3320  176.1250  144.8210 C   0  0  0  0  0  2  0  0  0  0  0  0
  193.8140  174.6970  143.2700 C   0  0  1  0  0  3  0  0  0  0  0  0
  193.4640  174.6150  141.7800 C   0  0  2  0  0  3  0  0  0  0  0  0
  191.9830  174.5580  141.7840 C   0  0  0  0  0  0  0  0  0  0  0  0
  191.2880  174.4630  140.7390 O   0  0  0  0  0  0  0  0  0  0  0  0
  194.7970  175.8510  143.5320 C   0  0  1  0  0  3  0  0  0  0  0  0
  195.8170  175.7160  145.7630 O   0  0  0  0  0  0  0  0  0  0  0  0
  194.4820  175.3470  145.9950 C   0  0  2  0  0  3  0  0  0  0  0  0
  194.0120  173.3840  141.2300 N   0  0  0  0  0  2  0  0  0  0  0  0
  195.9510  173.7560  137.8920 C   0  0  0  0  0  3  0  0  0  0  0  0
  195.1020  174.6610  139.0320 S   0  0  0  0  0  0  0  0  0  0  0  0
  195.2340  172.2000  139.4830 N   0  0  0  0  0  0  0  0  0  0  0  0
  195.9110  172.4320  138.3260 C   0  0  0  0  0  0  0  0  0  0  0  0
  196.5740  171.3340  137.5740 C   0  0  0  0  0  1  0  0  0  0  0  0
  194.7300  173.3400  139.9950 C   0  0  0  0  0  0  0  0  0  0  0  0
  188.3500  172.6980  141.1900 C   0  0  0  0  0  1  0  0  0  0  0  0
  188.2340  173.2630  142.4610 O   0  0  0  0  0  0  0  0  0  0  0  0
  188.8900  174.8230  145.5660 O   0  0  0  0  0  0  0  0  0  0  0  0
  189.1750  175.7130  146.6060 C   0  0  0  0  0  0  0  0  0  0  0  0
  189.9170  175.3400  147.5520 O   0  0  0  0  0  0  0  0  0  0  0  0
  188.6320  177.1160  146.5900 C   0  0  0  0  0  2  0  0  0  0  0  0
  186.0060  179.4150  147.1000 C   0  0  0  0  0  2  0  0  0  0  0  0
  186.2030  177.4560  145.6910 C   0  0  1  0  0  3  0  0  0  0  0  0
  186.8680  178.4350  147.8510 C   0  0  0  0  0  2  0  0  0  0  0  0
  186.7280  176.1000  147.5630 O   0  0  0  0  0  1  0  0  0  0  0  0
  187.1310  177.2630  146.9120 C   0  0  2  0  0  0  0  0  0  0  0  0
  185.2720  178.6040  146.0590 C   0  0  0  0  0  2  0  0  0  0  0  0
  186.3010  178.8650  143.5480 C   0  0  0  0  0  2  0  0  0  0  0  0
  185.2190  178.4800  142.5270 C   0  0  2  0  0  3  0  0  0  0  0  0
  186.9180  176.6190  142.0060 C   0  0  0  0  0  2  0  0  0  0  0  0
  184.0280  178.0070  143.2140 N   0  0  0  0  0  1  0  0  0  0  0  0
  186.8130  176.3500  143.5020 C   0  0  0  0  0  2  0  0  0  0  0  0
  185.7040  177.4180  141.5230 C   0  0  2  0  0  3  0  0  0  0  0  0
  186.8820  177.6540  144.3180 C   0  0  2  0  0  3  0  0  0  0  0  0
  186.0180  178.0510  140.2130 C   0  0  0  0  0  3  0  0  0  0  0  0
  186.5280  177.3980  139.3150 O   0  0  0  0  0  0  0  0  0  0  0  0
  1 27  1  1  0  0  0
  2  1  1  0  0  0  0
  3  7  1  6  0  0  0
  3  1  1  0  0  0  0
  4 26  1  1  0  0  0
  4  3  1  0  0  0  0
  4  2  1  0  0  0  0
  5  6  1  0  0  0  0
  5 16  1  1  0  0  0
  5 17  1  0  0  0  0
  6 10  1  6  0  0  0
  6 17  1  0  0  0  0
  7  9  1  0  0  0  0
  8 15  1  0  0  0  0
  9 10  1  6  0  0  0
 11 15  1  0  0  0  0
 11  9  1  0  0  0  0
 12 13  1  0  0  0  0
 12 11  1  0  0  0  0
 13  7  1  0  0  0  0
 14 13  2  0  0  0  0
 15  5  1  0  0  0  0
 16 17  1  0  0  0  0
 18 12  1  0  0  0  0
 19 22  2  0  0  0  0
 19 20  1  0  0  0  0
 20 24  1  0  0  0  0
 21 24  2  0  0  0  0
 22 21  1  0  0  0  0
 23 22  1  0  0  0  0
 24 18  1  0  0  0  0
 25 26  1  0  0  0  0
 27 28  1  0  0  0  0
 28 29  2  0  0  0  0
 30 28  1  0  0  0  0
 30 35  1  0  0  0  0
 31 33  1  0  0  0  0
 32 36  1  0  0  0  0
 32 35  1  0  0  0  0
 35 34  1  0  0  0  0
 35 33  1  0  0  0  0
 36 31  1  0  0  0  0
 37 43  1  0  0  0  0
 38 40  1  0  0  0  0
 38 37  1  0  0  0  0
 39 41  1  0  0  0  0
 41 43  1  0  0  0  0
 42 39  1  0  0  0  0
 42 38  1  0  0  0  0
 43 32  1  0  0  0  0
 44 42  1  0  0  0  0
 45 44  2  0  0  0  0
M  END
>  <MODEL>
1

>  <REMARK>
 VINA RESULT:      -7.6      0.000      0.000
  Name = 
  9 active torsions:
  status: ('A' for Active; 'I' for Inactive)
    1  A    between atoms: N_1  and  C_16
    2  A    between atoms: N_5  and  C_29
    3  A    between atoms: C_7  and  O_39
    4  A    between atoms: C_20  and  C_28
    5  A    between atoms: C_20  and  C_32
    6  A    between atoms: C_22  and  C_43
    7  A    between atoms: C_27  and  C_31
    8  A    between atoms: C_32  and  O_39
    9  A    between atoms: O_33  and  C_38
                            x       y       z     vdW  Elec       q    Type
                         _______ _______ _______ _____ _____    ______ ____

>  <TORSDO>
F 9

$$$$
=
 OpenBabel11062420463D

 45 52  0  0  1  0  0  0  0  0999 V2000
  191.9820  175.9120  146.4940 C   0  0  1  0  0  3  0  0  0  0  0  0
  191.0340  175.7570  147.6710 C   0  0  0  0  0  2  0  0  0  0  0  0
  190.9120  176.6890  145.7490 C   0  0  2  0  0  3  0  0  0  0  0  0
  189.9520  176.5060  146.9100 C   0  0  2  0  0  3  0  0  0  0  0  0
  187.3310  176.6110  141.6800 C   0  0  1  0  0  0  0  0  0  0  0  0
  187.3850  177.5500  142.8750 C   0  0  1  0  0  3  0  0  0  0  0  0
  190.4630  175.9770  144.5500 N   0  0  0  0  0  0  0  0  0  0  0  0
  188.3650  174.7560  140.4900 O   0  0  0  0  0  1  0  0  0  0  0  0
  189.7300  176.6380  143.4910 C   0  0  2  0  0  3  0  0  0  0  0  0
  188.3360  177.0530  143.9810 C   0  0  0  0  0  2  0  0  0  0  0  0
  189.6910  175.6390  142.3060 C   0  0  1  0  0  3  0  0  0  0  0  0
  190.3200  174.3260  142.7840 C   0  0  2  0  0  3  0  0  0  0  0  0
  190.7880  174.6540  144.1520 C   0  0  0  0  0  0  0  0  0  0  0  0
  191.3900  173.8360  144.8960 O   0  0  0  0  0  0  0  0  0  0  0  0
  188.2840  175.3890  141.7350 C   0  0  1  0  0  3  0  0  0  0  0  0
  187.4370  177.3170  140.4700 O   0  0  0  0  0  0  0  0  0  0  0  0
  188.0780  177.9090  141.5700 C   0  0  2  0  0  3  0  0  0  0  0  0
  191.4530  174.0030  141.9300 N   0  0  0  0  0  2  0  0  0  0  0  0
  191.1190  170.7370  139.8650 C   0  0  0  0  0  3  0  0  0  0  0  0
  190.2850  171.6800  140.9850 S   0  0  0  0  0  0  0  0  0  0  0  0
  192.5540  172.5210  140.3370 N   0  0  0  0  0  0  0  0  0  0  0  0
  192.3380  171.3730  139.6390 C   0  0  0  0  0  0  0  0  0  0  0  0
  193.3450  170.8340  138.6880 C   0  0  0  0  0  1  0  0  0  0  0  0
  191.5040  172.8230  141.1250 C   0  0  0  0  0  0  0  0  0  0  0  0
  188.3340  177.9050  147.4740 C   0  0  0  0  0  1  0  0  0  0  0  0
  189.7200  177.7390  147.5240 O   0  0  0  0  0  0  0  0  0  0  0  0
  193.0550  176.7820  146.8390 O   0  0  0  0  0  0  0  0  0  0  0  0
  194.2820  176.7510  146.1710 C   0  0  0  0  0  0  0  0  0  0  0  0
  194.8100  177.8320  145.7990 O   0  0  0  0  0  0  0  0  0  0  0  0
  194.9900  175.4480  145.9200 C   0  0  0  0  0  2  0  0  0  0  0  0
  197.5440  175.0250  143.5240 C   0  0  0  0  0  2  0  0  0  0  0  0
  195.6570  173.6430  144.1520 C   0  0  1  0  0  3  0  0  0  0  0  0
  196.4300  175.9680  143.8960 C   0  0  0  0  0  2  0  0  0  0  0  0
  194.1470  175.4160  143.7080 O   0  0  0  0  0  1  0  0  0  0  0  0
  195.2900  175.1160  144.4440 C   0  0  2  0  0  0  0  0  0  0  0  0
  196.8830  173.6950  143.2490 C   0  0  0  0  0  2  0  0  0  0  0  0
  197.1160  171.8290  145.2340 C   0  0  0  0  0  2  0  0  0  0  0  0
  196.8200  170.4210  144.6930 C   0  0  2  0  0  3  0  0  0  0  0  0
  194.8800  170.6020  146.3740 C   0  0  0  0  0  2  0  0  0  0  0  0
  196.3980  170.4970  143.3040 N   0  0  0  0  0  1  0  0  0  0  0  0
  194.5770  171.8880  145.6150 C   0  0  0  0  0  2  0  0  0  0  0  0
  195.7590  169.6780  145.5260 C   0  0  2  0  0  3  0  0  0  0  0  0
  195.8530  172.7150  145.3710 C   0  0  2  0  0  3  0  0  0  0  0  0
  196.4090  168.6680  146.4070 C   0  0  0  0  0  3  0  0  0  0  0  0
  196.5280  168.8760  147.6050 O   0  0  0  0  0  0  0  0  0  0  0  0
  1 27  1  1  0  0  0
  1  2  1  0  0  0  0
  3  7  1  6  0  0  0
  3  1  1  0  0  0  0
  3  4  1  0  0  0  0
  4 26  1  1  0  0  0
  4  2  1  0  0  0  0
  5 16  1  6  0  0  0
  5 15  1  0  0  0  0
  5  6  1  0  0  0  0
  6 10  1  1  0  0  0
  8 15  1  0  0  0  0
  9 10  1  1  0  0  0
  9  7  1  0  0  0  0
 11 12  1  0  0  0  0
 11  9  1  0  0  0  0
 12 13  1  0  0  0  0
 13  7  1  0  0  0  0
 13 14  2  0  0  0  0
 15 11  1  0  0  0  0
 16 17  1  0  0  0  0
 17  5  1  0  0  0  0
 17  6  1  0  0  0  0
 18 12  1  0  0  0  0
 19 20  1  0  0  0  0
 20 24  1  0  0  0  0
 21 24  2  0  0  0  0
 22 19  2  0  0  0  0
 22 21  1  0  0  0  0
 23 22  1  0  0  0  0
 24 18  1  0  0  0  0
 25 26  1  0  0  0  0
 28 27  1  0  0  0  0
 29 28  2  0  0  0  0
 30 28  1  0  0  0  0
 31 33  1  0  0  0  0
 32 35  1  0  0  0  0
 32 43  1  0  0  0  0
 33 35  1  0  0  0  0
 34 35  1  0  0  0  0
 35 30  1  0  0  0  0
 36 31  1  0  0  0  0
 36 32  1  0  0  0  0
 37 43  1  0  0  0  0
 38 37  1  0  0  0  0
 38 42  1  0  0  0  0
 40 38  1  0  0  0  0
 41 39  1  0  0  0  0
 42 39  1  0  0  0  0
 42 44  1  0  0  0  0
 43 41  1  0  0  0  0
 44 45  2  0  0  0  0
M  END
>  <MODEL>
2

>  <REMARK>
 VINA RESULT:      -7.3      3.094      8.388
  Name = 
  9 active torsions:
  status: ('A' for Active; 'I' for Inactive)
    1  A    between atoms: N_1  and  C_16
    2  A    between atoms: N_5  and  C_29
    3  A    between atoms: C_7  and  O_39
    4  A    between atoms: C_20  and  C_28
    5  A    between atoms: C_20  and  C_32
    6  A    between atoms: C_22  and  C_43
    7  A    between atoms: C_27  and  C_31
    8  A    between atoms: C_32  and  O_39
    9  A    between atoms: O_33  and  C_38
                            x       y       z     vdW  Elec       q    Type
                         _______ _______ _______ _____ _____    ______ ____

>  <TORSDO>
F 9

$$$$
=
 OpenBabel11062420463D

 45 52  0  0  1  0  0  0  0  0999 V2000
  192.2700  175.3660  146.5270 C   0  0  1  0  0  3  0  0  0  0  0  0
  191.5370  175.2710  147.8550 C   0  0  0  0  0  2  0  0  0  0  0  0
  191.3660  176.5160  146.1240 C   0  0  2  0  0  3  0  0  0  0  0  0
  190.6100  176.4000  147.4350 C   0  0  2  0  0  3  0  0  0  0  0  0
  190.1390  172.6870  142.4880 C   0  0  1  0  0  0  0  0  0  0  0  0
  191.2440  172.6800  143.5330 C   0  0  1  0  0  3  0  0  0  0  0  0
  190.5270  176.1670  144.9760 N   0  0  0  0  0  0  0  0  0  0  0  0
  188.2410  173.8710  141.5290 O   0  0  0  0  0  1  0  0  0  0  0  0
  190.2250  174.7930  144.6300 C   0  0  2  0  0  3  0  0  0  0  0  0
  191.4910  174.0700  144.1480 C   0  0  0  0  0  2  0  0  0  0  0  0
  189.1080  174.8540  143.5580 C   0  0  1  0  0  3  0  0  0  0  0  0
  188.8780  176.3290  143.2090 C   0  0  2  0  0  3  0  0  0  0  0  0
  189.7680  177.0420  144.1550 C   0  0  0  0  0  0  0  0  0  0  0  0
  189.8620  178.2960  144.2110 O   0  0  0  0  0  0  0  0  0  0  0  0
  189.4040  174.0370  142.2880 C   0  0  1  0  0  3  0  0  0  0  0  0
  189.2480  171.6170  142.6800 O   0  0  0  0  0  0  0  0  0  0  0  0
  189.8760  172.0930  143.8430 C   0  0  2  0  0  3  0  0  0  0  0  0
  187.4880  176.6690  143.4730 N   0  0  0  0  0  2  0  0  0  0  0  0
  185.4590  177.9260  140.4170 C   0  0  0  0  0  3  0  0  0  0  0  0
  186.9980  177.3930  140.8490 S   0  0  0  0  0  0  0  0  0  0  0  0
  185.3230  177.4910  142.7100 N   0  0  0  0  0  0  0  0  0  0  0  0
  184.6890  177.9020  141.5780 C   0  0  0  0  0  0  0  0  0  0  0  0
  183.2560  178.2970  141.5830 C   0  0  0  0  0  1  0  0  0  0  0  0
  186.6090  177.1720  142.4650 C   0  0  0  0  0  0  0  0  0  0  0  0
  189.7020  178.2970  148.1200 C   0  0  0  0  0  1  0  0  0  0  0  0
  190.8620  177.5250  148.2220 O   0  0  0  0  0  0  0  0  0  0  0  0
  193.5950  175.8470  146.7330 O   0  0  0  0  0  0  0  0  0  0  0  0
  194.2910  176.5530  145.7470 C   0  0  0  0  0  0  0  0  0  0  0  0
  194.8350  177.6490  146.0410 O   0  0  0  0  0  0  0  0  0  0  0  0
  194.4210  176.0030  144.3530 C   0  0  0  0  0  2  0  0  0  0  0  0
  196.6330  173.2850  144.7490 C   0  0  0  0  0  2  0  0  0  0  0  0
  195.8250  174.4520  142.7880 C   0  0  1  0  0  3  0  0  0  0  0  0
  196.4630  174.7260  145.1510 C   0  0  0  0  0  2  0  0  0  0  0  0
  196.6150  176.5210  143.6320 O   0  0  0  0  0  1  0  0  0  0  0  0
  195.8070  175.4410  143.9750 C   0  0  2  0  0  0  0  0  0  0  0  0
  196.6890  173.2820  143.2400 C   0  0  0  0  0  2  0  0  0  0  0  0
  194.4870  172.5440  141.7120 C   0  0  0  0  0  2  0  0  0  0  0  0
  194.7120  172.4350  140.1960 C   0  0  2  0  0  3  0  0  0  0  0  0
  192.9890  174.3470  140.1920 C   0  0  0  0  0  2  0  0  0  0  0  0
  196.0590  172.8620  139.8580 N   0  0  0  0  0  1  0  0  0  0  0  0
  193.9750  174.9970  141.1550 C   0  0  0  0  0  2  0  0  0  0  0  0
  193.6830  173.2450  139.3850 C   0  0  2  0  0  3  0  0  0  0  0  0
  194.4570  174.0040  142.2290 C   0  0  2  0  0  3  0  0  0  0  0  0
  192.6570  172.3380  138.8010 C   0  0  0  0  0  3  0  0  0  0  0  0
  191.4880  172.4230  139.1460 O   0  0  0  0  0  0  0  0  0  0  0  0
  1 27  1  1  0  0  0
  1  2  1  0  0  0  0
  3  7  1  6  0  0  0
  3  1  1  0  0  0  0
  3  4  1  0  0  0  0
  4  2  1  0  0  0  0
  4 26  1  1  0  0  0
  5 16  1  6  0  0  0
  5  6  1  0  0  0  0
  5 17  1  0  0  0  0
  6 17  1  0  0  0  0
  6 10  1  1  0  0  0
  8 15  1  0  0  0  0
  9 10  1  6  0  0  0
  9  7  1  0  0  0  0
 11  9  1  0  0  0  0
 12 18  1  0  0  0  0
 12 11  1  0  0  0  0
 12 13  1  0  0  0  0
 13 14  2  0  0  0  0
 13  7  1  0  0  0  0
 15  5  1  0  0  0  0
 15 11  1  0  0  0  0
 16 17  1  0  0  0  0
 19 20  1  0  0  0  0
 19 22  2  0  0  0  0
 20 24  1  0  0  0  0
 22 23  1  0  0  0  0
 22 21  1  0  0  0  0
 24 21  2  0  0  0  0
 24 18  1  0  0  0  0
 25 26  1  0  0  0  0
 28 29  2  0  0  0  0
 28 27  1  0  0  0  0
 30 28  1  0  0  0  0
 31 33  1  0  0  0  0
 32 36  1  0  0  0  0
 32 35  1  0  0  0  0
 34 35  1  0  0  0  0
 35 30  1  0  0  0  0
 35 33  1  0  0  0  0
 36 31  1  0  0  0  0
 37 43  1  0  0  0  0
 38 37  1  0  0  0  0
 39 41  1  0  0  0  0
 40 38  1  0  0  0  0
 41 43  1  0  0  0  0
 42 39  1  0  0  0  0
 42 38  1  0  0  0  0
 43 32  1  0  0  0  0
 44 45  2  0  0  0  0
 44 42  1  0  0  0  0
M  END
>  <MODEL>
3

>  <REMARK>
 VINA RESULT:      -7.3      2.571      8.418
  Name = 
  9 active torsions:
  status: ('A' for Active; 'I' for Inactive)
    1  A    between atoms: N_1  and  C_16
    2  A    between atoms: N_5  and  C_29
    3  A    between atoms: C_7  and  O_39
    4  A    between atoms: C_20  and  C_28
    5  A    between atoms: C_20  and  C_32
    6  A    between atoms: C_22  and  C_43
    7  A    between atoms: C_27  and  C_31
    8  A    between atoms: C_32  and  O_39
    9  A    between atoms: O_33  and  C_38
                            x       y       z     vdW  Elec       q    Type
                         _______ _______ _______ _____ _____    ______ ____

>  <TORSDO>
F 9

$$$$
=
 OpenBabel11062420463D

 45 52  0  0  1  0  0  0  0  0999 V2000
  190.3050  175.1510  144.5150 C   0  0  1  0  0  3  0  0  0  0  0  0
  190.9450  176.5280  144.5700 C   0  0  0  0  0  2  0  0  0  0  0  0
  191.5480  174.5610  145.1550 C   0  0  2  0  0  3  0  0  0  0  0  0
  192.2020  175.9300  145.1810 C   0  0  2  0  0  3  0  0  0  0  0  0
  195.8150  171.2780  144.5220 C   0  0  1  0  0  0  0  0  0  0  0  0
  195.5030  172.2110  145.6820 C   0  0  1  0  0  3  0  0  0  0  0  0
  192.2390  173.6410  144.2490 N   0  0  0  0  0  0  0  0  0  0  0  0
  195.0950  170.3630  142.3840 O   0  0  0  0  0  1  0  0  0  0  0  0
  193.1250  172.6030  144.7320 C   0  0  2  0  0  3  0  0  0  0  0  0
  194.3870  173.2200  145.3510 C   0  0  0  0  0  2  0  0  0  0  0  0
  193.4220  171.6900  143.5160 C   0  0  1  0  0  3  0  0  0  0  0  0
  192.7720  172.3290  142.2840 C   0  0  2  0  0  3  0  0  0  0  0  0
  192.0480  173.4920  142.8500 C   0  0  0  0  0  0  0  0  0  0  0  0
  191.3550  174.2830  142.1590 O   0  0  0  0  0  0  0  0  0  0  0  0
  194.9190  171.4350  143.2660 C   0  0  1  0  0  3  0  0  0  0  0  0
  195.9030  169.9420  144.9510 O   0  0  0  0  0  0  0  0  0  0  0  0
  195.0460  170.7610  145.7060 C   0  0  2  0  0  3  0  0  0  0  0  0
  191.8300  171.3860  141.7010 N   0  0  0  0  0  2  0  0  0  0  0  0
  191.4560  171.5560  137.8450 C   0  0  0  0  0  3  0  0  0  0  0  0
  192.2860  172.2760  139.1220 S   0  0  0  0  0  0  0  0  0  0  0  0
  190.6770  170.4640  139.7600 N   0  0  0  0  0  0  0  0  0  0  0  0
  190.6290  170.5850  138.4050 C   0  0  0  0  0  0  0  0  0  0  0  0
  189.7460  169.7240  137.5740 C   0  0  0  0  0  1  0  0  0  0  0  0
  191.5530  171.3340  140.3000 C   0  0  0  0  0  0  0  0  0  0  0  0
  193.6880  176.6500  146.6530 C   0  0  0  0  0  1  0  0  0  0  0  0
  192.3290  176.3630  146.5020 O   0  0  0  0  0  0  0  0  0  0  0  0
  189.2150  175.0800  145.4270 O   0  0  0  0  0  0  0  0  0  0  0  0
  189.1680  175.8550  146.5900 C   0  0  0  0  0  0  0  0  0  0  0  0
  189.6260  175.3840  147.6640 O   0  0  0  0  0  0  0  0  0  0  0  0
  188.6060  177.2500  146.5660 C   0  0  0  0  0  2  0  0  0  0  0  0
  185.9540  179.5180  147.0810 C   0  0  0  0  0  2  0  0  0  0  0  0
  186.1720  177.5630  145.6690 C   0  0  1  0  0  3  0  0  0  0  0  0
  186.8290  178.5470  147.8290 C   0  0  0  0  0  2  0  0  0  0  0  0
  186.7150  176.2110  147.5390 O   0  0  0  0  0  1  0  0  0  0  0  0
  187.1040  177.3790  146.8890 C   0  0  2  0  0  0  0  0  0  0  0  0
  185.2290  178.7000  146.0390 C   0  0  0  0  0  2  0  0  0  0  0  0
  186.2200  178.9460  143.5080 C   0  0  0  0  0  2  0  0  0  0  0  0
  185.1580  178.5030  142.4890 C   0  0  2  0  0  3  0  0  0  0  0  0
  186.9350  176.7070  141.9980 C   0  0  0  0  0  2  0  0  0  0  0  0
  183.9860  177.9910  143.1790 N   0  0  0  0  0  1  0  0  0  0  0  0
  186.8360  176.4540  143.4980 C   0  0  0  0  0  2  0  0  0  0  0  0
  185.6900  177.4480  141.5010 C   0  0  2  0  0  3  0  0  0  0  0  0
  186.8480  177.7710  144.2960 C   0  0  2  0  0  3  0  0  0  0  0  0
  185.9830  178.0770  140.1830 C   0  0  0  0  0  3  0  0  0  0  0  0
  186.5670  177.4480  139.3130 O   0  0  0  0  0  0  0  0  0  0  0  0
  1  2  1  0  0  0  0
  1  3  1  0  0  0  0
  1 27  1  1  0  0  0
  2  4  1  0  0  0  0
  3  7  1  6  0  0  0
  3  4  1  0  0  0  0
  4 26  1  1  0  0  0
  5 16  1  6  0  0  0
  5  6  1  0  0  0  0
  5 17  1  0  0  0  0
  6 10  1  6  0  0  0
  6 17  1  0  0  0  0
  7  9  1  0  0  0  0
  8 15  1  0  0  0  0
  9 10  1  6  0  0  0
 11  9  1  0  0  0  0
 12 13  1  0  0  0  0
 12 11  1  0  0  0  0
 13  7  1  0  0  0  0
 14 13  2  0  0  0  0
 15 11  1  0  0  0  0
 15  5  1  0  0  0  0
 16 17  1  0  0  0  0
 18 12  1  0  0  0  0
 19 22  2  0  0  0  0
 19 20  1  0  0  0  0
 20 24  1  0  0  0  0
 21 24  2  0  0  0  0
 22 21  1  0  0  0  0
 23 22  1  0  0  0  0
 24 18  1  0  0  0  0
 26 25  1  0  0  0  0
 27 28  1  0  0  0  0
 28 29  2  0  0  0  0
 30 28  1  0  0  0  0
 30 35  1  0  0  0  0
 31 33  1  0  0  0  0
 32 36  1  0  0  0  0
 32 35  1  0  0  0  0
 35 34  1  0  0  0  0
 35 33  1  0  0  0  0
 36 31  1  0  0  0  0
 37 43  1  0  0  0  0
 38 40  1  0  0  0  0
 38 37  1  0  0  0  0
 39 41  1  0  0  0  0
 41 43  1  0  0  0  0
 42 39  1  0  0  0  0
 42 38  1  0  0  0  0
 43 32  1  0  0  0  0
 44 42  1  0  0  0  0
 45 44  2  0  0  0  0
M  END
>  <MODEL>
4

>  <REMARK>
 VINA RESULT:      -7.2      2.535      3.403
  Name = 
  9 active torsions:
  status: ('A' for Active; 'I' for Inactive)
    1  A    between atoms: N_1  and  C_16
    2  A    between atoms: N_5  and  C_29
    3  A    between atoms: C_7  and  O_39
    4  A    between atoms: C_20  and  C_28
    5  A    between atoms: C_20  and  C_32
    6  A    between atoms: C_22  and  C_43
    7  A    between atoms: C_27  and  C_31
    8  A    between atoms: C_32  and  O_39
    9  A    between atoms: O_33  and  C_38
                            x       y       z     vdW  Elec       q    Type
                         _______ _______ _______ _____ _____    ______ ____

>  <TORSDO>
F 9

$$$$
=
 OpenBabel11062420463D

 45 52  0  0  1  0  0  0  0  0999 V2000
  191.8700  172.8850  142.4680 C   0  0  1  0  0  3  0  0  0  0  0  0
  191.0160  172.1270  141.4650 C   0  0  0  0  0  2  0  0  0  0  0  0
  191.8000  174.1140  141.5810 C   0  0  2  0  0  3  0  0  0  0  0  0
  190.9760  173.3490  140.5620 C   0  0  2  0  0  3  0  0  0  0  0  0
  196.5800  176.4080  142.7110 C   0  0  1  0  0  0  0  0  0  0  0  0
  195.3410  176.3220  143.5890 C   0  0  1  0  0  3  0  0  0  0  0  0
  193.1180  174.4790  141.0560 N   0  0  0  0  0  0  0  0  0  0  0  0
  197.6300  175.8240  140.5940 O   0  0  0  0  0  1  0  0  0  0  0  0
  194.2670  174.6600  141.9180 C   0  0  2  0  0  3  0  0  0  0  0  0
  194.0840  175.8980  142.8050 C   0  0  0  0  0  2  0  0  0  0  0  0
  195.4980  174.7540  140.9790 C   0  0  1  0  0  3  0  0  0  0  0  0
  194.9830  174.7530  139.5350 C   0  0  2  0  0  3  0  0  0  0  0  0
  193.5250  174.5460  139.6980 C   0  0  0  0  0  0  0  0  0  0  0  0
  192.7220  174.4620  138.7320 O   0  0  0  0  0  0  0  0  0  0  0  0
  196.3950  175.9790  141.2330 C   0  0  1  0  0  3  0  0  0  0  0  0
  197.6800  175.7750  143.3170 O   0  0  0  0  0  0  0  0  0  0  0  0
  196.4210  175.2540  143.6610 C   0  0  2  0  0  3  0  0  0  0  0  0
  195.5730  173.6320  138.8210 N   0  0  0  0  0  2  0  0  0  0  0  0
  197.1610  174.4800  135.3860 C   0  0  0  0  0  3  0  0  0  0  0  0
  196.3520  175.1980  136.6780 S   0  0  0  0  0  0  0  0  0  0  0  0
  196.7190  172.7260  136.8680 N   0  0  0  0  0  0  0  0  0  0  0  0
  197.2660  173.1230  135.6870 C   0  0  0  0  0  0  0  0  0  0  0  0
  197.9410  172.1620  134.7750 C   0  0  0  0  0  1  0  0  0  0  0  0
  196.1760  173.7650  137.5320 C   0  0  0  0  0  0  0  0  0  0  0  0
  189.2610  173.6930  139.2080 C   0  0  0  0  0  1  0  0  0  0  0  0
  189.6770  173.8610  140.5300 O   0  0  0  0  0  0  0  0  0  0  0  0
  191.1330  173.1140  143.6650 O   0  0  0  0  0  0  0  0  0  0  0  0
  191.4560  174.1470  144.5500 C   0  0  0  0  0  0  0  0  0  0  0  0
  192.4750  174.0370  145.2810 O   0  0  0  0  0  0  0  0  0  0  0  0
  190.6190  175.3950  144.6170 C   0  0  0  0  0  2  0  0  0  0  0  0
  189.6400  177.5670  147.2180 C   0  0  0  0  0  2  0  0  0  0  0  0
  188.3690  176.2490  145.6340 C   0  0  1  0  0  3  0  0  0  0  0  0
  190.4330  176.3100  146.9760 C   0  0  0  0  0  2  0  0  0  0  0  0
  189.4550  174.2630  146.3380 O   0  0  0  0  0  1  0  0  0  0  0  0
  189.7250  175.5440  145.8640 C   0  0  2  0  0  0  0  0  0  0  0  0
  188.2330  177.2590  146.7650 C   0  0  0  0  0  2  0  0  0  0  0  0
  187.2990  178.1780  144.3220 C   0  0  0  0  0  2  0  0  0  0  0  0
  185.8010  177.9640  144.0560 C   0  0  2  0  0  3  0  0  0  0  0  0
  186.7400  176.5000  142.1590 C   0  0  0  0  0  2  0  0  0  0  0  0
  185.2040  177.2010  145.1410 N   0  0  0  0  0  1  0  0  0  0  0  0
  187.5090  175.8350  143.2940 C   0  0  0  0  0  2  0  0  0  0  0  0
  185.5320  177.2640  142.7110 C   0  0  2  0  0  3  0  0  0  0  0  0
  188.1330  176.8760  144.2420 C   0  0  2  0  0  3  0  0  0  0  0  0
  185.0670  178.2520  141.6990 C   0  0  0  0  0  3  0  0  0  0  0  0
  185.4730  178.1970  140.5470 O   0  0  0  0  0  0  0  0  0  0  0  0
  1 27  1  1  0  0  0
  2  1  1  0  0  0  0
  3  7  1  6  0  0  0
  3  1  1  0  0  0  0
  4 26  1  1  0  0  0
  4  2  1  0  0  0  0
  4  3  1  0  0  0  0
  5 16  1  1  0  0  0
  5  6  1  0  0  0  0
  5 17  1  0  0  0  0
  6 10  1  6  0  0  0
  6 17  1  0  0  0  0
  7  9  1  0  0  0  0
  8 15  1  0  0  0  0
  9 10  1  6  0  0  0
 11 15  1  0  0  0  0
 11  9  1  0  0  0  0
 12 13  1  0  0  0  0
 12 11  1  0  0  0  0
 13  7  1  0  0  0  0
 14 13  2  0  0  0  0
 15  5  1  0  0  0  0
 16 17  1  0  0  0  0
 18 12  1  0  0  0  0
 19 22  2  0  0  0  0
 19 20  1  0  0  0  0
 20 24  1  0  0  0  0
 21 24  2  0  0  0  0
 22 21  1  0  0  0  0
 23 22  1  0  0  0  0
 24 18  1  0  0  0  0
 25 26  1  0  0  0  0
 27 28  1  0  0  0  0
 28 30  1  0  0  0  0
 28 29  2  0  0  0  0
 30 35  1  0  0  0  0
 32 35  1  0  0  0  0
 32 36  1  0  0  0  0
 33 31  1  0  0  0  0
 35 34  1  0  0  0  0
 35 33  1  0  0  0  0
 36 31  1  0  0  0  0
 38 37  1  0  0  0  0
 38 40  1  0  0  0  0
 39 42  1  0  0  0  0
 39 41  1  0  0  0  0
 41 43  1  0  0  0  0
 42 38  1  0  0  0  0
 43 37  1  0  0  0  0
 43 32  1  0  0  0  0
 44 42  1  0  0  0  0
 45 44  2  0  0  0  0
M  END
>  <MODEL>
5

>  <REMARK>
 VINA RESULT:      -7.2      1.908      2.819
  Name = 
  9 active torsions:
  status: ('A' for Active; 'I' for Inactive)
    1  A    between atoms: N_1  and  C_16
    2  A    between atoms: N_5  and  C_29
    3  A    between atoms: C_7  and  O_39
    4  A    between atoms: C_20  and  C_28
    5  A    between atoms: C_20  and  C_32
    6  A    between atoms: C_22  and  C_43
    7  A    between atoms: C_27  and  C_31
    8  A    between atoms: C_32  and  O_39
    9  A    between atoms: O_33  and  C_38
                            x       y       z     vdW  Elec       q    Type
                         _______ _______ _______ _____ _____    ______ ____

>  <TORSDO>
F 9

$$$$
=
 OpenBabel11062420463D

 45 52  0  0  1  0  0  0  0  0999 V2000
  193.5000  175.4370  144.7620 C   0  0  1  0  0  3  0  0  0  0  0  0
  193.5460  174.7320  146.1070 C   0  0  0  0  0  2  0  0  0  0  0  0
  192.3540  176.2960  145.2640 C   0  0  2  0  0  3  0  0  0  0  0  0
  192.3760  175.5700  146.5970 C   0  0  2  0  0  3  0  0  0  0  0  0
  189.8170  172.9440  141.8420 C   0  0  1  0  0  0  0  0  0  0  0  0
  191.2600  172.8930  142.3200 C   0  0  1  0  0  3  0  0  0  0  0  0
  191.1190  176.0380  144.5210 N   0  0  0  0  0  0  0  0  0  0  0  0
  187.6580  174.0600  141.9730 O   0  0  0  0  0  1  0  0  0  0  0  0
  190.7390  174.7080  144.0940 C   0  0  2  0  0  3  0  0  0  0  0  0
  191.7030  174.1940  143.0150 C   0  0  0  0  0  2  0  0  0  0  0  0
  189.2720  174.8150  143.6050 C   0  0  1  0  0  3  0  0  0  0  0  0
  188.8740  176.2940  143.6470 C   0  0  2  0  0  3  0  0  0  0  0  0
  190.0600  176.9450  144.2530 C   0  0  0  0  0  0  0  0  0  0  0  0
  190.1320  178.1800  144.4860 O   0  0  0  0  0  0  0  0  0  0  0  0
  189.0280  174.2280  142.2030 C   0  0  1  0  0  3  0  0  0  0  0  0
  189.1210  171.7730  142.1920 O   0  0  0  0  0  0  0  0  0  0  0  0
  190.1680  172.1330  143.0570 C   0  0  2  0  0  3  0  0  0  0  0  0
  187.7170  176.4500  144.5150 N   0  0  0  0  0  2  0  0  0  0  0  0
  185.3420  179.3860  143.6320 C   0  0  0  0  0  3  0  0  0  0  0  0
  186.7690  178.6460  143.1260 S   0  0  0  0  0  0  0  0  0  0  0  0
  185.6880  177.6440  145.1520 N   0  0  0  0  0  0  0  0  0  0  0  0
  184.9060  178.6840  144.7540 C   0  0  0  0  0  0  0  0  0  0  0  0
  183.6560  179.0430  145.4740 C   0  0  0  0  0  1  0  0  0  0  0  0
  186.7580  177.4960  144.3460 C   0  0  0  0  0  0  0  0  0  0  0  0
  191.6430  176.8970  148.2070 C   0  0  0  0  0  1  0  0  0  0  0  0
  192.8130  176.4410  147.5970 O   0  0  0  0  0  0  0  0  0  0  0  0
  194.6620  176.2410  144.5900 O   0  0  0  0  0  0  0  0  0  0  0  0
  195.6460  175.9320  143.6460 C   0  0  0  0  0  0  0  0  0  0  0  0
  196.4580  176.8240  143.2860 O   0  0  0  0  0  0  0  0  0  0  0  0
  195.7640  174.5420  143.0820 C   0  0  0  0  0  2  0  0  0  0  0  0
  196.8120  173.1320  146.1400 C   0  0  0  0  0  2  0  0  0  0  0  0
  196.3660  172.1590  143.9680 C   0  0  1  0  0  3  0  0  0  0  0  0
  197.2260  174.1590  145.1200 C   0  0  0  0  0  2  0  0  0  0  0  0
  197.9350  173.6100  142.9410 O   0  0  0  0  0  1  0  0  0  0  0  0
  196.8060  173.6260  143.7550 C   0  0  2  0  0  0  0  0  0  0  0  0
  196.7550  171.8170  145.4000 C   0  0  0  0  0  2  0  0  0  0  0  0
  194.2870  170.8360  144.6840 C   0  0  0  0  0  2  0  0  0  0  0  0
  194.3260  169.3670  144.2320 C   0  0  2  0  0  3  0  0  0  0  0  0
  193.5350  170.4280  142.0250 C   0  0  0  0  0  2  0  0  0  0  0  0
  195.7000  168.8930  144.1920 N   0  0  0  0  0  1  0  0  0  0  0  0
  194.7730  171.2980  142.2060 C   0  0  0  0  0  2  0  0  0  0  0  0
  193.6540  169.1510  142.8630 C   0  0  2  0  0  3  0  0  0  0  0  0
  194.8940  171.8160  143.6510 C   0  0  2  0  0  3  0  0  0  0  0  0
  192.3050  168.5470  143.0400 C   0  0  0  0  0  3  0  0  0  0  0  0
  191.3870  168.8540  142.2950 O   0  0  0  0  0  0  0  0  0  0  0  0
  1 27  1  1  0  0  0
  1  3  1  0  0  0  0
  1  2  1  0  0  0  0
  2  4  1  0  0  0  0
  3  7  1  6  0  0  0
  3  4  1  0  0  0  0
  4 26  1  1  0  0  0
  5 16  1  6  0  0  0
  5 15  1  0  0  0  0
  5  6  1  0  0  0  0
  5 17  1  0  0  0  0
  6 10  1  1  0  0  0
  6 17  1  0  0  0  0
  8 15  1  0  0  0  0
  9 10  1  6  0  0  0
  9  7  1  0  0  0  0
 11 12  1  0  0  0  0
 11  9  1  0  0  0  0
 12 13  1  0  0  0  0
 12 18  1  0  0  0  0
 13 14  2  0  0  0  0
 13  7  1  0  0  0  0
 15 11  1  0  0  0  0
 16 17  1  0  0  0  0
 19 22  2  0  0  0  0
 20 19  1  0  0  0  0
 20 24  1  0  0  0  0
 22 21  1  0  0  0  0
 22 23  1  0  0  0  0
 24 18  1  0  0  0  0
 24 21  2  0  0  0  0
 26 25  1  0  0  0  0
 28 27  1  0  0  0  0
 29 28  2  0  0  0  0
 30 28  1  0  0  0  0
 30 35  1  0  0  0  0
 32 36  1  0  0  0  0
 33 31  1  0  0  0  0
 34 35  1  0  0  0  0
 35 32  1  0  0  0  0
 35 33  1  0  0  0  0
 36 31  1  0  0  0  0
 38 37  1  0  0  0  0
 39 41  1  0  0  0  0
 39 42  1  0  0  0  0
 40 38  1  0  0  0  0
 41 43  1  0  0  0  0
 42 44  1  0  0  0  0
 42 38  1  0  0  0  0
 43 32  1  0  0  0  0
 43 37  1  0  0  0  0
 45 44  2  0  0  0  0
M  END
>  <MODEL>
6

>  <REMARK>
 VINA RESULT:      -7.2      3.250      9.383
  Name = 
  9 active torsions:
  status: ('A' for Active; 'I' for Inactive)
    1  A    between atoms: N_1  and  C_16
    2  A    between atoms: N_5  and  C_29
    3  A    between atoms: C_7  and  O_39
    4  A    between atoms: C_20  and  C_28
    5  A    between atoms: C_20  and  C_32
    6  A    between atoms: C_22  and  C_43
    7  A    between atoms: C_27  and  C_31
    8  A    between atoms: C_32  and  O_39
    9  A    between atoms: O_33  and  C_38
                            x       y       z     vdW  Elec       q    Type
                         _______ _______ _______ _____ _____    ______ ____

>  <TORSDO>
F 9

$$$$
=
 OpenBabel11062420463D

 45 52  0  0  1  0  0  0  0  0999 V2000
  193.9520  176.1860  144.0970 C   0  0  1  0  0  3  0  0  0  0  0  0
  195.3810  176.5140  144.4950 C   0  0  0  0  0  2  0  0  0  0  0  0
  194.3400  174.7260  143.9490 C   0  0  2  0  0  3  0  0  0  0  0  0
  195.7760  175.0570  144.3130 C   0  0  2  0  0  3  0  0  0  0  0  0
  191.0560  172.5200  140.2420 C   0  0  1  0  0  0  0  0  0  0  0  0
  190.7950  172.7440  141.7240 C   0  0  1  0  0  3  0  0  0  0  0  0
  194.2180  174.2720  142.5620 N   0  0  0  0  0  0  0  0  0  0  0  0
  192.5900  172.7980  138.3720 O   0  0  0  0  0  1  0  0  0  0  0  0
  192.9400  174.1880  141.8870 C   0  0  2  0  0  3  0  0  0  0  0  0
  192.0760  173.0810  142.5100 C   0  0  0  0  0  2  0  0  0  0  0  0
  193.2580  173.9470  140.3890 C   0  0  1  0  0  3  0  0  0  0  0  0
  194.7740  173.7650  140.2600 C   0  0  2  0  0  3  0  0  0  0  0  0
  195.2630  174.0180  141.6350 C   0  0  0  0  0  0  0  0  0  0  0  0
  196.4800  173.9870  141.9580 O   0  0  0  0  0  0  0  0  0  0  0  0
  192.5140  172.7520  139.7680 C   0  0  1  0  0  3  0  0  0  0  0  0
  190.1210  173.2080  139.4490 O   0  0  0  0  0  0  0  0  0  0  0  0
  190.3980  173.7920  140.6960 C   0  0  2  0  0  3  0  0  0  0  0  0
  195.2970  174.7710  139.3480 N   0  0  0  0  0  2  0  0  0  0  0  0
  197.0630  173.4040  136.1770 C   0  0  0  0  0  3  0  0  0  0  0  0
  196.2760  172.8870  137.5740 S   0  0  0  0  0  0  0  0  0  0  0  0
  196.4870  175.3690  137.3040 N   0  0  0  0  0  0  0  0  0  0  0  0
  197.0690  174.7970  136.2160 C   0  0  0  0  0  0  0  0  0  0  0  0
  197.6720  175.6150  135.1300 C   0  0  0  0  0  1  0  0  0  0  0  0
  195.9990  174.4380  138.1470 C   0  0  0  0  0  0  0  0  0  0  0  0
  197.2830  173.8160  145.3520 C   0  0  0  0  0  1  0  0  0  0  0  0
  196.0830  174.5000  145.5560 O   0  0  0  0  0  0  0  0  0  0  0  0
  193.0840  176.3410  145.2150 O   0  0  0  0  0  0  0  0  0  0  0  0
  192.2570  175.3070  145.6620 C   0  0  0  0  0  0  0  0  0  0  0  0
  192.6840  174.5100  146.5380 O   0  0  0  0  0  0  0  0  0  0  0  0
  190.8570  175.1550  145.1330 C   0  0  0  0  0  2  0  0  0  0  0  0
  189.3900  177.6160  147.1910 C   0  0  0  0  0  2  0  0  0  0  0  0
  188.4590  176.1110  145.5390 C   0  0  1  0  0  3  0  0  0  0  0  0
  190.1920  176.3430  147.2740 C   0  0  0  0  0  2  0  0  0  0  0  0
  189.3310  174.2300  146.6880 O   0  0  0  0  0  1  0  0  0  0  0  0
  189.7210  175.4460  146.1350 C   0  0  2  0  0  0  0  0  0  0  0  0
  188.1060  177.2480  146.4880 C   0  0  0  0  0  2  0  0  0  0  0  0
  187.7870  177.8990  143.8240 C   0  0  0  0  0  2  0  0  0  0  0  0
  186.3580  177.7110  143.2920 C   0  0  2  0  0  3  0  0  0  0  0  0
  187.5530  175.9840  141.8040 C   0  0  0  0  0  2  0  0  0  0  0  0
  185.5160  177.1150  144.3160 N   0  0  0  0  0  1  0  0  0  0  0  0
  188.0440  175.4380  143.1390 C   0  0  0  0  0  2  0  0  0  0  0  0
  186.3110  176.8580  142.0100 C   0  0  2  0  0  3  0  0  0  0  0  0
  188.5370  176.5650  144.0650 C   0  0  2  0  0  3  0  0  0  0  0  0
  186.1140  177.7280  140.8180 C   0  0  0  0  0  3  0  0  0  0  0  0
  186.7590  177.5350  139.7980 O   0  0  0  0  0  0  0  0  0  0  0  0
  1  2  1  0  0  0  0
  1 27  1  1  0  0  0
  3  7  1  6  0  0  0
  3  1  1  0  0  0  0
  3  4  1  0  0  0  0
  4  2  1  0  0  0  0
  4 26  1  1  0  0  0
  5 16  1  6  0  0  0
  5 17  1  0  0  0  0
  5  6  1  0  0  0  0
  6 10  1  1  0  0  0
  8 15  1  0  0  0  0
  9 10  1  1  0  0  0
  9  7  1  0  0  0  0
 11  9  1  0  0  0  0
 12 11  1  0  0  0  0
 12 13  1  0  0  0  0
 13 14  2  0  0  0  0
 13  7  1  0  0  0  0
 15  5  1  0  0  0  0
 15 11  1  0  0  0  0
 16 17  1  0  0  0  0
 17  6  1  0  0  0  0
 18 12  1  0  0  0  0
 19 22  2  0  0  0  0
 19 20  1  0  0  0  0
 20 24  1  0  0  0  0
 21 24  2  0  0  0  0
 22 21  1  0  0  0  0
 23 22  1  0  0  0  0
 24 18  1  0  0  0  0
 25 26  1  0  0  0  0
 27 28  1  0  0  0  0
 28 29  2  0  0  0  0
 30 28  1  0  0  0  0
 30 35  1  0  0  0  0
 31 33  1  0  0  0  0
 32 35  1  0  0  0  0
 32 36  1  0  0  0  0
 35 34  1  0  0  0  0
 35 33  1  0  0  0  0
 36 31  1  0  0  0  0
 37 43  1  0  0  0  0
 38 37  1  0  0  0  0
 38 40  1  0  0  0  0
 39 42  1  0  0  0  0
 39 41  1  0  0  0  0
 41 43  1  0  0  0  0
 42 38  1  0  0  0  0
 43 32  1  0  0  0  0
 44 42  1  0  0  0  0
 45 44  2  0  0  0  0
M  END
>  <MODEL>
7

>  <REMARK>
 VINA RESULT:      -7.1      1.912      4.451
  Name = 
  9 active torsions:
  status: ('A' for Active; 'I' for Inactive)
    1  A    between atoms: N_1  and  C_16
    2  A    between atoms: N_5  and  C_29
    3  A    between atoms: C_7  and  O_39
    4  A    between atoms: C_20  and  C_28
    5  A    between atoms: C_20  and  C_32
    6  A    between atoms: C_22  and  C_43
    7  A    between atoms: C_27  and  C_31
    8  A    between atoms: C_32  and  O_39
    9  A    between atoms: O_33  and  C_38
                            x       y       z     vdW  Elec       q    Type
                         _______ _______ _______ _____ _____    ______ ____

>  <TORSDO>
F 9

$$$$
=
 OpenBabel11062420463D

 45 52  0  0  1  0  0  0  0  0999 V2000
  193.2630  175.4960  144.2700 C   0  0  1  0  0  3  0  0  0  0  0  0
  194.5570  176.2020  144.6400 C   0  0  0  0  0  2  0  0  0  0  0  0
  194.0040  174.1720  144.2510 C   0  0  2  0  0  3  0  0  0  0  0  0
  195.3040  174.8790  144.5870 C   0  0  2  0  0  3  0  0  0  0  0  0
  191.7680  170.5220  140.9240 C   0  0  1  0  0  0  0  0  0  0  0  0
  191.4870  170.7540  142.4010 C   0  0  1  0  0  3  0  0  0  0  0  0
  194.0310  173.5870  142.9090 N   0  0  0  0  0  0  0  0  0  0  0  0
  192.9990  171.2220  138.9440 O   0  0  0  0  0  1  0  0  0  0  0  0
  192.8740  172.9400  142.3260 C   0  0  2  0  0  3  0  0  0  0  0  0
  192.5490  171.6420  143.0770 C   0  0  0  0  0  2  0  0  0  0  0  0
  193.2140  172.7150  140.8310 C   0  0  1  0  0  3  0  0  0  0  0  0
  194.6700  173.1410  140.6150 C   0  0  2  0  0  3  0  0  0  0  0  0
  195.0600  173.6890  141.9360 C   0  0  0  0  0  0  0  0  0  0  0  0
  196.1960  174.1730  142.1810 O   0  0  0  0  0  0  0  0  0  0  0  0
  192.9940  171.2730  140.3420 C   0  0  1  0  0  3  0  0  0  0  0  0
  190.6110  170.7080  140.1480 O   0  0  0  0  0  0  0  0  0  0  0  0
  190.6690  171.4620  141.3320 C   0  0  2  0  0  3  0  0  0  0  0  0
  194.7150  174.1870  139.6050 N   0  0  0  0  0  2  0  0  0  0  0  0
  197.7730  174.0890  137.2230 C   0  0  0  0  0  3  0  0  0  0  0  0
  197.0960  173.2750  138.5340 S   0  0  0  0  0  0  0  0  0  0  0  0
  195.8290  175.2830  137.7330 N   0  0  0  0  0  0  0  0  0  0  0  0
  196.9240  175.1560  136.9350 C   0  0  0  0  0  0  0  0  0  0  0  0
  197.1920  176.0990  135.8180 C   0  0  0  0  0  1  0  0  0  0  0  0
  195.7850  174.3120  138.6660 C   0  0  0  0  0  0  0  0  0  0  0  0
  196.8840  173.7880  145.6860 C   0  0  0  0  0  1  0  0  0  0  0  0
  195.7110  174.5230  145.8740 O   0  0  0  0  0  0  0  0  0  0  0  0
  192.3580  175.5240  145.3690 O   0  0  0  0  0  0  0  0  0  0  0  0
  191.0870  176.0960  145.2690 C   0  0  0  0  0  0  0  0  0  0  0  0
  190.8560  177.1930  145.8430 O   0  0  0  0  0  0  0  0  0  0  0  0
  190.0040  175.4330  144.4630 C   0  0  0  0  0  2  0  0  0  0  0  0
  188.4220  174.8990  141.3560 C   0  0  0  0  0  2  0  0  0  0  0  0
  188.4010  176.7710  142.8920 C   0  0  1  0  0  3  0  0  0  0  0  0
  189.7920  174.9530  141.9810 C   0  0  0  0  0  2  0  0  0  0  0  0
  190.7640  176.9360  142.8010 O   0  0  0  0  0  1  0  0  0  0  0  0
  189.7450  176.0250  143.0630 C   0  0  2  0  0  0  0  0  0  0  0  0
  187.8130  176.2620  141.5820 C   0  0  0  0  0  2  0  0  0  0  0  0
  185.9310  176.7110  143.5840 C   0  0  0  0  0  2  0  0  0  0  0  0
  185.2880  178.1070  143.6310 C   0  0  2  0  0  3  0  0  0  0  0  0
  186.4700  178.1500  145.9170 C   0  0  0  0  0  2  0  0  0  0  0  0
  185.9030  178.9750  142.6410 N   0  0  0  0  0  1  0  0  0  0  0  0
  187.7000  177.8060  145.0880 C   0  0  0  0  0  2  0  0  0  0  0  0
  185.3790  178.7530  145.0260 C   0  0  2  0  0  3  0  0  0  0  0  0
  187.4020  176.6920  144.0660 C   0  0  2  0  0  3  0  0  0  0  0  0
  184.0660  178.6650  145.7230 C   0  0  0  0  0  3  0  0  0  0  0  0
  184.0100  178.3360  146.8980 O   0  0  0  0  0  0  0  0  0  0  0  0
  1  2  1  0  0  0  0
  1 27  1  1  0  0  0
  3  7  1  6  0  0  0
  3  1  1  0  0  0  0
  3  4  1  0  0  0  0
  4  2  1  0  0  0  0
  4 26  1  1  0  0  0
  5 16  1  6  0  0  0
  5 17  1  0  0  0  0
  5  6  1  0  0  0  0
  6 10  1  1  0  0  0
  8 15  1  0  0  0  0
  9  7  1  0  0  0  0
  9 10  1  1  0  0  0
 11  9  1  0  0  0  0
 12 11  1  0  0  0  0
 12 13  1  0  0  0  0
 13 14  2  0  0  0  0
 13  7  1  0  0  0  0
 15 11  1  0  0  0  0
 15  5  1  0  0  0  0
 16 17  1  0  0  0  0
 17  6  1  0  0  0  0
 18 12  1  0  0  0  0
 19 20  1  0  0  0  0
 20 24  1  0  0  0  0
 21 24  2  0  0  0  0
 22 19  2  0  0  0  0
 22 21  1  0  0  0  0
 23 22  1  0  0  0  0
 24 18  1  0  0  0  0
 25 26  1  0  0  0  0
 28 27  1  0  0  0  0
 28 29  2  0  0  0  0
 30 28  1  0  0  0  0
 31 36  1  0  0  0  0
 31 33  1  0  0  0  0
 32 35  1  0  0  0  0
 32 43  1  0  0  0  0
 33 35  1  0  0  0  0
 34 35  1  0  0  0  0
 35 30  1  0  0  0  0
 36 32  1  0  0  0  0
 37 38  1  0  0  0  0
 37 43  1  0  0  0  0
 38 42  1  0  0  0  0
 40 38  1  0  0  0  0
 41 39  1  0  0  0  0
 42 44  1  0  0  0  0
 42 39  1  0  0  0  0
 43 41  1  0  0  0  0
 44 45  2  0  0  0  0
M  END
>  <MODEL>
8

>  <REMARK>
 VINA RESULT:      -7.1      2.251      5.073
  Name = 
  9 active torsions:
  status: ('A' for Active; 'I' for Inactive)
    1  A    between atoms: N_1  and  C_16
    2  A    between atoms: N_5  and  C_29
    3  A    between atoms: C_7  and  O_39
    4  A    between atoms: C_20  and  C_28
    5  A    between atoms: C_20  and  C_32
    6  A    between atoms: C_22  and  C_43
    7  A    between atoms: C_27  and  C_31
    8  A    between atoms: C_32  and  O_39
    9  A    between atoms: O_33  and  C_38
                            x       y       z     vdW  Elec       q    Type
                         _______ _______ _______ _____ _____    ______ ____

>  <TORSDO>
F 9

$$$$
=
 OpenBabel11062420463D

 45 52  0  0  1  0  0  0  0  0999 V2000
  192.9790  174.8870  145.1520 C   0  0  1  0  0  3  0  0  0  0  0  0
  193.1710  176.0500  144.1930 C   0  0  0  0  0  2  0  0  0  0  0  0
  194.4260  174.4850  144.9370 C   0  0  2  0  0  3  0  0  0  0  0  0
  194.6110  175.6250  143.9530 C   0  0  2  0  0  3  0  0  0  0  0  0
  196.5660  169.5130  145.2260 C   0  0  1  0  0  0  0  0  0  0  0  0
  196.8150  170.7040  146.1370 C   0  0  1  0  0  3  0  0  0  0  0  0
  194.5330  173.1780  144.2860 N   0  0  0  0  0  0  0  0  0  0  0  0
  195.3540  168.6210  143.3120 O   0  0  0  0  0  1  0  0  0  0  0  0
  194.8510  171.9730  145.0230 C   0  0  2  0  0  3  0  0  0  0  0  0
  196.2930  172.0270  145.5450 C   0  0  0  0  0  2  0  0  0  0  0  0
  194.5940  170.7930  144.0510 C   0  0  1  0  0  3  0  0  0  0  0  0
  194.2430  171.3860  142.6820 C   0  0  2  0  0  3  0  0  0  0  0  0
  194.2000  172.8430  142.9470 C   0  0  0  0  0  0  0  0  0  0  0  0
  193.9200  173.7020  142.0700 O   0  0  0  0  0  0  0  0  0  0  0  0
  195.7690  169.8070  143.9280 C   0  0  1  0  0  3  0  0  0  0  0  0
  196.0380  168.4240  145.9410 O   0  0  0  0  0  0  0  0  0  0  0  0
  195.7270  169.6920  146.4600 C   0  0  2  0  0  3  0  0  0  0  0  0
  192.9290  170.9090  142.2810 N   0  0  0  0  0  2  0  0  0  0  0  0
  192.4690  170.2540  138.4860 C   0  0  0  0  0  3  0  0  0  0  0  0
  193.6160  170.7760  139.6040 S   0  0  0  0  0  0  0  0  0  0  0  0
  191.3650  170.2060  140.5460 N   0  0  0  0  0  0  0  0  0  0  0  0
  191.3050  169.9870  139.2040 C   0  0  0  0  0  0  0  0  0  0  0  0
  190.0690  169.4860  138.5470 C   0  0  0  0  0  1  0  0  0  0  0  0
  192.5830  170.6440  140.9190 C   0  0  0  0  0  0  0  0  0  0  0  0
  196.4440  176.7840  143.5140 C   0  0  0  0  0  1  0  0  0  0  0  0
  195.4740  176.5780  144.4970 O   0  0  0  0  0  0  0  0  0  0  0  0
  192.8070  175.3710  146.4800 O   0  0  0  0  0  0  0  0  0  0  0  0
  191.6050  175.2190  147.1760 C   0  0  0  0  0  0  0  0  0  0  0  0
  191.5590  175.5090  148.4000 O   0  0  0  0  0  0  0  0  0  0  0  0
  190.3620  174.7430  146.4750 C   0  0  0  0  0  2  0  0  0  0  0  0
  189.9940  177.9300  145.0090 C   0  0  0  0  0  2  0  0  0  0  0  0
  188.8910  175.8130  144.6000 C   0  0  1  0  0  3  0  0  0  0  0  0
  189.8980  177.2330  146.3420 C   0  0  0  0  0  2  0  0  0  0  0  0
  188.2190  175.6670  146.8680 O   0  0  0  0  0  1  0  0  0  0  0  0
  189.3510  175.8360  146.0750 C   0  0  2  0  0  0  0  0  0  0  0  0
  188.9760  177.2560  144.1200 C   0  0  0  0  0  2  0  0  0  0  0  0
  189.8050  175.4110  142.2350 C   0  0  0  0  0  2  0  0  0  0  0  0
  188.7190  174.9720  141.2400 C   0  0  2  0  0  3  0  0  0  0  0  0
  189.1560  172.6970  142.3620 C   0  0  0  0  0  2  0  0  0  0  0  0
  187.4410  175.5650  141.5990 N   0  0  0  0  0  1  0  0  0  0  0  0
  188.8740  173.4750  143.6410 C   0  0  0  0  0  2  0  0  0  0  0  0
  188.5830  173.4410  141.1500 C   0  0  2  0  0  3  0  0  0  0  0  0
  189.6130  174.8270  143.6560 C   0  0  2  0  0  3  0  0  0  0  0  0
  189.2320  172.9360  139.9090 C   0  0  0  0  0  3  0  0  0  0  0  0
  189.2970  173.6420  138.9130 O   0  0  0  0  0  0  0  0  0  0  0  0
  1 27  1  1  0  0  0
  2  1  1  0  0  0  0
  3  7  1  6  0  0  0
  3  1  1  0  0  0  0
  4  2  1  0  0  0  0
  4 26  1  1  0  0  0
  4  3  1  0  0  0  0
  5 16  1  6  0  0  0
  5  6  1  0  0  0  0
  5 17  1  0  0  0  0
  6 10  1  6  0  0  0
  6 17  1  0  0  0  0
  7  9  1  0  0  0  0
  8 15  1  0  0  0  0
  9 10  1  6  0  0  0
 11  9  1  0  0  0  0
 12 13  1  0  0  0  0
 12 11  1  0  0  0  0
 13  7  1  0  0  0  0
 14 13  2  0  0  0  0
 15 11  1  0  0  0  0
 15  5  1  0  0  0  0
 16 17  1  0  0  0  0
 18 12  1  0  0  0  0
 19 22  2  0  0  0  0
 19 20  1  0  0  0  0
 20 24  1  0  0  0  0
 21 24  2  0  0  0  0
 22 21  1  0  0  0  0
 23 22  1  0  0  0  0
 24 18  1  0  0  0  0
 25 26  1  0  0  0  0
 27 28  1  0  0  0  0
 28 29  2  0  0  0  0
 30 28  1  0  0  0  0
 31 33  1  0  0  0  0
 32 35  1  0  0  0  0
 35 33  1  0  0  0  0
 35 30  1  0  0  0  0
 35 34  1  0  0  0  0
 36 32  1  0  0  0  0
 36 31  1  0  0  0  0
 37 43  1  0  0  0  0
 38 40  1  0  0  0  0
 38 37  1  0  0  0  0
 39 41  1  0  0  0  0
 41 43  1  0  0  0  0
 42 38  1  0  0  0  0
 42 39  1  0  0  0  0
 43 32  1  0  0  0  0
 44 42  1  0  0  0  0
 45 44  2  0  0  0  0
M  END
>  <MODEL>
9

>  <REMARK>
 VINA RESULT:      -7.1      3.363      4.933
  Name = 
  9 active torsions:
  status: ('A' for Active; 'I' for Inactive)
    1  A    between atoms: N_1  and  C_16
    2  A    between atoms: N_5  and  C_29
    3  A    between atoms: C_7  and  O_39
    4  A    between atoms: C_20  and  C_28
    5  A    between atoms: C_20  and  C_32
    6  A    between atoms: C_22  and  C_43
    7  A    between atoms: C_27  and  C_31
    8  A    between atoms: C_32  and  O_39
    9  A    between atoms: O_33  and  C_38
                            x       y       z     vdW  Elec       q    Type
                         _______ _______ _______ _____ _____    ______ ____

>  <TORSDO>
F 9

$$$$
