=
 OpenBabel11072408433D

 36 39  0  0  1  0  0  0  0  0999 V2000
  183.7340  178.2860  142.7330 S   0  0  0  0  0  0  0  0  0  0  0  0
  186.0070  177.9770  144.2300 N   0  0  0  0  0  0  0  0  0  0  0  0
  184.8520  178.8710  144.0690 C   0  0  2  0  0  3  0  0  0  0  0  0
  187.1110  177.5170  140.6760 C   0  0  2  0  0  3  0  0  0  0  0  0
  190.6630  174.8330  142.5830 C   0  0  0  0  0  3  0  0  0  0  0  0
  189.5320  175.4600  142.4220 C   0  0  0  0  0  0  0  0  0  0  0  0
  185.0540  178.1740  141.5180 C   0  0  0  0  0  0  0  0  0  0  0  0
  186.0800  177.5140  139.5370 C   0  0  0  0  0  2  0  0  0  0  0  0
  188.4020  176.0920  142.2720 C   0  0  0  0  0  0  0  0  0  0  0  0
  187.7430  176.1410  140.9110 C   0  0  0  0  0  2  0  0  0  0  0  0
  186.2820  177.8680  141.8490 C   0  0  1  0  0  3  0  0  0  0  0  0
  184.8420  178.0250  140.1260 N   0  0  0  0  0  0  0  0  0  0  0  0
  186.6920  177.5490  143.2120 C   0  0  0  0  0  0  0  0  0  0  0  0
  187.8030  176.7160  143.3820 O   0  0  0  0  0  0  0  0  0  0  0  0
  184.0790  178.9690  145.3740 C   0  0  0  0  0  2  0  0  0  0  0  0
  184.6710  178.0510  146.4340 C   0  0  0  0  0  2  0  0  0  0  0  0
  187.2070  179.3250  148.7610 O   0  0  0  0  0  0  0  0  0  0  0  0
  186.7010  178.6090  147.8590 C   0  0  0  0  0  0  0  0  0  0  0  0
  185.3410  178.8230  147.4730 N   0  0  0  0  0  2  0  0  0  0  0  0
  187.5440  177.5730  147.1940 C   0  0  0  0  0  2  0  0  0  0  0  0
  188.8920  177.9020  147.3340 O   0  0  0  0  0  0  0  0  0  0  0  0
  189.7390  176.5930  146.6730 P   0  0  0  0  0  0  0  0  0  0  0  0
  190.8170  175.9660  147.8150 O   0  0  0  0  0  1  0  0  0  0  0  0
  190.5160  177.0650  145.4670 O   0  0  0  0  0  0  0  0  0  0  0  0
  188.6530  175.3850  146.1980 O   0  0  0  0  0  1  0  0  0  0  0  0
  191.9540  175.5570  142.3780 C   0  0  0  0  0  2  0  0  0  0  0  0
  193.7470  174.9520  146.4280 C   0  0  0  0  0  2  0  0  0  0  0  0
  194.5470  176.1530  145.3940 S   0  0  0  0  0  0  0  0  0  0  0  0
  193.2440  173.8120  145.5640 C   0  0  0  0  0  2  0  0  0  0  0  0
  193.0140  175.2030  143.4230 C   0  0  1  0  0  0  0  0  0  0  0  0
  195.8900  175.6390  144.9550 O   0  0  0  0  0  0  0  0  0  0  0  0
  193.5390  176.4490  144.0080 N   0  0  0  0  0  2  0  0  0  0  0  0
  192.3060  174.3330  144.4760 C   0  0  0  0  0  2  0  0  0  0  0  0
  194.7320  177.4320  146.1590 O   0  0  0  0  0  0  0  0  0  0  0  0
  194.9680  173.8090  142.2220 C   0  0  0  0  0  3  0  0  0  0  0  0
  194.0900  174.4360  142.7590 C   0  0  0  0  0  0  0  0  0  0  0  0
  1  3  1  0  0  0  0
  3  2  1  0  0  0  0
  3 15  1  1  0  0  0
  4  8  1  6  0  0  0
  4 10  1  0  0  0  0
  4 11  1  0  0  0  0
  6  5  2  0  0  0  0
  7  1  1  0  0  0  0
  8 12  1  0  0  0  0
  9  6  2  0  0  0  0
  9 14  1  0  0  0  0
 10  9  1  0  0  0  0
 11  7  1  6  0  0  0
 11 13  1  0  0  0  0
 12  7  2  0  0  0  0
 13 14  1  0  0  0  0
 13  2  2  0  0  0  0
 15 16  1  0  0  0  0
 16 19  1  0  0  0  0
 18 17  2  0  0  0  0
 19 18  1  0  0  0  0
 20 21  1  0  0  0  0
 20 18  1  0  0  0  0
 22 21  1  0  0  0  0
 22 23  1  0  0  0  0
 24 22  2  0  0  0  0
 25 22  1  0  0  0  0
 26  5  1  0  0  0  0
 28 34  2  0  0  0  0
 28 27  1  0  0  0  0
 29 27  1  0  0  0  0
 30 26  1  6  0  0  0
 30 32  1  0  0  0  0
 30 33  1  0  0  0  0
 31 28  2  0  0  0  0
 32 28  1  0  0  0  0
 33 29  1  0  0  0  0
 35 36  3  0  0  0  0
 36 30  1  0  0  0  0
M  END
>  <MODEL>
1

>  <REMARK>
 VINA RESULT:      -7.3      0.000      0.000
  Name = 
  9 active torsions:
  status: ('A' for Active; 'I' for Inactive)
    1  A    between atoms: C_3  and  C_8
    2  A    between atoms: C_3  and  C_36
    3  A    between atoms: C_5  and  C_11
    4  A    between atoms: P_7  and  O_14
    5  A    between atoms: C_11  and  O_14
    6  A    between atoms: C_12  and  C_32
    7  A    between atoms: C_17  and  C_26
    8  A    between atoms: C_17  and  C_32
    9  A    between atoms: N_18  and  C_36
                            x       y       z     vdW  Elec       q    Type
                         _______ _______ _______ _____ _____    ______ ____

>  <TORSDO>
F 9

$$$$
=
 OpenBabel11072408433D

 36 39  0  0  1  0  0  0  0  0999 V2000
  184.3280  178.6280  144.1650 S   0  0  0  0  0  0  0  0  0  0  0  0
  186.4830  177.3760  143.0310 N   0  0  0  0  0  0  0  0  0  0  0  0
  185.0240  177.4860  142.9050 C   0  0  2  0  0  3  0  0  0  0  0  0
  186.8870  176.8590  146.7240 C   0  0  2  0  0  3  0  0  0  0  0  0
  191.6120  176.5160  145.7200 C   0  0  0  0  0  3  0  0  0  0  0  0
  190.3450  176.8080  145.6380 C   0  0  0  0  0  0  0  0  0  0  0  0
  185.1230  177.7840  145.5380 C   0  0  0  0  0  0  0  0  0  0  0  0
  185.9120  177.5180  147.7110 C   0  0  0  0  0  3  0  0  0  0  0  0
  189.0780  177.0950  145.5450 C   0  0  0  0  0  0  0  0  0  0  0  0
  188.2960  177.4590  146.7880 C   0  0  0  0  0  2  0  0  0  0  0  0
  186.2840  177.1950  145.4160 C   0  0  0  0  0  0  0  0  0  0  0  0
  184.7900  177.9920  146.8990 N   0  0  0  0  0  0  0  0  0  0  0  0
  187.0630  177.1980  144.1810 C   0  0  0  0  0  0  0  0  0  0  0  0
  188.4520  177.0720  144.2850 O   0  0  0  0  0  0  0  0  0  0  0  0
  184.6540  177.9760  141.5140 C   0  0  0  0  0  2  0  0  0  0  0  0
  183.3070  178.6850  141.5210 C   0  0  0  0  0  2  0  0  0  0  0  0
  180.2310  177.7340  139.7600 O   0  0  0  0  0  0  0  0  0  0  0  0
  180.9780  178.3610  140.5530 C   0  0  0  0  0  0  0  0  0  0  0  0
  182.3620  178.0110  140.6390 N   0  0  0  0  0  2  0  0  0  0  0  0
  180.4070  179.4770  141.3630 C   0  0  0  0  0  2  0  0  0  0  0  0
  180.3130  179.0870  142.6990 O   0  0  0  0  0  0  0  0  0  0  0  0
  178.6880  178.6700  142.9250 P   0  0  0  0  0  0  0  0  0  0  0  0
  177.7080  179.5720  141.8810 O   0  0  0  0  0  0  0  0  0  0  0  0
  178.2940  178.9670  144.3520 O   0  0  0  0  0  1  0  0  0  0  0  0
  178.4680  177.0200  142.6190 O   0  0  0  0  0  1  0  0  0  0  0  0
  192.0390  175.1050  145.9700 C   0  0  0  0  0  2  0  0  0  0  0  0
  196.1400  175.5320  144.2420 C   0  0  0  0  0  2  0  0  0  0  0  0
  194.8280  175.2620  143.0770 S   0  0  0  0  0  0  0  0  0  0  0  0
  195.8490  174.7450  145.5050 C   0  0  0  0  0  2  0  0  0  0  0  0
  193.3040  174.7150  145.2020 C   0  0  1  0  0  0  0  0  0  0  0  0
  194.9480  173.8880  142.4770 O   0  0  0  0  0  0  0  0  0  0  0  0
  193.3090  175.4200  143.9090 N   0  0  0  0  0  2  0  0  0  0  0  0
  194.4910  175.1370  146.0850 C   0  0  0  0  0  2  0  0  0  0  0  0
  194.9080  176.2890  141.9840 O   0  0  0  0  0  0  0  0  0  0  0  0
  193.2960  172.0560  144.8470 C   0  0  0  0  0  3  0  0  0  0  0  0
  193.3020  173.2500  145.0050 C   0  0  0  0  0  0  0  0  0  0  0  0
  1  7  1  0  0  0  0
  2 13  2  0  0  0  0
  3 15  1  6  0  0  0
  3  2  1  0  0  0  0
  3  1  1  0  0  0  0
  4 10  1  6  0  0  0
  4  8  1  0  0  0  0
  5 26  1  0  0  0  0
  6  5  2  0  0  0  0
  7 12  1  0  0  0  0
  9  6  2  0  0  0  0
  9 10  1  0  0  0  0
 11  7  2  0  0  0  0
 11  4  1  0  0  0  0
 12  8  2  0  0  0  0
 13 14  1  0  0  0  0
 13 11  1  0  0  0  0
 14  9  1  0  0  0  0
 15 16  1  0  0  0  0
 17 18  2  0  0  0  0
 18 19  1  0  0  0  0
 18 20  1  0  0  0  0
 19 16  1  0  0  0  0
 20 21  1  0  0  0  0
 21 22  1  0  0  0  0
 22 24  1  0  0  0  0
 23 22  2  0  0  0  0
 25 22  1  0  0  0  0
 27 29  1  0  0  0  0
 28 32  1  0  0  0  0
 28 27  1  0  0  0  0
 29 33  1  0  0  0  0
 30 36  1  6  0  0  0
 30 26  1  0  0  0  0
 30 33  1  0  0  0  0
 31 28  2  0  0  0  0
 32 30  1  0  0  0  0
 34 28  2  0  0  0  0
 35 36  3  0  0  0  0
M  END
>  <MODEL>
2

>  <REMARK>
 VINA RESULT:      -7.2      4.453      6.456
  Name = 
  9 active torsions:
  status: ('A' for Active; 'I' for Inactive)
    1  A    between atoms: C_3  and  C_8
    2  A    between atoms: C_3  and  C_36
    3  A    between atoms: C_5  and  C_11
    4  A    between atoms: P_7  and  O_14
    5  A    between atoms: C_11  and  O_14
    6  A    between atoms: C_12  and  C_32
    7  A    between atoms: C_17  and  C_26
    8  A    between atoms: C_17  and  C_32
    9  A    between atoms: N_18  and  C_36
                            x       y       z     vdW  Elec       q    Type
                         _______ _______ _______ _____ _____    ______ ____

>  <TORSDO>
F 9

$$$$
=
 OpenBabel11072408433D

 36 39  0  0  1  0  0  0  0  0999 V2000
  184.2700  178.7400  144.5390 S   0  0  0  0  0  0  0  0  0  0  0  0
  186.3480  177.4320  143.3270 N   0  0  0  0  0  0  0  0  0  0  0  0
  184.8860  177.5550  143.2760 C   0  0  2  0  0  3  0  0  0  0  0  0
  186.9470  177.0150  147.0060 C   0  0  2  0  0  3  0  0  0  0  0  0
  191.6070  176.5900  145.7590 C   0  0  0  0  0  3  0  0  0  0  0  0
  190.3400  176.8950  145.7370 C   0  0  0  0  0  0  0  0  0  0  0  0
  185.1300  177.9250  145.8910 C   0  0  0  0  0  0  0  0  0  0  0  0
  186.0330  177.7120  148.0250 C   0  0  0  0  0  3  0  0  0  0  0  0
  189.0730  177.1930  145.7040 C   0  0  0  0  0  0  0  0  0  0  0  0
  188.3630  177.6010  146.9770 C   0  0  0  0  0  2  0  0  0  0  0  0
  186.2770  177.3210  145.7240 C   0  0  0  0  0  0  0  0  0  0  0  0
  184.8740  178.1760  147.2610 N   0  0  0  0  0  0  0  0  0  0  0  0
  186.9870  177.2800  144.4490 C   0  0  0  0  0  0  0  0  0  0  0  0
  188.3790  177.1420  144.4810 O   0  0  0  0  0  0  0  0  0  0  0  0
  184.4450  178.0090  141.8940 C   0  0  0  0  0  2  0  0  0  0  0  0
  185.6210  178.5490  141.0920 C   0  0  0  0  0  2  0  0  0  0  0  0
  186.5230  176.4100  138.2490 O   0  0  0  0  0  0  0  0  0  0  0  0
  186.5530  176.8810  139.4150 C   0  0  0  0  0  0  0  0  0  0  0  0
  185.6650  177.9450  139.7660 N   0  0  0  0  0  2  0  0  0  0  0  0
  187.4980  176.2960  140.4110 C   0  0  0  0  0  2  0  0  0  0  0  0
  188.1080  175.1630  139.8720 O   0  0  0  0  0  0  0  0  0  0  0  0
  188.7990  174.3620  141.1940 P   0  0  0  0  0  0  0  0  0  0  0  0
  187.5850  173.7770  142.2160 O   0  0  0  0  0  1  0  0  0  0  0  0
  189.6670  175.3300  141.9610 O   0  0  0  0  0  1  0  0  0  0  0  0
  189.7500  173.0710  140.6520 O   0  0  0  0  0  0  0  0  0  0  0  0
  192.0330  175.1820  146.0260 C   0  0  0  0  0  2  0  0  0  0  0  0
  196.0950  175.6110  144.2090 C   0  0  0  0  0  2  0  0  0  0  0  0
  194.7730  175.2470  143.0820 S   0  0  0  0  0  0  0  0  0  0  0  0
  195.8430  174.8870  145.5170 C   0  0  0  0  0  2  0  0  0  0  0  0
  193.2950  174.7810  145.2580 C   0  0  1  0  0  0  0  0  0  0  0  0
  194.9170  173.8460  142.5560 O   0  0  0  0  0  0  0  0  0  0  0  0
  193.2630  175.4150  143.9290 N   0  0  0  0  0  2  0  0  0  0  0  0
  194.4850  175.2790  146.0980 C   0  0  0  0  0  2  0  0  0  0  0  0
  194.8110  176.2150  141.9340 O   0  0  0  0  0  0  0  0  0  0  0  0
  193.3540  172.1070  145.0480 C   0  0  0  0  0  3  0  0  0  0  0  0
  193.3250  173.3080  145.1420 C   0  0  0  0  0  0  0  0  0  0  0  0
  1  7  1  0  0  0  0
  2 13  2  0  0  0  0
  3 15  1  6  0  0  0
  3  2  1  0  0  0  0
  3  1  1  0  0  0  0
  4 10  1  6  0  0  0
  4  8  1  0  0  0  0
  5 26  1  0  0  0  0
  6  5  2  0  0  0  0
  7 12  1  0  0  0  0
  9  6  2  0  0  0  0
  9 10  1  0  0  0  0
 11  7  2  0  0  0  0
 11  4  1  0  0  0  0
 12  8  2  0  0  0  0
 13 14  1  0  0  0  0
 13 11  1  0  0  0  0
 14  9  1  0  0  0  0
 16 15  1  0  0  0  0
 17 18  2  0  0  0  0
 18 19  1  0  0  0  0
 18 20  1  0  0  0  0
 19 16  1  0  0  0  0
 21 20  1  0  0  0  0
 21 22  1  0  0  0  0
 22 24  1  0  0  0  0
 22 23  1  0  0  0  0
 25 22  2  0  0  0  0
 27 29  1  0  0  0  0
 28 32  1  0  0  0  0
 28 27  1  0  0  0  0
 29 33  1  0  0  0  0
 30 36  1  6  0  0  0
 30 26  1  0  0  0  0
 30 33  1  0  0  0  0
 31 28  2  0  0  0  0
 32 30  1  0  0  0  0
 34 28  2  0  0  0  0
 35 36  3  0  0  0  0
M  END
>  <MODEL>
3

>  <REMARK>
 VINA RESULT:      -7.0      2.460      5.096
  Name = 
  9 active torsions:
  status: ('A' for Active; 'I' for Inactive)
    1  A    between atoms: C_3  and  C_8
    2  A    between atoms: C_3  and  C_36
    3  A    between atoms: C_5  and  C_11
    4  A    between atoms: P_7  and  O_14
    5  A    between atoms: C_11  and  O_14
    6  A    between atoms: C_12  and  C_32
    7  A    between atoms: C_17  and  C_26
    8  A    between atoms: C_17  and  C_32
    9  A    between atoms: N_18  and  C_36
                            x       y       z     vdW  Elec       q    Type
                         _______ _______ _______ _____ _____    ______ ____

>  <TORSDO>
F 9

$$$$
=
 OpenBabel11072408433D

 36 39  0  0  1  0  0  0  0  0999 V2000
  183.9010  178.2760  142.7200 S   0  0  0  0  0  0  0  0  0  0  0  0
  186.0150  177.7210  144.3700 N   0  0  0  0  0  0  0  0  0  0  0  0
  184.9510  178.7130  144.1630 C   0  0  2  0  0  3  0  0  0  0  0  0
  187.3610  177.3160  140.8930 C   0  0  2  0  0  3  0  0  0  0  0  0
  190.5250  174.2740  142.9380 C   0  0  0  0  0  3  0  0  0  0  0  0
  189.4630  174.9980  142.7210 C   0  0  0  0  0  0  0  0  0  0  0  0
  185.3010  178.1060  141.6050 C   0  0  0  0  0  0  0  0  0  0  0  0
  186.4270  177.4450  139.6800 C   0  0  0  0  0  2  0  0  0  0  0  0
  188.4030  175.7270  142.5150 C   0  0  0  0  0  0  0  0  0  0  0  0
  187.8610  175.8840  141.1110 C   0  0  0  0  0  2  0  0  0  0  0  0
  186.4700  177.6870  142.0140 C   0  0  1  0  0  3  0  0  0  0  0  0
  185.1890  178.0320  140.1960 N   0  0  0  0  0  0  0  0  0  0  0  0
  186.7440  177.2800  143.3890 C   0  0  0  0  0  0  0  0  0  0  0  0
  187.7680  176.3520  143.6030 O   0  0  0  0  0  0  0  0  0  0  0  0
  184.0860  178.8210  145.4080 C   0  0  0  0  0  2  0  0  0  0  0  0
  184.6180  177.9350  146.5270 C   0  0  0  0  0  2  0  0  0  0  0  0
  187.1600  179.3580  148.7590 O   0  0  0  0  0  0  0  0  0  0  0  0
  186.6670  178.6250  147.8640 C   0  0  0  0  0  0  0  0  0  0  0  0
  185.2760  178.7350  147.5520 N   0  0  0  0  0  2  0  0  0  0  0  0
  187.5560  177.6790  147.1280 C   0  0  0  0  0  2  0  0  0  0  0  0
  188.8750  177.8480  147.5510 O   0  0  0  0  0  0  0  0  0  0  0  0
  189.7380  176.5860  146.8230 P   0  0  0  0  0  0  0  0  0  0  0  0
  188.7060  175.2800  146.5170 O   0  0  0  0  0  1  0  0  0  0  0  0
  190.8390  176.1380  147.7530 O   0  0  0  0  0  1  0  0  0  0  0  0
  190.4200  177.1180  145.3680 O   0  0  0  0  0  0  0  0  0  0  0  0
  191.8820  174.8970  142.8660 C   0  0  0  0  0  2  0  0  0  0  0  0
  195.1220  171.8530  143.3300 C   0  0  0  0  0  2  0  0  0  0  0  0
  193.6780  171.6110  144.3330 S   0  0  0  0  0  0  0  0  0  0  0  0
  195.3920  173.3390  143.2010 C   0  0  0  0  0  2  0  0  0  0  0  0
  192.9620  174.0680  143.5650 C   0  0  1  0  0  0  0  0  0  0  0  0
  194.0060  171.8710  145.7770 O   0  0  0  0  0  0  0  0  0  0  0  0
  192.4410  172.7090  143.7940 N   0  0  0  0  0  2  0  0  0  0  0  0
  194.1770  174.0600  142.6200 C   0  0  0  0  0  2  0  0  0  0  0  0
  193.1920  170.1980  144.1810 O   0  0  0  0  0  0  0  0  0  0  0  0
  193.5880  175.2640  145.8830 C   0  0  0  0  0  3  0  0  0  0  0  0
  193.3050  174.7250  144.8430 C   0  0  0  0  0  0  0  0  0  0  0  0
  1  3  1  0  0  0  0
  3  2  1  0  0  0  0
  3 15  1  1  0  0  0
  4  8  1  6  0  0  0
  4 10  1  0  0  0  0
  4 11  1  0  0  0  0
  6  5  2  0  0  0  0
  7  1  1  0  0  0  0
  8 12  1  0  0  0  0
  9  6  2  0  0  0  0
  9 14  1  0  0  0  0
 10  9  1  0  0  0  0
 11  7  1  6  0  0  0
 11 13  1  0  0  0  0
 12  7  2  0  0  0  0
 13 14  1  0  0  0  0
 13  2  2  0  0  0  0
 15 16  1  0  0  0  0
 16 19  1  0  0  0  0
 18 17  2  0  0  0  0
 19 18  1  0  0  0  0
 20 21  1  0  0  0  0
 20 18  1  0  0  0  0
 22 21  1  0  0  0  0
 22 24  1  0  0  0  0
 23 22  1  0  0  0  0
 25 22  2  0  0  0  0
 26  5  1  0  0  0  0
 27 28  1  0  0  0  0
 28 31  2  0  0  0  0
 29 27  1  0  0  0  0
 30 26  1  6  0  0  0
 30 32  1  0  0  0  0
 30 36  1  0  0  0  0
 32 28  1  0  0  0  0
 33 29  1  0  0  0  0
 33 30  1  0  0  0  0
 34 28  2  0  0  0  0
 36 35  3  0  0  0  0
M  END
>  <MODEL>
4

>  <REMARK>
 VINA RESULT:      -7.0      1.719      2.355
  Name = 
  9 active torsions:
  status: ('A' for Active; 'I' for Inactive)
    1  A    between atoms: C_3  and  C_8
    2  A    between atoms: C_3  and  C_36
    3  A    between atoms: C_5  and  C_11
    4  A    between atoms: P_7  and  O_14
    5  A    between atoms: C_11  and  O_14
    6  A    between atoms: C_12  and  C_32
    7  A    between atoms: C_17  and  C_26
    8  A    between atoms: C_17  and  C_32
    9  A    between atoms: N_18  and  C_36
                            x       y       z     vdW  Elec       q    Type
                         _______ _______ _______ _____ _____    ______ ____

>  <TORSDO>
F 9

$$$$
=
 OpenBabel11072408433D

 36 39  0  0  1  0  0  0  0  0999 V2000
  184.3230  178.7320  144.4730 S   0  0  0  0  0  0  0  0  0  0  0  0
  186.4470  177.4180  143.3520 N   0  0  0  0  0  0  0  0  0  0  0  0
  184.9890  177.5460  143.2380 C   0  0  2  0  0  3  0  0  0  0  0  0
  186.8850  176.9980  147.0530 C   0  0  2  0  0  3  0  0  0  0  0  0
  191.5930  176.5580  146.0080 C   0  0  0  0  0  3  0  0  0  0  0  0
  190.3300  176.8660  145.9320 C   0  0  0  0  0  0  0  0  0  0  0  0
  185.1210  177.9140  145.8610 C   0  0  0  0  0  0  0  0  0  0  0  0
  185.9300  177.6970  148.0310 C   0  0  0  0  0  3  0  0  0  0  0  0
  189.0660  177.1690  145.8440 C   0  0  0  0  0  0  0  0  0  0  0  0
  188.3030  177.5790  147.0850 C   0  0  0  0  0  2  0  0  0  0  0  0
  186.2730  177.3060  145.7430 C   0  0  0  0  0  0  0  0  0  0  0  0
  184.8070  178.1650  147.2180 N   0  0  0  0  0  0  0  0  0  0  0  0
  187.0370  177.2640  144.5000 C   0  0  0  0  0  0  0  0  0  0  0  0
  188.4250  177.1210  144.5920 O   0  0  0  0  0  0  0  0  0  0  0  0
  184.6100  178.0020  141.8380 C   0  0  0  0  0  2  0  0  0  0  0  0
  185.8360  178.4550  141.0570 C   0  0  0  0  0  2  0  0  0  0  0  0
  186.6710  176.2340  138.2580 O   0  0  0  0  0  0  0  0  0  0  0  0
  186.7070  176.7180  139.4180 C   0  0  0  0  0  0  0  0  0  0  0  0
  185.8700  177.8330  139.7400 N   0  0  0  0  0  2  0  0  0  0  0  0
  187.6010  176.0970  140.4380 C   0  0  0  0  0  2  0  0  0  0  0  0
  188.1830  174.9430  139.9140 O   0  0  0  0  0  0  0  0  0  0  0  0
  188.9700  174.2110  141.2210 P   0  0  0  0  0  0  0  0  0  0  0  0
  187.9230  173.1310  141.9960 O   0  0  0  0  0  1  0  0  0  0  0  0
  189.3950  175.2760  142.2030 O   0  0  0  0  0  1  0  0  0  0  0  0
  190.3390  173.3780  140.6770 O   0  0  0  0  0  0  0  0  0  0  0  0
  192.0030  175.1480  146.2930 C   0  0  0  0  0  2  0  0  0  0  0  0
  193.5870  172.5540  143.0150 C   0  0  0  0  0  2  0  0  0  0  0  0
  194.4520  172.4680  144.5630 S   0  0  0  0  0  0  0  0  0  0  0  0
  193.1140  173.9770  142.7920 C   0  0  0  0  0  2  0  0  0  0  0  0
  193.0060  174.5980  145.2760 C   0  0  1  0  0  0  0  0  0  0  0  0
  195.8090  173.1020  144.4300 O   0  0  0  0  0  0  0  0  0  0  0  0
  193.5160  173.3060  145.7660 N   0  0  0  0  0  2  0  0  0  0  0  0
  192.2360  174.4420  143.9530 C   0  0  0  0  0  2  0  0  0  0  0  0
  194.6140  171.0310  144.9680 O   0  0  0  0  0  0  0  0  0  0  0  0
  194.9960  176.3760  144.9950 C   0  0  0  0  0  3  0  0  0  0  0  0
  194.1040  175.5760  145.1230 C   0  0  0  0  0  0  0  0  0  0  0  0
  1  7  1  0  0  0  0
  2 13  2  0  0  0  0
  3 15  1  6  0  0  0
  3  2  1  0  0  0  0
  3  1  1  0  0  0  0
  4 10  1  6  0  0  0
  4  8  1  0  0  0  0
  5 26  1  0  0  0  0
  6  5  2  0  0  0  0
  7 12  1  0  0  0  0
  9  6  2  0  0  0  0
  9 10  1  0  0  0  0
 11  7  2  0  0  0  0
 11  4  1  0  0  0  0
 12  8  2  0  0  0  0
 13 14  1  0  0  0  0
 13 11  1  0  0  0  0
 14  9  1  0  0  0  0
 16 15  1  0  0  0  0
 17 18  2  0  0  0  0
 18 19  1  0  0  0  0
 18 20  1  0  0  0  0
 19 16  1  0  0  0  0
 21 20  1  0  0  0  0
 21 22  1  0  0  0  0
 22 23  1  0  0  0  0
 22 24  1  0  0  0  0
 25 22  2  0  0  0  0
 27 28  1  0  0  0  0
 28 34  2  0  0  0  0
 28 32  1  0  0  0  0
 29 27  1  0  0  0  0
 29 33  1  0  0  0  0
 30 36  1  6  0  0  0
 30 32  1  0  0  0  0
 30 26  1  0  0  0  0
 31 28  2  0  0  0  0
 33 30  1  0  0  0  0
 35 36  3  0  0  0  0
M  END
>  <MODEL>
5

>  <REMARK>
 VINA RESULT:      -6.7      2.597      5.238
  Name = 
  9 active torsions:
  status: ('A' for Active; 'I' for Inactive)
    1  A    between atoms: C_3  and  C_8
    2  A    between atoms: C_3  and  C_36
    3  A    between atoms: C_5  and  C_11
    4  A    between atoms: P_7  and  O_14
    5  A    between atoms: C_11  and  O_14
    6  A    between atoms: C_12  and  C_32
    7  A    between atoms: C_17  and  C_26
    8  A    between atoms: C_17  and  C_32
    9  A    between atoms: N_18  and  C_36
                            x       y       z     vdW  Elec       q    Type
                         _______ _______ _______ _____ _____    ______ ____

>  <TORSDO>
F 9

$$$$
=
 OpenBabel11072408433D

 36 39  0  0  1  0  0  0  0  0999 V2000
  184.9840  178.2030  143.9060 S   0  0  0  0  0  0  0  0  0  0  0  0
  187.3360  177.1530  142.9770 N   0  0  0  0  0  0  0  0  0  0  0  0
  185.8970  177.1760  142.6860 C   0  0  2  0  0  3  0  0  0  0  0  0
  187.3530  176.4690  146.6640 C   0  0  2  0  0  3  0  0  0  0  0  0
  192.1740  176.4840  146.2060 C   0  0  0  0  0  3  0  0  0  0  0  0
  190.9070  176.6980  145.9890 C   0  0  0  0  0  0  0  0  0  0  0  0
  185.6750  177.3390  145.3230 C   0  0  0  0  0  0  0  0  0  0  0  0
  186.2280  177.0100  147.5590 C   0  0  0  0  0  3  0  0  0  0  0  0
  189.6410  176.9070  145.7610 C   0  0  0  0  0  0  0  0  0  0  0  0
  188.6990  177.1540  146.9200 C   0  0  0  0  0  2  0  0  0  0  0  0
  186.8800  176.8340  145.3120 C   0  0  0  0  0  0  0  0  0  0  0  0
  185.1760  177.4540  146.6430 N   0  0  0  0  0  0  0  0  0  0  0  0
  187.7920  176.9530  144.1780 C   0  0  0  0  0  0  0  0  0  0  0  0
  189.1660  176.9110  144.4370 O   0  0  0  0  0  0  0  0  0  0  0  0
  185.6540  177.7130  141.2850 C   0  0  0  0  0  2  0  0  0  0  0  0
  186.7900  177.3330  140.3450 C   0  0  0  0  0  2  0  0  0  0  0  0
  186.2230  176.0190  136.9650 O   0  0  0  0  0  0  0  0  0  0  0  0
  186.6980  176.0930  138.1270 C   0  0  0  0  0  0  0  0  0  0  0  0
  186.3010  177.1690  138.9820 N   0  0  0  0  0  2  0  0  0  0  0  0
  187.6430  175.0360  138.5950 C   0  0  0  0  0  2  0  0  0  0  0  0
  188.3660  174.5390  137.5120 O   0  0  0  0  0  0  0  0  0  0  0  0
  189.4810  173.4570  138.1840 P   0  0  0  0  0  0  0  0  0  0  0  0
  191.0340  173.7910  137.6020 O   0  0  0  0  0  0  0  0  0  0  0  0
  189.1010  172.0480  137.7940 O   0  0  0  0  0  1  0  0  0  0  0  0
  189.4700  173.5900  139.8710 O   0  0  0  0  0  1  0  0  0  0  0  0
  192.6670  175.0920  146.4400 C   0  0  0  0  0  2  0  0  0  0  0  0
  196.4400  175.3660  144.0570 C   0  0  0  0  0  2  0  0  0  0  0  0
  194.9370  175.2270  143.1220 S   0  0  0  0  0  0  0  0  0  0  0  0
  196.3140  174.5370  145.3200 C   0  0  0  0  0  2  0  0  0  0  0  0
  193.7580  174.6680  145.4530 C   0  0  1  0  0  0  0  0  0  0  0  0
  194.8660  173.8790  142.4600 O   0  0  0  0  0  0  0  0  0  0  0  0
  193.5920  175.4320  144.2060 N   0  0  0  0  0  2  0  0  0  0  0  0
  195.1010  174.9790  146.1370 C   0  0  0  0  0  2  0  0  0  0  0  0
  194.8990  176.2990  142.0710 O   0  0  0  0  0  0  0  0  0  0  0  0
  193.5180  172.0340  145.0030 C   0  0  0  0  0  3  0  0  0  0  0  0
  193.6280  173.2170  145.2060 C   0  0  0  0  0  0  0  0  0  0  0  0
  1  7  1  0  0  0  0
  2 13  2  0  0  0  0
  3 15  1  6  0  0  0
  3  2  1  0  0  0  0
  3  1  1  0  0  0  0
  4 10  1  1  0  0  0
  4  8  1  0  0  0  0
  5 26  1  0  0  0  0
  6  5  2  0  0  0  0
  7 12  1  0  0  0  0
  9  6  2  0  0  0  0
  9 10  1  0  0  0  0
 11  7  2  0  0  0  0
 11  4  1  0  0  0  0
 12  8  2  0  0  0  0
 13 14  1  0  0  0  0
 13 11  1  0  0  0  0
 14  9  1  0  0  0  0
 16 15  1  0  0  0  0
 17 18  2  0  0  0  0
 18 20  1  0  0  0  0
 18 19  1  0  0  0  0
 19 16  1  0  0  0  0
 21 22  1  0  0  0  0
 21 20  1  0  0  0  0
 22 25  1  0  0  0  0
 23 22  2  0  0  0  0
 24 22  1  0  0  0  0
 27 29  1  0  0  0  0
 28 27  1  0  0  0  0
 28 32  1  0  0  0  0
 29 33  1  0  0  0  0
 30 36  1  6  0  0  0
 30 33  1  0  0  0  0
 30 26  1  0  0  0  0
 31 28  2  0  0  0  0
 32 30  1  0  0  0  0
 34 28  2  0  0  0  0
 35 36  3  0  0  0  0
M  END
>  <MODEL>
6

>  <REMARK>
 VINA RESULT:      -6.6      3.397      5.989
  Name = 
  9 active torsions:
  status: ('A' for Active; 'I' for Inactive)
    1  A    between atoms: C_3  and  C_8
    2  A    between atoms: C_3  and  C_36
    3  A    between atoms: C_5  and  C_11
    4  A    between atoms: P_7  and  O_14
    5  A    between atoms: C_11  and  O_14
    6  A    between atoms: C_12  and  C_32
    7  A    between atoms: C_17  and  C_26
    8  A    between atoms: C_17  and  C_32
    9  A    between atoms: N_18  and  C_36
                            x       y       z     vdW  Elec       q    Type
                         _______ _______ _______ _____ _____    ______ ____

>  <TORSDO>
F 9

$$$$
=
 OpenBabel11072408433D

 36 39  0  0  1  0  0  0  0  0999 V2000
  188.8220  177.2670  144.9920 S   0  0  0  0  0  0  0  0  0  0  0  0
  190.4420  175.3400  143.9130 N   0  0  0  0  0  0  0  0  0  0  0  0
  189.0240  175.6730  144.0990 C   0  0  2  0  0  3  0  0  0  0  0  0
  191.8240  175.9660  147.3440 C   0  0  2  0  0  3  0  0  0  0  0  0
  196.0190  174.4490  145.4590 C   0  0  0  0  0  3  0  0  0  0  0  0
  194.8130  174.9290  145.5750 C   0  0  0  0  0  0  0  0  0  0  0  0
  189.8910  176.7730  146.3510 C   0  0  0  0  0  0  0  0  0  0  0  0
  191.2330  177.0750  148.2280 C   0  0  0  0  0  3  0  0  0  0  0  0
  193.6040  175.4020  145.6830 C   0  0  0  0  0  0  0  0  0  0  0  0
  193.2430  176.2830  146.8590 C   0  0  0  0  0  2  0  0  0  0  0  0
  190.9100  175.9720  146.1810 C   0  0  0  0  0  0  0  0  0  0  0  0
  189.9770  177.4640  147.5840 N   0  0  0  0  0  0  0  0  0  0  0  0
  191.3040  175.4360  144.8820 C   0  0  0  0  0  0  0  0  0  0  0  0
  192.6480  175.0940  144.6970 O   0  0  0  0  0  0  0  0  0  0  0  0
  188.3230  175.7520  142.7530 C   0  0  0  0  0  2  0  0  0  0  0  0
  188.4900  177.1300  142.1260 C   0  0  0  0  0  2  0  0  0  0  0  0
  185.4020  178.2140  140.4650 O   0  0  0  0  0  0  0  0  0  0  0  0
  186.2330  178.0420  141.3930 C   0  0  0  0  0  0  0  0  0  0  0  0
  187.4640  177.3680  141.1180 N   0  0  0  0  0  2  0  0  0  0  0  0
  185.9240  178.5720  142.7530 C   0  0  0  0  0  2  0  0  0  0  0  0
  185.2960  177.5850  143.5120 O   0  0  0  0  0  0  0  0  0  0  0  0
  184.9150  178.3320  144.9830 P   0  0  0  0  0  0  0  0  0  0  0  0
  183.3840  179.0440  144.8900 O   0  0  0  0  0  0  0  0  0  0  0  0
  185.9410  179.4010  145.2750 O   0  0  0  0  0  1  0  0  0  0  0  0
  184.9310  177.1890  146.2310 O   0  0  0  0  0  1  0  0  0  0  0  0
  196.3650  173.1380  146.0900 C   0  0  0  0  0  2  0  0  0  0  0  0
  194.5020  170.9040  142.6960 C   0  0  0  0  0  2  0  0  0  0  0  0
  193.7970  170.6140  144.2990 S   0  0  0  0  0  0  0  0  0  0  0  0
  195.9990  171.0950  142.8410 C   0  0  0  0  0  2  0  0  0  0  0  0
  195.9100  171.9340  145.2620 C   0  0  1  0  0  0  0  0  0  0  0  0
  194.1240  169.2200  144.7600 O   0  0  0  0  0  0  0  0  0  0  0  0
  194.4530  171.7800  145.4100 N   0  0  0  0  0  2  0  0  0  0  0  0
  196.3050  172.2400  143.8060 C   0  0  0  0  0  2  0  0  0  0  0  0
  192.3050  170.7760  144.2290 O   0  0  0  0  0  0  0  0  0  0  0  0
  197.2000  169.7530  146.1420 C   0  0  0  0  0  3  0  0  0  0  0  0
  196.6220  170.7340  145.7490 C   0  0  0  0  0  0  0  0  0  0  0  0
  1  7  1  0  0  0  0
  2  3  1  0  0  0  0
  2 13  2  0  0  0  0
  3 15  1  6  0  0  0
  3  1  1  0  0  0  0
  4 10  1  6  0  0  0
  4  8  1  0  0  0  0
  5  6  2  0  0  0  0
  5 26  1  0  0  0  0
  6  9  2  0  0  0  0
  7 12  1  0  0  0  0
  9 10  1  0  0  0  0
 11  7  2  0  0  0  0
 11  4  1  0  0  0  0
 12  8  2  0  0  0  0
 13 11  1  0  0  0  0
 14 13  1  0  0  0  0
 14  9  1  0  0  0  0
 16 15  1  0  0  0  0
 17 18  2  0  0  0  0
 18 20  1  0  0  0  0
 19 18  1  0  0  0  0
 19 16  1  0  0  0  0
 20 21  1  0  0  0  0
 21 22  1  0  0  0  0
 22 24  1  0  0  0  0
 22 25  1  0  0  0  0
 23 22  2  0  0  0  0
 27 29  1  0  0  0  0
 27 28  1  0  0  0  0
 28 31  2  0  0  0  0
 28 32  1  0  0  0  0
 29 33  1  0  0  0  0
 30 32  1  0  0  0  0
 30 36  1  1  0  0  0
 30 26  1  0  0  0  0
 33 30  1  0  0  0  0
 34 28  2  0  0  0  0
 36 35  3  0  0  0  0
M  END
>  <MODEL>
7

>  <REMARK>
 VINA RESULT:      -6.5      3.669      6.357
  Name = 
  9 active torsions:
  status: ('A' for Active; 'I' for Inactive)
    1  A    between atoms: C_3  and  C_8
    2  A    between atoms: C_3  and  C_36
    3  A    between atoms: C_5  and  C_11
    4  A    between atoms: P_7  and  O_14
    5  A    between atoms: C_11  and  O_14
    6  A    between atoms: C_12  and  C_32
    7  A    between atoms: C_17  and  C_26
    8  A    between atoms: C_17  and  C_32
    9  A    between atoms: N_18  and  C_36
                            x       y       z     vdW  Elec       q    Type
                         _______ _______ _______ _____ _____    ______ ____

>  <TORSDO>
F 9

$$$$
=
 OpenBabel11072408433D

 36 39  0  0  1  0  0  0  0  0999 V2000
  193.9830  172.9710  144.8380 S   0  0  0  0  0  0  0  0  0  0  0  0
  191.3750  173.4320  144.1410 N   0  0  0  0  0  0  0  0  0  0  0  0
  192.6630  173.0320  143.5600 C   0  0  2  0  0  3  0  0  0  0  0  0
  192.3650  176.3920  146.2200 C   0  0  2  0  0  3  0  0  0  0  0  0
  187.6420  176.7090  147.2400 C   0  0  0  0  0  3  0  0  0  0  0  0
  188.8060  176.2410  146.8870 C   0  0  0  0  0  0  0  0  0  0  0  0
  193.6560  174.6390  145.4220 C   0  0  0  0  0  0  0  0  0  0  0  0
  193.7470  176.4420  146.8890 C   0  0  0  0  0  3  0  0  0  0  0  0
  189.9650  175.7690  146.5230 C   0  0  0  0  0  0  0  0  0  0  0  0
  191.2210  176.2360  147.2260 C   0  0  0  0  0  2  0  0  0  0  0  0
  192.4570  175.1610  145.4060 C   0  0  0  0  0  0  0  0  0  0  0  0
  194.5250  175.3690  146.2690 N   0  0  0  0  0  0  0  0  0  0  0  0
  191.2710  174.4390  144.9570 C   0  0  0  0  0  0  0  0  0  0  0  0
  190.0330  174.8220  145.4850 O   0  0  0  0  0  0  0  0  0  0  0  0
  192.5380  171.6730  142.8920 C   0  0  0  0  0  2  0  0  0  0  0  0
  191.0780  171.2970  142.6780 C   0  0  0  0  0  2  0  0  0  0  0  0
  190.7360  169.5400  139.4750 O   0  0  0  0  0  0  0  0  0  0  0  0
  190.8300  170.5050  140.2750 C   0  0  0  0  0  0  0  0  0  0  0  0
  190.9550  170.2460  141.6770 N   0  0  0  0  0  2  0  0  0  0  0  0
  190.8380  171.8970  139.7380 C   0  0  0  0  0  2  0  0  0  0  0  0
  189.5980  172.1890  139.1700 O   0  0  0  0  0  0  0  0  0  0  0  0
  188.9440  173.4130  140.1390 P   0  0  0  0  0  0  0  0  0  0  0  0
  188.1520  174.5550  139.1740 O   0  0  0  0  0  0  0  0  0  0  0  0
  190.0590  174.0950  140.8960 O   0  0  0  0  0  1  0  0  0  0  0  0
  187.8470  172.7500  141.2440 O   0  0  0  0  0  1  0  0  0  0  0  0
  187.1110  177.9520  146.6010 C   0  0  0  0  0  2  0  0  0  0  0  0
  187.2040  176.0310  142.5660 C   0  0  0  0  0  2  0  0  0  0  0  0
  188.1660  177.5130  142.7450 S   0  0  0  0  0  0  0  0  0  0  0  0
  185.9420  176.1570  143.3960 C   0  0  0  0  0  2  0  0  0  0  0  0
  186.9200  177.8150  145.0890 C   0  0  1  0  0  0  0  0  0  0  0  0
  187.5350  178.6320  141.9650 O   0  0  0  0  0  0  0  0  0  0  0  0
  188.2340  177.9260  144.4340 N   0  0  0  0  0  2  0  0  0  0  0  0
  186.2840  176.4320  144.8600 C   0  0  0  0  0  2  0  0  0  0  0  0
  189.5570  177.2730  142.2330 O   0  0  0  0  0  0  0  0  0  0  0  0
  185.2640  179.7570  144.2640 C   0  0  0  0  0  3  0  0  0  0  0  0
  186.0090  178.8850  144.6320 C   0  0  0  0  0  0  0  0  0  0  0  0
  1  7  1  0  0  0  0
  2 13  2  0  0  0  0
  3 15  1  1  0  0  0
  3  2  1  0  0  0  0
  3  1  1  0  0  0  0
  4  8  1  1  0  0  0
  4 10  1  0  0  0  0
  6  5  2  0  0  0  0
  7 12  1  0  0  0  0
  9  6  2  0  0  0  0
  9 10  1  0  0  0  0
 11  7  2  0  0  0  0
 11  4  1  0  0  0  0
 12  8  2  0  0  0  0
 13 11  1  0  0  0  0
 13 14  1  0  0  0  0
 14  9  1  0  0  0  0
 16 15  1  0  0  0  0
 17 18  2  0  0  0  0
 18 19  1  0  0  0  0
 19 16  1  0  0  0  0
 20 18  1  0  0  0  0
 21 20  1  0  0  0  0
 21 22  1  0  0  0  0
 22 24  1  0  0  0  0
 22 25  1  0  0  0  0
 23 22  2  0  0  0  0
 26  5  1  0  0  0  0
 27 28  1  0  0  0  0
 27 29  1  0  0  0  0
 28 32  1  0  0  0  0
 29 33  1  0  0  0  0
 30 36  1  6  0  0  0
 30 26  1  0  0  0  0
 31 28  2  0  0  0  0
 32 30  1  0  0  0  0
 33 30  1  0  0  0  0
 34 28  2  0  0  0  0
 35 36  3  0  0  0  0
M  END
>  <MODEL>
8

>  <REMARK>
 VINA RESULT:      -6.5      3.596      8.694
  Name = 
  9 active torsions:
  status: ('A' for Active; 'I' for Inactive)
    1  A    between atoms: C_3  and  C_8
    2  A    between atoms: C_3  and  C_36
    3  A    between atoms: C_5  and  C_11
    4  A    between atoms: P_7  and  O_14
    5  A    between atoms: C_11  and  O_14
    6  A    between atoms: C_12  and  C_32
    7  A    between atoms: C_17  and  C_26
    8  A    between atoms: C_17  and  C_32
    9  A    between atoms: N_18  and  C_36
                            x       y       z     vdW  Elec       q    Type
                         _______ _______ _______ _____ _____    ______ ____

>  <TORSDO>
F 9

$$$$
=
 OpenBabel11072408433D

 36 39  0  0  1  0  0  0  0  0999 V2000
  187.6860  178.2150  147.4070 S   0  0  0  0  0  0  0  0  0  0  0  0
  187.3340  176.6290  145.2020 N   0  0  0  0  0  0  0  0  0  0  0  0
  186.6930  176.9790  146.4760 C   0  0  2  0  0  3  0  0  0  0  0  0
  190.8780  176.0340  146.2730 C   0  0  2  0  0  3  0  0  0  0  0  0
  191.6400  174.9210  141.6230 C   0  0  0  0  0  3  0  0  0  0  0  0
  191.1230  175.4190  142.7100 C   0  0  0  0  0  0  0  0  0  0  0  0
  189.1960  177.2430  147.3130 C   0  0  0  0  0  0  0  0  0  0  0  0
  191.4840  176.8400  147.4330 C   0  0  0  0  0  3  0  0  0  0  0  0
  190.5940  175.9110  143.7940 C   0  0  0  0  0  0  0  0  0  0  0  0
  191.4890  176.3940  144.9150 C   0  0  0  0  0  2  0  0  0  0  0  0
  189.4660  176.4720  146.2920 C   0  0  0  0  0  0  0  0  0  0  0  0
  190.3530  177.4970  148.0890 N   0  0  0  0  0  0  0  0  0  0  0  0
  188.6010  176.3530  145.1220 C   0  0  0  0  0  0  0  0  0  0  0  0
  189.1940  175.9990  143.9060 O   0  0  0  0  0  0  0  0  0  0  0  0
  185.2980  177.5300  146.2280 C   0  0  0  0  0  2  0  0  0  0  0  0
  185.3130  178.5930  145.1380 C   0  0  0  0  0  2  0  0  0  0  0  0
  183.1020  178.2880  142.2250 O   0  0  0  0  0  0  0  0  0  0  0  0
  184.1740  178.3790  142.8750 C   0  0  0  0  0  0  0  0  0  0  0  0
  184.1250  178.4920  144.3000 N   0  0  0  0  0  2  0  0  0  0  0  0
  185.4740  178.3360  142.1430 C   0  0  0  0  0  2  0  0  0  0  0  0
  185.9030  177.0150  142.0230 O   0  0  0  0  0  0  0  0  0  0  0  0
  187.2190  177.0710  140.9600 P   0  0  0  0  0  0  0  0  0  0  0  0
  187.9620  175.5530  140.8770 O   0  0  0  0  0  1  0  0  0  0  0  0
  188.2200  178.0830  141.4650 O   0  0  0  0  0  1  0  0  0  0  0  0
  186.6960  177.5280  139.4170 O   0  0  0  0  0  0  0  0  0  0  0  0
  191.9350  173.4570  141.5370 C   0  0  0  0  0  2  0  0  0  0  0  0
  189.9480  170.8830  138.4700 C   0  0  0  0  0  2  0  0  0  0  0  0
  189.2380  172.4920  138.7140 S   0  0  0  0  0  0  0  0  0  0  0  0
  190.4440  170.3550  139.8010 C   0  0  0  0  0  2  0  0  0  0  0  0
  190.8180  172.6580  140.8620 C   0  0  1  0  0  0  0  0  0  0  0  0
  187.8970  172.3660  139.3820 O   0  0  0  0  0  0  0  0  0  0  0  0
  190.3160  173.4260  139.7100 N   0  0  0  0  0  2  0  0  0  0  0  0
  191.4480  171.3230  140.4260 C   0  0  0  0  0  2  0  0  0  0  0  0
  189.0690  173.1730  137.3860 O   0  0  0  0  0  0  0  0  0  0  0  0
  188.8680  172.2390  142.6560 C   0  0  0  0  0  3  0  0  0  0  0  0
  189.7440  172.4250  141.8500 C   0  0  0  0  0  0  0  0  0  0  0  0
  2  3  1  0  0  0  0
  3 15  1  6  0  0  0
  3  1  1  0  0  0  0
  4 10  1  6  0  0  0
  4 11  1  0  0  0  0
  4  8  1  0  0  0  0
  5  6  2  0  0  0  0
  6  9  2  0  0  0  0
  7  1  1  0  0  0  0
  7 12  1  0  0  0  0
  8 12  2  0  0  0  0
  9 14  1  0  0  0  0
  9 10  1  0  0  0  0
 11  7  2  0  0  0  0
 13  2  2  0  0  0  0
 13 11  1  0  0  0  0
 14 13  1  0  0  0  0
 16 15  1  0  0  0  0
 17 18  2  0  0  0  0
 18 19  1  0  0  0  0
 19 16  1  0  0  0  0
 20 18  1  0  0  0  0
 21 20  1  0  0  0  0
 22 24  1  0  0  0  0
 22 21  1  0  0  0  0
 23 22  1  0  0  0  0
 25 22  2  0  0  0  0
 26  5  1  0  0  0  0
 27 28  1  0  0  0  0
 27 29  1  0  0  0  0
 28 31  2  0  0  0  0
 28 32  1  0  0  0  0
 29 33  1  0  0  0  0
 30 26  1  1  0  0  0
 30 36  1  0  0  0  0
 32 30  1  0  0  0  0
 33 30  1  0  0  0  0
 34 28  2  0  0  0  0
 36 35  3  0  0  0  0
M  END
>  <MODEL>
9

>  <REMARK>
 VINA RESULT:      -6.4      3.864      6.221
  Name = 
  9 active torsions:
  status: ('A' for Active; 'I' for Inactive)
    1  A    between atoms: C_3  and  C_8
    2  A    between atoms: C_3  and  C_36
    3  A    between atoms: C_5  and  C_11
    4  A    between atoms: P_7  and  O_14
    5  A    between atoms: C_11  and  O_14
    6  A    between atoms: C_12  and  C_32
    7  A    between atoms: C_17  and  C_26
    8  A    between atoms: C_17  and  C_32
    9  A    between atoms: N_18  and  C_36
                            x       y       z     vdW  Elec       q    Type
                         _______ _______ _______ _____ _____    ______ ____

>  <TORSDO>
F 9

$$$$
