=
 OpenBabel11062421353D

 55 63  0  0  1  0  0  0  0  0999 V2000
  195.6170  173.9040  144.8890 C   0  0  0  0  0  0  0  0  0  0  0  0
  191.4950  174.4790  144.0980 C   0  0  0  0  0  0  0  0  0  0  0  0
  193.8280  175.0910  143.7400 C   0  0  0  0  0  0  0  0  0  0  0  0
  194.2430  174.0990  144.6510 C   0  0  0  0  0  0  0  0  0  0  0  0
  191.9170  173.4990  145.0090 C   0  0  0  0  0  3  0  0  0  0  0  0
  197.9410  174.5630  144.4280 N   0  0  0  0  0  1  0  0  0  0  0  0
  194.7850  175.8830  143.1100 C   0  0  0  0  0  3  0  0  0  0  0  0
  196.5400  174.7240  144.2190 C   0  0  0  0  0  0  0  0  0  0  0  0
  196.1050  175.6880  143.3630 N   0  0  0  0  0  0  0  0  0  0  0  0
  193.2730  173.3120  145.2860 C   0  0  0  0  0  3  0  0  0  0  0  0
  192.4700  175.2640  143.4570 C   0  0  0  0  0  3  0  0  0  0  0  0
  189.3870  173.3480  143.9410 O   0  0  0  0  0  1  0  0  0  0  0  0
  190.0190  174.5860  143.7300 C   0  0  1  0  0  0  0  0  0  0  0  0
  184.7040  177.8220  146.5380 S   0  0  0  0  0  0  0  0  0  0  0  0
  184.7910  178.1340  144.7260 C   0  0  0  0  0  2  0  0  0  0  0  0
  188.8460  176.8540  144.1200 C   0  0  0  0  0  3  0  0  0  0  0  0
  186.4670  177.6100  146.5070 C   0  0  0  0  0  0  0  0  0  0  0  0
  187.0870  178.1390  145.3960 C   0  0  0  0  0  0  0  0  0  0  0  0
  188.2040  176.4370  146.2010 N   0  0  0  0  0  0  0  0  0  0  0  0
  188.1830  177.3240  145.2330 C   0  0  0  0  0  0  0  0  0  0  0  0
  188.8440  175.3450  145.8400 N   0  0  0  0  0  2  0  0  0  0  0  0
  189.3170  175.6120  144.5900 C   0  0  0  0  0  0  0  0  0  0  0  0
  187.1170  176.5040  146.9500 N   0  0  0  0  0  0  0  0  0  0  0  0
  186.1790  178.6840  144.3620 C   0  0  0  0  0  2  0  0  0  0  0  0
  189.8660  174.9940  142.3800 O   0  0  0  0  0  0  0  0  0  0  0  0
  188.9840  174.1270  141.7100 C   0  0  0  0  0  2  0  0  0  0  0  0
  187.7330  175.9740  140.7760 C   0  0  0  0  0  0  0  0  0  0  0  0
  188.3330  174.8360  140.5710 C   0  0  0  0  0  0  0  0  0  0  0  0
  187.1680  177.0620  140.9710 O   0  0  0  0  0  0  0  0  0  0  0  0
  188.4330  174.3160  139.2500 N   0  0  0  0  0  1  0  0  0  0  0  0
  196.0970  172.8000  145.7850 C   0  0  0  0  0  2  0  0  0  0  0  0
  196.3880  171.5560  144.9530 C   0  0  0  0  0  2  0  0  0  0  0  0
  195.5760  170.3340  145.3930 C   0  0  1  0  0  3  0  0  0  0  0  0
  195.3350  169.3220  144.2600 C   0  0  2  0  0  3  0  0  0  0  0  0
  196.4250  169.2780  143.3990 F   0  0  0  0  0  0  0  0  0  0  0  0
  192.1300  170.3500  139.3320 O   0  0  0  0  0  0  0  0  0  0  0  0
  192.7820  169.8410  144.3280 C   0  0  0  0  0  2  0  0  0  0  0  0
  191.3180  169.6270  140.2540 C   0  0  0  0  0  2  0  0  0  0  0  0
  191.8580  169.7740  141.6730 C   0  0  2  0  0  3  0  0  0  0  0  0
  192.9670  168.5430  143.5280 C   0  0  1  0  0  3  0  0  0  0  0  0
  194.1400  170.4390  142.2190 C   0  0  0  0  0  3  0  0  0  0  0  0
  193.0910  170.4820  141.4040 C   0  0  0  0  0  0  0  0  0  0  0  0
  192.1500  168.4720  142.2860 N   0  0  0  0  0  2  0  0  0  0  0  0
  193.1120  170.9310  140.0750 N   0  0  0  0  0  0  0  0  0  0  0  0
  194.0440  169.6410  143.4940 C   0  0  2  0  0  0  0  0  0  0  0  0
  193.6410  172.2550  139.7550 C   0  0  1  0  0  3  0  0  0  0  0  0
  194.7420  174.5010  138.5070 C   0  0  1  0  0  3  0  0  0  0  0  0
  191.8290  173.8220  139.6650 O   0  0  0  0  0  1  0  0  0  0  0  0
  194.9070  172.1410  139.1540 O   0  0  0  0  0  0  0  0  0  0  0  0
  195.6200  175.0750  137.4140 C   0  0  0  0  0  1  0  0  0  0  0  0
  193.4420  173.9670  137.8950 C   0  0  0  0  0  2  0  0  0  0  0  0
  195.5110  173.4110  139.2780 C   0  0  0  0  0  2  0  0  0  0  0  0
  192.6800  173.0580  138.8640 C   0  0  1  0  0  3  0  0  0  0  0  0
  196.6930  169.1860  147.4810 N   0  0  0  0  0  0  0  0  0  0  0  0
  196.2040  169.6910  146.5610 C   0  0  0  0  0  0  0  0  0  0  0  0
  1 31  1  0  0  0  0
  2  5  1  0  0  0  0
  3  4  2  0  0  0  0
  4  1  1  0  0  0  0
  4 10  1  0  0  0  0
  5 10  2  0  0  0  0
  7  9  2  0  0  0  0
  7  3  1  0  0  0  0
  8  6  1  0  0  0  0
  8  1  2  0  0  0  0
  9  8  1  0  0  0  0
 11  3  1  0  0  0  0
 11  2  2  0  0  0  0
 13 12  1  1  0  0  0
 13  2  1  0  0  0  0
 13 22  1  0  0  0  0
 15 14  1  0  0  0  0
 16 22  2  0  0  0  0
 16 20  1  0  0  0  0
 17 14  1  0  0  0  0
 17 23  2  0  0  0  0
 18 17  1  0  0  0  0
 19 23  1  0  0  0  0
 20 18  2  0  0  0  0
 20 19  1  0  0  0  0
 21 19  1  0  0  0  0
 22 21  1  0  0  0  0
 24 15  1  0  0  0  0
 24 18  1  0  0  0  0
 25 13  1  0  0  0  0
 26 25  1  0  0  0  0
 27 29  2  0  0  0  0
 28 27  2  0  0  0  0
 28 26  1  0  0  0  0
 30 28  1  0  0  0  0
 32 31  1  0  0  0  0
 33 32  1  6  0  0  0
 33 55  1  0  0  0  0
 34 35  1  6  0  0  0
 34 33  1  0  0  0  0
 36 44  1  0  0  0  0
 36 38  1  0  0  0  0
 39 38  1  6  0  0  0
 39 43  1  0  0  0  0
 40 37  1  1  0  0  0
 41 45  1  0  0  0  0
 42 39  1  0  0  0  0
 42 41  2  0  0  0  0
 43 40  1  0  0  0  0
 44 42  1  0  0  0  0
 45 40  1  0  0  0  0
 45 34  1  1  0  0  0
 45 37  1  0  0  0  0
 46 44  1  6  0  0  0
 47 50  1  6  0  0  0
 47 52  1  0  0  0  0
 49 52  1  0  0  0  0
 49 46  1  0  0  0  0
 51 47  1  0  0  0  0
 51 53  1  0  0  0  0
 53 48  1  1  0  0  0
 53 46  1  0  0  0  0
 55 54  3  0  0  0  0
M  END
>  <MODEL>
1

>  <REMARK>
 VINA RESULT:      -7.3      0.000      0.000
  Name = 
  12 active torsions:
  status: ('A' for Active; 'I' for Inactive)
    1  A    between atoms: C_3  and  C_29
    2  A    between atoms: C_3  and  C_39
    3  A    between atoms: C_5  and  C_39
    4  A    between atoms: C_5  and  C_48
    5  A    between atoms: C_9  and  N_44
    6  A    between atoms: C_10  and  C_49
    7  A    between atoms: C_11  and  C_29
    8  A    between atoms: C_16  and  O_21
    9  A    between atoms: C_16  and  C_24
   10  A    between atoms: C_16  and  C_45
   11  A    between atoms: O_21  and  C_49
   12  A    between atoms: C_39  and  C_53
                            x       y       z     vdW  Elec       q    Type
                         _______ _______ _______ _____ _____    ______ ____

>  <TORSDO>
F 12

$$$$
=
 OpenBabel11062421353D

 55 63  0  0  1  0  0  0  0  0999 V2000
  189.3740  174.2450  142.2820 C   0  0  0  0  0  0  0  0  0  0  0  0
  193.6050  174.4400  142.3410 C   0  0  0  0  0  0  0  0  0  0  0  0
  191.5460  173.1890  141.9700 C   0  0  0  0  0  0  0  0  0  0  0  0
  190.7790  174.3170  142.3260 C   0  0  0  0  0  0  0  0  0  0  0  0
  192.8340  175.5560  142.7020 C   0  0  0  0  0  3  0  0  0  0  0  0
  187.3530  172.9160  141.8390 N   0  0  0  0  0  1  0  0  0  0  0  0
  190.8980  172.0110  141.6070 C   0  0  0  0  0  3  0  0  0  0  0  0
  188.7730  173.0350  141.8990 C   0  0  0  0  0  0  0  0  0  0  0  0
  189.5420  171.9580  141.5830 N   0  0  0  0  0  0  0  0  0  0  0  0
  191.4390  175.4960  142.6990 C   0  0  0  0  0  3  0  0  0  0  0  0
  192.9420  173.2600  141.9630 C   0  0  0  0  0  3  0  0  0  0  0  0
  195.7220  173.3460  142.6000 O   0  0  0  0  0  1  0  0  0  0  0  0
  195.1220  174.5670  142.2450 C   0  0  1  0  0  0  0  0  0  0  0  0
  196.0000  173.5120  135.5580 S   0  0  0  0  0  0  0  0  0  0  0  0
  197.0870  172.4090  136.5540 C   0  0  0  0  0  2  0  0  0  0  0  0
  196.7940  174.5310  140.2770 C   0  0  0  0  0  3  0  0  0  0  0  0
  196.0760  174.6700  136.9020 C   0  0  0  0  0  0  0  0  0  0  0  0
  197.1220  174.4660  137.7750 C   0  0  0  0  0  0  0  0  0  0  0  0
  195.4170  175.4050  138.7770 N   0  0  0  0  0  0  0  0  0  0  0  0
  196.6270  174.9330  138.9700 C   0  0  0  0  0  0  0  0  0  0  0  0
  194.6980  175.3570  139.8770 N   0  0  0  0  0  2  0  0  0  0  0  0
  195.5530  174.8960  140.8340 C   0  0  0  0  0  0  0  0  0  0  0  0
  194.9920  175.1740  137.5450 N   0  0  0  0  0  0  0  0  0  0  0  0
  197.9320  173.2530  137.5210 C   0  0  0  0  0  2  0  0  0  0  0  0
  195.5930  175.6100  143.0830 O   0  0  0  0  0  0  0  0  0  0  0  0
  196.2570  175.0710  144.2000 C   0  0  0  0  0  2  0  0  0  0  0  0
  194.8670  176.0760  145.9040 C   0  0  0  0  0  0  0  0  0  0  0  0
  195.3240  174.9840  145.3590 C   0  0  0  0  0  0  0  0  0  0  0  0
  194.4260  177.1170  146.4180 O   0  0  0  0  0  0  0  0  0  0  0  0
  194.8680  173.7190  145.8210 N   0  0  0  0  0  1  0  0  0  0  0  0
  188.5290  175.4520  142.5700 C   0  0  0  0  0  2  0  0  0  0  0  0
  188.4190  176.3110  141.3160 C   0  0  0  0  0  2  0  0  0  0  0  0
  187.0210  176.9030  141.1130 C   0  0  1  0  0  3  0  0  0  0  0  0
  186.8190  178.2490  141.8300 C   0  0  2  0  0  3  0  0  0  0  0  0
  188.0120  178.9580  141.8940 F   0  0  0  0  0  0  0  0  0  0  0  0
  186.8530  178.6580  147.7840 O   0  0  0  0  0  0  0  0  0  0  0  0
  184.8630  177.3680  143.3110 C   0  0  0  0  0  2  0  0  0  0  0  0
  185.5180  178.8580  147.3270 C   0  0  0  0  0  2  0  0  0  0  0  0
  185.3380  178.2770  145.9280 C   0  0  2  0  0  3  0  0  0  0  0  0
  184.9710  178.8820  143.5440 C   0  0  1  0  0  3  0  0  0  0  0  0
  187.1660  177.8040  144.3850 C   0  0  0  0  0  3  0  0  0  0  0  0
  186.7050  177.9110  145.6270 C   0  0  0  0  0  0  0  0  0  0  0  0
  184.8660  179.2870  144.9730 N   0  0  0  0  0  2  0  0  0  0  0  0
  187.4960  177.9960  146.7830 N   0  0  0  0  0  0  0  0  0  0  0  0
  186.2260  178.0490  143.2320 C   0  0  2  0  0  0  0  0  0  0  0  0
  188.5100  176.9790  147.0550 C   0  0  1  0  0  3  0  0  0  0  0  0
  190.5430  175.0690  146.8780 C   0  0  1  0  0  3  0  0  0  0  0  0
  190.3780  178.0090  148.1500 O   0  0  0  0  0  1  0  0  0  0  0  0
  188.3190  175.8660  146.2180 O   0  0  0  0  0  0  0  0  0  0  0  0
  191.2790  174.0340  146.0530 C   0  0  0  0  0  1  0  0  0  0  0  0
  190.9020  176.4730  146.3820 C   0  0  0  0  0  2  0  0  0  0  0  0
  189.0260  174.8030  146.8190 C   0  0  0  0  0  2  0  0  0  0  0  0
  189.9350  177.5370  146.9130 C   0  0  1  0  0  3  0  0  0  0  0  0
  186.4690  177.0900  138.5470 N   0  0  0  0  0  0  0  0  0  0  0  0
  186.7110  177.0100  139.6770 C   0  0  0  0  0  0  0  0  0  0  0  0
  1  4  1  0  0  0  0
  1 31  1  0  0  0  0
  2  5  1  0  0  0  0
  3  4  2  0  0  0  0
  4 10  1  0  0  0  0
  6  8  1  0  0  0  0
  7  3  1  0  0  0  0
  8  1  2  0  0  0  0
  9  7  2  0  0  0  0
  9  8  1  0  0  0  0
 10  5  2  0  0  0  0
 11  3  1  0  0  0  0
 11  2  2  0  0  0  0
 13  2  1  0  0  0  0
 13 12  1  1  0  0  0
 13 25  1  0  0  0  0
 14 15  1  0  0  0  0
 14 17  1  0  0  0  0
 15 24  1  0  0  0  0
 16 22  2  0  0  0  0
 17 23  2  0  0  0  0
 17 18  1  0  0  0  0
 18 20  2  0  0  0  0
 19 20  1  0  0  0  0
 19 21  1  0  0  0  0
 20 16  1  0  0  0  0
 21 22  1  0  0  0  0
 22 13  1  0  0  0  0
 23 19  1  0  0  0  0
 24 18  1  0  0  0  0
 25 26  1  0  0  0  0
 26 28  1  0  0  0  0
 27 29  2  0  0  0  0
 28 30  1  0  0  0  0
 28 27  2  0  0  0  0
 32 31  1  0  0  0  0
 33 55  1  6  0  0  0
 33 32  1  0  0  0  0
 33 34  1  0  0  0  0
 34 35  1  1  0  0  0
 38 36  1  0  0  0  0
 39 38  1  1  0  0  0
 40 37  1  1  0  0  0
 40 43  1  0  0  0  0
 41 42  2  0  0  0  0
 42 39  1  0  0  0  0
 42 44  1  0  0  0  0
 43 39  1  0  0  0  0
 44 36  1  0  0  0  0
 45 34  1  6  0  0  0
 45 37  1  0  0  0  0
 45 40  1  0  0  0  0
 45 41  1  0  0  0  0
 46 44  1  6  0  0  0
 47 50  1  6  0  0  0
 49 52  1  0  0  0  0
 49 46  1  0  0  0  0
 51 47  1  0  0  0  0
 51 53  1  0  0  0  0
 52 47  1  0  0  0  0
 53 46  1  0  0  0  0
 53 48  1  1  0  0  0
 54 55  3  0  0  0  0
M  END
>  <MODEL>
2

>  <REMARK>
 VINA RESULT:      -7.3      4.111     10.277
  Name = 
  12 active torsions:
  status: ('A' for Active; 'I' for Inactive)
    1  A    between atoms: C_3  and  C_29
    2  A    between atoms: C_3  and  C_39
    3  A    between atoms: C_5  and  C_39
    4  A    between atoms: C_5  and  C_48
    5  A    between atoms: C_9  and  N_44
    6  A    between atoms: C_10  and  C_49
    7  A    between atoms: C_11  and  C_29
    8  A    between atoms: C_16  and  O_21
    9  A    between atoms: C_16  and  C_24
   10  A    between atoms: C_16  and  C_45
   11  A    between atoms: O_21  and  C_49
   12  A    between atoms: C_39  and  C_53
                            x       y       z     vdW  Elec       q    Type
                         _______ _______ _______ _____ _____    ______ ____

>  <TORSDO>
F 12

$$$$
=
 OpenBabel11062421353D

 55 63  0  0  1  0  0  0  0  0999 V2000
  195.6220  174.8810  144.6740 C   0  0  0  0  0  0  0  0  0  0  0  0
  191.3950  174.6130  144.6320 C   0  0  0  0  0  0  0  0  0  0  0  0
  193.4850  175.3090  143.5880 C   0  0  0  0  0  0  0  0  0  0  0  0
  194.2170  174.8050  144.6830 C   0  0  0  0  0  0  0  0  0  0  0  0
  192.1300  174.1210  145.7210 C   0  0  0  0  0  3  0  0  0  0  0  0
  197.6800  175.5790  143.5220 N   0  0  0  0  0  1  0  0  0  0  0  0
  194.1660  175.9010  142.5280 C   0  0  0  0  0  3  0  0  0  0  0  0
  196.2580  175.4800  143.5740 C   0  0  0  0  0  0  0  0  0  0  0  0
  195.5210  175.9770  142.5450 N   0  0  0  0  0  0  0  0  0  0  0  0
  193.5230  174.2180  145.7500 C   0  0  0  0  0  3  0  0  0  0  0  0
  192.0920  175.1970  143.5610 C   0  0  0  0  0  3  0  0  0  0  0  0
  189.5490  173.2350  145.2960 O   0  0  0  0  0  1  0  0  0  0  0  0
  189.8860  174.3940  144.5760 C   0  0  1  0  0  0  0  0  0  0  0  0
  184.4490  178.1000  146.3910 S   0  0  0  0  0  0  0  0  0  0  0  0
  184.6820  178.1120  144.5640 C   0  0  0  0  0  2  0  0  0  0  0  0
  188.7410  176.7080  144.5000 C   0  0  0  0  0  3  0  0  0  0  0  0
  186.2030  177.8680  146.5350 C   0  0  0  0  0  0  0  0  0  0  0  0
  186.9190  178.2020  145.4060 C   0  0  0  0  0  0  0  0  0  0  0  0
  187.9310  176.6420  146.5620 N   0  0  0  0  0  0  0  0  0  0  0  0
  188.0050  177.3600  145.4650 C   0  0  0  0  0  0  0  0  0  0  0  0
  188.5700  175.4990  146.4350 N   0  0  0  0  0  2  0  0  0  0  0  0
  189.1440  175.5530  145.2000 C   0  0  0  0  0  0  0  0  0  0  0  0
  186.7910  176.8430  147.2020 N   0  0  0  0  0  0  0  0  0  0  0  0
  186.1060  178.5810  144.2290 C   0  0  0  0  0  2  0  0  0  0  0  0
  189.4440  174.2860  143.2320 O   0  0  0  0  0  0  0  0  0  0  0  0
  189.0080  172.9740  142.9710 C   0  0  0  0  0  2  0  0  0  0  0  0
  190.3830  171.2540  141.9700 C   0  0  0  0  0  0  0  0  0  0  0  0
  189.7730  172.3970  141.8290 C   0  0  0  0  0  0  0  0  0  0  0  0
  190.9580  170.1620  142.1050 O   0  0  0  0  0  0  0  0  0  0  0  0
  189.7740  173.0470  140.5630 N   0  0  0  0  0  1  0  0  0  0  0  0
  196.4350  174.2760  145.7810 C   0  0  0  0  0  2  0  0  0  0  0  0
  197.2240  173.0860  145.2470 C   0  0  0  0  0  2  0  0  0  0  0  0
  196.3300  171.9520  144.7380 C   0  0  1  0  0  3  0  0  0  0  0  0
  196.7740  171.3900  143.3760 C   0  0  2  0  0  3  0  0  0  0  0  0
  197.9290  172.0250  142.9330 F   0  0  0  0  0  0  0  0  0  0  0  0
  194.5800  171.4020  137.8250 O   0  0  0  0  0  0  0  0  0  0  0  0
  194.2470  171.7750  142.8640 C   0  0  0  0  0  2  0  0  0  0  0  0
  193.6180  170.8010  138.6880 C   0  0  0  0  0  2  0  0  0  0  0  0
  193.8650  171.2140  140.1360 C   0  0  2  0  0  3  0  0  0  0  0  0
  194.6120  170.3730  142.3540 C   0  0  1  0  0  3  0  0  0  0  0  0
  195.9810  172.0830  140.9810 C   0  0  0  0  0  3  0  0  0  0  0  0
  195.1120  171.9320  139.9860 C   0  0  0  0  0  0  0  0  0  0  0  0
  194.0570  170.0500  141.0110 N   0  0  0  0  0  2  0  0  0  0  0  0
  195.3860  172.1510  138.6280 N   0  0  0  0  0  0  0  0  0  0  0  0
  195.6520  171.5060  142.3340 C   0  0  2  0  0  0  0  0  0  0  0  0
  195.9400  173.4300  138.1880 C   0  0  1  0  0  3  0  0  0  0  0  0
  196.7470  175.6690  136.7220 C   0  0  1  0  0  3  0  0  0  0  0  0
  194.5780  175.2100  139.0400 O   0  0  0  0  0  1  0  0  0  0  0  0
  196.7680  173.2410  137.0680 O   0  0  0  0  0  0  0  0  0  0  0  0
  197.1370  176.2720  135.3880 C   0  0  0  0  0  1  0  0  0  0  0  0
  195.2400  175.3920  136.7410 C   0  0  0  0  0  2  0  0  0  0  0  0
  197.5750  174.3960  136.9830 C   0  0  0  0  0  2  0  0  0  0  0  0
  194.8400  174.4610  137.8910 C   0  0  1  0  0  3  0  0  0  0  0  0
  196.1500  170.0440  146.5410 N   0  0  0  0  0  0  0  0  0  0  0  0
  196.2270  170.8850  145.7480 C   0  0  0  0  0  0  0  0  0  0  0  0
  1  4  1  0  0  0  0
  1 31  1  0  0  0  0
  2  5  1  0  0  0  0
  3  4  2  0  0  0  0
  4 10  1  0  0  0  0
  5 10  2  0  0  0  0
  6  8  1  0  0  0  0
  7  9  2  0  0  0  0
  7  3  1  0  0  0  0
  8  1  2  0  0  0  0
  9  8  1  0  0  0  0
 11  3  1  0  0  0  0
 11  2  2  0  0  0  0
 13  2  1  0  0  0  0
 13 22  1  0  0  0  0
 13 12  1  1  0  0  0
 14 17  1  0  0  0  0
 15 14  1  0  0  0  0
 16 22  2  0  0  0  0
 16 20  1  0  0  0  0
 17 23  2  0  0  0  0
 18 20  2  0  0  0  0
 18 17  1  0  0  0  0
 19 23  1  0  0  0  0
 20 19  1  0  0  0  0
 21 19  1  0  0  0  0
 22 21  1  0  0  0  0
 24 15  1  0  0  0  0
 24 18  1  0  0  0  0
 25 13  1  0  0  0  0
 26 25  1  0  0  0  0
 27 29  2  0  0  0  0
 28 27  2  0  0  0  0
 28 26  1  0  0  0  0
 30 28  1  0  0  0  0
 32 31  1  0  0  0  0
 33 32  1  1  0  0  0
 33 55  1  0  0  0  0
 34 35  1  6  0  0  0
 34 33  1  0  0  0  0
 36 44  1  0  0  0  0
 36 38  1  0  0  0  0
 39 38  1  6  0  0  0
 39 43  1  0  0  0  0
 40 37  1  1  0  0  0
 41 45  1  0  0  0  0
 42 39  1  0  0  0  0
 42 41  2  0  0  0  0
 43 40  1  0  0  0  0
 44 42  1  0  0  0  0
 45 40  1  0  0  0  0
 45 37  1  0  0  0  0
 45 34  1  1  0  0  0
 46 44  1  6  0  0  0
 47 50  1  6  0  0  0
 47 51  1  0  0  0  0
 47 52  1  0  0  0  0
 49 46  1  0  0  0  0
 51 53  1  0  0  0  0
 52 49  1  0  0  0  0
 53 46  1  0  0  0  0
 53 48  1  1  0  0  0
 55 54  3  0  0  0  0
M  END
>  <MODEL>
3

>  <REMARK>
 VINA RESULT:      -7.2      1.718      2.367
  Name = 
  12 active torsions:
  status: ('A' for Active; 'I' for Inactive)
    1  A    between atoms: C_3  and  C_29
    2  A    between atoms: C_3  and  C_39
    3  A    between atoms: C_5  and  C_39
    4  A    between atoms: C_5  and  C_48
    5  A    between atoms: C_9  and  N_44
    6  A    between atoms: C_10  and  C_49
    7  A    between atoms: C_11  and  C_29
    8  A    between atoms: C_16  and  O_21
    9  A    between atoms: C_16  and  C_24
   10  A    between atoms: C_16  and  C_45
   11  A    between atoms: O_21  and  C_49
   12  A    between atoms: C_39  and  C_53
                            x       y       z     vdW  Elec       q    Type
                         _______ _______ _______ _____ _____    ______ ____

>  <TORSDO>
F 12

$$$$
=
 OpenBabel11062421353D

 55 63  0  0  1  0  0  0  0  0999 V2000
  190.4510  171.3790  139.8270 C   0  0  0  0  0  0  0  0  0  0  0  0
  188.3030  174.6180  141.5130 C   0  0  0  0  0  0  0  0  0  0  0  0
  189.4460  172.4780  141.7540 C   0  0  0  0  0  0  0  0  0  0  0  0
  189.7180  172.4510  140.3710 C   0  0  0  0  0  0  0  0  0  0  0  0
  188.5720  174.5800  140.1370 C   0  0  0  0  0  3  0  0  0  0  0  0
  191.6230  169.2450  140.1770 N   0  0  0  0  0  1  0  0  0  0  0  0
  189.8840  171.4270  142.5550 C   0  0  0  0  0  3  0  0  0  0  0  0
  190.8770  170.3510  140.6830 C   0  0  0  0  0  0  0  0  0  0  0  0
  190.5780  170.3960  142.0090 N   0  0  0  0  0  0  0  0  0  0  0  0
  189.2670  173.5090  139.5700 C   0  0  0  0  0  3  0  0  0  0  0  0
  188.7610  173.5590  142.3160 C   0  0  0  0  0  3  0  0  0  0  0  0
  186.4750  175.4710  142.8080 O   0  0  0  0  0  1  0  0  0  0  0  0
  187.6420  175.8500  142.1220 C   0  0  1  0  0  0  0  0  0  0  0  0
  192.6020  176.2550  146.7950 S   0  0  0  0  0  0  0  0  0  0  0  0
  191.1410  175.3470  147.4520 C   0  0  0  0  0  2  0  0  0  0  0  0
  188.2990  176.6250  144.4960 C   0  0  0  0  0  3  0  0  0  0  0  0
  191.4800  177.1380  145.7390 C   0  0  0  0  0  0  0  0  0  0  0  0
  190.1620  177.0880  146.1350 C   0  0  0  0  0  0  0  0  0  0  0  0
  190.3340  177.3230  143.9660 N   0  0  0  0  0  0  0  0  0  0  0  0
  189.4740  177.1840  144.9490 C   0  0  0  0  0  0  0  0  0  0  0  0
  189.8420  176.8860  142.8270 N   0  0  0  0  0  2  0  0  0  0  0  0
  188.5590  176.5250  143.1150 C   0  0  0  0  0  0  0  0  0  0  0  0
  191.5820  177.1980  144.3870 N   0  0  0  0  0  0  0  0  0  0  0  0
  189.8820  176.2150  147.2970 C   0  0  0  0  0  2  0  0  0  0  0  0
  187.3350  176.8040  141.1170 O   0  0  0  0  0  0  0  0  0  0  0  0
  187.2320  178.0870  141.6840 C   0  0  0  0  0  2  0  0  0  0  0  0
  184.9130  178.2320  141.0130 C   0  0  0  0  0  0  0  0  0  0  0  0
  185.8020  178.4180  141.9470 C   0  0  0  0  0  0  0  0  0  0  0  0
  184.0660  178.0480  140.1240 O   0  0  0  0  0  0  0  0  0  0  0  0
  185.3920  178.8600  143.2360 N   0  0  0  0  0  1  0  0  0  0  0  0
  190.8340  171.3630  138.3760 C   0  0  0  0  0  2  0  0  0  0  0  0
  192.3050  171.7330  138.2290 C   0  0  0  0  0  2  0  0  0  0  0  0
  192.6180  173.1570  138.6980 C   0  0  1  0  0  3  0  0  0  0  0  0
  194.0280  173.3070  139.2930 C   0  0  2  0  0  3  0  0  0  0  0  0
  194.7310  172.1110  139.2050 F   0  0  0  0  0  0  0  0  0  0  0  0
  196.3050  174.3220  144.7160 O   0  0  0  0  0  0  0  0  0  0  0  0
  192.6430  174.3850  141.2200 C   0  0  0  0  0  2  0  0  0  0  0  0
  195.4180  175.3900  144.3930 C   0  0  0  0  0  2  0  0  0  0  0  0
  194.4410  174.9630  143.3030 C   0  0  2  0  0  3  0  0  0  0  0  0
  193.8210  175.3230  140.9210 C   0  0  1  0  0  3  0  0  0  0  0  0
  194.8000  173.0900  141.7840 C   0  0  0  0  0  3  0  0  0  0  0  0
  194.9850  173.6650  142.9680 C   0  0  0  0  0  0  0  0  0  0  0  0
  194.5020  175.8510  142.1340 N   0  0  0  0  0  2  0  0  0  0  0  0
  195.9420  173.2810  143.9170 N   0  0  0  0  0  0  0  0  0  0  0  0
  193.9700  173.8010  140.7460 C   0  0  2  0  0  0  0  0  0  0  0  0
  196.0030  171.8960  144.3800 C   0  0  1  0  0  3  0  0  0  0  0  0
  196.2270  169.5540  145.8910 C   0  0  1  0  0  3  0  0  0  0  0  0
  193.7970  170.9580  144.3370 O   0  0  0  0  0  1  0  0  0  0  0  0
  197.1750  171.6840  145.1270 O   0  0  0  0  0  0  0  0  0  0  0  0
  196.7710  168.8510  147.1170 C   0  0  0  0  0  1  0  0  0  0  0  0
  195.1000  170.5080  146.3010 C   0  0  0  0  0  2  0  0  0  0  0  0
  197.3680  170.2860  145.1580 C   0  0  0  0  0  2  0  0  0  0  0  0
  194.7560  171.5060  145.1900 C   0  0  1  0  0  3  0  0  0  0  0  0
  192.2110  174.8740  136.7460 N   0  0  0  0  0  0  0  0  0  0  0  0
  192.3920  174.1200  137.6070 C   0  0  0  0  0  0  0  0  0  0  0  0
  1  4  2  0  0  0  0
  1  8  1  0  0  0  0
  2 13  1  0  0  0  0
  2 11  2  0  0  0  0
  3 11  1  0  0  0  0
  3  7  2  0  0  0  0
  4  3  1  0  0  0  0
  5  2  1  0  0  0  0
  6  8  1  0  0  0  0
  8  9  2  0  0  0  0
  9  7  1  0  0  0  0
 10  5  2  0  0  0  0
 10  4  1  0  0  0  0
 13 12  1  1  0  0  0
 13 22  1  0  0  0  0
 14 15  1  0  0  0  0
 16 20  1  0  0  0  0
 17 18  1  0  0  0  0
 17 14  1  0  0  0  0
 18 24  1  0  0  0  0
 19 23  1  0  0  0  0
 19 20  1  0  0  0  0
 20 18  2  0  0  0  0
 21 22  1  0  0  0  0
 21 19  1  0  0  0  0
 22 16  2  0  0  0  0
 23 17  2  0  0  0  0
 24 15  1  0  0  0  0
 25 26  1  0  0  0  0
 25 13  1  0  0  0  0
 26 28  1  0  0  0  0
 27 28  2  0  0  0  0
 28 30  1  0  0  0  0
 29 27  2  0  0  0  0
 31  1  1  0  0  0  0
 32 31  1  0  0  0  0
 32 33  1  0  0  0  0
 33 55  1  6  0  0  0
 33 34  1  0  0  0  0
 34 35  1  1  0  0  0
 38 36  1  0  0  0  0
 39 38  1  1  0  0  0
 40 37  1  1  0  0  0
 40 43  1  0  0  0  0
 41 42  2  0  0  0  0
 42 39  1  0  0  0  0
 42 44  1  0  0  0  0
 43 39  1  0  0  0  0
 44 36  1  0  0  0  0
 45 34  1  6  0  0  0
 45 40  1  0  0  0  0
 45 37  1  0  0  0  0
 45 41  1  0  0  0  0
 46 44  1  1  0  0  0
 46 49  1  0  0  0  0
 46 53  1  0  0  0  0
 47 51  1  0  0  0  0
 47 50  1  1  0  0  0
 49 52  1  0  0  0  0
 52 47  1  0  0  0  0
 53 48  1  6  0  0  0
 53 51  1  0  0  0  0
 54 55  3  0  0  0  0
M  END
>  <MODEL>
4

>  <REMARK>
 VINA RESULT:      -7.0      2.910      6.517
  Name = 
  12 active torsions:
  status: ('A' for Active; 'I' for Inactive)
    1  A    between atoms: C_3  and  C_29
    2  A    between atoms: C_3  and  C_39
    3  A    between atoms: C_5  and  C_39
    4  A    between atoms: C_5  and  C_48
    5  A    between atoms: C_9  and  N_44
    6  A    between atoms: C_10  and  C_49
    7  A    between atoms: C_11  and  C_29
    8  A    between atoms: C_16  and  O_21
    9  A    between atoms: C_16  and  C_24
   10  A    between atoms: C_16  and  C_45
   11  A    between atoms: O_21  and  C_49
   12  A    between atoms: C_39  and  C_53
                            x       y       z     vdW  Elec       q    Type
                         _______ _______ _______ _____ _____    ______ ____

>  <TORSDO>
F 12

$$$$
=
 OpenBabel11062421353D

 55 63  0  0  1  0  0  0  0  0999 V2000
  190.1980  177.3730  145.8640 C   0  0  0  0  0  0  0  0  0  0  0  0
  193.7100  175.4580  144.4690 C   0  0  0  0  0  0  0  0  0  0  0  0
  192.3410  176.3010  146.3010 C   0  0  0  0  0  0  0  0  0  0  0  0
  191.3710  176.7570  145.3860 C   0  0  0  0  0  0  0  0  0  0  0  0
  192.7430  175.9210  143.5640 C   0  0  0  0  0  3  0  0  0  0  0  0
  188.8670  178.1500  147.7800 N   0  0  0  0  0  1  0  0  0  0  0  0
  192.1360  176.4940  147.6650 C   0  0  0  0  0  3  0  0  0  0  0  0
  190.0380  177.5330  147.2500 C   0  0  0  0  0  0  0  0  0  0  0  0
  191.0050  177.1020  148.1050 N   0  0  0  0  0  0  0  0  0  0  0  0
  191.5890  176.5660  144.0150 C   0  0  0  0  0  3  0  0  0  0  0  0
  193.4880  175.6450  145.8440 C   0  0  0  0  0  3  0  0  0  0  0  0
  196.0800  175.4160  144.1070 O   0  0  0  0  0  1  0  0  0  0  0  0
  194.9040  174.6590  143.9570 C   0  0  1  0  0  0  0  0  0  0  0  0
  196.7250  168.1680  145.0270 S   0  0  0  0  0  0  0  0  0  0  0  0
  195.2980  168.2750  143.8690 C   0  0  0  0  0  2  0  0  0  0  0  0
  194.1520  172.3200  144.7530 C   0  0  0  0  0  3  0  0  0  0  0  0
  196.1570  169.6890  145.7450 C   0  0  0  0  0  0  0  0  0  0  0  0
  194.8450  169.9990  145.4650 C   0  0  0  0  0  0  0  0  0  0  0  0
  196.0390  171.8040  145.7960 N   0  0  0  0  0  0  0  0  0  0  0  0
  194.8370  171.3740  145.4840 C   0  0  0  0  0  0  0  0  0  0  0  0
  196.2590  173.0100  145.3200 N   0  0  0  0  0  2  0  0  0  0  0  0
  195.0810  173.3800  144.7420 C   0  0  0  0  0  0  0  0  0  0  0  0
  196.9100  170.8110  145.8660 N   0  0  0  0  0  0  0  0  0  0  0  0
  194.1650  169.0840  144.5200 C   0  0  0  0  0  2  0  0  0  0  0  0
  194.7210  174.2960  142.5980 O   0  0  0  0  0  0  0  0  0  0  0  0
  195.9630  174.2510  141.9380 C   0  0  0  0  0  2  0  0  0  0  0  0
  194.7710  174.8790  139.9290 C   0  0  0  0  0  0  0  0  0  0  0  0
  195.8710  174.9500  140.6240 C   0  0  0  0  0  0  0  0  0  0  0  0
  193.7210  174.8150  139.2710 O   0  0  0  0  0  0  0  0  0  0  0  0
  196.9470  175.7590  140.1640 N   0  0  0  0  0  1  0  0  0  0  0  0
  189.1060  177.7900  144.9230 C   0  0  0  0  0  2  0  0  0  0  0  0
  187.7920  177.1430  145.3430 C   0  0  0  0  0  2  0  0  0  0  0  0
  186.5620  177.9620  144.9410 C   0  0  1  0  0  3  0  0  0  0  0  0
  185.6840  177.2660  143.8880 C   0  0  2  0  0  3  0  0  0  0  0  0
  185.4300  175.9480  144.2490 F   0  0  0  0  0  0  0  0  0  0  0  0
  187.6160  174.9450  138.7400 O   0  0  0  0  0  0  0  0  0  0  0  0
  186.7810  178.7130  142.0170 C   0  0  0  0  0  2  0  0  0  0  0  0
  187.0680  176.2340  138.4750 C   0  0  0  0  0  2  0  0  0  0  0  0
  187.0310  177.0720  139.7480 C   0  0  2  0  0  3  0  0  0  0  0  0
  185.5060  178.0900  141.4290 C   0  0  1  0  0  3  0  0  0  0  0  0
  187.1250  176.1580  142.0070 C   0  0  0  0  0  3  0  0  0  0  0  0
  187.4420  176.0810  140.7180 C   0  0  0  0  0  0  0  0  0  0  0  0
  185.6750  177.5440  140.0550 N   0  0  0  0  0  2  0  0  0  0  0  0
  187.9230  174.9350  140.0670 N   0  0  0  0  0  0  0  0  0  0  0  0
  186.3230  177.3380  142.4940 C   0  0  2  0  0  0  0  0  0  0  0  0
  189.0990  174.2370  140.5820 C   0  0  1  0  0  3  0  0  0  0  0  0
  190.8900  172.3690  141.6410 C   0  0  1  0  0  3  0  0  0  0  0  0
  190.5820  173.7500  138.7620 O   0  0  0  0  0  1  0  0  0  0  0  0
  188.8130  173.6600  141.8320 O   0  0  0  0  0  0  0  0  0  0  0  0
  191.1240  171.1360  142.4880 C   0  0  0  0  0  1  0  0  0  0  0  0
  190.2080  171.9700  140.3280 C   0  0  0  0  0  2  0  0  0  0  0  0
  190.0620  173.4000  142.4340 C   0  0  0  0  0  2  0  0  0  0  0  0
  189.6170  173.1790  139.5950 C   0  0  1  0  0  3  0  0  0  0  0  0
  185.1660  178.6240  147.0710 N   0  0  0  0  0  0  0  0  0  0  0  0
  185.7780  178.3320  146.1320 C   0  0  0  0  0  0  0  0  0  0  0  0
  1  8  1  0  0  0  0
  2 11  2  0  0  0  0
  3  7  2  0  0  0  0
  4  1  2  0  0  0  0
  4  3  1  0  0  0  0
  5 10  2  0  0  0  0
  5  2  1  0  0  0  0
  7  9  1  0  0  0  0
  8  6  1  0  0  0  0
  8  9  2  0  0  0  0
 10  4  1  0  0  0  0
 11  3  1  0  0  0  0
 13 12  1  1  0  0  0
 13  2  1  0  0  0  0
 13 22  1  0  0  0  0
 14 17  1  0  0  0  0
 15 24  1  0  0  0  0
 15 14  1  0  0  0  0
 16 20  1  0  0  0  0
 17 23  2  0  0  0  0
 18 20  2  0  0  0  0
 18 17  1  0  0  0  0
 19 23  1  0  0  0  0
 20 19  1  0  0  0  0
 21 19  1  0  0  0  0
 22 16  2  0  0  0  0
 22 21  1  0  0  0  0
 24 18  1  0  0  0  0
 25 13  1  0  0  0  0
 26 25  1  0  0  0  0
 27 28  2  0  0  0  0
 28 26  1  0  0  0  0
 29 27  2  0  0  0  0
 30 28  1  0  0  0  0
 31 32  1  0  0  0  0
 31  1  1  0  0  0  0
 33 32  1  1  0  0  0
 33 55  1  0  0  0  0
 34 35  1  1  0  0  0
 34 33  1  0  0  0  0
 36 44  1  0  0  0  0
 37 45  1  0  0  0  0
 38 36  1  0  0  0  0
 39 38  1  6  0  0  0
 39 43  1  0  0  0  0
 39 42  1  0  0  0  0
 40 37  1  6  0  0  0
 40 45  1  0  0  0  0
 41 45  1  0  0  0  0
 42 41  2  0  0  0  0
 43 40  1  0  0  0  0
 44 42  1  0  0  0  0
 45 34  1  1  0  0  0
 46 44  1  6  0  0  0
 46 49  1  0  0  0  0
 47 52  1  0  0  0  0
 47 50  1  1  0  0  0
 49 52  1  0  0  0  0
 51 47  1  0  0  0  0
 53 48  1  1  0  0  0
 53 51  1  0  0  0  0
 53 46  1  0  0  0  0
 55 54  3  0  0  0  0
M  END
>  <MODEL>
5

>  <REMARK>
 VINA RESULT:      -6.9      3.547      8.777
  Name = 
  12 active torsions:
  status: ('A' for Active; 'I' for Inactive)
    1  A    between atoms: C_3  and  C_29
    2  A    between atoms: C_3  and  C_39
    3  A    between atoms: C_5  and  C_39
    4  A    between atoms: C_5  and  C_48
    5  A    between atoms: C_9  and  N_44
    6  A    between atoms: C_10  and  C_49
    7  A    between atoms: C_11  and  C_29
    8  A    between atoms: C_16  and  O_21
    9  A    between atoms: C_16  and  C_24
   10  A    between atoms: C_16  and  C_45
   11  A    between atoms: O_21  and  C_49
   12  A    between atoms: C_39  and  C_53
                            x       y       z     vdW  Elec       q    Type
                         _______ _______ _______ _____ _____    ______ ____

>  <TORSDO>
F 12

$$$$
=
 OpenBabel11062421353D

 55 63  0  0  1  0  0  0  0  0999 V2000
  193.2410  176.0770  144.7400 C   0  0  0  0  0  0  0  0  0  0  0  0
  189.8610  174.8370  142.5080 C   0  0  0  0  0  0  0  0  0  0  0  0
  190.8610  175.5770  144.6040 C   0  0  0  0  0  0  0  0  0  0  0  0
  192.1300  175.6430  143.9930 C   0  0  0  0  0  0  0  0  0  0  0  0
  191.1280  174.8980  141.9090 C   0  0  0  0  0  3  0  0  0  0  0  0
  194.1500  176.8620  146.8860 N   0  0  0  0  0  1  0  0  0  0  0  0
  190.7340  175.9160  145.9490 C   0  0  0  0  0  3  0  0  0  0  0  0
  193.0540  176.4170  146.0900 C   0  0  0  0  0  0  0  0  0  0  0  0
  191.8200  176.3200  146.6560 N   0  0  0  0  0  0  0  0  0  0  0  0
  192.2500  175.2930  142.6410 C   0  0  0  0  0  3  0  0  0  0  0  0
  189.7400  175.1940  143.8620 C   0  0  0  0  0  3  0  0  0  0  0  0
  188.1350  173.2480  142.0150 O   0  0  0  0  0  1  0  0  0  0  0  0
  188.6360  174.5120  141.6580 C   0  0  1  0  0  0  0  0  0  0  0  0
  185.6690  180.0570  144.3120 S   0  0  0  0  0  0  0  0  0  0  0  0
  185.9180  178.7590  145.5940 C   0  0  0  0  0  2  0  0  0  0  0  0
  186.5980  175.4560  142.9330 C   0  0  0  0  0  3  0  0  0  0  0  0
  185.5710  178.7480  143.1170 C   0  0  0  0  0  0  0  0  0  0  0  0
  185.3100  177.5050  143.6490 C   0  0  0  0  0  0  0  0  0  0  0  0
  186.4610  177.3530  141.7940 N   0  0  0  0  0  0  0  0  0  0  0  0
  185.9310  176.6500  142.7700 C   0  0  0  0  0  0  0  0  0  0  0  0
  187.4830  176.7280  141.2490 N   0  0  0  0  0  2  0  0  0  0  0  0
  187.5350  175.5220  141.8820 C   0  0  0  0  0  0  0  0  0  0  0  0
  186.3560  178.6530  142.0140 N   0  0  0  0  0  0  0  0  0  0  0  0
  185.2740  177.4430  145.1280 C   0  0  0  0  0  2  0  0  0  0  0  0
  188.9610  174.5430  140.2770 O   0  0  0  0  0  0  0  0  0  0  0  0
  188.5650  173.3410  139.6620 C   0  0  0  0  0  2  0  0  0  0  0  0
  187.8160  174.6250  137.7540 C   0  0  0  0  0  0  0  0  0  0  0  0
  188.4000  173.5460  138.1940 C   0  0  0  0  0  0  0  0  0  0  0  0
  187.2670  175.6570  137.3360 O   0  0  0  0  0  0  0  0  0  0  0  0
  188.9450  172.6110  137.2720 N   0  0  0  0  0  1  0  0  0  0  0  0
  194.5870  176.2430  144.0970 C   0  0  0  0  0  2  0  0  0  0  0  0
  195.0090  174.9310  143.4470 C   0  0  0  0  0  2  0  0  0  0  0  0
  195.0420  173.7560  144.4290 C   0  0  1  0  0  3  0  0  0  0  0  0
  195.1320  172.3850  143.7370 C   0  0  2  0  0  3  0  0  0  0  0  0
  195.9580  172.4490  142.6210 F   0  0  0  0  0  0  0  0  0  0  0  0
  191.2470  169.5070  140.2380 O   0  0  0  0  0  0  0  0  0  0  0  0
  192.5990  172.1810  144.3190 C   0  0  0  0  0  2  0  0  0  0  0  0
  190.8830  169.2780  141.5980 C   0  0  0  0  0  2  0  0  0  0  0  0
  191.4810  170.3540  142.5000 C   0  0  2  0  0  3  0  0  0  0  0  0
  193.1770  170.7590  144.2730 C   0  0  1  0  0  3  0  0  0  0  0  0
  193.3790  171.7610  141.8980 C   0  0  0  0  0  3  0  0  0  0  0  0
  192.3090  171.0560  141.5440 C   0  0  0  0  0  0  0  0  0  0  0  0
  192.3160  169.7760  143.5600 N   0  0  0  0  0  2  0  0  0  0  0  0
  192.0080  170.6360  140.2400 N   0  0  0  0  0  0  0  0  0  0  0  0
  193.7400  171.8600  143.3580 C   0  0  2  0  0  0  0  0  0  0  0  0
  191.9500  171.6080  139.1500 C   0  0  1  0  0  3  0  0  0  0  0  0
  192.5320  173.5060  137.1820 C   0  0  1  0  0  3  0  0  0  0  0  0
  191.5590  170.4510  137.0870 O   0  0  0  0  0  1  0  0  0  0  0  0
  192.5820  172.8040  139.5320 O   0  0  0  0  0  0  0  0  0  0  0  0
  193.4330  174.6140  136.6770 C   0  0  0  0  0  1  0  0  0  0  0  0
  193.2450  172.1570  137.0400 C   0  0  0  0  0  2  0  0  0  0  0  0
  192.1160  173.7920  138.6380 C   0  0  0  0  0  2  0  0  0  0  0  0
  192.5590  171.0540  137.8530 C   0  0  1  0  0  3  0  0  0  0  0  0
  196.9810  174.0700  146.1810 N   0  0  0  0  0  0  0  0  0  0  0  0
  196.1290  173.9340  145.4080 C   0  0  0  0  0  0  0  0  0  0  0  0
  1  8  1  0  0  0  0
  2 11  2  0  0  0  0
  3  7  2  0  0  0  0
  4  3  1  0  0  0  0
  4  1  2  0  0  0  0
  5  2  1  0  0  0  0
  5 10  2  0  0  0  0
  7  9  1  0  0  0  0
  8  9  2  0  0  0  0
  8  6  1  0  0  0  0
 10  4  1  0  0  0  0
 11  3  1  0  0  0  0
 13 22  1  0  0  0  0
 13 12  1  1  0  0  0
 13  2  1  0  0  0  0
 14 15  1  0  0  0  0
 17 18  1  0  0  0  0
 17 14  1  0  0  0  0
 18 24  1  0  0  0  0
 19 23  1  0  0  0  0
 19 20  1  0  0  0  0
 20 16  1  0  0  0  0
 20 18  2  0  0  0  0
 21 19  1  0  0  0  0
 21 22  1  0  0  0  0
 22 16  2  0  0  0  0
 23 17  2  0  0  0  0
 24 15  1  0  0  0  0
 25 13  1  0  0  0  0
 26 25  1  0  0  0  0
 27 28  2  0  0  0  0
 28 26  1  0  0  0  0
 29 27  2  0  0  0  0
 30 28  1  0  0  0  0
 31  1  1  0  0  0  0
 32 31  1  0  0  0  0
 33 32  1  6  0  0  0
 33 55  1  0  0  0  0
 34 35  1  6  0  0  0
 34 33  1  0  0  0  0
 36 44  1  0  0  0  0
 36 38  1  0  0  0  0
 39 38  1  6  0  0  0
 39 43  1  0  0  0  0
 40 37  1  1  0  0  0
 41 45  1  0  0  0  0
 42 41  2  0  0  0  0
 42 39  1  0  0  0  0
 43 40  1  0  0  0  0
 44 42  1  0  0  0  0
 45 34  1  1  0  0  0
 45 40  1  0  0  0  0
 45 37  1  0  0  0  0
 46 49  1  0  0  0  0
 46 44  1  1  0  0  0
 47 50  1  1  0  0  0
 47 52  1  0  0  0  0
 51 47  1  0  0  0  0
 51 53  1  0  0  0  0
 52 49  1  0  0  0  0
 53 48  1  6  0  0  0
 53 46  1  0  0  0  0
 55 54  3  0  0  0  0
M  END
>  <MODEL>
6

>  <REMARK>
 VINA RESULT:      -6.9      2.200      3.227
  Name = 
  12 active torsions:
  status: ('A' for Active; 'I' for Inactive)
    1  A    between atoms: C_3  and  C_29
    2  A    between atoms: C_3  and  C_39
    3  A    between atoms: C_5  and  C_39
    4  A    between atoms: C_5  and  C_48
    5  A    between atoms: C_9  and  N_44
    6  A    between atoms: C_10  and  C_49
    7  A    between atoms: C_11  and  C_29
    8  A    between atoms: C_16  and  O_21
    9  A    between atoms: C_16  and  C_24
   10  A    between atoms: C_16  and  C_45
   11  A    between atoms: O_21  and  C_49
   12  A    between atoms: C_39  and  C_53
                            x       y       z     vdW  Elec       q    Type
                         _______ _______ _______ _____ _____    ______ ____

>  <TORSDO>
F 12

$$$$
=
 OpenBabel11062421353D

 55 63  0  0  1  0  0  0  0  0999 V2000
  192.1010  171.2100  140.0690 C   0  0  0  0  0  0  0  0  0  0  0  0
  191.1480  174.6150  142.4020 C   0  0  0  0  0  0  0  0  0  0  0  0
  191.0410  172.2090  142.0200 C   0  0  0  0  0  0  0  0  0  0  0  0
  191.7730  172.3520  140.8240 C   0  0  0  0  0  0  0  0  0  0  0  0
  191.8700  174.7490  141.2060 C   0  0  0  0  0  3  0  0  0  0  0  0
  191.9790  168.7690  139.7930 N   0  0  0  0  0  1  0  0  0  0  0  0
  190.6290  170.9410  142.4200 C   0  0  0  0  0  3  0  0  0  0  0  0
  191.6690  169.9540  140.5240 C   0  0  0  0  0  0  0  0  0  0  0  0
  190.9450  169.8530  141.6710 N   0  0  0  0  0  0  0  0  0  0  0  0
  192.1760  173.6330  140.4240 C   0  0  0  0  0  3  0  0  0  0  0  0
  190.7490  173.3290  142.8050 C   0  0  0  0  0  3  0  0  0  0  0  0
  191.5990  176.9430  142.7530 O   0  0  0  0  0  1  0  0  0  0  0  0
  190.9250  175.8330  143.2920 C   0  0  1  0  0  0  0  0  0  0  0  0
  185.4190  179.2660  145.4110 S   0  0  0  0  0  0  0  0  0  0  0  0
  186.1420  178.2630  146.7750 C   0  0  0  0  0  2  0  0  0  0  0  0
  188.5750  175.6810  144.3530 C   0  0  0  0  0  3  0  0  0  0  0  0
  186.0760  178.0640  144.2820 C   0  0  0  0  0  0  0  0  0  0  0  0
  186.3980  176.8540  144.8580 C   0  0  0  0  0  0  0  0  0  0  0  0
  187.6480  177.2640  143.1080 N   0  0  0  0  0  0  0  0  0  0  0  0
  187.4340  176.4010  144.0750 C   0  0  0  0  0  0  0  0  0  0  0  0
  188.8900  177.2080  142.6780 N   0  0  0  0  0  2  0  0  0  0  0  0
  189.4580  176.1840  143.3760 C   0  0  0  0  0  0  0  0  0  0  0  0
  186.9090  178.3520  143.2500 N   0  0  0  0  0  0  0  0  0  0  0  0
  186.2580  176.7960  146.3300 C   0  0  0  0  0  2  0  0  0  0  0  0
  191.3730  175.5780  144.6140 O   0  0  0  0  0  0  0  0  0  0  0  0
  192.5250  176.3370  144.8890 C   0  0  0  0  0  2  0  0  0  0  0  0
  192.1970  175.6510  147.1850 C   0  0  0  0  0  0  0  0  0  0  0  0
  193.0310  176.0250  146.2560 C   0  0  0  0  0  0  0  0  0  0  0  0
  191.4020  175.2880  148.0660 O   0  0  0  0  0  0  0  0  0  0  0  0
  194.4260  176.0570  146.5300 N   0  0  0  0  0  1  0  0  0  0  0  0
  192.9540  171.3170  138.8380 C   0  0  0  0  0  2  0  0  0  0  0  0
  194.4230  171.3860  139.2370 C   0  0  0  0  0  2  0  0  0  0  0  0
  195.2800  172.1760  138.2440 C   0  0  1  0  0  3  0  0  0  0  0  0
  196.5340  172.7990  138.8810 C   0  0  2  0  0  3  0  0  0  0  0  0
  197.3170  171.8220  139.4850 F   0  0  0  0  0  0  0  0  0  0  0  0
  196.8210  175.5830  144.1520 O   0  0  0  0  0  0  0  0  0  0  0  0
  195.1530  174.9440  139.4140 C   0  0  0  0  0  2  0  0  0  0  0  0
  196.6820  176.5670  143.1300 C   0  0  0  0  0  2  0  0  0  0  0  0
  196.1020  175.9450  141.8640 C   0  0  2  0  0  3  0  0  0  0  0  0
  196.6400  175.3160  139.5190 C   0  0  1  0  0  3  0  0  0  0  0  0
  196.1430  173.5620  141.3520 C   0  0  0  0  0  3  0  0  0  0  0  0
  196.1040  174.5490  142.2410 C   0  0  0  0  0  0  0  0  0  0  0  0
  196.9760  176.1530  140.7020 N   0  0  0  0  0  2  0  0  0  0  0  0
  196.3660  174.4180  143.6130 N   0  0  0  0  0  0  0  0  0  0  0  0
  196.1620  173.9000  139.8830 C   0  0  2  0  0  0  0  0  0  0  0  0
  195.6370  173.4320  144.4090 C   0  0  1  0  0  3  0  0  0  0  0  0
  194.1870  171.2180  145.3100 C   0  0  1  0  0  3  0  0  0  0  0  0
  197.1890  172.2400  145.7930 O   0  0  0  0  0  1  0  0  0  0  0  0
  194.3930  173.1530  143.8160 O   0  0  0  0  0  0  0  0  0  0  0  0
  193.2140  170.0980  145.0080 C   0  0  0  0  0  1  0  0  0  0  0  0
  195.5420  170.9100  144.6630 C   0  0  0  0  0  2  0  0  0  0  0  0
  193.6060  172.5610  144.8280 C   0  0  0  0  0  2  0  0  0  0  0  0
  196.4500  172.1440  144.6130 C   0  0  1  0  0  3  0  0  0  0  0  0
  195.8990  170.6760  136.1720 N   0  0  0  0  0  0  0  0  0  0  0  0
  195.6280  171.3380  137.0840 C   0  0  0  0  0  0  0  0  0  0  0  0
  1  8  2  0  0  0  0
  1  4  1  0  0  0  0
  2 11  1  0  0  0  0
  2 13  1  0  0  0  0
  3  7  1  0  0  0  0
  3 11  2  0  0  0  0
  4  3  1  0  0  0  0
  5  2  2  0  0  0  0
  6  8  1  0  0  0  0
  8  9  1  0  0  0  0
  9  7  2  0  0  0  0
 10  4  2  0  0  0  0
 10  5  1  0  0  0  0
 13 12  1  6  0  0  0
 13 22  1  0  0  0  0
 13 25  1  0  0  0  0
 14 15  1  0  0  0  0
 17 18  1  0  0  0  0
 17 14  1  0  0  0  0
 18 24  1  0  0  0  0
 19 23  1  0  0  0  0
 19 20  1  0  0  0  0
 20 16  1  0  0  0  0
 20 18  2  0  0  0  0
 21 19  1  0  0  0  0
 21 22  1  0  0  0  0
 22 16  2  0  0  0  0
 23 17  2  0  0  0  0
 24 15  1  0  0  0  0
 25 26  1  0  0  0  0
 26 28  1  0  0  0  0
 27 29  2  0  0  0  0
 28 30  1  0  0  0  0
 28 27  2  0  0  0  0
 31 32  1  0  0  0  0
 31  1  1  0  0  0  0
 33 55  1  6  0  0  0
 33 34  1  0  0  0  0
 33 32  1  0  0  0  0
 34 35  1  1  0  0  0
 37 45  1  0  0  0  0
 38 36  1  0  0  0  0
 39 42  1  0  0  0  0
 39 38  1  1  0  0  0
 40 37  1  1  0  0  0
 40 45  1  0  0  0  0
 40 43  1  0  0  0  0
 41 42  2  0  0  0  0
 42 44  1  0  0  0  0
 43 39  1  0  0  0  0
 44 36  1  0  0  0  0
 45 34  1  6  0  0  0
 45 41  1  0  0  0  0
 46 44  1  6  0  0  0
 46 53  1  0  0  0  0
 47 50  1  6  0  0  0
 49 46  1  0  0  0  0
 49 52  1  0  0  0  0
 51 47  1  0  0  0  0
 52 47  1  0  0  0  0
 53 51  1  0  0  0  0
 53 48  1  1  0  0  0
 54 55  3  0  0  0  0
M  END
>  <MODEL>
7

>  <REMARK>
 VINA RESULT:      -6.9      2.640      6.313
  Name = 
  12 active torsions:
  status: ('A' for Active; 'I' for Inactive)
    1  A    between atoms: C_3  and  C_29
    2  A    between atoms: C_3  and  C_39
    3  A    between atoms: C_5  and  C_39
    4  A    between atoms: C_5  and  C_48
    5  A    between atoms: C_9  and  N_44
    6  A    between atoms: C_10  and  C_49
    7  A    between atoms: C_11  and  C_29
    8  A    between atoms: C_16  and  O_21
    9  A    between atoms: C_16  and  C_24
   10  A    between atoms: C_16  and  C_45
   11  A    between atoms: O_21  and  C_49
   12  A    between atoms: C_39  and  C_53
                            x       y       z     vdW  Elec       q    Type
                         _______ _______ _______ _____ _____    ______ ____

>  <TORSDO>
F 12

$$$$
=
 OpenBabel11062421353D

 55 63  0  0  1  0  0  0  0  0999 V2000
  189.7690  176.4590  144.9180 C   0  0  0  0  0  0  0  0  0  0  0  0
  193.3600  174.2300  144.6280 C   0  0  0  0  0  0  0  0  0  0  0  0
  191.5880  175.2290  145.9720 C   0  0  0  0  0  0  0  0  0  0  0  0
  190.9730  175.7380  144.8100 C   0  0  0  0  0  0  0  0  0  0  0  0
  192.7460  174.7460  143.4770 C   0  0  0  0  0  3  0  0  0  0  0  0
  188.0030  177.3920  146.3530 N   0  0  0  0  0  1  0  0  0  0  0  0
  191.0070  175.4740  147.2130 C   0  0  0  0  0  3  0  0  0  0  0  0
  189.2210  176.6680  146.1940 C   0  0  0  0  0  0  0  0  0  0  0  0
  189.8520  176.1830  147.2980 N   0  0  0  0  0  0  0  0  0  0  0  0
  191.5690  175.4940  143.5650 C   0  0  0  0  0  3  0  0  0  0  0  0
  192.7580  174.4700  145.8750 C   0  0  0  0  0  3  0  0  0  0  0  0
  195.1520  173.1100  145.7610 O   0  0  0  0  0  1  0  0  0  0  0  0
  194.5790  173.3240  144.4940 C   0  0  1  0  0  0  0  0  0  0  0  0
  192.2110  168.9200  139.8460 S   0  0  0  0  0  0  0  0  0  0  0  0
  190.8640  169.9980  140.4880 C   0  0  0  0  0  2  0  0  0  0  0  0
  192.8980  171.4290  143.9910 C   0  0  0  0  0  3  0  0  0  0  0  0
  193.0220  169.1360  141.4110 C   0  0  0  0  0  0  0  0  0  0  0  0
  192.2010  169.5740  142.4260 C   0  0  0  0  0  0  0  0  0  0  0  0
  194.2700  170.2190  142.7380 N   0  0  0  0  0  0  0  0  0  0  0  0
  193.0550  170.2880  143.2330 C   0  0  0  0  0  0  0  0  0  0  0  0
  194.9960  171.2560  143.0930 N   0  0  0  0  0  2  0  0  0  0  0  0
  194.1960  171.9750  143.9310 C   0  0  0  0  0  0  0  0  0  0  0  0
  194.2850  169.6080  141.5640 N   0  0  0  0  0  0  0  0  0  0  0  0
  190.8170  169.9080  142.0220 C   0  0  0  0  0  2  0  0  0  0  0  0
  195.5330  173.8920  143.6110 O   0  0  0  0  0  0  0  0  0  0  0  0
  196.4810  174.6360  144.3370 C   0  0  0  0  0  2  0  0  0  0  0  0
  195.4790  176.8040  144.7260 C   0  0  0  0  0  0  0  0  0  0  0  0
  196.3280  176.0900  144.0410 C   0  0  0  0  0  0  0  0  0  0  0  0
  194.6760  177.4840  145.3840 O   0  0  0  0  0  0  0  0  0  0  0  0
  197.1590  176.7170  143.0720 N   0  0  0  0  0  1  0  0  0  0  0  0
  189.0430  176.9380  143.6950 C   0  0  0  0  0  2  0  0  0  0  0  0
  188.1610  175.8200  143.1520 C   0  0  0  0  0  2  0  0  0  0  0  0
  188.3560  175.5750  141.6520 C   0  0  1  0  0  3  0  0  0  0  0  0
  188.1960  174.0990  141.2500 C   0  0  2  0  0  3  0  0  0  0  0  0
  188.6690  173.2600  142.2530 F   0  0  0  0  0  0  0  0  0  0  0  0
  192.6140  171.9440  137.8650 O   0  0  0  0  0  0  0  0  0  0  0  0
  188.1900  174.2790  138.6490 C   0  0  0  0  0  2  0  0  0  0  0  0
  191.3810  171.7430  137.1770 C   0  0  0  0  0  2  0  0  0  0  0  0
  190.3110  172.6910  137.7100 C   0  0  2  0  0  3  0  0  0  0  0  0
  188.1910  172.7850  139.0070 C   0  0  1  0  0  3  0  0  0  0  0  0
  190.4050  173.7990  139.8800 C   0  0  0  0  0  3  0  0  0  0  0  0
  191.0220  173.2770  138.8250 C   0  0  0  0  0  0  0  0  0  0  0  0
  189.1290  171.9650  138.1930 N   0  0  0  0  0  2  0  0  0  0  0  0
  192.3820  172.9400  138.7640 N   0  0  0  0  0  0  0  0  0  0  0  0
  188.8980  173.8070  139.9160 C   0  0  2  0  0  0  0  0  0  0  0  0
  193.4010  173.9350  139.0930 C   0  0  1  0  0  3  0  0  0  0  0  0
  195.7890  175.3160  139.5440 C   0  0  1  0  0  3  0  0  0  0  0  0
  193.4360  175.6170  137.3850 O   0  0  0  0  0  1  0  0  0  0  0  0
  194.3340  173.3950  139.9970 O   0  0  0  0  0  0  0  0  0  0  0  0
  197.2650  175.2750  139.8810 C   0  0  0  0  0  1  0  0  0  0  0  0
  195.5730  174.8060  138.1150 C   0  0  0  0  0  2  0  0  0  0  0  0
  194.9930  174.4980  140.5790 C   0  0  0  0  0  2  0  0  0  0  0  0
  194.1020  174.4760  137.8380 C   0  0  1  0  0  3  0  0  0  0  0  0
  186.7600  177.1270  140.2490 N   0  0  0  0  0  0  0  0  0  0  0  0
  187.4610  176.4430  140.8680 C   0  0  0  0  0  0  0  0  0  0  0  0
  1  8  1  0  0  0  0
  2 11  2  0  0  0  0
  3  7  2  0  0  0  0
  4  1  2  0  0  0  0
  4  3  1  0  0  0  0
  5 10  2  0  0  0  0
  5  2  1  0  0  0  0
  7  9  1  0  0  0  0
  8  6  1  0  0  0  0
  8  9  2  0  0  0  0
 10  4  1  0  0  0  0
 11  3  1  0  0  0  0
 13  2  1  0  0  0  0
 13 12  1  1  0  0  0
 14 15  1  0  0  0  0
 14 17  1  0  0  0  0
 15 24  1  0  0  0  0
 17 23  2  0  0  0  0
 17 18  1  0  0  0  0
 18 20  2  0  0  0  0
 19 21  1  0  0  0  0
 19 20  1  0  0  0  0
 20 16  1  0  0  0  0
 21 22  1  0  0  0  0
 22 16  2  0  0  0  0
 22 13  1  0  0  0  0
 23 19  1  0  0  0  0
 24 18  1  0  0  0  0
 25 26  1  0  0  0  0
 25 13  1  0  0  0  0
 27 29  2  0  0  0  0
 28 26  1  0  0  0  0
 28 27  2  0  0  0  0
 30 28  1  0  0  0  0
 31  1  1  0  0  0  0
 32 31  1  0  0  0  0
 33 55  1  6  0  0  0
 33 32  1  0  0  0  0
 34 33  1  0  0  0  0
 34 35  1  1  0  0  0
 36 44  1  0  0  0  0
 37 45  1  0  0  0  0
 38 36  1  0  0  0  0
 39 38  1  1  0  0  0
 39 43  1  0  0  0  0
 39 42  1  0  0  0  0
 40 37  1  6  0  0  0
 40 45  1  0  0  0  0
 41 45  1  0  0  0  0
 42 41  2  0  0  0  0
 43 40  1  0  0  0  0
 44 42  1  0  0  0  0
 45 34  1  1  0  0  0
 46 44  1  6  0  0  0
 46 49  1  0  0  0  0
 47 50  1  1  0  0  0
 47 52  1  0  0  0  0
 49 52  1  0  0  0  0
 51 47  1  0  0  0  0
 53 48  1  1  0  0  0
 53 51  1  0  0  0  0
 53 46  1  0  0  0  0
 54 55  3  0  0  0  0
M  END
>  <MODEL>
8

>  <REMARK>
 VINA RESULT:      -6.8      3.252      7.482
  Name = 
  12 active torsions:
  status: ('A' for Active; 'I' for Inactive)
    1  A    between atoms: C_3  and  C_29
    2  A    between atoms: C_3  and  C_39
    3  A    between atoms: C_5  and  C_39
    4  A    between atoms: C_5  and  C_48
    5  A    between atoms: C_9  and  N_44
    6  A    between atoms: C_10  and  C_49
    7  A    between atoms: C_11  and  C_29
    8  A    between atoms: C_16  and  O_21
    9  A    between atoms: C_16  and  C_24
   10  A    between atoms: C_16  and  C_45
   11  A    between atoms: O_21  and  C_49
   12  A    between atoms: C_39  and  C_53
                            x       y       z     vdW  Elec       q    Type
                         _______ _______ _______ _____ _____    ______ ____

>  <TORSDO>
F 12

$$$$
=
 OpenBabel11062421353D

 55 63  0  0  1  0  0  0  0  0999 V2000
  187.1080  176.1890  142.0890 C   0  0  0  0  0  0  0  0  0  0  0  0
  189.6690  172.8300  141.7760 C   0  0  0  0  0  0  0  0  0  0  0  0
  188.3690  174.6090  140.7320 C   0  0  0  0  0  0  0  0  0  0  0  0
  187.9420  175.0590  141.9980 C   0  0  0  0  0  0  0  0  0  0  0  0
  189.2330  173.2790  143.0310 C   0  0  0  0  0  3  0  0  0  0  0  0
  185.8640  177.9780  140.9480 N   0  0  0  0  0  1  0  0  0  0  0  0
  187.9350  175.2740  139.5890 C   0  0  0  0  0  3  0  0  0  0  0  0
  186.7080  176.8290  140.9040 C   0  0  0  0  0  0  0  0  0  0  0  0
  187.1200  176.3550  139.6980 N   0  0  0  0  0  0  0  0  0  0  0  0
  188.3770  174.3780  143.1430 C   0  0  0  0  0  3  0  0  0  0  0  0
  189.2360  173.5170  140.6290 C   0  0  0  0  0  3  0  0  0  0  0  0
  190.0740  170.4790  142.0130 O   0  0  0  0  0  1  0  0  0  0  0  0
  190.6910  171.7000  141.6890 C   0  0  1  0  0  0  0  0  0  0  0  0
  191.1700  172.9900  135.0030 S   0  0  0  0  0  0  0  0  0  0  0  0
  189.6170  172.0820  135.3950 C   0  0  0  0  0  2  0  0  0  0  0  0
  190.7360  170.7040  139.3070 C   0  0  0  0  0  3  0  0  0  0  0  0
  191.8950  172.2040  136.4200 C   0  0  0  0  0  0  0  0  0  0  0  0
  191.2240  171.0840  136.8590 C   0  0  0  0  0  0  0  0  0  0  0  0
  192.2750  172.0810  138.5010 N   0  0  0  0  0  0  0  0  0  0  0  0
  191.4830  171.0740  138.2100 C   0  0  0  0  0  0  0  0  0  0  0  0
  192.1310  172.4620  139.7520 N   0  0  0  0  0  2  0  0  0  0  0  0
  191.2470  171.5750  140.2890 C   0  0  0  0  0  0  0  0  0  0  0  0
  192.4740  172.8650  137.4540 N   0  0  0  0  0  0  0  0  0  0  0  0
  189.9520  170.7920  136.1600 C   0  0  0  0  0  2  0  0  0  0  0  0
  191.7860  171.9460  142.5560 O   0  0  0  0  0  0  0  0  0  0  0  0
  192.3710  170.7290  142.9520 C   0  0  0  0  0  2  0  0  0  0  0  0
  194.6130  171.4260  143.5350 C   0  0  0  0  0  0  0  0  0  0  0  0
  193.8430  170.7670  142.7160 C   0  0  0  0  0  0  0  0  0  0  0  0
  195.3460  172.0480  144.3200 O   0  0  0  0  0  0  0  0  0  0  0  0
  194.4190  170.0220  141.6500 N   0  0  0  0  0  1  0  0  0  0  0  0
  186.7060  176.7470  143.4230 C   0  0  0  0  0  2  0  0  0  0  0  0
  187.7640  177.7330  143.9060 C   0  0  0  0  0  2  0  0  0  0  0  0
  188.4860  177.2680  145.1740 C   0  0  1  0  0  3  0  0  0  0  0  0
  189.9000  177.8550  145.3210 C   0  0  2  0  0  3  0  0  0  0  0  0
  190.2070  178.6770  144.2420 F   0  0  0  0  0  0  0  0  0  0  0  0
  195.4490  175.6600  145.2310 O   0  0  0  0  0  0  0  0  0  0  0  0
  190.4360  175.3650  145.8770 C   0  0  0  0  0  2  0  0  0  0  0  0
  194.7370  175.0380  146.2980 C   0  0  0  0  0  2  0  0  0  0  0  0
  193.2320  175.1490  146.0730 C   0  0  2  0  0  3  0  0  0  0  0  0
  191.1590  176.2350  146.9160 C   0  0  1  0  0  3  0  0  0  0  0  0
  192.1740  176.7790  144.6000 C   0  0  0  0  0  3  0  0  0  0  0  0
  193.2110  176.0090  144.9090 C   0  0  0  0  0  0  0  0  0  0  0  0
  192.5570  175.8100  147.1980 N   0  0  0  0  0  2  0  0  0  0  0  0
  194.5020  176.1310  144.3740 N   0  0  0  0  0  0  0  0  0  0  0  0
  190.9500  176.7460  145.4800 C   0  0  2  0  0  0  0  0  0  0  0  0
  194.7000  176.1250  142.9260 C   0  0  1  0  0  3  0  0  0  0  0  0
  195.5980  175.6650  140.3190 C   0  0  1  0  0  3  0  0  0  0  0  0
  192.9090  174.9090  141.8950 O   0  0  0  0  0  1  0  0  0  0  0  0
  196.0450  176.3930  142.6180 O   0  0  0  0  0  0  0  0  0  0  0  0
  196.7290  175.2770  139.3880 C   0  0  0  0  0  1  0  0  0  0  0  0
  195.1170  174.4290  141.0860 C   0  0  0  0  0  2  0  0  0  0  0  0
  196.0610  176.7900  141.2640 C   0  0  0  0  0  2  0  0  0  0  0  0
  194.2440  174.8020  142.2900 C   0  0  1  0  0  3  0  0  0  0  0  0
  187.0220  177.7610  147.3040 N   0  0  0  0  0  0  0  0  0  0  0  0
  187.6650  177.5460  146.3650 C   0  0  0  0  0  0  0  0  0  0  0  0
  1 31  1  0  0  0  0
  2  5  1  0  0  0  0
  3  4  2  0  0  0  0
  4  1  1  0  0  0  0
  4 10  1  0  0  0  0
  5 10  2  0  0  0  0
  7  9  2  0  0  0  0
  7  3  1  0  0  0  0
  8  6  1  0  0  0  0
  8  1  2  0  0  0  0
  9  8  1  0  0  0  0
 11  3  1  0  0  0  0
 11  2  2  0  0  0  0
 13  2  1  0  0  0  0
 13 12  1  1  0  0  0
 13 25  1  0  0  0  0
 14 15  1  0  0  0  0
 14 17  1  0  0  0  0
 15 24  1  0  0  0  0
 16 22  2  0  0  0  0
 17 18  1  0  0  0  0
 17 23  2  0  0  0  0
 18 20  2  0  0  0  0
 19 21  1  0  0  0  0
 20 19  1  0  0  0  0
 20 16  1  0  0  0  0
 21 22  1  0  0  0  0
 22 13  1  0  0  0  0
 23 19  1  0  0  0  0
 24 18  1  0  0  0  0
 25 26  1  0  0  0  0
 27 29  2  0  0  0  0
 28 26  1  0  0  0  0
 28 27  2  0  0  0  0
 30 28  1  0  0  0  0
 31 32  1  0  0  0  0
 33 32  1  6  0  0  0
 33 34  1  0  0  0  0
 33 55  1  0  0  0  0
 34 35  1  6  0  0  0
 36 38  1  0  0  0  0
 39 38  1  1  0  0  0
 39 43  1  0  0  0  0
 40 37  1  6  0  0  0
 40 43  1  0  0  0  0
 41 42  2  0  0  0  0
 41 45  1  0  0  0  0
 42 39  1  0  0  0  0
 44 42  1  0  0  0  0
 44 36  1  0  0  0  0
 45 34  1  6  0  0  0
 45 37  1  0  0  0  0
 45 40  1  0  0  0  0
 46 44  1  1  0  0  0
 47 50  1  6  0  0  0
 47 51  1  0  0  0  0
 47 52  1  0  0  0  0
 49 46  1  0  0  0  0
 51 53  1  0  0  0  0
 52 49  1  0  0  0  0
 53 48  1  6  0  0  0
 53 46  1  0  0  0  0
 55 54  3  0  0  0  0
M  END
>  <MODEL>
9

>  <REMARK>
 VINA RESULT:      -6.8      3.545      8.401
  Name = 
  12 active torsions:
  status: ('A' for Active; 'I' for Inactive)
    1  A    between atoms: C_3  and  C_29
    2  A    between atoms: C_3  and  C_39
    3  A    between atoms: C_5  and  C_39
    4  A    between atoms: C_5  and  C_48
    5  A    between atoms: C_9  and  N_44
    6  A    between atoms: C_10  and  C_49
    7  A    between atoms: C_11  and  C_29
    8  A    between atoms: C_16  and  O_21
    9  A    between atoms: C_16  and  C_24
   10  A    between atoms: C_16  and  C_45
   11  A    between atoms: O_21  and  C_49
   12  A    between atoms: C_39  and  C_53
                            x       y       z     vdW  Elec       q    Type
                         _______ _______ _______ _____ _____    ______ ____

>  <TORSDO>
F 12

$$$$
