=
 OpenBabel11062420313D

 53 59  0  0  1  0  0  0  0  0999 V2000
  194.9490  174.8340  144.7280 C   0  0  1  0  0  3  0  0  0  0  0  0
  192.4610  174.6630  144.5420 C   0  0  0  0  0  3  0  0  0  0  0  0
  192.9190  172.1740  142.8480 C   0  0  0  0  0  0  0  0  0  0  0  0
  193.7580  173.9260  144.4020 C   0  0  1  0  0  3  0  0  0  0  0  0
  194.9310  173.4400  142.0190 C   0  0  1  0  0  3  0  0  0  0  0  0
  195.0170  176.0760  143.8420 C   0  0  0  0  0  2  0  0  0  0  0  0
  191.2900  174.0410  144.6590 C   0  0  0  0  0  0  0  0  0  0  0  0
  193.8300  173.1650  143.0810 C   0  0  0  0  0  0  0  0  0  0  0  0
  195.8360  174.4890  142.2740 O   0  0  0  0  0  0  0  0  0  0  0  0
  191.9040  171.7600  143.8510 C   0  0  0  0  0  3  0  0  0  0  0  0
  195.0940  175.6700  142.3750 C   0  0  0  0  0  2  0  0  0  0  0  0
  194.9850  175.2180  146.1900 C   0  0  0  0  0  1  0  0  0  0  0  0
  191.1900  172.5660  144.6380 C   0  0  0  0  0  3  0  0  0  0  0  0
  193.4390  170.0840  141.5780 C   0  0  0  0  0  3  0  0  0  0  0  0
  192.3260  171.1590  139.2480 C   0  0  0  0  0  0  0  0  0  0  0  0
  192.3430  171.9100  140.4260 C   0  0  0  0  0  3  0  0  0  0  0  0
  192.8640  169.8700  139.2340 C   0  0  0  0  0  3  0  0  0  0  0  0
  191.7770  171.6760  138.1220 F   0  0  0  0  0  0  0  0  0  0  0  0
  193.4180  169.3320  140.4000 C   0  0  0  0  0  3  0  0  0  0  0  0
  192.9130  171.3840  141.5950 C   0  0  0  0  0  0  0  0  0  0  0  0
  195.6410  172.2940  141.6010 O   0  0  0  0  0  0  0  0  0  0  0  0
  196.5210  172.6470  140.5650 C   0  0  0  0  0  2  0  0  0  0  0  0
  195.8470  172.5760  139.1960 C   0  0  2  0  0  3  0  0  0  0  0  0
  195.8400  171.2690  138.7360 F   0  0  0  0  0  0  0  0  0  0  0  0
  196.4230  173.5290  138.1260 C   0  0  2  0  0  0  0  0  0  0  0  0
  196.4910  174.9740  138.4920 C   0  0  0  0  0  0  0  0  0  0  0  0
  195.5330  173.9040  137.0520 C   0  0  2  0  0  3  0  0  0  0  0  0
  195.6630  175.2910  137.3470 O   0  0  0  0  0  0  0  0  0  0  0  0
  197.7070  173.0740  137.6060 N   0  0  0  0  0  1  0  0  0  0  0  0
  194.2050  173.5130  137.2820 O   0  0  0  0  0  1  0  0  0  0  0  0
  197.0720  175.6470  139.3860 O   0  0  0  0  0  0  0  0  0  0  0  0
  190.1200  174.8340  144.8750 N   0  0  0  0  0  2  0  0  0  0  0  0
  189.5480  175.7050  143.8520 C   0  0  2  0  0  3  0  0  0  0  0  0
  185.9250  177.8480  144.6990 C   0  0  2  0  0  3  0  0  0  0  0  0
  188.3920  176.4560  144.3630 N   0  0  0  0  0  0  0  0  0  0  0  0
  188.1270  177.5340  143.4120 C   0  0  0  0  0  2  0  0  0  0  0  0
  187.5160  177.4840  146.4220 C   0  0  0  0  0  2  0  0  0  0  0  0
  186.7370  178.5150  145.7410 N   0  0  2  0  0  0  0  0  0  0  0  0
  185.9400  179.2090  146.7660 C   0  0  0  0  0  2  0  0  0  0  0  0
  188.7620  177.1270  145.6140 C   0  0  0  0  0  2  0  0  0  0  0  0
  186.6380  177.8890  143.3340 C   0  0  2  0  0  3  0  0  0  0  0  0
  183.7460  178.2910  145.9110 C   0  0  0  0  0  2  0  0  0  0  0  0
  186.5300  179.1670  142.7690 O   0  0  0  0  0  1  0  0  0  0  0  0
  184.4980  178.4020  144.5810 C   0  0  0  0  0  2  0  0  0  0  0  0
  184.6590  178.4490  147.1270 C   0  0  0  0  0  2  0  0  0  0  0  0
  189.8880  174.9470  141.4900 C   0  0  0  0  0  3  0  0  0  0  0  0
  189.5430  174.1570  140.3900 C   0  0  0  0  0  3  0  0  0  0  0  0
  189.1560  174.8590  142.6760 C   0  0  0  0  0  0  0  0  0  0  0  0
  187.7240  173.1850  141.6600 C   0  0  0  0  0  3  0  0  0  0  0  0
  188.0710  173.9720  142.7600 C   0  0  0  0  0  3  0  0  0  0  0  0
  188.4560  173.2770  140.4660 C   0  0  0  0  0  0  0  0  0  0  0  0
  188.5990  172.8090  138.0430 C   0  0  0  0  0  1  0  0  0  0  0  0
  188.1350  172.5000  139.3490 O   0  0  0  0  0  0  0  0  0  0  0  0
  1 12  1  1  0  0  0
  2  7  2  0  0  0  0
  3  8  2  0  0  0  0
  3 10  1  0  0  0  0
  4  2  1  6  0  0  0
  4  1  1  0  0  0  0
  5 21  1  1  0  0  0
  5  9  1  0  0  0  0
  5  8  1  0  0  0  0
  6  1  1  0  0  0  0
  7 32  1  0  0  0  0
  8  4  1  0  0  0  0
  9 11  1  0  0  0  0
 10 13  2  0  0  0  0
 11  6  1  0  0  0  0
 13  7  1  0  0  0  0
 14 20  1  0  0  0  0
 15 16  1  0  0  0  0
 16 20  2  0  0  0  0
 17 15  2  0  0  0  0
 17 19  1  0  0  0  0
 18 15  1  0  0  0  0
 19 14  2  0  0  0  0
 20  3  1  0  0  0  0
 22 21  1  0  0  0  0
 23 24  1  6  0  0  0
 23 22  1  0  0  0  0
 25 29  1  6  0  0  0
 25 26  1  0  0  0  0
 25 23  1  0  0  0  0
 26 31  2  0  0  0  0
 27 30  1  1  0  0  0
 27 28  1  0  0  0  0
 27 25  1  0  0  0  0
 28 26  1  0  0  0  0
 33 35  1  0  0  0  0
 33 32  1  1  0  0  0
 34 44  1  6  0  0  0
 34 38  1  0  0  0  0
 35 40  1  0  0  0  0
 36 35  1  0  0  0  0
 38 37  1  1  0  0  0
 38 39  1  0  0  0  0
 39 45  1  0  0  0  0
 40 37  1  0  0  0  0
 41 43  1  1  0  0  0
 41 36  1  0  0  0  0
 41 34  1  0  0  0  0
 42 45  1  0  0  0  0
 44 42  1  0  0  0  0
 46 48  1  0  0  0  0
 47 51  1  0  0  0  0
 47 46  2  0  0  0  0
 48 50  2  0  0  0  0
 48 33  1  0  0  0  0
 49 50  1  0  0  0  0
 51 49  2  0  0  0  0
 52 53  1  0  0  0  0
 53 51  1  0  0  0  0
M  END
>  <MODEL>
1

>  <REMARK>
 VINA RESULT:      -6.9      0.000      0.000
  Name = 
  10 active torsions:
  status: ('A' for Active; 'I' for Inactive)
    1  A    between atoms: C_3  and  C_16
    2  A    between atoms: C_6  and  C_52
    3  A    between atoms: O_8  and  C_17
    4  A    between atoms: O_8  and  C_44
    5  A    between atoms: N_12  and  C_25
    6  A    between atoms: C_14  and  C_25
    7  A    between atoms: C_16  and  C_44
    8  A    between atoms: C_22  and  N_35
    9  A    between atoms: C_25  and  N_35
   10  A    between atoms: C_38  and  O_49
                            x       y       z     vdW  Elec       q    Type
                         _______ _______ _______ _____ _____    ______ ____

>  <TORSDO>
F 10

$$$$
=
 OpenBabel11062420313D

 53 59  0  0  1  0  0  0  0  0999 V2000
  196.0740  175.6750  141.7070 C   0  0  1  0  0  3  0  0  0  0  0  0
  194.1870  175.8550  143.3380 C   0  0  0  0  0  3  0  0  0  0  0  0
  195.4790  173.5450  144.8450 C   0  0  0  0  0  0  0  0  0  0  0  0
  195.5720  175.3290  143.1130 C   0  0  1  0  0  3  0  0  0  0  0  0
  196.0940  172.7430  142.5390 C   0  0  1  0  0  3  0  0  0  0  0  0
  195.1780  175.1260  140.5980 C   0  0  0  0  0  2  0  0  0  0  0  0
  193.6620  176.0020  144.5520 C   0  0  0  0  0  0  0  0  0  0  0  0
  195.6910  173.8670  143.5340 C   0  0  0  0  0  0  0  0  0  0  0  0
  196.2760  173.1020  141.1890 O   0  0  0  0  0  0  0  0  0  0  0  0
  195.2030  174.5650  145.8900 C   0  0  0  0  0  3  0  0  0  0  0  0
  195.0600  173.6100  140.7220 C   0  0  0  0  0  2  0  0  0  0  0  0
  196.2910  177.1600  141.5320 C   0  0  0  0  0  1  0  0  0  0  0  0
  194.4120  175.6320  145.7710 C   0  0  0  0  0  3  0  0  0  0  0  0
  196.7310  171.7160  146.0020 C   0  0  0  0  0  3  0  0  0  0  0  0
  194.5740  169.9640  145.6800 C   0  0  0  0  0  0  0  0  0  0  0  0
  194.4890  171.2730  145.1990 C   0  0  0  0  0  3  0  0  0  0  0  0
  195.7360  169.5310  146.3240 C   0  0  0  0  0  3  0  0  0  0  0  0
  193.5250  169.1190  145.5340 F   0  0  0  0  0  0  0  0  0  0  0  0
  196.8120  170.4080  146.4870 C   0  0  0  0  0  3  0  0  0  0  0  0
  195.5720  172.1530  145.3430 C   0  0  0  0  0  0  0  0  0  0  0  0
  197.1780  171.9450  142.9660 O   0  0  0  0  0  0  0  0  0  0  0  0
  197.3600  170.8880  142.0590 C   0  0  0  0  0  2  0  0  0  0  0  0
  196.1810  169.9170  142.0730 C   0  0  2  0  0  3  0  0  0  0  0  0
  196.2510  169.0990  143.1890 F   0  0  0  0  0  0  0  0  0  0  0  0
  196.0020  169.0760  140.7900 C   0  0  2  0  0  0  0  0  0  0  0  0
  195.3890  169.7720  139.6210 C   0  0  0  0  0  0  0  0  0  0  0  0
  194.8770  168.1700  140.7660 C   0  0  2  0  0  3  0  0  0  0  0  0
  194.3340  168.7800  139.5990 O   0  0  0  0  0  0  0  0  0  0  0  0
  197.2300  168.3960  140.3930 N   0  0  0  0  0  1  0  0  0  0  0  0
  193.9930  168.3700  141.8370 O   0  0  0  0  0  1  0  0  0  0  0  0
  195.6910  170.7680  138.9100 O   0  0  0  0  0  0  0  0  0  0  0  0
  192.3650  176.5940  144.6630 N   0  0  0  0  0  2  0  0  0  0  0  0
  191.2340  176.1960  143.8290 C   0  0  2  0  0  3  0  0  0  0  0  0
  187.2050  177.0120  145.0700 C   0  0  2  0  0  3  0  0  0  0  0  0
  189.9490  176.5200  144.4670 N   0  0  0  0  0  0  0  0  0  0  0  0
  189.2510  177.4470  143.5770 C   0  0  0  0  0  2  0  0  0  0  0  0
  188.9860  177.2020  146.6280 C   0  0  0  0  0  2  0  0  0  0  0  0
  187.8470  177.9140  146.0530 N   0  0  2  0  0  0  0  0  0  0  0  0
  186.9690  178.3050  147.1670 C   0  0  0  0  0  2  0  0  0  0  0  0
  190.1950  177.2790  145.6980 C   0  0  0  0  0  2  0  0  0  0  0  0
  187.7290  177.2860  143.6470 C   0  0  2  0  0  3  0  0  0  0  0  0
  185.1310  176.7070  146.4900 C   0  0  0  0  0  2  0  0  0  0  0  0
  187.1500  178.4540  143.1330 O   0  0  0  0  0  1  0  0  0  0  0  0
  185.6710  177.0600  145.1000 C   0  0  0  0  0  2  0  0  0  0  0  0
  186.0530  177.1640  147.6210 C   0  0  0  0  0  2  0  0  0  0  0  0
  191.1820  173.8190  144.6140 C   0  0  0  0  0  3  0  0  0  0  0  0
  191.2630  172.4440  144.3790 C   0  0  0  0  0  3  0  0  0  0  0  0
  191.3380  174.7230  143.5610 C   0  0  0  0  0  0  0  0  0  0  0  0
  191.6620  172.8710  142.0290 C   0  0  0  0  0  3  0  0  0  0  0  0
  191.5770  174.2450  142.2630 C   0  0  0  0  0  3  0  0  0  0  0  0
  191.5100  171.9620  143.0870 C   0  0  0  0  0  0  0  0  0  0  0  0
  190.8140  169.9080  141.9010 C   0  0  0  0  0  1  0  0  0  0  0  0
  191.5870  170.5810  142.8840 O   0  0  0  0  0  0  0  0  0  0  0  0
  1 12  1  1  0  0  0
  1  4  1  0  0  0  0
  2  7  2  0  0  0  0
  3 20  1  0  0  0  0
  3 10  1  0  0  0  0
  4  2  1  6  0  0  0
  4  8  1  0  0  0  0
  5 21  1  1  0  0  0
  5  8  1  0  0  0  0
  6 11  1  0  0  0  0
  6  1  1  0  0  0  0
  7 32  1  0  0  0  0
  7 13  1  0  0  0  0
  8  3  2  0  0  0  0
  9  5  1  0  0  0  0
 11  9  1  0  0  0  0
 13 10  2  0  0  0  0
 14 19  1  0  0  0  0
 15 17  1  0  0  0  0
 16 20  1  0  0  0  0
 16 15  2  0  0  0  0
 17 19  2  0  0  0  0
 18 15  1  0  0  0  0
 20 14  2  0  0  0  0
 22 23  1  0  0  0  0
 22 21  1  0  0  0  0
 23 24  1  1  0  0  0
 25 29  1  6  0  0  0
 25 23  1  0  0  0  0
 26 25  1  0  0  0  0
 27 25  1  0  0  0  0
 27 30  1  1  0  0  0
 28 26  1  0  0  0  0
 28 27  1  0  0  0  0
 31 26  2  0  0  0  0
 33 35  1  0  0  0  0
 33 32  1  1  0  0  0
 34 44  1  6  0  0  0
 34 38  1  0  0  0  0
 35 40  1  0  0  0  0
 36 41  1  0  0  0  0
 36 35  1  0  0  0  0
 38 37  1  1  0  0  0
 38 39  1  0  0  0  0
 39 45  1  0  0  0  0
 40 37  1  0  0  0  0
 41 43  1  1  0  0  0
 41 34  1  0  0  0  0
 42 45  1  0  0  0  0
 44 42  1  0  0  0  0
 47 46  1  0  0  0  0
 48 33  1  0  0  0  0
 48 46  2  0  0  0  0
 49 50  2  0  0  0  0
 49 51  1  0  0  0  0
 50 48  1  0  0  0  0
 51 47  2  0  0  0  0
 52 53  1  0  0  0  0
 53 51  1  0  0  0  0
M  END
>  <MODEL>
2

>  <REMARK>
 VINA RESULT:      -6.9      2.696      4.206
  Name = 
  10 active torsions:
  status: ('A' for Active; 'I' for Inactive)
    1  A    between atoms: C_3  and  C_16
    2  A    between atoms: C_6  and  C_52
    3  A    between atoms: O_8  and  C_17
    4  A    between atoms: O_8  and  C_44
    5  A    between atoms: N_12  and  C_25
    6  A    between atoms: C_14  and  C_25
    7  A    between atoms: C_16  and  C_44
    8  A    between atoms: C_22  and  N_35
    9  A    between atoms: C_25  and  N_35
   10  A    between atoms: C_38  and  O_49
                            x       y       z     vdW  Elec       q    Type
                         _______ _______ _______ _____ _____    ______ ____

>  <TORSDO>
F 10

$$$$
=
 OpenBabel11062420313D

 53 59  0  0  1  0  0  0  0  0999 V2000
  188.2460  173.7350  142.2960 C   0  0  1  0  0  3  0  0  0  0  0  0
  190.3280  172.3620  142.1150 C   0  0  0  0  0  3  0  0  0  0  0  0
  191.4140  173.9910  144.4480 C   0  0  0  0  0  0  0  0  0  0  0  0
  189.5250  173.2690  142.9980 C   0  0  1  0  0  3  0  0  0  0  0  0
  190.1290  175.8730  143.3770 C   0  0  1  0  0  3  0  0  0  0  0  0
  188.5150  174.4740  140.9850 C   0  0  0  0  0  2  0  0  0  0  0  0
  191.2760  171.5550  142.5860 C   0  0  0  0  0  0  0  0  0  0  0  0
  190.3940  174.3610  143.6160 C   0  0  0  0  0  0  0  0  0  0  0  0
  189.0900  176.2210  142.4910 O   0  0  0  0  0  0  0  0  0  0  0  0
  191.6720  172.5780  144.8280 C   0  0  0  0  0  3  0  0  0  0  0  0
  189.4080  175.6830  141.2400 C   0  0  0  0  0  2  0  0  0  0  0  0
  187.2730  172.5990  142.0770 C   0  0  0  0  0  1  0  0  0  0  0  0
  191.6170  171.5160  144.0230 C   0  0  0  0  0  3  0  0  0  0  0  0
  192.0640  175.3990  146.4080 C   0  0  0  0  0  3  0  0  0  0  0  0
  194.2770  176.4020  145.0210 C   0  0  0  0  0  0  0  0  0  0  0  0
  193.4270  175.4780  144.4080 C   0  0  0  0  0  3  0  0  0  0  0  0
  194.0220  176.8250  146.3280 C   0  0  0  0  0  3  0  0  0  0  0  0
  195.3550  176.8800  144.3530 F   0  0  0  0  0  0  0  0  0  0  0  0
  192.9170  176.3210  147.0220 C   0  0  0  0  0  3  0  0  0  0  0  0
  192.3070  174.9820  145.0910 C   0  0  0  0  0  0  0  0  0  0  0  0
  190.0210  176.6420  144.5560 O   0  0  0  0  0  0  0  0  0  0  0  0
  188.8390  177.4000  144.5090 C   0  0  0  0  0  2  0  0  0  0  0  0
  187.8510  176.9810  145.5940 C   0  0  2  0  0  3  0  0  0  0  0  0
  188.1330  175.6940  146.0250 F   0  0  0  0  0  0  0  0  0  0  0  0
  186.3590  177.1150  145.2170 C   0  0  2  0  0  0  0  0  0  0  0  0
  185.8100  178.5010  145.1670 C   0  0  0  0  0  0  0  0  0  0  0  0
  185.4030  176.8370  146.2640 C   0  0  2  0  0  3  0  0  0  0  0  0
  184.8220  178.1330  146.1600 O   0  0  0  0  0  0  0  0  0  0  0  0
  186.0240  176.3890  143.9970 N   0  0  0  0  0  1  0  0  0  0  0  0
  186.0000  176.7070  147.5280 O   0  0  0  0  0  1  0  0  0  0  0  0
  186.0580  179.5420  144.5010 O   0  0  0  0  0  0  0  0  0  0  0  0
  191.9240  170.6660  141.6720 N   0  0  0  0  0  2  0  0  0  0  0  0
  193.1950  170.9770  141.0240 C   0  0  2  0  0  3  0  0  0  0  0  0
  196.2010  172.9080  143.4050 C   0  0  2  0  0  3  0  0  0  0  0  0
  194.1930  171.4580  141.9900 N   0  0  0  0  0  0  0  0  0  0  0  0
  195.3940  171.8020  141.2310 C   0  0  0  0  0  2  0  0  0  0  0  0
  195.2130  170.8860  144.1580 C   0  0  0  0  0  2  0  0  0  0  0  0
  196.4910  171.5390  143.8850 N   0  0  2  0  0  0  0  0  0  0  0  0
  197.2770  171.4960  145.1290 C   0  0  0  0  0  2  0  0  0  0  0  0
  194.5950  170.3530  142.8670 C   0  0  0  0  0  2  0  0  0  0  0  0
  196.1740  172.9590  141.8660 C   0  0  2  0  0  3  0  0  0  0  0  0
  197.1320  173.9930  145.4960 C   0  0  0  0  0  2  0  0  0  0  0  0
  197.4790  172.9280  141.3560 O   0  0  0  0  0  1  0  0  0  0  0  0
  197.1560  173.9720  143.9640 C   0  0  0  0  0  2  0  0  0  0  0  0
  196.8910  172.6110  146.1060 C   0  0  0  0  0  2  0  0  0  0  0  0
  192.6780  171.5940  138.6530 C   0  0  0  0  0  3  0  0  0  0  0  0
  192.4310  172.5400  137.6540 C   0  0  0  0  0  3  0  0  0  0  0  0
  192.9450  172.0060  139.9610 C   0  0  0  0  0  0  0  0  0  0  0  0
  192.7190  174.3200  139.2710 C   0  0  0  0  0  3  0  0  0  0  0  0
  192.9620  173.3750  140.2690 C   0  0  0  0  0  3  0  0  0  0  0  0
  192.4550  173.9070  137.9550 C   0  0  0  0  0  0  0  0  0  0  0  0
  193.1620  175.7940  136.5220 C   0  0  0  0  0  1  0  0  0  0  0  0
  192.2050  174.8290  136.9340 O   0  0  0  0  0  0  0  0  0  0  0  0
  1 12  1  6  0  0  0
  1  4  1  0  0  0  0
  2  7  2  0  0  0  0
  3 10  1  0  0  0  0
  3 20  1  0  0  0  0
  4  2  1  6  0  0  0
  4  8  1  0  0  0  0
  5  8  1  0  0  0  0
  5 21  1  1  0  0  0
  6 11  1  0  0  0  0
  6  1  1  0  0  0  0
  7 13  1  0  0  0  0
  8  3  2  0  0  0  0
  9  5  1  0  0  0  0
 11  9  1  0  0  0  0
 13 10  2  0  0  0  0
 14 19  1  0  0  0  0
 15 17  1  0  0  0  0
 16 15  2  0  0  0  0
 16 20  1  0  0  0  0
 17 19  2  0  0  0  0
 18 15  1  0  0  0  0
 20 14  2  0  0  0  0
 22 21  1  0  0  0  0
 22 23  1  0  0  0  0
 23 24  1  6  0  0  0
 25 29  1  6  0  0  0
 25 23  1  0  0  0  0
 25 27  1  0  0  0  0
 26 25  1  0  0  0  0
 26 28  1  0  0  0  0
 27 30  1  1  0  0  0
 28 27  1  0  0  0  0
 31 26  2  0  0  0  0
 32  7  1  0  0  0  0
 33 32  1  1  0  0  0
 33 35  1  0  0  0  0
 34 38  1  0  0  0  0
 34 44  1  6  0  0  0
 35 40  1  0  0  0  0
 36 41  1  0  0  0  0
 36 35  1  0  0  0  0
 38 37  1  1  0  0  0
 38 39  1  0  0  0  0
 39 45  1  0  0  0  0
 40 37  1  0  0  0  0
 41 43  1  6  0  0  0
 41 34  1  0  0  0  0
 42 45  1  0  0  0  0
 44 42  1  0  0  0  0
 46 48  1  0  0  0  0
 47 51  1  0  0  0  0
 47 46  2  0  0  0  0
 48 50  2  0  0  0  0
 48 33  1  0  0  0  0
 49 50  1  0  0  0  0
 51 49  2  0  0  0  0
 52 53  1  0  0  0  0
 53 51  1  0  0  0  0
M  END
>  <MODEL>
3

>  <REMARK>
 VINA RESULT:      -6.7      3.071      9.168
  Name = 
  10 active torsions:
  status: ('A' for Active; 'I' for Inactive)
    1  A    between atoms: C_3  and  C_16
    2  A    between atoms: C_6  and  C_52
    3  A    between atoms: O_8  and  C_17
    4  A    between atoms: O_8  and  C_44
    5  A    between atoms: N_12  and  C_25
    6  A    between atoms: C_14  and  C_25
    7  A    between atoms: C_16  and  C_44
    8  A    between atoms: C_22  and  N_35
    9  A    between atoms: C_25  and  N_35
   10  A    between atoms: C_38  and  O_49
                            x       y       z     vdW  Elec       q    Type
                         _______ _______ _______ _____ _____    ______ ____

>  <TORSDO>
F 10

$$$$
=
 OpenBabel11062420313D

 53 59  0  0  1  0  0  0  0  0999 V2000
  196.1760  175.4250  143.0680 C   0  0  1  0  0  3  0  0  0  0  0  0
  193.8080  175.4260  143.8720 C   0  0  0  0  0  3  0  0  0  0  0  0
  194.3640  172.6590  145.0180 C   0  0  0  0  0  0  0  0  0  0  0  0
  195.1600  174.7990  144.0300 C   0  0  1  0  0  3  0  0  0  0  0  0
  195.8090  172.4020  142.9720 C   0  0  1  0  0  3  0  0  0  0  0  0
  195.7690  175.3000  141.6010 C   0  0  0  0  0  2  0  0  0  0  0  0
  192.8560  175.3230  144.7970 C   0  0  0  0  0  0  0  0  0  0  0  0
  195.0750  173.2750  144.0260 C   0  0  0  0  0  0  0  0  0  0  0  0
  196.5080  173.0670  141.9460 O   0  0  0  0  0  0  0  0  0  0  0  0
  193.7260  173.4040  146.1340 C   0  0  0  0  0  3  0  0  0  0  0  0
  195.5800  173.8320  141.2330 C   0  0  0  0  0  2  0  0  0  0  0  0
  196.4750  176.8650  143.4180 C   0  0  0  0  0  1  0  0  0  0  0  0
  193.0660  174.5590  146.0440 C   0  0  0  0  0  3  0  0  0  0  0  0
  194.9750  170.4560  146.0290 C   0  0  0  0  0  3  0  0  0  0  0  0
  193.1820  169.1250  144.3440 C   0  0  0  0  0  0  0  0  0  0  0  0
  193.3200  170.5130  144.2620 C   0  0  0  0  0  3  0  0  0  0  0  0
  193.9400  168.4020  145.2690 C   0  0  0  0  0  3  0  0  0  0  0  0
  192.3060  168.4810  143.5360 F   0  0  0  0  0  0  0  0  0  0  0  0
  194.8340  169.0680  146.1130 C   0  0  0  0  0  3  0  0  0  0  0  0
  194.2280  171.1860  145.0930 C   0  0  0  0  0  0  0  0  0  0  0  0
  196.6250  171.3870  143.5180 O   0  0  0  0  0  0  0  0  0  0  0  0
  197.1420  170.5980  142.4770 C   0  0  0  0  0  2  0  0  0  0  0  0
  196.1860  169.4730  142.0860 C   0  0  2  0  0  3  0  0  0  0  0  0
  196.3130  168.4120  142.9690 F   0  0  0  0  0  0  0  0  0  0  0  0
  196.3020  168.9850  140.6260 C   0  0  2  0  0  0  0  0  0  0  0  0
  196.0810  170.0110  139.5640 C   0  0  0  0  0  0  0  0  0  0  0  0
  195.1630  168.2740  140.0930 C   0  0  2  0  0  3  0  0  0  0  0  0
  195.0020  169.2070  139.0290 O   0  0  0  0  0  0  0  0  0  0  0  0
  197.5380  168.2530  140.3780 N   0  0  0  0  0  1  0  0  0  0  0  0
  194.0380  168.3400  140.9290 O   0  0  0  0  0  1  0  0  0  0  0  0
  196.6350  171.0930  139.2330 O   0  0  0  0  0  0  0  0  0  0  0  0
  191.6310  176.0300  144.5890 N   0  0  0  0  0  2  0  0  0  0  0  0
  190.8370  175.9070  143.3700 C   0  0  2  0  0  3  0  0  0  0  0  0
  187.1700  177.8600  144.4550 C   0  0  2  0  0  3  0  0  0  0  0  0
  189.5090  176.5200  143.5230 N   0  0  0  0  0  0  0  0  0  0  0  0
  188.9660  176.0550  144.7980 C   0  0  0  0  0  2  0  0  0  0  0  0
  187.4130  176.9160  142.2910 C   0  0  0  0  0  2  0  0  0  0  0  0
  186.5590  176.9340  143.4750 N   0  0  2  0  0  0  0  0  0  0  0  0
  185.2120  177.3330  143.0360 C   0  0  0  0  0  2  0  0  0  0  0  0
  188.6040  175.9830  142.5000 C   0  0  0  0  0  2  0  0  0  0  0  0
  188.0550  177.0960  145.4570 C   0  0  2  0  0  3  0  0  0  0  0  0
  185.3160  179.5680  144.2130 C   0  0  0  0  0  2  0  0  0  0  0  0
  187.2590  176.4330  146.4010 O   0  0  0  0  0  1  0  0  0  0  0  0
  186.1490  178.7370  145.1940 C   0  0  0  0  0  2  0  0  0  0  0  0
  185.0700  178.8510  142.8840 C   0  0  0  0  0  2  0  0  0  0  0  0
  191.1160  174.0010  141.7700 C   0  0  0  0  0  3  0  0  0  0  0  0
  191.0200  172.6460  141.4420 C   0  0  0  0  0  3  0  0  0  0  0  0
  190.7140  174.4510  143.0300 C   0  0  0  0  0  0  0  0  0  0  0  0
  190.1140  172.1810  143.6400 C   0  0  0  0  0  3  0  0  0  0  0  0
  190.2140  173.5340  143.9680 C   0  0  0  0  0  3  0  0  0  0  0  0
  190.5130  171.7290  142.3720 C   0  0  0  0  0  0  0  0  0  0  0  0
  190.8200  169.9010  140.7370 C   0  0  0  0  0  1  0  0  0  0  0  0
  190.4280  170.3800  142.0150 O   0  0  0  0  0  0  0  0  0  0  0  0
  1 12  1  1  0  0  0
  1  4  1  0  0  0  0
  2  7  2  0  0  0  0
  3 20  1  0  0  0  0
  3 10  1  0  0  0  0
  4  2  1  6  0  0  0
  5 21  1  1  0  0  0
  5  8  1  0  0  0  0
  6  1  1  0  0  0  0
  7 13  1  0  0  0  0
  8  4  1  0  0  0  0
  8  3  2  0  0  0  0
  9  5  1  0  0  0  0
 11  6  1  0  0  0  0
 11  9  1  0  0  0  0
 13 10  2  0  0  0  0
 14 19  1  0  0  0  0
 15 17  1  0  0  0  0
 16 15  2  0  0  0  0
 16 20  1  0  0  0  0
 17 19  2  0  0  0  0
 18 15  1  0  0  0  0
 20 14  2  0  0  0  0
 22 21  1  0  0  0  0
 23 22  1  0  0  0  0
 23 24  1  1  0  0  0
 25 29  1  6  0  0  0
 25 23  1  0  0  0  0
 26 25  1  0  0  0  0
 27 25  1  0  0  0  0
 27 30  1  1  0  0  0
 28 26  1  0  0  0  0
 28 27  1  0  0  0  0
 31 26  2  0  0  0  0
 32  7  1  0  0  0  0
 33 35  1  0  0  0  0
 33 32  1  1  0  0  0
 34 44  1  1  0  0  0
 34 41  1  0  0  0  0
 35 36  1  0  0  0  0
 36 41  1  0  0  0  0
 37 40  1  0  0  0  0
 38 37  1  6  0  0  0
 38 34  1  0  0  0  0
 39 38  1  0  0  0  0
 40 35  1  0  0  0  0
 41 43  1  1  0  0  0
 42 44  1  0  0  0  0
 45 39  1  0  0  0  0
 45 42  1  0  0  0  0
 46 48  1  0  0  0  0
 47 46  2  0  0  0  0
 47 51  1  0  0  0  0
 48 33  1  0  0  0  0
 48 50  2  0  0  0  0
 49 50  1  0  0  0  0
 51 49  2  0  0  0  0
 52 53  1  0  0  0  0
 53 51  1  0  0  0  0
M  END
>  <MODEL>
4

>  <REMARK>
 VINA RESULT:      -6.5      2.686      3.781
  Name = 
  10 active torsions:
  status: ('A' for Active; 'I' for Inactive)
    1  A    between atoms: C_3  and  C_16
    2  A    between atoms: C_6  and  C_52
    3  A    between atoms: O_8  and  C_17
    4  A    between atoms: O_8  and  C_44
    5  A    between atoms: N_12  and  C_25
    6  A    between atoms: C_14  and  C_25
    7  A    between atoms: C_16  and  C_44
    8  A    between atoms: C_22  and  N_35
    9  A    between atoms: C_25  and  N_35
   10  A    between atoms: C_38  and  O_49
                            x       y       z     vdW  Elec       q    Type
                         _______ _______ _______ _____ _____    ______ ____

>  <TORSDO>
F 10

$$$$
=
 OpenBabel11062420313D

 53 59  0  0  1  0  0  0  0  0999 V2000
  189.9450  171.3390  139.0560 C   0  0  1  0  0  3  0  0  0  0  0  0
  192.2210  171.4210  140.0880 C   0  0  0  0  0  3  0  0  0  0  0  0
  190.9100  172.7600  142.4890 C   0  0  0  0  0  0  0  0  0  0  0  0
  190.7480  171.4960  140.3520 C   0  0  1  0  0  3  0  0  0  0  0  0
  189.4350  173.8220  140.7470 C   0  0  1  0  0  3  0  0  0  0  0  0
  190.2880  172.3930  138.0050 C   0  0  0  0  0  2  0  0  0  0  0  0
  193.1120  171.1810  141.0480 C   0  0  0  0  0  0  0  0  0  0  0  0
  190.3960  172.6980  141.2240 C   0  0  0  0  0  0  0  0  0  0  0  0
  188.9470  173.7460  139.4270 O   0  0  0  0  0  0  0  0  0  0  0  0
  191.7420  171.6770  143.0740 C   0  0  0  0  0  3  0  0  0  0  0  0
  190.0490  173.7900  138.5680 C   0  0  0  0  0  2  0  0  0  0  0  0
  190.0710  169.9480  138.4770 C   0  0  0  0  0  1  0  0  0  0  0  0
  192.7020  170.9900  142.4550 C   0  0  0  0  0  3  0  0  0  0  0  0
  189.6910  173.7330  144.4430 C   0  0  0  0  0  3  0  0  0  0  0  0
  191.0440  176.1630  144.1430 C   0  0  0  0  0  0  0  0  0  0  0  0
  191.3070  175.1040  143.2710 C   0  0  0  0  0  3  0  0  0  0  0  0
  190.1060  176.0080  145.1670 C   0  0  0  0  0  3  0  0  0  0  0  0
  191.7070  177.3370  144.0060 F   0  0  0  0  0  0  0  0  0  0  0  0
  189.4320  174.7920  145.3180 C   0  0  0  0  0  3  0  0  0  0  0  0
  190.6220  173.8880  143.4050 C   0  0  0  0  0  0  0  0  0  0  0  0
  188.3680  174.0960  141.6300 O   0  0  0  0  0  0  0  0  0  0  0  0
  187.8620  175.3780  141.3620 C   0  0  0  0  0  2  0  0  0  0  0  0
  187.3440  176.0610  142.6260 C   0  0  2  0  0  3  0  0  0  0  0  0
  186.0460  175.6540  142.8890 F   0  0  0  0  0  0  0  0  0  0  0  0
  187.4450  177.6010  142.6340 C   0  0  2  0  0  0  0  0  0  0  0  0
  186.8670  178.2980  143.8200 C   0  0  0  0  0  0  0  0  0  0  0  0
  186.4850  178.3130  141.8220 C   0  0  2  0  0  3  0  0  0  0  0  0
  185.9890  179.0410  142.9410 O   0  0  0  0  0  0  0  0  0  0  0  0
  188.8000  178.0740  142.3750 N   0  0  0  0  0  1  0  0  0  0  0  0
  185.4640  177.4840  141.3310 O   0  0  0  0  0  1  0  0  0  0  0  0
  187.0890  178.2910  145.0610 O   0  0  0  0  0  0  0  0  0  0  0  0
  194.4860  171.0420  140.6780 N   0  0  0  0  0  2  0  0  0  0  0  0
  195.3730  172.1840  140.4670 C   0  0  2  0  0  3  0  0  0  0  0  0
  195.5320  175.2830  143.4350 C   0  0  2  0  0  3  0  0  0  0  0  0
  195.4060  173.0690  141.6410 N   0  0  0  0  0  0  0  0  0  0  0  0
  196.5320  173.9840  141.4560 C   0  0  0  0  0  2  0  0  0  0  0  0
  195.3030  173.0160  144.1010 C   0  0  0  0  0  2  0  0  0  0  0  0
  196.1020  174.2230  144.2980 N   0  0  2  0  0  0  0  0  0  0  0  0
  196.0660  174.5410  145.7350 C   0  0  0  0  0  2  0  0  0  0  0  0
  195.7390  172.2830  142.8340 C   0  0  0  0  0  2  0  0  0  0  0  0
  196.2770  175.3560  142.0890 C   0  0  2  0  0  3  0  0  0  0  0  0
  194.6780  176.6260  145.4040 C   0  0  0  0  0  2  0  0  0  0  0  0
  197.5160  175.9890  142.2530 O   0  0  0  0  0  1  0  0  0  0  0  0
  195.4870  176.6640  144.1040 C   0  0  0  0  0  2  0  0  0  0  0  0
  194.7920  175.2900  146.1390 C   0  0  0  0  0  2  0  0  0  0  0  0
  194.1030  174.0630  139.4060 C   0  0  0  0  0  3  0  0  0  0  0  0
  193.6680  174.7760  138.2850 C   0  0  0  0  0  3  0  0  0  0  0  0
  194.9040  172.9290  139.2520 C   0  0  0  0  0  0  0  0  0  0  0  0
  194.8360  173.2180  136.8440 C   0  0  0  0  0  3  0  0  0  0  0  0
  195.2730  172.5090  137.9650 C   0  0  0  0  0  3  0  0  0  0  0  0
  194.0270  174.3550  136.9990 C   0  0  0  0  0  0  0  0  0  0  0  0
  193.0670  176.4080  136.0120 C   0  0  0  0  0  1  0  0  0  0  0  0
  193.5760  175.0880  135.8970 O   0  0  0  0  0  0  0  0  0  0  0  0
  1 12  1  6  0  0  0
  1  4  1  0  0  0  0
  2  7  2  0  0  0  0
  3 10  1  0  0  0  0
  3 20  1  0  0  0  0
  4  2  1  6  0  0  0
  4  8  1  0  0  0  0
  5  8  1  0  0  0  0
  5 21  1  1  0  0  0
  6 11  1  0  0  0  0
  6  1  1  0  0  0  0
  7 13  1  0  0  0  0
  8  3  2  0  0  0  0
  9  5  1  0  0  0  0
 11  9  1  0  0  0  0
 13 10  2  0  0  0  0
 14 19  1  0  0  0  0
 15 17  1  0  0  0  0
 16 20  1  0  0  0  0
 16 15  2  0  0  0  0
 17 19  2  0  0  0  0
 18 15  1  0  0  0  0
 20 14  2  0  0  0  0
 22 21  1  0  0  0  0
 22 23  1  0  0  0  0
 23 25  1  0  0  0  0
 23 24  1  6  0  0  0
 25 29  1  6  0  0  0
 25 26  1  0  0  0  0
 26 31  2  0  0  0  0
 27 30  1  1  0  0  0
 27 25  1  0  0  0  0
 27 28  1  0  0  0  0
 28 26  1  0  0  0  0
 32  7  1  0  0  0  0
 33 32  1  1  0  0  0
 33 35  1  0  0  0  0
 34 44  1  1  0  0  0
 34 38  1  0  0  0  0
 35 40  1  0  0  0  0
 36 35  1  0  0  0  0
 36 41  1  0  0  0  0
 38 37  1  1  0  0  0
 38 39  1  0  0  0  0
 39 45  1  0  0  0  0
 40 37  1  0  0  0  0
 41 43  1  1  0  0  0
 41 34  1  0  0  0  0
 42 45  1  0  0  0  0
 44 42  1  0  0  0  0
 47 46  2  0  0  0  0
 48 46  1  0  0  0  0
 48 33  1  0  0  0  0
 49 51  2  0  0  0  0
 49 50  1  0  0  0  0
 50 48  2  0  0  0  0
 51 47  1  0  0  0  0
 53 52  1  0  0  0  0
 53 51  1  0  0  0  0
M  END
>  <MODEL>
5

>  <REMARK>
 VINA RESULT:      -6.5      2.698      8.490
  Name = 
  10 active torsions:
  status: ('A' for Active; 'I' for Inactive)
    1  A    between atoms: C_3  and  C_16
    2  A    between atoms: C_6  and  C_52
    3  A    between atoms: O_8  and  C_17
    4  A    between atoms: O_8  and  C_44
    5  A    between atoms: N_12  and  C_25
    6  A    between atoms: C_14  and  C_25
    7  A    between atoms: C_16  and  C_44
    8  A    between atoms: C_22  and  N_35
    9  A    between atoms: C_25  and  N_35
   10  A    between atoms: C_38  and  O_49
                            x       y       z     vdW  Elec       q    Type
                         _______ _______ _______ _____ _____    ______ ____

>  <TORSDO>
F 10

$$$$
=
 OpenBabel11062420313D

 53 59  0  0  1  0  0  0  0  0999 V2000
  196.3810  175.9060  142.7480 C   0  0  1  0  0  3  0  0  0  0  0  0
  194.2060  175.4390  143.8890 C   0  0  0  0  0  3  0  0  0  0  0  0
  195.0220  172.5050  143.8950 C   0  0  0  0  0  0  0  0  0  0  0  0
  195.5760  174.9110  143.5900 C   0  0  1  0  0  3  0  0  0  0  0  0
  196.0640  173.0720  141.6750 C   0  0  1  0  0  3  0  0  0  0  0  0
  195.7100  176.2490  141.4190 C   0  0  0  0  0  2  0  0  0  0  0  0
  193.4460  174.9530  144.8670 C   0  0  0  0  0  0  0  0  0  0  0  0
  195.5230  173.4760  143.0740 C   0  0  0  0  0  0  0  0  0  0  0  0
  196.5460  174.1000  140.8400 O   0  0  0  0  0  0  0  0  0  0  0  0
  194.5890  172.7750  145.2910 C   0  0  0  0  0  3  0  0  0  0  0  0
  195.4850  174.9800  140.6030 C   0  0  0  0  0  2  0  0  0  0  0  0
  196.7110  177.1640  143.5180 C   0  0  0  0  0  1  0  0  0  0  0  0
  193.9000  173.8340  145.7190 C   0  0  0  0  0  3  0  0  0  0  0  0
  195.8570  170.1500  143.9610 C   0  0  0  0  0  3  0  0  0  0  0  0
  193.8050  169.3180  142.2520 C   0  0  0  0  0  0  0  0  0  0  0  0
  193.8970  170.6590  142.6340 C   0  0  0  0  0  3  0  0  0  0  0  0
  194.7380  168.3920  142.7260 C   0  0  0  0  0  3  0  0  0  0  0  0
  192.8040  168.9120  141.4330 F   0  0  0  0  0  0  0  0  0  0  0  0
  195.7620  168.8080  143.5820 C   0  0  0  0  0  3  0  0  0  0  0  0
  194.9320  171.0870  143.4790 C   0  0  0  0  0  0  0  0  0  0  0  0
  196.9880  172.0050  141.6900 O   0  0  0  0  0  0  0  0  0  0  0  0
  197.3160  171.6570  140.3690 C   0  0  0  0  0  2  0  0  0  0  0  0
  196.2530  170.7640  139.7350 C   0  0  2  0  0  3  0  0  0  0  0  0
  196.4270  169.4520  140.1440 F   0  0  0  0  0  0  0  0  0  0  0  0
  196.1520  170.8480  138.1960 C   0  0  2  0  0  0  0  0  0  0  0  0
  195.8760  172.1970  137.6220 C   0  0  0  0  0  0  0  0  0  0  0  0
  194.9080  170.4080  137.6080 C   0  0  2  0  0  3  0  0  0  0  0  0
  194.6850  171.6710  136.9890 O   0  0  0  0  0  0  0  0  0  0  0  0
  197.2930  170.2330  137.5280 N   0  0  0  0  0  1  0  0  0  0  0  0
  193.9020  170.1850  138.5610 O   0  0  0  0  0  1  0  0  0  0  0  0
  196.4610  173.3130  137.6310 O   0  0  0  0  0  0  0  0  0  0  0  0
  192.1890  175.5840  145.1270 N   0  0  0  0  0  2  0  0  0  0  0  0
  191.1750  175.7940  144.0960 C   0  0  2  0  0  3  0  0  0  0  0  0
  187.1680  176.9110  145.1620 C   0  0  2  0  0  3  0  0  0  0  0  0
  189.8930  176.2220  144.6760 N   0  0  0  0  0  0  0  0  0  0  0  0
  189.2890  177.1610  143.7320 C   0  0  0  0  0  2  0  0  0  0  0  0
  188.9020  177.0380  146.7770 C   0  0  0  0  0  2  0  0  0  0  0  0
  187.8340  177.8020  146.1380 N   0  0  2  0  0  0  0  0  0  0  0  0
  186.9450  178.2870  147.2070 C   0  0  0  0  0  2  0  0  0  0  0  0
  190.1450  177.0050  145.8910 C   0  0  0  0  0  2  0  0  0  0  0  0
  187.7580  177.1020  143.7510 C   0  0  2  0  0  3  0  0  0  0  0  0
  185.0310  176.7900  146.5130 C   0  0  0  0  0  2  0  0  0  0  0  0
  187.2750  178.2870  143.1800 O   0  0  0  0  0  1  0  0  0  0  0  0
  185.6410  177.0590  145.1340 C   0  0  0  0  0  2  0  0  0  0  0  0
  185.9410  177.2230  147.6630 C   0  0  0  0  0  2  0  0  0  0  0  0
  190.5380  173.3750  143.9790 C   0  0  0  0  0  3  0  0  0  0  0  0
  190.3680  172.1810  143.2730 C   0  0  0  0  0  3  0  0  0  0  0  0
  191.0110  174.5160  143.3270 C   0  0  0  0  0  0  0  0  0  0  0  0
  191.1450  173.2660  141.2520 C   0  0  0  0  0  3  0  0  0  0  0  0
  191.3120  174.4600  141.9560 C   0  0  0  0  0  3  0  0  0  0  0  0
  190.6750  172.1170  141.9090 C   0  0  0  0  0  0  0  0  0  0  0  0
  190.6290  170.7940  139.8210 C   0  0  0  0  0  1  0  0  0  0  0  0
  190.4940  170.9080  141.2300 O   0  0  0  0  0  0  0  0  0  0  0  0
  1 12  1  1  0  0  0
  1  4  1  0  0  0  0
  2  7  2  0  0  0  0
  3 10  1  0  0  0  0
  4  2  1  6  0  0  0
  5 21  1  1  0  0  0
  5  8  1  0  0  0  0
  6  1  1  0  0  0  0
  7 32  1  0  0  0  0
  7 13  1  0  0  0  0
  8  4  1  0  0  0  0
  8  3  2  0  0  0  0
  9  5  1  0  0  0  0
 10 13  2  0  0  0  0
 11  9  1  0  0  0  0
 11  6  1  0  0  0  0
 15 16  2  0  0  0  0
 15 17  1  0  0  0  0
 16 20  1  0  0  0  0
 17 19  2  0  0  0  0
 18 15  1  0  0  0  0
 19 14  1  0  0  0  0
 20  3  1  0  0  0  0
 20 14  2  0  0  0  0
 22 21  1  0  0  0  0
 23 24  1  6  0  0  0
 23 22  1  0  0  0  0
 25 29  1  6  0  0  0
 25 23  1  0  0  0  0
 26 31  2  0  0  0  0
 26 25  1  0  0  0  0
 27 25  1  0  0  0  0
 27 30  1  1  0  0  0
 28 27  1  0  0  0  0
 28 26  1  0  0  0  0
 33 35  1  0  0  0  0
 33 32  1  1  0  0  0
 34 44  1  6  0  0  0
 34 38  1  0  0  0  0
 35 40  1  0  0  0  0
 36 41  1  0  0  0  0
 36 35  1  0  0  0  0
 38 37  1  1  0  0  0
 38 39  1  0  0  0  0
 39 45  1  0  0  0  0
 40 37  1  0  0  0  0
 41 43  1  1  0  0  0
 41 34  1  0  0  0  0
 42 45  1  0  0  0  0
 44 42  1  0  0  0  0
 47 46  2  0  0  0  0
 48 46  1  0  0  0  0
 48 33  1  0  0  0  0
 49 51  2  0  0  0  0
 49 50  1  0  0  0  0
 50 48  2  0  0  0  0
 51 47  1  0  0  0  0
 52 53  1  0  0  0  0
 53 51  1  0  0  0  0
M  END
>  <MODEL>
6

>  <REMARK>
 VINA RESULT:      -6.5      1.956      2.674
  Name = 
  10 active torsions:
  status: ('A' for Active; 'I' for Inactive)
    1  A    between atoms: C_3  and  C_16
    2  A    between atoms: C_6  and  C_52
    3  A    between atoms: O_8  and  C_17
    4  A    between atoms: O_8  and  C_44
    5  A    between atoms: N_12  and  C_25
    6  A    between atoms: C_14  and  C_25
    7  A    between atoms: C_16  and  C_44
    8  A    between atoms: C_22  and  N_35
    9  A    between atoms: C_25  and  N_35
   10  A    between atoms: C_38  and  O_49
                            x       y       z     vdW  Elec       q    Type
                         _______ _______ _______ _____ _____    ______ ____

>  <TORSDO>
F 10

$$$$
=
 OpenBabel11062420313D

 53 59  0  0  1  0  0  0  0  0999 V2000
  188.2470  173.8330  141.3070 C   0  0  1  0  0  3  0  0  0  0  0  0
  190.6900  173.7270  140.7850 C   0  0  0  0  0  3  0  0  0  0  0  0
  191.1830  174.2470  143.7450 C   0  0  0  0  0  0  0  0  0  0  0  0
  189.6600  173.6490  141.8700 C   0  0  1  0  0  3  0  0  0  0  0  0
  189.1300  175.6930  143.5530 C   0  0  1  0  0  3  0  0  0  0  0  0
  188.0600  175.1630  140.5770 C   0  0  0  0  0  2  0  0  0  0  0  0
  191.9290  173.2640  140.9350 C   0  0  0  0  0  0  0  0  0  0  0  0
  190.0330  174.5280  143.0610 C   0  0  0  0  0  0  0  0  0  0  0  0
  187.9690  175.9770  142.8080 O   0  0  0  0  0  0  0  0  0  0  0  0
  192.0480  173.0830  143.4210 C   0  0  0  0  0  3  0  0  0  0  0  0
  188.3730  176.3240  141.5150 C   0  0  0  0  0  2  0  0  0  0  0  0
  187.8330  172.6780  140.4240 C   0  0  0  0  0  1  0  0  0  0  0  0
  192.3800  172.6540  142.2030 C   0  0  0  0  0  3  0  0  0  0  0  0
  192.2600  176.2800  144.7210 C   0  0  0  0  0  3  0  0  0  0  0  0
  191.7740  175.3570  147.3160 C   0  0  0  0  0  0  0  0  0  0  0  0
  191.3700  174.5970  146.2160 C   0  0  0  0  0  3  0  0  0  0  0  0
  192.4200  176.5800  147.1200 C   0  0  0  0  0  3  0  0  0  0  0  0
  191.5290  174.9160  148.5740 F   0  0  0  0  0  0  0  0  0  0  0  0
  192.6600  177.0430  145.8220 C   0  0  0  0  0  3  0  0  0  0  0  0
  191.6230  175.0450  144.9120 C   0  0  0  0  0  0  0  0  0  0  0  0
  188.8100  175.6450  144.9270 O   0  0  0  0  0  0  0  0  0  0  0  0
  188.6120  176.9520  145.4020 C   0  0  0  0  0  2  0  0  0  0  0  0
  187.6810  176.9830  146.6120 C   0  0  2  0  0  3  0  0  0  0  0  0
  187.6430  175.7360  147.2150 F   0  0  0  0  0  0  0  0  0  0  0  0
  186.2530  177.4990  146.3340 C   0  0  2  0  0  0  0  0  0  0  0  0
  186.1180  178.5390  145.2720 C   0  0  0  0  0  0  0  0  0  0  0  0
  185.7250  178.4680  147.2670 C   0  0  2  0  0  3  0  0  0  0  0  0
  185.5180  179.4320  146.2400 O   0  0  0  0  0  0  0  0  0  0  0  0
  185.3010  176.4160  146.1110 N   0  0  0  0  0  1  0  0  0  0  0  0
  186.6960  178.9530  148.1570 O   0  0  0  0  0  1  0  0  0  0  0  0
  186.3660  178.5980  144.0380 O   0  0  0  0  0  0  0  0  0  0  0  0
  192.8090  173.3070  139.8090 N   0  0  0  0  0  2  0  0  0  0  0  0
  194.2170  172.9260  139.8840 C   0  0  2  0  0  3  0  0  0  0  0  0
  195.5660  174.5350  143.6300 C   0  0  2  0  0  3  0  0  0  0  0  0
  194.8060  173.2770  141.1850 N   0  0  0  0  0  0  0  0  0  0  0  0
  195.2960  174.6510  141.0780 C   0  0  0  0  0  2  0  0  0  0  0  0
  196.3440  172.4130  142.9040 C   0  0  0  0  0  2  0  0  0  0  0  0
  196.7790  173.7270  143.3720 N   0  0  2  0  0  0  0  0  0  0  0  0
  197.6160  173.5100  144.5630 C   0  0  0  0  0  2  0  0  0  0  0  0
  196.0010  172.4580  141.4160 C   0  0  0  0  0  2  0  0  0  0  0  0
  195.2130  175.4050  142.4090 C   0  0  2  0  0  3  0  0  0  0  0  0
  195.9240  174.5330  146.1370 C   0  0  0  0  0  2  0  0  0  0  0  0
  196.0760  176.5060  142.3320 O   0  0  0  0  0  1  0  0  0  0  0  0
  195.6570  175.3950  144.8990 C   0  0  0  0  0  2  0  0  0  0  0  0
  196.7870  173.3070  145.8350 C   0  0  0  0  0  2  0  0  0  0  0  0
  194.4070  174.7500  138.1790 C   0  0  0  0  0  3  0  0  0  0  0  0
  195.0850  175.4020  137.1460 C   0  0  0  0  0  3  0  0  0  0  0  0
  194.9530  173.6060  138.7670 C   0  0  0  0  0  0  0  0  0  0  0  0
  196.8650  173.7650  137.2830 C   0  0  0  0  0  3  0  0  0  0  0  0
  196.1890  173.1160  138.3170 C   0  0  0  0  0  3  0  0  0  0  0  0
  196.3140  174.9110  136.6880 C   0  0  0  0  0  0  0  0  0  0  0  0
  196.4840  176.8020  135.1050 C   0  0  0  0  0  1  0  0  0  0  0  0
  196.9690  175.5850  135.6530 O   0  0  0  0  0  0  0  0  0  0  0  0
  1 12  1  6  0  0  0
  1  4  1  0  0  0  0
  2  7  2  0  0  0  0
  3 20  1  0  0  0  0
  4  2  1  6  0  0  0
  4  8  1  0  0  0  0
  5 21  1  1  0  0  0
  6  1  1  0  0  0  0
  6 11  1  0  0  0  0
  7 13  1  0  0  0  0
  8  5  1  0  0  0  0
  8  3  2  0  0  0  0
  9  5  1  0  0  0  0
 10  3  1  0  0  0  0
 11  9  1  0  0  0  0
 13 10  2  0  0  0  0
 14 20  2  0  0  0  0
 14 19  1  0  0  0  0
 15 18  1  0  0  0  0
 16 15  2  0  0  0  0
 17 15  1  0  0  0  0
 19 17  2  0  0  0  0
 20 16  1  0  0  0  0
 21 22  1  0  0  0  0
 22 23  1  0  0  0  0
 23 24  1  6  0  0  0
 25 29  1  6  0  0  0
 25 23  1  0  0  0  0
 25 27  1  0  0  0  0
 26 28  1  0  0  0  0
 26 25  1  0  0  0  0
 27 30  1  1  0  0  0
 28 27  1  0  0  0  0
 31 26  2  0  0  0  0
 32  7  1  0  0  0  0
 33 32  1  1  0  0  0
 33 35  1  0  0  0  0
 34 44  1  1  0  0  0
 35 40  1  0  0  0  0
 36 35  1  0  0  0  0
 36 41  1  0  0  0  0
 38 37  1  1  0  0  0
 38 34  1  0  0  0  0
 38 39  1  0  0  0  0
 39 45  1  0  0  0  0
 40 37  1  0  0  0  0
 41 43  1  6  0  0  0
 41 34  1  0  0  0  0
 44 42  1  0  0  0  0
 45 42  1  0  0  0  0
 46 48  1  0  0  0  0
 47 46  2  0  0  0  0
 48 33  1  0  0  0  0
 49 50  1  0  0  0  0
 50 48  2  0  0  0  0
 51 47  1  0  0  0  0
 51 49  2  0  0  0  0
 52 53  1  0  0  0  0
 53 51  1  0  0  0  0
M  END
>  <MODEL>
7

>  <REMARK>
 VINA RESULT:      -6.3      3.145      9.571
  Name = 
  10 active torsions:
  status: ('A' for Active; 'I' for Inactive)
    1  A    between atoms: C_3  and  C_16
    2  A    between atoms: C_6  and  C_52
    3  A    between atoms: O_8  and  C_17
    4  A    between atoms: O_8  and  C_44
    5  A    between atoms: N_12  and  C_25
    6  A    between atoms: C_14  and  C_25
    7  A    between atoms: C_16  and  C_44
    8  A    between atoms: C_22  and  N_35
    9  A    between atoms: C_25  and  N_35
   10  A    between atoms: C_38  and  O_49
                            x       y       z     vdW  Elec       q    Type
                         _______ _______ _______ _____ _____    ______ ____

>  <TORSDO>
F 10

$$$$
=
 OpenBabel11062420313D

 53 59  0  0  1  0  0  0  0  0999 V2000
  195.4990  176.6280  144.7100 C   0  0  1  0  0  3  0  0  0  0  0  0
  193.0420  176.1650  144.7390 C   0  0  0  0  0  3  0  0  0  0  0  0
  193.7530  173.2980  145.4820 C   0  0  0  0  0  0  0  0  0  0  0  0
  194.3890  175.6850  145.1870 C   0  0  1  0  0  3  0  0  0  0  0  0
  195.7250  173.6820  143.9650 C   0  0  1  0  0  3  0  0  0  0  0  0
  195.5400  176.7890  143.1920 C   0  0  0  0  0  2  0  0  0  0  0  0
  191.9080  175.7430  145.2940 C   0  0  0  0  0  0  0  0  0  0  0  0
  194.5850  174.2020  144.8830 C   0  0  0  0  0  0  0  0  0  0  0  0
  196.5460  174.6400  143.3380 O   0  0  0  0  0  0  0  0  0  0  0  0
  192.7100  173.6900  146.4650 C   0  0  0  0  0  3  0  0  0  0  0  0
  195.7260  175.4300  142.5260 C   0  0  0  0  0  2  0  0  0  0  0  0
  195.4260  177.9770  145.3880 C   0  0  0  0  0  1  0  0  0  0  0  0
  191.9030  174.7490  146.3870 C   0  0  0  0  0  3  0  0  0  0  0  0
  193.2930  171.2620  144.1050 C   0  0  0  0  0  3  0  0  0  0  0  0
  194.7120  169.6590  145.9050 C   0  0  0  0  0  0  0  0  0  0  0  0
  194.5910  171.0320  146.1360 C   0  0  0  0  0  3  0  0  0  0  0  0
  194.1240  169.0870  144.7740 C   0  0  0  0  0  3  0  0  0  0  0  0
  195.4080  168.8840  146.7710 F   0  0  0  0  0  0  0  0  0  0  0  0
  193.4170  169.8900  143.8730 C   0  0  0  0  0  3  0  0  0  0  0  0
  193.8690  171.8400  145.2460 C   0  0  0  0  0  0  0  0  0  0  0  0
  196.5290  172.6750  144.5410 O   0  0  0  0  0  0  0  0  0  0  0  0
  197.4020  172.1650  143.5670 C   0  0  0  0  0  2  0  0  0  0  0  0
  196.9230  170.8220  143.0200 C   0  0  2  0  0  3  0  0  0  0  0  0
  197.7820  169.8110  143.4210 F   0  0  0  0  0  0  0  0  0  0  0  0
  196.6980  170.7730  141.4940 C   0  0  2  0  0  0  0  0  0  0  0  0
  195.3860  171.2850  141.0000 C   0  0  0  0  0  0  0  0  0  0  0  0
  196.3380  169.4880  140.9370 C   0  0  2  0  0  3  0  0  0  0  0  0
  195.1250  169.9970  140.3930 O   0  0  0  0  0  0  0  0  0  0  0  0
  197.7950  171.3770  140.7470 N   0  0  0  0  0  1  0  0  0  0  0  0
  196.0320  168.5350  141.9200 O   0  0  0  0  0  1  0  0  0  0  0  0
  194.7810  172.3900  141.0410 O   0  0  0  0  0  0  0  0  0  0  0  0
  190.6800  176.3280  144.8530 N   0  0  0  0  0  2  0  0  0  0  0  0
  190.1840  176.2010  143.4860 C   0  0  2  0  0  3  0  0  0  0  0  0
  186.2630  177.6050  142.4400 C   0  0  2  0  0  3  0  0  0  0  0  0
  188.8450  176.7920  143.3370 N   0  0  0  0  0  0  0  0  0  0  0  0
  188.7860  177.3900  142.0040 C   0  0  0  0  0  2  0  0  0  0  0  0
  187.2280  178.2270  144.5160 C   0  0  0  0  0  2  0  0  0  0  0  0
  186.6040  178.7560  143.3060 N   0  0  2  0  0  0  0  0  0  0  0  0
  185.4400  179.5530  143.7260 C   0  0  0  0  0  2  0  0  0  0  0  0
  188.7030  177.9160  144.2700 C   0  0  0  0  0  2  0  0  0  0  0  0
  187.3750  177.3430  141.4070 C   0  0  2  0  0  3  0  0  0  0  0  0
  183.7710  177.9180  142.7630 C   0  0  0  0  0  2  0  0  0  0  0  0
  187.3140  178.2910  140.3760 O   0  0  0  0  0  1  0  0  0  0  0  0
  184.9010  177.7410  141.7440 C   0  0  0  0  0  2  0  0  0  0  0  0
  184.2080  178.6870  144.0100 C   0  0  0  0  0  2  0  0  0  0  0  0
  191.0140  174.2770  142.1160 C   0  0  0  0  0  3  0  0  0  0  0  0
  191.0180  172.9220  141.7730 C   0  0  0  0  0  3  0  0  0  0  0  0
  190.1650  174.7460  143.1210 C   0  0  0  0  0  0  0  0  0  0  0  0
  189.3170  172.4960  143.4440 C   0  0  0  0  0  3  0  0  0  0  0  0
  189.3160  173.8490  143.7890 C   0  0  0  0  0  3  0  0  0  0  0  0
  190.1660  172.0250  142.4310 C   0  0  0  0  0  0  0  0  0  0  0  0
  190.9180  170.2010  140.9400 C   0  0  0  0  0  1  0  0  0  0  0  0
  190.1930  170.6760  142.0650 O   0  0  0  0  0  0  0  0  0  0  0  0
  1  4  1  0  0  0  0
  1 12  1  1  0  0  0
  2  7  2  0  0  0  0
  3 10  1  0  0  0  0
  4  2  1  6  0  0  0
  5 21  1  1  0  0  0
  5  8  1  0  0  0  0
  6  1  1  0  0  0  0
  7 13  1  0  0  0  0
  8  4  1  0  0  0  0
  8  3  2  0  0  0  0
  9  5  1  0  0  0  0
 11  6  1  0  0  0  0
 11  9  1  0  0  0  0
 13 10  2  0  0  0  0
 14 20  1  0  0  0  0
 15 16  1  0  0  0  0
 15 18  1  0  0  0  0
 17 15  2  0  0  0  0
 19 14  2  0  0  0  0
 19 17  1  0  0  0  0
 20  3  1  0  0  0  0
 20 16  2  0  0  0  0
 22 21  1  0  0  0  0
 23 24  1  6  0  0  0
 23 22  1  0  0  0  0
 25 29  1  6  0  0  0
 25 23  1  0  0  0  0
 26 31  2  0  0  0  0
 26 25  1  0  0  0  0
 27 25  1  0  0  0  0
 27 30  1  1  0  0  0
 28 27  1  0  0  0  0
 28 26  1  0  0  0  0
 32  7  1  0  0  0  0
 33 32  1  1  0  0  0
 34 44  1  6  0  0  0
 34 38  1  0  0  0  0
 35 33  1  0  0  0  0
 35 40  1  0  0  0  0
 36 35  1  0  0  0  0
 38 39  1  1  0  0  0
 38 37  1  0  0  0  0
 39 45  1  0  0  0  0
 40 37  1  0  0  0  0
 41 43  1  6  0  0  0
 41 36  1  0  0  0  0
 41 34  1  0  0  0  0
 42 45  1  0  0  0  0
 44 42  1  0  0  0  0
 46 48  1  0  0  0  0
 47 46  2  0  0  0  0
 47 51  1  0  0  0  0
 48 33  1  0  0  0  0
 48 50  2  0  0  0  0
 49 50  1  0  0  0  0
 51 49  2  0  0  0  0
 52 53  1  0  0  0  0
 53 51  1  0  0  0  0
M  END
>  <MODEL>
8

>  <REMARK>
 VINA RESULT:      -6.3      2.764      3.672
  Name = 
  10 active torsions:
  status: ('A' for Active; 'I' for Inactive)
    1  A    between atoms: C_3  and  C_16
    2  A    between atoms: C_6  and  C_52
    3  A    between atoms: O_8  and  C_17
    4  A    between atoms: O_8  and  C_44
    5  A    between atoms: N_12  and  C_25
    6  A    between atoms: C_14  and  C_25
    7  A    between atoms: C_16  and  C_44
    8  A    between atoms: C_22  and  N_35
    9  A    between atoms: C_25  and  N_35
   10  A    between atoms: C_38  and  O_49
                            x       y       z     vdW  Elec       q    Type
                         _______ _______ _______ _____ _____    ______ ____

>  <TORSDO>
F 10

$$$$
=
 OpenBabel11062420313D

 53 59  0  0  1  0  0  0  0  0999 V2000
  193.1030  169.0270  143.4200 C   0  0  1  0  0  3  0  0  0  0  0  0
  193.0810  171.4150  144.1600 C   0  0  0  0  0  3  0  0  0  0  0  0
  190.8400  171.8520  142.1440 C   0  0  0  0  0  0  0  0  0  0  0  0
  192.3100  170.3370  143.4610 C   0  0  1  0  0  3  0  0  0  0  0  0
  192.1140  170.1680  140.7740 C   0  0  1  0  0  3  0  0  0  0  0  0
  194.4550  169.1650  142.7220 C   0  0  0  0  0  2  0  0  0  0  0  0
  192.5050  172.5170  144.6350 C   0  0  0  0  0  0  0  0  0  0  0  0
  191.7430  170.8260  142.1310 C   0  0  0  0  0  0  0  0  0  0  0  0
  193.0710  169.1330  140.7900 O   0  0  0  0  0  0  0  0  0  0  0  0
  190.3370  172.4670  143.4000 C   0  0  0  0  0  3  0  0  0  0  0  0
  194.2590  169.6680  141.2960 C   0  0  0  0  0  2  0  0  0  0  0  0
  193.2730  168.4230  144.7960 C   0  0  0  0  0  1  0  0  0  0  0  0
  191.0560  172.7620  144.4840 C   0  0  0  0  0  3  0  0  0  0  0  0
  188.8540  172.3100  140.6970 C   0  0  0  0  0  3  0  0  0  0  0  0
  190.4710  173.5470  138.7780 C   0  0  0  0  0  0  0  0  0  0  0  0
  191.0410  173.0270  139.9430 C   0  0  0  0  0  3  0  0  0  0  0  0
  189.0920  173.4510  138.5730 C   0  0  0  0  0  3  0  0  0  0  0  0
  191.2520  174.1570  137.8540 F   0  0  0  0  0  0  0  0  0  0  0  0
  188.2840  172.8340  139.5330 C   0  0  0  0  0  3  0  0  0  0  0  0
  190.2390  172.3920  140.9030 C   0  0  0  0  0  0  0  0  0  0  0  0
  191.0070  169.7740  139.9920 O   0  0  0  0  0  0  0  0  0  0  0  0
  191.4430  169.4650  138.6930 C   0  0  0  0  0  2  0  0  0  0  0  0
  190.5350  170.0750  137.6270 C   0  0  2  0  0  3  0  0  0  0  0  0
  189.3840  169.3150  137.4920 F   0  0  0  0  0  0  0  0  0  0  0  0
  191.1970  170.3130  136.2530 C   0  0  2  0  0  0  0  0  0  0  0  0
  192.1740  171.4380  136.1730 C   0  0  0  0  0  0  0  0  0  0  0  0
  190.4020  171.0110  135.2680 C   0  0  2  0  0  3  0  0  0  0  0  0
  191.3740  172.0430  135.1290 O   0  0  0  0  0  0  0  0  0  0  0  0
  191.7730  169.0960  135.6920 N   0  0  0  0  0  1  0  0  0  0  0  0
  189.2290  171.5620  135.8050 O   0  0  0  0  0  1  0  0  0  0  0  0
  193.2670  171.7180  136.7340 O   0  0  0  0  0  0  0  0  0  0  0  0
  193.3150  173.4450  145.3630 N   0  0  0  0  0  2  0  0  0  0  0  0
  193.3840  174.8670  145.0390 C   0  0  2  0  0  3  0  0  0  0  0  0
  189.6560  176.9560  144.6230 C   0  0  2  0  0  3  0  0  0  0  0  0
  192.0620  175.5060  145.1160 N   0  0  0  0  0  0  0  0  0  0  0  0
  192.2240  176.8840  144.6560 C   0  0  0  0  0  2  0  0  0  0  0  0
  190.1410  175.7890  146.6310 C   0  0  0  0  0  2  0  0  0  0  0  0
  189.7320  177.0850  146.0950 N   0  0  2  0  0  0  0  0  0  0  0  0
  188.4530  177.4370  146.7310 C   0  0  0  0  0  2  0  0  0  0  0  0
  191.6540  175.6140  146.5210 C   0  0  0  0  0  2  0  0  0  0  0  0
  190.9670  177.4170  143.9600 C   0  0  2  0  0  3  0  0  0  0  0  0
  187.1330  177.1730  144.5920 C   0  0  0  0  0  2  0  0  0  0  0  0
  191.0420  178.8170  143.9530 O   0  0  0  0  0  1  0  0  0  0  0  0
  188.4520  177.6810  144.0030 C   0  0  0  0  0  2  0  0  0  0  0  0
  187.2560  176.7570  146.0580 C   0  0  0  0  0  2  0  0  0  0  0  0
  195.3290  175.2720  143.5150 C   0  0  0  0  0  3  0  0  0  0  0  0
  195.8870  175.3970  142.2400 C   0  0  0  0  0  3  0  0  0  0  0  0
  193.9650  175.0110  143.6630 C   0  0  0  0  0  0  0  0  0  0  0  0
  193.7130  175.0010  141.2500 C   0  0  0  0  0  3  0  0  0  0  0  0
  193.1560  174.8720  142.5240 C   0  0  0  0  0  3  0  0  0  0  0  0
  195.0830  175.2680  141.1010 C   0  0  0  0  0  0  0  0  0  0  0  0
  197.0750  175.5030  139.6560 C   0  0  0  0  0  1  0  0  0  0  0  0
  195.6700  175.3990  139.8390 O   0  0  0  0  0  0  0  0  0  0  0  0
  1  4  1  0  0  0  0
  1 12  1  1  0  0  0
  2  7  2  0  0  0  0
  3 10  1  0  0  0  0
  4  2  1  6  0  0  0
  5 21  1  1  0  0  0
  5  9  1  0  0  0  0
  5  8  1  0  0  0  0
  6  1  1  0  0  0  0
  7 32  1  0  0  0  0
  8  3  2  0  0  0  0
  8  4  1  0  0  0  0
  9 11  1  0  0  0  0
 10 13  2  0  0  0  0
 11  6  1  0  0  0  0
 13  7  1  0  0  0  0
 14 20  1  0  0  0  0
 15 16  1  0  0  0  0
 16 20  2  0  0  0  0
 17 15  2  0  0  0  0
 17 19  1  0  0  0  0
 18 15  1  0  0  0  0
 19 14  2  0  0  0  0
 20  3  1  0  0  0  0
 22 21  1  0  0  0  0
 23 24  1  6  0  0  0
 23 22  1  0  0  0  0
 25 29  1  6  0  0  0
 25 23  1  0  0  0  0
 26 25  1  0  0  0  0
 26 31  2  0  0  0  0
 27 30  1  1  0  0  0
 27 25  1  0  0  0  0
 28 27  1  0  0  0  0
 28 26  1  0  0  0  0
 33 35  1  0  0  0  0
 33 32  1  6  0  0  0
 34 44  1  6  0  0  0
 34 38  1  0  0  0  0
 35 40  1  0  0  0  0
 36 35  1  0  0  0  0
 38 37  1  1  0  0  0
 38 39  1  0  0  0  0
 40 37  1  0  0  0  0
 41 43  1  1  0  0  0
 41 34  1  0  0  0  0
 41 36  1  0  0  0  0
 42 45  1  0  0  0  0
 44 42  1  0  0  0  0
 45 39  1  0  0  0  0
 46 48  1  0  0  0  0
 47 46  2  0  0  0  0
 48 33  1  0  0  0  0
 49 50  1  0  0  0  0
 50 48  2  0  0  0  0
 51 49  2  0  0  0  0
 51 47  1  0  0  0  0
 52 53  1  0  0  0  0
 53 51  1  0  0  0  0
M  END
>  <MODEL>
9

>  <REMARK>
 VINA RESULT:      -6.2      2.532      5.139
  Name = 
  10 active torsions:
  status: ('A' for Active; 'I' for Inactive)
    1  A    between atoms: C_3  and  C_16
    2  A    between atoms: C_6  and  C_52
    3  A    between atoms: O_8  and  C_17
    4  A    between atoms: O_8  and  C_44
    5  A    between atoms: N_12  and  C_25
    6  A    between atoms: C_14  and  C_25
    7  A    between atoms: C_16  and  C_44
    8  A    between atoms: C_22  and  N_35
    9  A    between atoms: C_25  and  N_35
   10  A    between atoms: C_38  and  O_49
                            x       y       z     vdW  Elec       q    Type
                         _______ _______ _______ _____ _____    ______ ____

>  <TORSDO>
F 10

$$$$
