=
 OpenBabel11062419363D

 42 42  0  0  1  0  0  0  0  0999 V2000
  192.4260  176.2040  147.1390 C   0  0  0  0  0  2  0  0  0  0  0  0
  193.7320  176.3290  146.4170 C   0  0  0  0  0  0  0  0  0  0  0  0
  194.4470  177.2950  146.6320 O   0  0  0  0  0  0  0  0  0  0  0  0
  194.2120  174.0250  146.0040 F   0  0  0  0  0  0  0  0  0  0  0  0
  194.1770  175.2850  145.4280 C   0  0  2  0  0  3  0  0  0  0  0  0
  195.5140  175.6040  144.7440 C   0  0  1  0  0  3  0  0  0  0  0  0
  196.5090  174.6880  145.1020 O   0  0  0  0  0  1  0  0  0  0  0  0
  195.4120  175.7670  143.2260 C   0  0  1  0  0  3  0  0  0  0  0  0
  196.2400  176.8080  142.8050 O   0  0  0  0  0  1  0  0  0  0  0  0
  195.7660  174.4890  142.4750 C   0  0  0  0  0  2  0  0  0  0  0  0
  194.6230  174.0590  141.5700 C   0  0  0  0  0  2  0  0  0  0  0  0
  194.5470  172.5420  141.5020 C   0  0  0  0  0  2  0  0  0  0  0  0
  193.2480  172.0790  141.9660 N   0  0  0  0  0  2  0  0  0  0  0  0
  193.3980  169.9390  140.9690 N   0  0  0  0  0  2  0  0  0  0  0  0
  192.7460  170.7590  141.7250 C   0  0  0  0  0  0  0  0  0  0  0  0
  191.3610  170.4000  142.1570 C   0  0  0  0  0  2  0  0  0  0  0  0
  190.3410  171.2420  141.4660 C   0  0  0  0  0  0  0  0  0  0  0  0
  189.5830  172.0760  137.9750 O   0  0  0  0  0  0  0  0  0  0  0  0
  188.2480  172.7680  139.8040 C   0  0  0  0  0  1  0  0  0  0  0  0
  189.4200  172.0560  139.2220 C   0  0  0  0  0  0  0  0  0  0  0  0
  189.4670  171.8340  142.1520 O   0  0  0  0  0  0  0  0  0  0  0  0
  190.3640  171.3470  140.0370 N   0  0  0  0  0  2  0  0  0  0  0  0
  191.3310  175.7200  146.2050 C   0  0  0  0  0  2  0  0  0  0  0  0
  189.1190  174.6170  147.5670 O   0  0  0  0  0  0  0  0  0  0  0  0
  188.4130  177.6540  144.9420 C   0  0  0  0  0  3  0  0  0  0  0  0
  187.3110  177.2050  145.8600 C   0  0  2  0  0  3  0  0  0  0  0  0
  189.6910  177.3450  145.2040 C   0  0  0  0  0  0  0  0  0  0  0  0
  187.6150  175.9380  146.4420 O   0  0  0  0  0  0  0  0  0  0  0  0
  188.9160  175.6280  146.8430 C   0  0  0  0  0  0  0  0  0  0  0  0
  190.0570  176.5280  146.4330 C   0  0  1  0  0  3  0  0  0  0  0  0
  186.0030  177.1520  145.1380 C   0  0  0  0  0  0  0  0  0  0  0  0
  184.9550  177.3310  145.7410 O   0  0  0  0  0  0  0  0  0  0  0  0
  185.9890  176.8930  143.6670 C   0  0  0  0  0  2  0  0  0  0  0  0
  185.9640  178.3740  141.2060 O   0  0  0  0  0  0  0  0  0  0  0  0
  185.3180  178.3240  142.7680 P   0  0  0  0  0  0  0  0  0  0  0  0
  183.6360  178.1830  142.6750 O   0  0  0  0  0  1  0  0  0  0  0  0
  185.6750  179.5980  143.5010 O   0  0  0  0  0  1  0  0  0  0  0  0
  190.7490  177.9120  144.3080 C   0  0  0  0  0  2  0  0  0  0  0  0
  190.4780  177.5250  142.8620 C   0  0  0  0  0  2  0  0  0  0  0  0
  190.8160  176.0630  142.6330 C   0  0  0  0  0  2  0  0  0  0  0  0
  189.5640  175.2770  142.2840 C   0  0  0  0  0  2  0  0  0  0  0  0
  188.6580  176.1120  141.6340 O   0  0  0  0  0  1  0  0  0  0  0  0
  2  3  2  0  0  0  0
  2  1  1  0  0  0  0
  5  4  1  1  0  0  0
  5  2  1  0  0  0  0
  6  7  1  6  0  0  0
  6  5  1  0  0  0  0
  8  9  1  6  0  0  0
  8  6  1  0  0  0  0
 10  8  1  0  0  0  0
 11 10  1  0  0  0  0
 12 11  1  0  0  0  0
 12 13  1  0  0  0  0
 14 15  2  0  0  0  0
 15 13  1  0  0  0  0
 15 16  1  0  0  0  0
 17 21  2  0  0  0  0
 17 16  1  0  0  0  0
 18 20  2  0  0  0  0
 20 19  1  0  0  0  0
 20 22  1  0  0  0  0
 22 17  1  0  0  0  0
 23  1  1  0  0  0  0
 25 27  2  0  0  0  0
 25 26  1  0  0  0  0
 26 31  1  6  0  0  0
 26 28  1  0  0  0  0
 27 30  1  0  0  0  0
 28 29  1  0  0  0  0
 29 24  2  0  0  0  0
 30 23  1  6  0  0  0
 30 29  1  0  0  0  0
 31 32  2  0  0  0  0
 33 31  1  0  0  0  0
 34 35  2  0  0  0  0
 35 37  1  0  0  0  0
 35 33  1  0  0  0  0
 36 35  1  0  0  0  0
 38 27  1  0  0  0  0
 39 38  1  0  0  0  0
 40 39  1  0  0  0  0
 41 40  1  0  0  0  0
 42 41  1  0  0  0  0
M  END
>  <MODEL>
1

>  <REMARK>
 VINA RESULT:      -6.1      0.000      0.000
  Name = 
  19 active torsions:
  status: ('A' for Active; 'I' for Inactive)
    1  A    between atoms: N_1  and  C_17
    2  A    between atoms: C_4  and  C_11
    3  A    between atoms: C_4  and  C_18
    4  A    between atoms: C_6  and  C_17
    5  A    between atoms: C_6  and  C_36
    6  A    between atoms: P_8  and  C_34
    7  A    between atoms: C_9  and  C_19
    8  A    between atoms: C_10  and  C_11
    9  A    between atoms: C_10  and  C_15
   10  A    between atoms: C_13  and  C_15
   11  A    between atoms: C_13  and  C_36
   12  A    between atoms: C_14  and  C_25
   13  A    between atoms: C_18  and  C_33
   14  A    between atoms: C_19  and  C_21
   15  A    between atoms: C_22  and  C_23
   16  A    between atoms: C_22  and  C_27
   17  A    between atoms: C_23  and  C_40
   18  A    between atoms: C_25  and  C_34
   19  A    between atoms: C_29  and  C_40
                            x       y       z     vdW  Elec       q    Type
                         _______ _______ _______ _____ _____    ______ ____

>  <TORSDO>
F 19

$$$$
=
 OpenBabel11062419363D

 42 42  0  0  1  0  0  0  0  0999 V2000
  192.6400  176.4280  146.6420 C   0  0  0  0  0  2  0  0  0  0  0  0
  193.9110  175.9900  145.9820 C   0  0  0  0  0  0  0  0  0  0  0  0
  194.7610  175.4120  146.6410 O   0  0  0  0  0  0  0  0  0  0  0  0
  193.1540  175.7140  143.7320 F   0  0  0  0  0  0  0  0  0  0  0  0
  194.1590  176.2520  144.5210 C   0  0  2  0  0  3  0  0  0  0  0  0
  195.5380  175.7870  144.0300 C   0  0  1  0  0  3  0  0  0  0  0  0
  195.5450  174.4220  143.7250 O   0  0  0  0  0  1  0  0  0  0  0  0
  196.1040  176.6280  142.8840 C   0  0  1  0  0  3  0  0  0  0  0  0
  197.4110  177.0160  143.1830 O   0  0  0  0  0  1  0  0  0  0  0  0
  196.0760  175.8930  141.5490 C   0  0  0  0  0  2  0  0  0  0  0  0
  194.8300  176.2540  140.7580 C   0  0  0  0  0  2  0  0  0  0  0  0
  194.2490  175.0150  140.0960 C   0  0  0  0  0  2  0  0  0  0  0  0
  193.4230  174.2760  141.0390 N   0  0  0  0  0  2  0  0  0  0  0  0
  191.7970  173.6180  139.4520 N   0  0  0  0  0  2  0  0  0  0  0  0
  192.2460  173.5510  140.6620 C   0  0  0  0  0  0  0  0  0  0  0  0
  191.4060  172.8990  141.7120 C   0  0  0  0  0  2  0  0  0  0  0  0
  192.2210  172.0020  142.5800 C   0  0  0  0  0  0  0  0  0  0  0  0
  193.9110  172.3410  145.8190 O   0  0  0  0  0  0  0  0  0  0  0  0
  193.7800  170.3030  144.6190 C   0  0  0  0  0  1  0  0  0  0  0  0
  193.4910  171.7550  144.7880 C   0  0  0  0  0  0  0  0  0  0  0  0
  192.4180  170.8120  142.2200 O   0  0  0  0  0  0  0  0  0  0  0  0
  192.7500  172.5030  143.8140 N   0  0  0  0  0  2  0  0  0  0  0  0
  191.4280  175.8890  145.9020 C   0  0  0  0  0  2  0  0  0  0  0  0
  189.5170  174.7660  147.6490 O   0  0  0  0  0  0  0  0  0  0  0  0
  188.2680  177.6780  145.0850 C   0  0  0  0  0  3  0  0  0  0  0  0
  187.3530  177.2280  146.1870 C   0  0  2  0  0  3  0  0  0  0  0  0
  189.5840  177.4210  145.1390 C   0  0  0  0  0  0  0  0  0  0  0  0
  187.7970  175.9940  146.7500 O   0  0  0  0  0  0  0  0  0  0  0  0
  189.1580  175.7420  146.9370 C   0  0  0  0  0  0  0  0  0  0  0  0
  190.1790  176.6620  146.3150 C   0  0  1  0  0  3  0  0  0  0  0  0
  185.9460  177.1050  145.6960 C   0  0  0  0  0  0  0  0  0  0  0  0
  185.0070  177.2190  146.4700 O   0  0  0  0  0  0  0  0  0  0  0  0
  185.6960  176.8550  144.2450 C   0  0  0  0  0  2  0  0  0  0  0  0
  185.1370  179.6600  144.5180 O   0  0  0  0  0  1  0  0  0  0  0  0
  185.1640  178.3810  143.4120 P   0  0  0  0  0  0  0  0  0  0  0  0
  186.2480  178.7410  142.1660 O   0  0  0  0  0  0  0  0  0  0  0  0
  183.7800  178.1880  142.8320 O   0  0  0  0  0  1  0  0  0  0  0  0
  190.4550  177.9880  144.0610 C   0  0  0  0  0  2  0  0  0  0  0  0
  189.8800  177.6620  142.6910 C   0  0  0  0  0  2  0  0  0  0  0  0
  189.7790  176.1590  142.5030 C   0  0  0  0  0  2  0  0  0  0  0  0
  188.4650  175.7950  141.8360 C   0  0  0  0  0  2  0  0  0  0  0  0
  188.7100  174.9400  140.7640 O   0  0  0  0  0  1  0  0  0  0  0  0
  2  3  2  0  0  0  0
  2  1  1  0  0  0  0
  5  4  1  6  0  0  0
  5  2  1  0  0  0  0
  6  7  1  6  0  0  0
  6  5  1  0  0  0  0
  8  9  1  1  0  0  0
  8  6  1  0  0  0  0
 10  8  1  0  0  0  0
 11 10  1  0  0  0  0
 12 11  1  0  0  0  0
 12 13  1  0  0  0  0
 14 15  2  0  0  0  0
 15 13  1  0  0  0  0
 15 16  1  0  0  0  0
 16 17  1  0  0  0  0
 17 22  1  0  0  0  0
 19 20  1  0  0  0  0
 20 18  2  0  0  0  0
 21 17  2  0  0  0  0
 22 20  1  0  0  0  0
 23  1  1  0  0  0  0
 25 27  2  0  0  0  0
 25 26  1  0  0  0  0
 26 31  1  6  0  0  0
 26 28  1  0  0  0  0
 27 30  1  0  0  0  0
 28 29  1  0  0  0  0
 29 24  2  0  0  0  0
 30 23  1  6  0  0  0
 30 29  1  0  0  0  0
 31 32  2  0  0  0  0
 33 31  1  0  0  0  0
 35 33  1  0  0  0  0
 35 34  1  0  0  0  0
 36 35  2  0  0  0  0
 37 35  1  0  0  0  0
 38 27  1  0  0  0  0
 39 38  1  0  0  0  0
 40 39  1  0  0  0  0
 41 40  1  0  0  0  0
 42 41  1  0  0  0  0
M  END
>  <MODEL>
2

>  <REMARK>
 VINA RESULT:      -6.0      1.758      2.832
  Name = 
  19 active torsions:
  status: ('A' for Active; 'I' for Inactive)
    1  A    between atoms: N_1  and  C_17
    2  A    between atoms: C_4  and  C_11
    3  A    between atoms: C_4  and  C_18
    4  A    between atoms: C_6  and  C_17
    5  A    between atoms: C_6  and  C_36
    6  A    between atoms: P_8  and  C_34
    7  A    between atoms: C_9  and  C_19
    8  A    between atoms: C_10  and  C_11
    9  A    between atoms: C_10  and  C_15
   10  A    between atoms: C_13  and  C_15
   11  A    between atoms: C_13  and  C_36
   12  A    between atoms: C_14  and  C_25
   13  A    between atoms: C_18  and  C_33
   14  A    between atoms: C_19  and  C_21
   15  A    between atoms: C_22  and  C_23
   16  A    between atoms: C_22  and  C_27
   17  A    between atoms: C_23  and  C_40
   18  A    between atoms: C_25  and  C_34
   19  A    between atoms: C_29  and  C_40
                            x       y       z     vdW  Elec       q    Type
                         _______ _______ _______ _____ _____    ______ ____

>  <TORSDO>
F 19

$$$$
=
 OpenBabel11062419363D

 42 42  0  0  1  0  0  0  0  0999 V2000
  189.8340  173.4600  145.7500 C   0  0  0  0  0  2  0  0  0  0  0  0
  189.6460  174.5670  146.7410 C   0  0  0  0  0  0  0  0  0  0  0  0
  188.7980  174.4560  147.6120 O   0  0  0  0  0  0  0  0  0  0  0  0
  191.2550  175.9650  147.8210 F   0  0  0  0  0  0  0  0  0  0  0  0
  190.4840  175.8150  146.6790 C   0  0  2  0  0  3  0  0  0  0  0  0
  189.6780  177.0930  146.4010 C   0  0  1  0  0  3  0  0  0  0  0  0
  189.7460  177.9900  147.4720 O   0  0  0  0  0  1  0  0  0  0  0  0
  190.0240  177.7670  145.0720 C   0  0  1  0  0  3  0  0  0  0  0  0
  191.3060  177.3900  144.6690 O   0  0  0  0  0  1  0  0  0  0  0  0
  189.0210  177.4410  143.9710 C   0  0  0  0  0  2  0  0  0  0  0  0
  189.5530  177.8640  142.6120 C   0  0  0  0  0  2  0  0  0  0  0  0
  188.4070  178.2840  141.7050 C   0  0  0  0  0  2  0  0  0  0  0  0
  187.1400  178.1950  142.4160 N   0  0  0  0  0  2  0  0  0  0  0  0
  185.8390  177.6960  140.5040 N   0  0  0  0  0  2  0  0  0  0  0  0
  185.9030  177.8440  141.7870 C   0  0  0  0  0  0  0  0  0  0  0  0
  184.6340  177.8690  142.5760 C   0  0  0  0  0  2  0  0  0  0  0  0
  184.8760  178.3070  143.9810 C   0  0  0  0  0  0  0  0  0  0  0  0
  186.1930  176.7200  147.0150 O   0  0  0  0  0  0  0  0  0  0  0  0
  185.6240  179.0150  146.8810 C   0  0  0  0  0  1  0  0  0  0  0  0
  185.7570  177.6520  146.2920 C   0  0  0  0  0  0  0  0  0  0  0  0
  184.6250  179.4970  144.3040 O   0  0  0  0  0  0  0  0  0  0  0  0
  185.4060  177.3730  144.9300 N   0  0  0  0  0  2  0  0  0  0  0  0
  190.3480  173.9960  144.4250 C   0  0  0  0  0  2  0  0  0  0  0  0
  192.9950  174.2230  143.4710 O   0  0  0  0  0  0  0  0  0  0  0  0
  190.4730  171.7030  141.4960 C   0  0  0  0  0  3  0  0  0  0  0  0
  191.9410  171.6730  141.1760 C   0  0  2  0  0  3  0  0  0  0  0  0
  190.0310  172.2560  142.6350 C   0  0  0  0  0  0  0  0  0  0  0  0
  192.6000  172.8300  141.6890 O   0  0  0  0  0  0  0  0  0  0  0  0
  192.2500  173.3610  142.9310 C   0  0  0  0  0  0  0  0  0  0  0  0
  191.0040  172.8710  143.6290 C   0  0  1  0  0  3  0  0  0  0  0  0
  192.1640  171.5490  139.7040 C   0  0  0  0  0  0  0  0  0  0  0  0
  192.4150  172.5370  139.0290 O   0  0  0  0  0  0  0  0  0  0  0  0
  192.0920  170.2010  139.0630 C   0  0  0  0  0  2  0  0  0  0  0  0
  189.4790  171.0840  138.2610 O   0  0  0  0  0  1  0  0  0  0  0  0
  190.8150  170.1710  137.7690 P   0  0  0  0  0  0  0  0  0  0  0  0
  191.4490  170.8290  136.3470 O   0  0  0  0  0  0  0  0  0  0  0  0
  190.3830  168.7440  137.5140 O   0  0  0  0  0  1  0  0  0  0  0  0
  188.5680  172.1590  142.9410 C   0  0  0  0  0  2  0  0  0  0  0  0
  187.7520  172.7880  141.8230 C   0  0  0  0  0  2  0  0  0  0  0  0
  187.8080  174.3020  141.9120 C   0  0  0  0  0  2  0  0  0  0  0  0
  188.4580  174.8840  140.6690 C   0  0  0  0  0  2  0  0  0  0  0  0
  188.3350  173.9810  139.6150 O   0  0  0  0  0  1  0  0  0  0  0  0
  1  2  1  0  0  0  0
  2  3  2  0  0  0  0
  5  2  1  0  0  0  0
  5  4  1  1  0  0  0
  6  5  1  0  0  0  0
  6  7  1  1  0  0  0
  8  9  1  6  0  0  0
  8  6  1  0  0  0  0
 10  8  1  0  0  0  0
 11 10  1  0  0  0  0
 12 13  1  0  0  0  0
 12 11  1  0  0  0  0
 14 15  2  0  0  0  0
 15 13  1  0  0  0  0
 15 16  1  0  0  0  0
 16 17  1  0  0  0  0
 17 21  2  0  0  0  0
 17 22  1  0  0  0  0
 20 19  1  0  0  0  0
 20 18  2  0  0  0  0
 22 20  1  0  0  0  0
 23  1  1  0  0  0  0
 25 27  2  0  0  0  0
 26 31  1  6  0  0  0
 26 25  1  0  0  0  0
 26 28  1  0  0  0  0
 27 38  1  0  0  0  0
 27 30  1  0  0  0  0
 28 29  1  0  0  0  0
 29 24  2  0  0  0  0
 29 30  1  0  0  0  0
 30 23  1  6  0  0  0
 32 31  2  0  0  0  0
 33 31  1  0  0  0  0
 35 34  1  0  0  0  0
 35 33  1  0  0  0  0
 36 35  2  0  0  0  0
 37 35  1  0  0  0  0
 39 40  1  0  0  0  0
 39 38  1  0  0  0  0
 41 40  1  0  0  0  0
 42 41  1  0  0  0  0
M  END
>  <MODEL>
3

>  <REMARK>
 VINA RESULT:      -6.0      3.807      7.948
  Name = 
  19 active torsions:
  status: ('A' for Active; 'I' for Inactive)
    1  A    between atoms: N_1  and  C_17
    2  A    between atoms: C_4  and  C_11
    3  A    between atoms: C_4  and  C_18
    4  A    between atoms: C_6  and  C_17
    5  A    between atoms: C_6  and  C_36
    6  A    between atoms: P_8  and  C_34
    7  A    between atoms: C_9  and  C_19
    8  A    between atoms: C_10  and  C_11
    9  A    between atoms: C_10  and  C_15
   10  A    between atoms: C_13  and  C_15
   11  A    between atoms: C_13  and  C_36
   12  A    between atoms: C_14  and  C_25
   13  A    between atoms: C_18  and  C_33
   14  A    between atoms: C_19  and  C_21
   15  A    between atoms: C_22  and  C_23
   16  A    between atoms: C_22  and  C_27
   17  A    between atoms: C_23  and  C_40
   18  A    between atoms: C_25  and  C_34
   19  A    between atoms: C_29  and  C_40
                            x       y       z     vdW  Elec       q    Type
                         _______ _______ _______ _____ _____    ______ ____

>  <TORSDO>
F 19

$$$$
=
 OpenBabel11062419363D

 42 42  0  0  1  0  0  0  0  0999 V2000
  192.1970  175.7250  146.8910 C   0  0  0  0  0  2  0  0  0  0  0  0
  193.3470  175.0220  146.2380 C   0  0  0  0  0  0  0  0  0  0  0  0
  193.1830  173.9040  145.7760 O   0  0  0  0  0  0  0  0  0  0  0  0
  194.6510  177.0060  146.5110 F   0  0  0  0  0  0  0  0  0  0  0  0
  194.7020  175.6710  146.1440 C   0  0  2  0  0  3  0  0  0  0  0  0
  195.3730  175.5130  144.7720 C   0  0  1  0  0  3  0  0  0  0  0  0
  195.7140  176.7520  144.2180 O   0  0  0  0  0  1  0  0  0  0  0  0
  196.5580  174.5450  144.7690 C   0  0  1  0  0  3  0  0  0  0  0  0
  196.7490  174.0260  146.0500 O   0  0  0  0  0  1  0  0  0  0  0  0
  196.3800  173.4050  143.7720 C   0  0  0  0  0  2  0  0  0  0  0  0
  195.9920  172.1200  144.4840 C   0  0  0  0  0  2  0  0  0  0  0  0
  194.6590  171.6100  143.9600 C   0  0  0  0  0  2  0  0  0  0  0  0
  194.2950  172.3100  142.7360 N   0  0  0  0  0  2  0  0  0  0  0  0
  192.5130  170.8620  142.1660 N   0  0  0  0  0  2  0  0  0  0  0  0
  193.1860  171.9350  141.9110 C   0  0  0  0  0  0  0  0  0  0  0  0
  192.9430  172.6510  140.6220 C   0  0  0  0  0  2  0  0  0  0  0  0
  191.5150  172.5460  140.2030 C   0  0  0  0  0  0  0  0  0  0  0  0
  188.4180  174.3300  141.0310 O   0  0  0  0  0  0  0  0  0  0  0  0
  188.5520  172.6420  139.3760 C   0  0  0  0  0  1  0  0  0  0  0  0
  189.1550  173.5080  140.4280 C   0  0  0  0  0  0  0  0  0  0  0  0
  191.1890  171.6850  139.3450 O   0  0  0  0  0  0  0  0  0  0  0  0
  190.5450  173.4350  140.7710 N   0  0  0  0  0  2  0  0  0  0  0  0
  190.8880  175.3900  146.1960 C   0  0  0  0  0  2  0  0  0  0  0  0
  188.6660  174.4710  147.6730 O   0  0  0  0  0  0  0  0  0  0  0  0
  188.2220  177.8940  145.5060 C   0  0  0  0  0  3  0  0  0  0  0  0
  187.1550  177.5030  146.4880 C   0  0  2  0  0  3  0  0  0  0  0  0
  189.4510  177.3630  145.5810 C   0  0  0  0  0  0  0  0  0  0  0  0
  187.3000  176.1400  146.8850 O   0  0  0  0  0  0  0  0  0  0  0  0
  188.5640  175.5860  147.0950 C   0  0  0  0  0  0  0  0  0  0  0  0
  189.7930  176.3470  146.6600 C   0  0  1  0  0  3  0  0  0  0  0  0
  185.7930  177.7440  145.9220 C   0  0  0  0  0  0  0  0  0  0  0  0
  184.8270  177.1260  146.3450 O   0  0  0  0  0  0  0  0  0  0  0  0
  185.6190  178.7590  144.8400 C   0  0  0  0  0  2  0  0  0  0  0  0
  183.8950  178.1830  142.6160 O   0  0  0  0  0  1  0  0  0  0  0  0
  185.4580  177.9510  143.2190 P   0  0  0  0  0  0  0  0  0  0  0  0
  186.5770  178.6270  142.1470 O   0  0  0  0  0  0  0  0  0  0  0  0
  185.7290  176.4700  143.3590 O   0  0  0  0  0  1  0  0  0  0  0  0
  190.4960  177.8730  144.6380 C   0  0  0  0  0  2  0  0  0  0  0  0
  190.1250  177.5300  143.2030 C   0  0  0  0  0  2  0  0  0  0  0  0
  190.8850  176.3000  142.7390 C   0  0  0  0  0  2  0  0  0  0  0  0
  192.3790  176.5010  142.9160 C   0  0  0  0  0  2  0  0  0  0  0  0
  193.0640  175.7540  141.9610 O   0  0  0  0  0  1  0  0  0  0  0  0
  2  1  1  0  0  0  0
  3  2  2  0  0  0  0
  5  2  1  0  0  0  0
  5  4  1  6  0  0  0
  6  7  1  1  0  0  0
  6  5  1  0  0  0  0
  8  6  1  0  0  0  0
  8  9  1  1  0  0  0
 10 11  1  0  0  0  0
 10  8  1  0  0  0  0
 12 11  1  0  0  0  0
 13 12  1  0  0  0  0
 15 14  2  0  0  0  0
 15 13  1  0  0  0  0
 16 15  1  0  0  0  0
 17 16  1  0  0  0  0
 17 22  1  0  0  0  0
 19 20  1  0  0  0  0
 20 22  1  0  0  0  0
 20 18  2  0  0  0  0
 21 17  2  0  0  0  0
 23  1  1  0  0  0  0
 25 27  2  0  0  0  0
 25 26  1  0  0  0  0
 26 31  1  6  0  0  0
 26 28  1  0  0  0  0
 27 30  1  0  0  0  0
 28 29  1  0  0  0  0
 29 24  2  0  0  0  0
 30 23  1  6  0  0  0
 30 29  1  0  0  0  0
 31 32  2  0  0  0  0
 33 31  1  0  0  0  0
 34 35  1  0  0  0  0
 35 37  1  0  0  0  0
 35 33  1  0  0  0  0
 36 35  2  0  0  0  0
 38 27  1  0  0  0  0
 39 38  1  0  0  0  0
 40 41  1  0  0  0  0
 40 39  1  0  0  0  0
 42 41  1  0  0  0  0
M  END
>  <MODEL>
4

>  <REMARK>
 VINA RESULT:      -6.0      1.611      2.187
  Name = 
  19 active torsions:
  status: ('A' for Active; 'I' for Inactive)
    1  A    between atoms: N_1  and  C_17
    2  A    between atoms: C_4  and  C_11
    3  A    between atoms: C_4  and  C_18
    4  A    between atoms: C_6  and  C_17
    5  A    between atoms: C_6  and  C_36
    6  A    between atoms: P_8  and  C_34
    7  A    between atoms: C_9  and  C_19
    8  A    between atoms: C_10  and  C_11
    9  A    between atoms: C_10  and  C_15
   10  A    between atoms: C_13  and  C_15
   11  A    between atoms: C_13  and  C_36
   12  A    between atoms: C_14  and  C_25
   13  A    between atoms: C_18  and  C_33
   14  A    between atoms: C_19  and  C_21
   15  A    between atoms: C_22  and  C_23
   16  A    between atoms: C_22  and  C_27
   17  A    between atoms: C_23  and  C_40
   18  A    between atoms: C_25  and  C_34
   19  A    between atoms: C_29  and  C_40
                            x       y       z     vdW  Elec       q    Type
                         _______ _______ _______ _____ _____    ______ ____

>  <TORSDO>
F 19

$$$$
=
 OpenBabel11062419363D

 42 42  0  0  1  0  0  0  0  0999 V2000
  192.3060  175.0730  146.6330 C   0  0  0  0  0  2  0  0  0  0  0  0
  193.3850  175.7600  145.8540 C   0  0  0  0  0  0  0  0  0  0  0  0
  193.5980  176.9470  146.0410 O   0  0  0  0  0  0  0  0  0  0  0  0
  194.1080  173.6400  145.0200 F   0  0  0  0  0  0  0  0  0  0  0  0
  194.2110  175.0110  144.8420 C   0  0  2  0  0  3  0  0  0  0  0  0
  195.6840  175.4410  144.8000 C   0  0  1  0  0  3  0  0  0  0  0  0
  196.5260  174.4570  145.3300 O   0  0  0  0  0  1  0  0  0  0  0  0
  196.1540  175.9080  143.4200 C   0  0  1  0  0  3  0  0  0  0  0  0
  196.9080  177.0760  143.5480 O   0  0  0  0  0  1  0  0  0  0  0  0
  196.9670  174.8460  142.6890 C   0  0  0  0  0  2  0  0  0  0  0  0
  197.1790  175.2340  141.2340 C   0  0  0  0  0  2  0  0  0  0  0  0
  195.9090  175.8430  140.6620 C   0  0  0  0  0  2  0  0  0  0  0  0
  195.0000  174.7950  140.2200 N   0  0  0  0  0  2  0  0  0  0  0  0
  193.1600  175.5290  141.5120 N   0  0  0  0  0  2  0  0  0  0  0  0
  193.6280  174.7150  140.6250 C   0  0  0  0  0  0  0  0  0  0  0  0
  192.7940  173.5520  140.1970 C   0  0  0  0  0  2  0  0  0  0  0  0
  191.6020  173.3850  141.0800 C   0  0  0  0  0  0  0  0  0  0  0  0
  190.9530  171.7490  144.2980 O   0  0  0  0  0  0  0  0  0  0  0  0
  189.3450  173.0490  143.1450 C   0  0  0  0  0  1  0  0  0  0  0  0
  190.7010  172.4470  143.2830 C   0  0  0  0  0  0  0  0  0  0  0  0
  190.5110  173.9150  140.7440 O   0  0  0  0  0  0  0  0  0  0  0  0
  191.7260  172.6410  142.2990 N   0  0  0  0  0  2  0  0  0  0  0  0
  191.0050  175.0430  145.8510 C   0  0  0  0  0  2  0  0  0  0  0  0
  189.0140  174.2840  147.7030 O   0  0  0  0  0  0  0  0  0  0  0  0
  188.3440  177.6160  145.4520 C   0  0  0  0  0  3  0  0  0  0  0  0
  187.4340  177.3150  146.6080 C   0  0  2  0  0  3  0  0  0  0  0  0
  189.5530  177.0400  145.3630 C   0  0  0  0  0  0  0  0  0  0  0  0
  187.5950  175.9670  147.0490 O   0  0  0  0  0  0  0  0  0  0  0  0
  188.8590  175.3740  147.0890 C   0  0  0  0  0  0  0  0  0  0  0  0
  190.0280  176.0630  146.4280 C   0  0  1  0  0  3  0  0  0  0  0  0
  186.0080  177.5830  146.2480 C   0  0  0  0  0  0  0  0  0  0  0  0
  185.1340  176.7780  146.5350 O   0  0  0  0  0  0  0  0  0  0  0  0
  185.6570  178.8530  145.5450 C   0  0  0  0  0  2  0  0  0  0  0  0
  185.3740  176.8820  143.4750 O   0  0  0  0  0  1  0  0  0  0  0  0
  185.1660  178.5230  143.8260 P   0  0  0  0  0  0  0  0  0  0  0  0
  183.5400  178.9370  143.6230 O   0  0  0  0  0  1  0  0  0  0  0  0
  186.0160  179.3490  142.8860 O   0  0  0  0  0  0  0  0  0  0  0  0
  190.4520  177.4630  144.2430 C   0  0  0  0  0  2  0  0  0  0  0  0
  190.0900  176.7190  142.9660 C   0  0  0  0  0  2  0  0  0  0  0  0
  189.0420  177.4880  142.1840 C   0  0  0  0  0  2  0  0  0  0  0  0
  188.0980  176.5320  141.4780 C   0  0  0  0  0  2  0  0  0  0  0  0
  187.2610  177.2500  140.6260 O   0  0  0  0  0  1  0  0  0  0  0  0
  2  3  2  0  0  0  0
  2  1  1  0  0  0  0
  5  4  1  1  0  0  0
  5  2  1  0  0  0  0
  6  5  1  0  0  0  0
  6  7  1  6  0  0  0
  8  9  1  1  0  0  0
  8  6  1  0  0  0  0
 10  8  1  0  0  0  0
 11 10  1  0  0  0  0
 12 11  1  0  0  0  0
 13 15  1  0  0  0  0
 13 12  1  0  0  0  0
 15 14  2  0  0  0  0
 16 15  1  0  0  0  0
 16 17  1  0  0  0  0
 17 22  1  0  0  0  0
 19 20  1  0  0  0  0
 20 18  2  0  0  0  0
 21 17  2  0  0  0  0
 22 20  1  0  0  0  0
 23  1  1  0  0  0  0
 25 26  1  0  0  0  0
 26 31  1  6  0  0  0
 26 28  1  0  0  0  0
 27 25  2  0  0  0  0
 27 30  1  0  0  0  0
 28 29  1  0  0  0  0
 29 24  2  0  0  0  0
 30 23  1  6  0  0  0
 30 29  1  0  0  0  0
 31 32  2  0  0  0  0
 33 31  1  0  0  0  0
 34 35  1  0  0  0  0
 35 33  1  0  0  0  0
 36 35  1  0  0  0  0
 37 35  2  0  0  0  0
 38 27  1  0  0  0  0
 39 38  1  0  0  0  0
 40 39  1  0  0  0  0
 41 40  1  0  0  0  0
 42 41  1  0  0  0  0
M  END
>  <MODEL>
5

>  <REMARK>
 VINA RESULT:      -6.0      1.747      2.401
  Name = 
  19 active torsions:
  status: ('A' for Active; 'I' for Inactive)
    1  A    between atoms: N_1  and  C_17
    2  A    between atoms: C_4  and  C_11
    3  A    between atoms: C_4  and  C_18
    4  A    between atoms: C_6  and  C_17
    5  A    between atoms: C_6  and  C_36
    6  A    between atoms: P_8  and  C_34
    7  A    between atoms: C_9  and  C_19
    8  A    between atoms: C_10  and  C_11
    9  A    between atoms: C_10  and  C_15
   10  A    between atoms: C_13  and  C_15
   11  A    between atoms: C_13  and  C_36
   12  A    between atoms: C_14  and  C_25
   13  A    between atoms: C_18  and  C_33
   14  A    between atoms: C_19  and  C_21
   15  A    between atoms: C_22  and  C_23
   16  A    between atoms: C_22  and  C_27
   17  A    between atoms: C_23  and  C_40
   18  A    between atoms: C_25  and  C_34
   19  A    between atoms: C_29  and  C_40
                            x       y       z     vdW  Elec       q    Type
                         _______ _______ _______ _____ _____    ______ ____

>  <TORSDO>
F 19

$$$$
=
 OpenBabel11062419363D

 42 42  0  0  1  0  0  0  0  0999 V2000
  193.1920  176.7560  144.6230 C   0  0  0  0  0  2  0  0  0  0  0  0
  194.0990  176.2460  145.7000 C   0  0  0  0  0  0  0  0  0  0  0  0
  194.1860  176.8590  146.7520 O   0  0  0  0  0  0  0  0  0  0  0  0
  195.8460  174.8330  146.5130 F   0  0  0  0  0  0  0  0  0  0  0  0
  194.9080  174.9920  145.5050 C   0  0  2  0  0  3  0  0  0  0  0  0
  195.5750  174.8890  144.1260 C   0  0  1  0  0  3  0  0  0  0  0  0
  196.6710  175.7510  144.0150 O   0  0  0  0  0  1  0  0  0  0  0  0
  195.9320  173.4590  143.7150 C   0  0  1  0  0  3  0  0  0  0  0  0
  195.2190  172.5500  144.4960 O   0  0  0  0  0  1  0  0  0  0  0  0
  195.6670  173.1900  142.2380 C   0  0  0  0  0  2  0  0  0  0  0  0
  194.9410  171.8680  142.0510 C   0  0  0  0  0  2  0  0  0  0  0  0
  194.4540  171.7340  140.6170 C   0  0  0  0  0  2  0  0  0  0  0  0
  192.9990  171.7260  140.5750 N   0  0  0  0  0  2  0  0  0  0  0  0
  192.7850  169.3710  140.5090 N   0  0  0  0  0  2  0  0  0  0  0  0
  192.2140  170.5280  140.5810 C   0  0  0  0  0  0  0  0  0  0  0  0
  190.7280  170.6110  140.4400 C   0  0  0  0  0  2  0  0  0  0  0  0
  190.1580  171.6690  141.3240 C   0  0  0  0  0  0  0  0  0  0  0  0
  189.8280  172.1380  144.9480 O   0  0  0  0  0  0  0  0  0  0  0  0
  189.2080  173.7770  143.3550 C   0  0  0  0  0  1  0  0  0  0  0  0
  189.7520  172.4420  143.7290 C   0  0  0  0  0  0  0  0  0  0  0  0
  189.6680  172.7050  140.8040 O   0  0  0  0  0  0  0  0  0  0  0  0
  190.1940  171.4950  142.7460 N   0  0  0  0  0  2  0  0  0  0  0  0
  191.8650  176.0160  144.6330 C   0  0  0  0  0  2  0  0  0  0  0  0
  190.9300  175.0970  147.1330 O   0  0  0  0  0  0  0  0  0  0  0  0
  188.5130  177.5920  145.0010 C   0  0  0  0  0  3  0  0  0  0  0  0
  188.1660  177.2750  146.4280 C   0  0  2  0  0  3  0  0  0  0  0  0
  189.7520  177.3790  144.5330 C   0  0  0  0  0  0  0  0  0  0  0  0
  188.9000  176.1430  146.8940 O   0  0  0  0  0  0  0  0  0  0  0  0
  190.2340  175.9550  146.5270 C   0  0  0  0  0  0  0  0  0  0  0  0
  190.8350  176.8070  145.4350 C   0  0  1  0  0  3  0  0  0  0  0  0
  186.6970  177.0490  146.5830 C   0  0  0  0  0  0  0  0  0  0  0  0
  186.1870  177.0230  147.6930 O   0  0  0  0  0  0  0  0  0  0  0  0
  185.8520  176.8680  145.3640 C   0  0  0  0  0  2  0  0  0  0  0  0
  183.6760  178.5030  146.2850 O   0  0  0  0  0  1  0  0  0  0  0  0
  184.8340  178.3450  145.0620 P   0  0  0  0  0  0  0  0  0  0  0  0
  185.8280  179.7120  145.0520 O   0  0  0  0  0  1  0  0  0  0  0  0
  184.1390  178.2190  143.7250 O   0  0  0  0  0  0  0  0  0  0  0  0
  190.0590  177.8140  143.1330 C   0  0  0  0  0  2  0  0  0  0  0  0
  189.0790  177.1810  142.1570 C   0  0  0  0  0  2  0  0  0  0  0  0
  188.1950  178.2430  141.5300 C   0  0  0  0  0  2  0  0  0  0  0  0
  186.8950  177.6310  141.0400 C   0  0  0  0  0  2  0  0  0  0  0  0
  186.4860  176.6380  141.9280 O   0  0  0  0  0  1  0  0  0  0  0  0
  1 23  1  0  0  0  0
  1  2  1  0  0  0  0
  2  3  2  0  0  0  0
  5  2  1  0  0  0  0
  5  4  1  1  0  0  0
  6  7  1  1  0  0  0
  6  5  1  0  0  0  0
  8  6  1  0  0  0  0
  8  9  1  1  0  0  0
 10  8  1  0  0  0  0
 11 10  1  0  0  0  0
 12 11  1  0  0  0  0
 13 15  1  0  0  0  0
 13 12  1  0  0  0  0
 14 15  2  0  0  0  0
 16 15  1  0  0  0  0
 16 17  1  0  0  0  0
 17 22  1  0  0  0  0
 19 20  1  0  0  0  0
 20 18  2  0  0  0  0
 21 17  2  0  0  0  0
 22 20  1  0  0  0  0
 25 26  1  0  0  0  0
 26 31  1  6  0  0  0
 26 28  1  0  0  0  0
 27 25  2  0  0  0  0
 27 30  1  0  0  0  0
 29 28  1  0  0  0  0
 29 24  2  0  0  0  0
 30 23  1  6  0  0  0
 30 29  1  0  0  0  0
 31 32  2  0  0  0  0
 33 31  1  0  0  0  0
 35 33  1  0  0  0  0
 35 34  1  0  0  0  0
 36 35  1  0  0  0  0
 37 35  2  0  0  0  0
 38 27  1  0  0  0  0
 39 38  1  0  0  0  0
 40 39  1  0  0  0  0
 41 40  1  0  0  0  0
 41 42  1  0  0  0  0
M  END
>  <MODEL>
6

>  <REMARK>
 VINA RESULT:      -5.9      1.643      2.529
  Name = 
  19 active torsions:
  status: ('A' for Active; 'I' for Inactive)
    1  A    between atoms: N_1  and  C_17
    2  A    between atoms: C_4  and  C_11
    3  A    between atoms: C_4  and  C_18
    4  A    between atoms: C_6  and  C_17
    5  A    between atoms: C_6  and  C_36
    6  A    between atoms: P_8  and  C_34
    7  A    between atoms: C_9  and  C_19
    8  A    between atoms: C_10  and  C_11
    9  A    between atoms: C_10  and  C_15
   10  A    between atoms: C_13  and  C_15
   11  A    between atoms: C_13  and  C_36
   12  A    between atoms: C_14  and  C_25
   13  A    between atoms: C_18  and  C_33
   14  A    between atoms: C_19  and  C_21
   15  A    between atoms: C_22  and  C_23
   16  A    between atoms: C_22  and  C_27
   17  A    between atoms: C_23  and  C_40
   18  A    between atoms: C_25  and  C_34
   19  A    between atoms: C_29  and  C_40
                            x       y       z     vdW  Elec       q    Type
                         _______ _______ _______ _____ _____    ______ ____

>  <TORSDO>
F 19

$$$$
=
 OpenBabel11062419363D

 42 42  0  0  1  0  0  0  0  0999 V2000
  192.4580  176.0470  146.0480 C   0  0  0  0  0  2  0  0  0  0  0  0
  193.4150  176.1070  144.8970 C   0  0  0  0  0  0  0  0  0  0  0  0
  192.9840  176.0850  143.7560 O   0  0  0  0  0  0  0  0  0  0  0  0
  195.3310  177.5100  145.1670 F   0  0  0  0  0  0  0  0  0  0  0  0
  194.9000  176.1940  145.1260 C   0  0  2  0  0  3  0  0  0  0  0  0
  195.7330  175.3840  144.1210 C   0  0  1  0  0  3  0  0  0  0  0  0
  196.7970  176.1340  143.6090 O   0  0  0  0  0  1  0  0  0  0  0  0
  196.1990  174.0270  144.6530 C   0  0  1  0  0  3  0  0  0  0  0  0
  196.5740  174.1470  145.9910 O   0  0  0  0  0  1  0  0  0  0  0  0
  195.1340  172.9460  144.5100 C   0  0  0  0  0  2  0  0  0  0  0  0
  194.8960  172.6100  143.0470 C   0  0  0  0  0  2  0  0  0  0  0  0
  193.4230  172.7670  142.7040 C   0  0  0  0  0  2  0  0  0  0  0  0
  193.1750  172.3500  141.3320 N   0  0  0  0  0  2  0  0  0  0  0  0
  192.9560  174.5390  140.4630 N   0  0  0  0  0  2  0  0  0  0  0  0
  193.0070  173.2670  140.2440 C   0  0  0  0  0  0  0  0  0  0  0  0
  192.6620  172.7520  138.8840 C   0  0  0  0  0  2  0  0  0  0  0  0
  191.3100  173.2130  138.4560 C   0  0  0  0  0  0  0  0  0  0  0  0
  187.8620  172.4720  139.4670 O   0  0  0  0  0  0  0  0  0  0  0  0
  188.4300  174.1280  137.8730 C   0  0  0  0  0  1  0  0  0  0  0  0
  188.7850  173.0560  138.8440 C   0  0  0  0  0  0  0  0  0  0  0  0
  191.2160  174.0840  137.5520 O   0  0  0  0  0  0  0  0  0  0  0  0
  190.1450  172.6710  139.0910 N   0  0  0  0  0  2  0  0  0  0  0  0
  191.0870  175.5780  145.5910 C   0  0  0  0  0  2  0  0  0  0  0  0
  189.3010  174.5940  147.5430 O   0  0  0  0  0  0  0  0  0  0  0  0
  188.0840  177.7550  145.2750 C   0  0  0  0  0  3  0  0  0  0  0  0
  187.2740  177.3570  146.4760 C   0  0  2  0  0  3  0  0  0  0  0  0
  189.3550  177.3480  145.1400 C   0  0  0  0  0  0  0  0  0  0  0  0
  187.6380  176.0540  146.9300 O   0  0  0  0  0  0  0  0  0  0  0  0
  188.9710  175.6400  146.9210 C   0  0  0  0  0  0  0  0  0  0  0  0
  190.0050  176.4680  146.1970 C   0  0  1  0  0  3  0  0  0  0  0  0
  185.8110  177.4210  146.1780 C   0  0  0  0  0  0  0  0  0  0  0  0
  185.1010  176.4390  146.3420 O   0  0  0  0  0  0  0  0  0  0  0  0
  185.2180  178.7020  145.6910 C   0  0  0  0  0  2  0  0  0  0  0  0
  185.2870  177.0890  143.3150 O   0  0  0  0  0  1  0  0  0  0  0  0
  184.9180  178.6330  143.8980 P   0  0  0  0  0  0  0  0  0  0  0  0
  183.2910  178.9720  143.5940 O   0  0  0  0  0  1  0  0  0  0  0  0
  185.7840  179.6550  143.1970 O   0  0  0  0  0  0  0  0  0  0  0  0
  190.1390  177.8650  143.9740 C   0  0  0  0  0  2  0  0  0  0  0  0
  189.4260  177.5350  142.6710 C   0  0  0  0  0  2  0  0  0  0  0  0
  189.5440  176.0530  142.3640 C   0  0  0  0  0  2  0  0  0  0  0  0
  188.1730  175.4510  142.1150 C   0  0  0  0  0  2  0  0  0  0  0  0
  188.2070  174.0870  142.3960 O   0  0  0  0  0  1  0  0  0  0  0  0
  2  5  1  0  0  0  0
  2  1  1  0  0  0  0
  3  2  2  0  0  0  0
  5  4  1  6  0  0  0
  6  7  1  1  0  0  0
  6  8  1  0  0  0  0
  6  5  1  0  0  0  0
  8  9  1  1  0  0  0
 10  8  1  0  0  0  0
 11 10  1  0  0  0  0
 12 11  1  0  0  0  0
 13 12  1  0  0  0  0
 15 14  2  0  0  0  0
 15 13  1  0  0  0  0
 16 15  1  0  0  0  0
 17 16  1  0  0  0  0
 17 22  1  0  0  0  0
 19 20  1  0  0  0  0
 20 22  1  0  0  0  0
 20 18  2  0  0  0  0
 21 17  2  0  0  0  0
 23  1  1  0  0  0  0
 25 26  1  0  0  0  0
 26 31  1  6  0  0  0
 26 28  1  0  0  0  0
 27 25  2  0  0  0  0
 27 30  1  0  0  0  0
 29 28  1  0  0  0  0
 29 24  2  0  0  0  0
 30 23  1  6  0  0  0
 30 29  1  0  0  0  0
 31 32  2  0  0  0  0
 33 31  1  0  0  0  0
 34 35  1  0  0  0  0
 35 33  1  0  0  0  0
 36 35  1  0  0  0  0
 37 35  2  0  0  0  0
 38 27  1  0  0  0  0
 39 38  1  0  0  0  0
 40 39  1  0  0  0  0
 41 40  1  0  0  0  0
 41 42  1  0  0  0  0
M  END
>  <MODEL>
7

>  <REMARK>
 VINA RESULT:      -5.8      1.728      2.246
  Name = 
  19 active torsions:
  status: ('A' for Active; 'I' for Inactive)
    1  A    between atoms: N_1  and  C_17
    2  A    between atoms: C_4  and  C_11
    3  A    between atoms: C_4  and  C_18
    4  A    between atoms: C_6  and  C_17
    5  A    between atoms: C_6  and  C_36
    6  A    between atoms: P_8  and  C_34
    7  A    between atoms: C_9  and  C_19
    8  A    between atoms: C_10  and  C_11
    9  A    between atoms: C_10  and  C_15
   10  A    between atoms: C_13  and  C_15
   11  A    between atoms: C_13  and  C_36
   12  A    between atoms: C_14  and  C_25
   13  A    between atoms: C_18  and  C_33
   14  A    between atoms: C_19  and  C_21
   15  A    between atoms: C_22  and  C_23
   16  A    between atoms: C_22  and  C_27
   17  A    between atoms: C_23  and  C_40
   18  A    between atoms: C_25  and  C_34
   19  A    between atoms: C_29  and  C_40
                            x       y       z     vdW  Elec       q    Type
                         _______ _______ _______ _____ _____    ______ ____

>  <TORSDO>
F 19

$$$$
=
 OpenBabel11062419363D

 42 42  0  0  1  0  0  0  0  0999 V2000
  193.1260  176.7770  144.7460 C   0  0  0  0  0  2  0  0  0  0  0  0
  194.1780  176.1890  145.6360 C   0  0  0  0  0  0  0  0  0  0  0  0
  194.3710  176.6760  146.7380 O   0  0  0  0  0  0  0  0  0  0  0  0
  196.0780  174.7970  146.0370 F   0  0  0  0  0  0  0  0  0  0  0  0
  195.0000  175.0100  145.1930 C   0  0  2  0  0  3  0  0  0  0  0  0
  195.4670  175.0900  143.7320 C   0  0  1  0  0  3  0  0  0  0  0  0
  196.6350  175.8490  143.6030 O   0  0  0  0  0  1  0  0  0  0  0  0
  195.5960  173.7280  143.0460 C   0  0  1  0  0  3  0  0  0  0  0  0
  195.2610  172.7130  143.9430 O   0  0  0  0  0  1  0  0  0  0  0  0
  194.7310  173.6180  141.7950 C   0  0  0  0  0  2  0  0  0  0  0  0
  193.4790  174.4690  141.9270 C   0  0  0  0  0  2  0  0  0  0  0  0
  192.2520  173.5820  142.0710 C   0  0  0  0  0  2  0  0  0  0  0  0
  191.2430  173.9500  141.0890 N   0  0  0  0  0  2  0  0  0  0  0  0
  189.4310  172.9530  142.2380 N   0  0  0  0  0  2  0  0  0  0  0  0
  189.8480  173.6660  141.2430 C   0  0  0  0  0  0  0  0  0  0  0  0
  188.8950  173.9960  140.1400 C   0  0  0  0  0  2  0  0  0  0  0  0
  189.1520  173.1590  138.9320 C   0  0  0  0  0  0  0  0  0  0  0  0
  190.8570  173.6680  135.7240 O   0  0  0  0  0  0  0  0  0  0  0  0
  189.9550  171.5890  136.4100 C   0  0  0  0  0  1  0  0  0  0  0  0
  190.2500  173.0340  136.6240 C   0  0  0  0  0  0  0  0  0  0  0  0
  188.7500  171.9660  138.9150 O   0  0  0  0  0  0  0  0  0  0  0  0
  189.8650  173.7210  137.8230 N   0  0  0  0  0  2  0  0  0  0  0  0
  191.8370  175.9770  144.8240 C   0  0  0  0  0  2  0  0  0  0  0  0
  191.2070  175.7330  147.5640 O   0  0  0  0  0  0  0  0  0  0  0  0
  188.2990  177.1090  145.0610 C   0  0  0  0  0  3  0  0  0  0  0  0
  188.0900  177.1920  146.5460 C   0  0  2  0  0  3  0  0  0  0  0  0
  189.5280  176.9400  144.5510 C   0  0  0  0  0  0  0  0  0  0  0  0
  189.0230  176.3660  147.2410 O   0  0  0  0  0  0  0  0  0  0  0  0
  190.3470  176.2640  146.8100 C   0  0  0  0  0  0  0  0  0  0  0  0
  190.7390  176.8220  145.4640 C   0  0  1  0  0  3  0  0  0  0  0  0
  186.6880  176.8210  146.9090 C   0  0  0  0  0  0  0  0  0  0  0  0
  186.4360  176.3460  148.0060 O   0  0  0  0  0  0  0  0  0  0  0  0
  185.5910  177.0510  145.9210 C   0  0  0  0  0  2  0  0  0  0  0  0
  185.5920  179.5510  147.3350 O   0  0  0  0  0  1  0  0  0  0  0  0
  185.0970  178.8010  145.9030 P   0  0  0  0  0  0  0  0  0  0  0  0
  185.8260  179.5700  144.5860 O   0  0  0  0  0  0  0  0  0  0  0  0
  183.5930  178.9030  145.7750 O   0  0  0  0  0  1  0  0  0  0  0  0
  189.6810  176.9710  143.0610 C   0  0  0  0  0  2  0  0  0  0  0  0
  188.3370  176.7400  142.3880 C   0  0  0  0  0  2  0  0  0  0  0  0
  187.9590  177.9370  141.5340 C   0  0  0  0  0  2  0  0  0  0  0  0
  186.8930  177.5530  140.5230 C   0  0  0  0  0  2  0  0  0  0  0  0
  185.6330  177.8260  141.0500 O   0  0  0  0  0  1  0  0  0  0  0  0
  1 23  1  0  0  0  0
  1  2  1  0  0  0  0
  2  3  2  0  0  0  0
  5  2  1  0  0  0  0
  5  4  1  1  0  0  0
  6  7  1  1  0  0  0
  6  5  1  0  0  0  0
  8  6  1  0  0  0  0
  8  9  1  1  0  0  0
 10 11  1  0  0  0  0
 10  8  1  0  0  0  0
 11 12  1  0  0  0  0
 13 15  1  0  0  0  0
 13 12  1  0  0  0  0
 15 14  2  0  0  0  0
 16 15  1  0  0  0  0
 17 16  1  0  0  0  0
 18 20  2  0  0  0  0
 19 20  1  0  0  0  0
 20 22  1  0  0  0  0
 21 17  2  0  0  0  0
 22 17  1  0  0  0  0
 25 26  1  0  0  0  0
 26 31  1  6  0  0  0
 26 28  1  0  0  0  0
 27 25  2  0  0  0  0
 27 30  1  0  0  0  0
 29 28  1  0  0  0  0
 29 24  2  0  0  0  0
 30 23  1  6  0  0  0
 30 29  1  0  0  0  0
 31 32  2  0  0  0  0
 33 31  1  0  0  0  0
 35 33  1  0  0  0  0
 35 34  1  0  0  0  0
 36 35  2  0  0  0  0
 37 35  1  0  0  0  0
 38 27  1  0  0  0  0
 39 38  1  0  0  0  0
 40 39  1  0  0  0  0
 41 42  1  0  0  0  0
 41 40  1  0  0  0  0
M  END
>  <MODEL>
8

>  <REMARK>
 VINA RESULT:      -5.7      1.960      2.871
  Name = 
  19 active torsions:
  status: ('A' for Active; 'I' for Inactive)
    1  A    between atoms: N_1  and  C_17
    2  A    between atoms: C_4  and  C_11
    3  A    between atoms: C_4  and  C_18
    4  A    between atoms: C_6  and  C_17
    5  A    between atoms: C_6  and  C_36
    6  A    between atoms: P_8  and  C_34
    7  A    between atoms: C_9  and  C_19
    8  A    between atoms: C_10  and  C_11
    9  A    between atoms: C_10  and  C_15
   10  A    between atoms: C_13  and  C_15
   11  A    between atoms: C_13  and  C_36
   12  A    between atoms: C_14  and  C_25
   13  A    between atoms: C_18  and  C_33
   14  A    between atoms: C_19  and  C_21
   15  A    between atoms: C_22  and  C_23
   16  A    between atoms: C_22  and  C_27
   17  A    between atoms: C_23  and  C_40
   18  A    between atoms: C_25  and  C_34
   19  A    between atoms: C_29  and  C_40
                            x       y       z     vdW  Elec       q    Type
                         _______ _______ _______ _____ _____    ______ ____

>  <TORSDO>
F 19

$$$$
=
 OpenBabel11062419363D

 42 42  0  0  1  0  0  0  0  0999 V2000
  192.4480  175.6820  146.7310 C   0  0  0  0  0  2  0  0  0  0  0  0
  193.8980  175.7030  146.3550 C   0  0  0  0  0  0  0  0  0  0  0  0
  194.6180  176.5860  146.7930 O   0  0  0  0  0  0  0  0  0  0  0  0
  193.7610  173.4720  145.5100 F   0  0  0  0  0  0  0  0  0  0  0  0
  194.4800  174.6550  145.4460 C   0  0  2  0  0  3  0  0  0  0  0  0
  195.9750  174.3910  145.6780 C   0  0  1  0  0  3  0  0  0  0  0  0
  196.2240  173.0440  145.9620 O   0  0  0  0  0  1  0  0  0  0  0  0
  196.8780  174.9100  144.5570 C   0  0  1  0  0  3  0  0  0  0  0  0
  197.7310  173.8940  144.1270 O   0  0  0  0  0  1  0  0  0  0  0  0
  196.0870  175.4560  143.3730 C   0  0  0  0  0  2  0  0  0  0  0  0
  196.7610  175.0960  142.0600 C   0  0  0  0  0  2  0  0  0  0  0  0
  196.0220  175.7360  140.8960 C   0  0  0  0  0  2  0  0  0  0  0  0
  194.6090  175.3870  140.9400 N   0  0  0  0  0  2  0  0  0  0  0  0
  194.8170  173.4230  139.6380 N   0  0  0  0  0  2  0  0  0  0  0  0
  194.0690  174.2000  140.3500 C   0  0  0  0  0  0  0  0  0  0  0  0
  192.5920  173.9700  140.3610 C   0  0  0  0  0  2  0  0  0  0  0  0
  192.1420  173.3960  141.6630 C   0  0  0  0  0  0  0  0  0  0  0  0
  188.9070  172.4610  143.1190 O   0  0  0  0  0  0  0  0  0  0  0  0
  190.9840  172.0680  144.1860 C   0  0  0  0  0  1  0  0  0  0  0  0
  190.1580  172.5710  143.0520 C   0  0  0  0  0  0  0  0  0  0  0  0
  193.0010  173.1030  142.5340 O   0  0  0  0  0  0  0  0  0  0  0  0
  190.7450  173.1740  141.8900 N   0  0  0  0  0  2  0  0  0  0  0  0
  191.6770  176.7590  145.9890 C   0  0  0  0  0  2  0  0  0  0  0  0
  192.3320  176.4290  143.2630 O   0  0  0  0  0  0  0  0  0  0  0  0
  188.3840  176.6440  144.2570 C   0  0  0  0  0  3  0  0  0  0  0  0
  188.7700  176.2290  142.8660 C   0  0  2  0  0  3  0  0  0  0  0  0
  189.2750  176.5920  145.2590 C   0  0  0  0  0  0  0  0  0  0  0  0
  190.1370  176.5430  142.5980 O   0  0  0  0  0  0  0  0  0  0  0  0
  191.1130  176.3820  143.5830 C   0  0  0  0  0  0  0  0  0  0  0  0
  190.6980  176.1170  145.0100 C   0  0  1  0  0  3  0  0  0  0  0  0
  187.8760  176.8670  141.8510 C   0  0  0  0  0  0  0  0  0  0  0  0
  187.4730  176.2280  140.8910 O   0  0  0  0  0  0  0  0  0  0  0  0
  187.4670  178.2920  142.0300 C   0  0  0  0  0  2  0  0  0  0  0  0
  185.2160  176.9740  143.2320 O   0  0  0  0  0  1  0  0  0  0  0  0
  185.7080  178.4060  142.4790 P   0  0  0  0  0  0  0  0  0  0  0  0
  185.4890  179.7010  143.5420 O   0  0  0  0  0  1  0  0  0  0  0  0
  184.8790  178.6310  141.2350 O   0  0  0  0  0  0  0  0  0  0  0  0
  188.7970  176.9180  146.6410 C   0  0  0  0  0  2  0  0  0  0  0  0
  187.2800  176.8340  146.7080 C   0  0  0  0  0  2  0  0  0  0  0  0
  186.7100  178.0710  147.3780 C   0  0  0  0  0  2  0  0  0  0  0  0
  185.2050  177.9440  147.5360 C   0  0  0  0  0  2  0  0  0  0  0  0
  184.5890  178.1550  146.3050 O   0  0  0  0  0  1  0  0  0  0  0  0
  2  1  1  0  0  0  0
  2  3  2  0  0  0  0
  5  4  1  1  0  0  0
  5  6  1  0  0  0  0
  5  2  1  0  0  0  0
  6  7  1  6  0  0  0
  8  9  1  6  0  0  0
  8  6  1  0  0  0  0
 10  8  1  0  0  0  0
 11 10  1  0  0  0  0
 12 13  1  0  0  0  0
 12 11  1  0  0  0  0
 14 15  2  0  0  0  0
 15 16  1  0  0  0  0
 15 13  1  0  0  0  0
 16 17  1  0  0  0  0
 17 22  1  0  0  0  0
 17 21  2  0  0  0  0
 20 18  2  0  0  0  0
 20 19  1  0  0  0  0
 22 20  1  0  0  0  0
 23  1  1  0  0  0  0
 24 29  2  0  0  0  0
 25 27  2  0  0  0  0
 26 31  1  6  0  0  0
 26 25  1  0  0  0  0
 27 38  1  0  0  0  0
 28 26  1  0  0  0  0
 28 29  1  0  0  0  0
 29 30  1  0  0  0  0
 30 27  1  0  0  0  0
 30 23  1  1  0  0  0
 31 33  1  0  0  0  0
 32 31  2  0  0  0  0
 33 35  1  0  0  0  0
 35 34  1  0  0  0  0
 35 36  1  0  0  0  0
 37 35  2  0  0  0  0
 38 39  1  0  0  0  0
 39 40  1  0  0  0  0
 40 41  1  0  0  0  0
 42 41  1  0  0  0  0
M  END
>  <MODEL>
9

>  <REMARK>
 VINA RESULT:      -5.7      2.230      3.597
  Name = 
  19 active torsions:
  status: ('A' for Active; 'I' for Inactive)
    1  A    between atoms: N_1  and  C_17
    2  A    between atoms: C_4  and  C_11
    3  A    between atoms: C_4  and  C_18
    4  A    between atoms: C_6  and  C_17
    5  A    between atoms: C_6  and  C_36
    6  A    between atoms: P_8  and  C_34
    7  A    between atoms: C_9  and  C_19
    8  A    between atoms: C_10  and  C_11
    9  A    between atoms: C_10  and  C_15
   10  A    between atoms: C_13  and  C_15
   11  A    between atoms: C_13  and  C_36
   12  A    between atoms: C_14  and  C_25
   13  A    between atoms: C_18  and  C_33
   14  A    between atoms: C_19  and  C_21
   15  A    between atoms: C_22  and  C_23
   16  A    between atoms: C_22  and  C_27
   17  A    between atoms: C_23  and  C_40
   18  A    between atoms: C_25  and  C_34
   19  A    between atoms: C_29  and  C_40
                            x       y       z     vdW  Elec       q    Type
                         _______ _______ _______ _____ _____    ______ ____

>  <TORSDO>
F 19

$$$$
