=
 OpenBabel11062419183D

 50 55  0  0  1  0  0  0  0  0999 V2000
  194.3400  174.3420  141.8670 C   0  0  0  0  0  0  0  0  0  0  0  0
  195.3340  172.7820  143.4780 C   0  0  0  0  0  0  0  0  0  0  0  0
  196.2040  172.2890  142.5090 C   0  0  0  0  0  0  0  0  0  0  0  0
  194.4880  173.8090  143.1660 C   0  0  0  0  0  3  0  0  0  0  0  0
  197.4730  171.8480  142.8780 N   0  0  0  0  0  1  0  0  0  0  0  0
  195.1330  173.8380  140.9150 C   0  0  0  0  0  3  0  0  0  0  0  0
  196.0580  172.8800  141.2370 N   0  0  0  0  0  0  0  0  0  0  0  0
  195.4750  172.5670  145.0320 C   0  0  1  0  0  0  0  0  0  0  0  0
  194.1460  173.0750  145.6050 C   0  0  0  0  0  1  0  0  0  0  0  0
  195.6130  171.1450  145.6920 C   0  0  0  0  0  0  0  0  0  0  0  0
  194.5240  170.2700  145.8940 N   0  0  0  0  0  2  0  0  0  0  0  0
  196.7790  170.6750  145.7270 O   0  0  0  0  0  0  0  0  0  0  0  0
  194.4120  169.1420  144.9590 C   0  0  0  0  0  2  0  0  0  0  0  0
  193.4980  169.5070  143.7990 C   0  0  0  0  0  2  0  0  0  0  0  0
  192.3790  170.4670  143.9860 N   0  0  0  0  0  2  0  0  0  0  0  0
  192.1130  171.0070  142.6900 C   0  0  0  0  0  2  0  0  0  0  0  0
  190.8510  170.3910  142.1160 C   0  0  0  0  0  2  0  0  0  0  0  0
  190.3340  172.2370  139.5200 C   0  0  0  0  0  0  0  0  0  0  0  0
  190.2870  173.4280  138.4800 C   0  0  0  0  0  1  0  0  0  0  0  0
  189.0990  171.6740  142.9470 O   0  0  0  0  0  0  0  0  0  0  0  0
  189.5680  172.2880  140.6960 N   0  0  0  0  0  2  0  0  0  0  0  0
  189.8830  171.6040  141.9530 C   0  0  0  0  0  0  0  0  0  0  0  0
  191.0890  171.3080  139.2790 O   0  0  0  0  0  0  0  0  0  0  0  0
  196.5270  173.4150  145.4050 O   0  0  0  0  0  0  0  0  0  0  0  0
  196.0430  174.5270  146.1130 C   0  0  0  0  0  1  0  0  0  0  0  0
  193.2010  175.2720  141.5910 C   0  0  0  0  0  2  0  0  0  0  0  0
  191.8970  174.7060  142.1460 C   0  0  0  0  0  2  0  0  0  0  0  0
  189.6460  177.1240  145.2420 C   0  0  0  0  0  2  0  0  0  0  0  0
  190.5030  174.9410  144.3150 C   0  0  1  0  0  3  0  0  0  0  0  0
  189.7360  175.2000  146.6000 O   0  0  0  0  0  1  0  0  0  0  0  0
  191.3330  175.6390  143.2000 C   0  0  1  0  0  0  0  0  0  0  0  0
  192.8040  176.5800  145.0730 C   0  0  0  0  0  2  0  0  0  0  0  0
  190.4020  175.8300  145.5460 C   0  0  2  0  0  0  0  0  0  0  0  0
  189.2660  175.0390  142.2210 O   0  0  0  0  0  1  0  0  0  0  0  0
  192.1780  176.8310  143.6400 C   0  0  0  0  0  2  0  0  0  0  0  0
  191.7310  176.4030  146.1160 C   0  0  0  0  0  2  0  0  0  0  0  0
  189.8540  175.7550  143.2940 C   0  0  1  0  0  0  0  0  0  0  0  0
  188.9360  176.7340  143.9320 C   0  0  2  0  0  3  0  0  0  0  0  0
  186.9660  177.6460  142.9700 C   0  0  1  0  0  0  0  0  0  0  0  0
  187.8040  178.8150  142.9640 O   0  0  0  0  0  0  0  0  0  0  0  0
  188.4880  177.6020  142.8310 C   0  0  1  0  0  3  0  0  0  0  0  0
  184.9260  178.1000  146.8310 C   0  0  0  0  0  3  0  0  0  0  0  0
  185.1820  176.8030  146.3670 C   0  0  0  0  0  3  0  0  0  0  0  0
  186.1000  177.7260  144.3010 C   0  0  0  0  0  0  0  0  0  0  0  0
  185.8530  176.5980  145.1380 C   0  0  0  0  0  3  0  0  0  0  0  0
  185.1960  179.1850  146.0440 C   0  0  0  0  0  3  0  0  0  0  0  0
  185.5590  180.1390  143.9490 O   0  0  0  0  0  1  0  0  0  0  0  0
  185.5850  179.0190  144.7380 C   0  0  0  0  0  0  0  0  0  0  0  0
  186.2080  177.1880  141.6700 C   0  0  0  0  0  2  0  0  0  0  0  0
  185.9880  178.1290  140.6260 O   0  0  0  0  0  1  0  0  0  0  0  0
  1  4  1  0  0  0  0
  2  8  1  0  0  0  0
  3  5  1  0  0  0  0
  3  2  1  0  0  0  0
  4  2  2  0  0  0  0
  6  7  1  0  0  0  0
  6  1  2  0  0  0  0
  7  3  2  0  0  0  0
  8 24  1  0  0  0  0
  8  9  1  1  0  0  0
  8 10  1  0  0  0  0
 10 12  2  0  0  0  0
 10 11  1  0  0  0  0
 13 11  1  0  0  0  0
 14 15  1  0  0  0  0
 14 13  1  0  0  0  0
 16 15  1  0  0  0  0
 17 16  1  0  0  0  0
 18 21  1  0  0  0  0
 19 18  1  0  0  0  0
 21 22  1  0  0  0  0
 22 17  1  0  0  0  0
 22 20  2  0  0  0  0
 23 18  2  0  0  0  0
 24 25  1  0  0  0  0
 26  1  1  0  0  0  0
 26 27  1  0  0  0  0
 27 31  1  0  0  0  0
 28 33  1  0  0  0  0
 29 33  1  0  0  0  0
 31 37  1  0  0  0  0
 31 35  1  0  0  0  0
 31 29  1  0  0  0  0
 32 36  1  0  0  0  0
 33 36  1  0  0  0  0
 33 30  1  0  0  0  0
 34 37  1  0  0  0  0
 35 32  1  0  0  0  0
 37 38  1  0  0  0  0
 37 29  1  0  0  0  0
 38 28  1  0  0  0  0
 39 44  1  0  0  0  0
 40 39  1  0  0  0  0
 41 40  1  0  0  0  0
 41 39  1  0  0  0  0
 41 38  1  0  0  0  0
 43 42  1  0  0  0  0
 44 48  2  0  0  0  0
 44 45  1  0  0  0  0
 45 43  2  0  0  0  0
 46 42  2  0  0  0  0
 47 48  1  0  0  0  0
 48 46  1  0  0  0  0
 49 39  1  0  0  0  0
 50 49  1  0  0  0  0
M  END
>  <MODEL>
1

>  <REMARK>
 VINA RESULT:      -6.8      0.000      0.000
  Name = 
  15 active torsions:
  status: ('A' for Active; 'I' for Inactive)
    1  A    between atoms: C_1  and  C_34
    2  A    between atoms: C_2  and  C_22
    3  A    between atoms: C_4  and  C_20
    4  A    between atoms: C_4  and  C_29
    5  A    between atoms: C_5  and  C_33
    6  A    between atoms: C_5  and  C_49
    7  A    between atoms: O_6  and  C_22
    8  A    between atoms: C_13  and  C_50
    9  A    between atoms: C_18  and  C_22
   10  A    between atoms: C_21  and  C_37
   11  A    between atoms: C_26  and  N_30
   12  A    between atoms: C_26  and  C_48
   13  A    between atoms: C_34  and  C_37
   14  A    between atoms: N_39  and  C_48
   15  A    between atoms: N_39  and  C_49
                            x       y       z     vdW  Elec       q    Type
                         _______ _______ _______ _____ _____    ______ ____

>  <TORSDO>
F 15

$$$$
=
 OpenBabel11062419183D

 50 55  0  0  1  0  0  0  0  0999 V2000
  188.1010  177.8200  142.6910 C   0  0  0  0  0  0  0  0  0  0  0  0
  186.6020  178.2880  144.5770 C   0  0  0  0  0  0  0  0  0  0  0  0
  185.6220  178.7750  143.7160 C   0  0  0  0  0  0  0  0  0  0  0  0
  187.7620  177.7780  144.0610 C   0  0  0  0  0  3  0  0  0  0  0  0
  184.2760  178.6110  144.0360 N   0  0  0  0  0  1  0  0  0  0  0  0
  187.1880  178.3360  141.8610 C   0  0  0  0  0  3  0  0  0  0  0  0
  185.9800  178.7560  142.3520 N   0  0  0  0  0  0  0  0  0  0  0  0
  186.3800  177.8800  146.0820 C   0  0  1  0  0  0  0  0  0  0  0  0
  185.3930  176.7080  146.0130 C   0  0  0  0  0  1  0  0  0  0  0  0
  187.5280  177.3080  146.9940 C   0  0  0  0  0  0  0  0  0  0  0  0
  187.7960  175.9300  147.1400 N   0  0  0  0  0  2  0  0  0  0  0  0
  188.4180  178.1330  147.3250 O   0  0  0  0  0  0  0  0  0  0  0  0
  188.9610  175.4110  146.4110 C   0  0  0  0  0  2  0  0  0  0  0  0
  190.0670  175.0350  147.3860 C   0  0  0  0  0  2  0  0  0  0  0  0
  191.0050  176.0640  147.9050 N   0  0  0  0  0  2  0  0  0  0  0  0
  191.9070  176.3410  146.8320 C   0  0  0  0  0  2  0  0  0  0  0  0
  192.8400  175.1650  146.6160 C   0  0  0  0  0  2  0  0  0  0  0  0
  195.6260  173.8320  145.6790 C   0  0  0  0  0  0  0  0  0  0  0  0
  197.0840  173.2210  145.6300 C   0  0  0  0  0  1  0  0  0  0  0  0
  194.1550  177.0830  146.6030 O   0  0  0  0  0  0  0  0  0  0  0  0
  195.4370  175.2070  145.8960 N   0  0  0  0  0  2  0  0  0  0  0  0
  194.2500  175.8230  146.4950 C   0  0  0  0  0  0  0  0  0  0  0  0
  194.6870  173.0590  145.5670 O   0  0  0  0  0  0  0  0  0  0  0  0
  185.7710  179.0030  146.6590 O   0  0  0  0  0  0  0  0  0  0  0  0
  184.7760  178.6160  147.5710 C   0  0  0  0  0  1  0  0  0  0  0  0
  189.4980  177.4800  142.2800 C   0  0  0  0  0  2  0  0  0  0  0  0
  190.1660  176.5910  143.3270 C   0  0  0  0  0  2  0  0  0  0  0  0
  191.9000  172.6970  141.8000 C   0  0  0  0  0  2  0  0  0  0  0  0
  191.3020  174.2890  143.6620 C   0  0  1  0  0  3  0  0  0  0  0  0
  191.8020  171.9460  144.0300 O   0  0  0  0  0  1  0  0  0  0  0  0
  190.5480  175.2590  142.7090 C   0  0  1  0  0  0  0  0  0  0  0  0
  188.8240  173.3930  142.3930 C   0  0  0  0  0  2  0  0  0  0  0  0
  191.2090  172.8570  143.1540 C   0  0  2  0  0  0  0  0  0  0  0  0
  192.7440  176.1080  142.9290 O   0  0  0  0  0  1  0  0  0  0  0  0
  189.5790  174.6140  141.7230 C   0  0  0  0  0  2  0  0  0  0  0  0
  189.7900  172.3170  142.8160 C   0  0  0  0  0  2  0  0  0  0  0  0
  191.9960  174.9580  142.5690 C   0  0  1  0  0  0  0  0  0  0  0  0
  192.7710  173.9680  141.7760 C   0  0  2  0  0  3  0  0  0  0  0  0
  194.7740  174.4460  140.5940 C   0  0  1  0  0  0  0  0  0  0  0  0
  193.8950  174.1820  139.4870 O   0  0  0  0  0  0  0  0  0  0  0  0
  193.2700  174.7230  140.6150 C   0  0  1  0  0  3  0  0  0  0  0  0
  196.5060  170.4620  141.2280 C   0  0  0  0  0  3  0  0  0  0  0  0
  196.2160  171.2440  142.3540 C   0  0  0  0  0  3  0  0  0  0  0  0
  195.5290  173.0800  140.8990 C   0  0  0  0  0  0  0  0  0  0  0  0
  195.6400  172.5280  142.2090 C   0  0  0  0  0  3  0  0  0  0  0  0
  196.3650  170.9770  139.9700 C   0  0  0  0  0  3  0  0  0  0  0  0
  196.2330  172.7970  138.5190 O   0  0  0  0  0  1  0  0  0  0  0  0
  196.0780  172.3080  139.7900 C   0  0  0  0  0  0  0  0  0  0  0  0
  195.6490  175.7530  140.6380 C   0  0  0  0  0  2  0  0  0  0  0  0
  196.9690  175.7230  140.1090 O   0  0  0  0  0  1  0  0  0  0  0  0
  1  4  1  0  0  0  0
  2  8  1  0  0  0  0
  3  5  1  0  0  0  0
  3  2  1  0  0  0  0
  4  2  2  0  0  0  0
  6  7  1  0  0  0  0
  6  1  2  0  0  0  0
  7  3  2  0  0  0  0
  8  9  1  6  0  0  0
  8 24  1  0  0  0  0
  8 10  1  0  0  0  0
 10 11  1  0  0  0  0
 10 12  2  0  0  0  0
 13 11  1  0  0  0  0
 13 14  1  0  0  0  0
 14 15  1  0  0  0  0
 16 15  1  0  0  0  0
 17 16  1  0  0  0  0
 18 21  1  0  0  0  0
 19 18  1  0  0  0  0
 21 22  1  0  0  0  0
 22 20  2  0  0  0  0
 22 17  1  0  0  0  0
 23 18  2  0  0  0  0
 24 25  1  0  0  0  0
 26  1  1  0  0  0  0
 26 27  1  0  0  0  0
 28 33  1  0  0  0  0
 31 27  1  0  0  0  0
 31 29  1  0  0  0  0
 32 36  1  0  0  0  0
 33 29  1  0  0  0  0
 33 30  1  0  0  0  0
 35 32  1  0  0  0  0
 35 31  1  0  0  0  0
 36 33  1  0  0  0  0
 37 31  1  0  0  0  0
 37 34  1  0  0  0  0
 37 29  1  0  0  0  0
 38 28  1  0  0  0  0
 38 37  1  0  0  0  0
 39 41  1  0  0  0  0
 39 49  1  0  0  0  0
 39 44  1  0  0  0  0
 40 39  1  0  0  0  0
 40 41  1  0  0  0  0
 41 38  1  0  0  0  0
 42 43  1  0  0  0  0
 44 45  1  0  0  0  0
 45 43  2  0  0  0  0
 46 42  2  0  0  0  0
 47 48  1  0  0  0  0
 48 46  1  0  0  0  0
 48 44  2  0  0  0  0
 50 49  1  0  0  0  0
M  END
>  <MODEL>
2

>  <REMARK>
 VINA RESULT:      -6.7      3.153      9.149
  Name = 
  15 active torsions:
  status: ('A' for Active; 'I' for Inactive)
    1  A    between atoms: C_1  and  C_34
    2  A    between atoms: C_2  and  C_22
    3  A    between atoms: C_4  and  C_20
    4  A    between atoms: C_4  and  C_29
    5  A    between atoms: C_5  and  C_33
    6  A    between atoms: C_5  and  C_49
    7  A    between atoms: O_6  and  C_22
    8  A    between atoms: C_13  and  C_50
    9  A    between atoms: C_18  and  C_22
   10  A    between atoms: C_21  and  C_37
   11  A    between atoms: C_26  and  N_30
   12  A    between atoms: C_26  and  C_48
   13  A    between atoms: C_34  and  C_37
   14  A    between atoms: N_39  and  C_48
   15  A    between atoms: N_39  and  C_49
                            x       y       z     vdW  Elec       q    Type
                         _______ _______ _______ _____ _____    ______ ____

>  <TORSDO>
F 15

$$$$
=
 OpenBabel11062419183D

 50 55  0  0  1  0  0  0  0  0999 V2000
  194.3430  173.7540  143.5990 C   0  0  0  0  0  0  0  0  0  0  0  0
  195.4700  171.6240  144.0650 C   0  0  0  0  0  0  0  0  0  0  0  0
  196.7150  172.2480  144.0630 C   0  0  0  0  0  0  0  0  0  0  0  0
  194.3380  172.3740  143.9000 C   0  0  0  0  0  3  0  0  0  0  0  0
  197.7290  171.7710  144.8910 N   0  0  0  0  0  1  0  0  0  0  0  0
  195.5380  174.3530  143.5420 C   0  0  0  0  0  3  0  0  0  0  0  0
  196.6740  173.6340  143.8070 N   0  0  0  0  0  0  0  0  0  0  0  0
  195.1640  170.1880  144.6360 C   0  0  1  0  0  0  0  0  0  0  0  0
  193.6380  170.0630  144.5440 C   0  0  0  0  0  1  0  0  0  0  0  0
  195.6590  168.8660  143.9400 C   0  0  0  0  0  0  0  0  0  0  0  0
  194.9100  168.1660  142.9720 N   0  0  0  0  0  2  0  0  0  0  0  0
  196.8930  168.6380  144.0290 O   0  0  0  0  0  0  0  0  0  0  0  0
  195.3370  168.3260  141.5750 C   0  0  0  0  0  2  0  0  0  0  0  0
  194.1430  168.6540  140.6920 C   0  0  0  0  0  2  0  0  0  0  0  0
  192.7630  168.6400  141.2430 N   0  0  0  0  0  2  0  0  0  0  0  0
  192.0510  169.6510  140.5270 C   0  0  0  0  0  2  0  0  0  0  0  0
  191.9200  170.9000  141.3790 C   0  0  0  0  0  2  0  0  0  0  0  0
  189.9620  173.0200  139.9340 C   0  0  0  0  0  0  0  0  0  0  0  0
  189.1030  173.8320  138.8830 C   0  0  0  0  0  1  0  0  0  0  0  0
  193.5370  172.2440  140.3870 O   0  0  0  0  0  0  0  0  0  0  0  0
  191.3650  173.0950  139.9170 N   0  0  0  0  0  2  0  0  0  0  0  0
  192.2820  172.0600  140.4000 C   0  0  0  0  0  0  0  0  0  0  0  0
  189.3610  172.3010  140.7170 O   0  0  0  0  0  0  0  0  0  0  0  0
  195.5720  170.2540  145.9750 O   0  0  0  0  0  0  0  0  0  0  0  0
  194.8980  169.2950  146.7490 C   0  0  0  0  0  1  0  0  0  0  0  0
  193.0660  174.4080  143.1780 C   0  0  0  0  0  2  0  0  0  0  0  0
  191.8720  173.7540  143.8700 C   0  0  0  0  0  2  0  0  0  0  0  0
  189.2170  176.4600  146.3460 C   0  0  0  0  0  2  0  0  0  0  0  0
  190.0230  174.1800  145.6320 C   0  0  1  0  0  3  0  0  0  0  0  0
  188.7530  174.5600  147.6610 O   0  0  0  0  0  1  0  0  0  0  0  0
  191.1760  174.7620  144.7640 C   0  0  1  0  0  0  0  0  0  0  0  0
  192.2380  175.5620  146.9520 C   0  0  0  0  0  2  0  0  0  0  0  0
  189.7240  175.0940  146.8110 C   0  0  2  0  0  0  0  0  0  0  0  0
  189.3590  174.3810  143.3000 O   0  0  0  0  0  1  0  0  0  0  0  0
  192.0160  175.8580  145.4120 C   0  0  0  0  0  2  0  0  0  0  0  0
  190.9290  175.5240  147.6970 C   0  0  0  0  0  2  0  0  0  0  0  0
  189.7420  175.0440  144.4930 C   0  0  1  0  0  0  0  0  0  0  0  0
  188.8110  176.1310  144.8970 C   0  0  2  0  0  3  0  0  0  0  0  0
  187.2580  177.3070  143.5390 C   0  0  1  0  0  0  0  0  0  0  0  0
  188.2500  178.3330  143.7190 O   0  0  0  0  0  0  0  0  0  0  0  0
  188.7490  177.0260  143.7300 C   0  0  1  0  0  3  0  0  0  0  0  0
  184.5130  178.2670  146.8290 C   0  0  0  0  0  3  0  0  0  0  0  0
  184.8580  176.9240  146.6270 C   0  0  0  0  0  3  0  0  0  0  0  0
  186.1520  177.5570  144.6550 C   0  0  0  0  0  0  0  0  0  0  0  0
  185.7540  176.5600  145.5930 C   0  0  0  0  0  3  0  0  0  0  0  0
  184.9260  179.2300  145.9510 C   0  0  0  0  0  3  0  0  0  0  0  0
  185.6810  179.8710  143.8410 O   0  0  0  0  0  1  0  0  0  0  0  0
  185.5590  178.8830  144.7830 C   0  0  0  0  0  0  0  0  0  0  0  0
  186.7320  176.9340  142.1050 C   0  0  0  0  0  2  0  0  0  0  0  0
  186.3630  177.9740  141.2080 O   0  0  0  0  0  1  0  0  0  0  0  0
  1  4  1  0  0  0  0
  2  8  1  0  0  0  0
  3  2  1  0  0  0  0
  3  5  1  0  0  0  0
  4  2  2  0  0  0  0
  6  1  2  0  0  0  0
  6  7  1  0  0  0  0
  7  3  2  0  0  0  0
  8  9  1  1  0  0  0
  8 24  1  0  0  0  0
 10 12  2  0  0  0  0
 10  8  1  0  0  0  0
 11 10  1  0  0  0  0
 13 11  1  0  0  0  0
 14 15  1  0  0  0  0
 14 13  1  0  0  0  0
 16 15  1  0  0  0  0
 16 17  1  0  0  0  0
 18 23  2  0  0  0  0
 19 18  1  0  0  0  0
 20 22  2  0  0  0  0
 21 18  1  0  0  0  0
 21 22  1  0  0  0  0
 22 17  1  0  0  0  0
 24 25  1  0  0  0  0
 26  1  1  0  0  0  0
 26 27  1  0  0  0  0
 27 31  1  0  0  0  0
 28 33  1  0  0  0  0
 29 33  1  0  0  0  0
 31 35  1  0  0  0  0
 31 29  1  0  0  0  0
 32 36  1  0  0  0  0
 33 30  1  0  0  0  0
 33 36  1  0  0  0  0
 34 37  1  0  0  0  0
 35 32  1  0  0  0  0
 37 31  1  0  0  0  0
 37 38  1  0  0  0  0
 37 29  1  0  0  0  0
 38 28  1  0  0  0  0
 39 40  1  0  0  0  0
 39 41  1  0  0  0  0
 39 44  1  0  0  0  0
 40 41  1  0  0  0  0
 41 38  1  0  0  0  0
 43 42  1  0  0  0  0
 44 48  2  0  0  0  0
 44 45  1  0  0  0  0
 45 43  2  0  0  0  0
 46 42  2  0  0  0  0
 47 48  1  0  0  0  0
 48 46  1  0  0  0  0
 49 39  1  0  0  0  0
 50 49  1  0  0  0  0
M  END
>  <MODEL>
3

>  <REMARK>
 VINA RESULT:      -6.6      1.668      2.228
  Name = 
  15 active torsions:
  status: ('A' for Active; 'I' for Inactive)
    1  A    between atoms: C_1  and  C_34
    2  A    between atoms: C_2  and  C_22
    3  A    between atoms: C_4  and  C_20
    4  A    between atoms: C_4  and  C_29
    5  A    between atoms: C_5  and  C_33
    6  A    between atoms: C_5  and  C_49
    7  A    between atoms: O_6  and  C_22
    8  A    between atoms: C_13  and  C_50
    9  A    between atoms: C_18  and  C_22
   10  A    between atoms: C_21  and  C_37
   11  A    between atoms: C_26  and  N_30
   12  A    between atoms: C_26  and  C_48
   13  A    between atoms: C_34  and  C_37
   14  A    between atoms: N_39  and  C_48
   15  A    between atoms: N_39  and  C_49
                            x       y       z     vdW  Elec       q    Type
                         _______ _______ _______ _____ _____    ______ ____

>  <TORSDO>
F 15

$$$$
=
 OpenBabel11062419183D

 50 55  0  0  1  0  0  0  0  0999 V2000
  193.3550  175.4440  146.3910 C   0  0  0  0  0  0  0  0  0  0  0  0
  194.6560  174.6200  144.4810 C   0  0  0  0  0  0  0  0  0  0  0  0
  195.2810  175.8560  144.3350 C   0  0  0  0  0  0  0  0  0  0  0  0
  193.7790  174.4240  145.5110 C   0  0  0  0  0  3  0  0  0  0  0  0
  196.5930  175.9180  143.8710 N   0  0  0  0  0  1  0  0  0  0  0  0
  193.9090  176.6500  146.2250 C   0  0  0  0  0  3  0  0  0  0  0  0
  194.8660  176.8340  145.2620 N   0  0  0  0  0  0  0  0  0  0  0  0
  195.1360  173.2680  143.8310 C   0  0  1  0  0  0  0  0  0  0  0  0
  194.0300  172.2660  144.1860 C   0  0  0  0  0  1  0  0  0  0  0  0
  195.2920  173.0710  142.2770 C   0  0  0  0  0  0  0  0  0  0  0  0
  194.2000  172.9940  141.3870 N   0  0  0  0  0  2  0  0  0  0  0  0
  196.4330  173.3240  141.8120 O   0  0  0  0  0  0  0  0  0  0  0  0
  193.9270  174.1920  140.5830 C   0  0  0  0  0  2  0  0  0  0  0  0
  192.6540  174.0050  139.7720 C   0  0  0  0  0  2  0  0  0  0  0  0
  191.4980  173.2590  140.3330 N   0  0  0  0  0  2  0  0  0  0  0  0
  191.3420  172.1070  139.5020 C   0  0  0  0  0  2  0  0  0  0  0  0
  189.8820  171.6990  139.4440 C   0  0  0  0  0  2  0  0  0  0  0  0
  189.2370  173.5670  136.8920 C   0  0  0  0  0  0  0  0  0  0  0  0
  189.2090  174.7330  135.8240 C   0  0  0  0  0  1  0  0  0  0  0  0
  188.5380  173.2750  140.5000 O   0  0  0  0  0  0  0  0  0  0  0  0
  188.7050  173.7660  138.1780 N   0  0  0  0  0  2  0  0  0  0  0  0
  189.1150  173.0570  139.3920 C   0  0  0  0  0  0  0  0  0  0  0  0
  189.7740  172.5190  136.5690 O   0  0  0  0  0  0  0  0  0  0  0  0
  196.3190  172.9560  144.5140 O   0  0  0  0  0  0  0  0  0  0  0  0
  196.2160  171.7040  145.1430 C   0  0  0  0  0  1  0  0  0  0  0  0
  192.1990  175.1800  147.3020 C   0  0  0  0  0  2  0  0  0  0  0  0
  191.0750  176.1810  147.0510 C   0  0  0  0  0  2  0  0  0  0  0  0
  188.2770  175.2520  143.6150 C   0  0  0  0  0  2  0  0  0  0  0  0
  190.4200  176.2000  144.5460 C   0  0  1  0  0  3  0  0  0  0  0  0
  190.1040  175.6990  142.1960 O   0  0  0  0  0  1  0  0  0  0  0  0
  190.1420  175.6560  145.9770 C   0  0  1  0  0  0  0  0  0  0  0  0
  190.4280  173.3090  144.9940 C   0  0  0  0  0  2  0  0  0  0  0  0
  189.8020  175.2890  143.4960 C   0  0  2  0  0  0  0  0  0  0  0  0
  189.3740  177.8920  145.9480 O   0  0  0  0  0  1  0  0  0  0  0  0
  189.6800  174.2050  146.0650 C   0  0  0  0  0  2  0  0  0  0  0  0
  190.1330  173.7720  143.5910 C   0  0  0  0  0  2  0  0  0  0  0  0
  189.2520  176.6360  145.3010 C   0  0  1  0  0  0  0  0  0  0  0  0
  188.0300  176.5120  144.4640 C   0  0  2  0  0  3  0  0  0  0  0  0
  186.1560  177.9500  144.7110 C   0  0  1  0  0  0  0  0  0  0  0  0
  185.5530  176.6990  145.0810 O   0  0  0  0  0  0  0  0  0  0  0  0
  186.9160  176.8040  145.3810 C   0  0  1  0  0  3  0  0  0  0  0  0
  185.0740  178.1110  140.4590 C   0  0  0  0  0  3  0  0  0  0  0  0
  186.4340  178.1200  140.7960 C   0  0  0  0  0  3  0  0  0  0  0  0
  185.8450  178.1550  143.1650 C   0  0  0  0  0  0  0  0  0  0  0  0
  186.8400  178.0510  142.1500 C   0  0  0  0  0  3  0  0  0  0  0  0
  184.1170  178.1730  141.4330 C   0  0  0  0  0  3  0  0  0  0  0  0
  183.4500  178.7200  143.5990 O   0  0  0  0  0  1  0  0  0  0  0  0
  184.4690  178.3910  142.7430 C   0  0  0  0  0  0  0  0  0  0  0  0
  186.0110  179.2200  145.6270 C   0  0  0  0  0  2  0  0  0  0  0  0
  185.0580  179.2090  146.6840 O   0  0  0  0  0  1  0  0  0  0  0  0
  1 26  1  0  0  0  0
  2  4  1  0  0  0  0
  3  2  2  0  0  0  0
  3  7  1  0  0  0  0
  4  1  2  0  0  0  0
  5  3  1  0  0  0  0
  6  1  1  0  0  0  0
  7  6  2  0  0  0  0
  8  9  1  1  0  0  0
  8  2  1  0  0  0  0
  8 24  1  0  0  0  0
 10  8  1  0  0  0  0
 11 10  1  0  0  0  0
 12 10  2  0  0  0  0
 13 11  1  0  0  0  0
 14 15  1  0  0  0  0
 14 13  1  0  0  0  0
 16 15  1  0  0  0  0
 17 16  1  0  0  0  0
 18 21  1  0  0  0  0
 19 18  1  0  0  0  0
 21 22  1  0  0  0  0
 22 17  1  0  0  0  0
 22 20  2  0  0  0  0
 23 18  2  0  0  0  0
 24 25  1  0  0  0  0
 27 26  1  0  0  0  0
 28 38  1  0  0  0  0
 29 37  1  0  0  0  0
 29 31  1  0  0  0  0
 30 33  1  0  0  0  0
 31 35  1  0  0  0  0
 31 27  1  0  0  0  0
 32 35  1  0  0  0  0
 33 36  1  0  0  0  0
 33 28  1  0  0  0  0
 33 29  1  0  0  0  0
 36 32  1  0  0  0  0
 37 34  1  0  0  0  0
 37 31  1  0  0  0  0
 38 37  1  0  0  0  0
 38 41  1  0  0  0  0
 39 40  1  0  0  0  0
 39 41  1  0  0  0  0
 39 49  1  0  0  0  0
 40 41  1  0  0  0  0
 42 43  2  0  0  0  0
 42 46  1  0  0  0  0
 43 45  1  0  0  0  0
 44 39  1  0  0  0  0
 45 44  2  0  0  0  0
 46 48  2  0  0  0  0
 48 44  1  0  0  0  0
 48 47  1  0  0  0  0
 49 50  1  0  0  0  0
M  END
>  <MODEL>
4

>  <REMARK>
 VINA RESULT:      -6.6      2.177      3.994
  Name = 
  15 active torsions:
  status: ('A' for Active; 'I' for Inactive)
    1  A    between atoms: C_1  and  C_34
    2  A    between atoms: C_2  and  C_22
    3  A    between atoms: C_4  and  C_20
    4  A    between atoms: C_4  and  C_29
    5  A    between atoms: C_5  and  C_33
    6  A    between atoms: C_5  and  C_49
    7  A    between atoms: O_6  and  C_22
    8  A    between atoms: C_13  and  C_50
    9  A    between atoms: C_18  and  C_22
   10  A    between atoms: C_21  and  C_37
   11  A    between atoms: C_26  and  N_30
   12  A    between atoms: C_26  and  C_48
   13  A    between atoms: C_34  and  C_37
   14  A    between atoms: N_39  and  C_48
   15  A    between atoms: N_39  and  C_49
                            x       y       z     vdW  Elec       q    Type
                         _______ _______ _______ _____ _____    ______ ____

>  <TORSDO>
F 15

$$$$
=
 OpenBabel11062419183D

 50 55  0  0  1  0  0  0  0  0999 V2000
  193.8950  175.8830  145.3500 C   0  0  0  0  0  0  0  0  0  0  0  0
  191.5820  175.6230  146.1250 C   0  0  0  0  0  0  0  0  0  0  0  0
  191.8490  176.3750  147.2670 C   0  0  0  0  0  0  0  0  0  0  0  0
  192.5620  175.4480  145.1870 C   0  0  0  0  0  3  0  0  0  0  0  0
  190.8470  177.1670  147.8240 N   0  0  0  0  0  1  0  0  0  0  0  0
  194.1760  176.5590  146.4680 C   0  0  0  0  0  3  0  0  0  0  0  0
  193.1800  176.8300  147.3690 N   0  0  0  0  0  0  0  0  0  0  0  0
  190.1490  175.2680  145.5760 C   0  0  1  0  0  0  0  0  0  0  0  0
  189.4380  174.6180  146.7700 C   0  0  0  0  0  1  0  0  0  0  0  0
  189.1140  176.3580  145.1110 C   0  0  0  0  0  0  0  0  0  0  0  0
  187.7960  176.4430  145.6070 N   0  0  0  0  0  2  0  0  0  0  0  0
  189.6070  177.3600  144.5330 O   0  0  0  0  0  0  0  0  0  0  0  0
  187.5350  177.5040  146.5890 C   0  0  0  0  0  2  0  0  0  0  0  0
  186.0380  177.6720  146.8000 C   0  0  0  0  0  2  0  0  0  0  0  0
  185.4110  179.0190  146.7690 N   0  0  0  0  0  2  0  0  0  0  0  0
  184.6020  179.0410  145.5920 C   0  0  0  0  0  2  0  0  0  0  0  0
  185.4720  179.2270  144.3630 C   0  0  0  0  0  2  0  0  0  0  0  0
  186.3230  177.8440  141.5740 C   0  0  0  0  0  0  0  0  0  0  0  0
  186.6250  177.5430  140.0510 C   0  0  0  0  0  1  0  0  0  0  0  0
  183.3450  178.7720  143.5400 O   0  0  0  0  0  0  0  0  0  0  0  0
  184.9980  177.9760  142.0240 N   0  0  0  0  0  2  0  0  0  0  0  0
  184.5630  178.7550  143.1850 C   0  0  0  0  0  0  0  0  0  0  0  0
  187.2780  178.0000  142.3180 O   0  0  0  0  0  0  0  0  0  0  0  0
  190.3890  174.3190  144.5720 O   0  0  0  0  0  0  0  0  0  0  0  0
  189.9490  173.0480  144.9720 C   0  0  0  0  0  1  0  0  0  0  0  0
  194.9350  175.4040  144.3860 C   0  0  0  0  0  2  0  0  0  0  0  0
  194.4580  175.5830  142.9470 C   0  0  0  0  0  2  0  0  0  0  0  0
  193.8210  171.8660  140.4410 C   0  0  0  0  0  2  0  0  0  0  0  0
  194.4350  174.2980  140.6990 C   0  0  1  0  0  3  0  0  0  0  0  0
  194.9870  172.9930  138.7320 O   0  0  0  0  0  1  0  0  0  0  0  0
  194.3860  174.2360  142.2530 C   0  0  1  0  0  0  0  0  0  0  0  0
  196.4260  172.6950  142.1210 C   0  0  0  0  0  2  0  0  0  0  0  0
  194.8490  172.9520  140.1210 C   0  0  2  0  0  0  0  0  0  0  0  0
  192.2740  175.0290  141.5450 O   0  0  0  0  0  1  0  0  0  0  0  0
  195.0940  173.0490  142.9000 C   0  0  0  0  0  2  0  0  0  0  0  0
  196.1390  172.3010  140.6960 C   0  0  0  0  0  2  0  0  0  0  0  0
  193.2010  173.9660  141.3990 C   0  0  1  0  0  0  0  0  0  0  0  0
  192.6050  172.7320  140.8230 C   0  0  2  0  0  3  0  0  0  0  0  0
  190.2780  172.2620  140.7830 C   0  0  1  0  0  0  0  0  0  0  0  0
  190.7190  171.2310  141.6840 O   0  0  0  0  0  0  0  0  0  0  0  0
  191.4820  172.4040  141.7160 C   0  0  1  0  0  3  0  0  0  0  0  0
  189.6990  170.5980  136.7610 C   0  0  0  0  0  3  0  0  0  0  0  0
  189.9590  169.7100  137.8130 C   0  0  0  0  0  3  0  0  0  0  0  0
  190.2230  171.5970  139.3390 C   0  0  0  0  0  0  0  0  0  0  0  0
  190.1340  170.1890  139.1330 C   0  0  0  0  0  3  0  0  0  0  0  0
  189.7470  171.9490  136.9660 C   0  0  0  0  0  3  0  0  0  0  0  0
  190.4740  173.7980  138.1850 O   0  0  0  0  0  1  0  0  0  0  0  0
  190.1900  172.4580  138.1620 C   0  0  0  0  0  0  0  0  0  0  0  0
  189.0810  173.2090  141.1620 C   0  0  0  0  0  2  0  0  0  0  0  0
  187.8970  172.6450  141.7140 O   0  0  0  0  0  1  0  0  0  0  0  0
  1  6  1  0  0  0  0
  2  3  2  0  0  0  0
  3  7  1  0  0  0  0
  3  5  1  0  0  0  0
  4  1  2  0  0  0  0
  4  2  1  0  0  0  0
  6  7  2  0  0  0  0
  8  2  1  0  0  0  0
  8  9  1  1  0  0  0
 10  8  1  0  0  0  0
 10 11  1  0  0  0  0
 11 13  1  0  0  0  0
 12 10  2  0  0  0  0
 13 14  1  0  0  0  0
 15 14  1  0  0  0  0
 16 15  1  0  0  0  0
 17 16  1  0  0  0  0
 18 21  1  0  0  0  0
 18 23  2  0  0  0  0
 19 18  1  0  0  0  0
 21 22  1  0  0  0  0
 22 20  2  0  0  0  0
 22 17  1  0  0  0  0
 24 25  1  0  0  0  0
 24  8  1  0  0  0  0
 26  1  1  0  0  0  0
 27 26  1  0  0  0  0
 28 38  1  0  0  0  0
 29 37  1  0  0  0  0
 29 31  1  0  0  0  0
 30 33  1  0  0  0  0
 31 35  1  0  0  0  0
 31 27  1  0  0  0  0
 32 35  1  0  0  0  0
 33 28  1  0  0  0  0
 33 36  1  0  0  0  0
 33 29  1  0  0  0  0
 36 32  1  0  0  0  0
 37 34  1  0  0  0  0
 37 31  1  0  0  0  0
 38 37  1  0  0  0  0
 38 41  1  0  0  0  0
 39 49  1  0  0  0  0
 39 40  1  0  0  0  0
 39 41  1  0  0  0  0
 40 41  1  0  0  0  0
 42 46  2  0  0  0  0
 42 43  1  0  0  0  0
 43 45  2  0  0  0  0
 44 39  1  0  0  0  0
 45 44  1  0  0  0  0
 46 48  1  0  0  0  0
 48 47  1  0  0  0  0
 48 44  2  0  0  0  0
 49 50  1  0  0  0  0
M  END
>  <MODEL>
5

>  <REMARK>
 VINA RESULT:      -6.3      3.217      8.051
  Name = 
  15 active torsions:
  status: ('A' for Active; 'I' for Inactive)
    1  A    between atoms: C_1  and  C_34
    2  A    between atoms: C_2  and  C_22
    3  A    between atoms: C_4  and  C_20
    4  A    between atoms: C_4  and  C_29
    5  A    between atoms: C_5  and  C_33
    6  A    between atoms: C_5  and  C_49
    7  A    between atoms: O_6  and  C_22
    8  A    between atoms: C_13  and  C_50
    9  A    between atoms: C_18  and  C_22
   10  A    between atoms: C_21  and  C_37
   11  A    between atoms: C_26  and  N_30
   12  A    between atoms: C_26  and  C_48
   13  A    between atoms: C_34  and  C_37
   14  A    between atoms: N_39  and  C_48
   15  A    between atoms: N_39  and  C_49
                            x       y       z     vdW  Elec       q    Type
                         _______ _______ _______ _____ _____    ______ ____

>  <TORSDO>
F 15

$$$$
=
 OpenBabel11062419183D

 50 55  0  0  1  0  0  0  0  0999 V2000
  193.0090  172.2820  143.6730 C   0  0  0  0  0  0  0  0  0  0  0  0
  193.9150  172.3150  141.3930 C   0  0  0  0  0  0  0  0  0  0  0  0
  194.6310  171.1440  141.6300 C   0  0  0  0  0  0  0  0  0  0  0  0
  193.0940  172.8120  142.3680 C   0  0  0  0  0  3  0  0  0  0  0  0
  194.8500  170.2450  140.5880 N   0  0  0  0  0  1  0  0  0  0  0  0
  193.7350  171.1890  143.9280 C   0  0  0  0  0  3  0  0  0  0  0  0
  194.4820  170.6200  142.9300 N   0  0  0  0  0  0  0  0  0  0  0  0
  193.6190  172.9390  139.9780 C   0  0  1  0  0  0  0  0  0  0  0  0
  192.6790  174.1150  140.2740 C   0  0  0  0  0  1  0  0  0  0  0  0
  194.7310  173.6050  139.0850 C   0  0  0  0  0  0  0  0  0  0  0  0
  195.0620  174.9750  139.1430 N   0  0  0  0  0  2  0  0  0  0  0  0
  195.5500  172.8090  138.5580 O   0  0  0  0  0  0  0  0  0  0  0  0
  196.3010  175.3180  139.8540 C   0  0  0  0  0  2  0  0  0  0  0  0
  196.0000  175.6520  141.3080 C   0  0  0  0  0  2  0  0  0  0  0  0
  196.6670  176.7980  141.9790 N   0  0  0  0  0  2  0  0  0  0  0  0
  196.4240  176.6210  143.3760 C   0  0  0  0  0  2  0  0  0  0  0  0
  195.2850  175.6420  143.5890 C   0  0  0  0  0  2  0  0  0  0  0  0
  196.5810  173.1390  145.1610 C   0  0  0  0  0  0  0  0  0  0  0  0
  196.8090  171.8140  145.9930 C   0  0  0  0  0  1  0  0  0  0  0  0
  194.9440  176.3860  145.7650 O   0  0  0  0  0  0  0  0  0  0  0  0
  196.0740  174.2920  145.7840 N   0  0  0  0  0  2  0  0  0  0  0  0
  195.3170  175.3580  145.1230 C   0  0  0  0  0  0  0  0  0  0  0  0
  196.8180  173.1010  143.9640 O   0  0  0  0  0  0  0  0  0  0  0  0
  192.9380  171.9270  139.2880 O   0  0  0  0  0  0  0  0  0  0  0  0
  191.5770  172.2450  139.1550 C   0  0  0  0  0  1  0  0  0  0  0  0
  192.2880  173.0640  144.7260 C   0  0  0  0  0  2  0  0  0  0  0  0
  191.9740  174.4730  144.2310 C   0  0  0  0  0  2  0  0  0  0  0  0
  187.6390  175.5450  143.4830 C   0  0  0  0  0  2  0  0  0  0  0  0
  190.1030  175.7690  142.9960 C   0  0  1  0  0  3  0  0  0  0  0  0
  188.3770  176.5170  141.4680 O   0  0  0  0  0  1  0  0  0  0  0  0
  190.4880  174.6080  143.9570 C   0  0  1  0  0  0  0  0  0  0  0  0
  189.2840  173.0410  142.3300 C   0  0  0  0  0  2  0  0  0  0  0  0
  188.7210  175.5380  142.4020 C   0  0  2  0  0  0  0  0  0  0  0  0
  190.7310  176.6100  145.1920 O   0  0  0  0  0  1  0  0  0  0  0  0
  189.6540  173.3360  143.8410 C   0  0  0  0  0  2  0  0  0  0  0  0
  188.4570  174.1550  141.7420 C   0  0  0  0  0  2  0  0  0  0  0  0
  189.8150  175.8490  144.4230 C   0  0  1  0  0  0  0  0  0  0  0  0
  188.3950  176.2330  144.6340 C   0  0  2  0  0  3  0  0  0  0  0  0
  187.5400  177.4290  146.5000 C   0  0  1  0  0  0  0  0  0  0  0  0
  186.9490  176.1410  146.7440 O   0  0  0  0  0  0  0  0  0  0  0  0
  188.1830  176.1040  146.0860 C   0  0  1  0  0  3  0  0  0  0  0  0
  184.2790  179.3860  144.3060 C   0  0  0  0  0  3  0  0  0  0  0  0
  185.5640  179.4180  143.7470 C   0  0  0  0  0  3  0  0  0  0  0  0
  186.4460  178.2800  145.7190 C   0  0  0  0  0  0  0  0  0  0  0  0
  186.6480  178.7870  144.4020 C   0  0  0  0  0  3  0  0  0  0  0  0
  184.0770  178.8670  145.5540 C   0  0  0  0  0  3  0  0  0  0  0  0
  184.8730  178.2620  147.6600 O   0  0  0  0  0  1  0  0  0  0  0  0
  185.1440  178.5010  146.3380 C   0  0  0  0  0  0  0  0  0  0  0  0
  188.3350  178.1810  147.6290 C   0  0  0  0  0  2  0  0  0  0  0  0
  189.7500  178.0430  147.6930 O   0  0  0  0  0  1  0  0  0  0  0  0
  1  6  1  0  0  0  0
  1 26  1  0  0  0  0
  2  3  2  0  0  0  0
  2  4  1  0  0  0  0
  3  7  1  0  0  0  0
  4  1  2  0  0  0  0
  5  3  1  0  0  0  0
  7  6  2  0  0  0  0
  8  9  1  1  0  0  0
  8  2  1  0  0  0  0
 10 11  1  0  0  0  0
 10  8  1  0  0  0  0
 11 13  1  0  0  0  0
 12 10  2  0  0  0  0
 13 14  1  0  0  0  0
 14 15  1  0  0  0  0
 15 16  1  0  0  0  0
 16 17  1  0  0  0  0
 17 22  1  0  0  0  0
 18 21  1  0  0  0  0
 18 19  1  0  0  0  0
 22 20  2  0  0  0  0
 22 21  1  0  0  0  0
 23 18  2  0  0  0  0
 24  8  1  0  0  0  0
 25 24  1  0  0  0  0
 27 26  1  0  0  0  0
 28 38  1  0  0  0  0
 29 31  1  0  0  0  0
 29 37  1  0  0  0  0
 30 33  1  0  0  0  0
 31 27  1  0  0  0  0
 31 37  1  0  0  0  0
 32 35  1  0  0  0  0
 33 29  1  0  0  0  0
 33 28  1  0  0  0  0
 35 31  1  0  0  0  0
 36 32  1  0  0  0  0
 36 33  1  0  0  0  0
 37 38  1  0  0  0  0
 37 34  1  0  0  0  0
 38 41  1  0  0  0  0
 39 40  1  0  0  0  0
 39 49  1  0  0  0  0
 41 39  1  0  0  0  0
 41 40  1  0  0  0  0
 42 46  1  0  0  0  0
 43 42  2  0  0  0  0
 43 45  1  0  0  0  0
 44 48  1  0  0  0  0
 44 39  1  0  0  0  0
 45 44  2  0  0  0  0
 46 48  2  0  0  0  0
 48 47  1  0  0  0  0
 49 50  1  0  0  0  0
M  END
>  <MODEL>
6

>  <REMARK>
 VINA RESULT:      -6.3      2.319      5.508
  Name = 
  15 active torsions:
  status: ('A' for Active; 'I' for Inactive)
    1  A    between atoms: C_1  and  C_34
    2  A    between atoms: C_2  and  C_22
    3  A    between atoms: C_4  and  C_20
    4  A    between atoms: C_4  and  C_29
    5  A    between atoms: C_5  and  C_33
    6  A    between atoms: C_5  and  C_49
    7  A    between atoms: O_6  and  C_22
    8  A    between atoms: C_13  and  C_50
    9  A    between atoms: C_18  and  C_22
   10  A    between atoms: C_21  and  C_37
   11  A    between atoms: C_26  and  N_30
   12  A    between atoms: C_26  and  C_48
   13  A    between atoms: C_34  and  C_37
   14  A    between atoms: N_39  and  C_48
   15  A    between atoms: N_39  and  C_49
                            x       y       z     vdW  Elec       q    Type
                         _______ _______ _______ _____ _____    ______ ____

>  <TORSDO>
F 15

$$$$
=
 OpenBabel11062419183D

 50 55  0  0  1  0  0  0  0  0999 V2000
  187.7600  176.1010  146.8800 C   0  0  0  0  0  0  0  0  0  0  0  0
  186.4390  177.0280  145.0320 C   0  0  0  0  0  0  0  0  0  0  0  0
  185.4480  177.4520  145.9140 C   0  0  0  0  0  0  0  0  0  0  0  0
  187.5700  176.4350  145.5220 C   0  0  0  0  0  3  0  0  0  0  0  0
  184.7230  178.6080  145.6360 N   0  0  0  0  0  1  0  0  0  0  0  0
  186.7890  176.4540  147.7290 C   0  0  0  0  0  3  0  0  0  0  0  0
  185.6970  177.1410  147.2660 N   0  0  0  0  0  0  0  0  0  0  0  0
  186.6060  177.5080  143.5410 C   0  0  1  0  0  0  0  0  0  0  0  0
  186.3410  176.2470  142.7080 C   0  0  0  0  0  1  0  0  0  0  0  0
  185.6560  178.5690  142.8700 C   0  0  0  0  0  0  0  0  0  0  0  0
  184.5010  178.2280  142.1360 N   0  0  0  0  0  2  0  0  0  0  0  0
  185.7750  179.7460  143.2960 O   0  0  0  0  0  0  0  0  0  0  0  0
  183.2140  178.4220  142.8170 C   0  0  0  0  0  2  0  0  0  0  0  0
  182.1200  178.7230  141.8040 C   0  0  0  0  0  2  0  0  0  0  0  0
  182.1000  178.0420  140.4830 N   0  0  0  0  0  2  0  0  0  0  0  0
  180.7200  177.9140  140.1360 C   0  0  0  0  0  2  0  0  0  0  0  0
  179.8490  178.5170  141.2230 C   0  0  0  0  0  2  0  0  0  0  0  0
  178.7830  181.1920  139.7670 C   0  0  0  0  0  0  0  0  0  0  0  0
  178.0070  182.5180  139.3910 C   0  0  0  0  0  1  0  0  0  0  0  0
  177.8620  177.6720  140.3620 O   0  0  0  0  0  0  0  0  0  0  0  0
  178.1310  179.9480  139.7200 N   0  0  0  0  0  2  0  0  0  0  0  0
  178.4820  178.7680  140.5130 C   0  0  0  0  0  0  0  0  0  0  0  0
  179.9410  181.3030  140.1370 O   0  0  0  0  0  0  0  0  0  0  0  0
  187.9520  177.8840  143.4470 O   0  0  0  0  0  0  0  0  0  0  0  0
  188.3830  177.8670  142.1110 C   0  0  0  0  0  1  0  0  0  0  0  0
  188.9090  175.2190  147.2540 C   0  0  0  0  0  2  0  0  0  0  0  0
  189.5220  174.5770  146.0130 C   0  0  0  0  0  2  0  0  0  0  0  0
  193.3030  176.3820  144.2950 C   0  0  0  0  0  2  0  0  0  0  0  0
  191.0170  175.3480  144.0440 C   0  0  1  0  0  3  0  0  0  0  0  0
  192.1150  176.5810  142.2700 O   0  0  0  0  0  1  0  0  0  0  0  0
  190.7480  175.3570  145.5760 C   0  0  1  0  0  0  0  0  0  0  0  0
  190.7150  177.9120  145.4180 C   0  0  0  0  0  2  0  0  0  0  0  0
  191.9210  176.5070  143.6510 C   0  0  2  0  0  0  0  0  0  0  0  0
  191.5810  173.2070  145.0530 O   0  0  0  0  0  1  0  0  0  0  0  0
  191.0800  176.6540  146.3080 C   0  0  0  0  0  2  0  0  0  0  0  0
  191.5070  177.9250  144.1370 C   0  0  0  0  0  2  0  0  0  0  0  0
  191.8630  174.5930  144.9590 C   0  0  1  0  0  0  0  0  0  0  0  0
  193.2950  174.8940  144.6930 C   0  0  2  0  0  3  0  0  0  0  0  0
  195.1710  173.4910  145.0790 C   0  0  1  0  0  0  0  0  0  0  0  0
  195.3630  174.4490  146.1340 O   0  0  0  0  0  0  0  0  0  0  0  0
  194.0280  174.2250  145.7810 C   0  0  1  0  0  3  0  0  0  0  0  0
  197.8100  174.4460  141.7020 C   0  0  0  0  0  3  0  0  0  0  0  0
  197.9410  175.1990  142.8770 C   0  0  0  0  0  3  0  0  0  0  0  0
  196.0600  173.9900  143.8580 C   0  0  0  0  0  0  0  0  0  0  0  0
  197.1300  174.9220  144.0030 C   0  0  0  0  0  3  0  0  0  0  0  0
  196.8080  173.5260  141.5760 C   0  0  0  0  0  3  0  0  0  0  0  0
  194.7230  172.6890  142.1970 O   0  0  0  0  0  1  0  0  0  0  0  0
  195.8290  173.4250  142.5330 C   0  0  0  0  0  0  0  0  0  0  0  0
  195.1950  171.9470  145.3750 C   0  0  0  0  0  2  0  0  0  0  0  0
  196.4120  171.3380  145.7900 O   0  0  0  0  0  1  0  0  0  0  0  0
  1 26  1  0  0  0  0
  1  6  1  0  0  0  0
  2  4  1  0  0  0  0
  2  3  2  0  0  0  0
  3  7  1  0  0  0  0
  4  1  2  0  0  0  0
  5  3  1  0  0  0  0
  7  6  2  0  0  0  0
  8  9  1  6  0  0  0
  8  2  1  0  0  0  0
 10 12  2  0  0  0  0
 10  8  1  0  0  0  0
 11 13  1  0  0  0  0
 11 10  1  0  0  0  0
 14 13  1  0  0  0  0
 15 14  1  0  0  0  0
 16 15  1  0  0  0  0
 16 17  1  0  0  0  0
 18 23  2  0  0  0  0
 19 18  1  0  0  0  0
 20 22  2  0  0  0  0
 21 18  1  0  0  0  0
 21 22  1  0  0  0  0
 22 17  1  0  0  0  0
 24  8  1  0  0  0  0
 25 24  1  0  0  0  0
 27 26  1  0  0  0  0
 28 38  1  0  0  0  0
 29 37  1  0  0  0  0
 29 31  1  0  0  0  0
 30 33  1  0  0  0  0
 31 27  1  0  0  0  0
 31 35  1  0  0  0  0
 32 35  1  0  0  0  0
 33 29  1  0  0  0  0
 33 36  1  0  0  0  0
 33 28  1  0  0  0  0
 36 32  1  0  0  0  0
 37 34  1  0  0  0  0
 37 31  1  0  0  0  0
 38 37  1  0  0  0  0
 38 41  1  0  0  0  0
 39 49  1  0  0  0  0
 39 41  1  0  0  0  0
 39 40  1  0  0  0  0
 41 40  1  0  0  0  0
 42 43  1  0  0  0  0
 43 45  2  0  0  0  0
 44 45  1  0  0  0  0
 44 39  1  0  0  0  0
 46 42  2  0  0  0  0
 46 48  1  0  0  0  0
 47 48  1  0  0  0  0
 48 44  2  0  0  0  0
 49 50  1  0  0  0  0
M  END
>  <MODEL>
7

>  <REMARK>
 VINA RESULT:      -6.3      4.650     10.791
  Name = 
  15 active torsions:
  status: ('A' for Active; 'I' for Inactive)
    1  A    between atoms: C_1  and  C_34
    2  A    between atoms: C_2  and  C_22
    3  A    between atoms: C_4  and  C_20
    4  A    between atoms: C_4  and  C_29
    5  A    between atoms: C_5  and  C_33
    6  A    between atoms: C_5  and  C_49
    7  A    between atoms: O_6  and  C_22
    8  A    between atoms: C_13  and  C_50
    9  A    between atoms: C_18  and  C_22
   10  A    between atoms: C_21  and  C_37
   11  A    between atoms: C_26  and  N_30
   12  A    between atoms: C_26  and  C_48
   13  A    between atoms: C_34  and  C_37
   14  A    between atoms: N_39  and  C_48
   15  A    between atoms: N_39  and  C_49
                            x       y       z     vdW  Elec       q    Type
                         _______ _______ _______ _____ _____    ______ ____

>  <TORSDO>
F 15

$$$$
=
 OpenBabel11062419183D

 50 55  0  0  1  0  0  0  0  0999 V2000
  193.7660  172.2060  144.6860 C   0  0  0  0  0  0  0  0  0  0  0  0
  195.9020  173.2640  144.1070 C   0  0  0  0  0  0  0  0  0  0  0  0
  196.5970  172.3770  144.9250 C   0  0  0  0  0  0  0  0  0  0  0  0
  194.5490  173.1270  143.9590 C   0  0  0  0  0  3  0  0  0  0  0  0
  197.8890  171.9850  144.5800 N   0  0  0  0  0  1  0  0  0  0  0  0
  194.4170  171.3840  145.5160 C   0  0  0  0  0  3  0  0  0  0  0  0
  195.7840  171.4420  145.5970 N   0  0  0  0  0  0  0  0  0  0  0  0
  196.5410  174.1830  142.9990 C   0  0  1  0  0  0  0  0  0  0  0  0
  197.7110  174.8750  143.7110 C   0  0  0  0  0  1  0  0  0  0  0  0
  197.2200  173.6130  141.6990 C   0  0  0  0  0  0  0  0  0  0  0  0
  196.8340  172.4040  141.0830 N   0  0  0  0  0  2  0  0  0  0  0  0
  197.8940  174.4410  141.0330 O   0  0  0  0  0  0  0  0  0  0  0  0
  196.0260  172.5230  139.8610 C   0  0  0  0  0  2  0  0  0  0  0  0
  195.5580  171.1500  139.4030 C   0  0  0  0  0  2  0  0  0  0  0  0
  194.1910  170.6650  139.7240 N   0  0  0  0  0  2  0  0  0  0  0  0
  193.5930  171.6940  140.5150 C   0  0  0  0  0  2  0  0  0  0  0  0
  192.0930  171.7240  140.2870 C   0  0  0  0  0  2  0  0  0  0  0  0
  189.3340  173.0830  139.3110 C   0  0  0  0  0  0  0  0  0  0  0  0
  188.1990  173.7990  138.4730 C   0  0  0  0  0  1  0  0  0  0  0  0
  192.7380  173.9540  140.4270 O   0  0  0  0  0  0  0  0  0  0  0  0
  190.4670  173.8000  139.7310 N   0  0  0  0  0  2  0  0  0  0  0  0
  191.7880  173.2280  140.0030 C   0  0  0  0  0  0  0  0  0  0  0  0
  189.2040  171.8900  139.5320 O   0  0  0  0  0  0  0  0  0  0  0  0
  195.5350  175.1090  142.6940 O   0  0  0  0  0  0  0  0  0  0  0  0
  196.0650  176.4050  142.5900 C   0  0  0  0  0  1  0  0  0  0  0  0
  192.2750  172.3280  144.6400 C   0  0  0  0  0  2  0  0  0  0  0  0
  191.8600  173.5390  143.8100 C   0  0  0  0  0  2  0  0  0  0  0  0
  189.3890  176.4060  146.2950 C   0  0  0  0  0  2  0  0  0  0  0  0
  190.0600  174.0800  145.5910 C   0  0  1  0  0  3  0  0  0  0  0  0
  188.8400  174.5460  147.6330 O   0  0  0  0  0  1  0  0  0  0  0  0
  191.2310  174.5910  144.7040 C   0  0  1  0  0  0  0  0  0  0  0  0
  192.3640  175.3490  146.8710 C   0  0  0  0  0  2  0  0  0  0  0  0
  189.8270  175.0190  146.7660 C   0  0  2  0  0  0  0  0  0  0  0  0
  189.3770  174.2990  143.2660 O   0  0  0  0  0  1  0  0  0  0  0  0
  192.1390  175.6450  145.3310 C   0  0  0  0  0  2  0  0  0  0  0  0
  191.0650  175.3890  147.6320 C   0  0  0  0  0  2  0  0  0  0  0  0
  189.8120  174.9490  144.4480 C   0  0  1  0  0  0  0  0  0  0  0  0
  188.9480  176.0890  144.8550 C   0  0  2  0  0  3  0  0  0  0  0  0
  187.4340  177.2570  143.4450 C   0  0  1  0  0  0  0  0  0  0  0  0
  188.4210  178.2830  143.6470 O   0  0  0  0  0  0  0  0  0  0  0  0
  188.9190  176.9760  143.6800 C   0  0  1  0  0  3  0  0  0  0  0  0
  184.5850  178.2630  146.6310 C   0  0  0  0  0  3  0  0  0  0  0  0
  185.0000  176.9300  146.5120 C   0  0  0  0  0  3  0  0  0  0  0  0
  186.2970  177.5130  144.5270 C   0  0  0  0  0  0  0  0  0  0  0  0
  185.9310  176.5530  145.5150 C   0  0  0  0  0  3  0  0  0  0  0  0
  184.9650  179.1940  145.7040 C   0  0  0  0  0  3  0  0  0  0  0  0
  185.7260  179.7500  143.5720 O   0  0  0  0  0  1  0  0  0  0  0  0
  185.6360  178.8130  144.5680 C   0  0  0  0  0  0  0  0  0  0  0  0
  186.9490  176.8740  141.9990 C   0  0  0  0  0  2  0  0  0  0  0  0
  186.7900  177.9000  141.0260 O   0  0  0  0  0  1  0  0  0  0  0  0
  1  6  1  0  0  0  0
  2  3  2  0  0  0  0
  3  7  1  0  0  0  0
  4  2  1  0  0  0  0
  4  1  2  0  0  0  0
  5  3  1  0  0  0  0
  6  7  2  0  0  0  0
  8  9  1  1  0  0  0
  8  2  1  0  0  0  0
 10  8  1  0  0  0  0
 11 10  1  0  0  0  0
 12 10  2  0  0  0  0
 13 11  1  0  0  0  0
 14 15  1  0  0  0  0
 14 13  1  0  0  0  0
 15 16  1  0  0  0  0
 17 16  1  0  0  0  0
 18 23  2  0  0  0  0
 18 21  1  0  0  0  0
 19 18  1  0  0  0  0
 21 22  1  0  0  0  0
 22 17  1  0  0  0  0
 22 20  2  0  0  0  0
 24  8  1  0  0  0  0
 25 24  1  0  0  0  0
 26  1  1  0  0  0  0
 27 26  1  0  0  0  0
 27 31  1  0  0  0  0
 28 33  1  0  0  0  0
 29 33  1  0  0  0  0
 31 35  1  0  0  0  0
 31 29  1  0  0  0  0
 32 36  1  0  0  0  0
 33 36  1  0  0  0  0
 33 30  1  0  0  0  0
 34 37  1  0  0  0  0
 35 32  1  0  0  0  0
 37 31  1  0  0  0  0
 37 38  1  0  0  0  0
 37 29  1  0  0  0  0
 38 28  1  0  0  0  0
 39 40  1  0  0  0  0
 39 41  1  0  0  0  0
 39 44  1  0  0  0  0
 40 41  1  0  0  0  0
 41 38  1  0  0  0  0
 43 42  1  0  0  0  0
 44 48  2  0  0  0  0
 44 45  1  0  0  0  0
 45 43  2  0  0  0  0
 46 42  2  0  0  0  0
 47 48  1  0  0  0  0
 48 46  1  0  0  0  0
 49 39  1  0  0  0  0
 50 49  1  0  0  0  0
M  END
>  <MODEL>
8

>  <REMARK>
 VINA RESULT:      -6.2      1.893      2.941
  Name = 
  15 active torsions:
  status: ('A' for Active; 'I' for Inactive)
    1  A    between atoms: C_1  and  C_34
    2  A    between atoms: C_2  and  C_22
    3  A    between atoms: C_4  and  C_20
    4  A    between atoms: C_4  and  C_29
    5  A    between atoms: C_5  and  C_33
    6  A    between atoms: C_5  and  C_49
    7  A    between atoms: O_6  and  C_22
    8  A    between atoms: C_13  and  C_50
    9  A    between atoms: C_18  and  C_22
   10  A    between atoms: C_21  and  C_37
   11  A    between atoms: C_26  and  N_30
   12  A    between atoms: C_26  and  C_48
   13  A    between atoms: C_34  and  C_37
   14  A    between atoms: N_39  and  C_48
   15  A    between atoms: N_39  and  C_49
                            x       y       z     vdW  Elec       q    Type
                         _______ _______ _______ _____ _____    ______ ____

>  <TORSDO>
F 15

$$$$
=
 OpenBabel11062419183D

 50 55  0  0  1  0  0  0  0  0999 V2000
  193.9880  173.2640  142.7570 C   0  0  0  0  0  0  0  0  0  0  0  0
  195.4360  173.2460  140.7760 C   0  0  0  0  0  0  0  0  0  0  0  0
  195.6080  171.8670  140.8780 C   0  0  0  0  0  0  0  0  0  0  0  0
  194.6060  173.8890  141.6520 C   0  0  0  0  0  3  0  0  0  0  0  0
  195.7780  171.1040  139.7250 N   0  0  0  0  0  1  0  0  0  0  0  0
  194.1910  171.9500  142.8960 C   0  0  0  0  0  3  0  0  0  0  0  0
  194.9370  171.2740  141.9670 N   0  0  0  0  0  0  0  0  0  0  0  0
  195.7750  174.1210  139.5110 C   0  0  1  0  0  0  0  0  0  0  0  0
  197.0510  173.4860  138.9450 C   0  0  0  0  0  1  0  0  0  0  0  0
  194.8410  174.2000  138.2470 C   0  0  0  0  0  0  0  0  0  0  0  0
  193.7750  173.3070  138.0080 N   0  0  0  0  0  2  0  0  0  0  0  0
  194.8630  175.2940  137.6260 O   0  0  0  0  0  0  0  0  0  0  0  0
  192.4230  173.8190  138.2710 C   0  0  0  0  0  2  0  0  0  0  0  0
  191.6050  173.8320  136.9880 C   0  0  0  0  0  2  0  0  0  0  0  0
  190.3920  172.9840  136.8520 N   0  0  0  0  0  2  0  0  0  0  0  0
  189.3170  173.7620  137.3820 C   0  0  0  0  0  2  0  0  0  0  0  0
  188.4690  172.9150  138.3130 C   0  0  0  0  0  2  0  0  0  0  0  0
  190.4520  171.4330  140.3830 C   0  0  0  0  0  0  0  0  0  0  0  0
  191.0620  170.6400  141.6080 C   0  0  0  0  0  1  0  0  0  0  0  0
  188.5650  174.5690  139.9440 O   0  0  0  0  0  0  0  0  0  0  0  0
  189.9530  172.7350  140.5550 N   0  0  0  0  0  2  0  0  0  0  0  0
  188.9140  173.3670  139.7390 C   0  0  0  0  0  0  0  0  0  0  0  0
  190.3930  170.8540  139.3100 O   0  0  0  0  0  0  0  0  0  0  0  0
  196.0490  175.3920  140.0330 O   0  0  0  0  0  0  0  0  0  0  0  0
  197.4300  175.6450  140.0290 C   0  0  0  0  0  1  0  0  0  0  0  0
  193.3240  174.1160  143.7920 C   0  0  0  0  0  2  0  0  0  0  0  0
  191.8680  173.6980  143.9810 C   0  0  0  0  0  2  0  0  0  0  0  0
  189.1100  176.4720  146.2610 C   0  0  0  0  0  2  0  0  0  0  0  0
  189.9690  174.1740  145.6750 C   0  0  1  0  0  3  0  0  0  0  0  0
  188.6420  174.6280  147.6520 O   0  0  0  0  0  1  0  0  0  0  0  0
  191.1340  174.7350  144.8100 C   0  0  1  0  0  0  0  0  0  0  0  0
  192.1280  175.6520  146.9830 C   0  0  0  0  0  2  0  0  0  0  0  0
  189.6260  175.1370  146.8020 C   0  0  2  0  0  0  0  0  0  0  0  0
  189.3610  174.2570  143.3200 O   0  0  0  0  0  1  0  0  0  0  0  0
  191.9410  175.8730  145.4260 C   0  0  0  0  0  2  0  0  0  0  0  0
  190.8010  175.6270  147.6960 C   0  0  0  0  0  2  0  0  0  0  0  0
  189.7030  174.9800  144.4900 C   0  0  1  0  0  0  0  0  0  0  0  0
  188.7470  176.0690  144.8200 C   0  0  2  0  0  3  0  0  0  0  0  0
  187.2160  177.2200  143.4150 C   0  0  1  0  0  0  0  0  0  0  0  0
  188.2360  178.2260  143.5390 O   0  0  0  0  0  0  0  0  0  0  0  0
  188.7000  176.9080  143.6100 C   0  0  1  0  0  3  0  0  0  0  0  0
  184.5230  178.4080  146.6730 C   0  0  0  0  0  3  0  0  0  0  0  0
  184.8180  177.0460  146.5220 C   0  0  0  0  0  3  0  0  0  0  0  0
  186.1250  177.5540  144.5230 C   0  0  0  0  0  0  0  0  0  0  0  0
  185.6940  176.6090  145.5000 C   0  0  0  0  0  3  0  0  0  0  0  0
  184.9670  179.3200  145.7570 C   0  0  0  0  0  3  0  0  0  0  0  0
  185.7360  179.8510  143.6220 O   0  0  0  0  0  1  0  0  0  0  0  0
  185.5820  178.9050  144.6020 C   0  0  0  0  0  0  0  0  0  0  0  0
  186.6700  176.7930  142.0040 C   0  0  0  0  0  2  0  0  0  0  0  0
  186.8300  177.6760  140.9000 O   0  0  0  0  0  1  0  0  0  0  0  0
  1  6  1  0  0  0  0
  1 26  1  0  0  0  0
  2  3  2  0  0  0  0
  2  4  1  0  0  0  0
  3  7  1  0  0  0  0
  4  1  2  0  0  0  0
  5  3  1  0  0  0  0
  7  6  2  0  0  0  0
  8  9  1  6  0  0  0
  8 24  1  0  0  0  0
  8  2  1  0  0  0  0
 10  8  1  0  0  0  0
 11 10  1  0  0  0  0
 11 13  1  0  0  0  0
 12 10  2  0  0  0  0
 14 13  1  0  0  0  0
 15 14  1  0  0  0  0
 15 16  1  0  0  0  0
 16 17  1  0  0  0  0
 17 22  1  0  0  0  0
 18 21  1  0  0  0  0
 18 19  1  0  0  0  0
 22 20  2  0  0  0  0
 22 21  1  0  0  0  0
 23 18  2  0  0  0  0
 25 24  1  0  0  0  0
 26 27  1  0  0  0  0
 27 31  1  0  0  0  0
 28 33  1  0  0  0  0
 29 33  1  0  0  0  0
 31 35  1  0  0  0  0
 31 29  1  0  0  0  0
 32 36  1  0  0  0  0
 33 30  1  0  0  0  0
 33 36  1  0  0  0  0
 34 37  1  0  0  0  0
 35 32  1  0  0  0  0
 37 31  1  0  0  0  0
 37 38  1  0  0  0  0
 37 29  1  0  0  0  0
 38 28  1  0  0  0  0
 39 40  1  0  0  0  0
 39 41  1  0  0  0  0
 39 44  1  0  0  0  0
 40 41  1  0  0  0  0
 41 38  1  0  0  0  0
 43 42  1  0  0  0  0
 44 48  2  0  0  0  0
 44 45  1  0  0  0  0
 45 43  2  0  0  0  0
 46 42  2  0  0  0  0
 47 48  1  0  0  0  0
 48 46  1  0  0  0  0
 49 39  1  0  0  0  0
 50 49  1  0  0  0  0
M  END
>  <MODEL>
9

>  <REMARK>
 VINA RESULT:      -6.2      2.195      3.983
  Name = 
  15 active torsions:
  status: ('A' for Active; 'I' for Inactive)
    1  A    between atoms: C_1  and  C_34
    2  A    between atoms: C_2  and  C_22
    3  A    between atoms: C_4  and  C_20
    4  A    between atoms: C_4  and  C_29
    5  A    between atoms: C_5  and  C_33
    6  A    between atoms: C_5  and  C_49
    7  A    between atoms: O_6  and  C_22
    8  A    between atoms: C_13  and  C_50
    9  A    between atoms: C_18  and  C_22
   10  A    between atoms: C_21  and  C_37
   11  A    between atoms: C_26  and  N_30
   12  A    between atoms: C_26  and  C_48
   13  A    between atoms: C_34  and  C_37
   14  A    between atoms: N_39  and  C_48
   15  A    between atoms: N_39  and  C_49
                            x       y       z     vdW  Elec       q    Type
                         _______ _______ _______ _____ _____    ______ ____

>  <TORSDO>
F 15

$$$$
