=
 OpenBabel11062423073D

 57 64  0  0  1  0  0  0  0  0999 V2000
  194.3420  174.6000  143.7820 C   0  0  2  0  0  3  0  0  0  0  0  0
  197.3070  173.6980  146.5620 O   0  0  0  0  0  0  0  0  0  0  0  0
  195.3490  172.8480  142.2150 C   0  0  2  0  0  0  0  0  0  0  0  0
  195.1370  175.7610  143.1790 C   0  0  0  0  0  2  0  0  0  0  0  0
  197.3850  172.4870  144.1390 O   0  0  0  0  0  1  0  0  0  0  0  0
  194.8110  174.8020  140.7910 C   0  0  1  0  0  3  0  0  0  0  0  0
  196.3650  173.9320  145.7590 C   0  0  0  0  0  0  0  0  0  0  0  0
  194.0570  174.8290  145.2690 C   0  0  1  0  0  3  0  0  0  0  0  0
  195.9060  173.8020  141.1660 C   0  0  0  0  0  2  0  0  0  0  0  0
  195.1190  173.2780  143.6680 C   0  0  1  0  0  3  0  0  0  0  0  0
  196.3540  173.3010  144.4670 N   0  0  0  0  0  0  0  0  0  0  0  0
  195.3150  174.9290  146.1510 C   0  0  0  0  0  2  0  0  0  0  0  0
  195.7930  171.5260  142.0660 O   0  0  0  0  0  0  0  0  0  0  0  0
  194.7820  176.0280  141.7140 C   0  0  0  0  0  2  0  0  0  0  0  0
  194.4530  171.7920  141.7170 C   0  0  0  0  0  2  0  0  0  0  0  0
  194.9060  175.2560  139.3330 C   0  0  1  0  0  3  0  0  0  0  0  0
  196.1860  175.0490  138.8110 O   0  0  0  0  0  1  0  0  0  0  0  0
  193.8670  174.5330  138.4760 C   0  0  0  0  0  2  0  0  0  0  0  0
  193.0940  173.6060  139.2420 O   0  0  0  0  0  0  0  0  0  0  0  0
  191.9790  171.7240  138.0630 C   0  0  0  0  0  0  0  0  0  0  0  0
  190.7180  173.5790  139.0160 C   0  0  0  0  0  3  0  0  0  0  0  0
  191.9440  172.9550  138.7720 C   0  0  0  0  0  0  0  0  0  0  0  0
  190.7640  171.1920  137.5590 C   0  0  0  0  0  0  0  0  0  0  0  0
  189.5550  171.8510  137.8020 C   0  0  0  0  0  3  0  0  0  0  0  0
  190.7040  169.9040  136.8070 C   0  0  0  0  0  1  0  0  0  0  0  0
  189.5260  173.0310  138.5420 C   0  0  0  0  0  0  0  0  0  0  0  0
  194.0870  171.1930  136.8420 O   0  0  0  0  0  0  0  0  0  0  0  0
  193.2420  170.9650  137.9220 C   0  0  0  0  0  0  0  0  0  0  0  0
  193.5540  170.0910  138.7730 O   0  0  0  0  0  1  0  0  0  0  0  0
  188.2350  173.7350  138.7840 C   0  0  0  0  0  2  0  0  0  0  0  0
  188.3320  174.5840  140.0410 C   0  0  0  0  0  1  0  0  0  0  0  0
  193.0570  175.7960  145.5270 O   0  0  0  0  0  0  0  0  0  0  0  0
  191.7850  175.2630  145.2400 C   0  0  2  0  0  3  0  0  0  0  0  0
  191.0860  176.1210  144.1740 C   0  0  1  0  0  3  0  0  0  0  0  0
  191.8860  177.1680  143.7430 F   0  0  0  0  0  0  0  0  0  0  0  0
  191.4990  175.1460  142.0340 O   0  0  0  0  0  1  0  0  0  0  0  0
  190.5130  175.3170  143.0060 C   0  0  1  0  0  3  0  0  0  0  0  0
  189.9890  173.9590  143.4540 C   0  0  0  0  0  2  0  0  0  0  0  0
  190.1840  171.0320  141.1340 F   0  0  0  0  0  0  0  0  0  0  0  0
  190.4670  171.6150  143.3470 O   0  0  0  0  0  0  0  0  0  0  0  0
  190.7020  172.8490  142.7000 C   0  0  1  0  0  3  0  0  0  0  0  0
  189.7500  171.8490  142.1610 C   0  0  0  0  0  0  0  0  0  0  0  0
  188.3960  171.9770  142.3980 F   0  0  0  0  0  0  0  0  0  0  0  0
  190.9700  175.1490  146.5240 C   0  0  0  0  0  2  0  0  0  0  0  0
  190.2700  176.4630  146.8260 C   0  0  0  0  0  2  0  0  0  0  0  0
  188.8320  176.2540  146.8630 N   0  0  0  0  0  2  0  0  0  0  0  0
  188.1900  177.5260  146.5630 C   0  0  0  0  0  2  0  0  0  0  0  0
  185.9590  176.6500  146.3420 O   0  0  0  0  0  0  0  0  0  0  0  0
  187.1990  176.7840  144.2120 C   0  0  2  0  0  3  0  0  0  0  0  0
  187.1530  178.5270  142.3960 N   0  0  0  0  0  2  0  0  0  0  0  0
  185.7210  178.0120  146.0360 C   0  0  2  0  0  3  0  0  0  0  0  0
  185.9110  178.9900  143.0250 C   0  0  0  0  0  2  0  0  0  0  0  0
  185.8610  176.5010  143.5260 C   0  0  0  0  0  2  0  0  0  0  0  0
  184.6080  178.0850  144.9660 C   0  0  0  0  0  2  0  0  0  0  0  0
  186.9880  177.3130  145.6510 C   0  0  2  0  0  0  0  0  0  0  0  0
  187.9860  177.8260  143.3860 C   0  0  0  0  0  2  0  0  0  0  0  0
  185.0660  177.8070  143.5320 C   0  0  1  0  0  3  0  0  0  0  0  0
  1  4  1  1  0  0  0
  1  8  1  0  0  0  0
  3  9  1  6  0  0  0
  3 10  1  0  0  0  0
  5 11  1  0  0  0  0
  6 16  1  6  0  0  0
  6  9  1  0  0  0  0
  6 14  1  0  0  0  0
  7 12  1  0  0  0  0
  7  2  2  0  0  0  0
  8 32  1  6  0  0  0
  8 12  1  0  0  0  0
 10  1  1  0  0  0  0
 10 11  1  6  0  0  0
 11  7  1  0  0  0  0
 13  3  1  0  0  0  0
 14  4  1  0  0  0  0
 15 13  1  0  0  0  0
 15  3  1  0  0  0  0
 16 17  1  6  0  0  0
 18 19  1  0  0  0  0
 18 16  1  0  0  0  0
 20 22  1  0  0  0  0
 22 21  2  0  0  0  0
 22 19  1  0  0  0  0
 23 24  1  0  0  0  0
 23 20  2  0  0  0  0
 24 26  2  0  0  0  0
 25 23  1  0  0  0  0
 26 30  1  0  0  0  0
 26 21  1  0  0  0  0
 27 28  2  0  0  0  0
 28 20  1  0  0  0  0
 28 29  1  0  0  0  0
 30 31  1  0  0  0  0
 33 32  1  0  0  0  0
 33 44  1  1  0  0  0
 34 35  1  6  0  0  0
 34 33  1  0  0  0  0
 37 36  1  6  0  0  0
 37 38  1  0  0  0  0
 37 34  1  0  0  0  0
 39 42  1  0  0  0  0
 41 40  1  0  0  0  0
 41 38  1  1  0  0  0
 42 43  1  0  0  0  0
 42 41  1  0  0  0  0
 42 40  1  0  0  0  0
 44 45  1  0  0  0  0
 45 46  1  0  0  0  0
 47 46  1  0  0  0  0
 49 56  1  6  0  0  0
 49 55  1  0  0  0  0
 50 52  1  0  0  0  0
 50 56  1  0  0  0  0
 51 54  1  6  0  0  0
 51 48  1  0  0  0  0
 53 57  1  0  0  0  0
 53 49  1  0  0  0  0
 55 51  1  0  0  0  0
 55 48  1  0  0  0  0
 55 47  1  1  0  0  0
 57 52  1  1  0  0  0
 57 54  1  0  0  0  0
M  END
>  <MODEL>
1

>  <REMARK>
 VINA RESULT:      -6.8      0.000      0.000
  Name = 
  17 active torsions:
  status: ('A' for Active; 'I' for Inactive)
    1  A    between atoms: C_3  and  C_50
    2  A    between atoms: C_4  and  N_28
    3  A    between atoms: C_4  and  C_38
    4  A    between atoms: C_8  and  C_51
    5  A    between atoms: C_9  and  C_11
    6  A    between atoms: C_9  and  C_26
    7  A    between atoms: C_9  and  O_54
    8  A    between atoms: C_11  and  C_40
    9  A    between atoms: C_15  and  C_23
   10  A    between atoms: C_19  and  C_33
   11  A    between atoms: C_21  and  O_53
   12  A    between atoms: C_23  and  C_29
   13  A    between atoms: C_26  and  C_49
   14  A    between atoms: C_27  and  O_54
   15  A    between atoms: N_28  and  C_49
   16  A    between atoms: C_29  and  O_53
   17  A    between atoms: C_33  and  C_40
                            x       y       z     vdW  Elec       q    Type
                         _______ _______ _______ _____ _____    ______ ____

>  <TORSDO>
F 17

$$$$
=
 OpenBabel11062423073D

 57 64  0  0  1  0  0  0  0  0999 V2000
  192.0920  173.3650  139.7290 C   0  0  2  0  0  3  0  0  0  0  0  0
  189.6810  170.9560  137.3380 O   0  0  0  0  0  0  0  0  0  0  0  0
  193.4180  174.0220  137.6440 C   0  0  2  0  0  0  0  0  0  0  0  0
  193.0290  172.2120  140.0990 C   0  0  0  0  0  2  0  0  0  0  0  0
  191.7990  172.2110  136.2030 O   0  0  0  0  0  1  0  0  0  0  0  0
  195.0990  173.6180  139.4150 C   0  0  1  0  0  3  0  0  0  0  0  0
  190.3600  171.7330  138.0610 C   0  0  0  0  0  0  0  0  0  0  0  0
  190.6540  173.0830  140.1740 C   0  0  1  0  0  3  0  0  0  0  0  0
  194.7070  173.2850  137.9750 C   0  0  0  0  0  2  0  0  0  0  0  0
  192.0600  173.5870  138.2080 C   0  0  1  0  0  3  0  0  0  0  0  0
  191.4830  172.4340  137.5010 N   0  0  0  0  0  0  0  0  0  0  0  0
  190.0160  171.8460  139.5170 C   0  0  0  0  0  2  0  0  0  0  0  0
  193.3680  174.5080  136.3280 O   0  0  0  0  0  0  0  0  0  0  0  0
  194.4450  172.6830  140.4420 C   0  0  0  0  0  2  0  0  0  0  0  0
  193.5510  175.4590  137.3530 C   0  0  0  0  0  2  0  0  0  0  0  0
  196.6150  173.6310  139.6230 C   0  0  1  0  0  3  0  0  0  0  0  0
  197.1050  174.9330  139.7600 O   0  0  0  0  0  1  0  0  0  0  0  0
  196.9970  172.7960  140.8460 C   0  0  0  0  0  2  0  0  0  0  0  0
  197.3260  173.6150  141.9700 O   0  0  0  0  0  0  0  0  0  0  0  0
  196.0830  174.8520  143.7300 C   0  0  0  0  0  0  0  0  0  0  0  0
  196.3790  172.4350  143.8160 C   0  0  0  0  0  3  0  0  0  0  0  0
  196.5920  173.6520  143.1640 C   0  0  0  0  0  0  0  0  0  0  0  0
  195.4260  174.7890  144.9870 C   0  0  0  0  0  0  0  0  0  0  0  0
  195.2460  173.5580  145.6230 C   0  0  0  0  0  3  0  0  0  0  0  0
  194.8570  175.9960  145.6550 C   0  0  0  0  0  1  0  0  0  0  0  0
  195.7030  172.3810  145.0350 C   0  0  0  0  0  0  0  0  0  0  0  0
  197.2270  177.0010  143.1930 O   0  0  0  0  0  1  0  0  0  0  0  0
  196.1610  176.1330  142.9910 C   0  0  0  0  0  0  0  0  0  0  0  0
  195.2490  176.4540  142.1840 O   0  0  0  0  0  0  0  0  0  0  0  0
  195.5210  171.0740  145.7280 C   0  0  0  0  0  2  0  0  0  0  0  0
  196.8720  170.5090  146.1370 C   0  0  0  0  0  1  0  0  0  0  0  0
  190.4410  173.2080  141.5670 O   0  0  0  0  0  0  0  0  0  0  0  0
  190.3320  174.5670  141.9180 C   0  0  2  0  0  3  0  0  0  0  0  0
  191.4030  174.9270  142.9600 C   0  0  1  0  0  3  0  0  0  0  0  0
  191.7990  176.2520  142.8610 F   0  0  0  0  0  0  0  0  0  0  0  0
  191.7520  173.4100  144.7690 O   0  0  0  0  0  1  0  0  0  0  0  0
  191.0320  174.5440  144.3920 C   0  0  1  0  0  3  0  0  0  0  0  0
  191.3030  175.6760  145.3740 C   0  0  0  0  0  2  0  0  0  0  0  0
  189.1870  177.9540  147.4510 F   0  0  0  0  0  0  0  0  0  0  0  0
  189.6030  175.7210  147.0600 O   0  0  0  0  0  0  0  0  0  0  0  0
  189.9940  176.2980  145.8310 C   0  0  1  0  0  3  0  0  0  0  0  0
  190.1450  177.0160  147.1190 C   0  0  0  0  0  0  0  0  0  0  0  0
  191.3630  177.0320  147.7690 F   0  0  0  0  0  0  0  0  0  0  0  0
  188.9190  174.8630  142.4090 C   0  0  0  0  0  2  0  0  0  0  0  0
  188.0970  175.5050  141.3050 C   0  0  0  0  0  2  0  0  0  0  0  0
  187.4810  176.7260  141.8010 N   0  0  0  0  0  2  0  0  0  0  0  0
  186.3840  176.3440  142.6790 C   0  0  0  0  0  2  0  0  0  0  0  0
  185.6680  178.6410  142.6270 O   0  0  0  0  0  0  0  0  0  0  0  0
  186.6170  177.9360  144.7930 C   0  0  2  0  0  3  0  0  0  0  0  0
  185.4830  177.1860  146.9120 N   0  0  0  0  0  2  0  0  0  0  0  0
  184.5150  178.0360  143.1840 C   0  0  2  0  0  3  0  0  0  0  0  0
  184.2650  177.7620  146.3330 C   0  0  0  0  0  2  0  0  0  0  0  0
  186.0720  179.2520  145.3510 C   0  0  0  0  0  2  0  0  0  0  0  0
  183.8880  179.0200  144.1980 C   0  0  0  0  0  2  0  0  0  0  0  0
  185.8990  177.5470  143.4780 C   0  0  2  0  0  0  0  0  0  0  0  0
  186.4230  176.8180  145.8410 C   0  0  0  0  0  2  0  0  0  0  0  0
  184.5690  179.0630  145.5670 C   0  0  1  0  0  3  0  0  0  0  0  0
  1  4  1  6  0  0  0
  1  8  1  0  0  0  0
  2  7  2  0  0  0  0
  3 15  1  1  0  0  0
  3  9  1  0  0  0  0
  3 10  1  0  0  0  0
  4 14  1  0  0  0  0
  5 11  1  0  0  0  0
  6 16  1  6  0  0  0
  6 14  1  0  0  0  0
  7 12  1  0  0  0  0
  8 32  1  1  0  0  0
  9  6  1  0  0  0  0
 10 11  1  6  0  0  0
 10  1  1  0  0  0  0
 11  7  1  0  0  0  0
 12  8  1  0  0  0  0
 13 15  1  0  0  0  0
 13  3  1  0  0  0  0
 16 17  1  1  0  0  0
 16 18  1  0  0  0  0
 18 19  1  0  0  0  0
 19 22  1  0  0  0  0
 20 23  1  0  0  0  0
 21 26  2  0  0  0  0
 22 20  2  0  0  0  0
 22 21  1  0  0  0  0
 23 24  2  0  0  0  0
 23 25  1  0  0  0  0
 26 24  1  0  0  0  0
 26 30  1  0  0  0  0
 28 27  1  0  0  0  0
 28 20  1  0  0  0  0
 29 28  2  0  0  0  0
 30 31  1  0  0  0  0
 32 33  1  0  0  0  0
 33 44  1  1  0  0  0
 33 34  1  0  0  0  0
 34 35  1  1  0  0  0
 34 37  1  0  0  0  0
 37 36  1  1  0  0  0
 37 38  1  0  0  0  0
 40 42  1  0  0  0  0
 41 38  1  1  0  0  0
 41 40  1  0  0  0  0
 41 42  1  0  0  0  0
 42 39  1  0  0  0  0
 42 43  1  0  0  0  0
 45 46  1  0  0  0  0
 45 44  1  0  0  0  0
 46 47  1  0  0  0  0
 48 51  1  0  0  0  0
 48 55  1  0  0  0  0
 49 53  1  1  0  0  0
 49 56  1  0  0  0  0
 51 55  1  0  0  0  0
 51 54  1  1  0  0  0
 52 50  1  0  0  0  0
 53 57  1  0  0  0  0
 55 47  1  6  0  0  0
 55 49  1  0  0  0  0
 56 50  1  0  0  0  0
 57 54  1  6  0  0  0
 57 52  1  0  0  0  0
M  END
>  <MODEL>
2

>  <REMARK>
 VINA RESULT:      -6.8      2.469      6.409
  Name = 
  17 active torsions:
  status: ('A' for Active; 'I' for Inactive)
    1  A    between atoms: C_3  and  C_50
    2  A    between atoms: C_4  and  N_28
    3  A    between atoms: C_4  and  C_38
    4  A    between atoms: C_8  and  C_51
    5  A    between atoms: C_9  and  C_11
    6  A    between atoms: C_9  and  C_26
    7  A    between atoms: C_9  and  O_54
    8  A    between atoms: C_11  and  C_40
    9  A    between atoms: C_15  and  C_23
   10  A    between atoms: C_19  and  C_33
   11  A    between atoms: C_21  and  O_53
   12  A    between atoms: C_23  and  C_29
   13  A    between atoms: C_26  and  C_49
   14  A    between atoms: C_27  and  O_54
   15  A    between atoms: N_28  and  C_49
   16  A    between atoms: C_29  and  O_53
   17  A    between atoms: C_33  and  C_40
                            x       y       z     vdW  Elec       q    Type
                         _______ _______ _______ _____ _____    ______ ____

>  <TORSDO>
F 17

$$$$
=
 OpenBabel11062423073D

 57 64  0  0  1  0  0  0  0  0999 V2000
  194.3410  174.4390  143.7580 C   0  0  2  0  0  3  0  0  0  0  0  0
  197.2860  173.6360  146.5880 O   0  0  0  0  0  0  0  0  0  0  0  0
  195.1450  172.4130  142.4200 C   0  0  2  0  0  0  0  0  0  0  0  0
  195.2210  175.4330  142.9950 C   0  0  0  0  0  2  0  0  0  0  0  0
  197.1910  172.1180  144.3450 O   0  0  0  0  0  1  0  0  0  0  0  0
  194.7460  174.2060  140.7600 C   0  0  1  0  0  3  0  0  0  0  0  0
  196.3490  173.8490  145.7750 C   0  0  0  0  0  0  0  0  0  0  0  0
  194.1180  174.8840  145.2050 C   0  0  1  0  0  3  0  0  0  0  0  0
  195.7560  173.1670  141.2470 C   0  0  0  0  0  2  0  0  0  0  0  0
  194.9930  173.0480  143.8080 C   0  0  1  0  0  3  0  0  0  0  0  0
  196.2460  173.0600  144.5780 N   0  0  0  0  0  0  0  0  0  0  0  0
  195.4030  174.9820  146.0470 C   0  0  0  0  0  2  0  0  0  0  0  0
  195.4640  171.0470  142.4410 O   0  0  0  0  0  0  0  0  0  0  0  0
  194.8520  175.5390  141.5130 C   0  0  0  0  0  2  0  0  0  0  0  0
  194.1450  171.3890  142.0790 C   0  0  0  0  0  2  0  0  0  0  0  0
  194.8420  174.4570  139.2530 C   0  0  1  0  0  3  0  0  0  0  0  0
  196.0310  175.1100  138.9150 O   0  0  0  0  0  1  0  0  0  0  0  0
  194.7290  173.1420  138.4810 C   0  0  0  0  0  2  0  0  0  0  0  0
  193.5990  173.1320  137.6070 O   0  0  0  0  0  0  0  0  0  0  0  0
  191.1980  173.7230  137.3510 C   0  0  0  0  0  0  0  0  0  0  0  0
  192.0030  172.3680  139.2100 C   0  0  0  0  0  3  0  0  0  0  0  0
  192.2650  173.0810  138.0370 C   0  0  0  0  0  0  0  0  0  0  0  0
  189.8980  173.6790  137.9180 C   0  0  0  0  0  0  0  0  0  0  0  0
  189.6720  172.9740  139.1040 C   0  0  0  0  0  3  0  0  0  0  0  0
  188.7180  174.3200  137.2670 C   0  0  0  0  0  1  0  0  0  0  0  0
  190.7150  172.3050  139.7410 C   0  0  0  0  0  0  0  0  0  0  0  0
  191.6790  175.7160  135.9340 O   0  0  0  0  0  1  0  0  0  0  0  0
  191.4170  174.3550  136.0300 C   0  0  0  0  0  0  0  0  0  0  0  0
  191.3500  173.6650  134.9790 O   0  0  0  0  0  0  0  0  0  0  0  0
  190.4690  171.5700  141.0140 C   0  0  0  0  0  2  0  0  0  0  0  0
  189.3440  172.2360  141.7900 C   0  0  0  0  0  1  0  0  0  0  0  0
  193.2160  175.9650  145.3480 O   0  0  0  0  0  0  0  0  0  0  0  0
  191.9130  175.5540  145.0100 C   0  0  2  0  0  3  0  0  0  0  0  0
  191.2390  176.6190  144.1300 C   0  0  1  0  0  3  0  0  0  0  0  0
  192.0350  177.7420  143.9730 F   0  0  0  0  0  0  0  0  0  0  0  0
  191.4520  174.9490  142.4370 O   0  0  0  0  0  1  0  0  0  0  0  0
  190.7250  176.0860  142.7920 C   0  0  1  0  0  3  0  0  0  0  0  0
  189.2400  175.7520  142.8440 C   0  0  0  0  0  2  0  0  0  0  0  0
  186.1910  177.0410  141.1050 F   0  0  0  0  0  0  0  0  0  0  0  0
  187.9580  175.5870  140.8280 O   0  0  0  0  0  0  0  0  0  0  0  0
  188.4950  176.5080  141.7560 C   0  0  1  0  0  3  0  0  0  0  0  0
  187.0540  176.1650  141.7350 C   0  0  0  0  0  0  0  0  0  0  0  0
  186.5470  175.2310  142.6160 F   0  0  0  0  0  0  0  0  0  0  0  0
  191.1180  175.2560  146.2770 C   0  0  0  0  0  2  0  0  0  0  0  0
  190.4330  176.5150  146.7810 C   0  0  0  0  0  2  0  0  0  0  0  0
  189.0000  176.2860  146.8780 N   0  0  0  0  0  2  0  0  0  0  0  0
  188.3690  177.5560  147.2080 C   0  0  0  0  0  2  0  0  0  0  0  0
  186.1330  176.8410  147.7410 O   0  0  0  0  0  0  0  0  0  0  0  0
  186.5180  177.2220  145.3320 C   0  0  2  0  0  3  0  0  0  0  0  0
  185.9940  179.2130  143.8840 N   0  0  0  0  0  2  0  0  0  0  0  0
  185.9430  178.2440  147.7080 C   0  0  2  0  0  3  0  0  0  0  0  0
  185.1220  179.6430  144.9830 C   0  0  0  0  0  2  0  0  0  0  0  0
  185.0000  177.1130  145.1710 C   0  0  0  0  0  2  0  0  0  0  0  0
  184.5300  178.5320  147.1510 C   0  0  0  0  0  2  0  0  0  0  0  0
  186.9020  177.5430  146.7970 C   0  0  2  0  0  0  0  0  0  0  0  0
  187.0530  178.3300  144.4000 C   0  0  0  0  0  2  0  0  0  0  0  0
  184.4020  178.4450  145.6280 C   0  0  1  0  0  3  0  0  0  0  0  0
  1  4  1  1  0  0  0
  1 10  1  0  0  0  0
  1  8  1  0  0  0  0
  3  9  1  6  0  0  0
  3 13  1  0  0  0  0
  3 10  1  0  0  0  0
  5 11  1  0  0  0  0
  6 16  1  6  0  0  0
  6  9  1  0  0  0  0
  6 14  1  0  0  0  0
  7 12  1  0  0  0  0
  7  2  2  0  0  0  0
  8 32  1  6  0  0  0
  8 12  1  0  0  0  0
 10 11  1  6  0  0  0
 11  7  1  0  0  0  0
 14  4  1  0  0  0  0
 15  3  1  0  0  0  0
 15 13  1  0  0  0  0
 16 17  1  1  0  0  0
 18 16  1  0  0  0  0
 19 22  1  0  0  0  0
 19 18  1  0  0  0  0
 20 23  2  0  0  0  0
 20 22  1  0  0  0  0
 21 26  1  0  0  0  0
 22 21  2  0  0  0  0
 23 24  1  0  0  0  0
 24 26  2  0  0  0  0
 25 23  1  0  0  0  0
 26 30  1  0  0  0  0
 27 28  1  0  0  0  0
 28 20  1  0  0  0  0
 29 28  2  0  0  0  0
 30 31  1  0  0  0  0
 33 32  1  0  0  0  0
 33 44  1  1  0  0  0
 34 35  1  6  0  0  0
 34 33  1  0  0  0  0
 37 36  1  1  0  0  0
 37 38  1  0  0  0  0
 37 34  1  0  0  0  0
 39 42  1  0  0  0  0
 40 42  1  0  0  0  0
 40 41  1  0  0  0  0
 41 38  1  1  0  0  0
 42 41  1  0  0  0  0
 42 43  1  0  0  0  0
 44 45  1  0  0  0  0
 45 46  1  0  0  0  0
 46 47  1  0  0  0  0
 49 56  1  6  0  0  0
 49 55  1  0  0  0  0
 50 56  1  0  0  0  0
 50 52  1  0  0  0  0
 51 54  1  6  0  0  0
 51 48  1  0  0  0  0
 53 49  1  0  0  0  0
 53 57  1  0  0  0  0
 55 47  1  1  0  0  0
 55 51  1  0  0  0  0
 55 48  1  0  0  0  0
 57 52  1  6  0  0  0
 57 54  1  0  0  0  0
M  END
>  <MODEL>
3

>  <REMARK>
 VINA RESULT:      -6.7      1.679      2.430
  Name = 
  17 active torsions:
  status: ('A' for Active; 'I' for Inactive)
    1  A    between atoms: C_3  and  C_50
    2  A    between atoms: C_4  and  N_28
    3  A    between atoms: C_4  and  C_38
    4  A    between atoms: C_8  and  C_51
    5  A    between atoms: C_9  and  C_11
    6  A    between atoms: C_9  and  C_26
    7  A    between atoms: C_9  and  O_54
    8  A    between atoms: C_11  and  C_40
    9  A    between atoms: C_15  and  C_23
   10  A    between atoms: C_19  and  C_33
   11  A    between atoms: C_21  and  O_53
   12  A    between atoms: C_23  and  C_29
   13  A    between atoms: C_26  and  C_49
   14  A    between atoms: C_27  and  O_54
   15  A    between atoms: N_28  and  C_49
   16  A    between atoms: C_29  and  O_53
   17  A    between atoms: C_33  and  C_40
                            x       y       z     vdW  Elec       q    Type
                         _______ _______ _______ _____ _____    ______ ____

>  <TORSDO>
F 17

$$$$
=
 OpenBabel11062423073D

 57 64  0  0  1  0  0  0  0  0999 V2000
  193.3720  173.1270  144.0200 C   0  0  2  0  0  3  0  0  0  0  0  0
  196.5080  171.4170  146.1580 O   0  0  0  0  0  0  0  0  0  0  0  0
  194.4810  175.4120  144.3180 C   0  0  2  0  0  0  0  0  0  0  0  0
  192.4860  173.2690  145.2610 C   0  0  0  0  0  2  0  0  0  0  0  0
  196.4340  174.1130  145.8910 O   0  0  0  0  0  1  0  0  0  0  0  0
  192.0650  175.7730  144.7280 C   0  0  1  0  0  3  0  0  0  0  0  0
  195.5890  171.9120  145.4520 C   0  0  0  0  0  0  0  0  0  0  0  0
  193.7360  171.6630  143.7560 C   0  0  1  0  0  3  0  0  0  0  0  0
  193.4690  176.0100  145.2860 C   0  0  0  0  0  2  0  0  0  0  0  0
  194.6900  173.8990  144.1890 C   0  0  1  0  0  3  0  0  0  0  0  0
  195.5170  173.3360  145.2680 N   0  0  0  0  0  0  0  0  0  0  0  0
  194.5460  170.9960  144.8820 C   0  0  0  0  0  2  0  0  0  0  0  0
  195.6530  176.1720  144.1860 O   0  0  0  0  0  0  0  0  0  0  0  0
  191.4790  174.4170  145.1460 C   0  0  0  0  0  2  0  0  0  0  0  0
  194.7520  176.1940  143.1010 C   0  0  0  0  0  2  0  0  0  0  0  0
  191.0900  176.8920  145.0980 C   0  0  1  0  0  3  0  0  0  0  0  0
  191.1220  177.9330  144.1650 O   0  0  0  0  0  1  0  0  0  0  0  0
  189.6670  176.3450  145.2240 C   0  0  0  0  0  2  0  0  0  0  0  0
  188.7810  177.2950  145.8160 O   0  0  0  0  0  0  0  0  0  0  0  0
  186.4100  178.0280  145.9480 C   0  0  0  0  0  0  0  0  0  0  0  0
  187.6160  177.9350  143.8330 C   0  0  0  0  0  3  0  0  0  0  0  0
  187.5990  177.7560  145.2190 C   0  0  0  0  0  0  0  0  0  0  0  0
  185.2440  178.4100  145.2350 C   0  0  0  0  0  0  0  0  0  0  0  0
  185.2880  178.5610  143.8460 C   0  0  0  0  0  3  0  0  0  0  0  0
  183.9520  178.7180  145.9170 C   0  0  0  0  0  1  0  0  0  0  0  0
  186.4730  178.3420  143.1460 C   0  0  0  0  0  0  0  0  0  0  0  0
  186.0360  176.8390  148.1070 O   0  0  0  0  0  1  0  0  0  0  0  0
  186.4030  177.9950  147.4280 C   0  0  0  0  0  0  0  0  0  0  0  0
  186.7140  179.0220  148.0860 O   0  0  0  0  0  0  0  0  0  0  0  0
  186.5070  178.4890  141.6630 C   0  0  0  0  0  2  0  0  0  0  0  0
  185.1840  178.0390  141.0650 C   0  0  0  0  0  1  0  0  0  0  0  0
  192.6770  170.8870  143.2290 O   0  0  0  0  0  0  0  0  0  0  0  0
  192.1350  171.5190  142.0930 C   0  0  2  0  0  3  0  0  0  0  0  0
  190.7100  171.0030  141.8370 C   0  0  1  0  0  3  0  0  0  0  0  0
  190.5760  169.6620  142.1620 F   0  0  0  0  0  0  0  0  0  0  0  0
  189.6570  171.7110  143.8590 O   0  0  0  0  0  1  0  0  0  0  0  0
  189.6150  171.8600  142.4730 C   0  0  1  0  0  3  0  0  0  0  0  0
  189.7600  173.3320  142.1080 C   0  0  0  0  0  2  0  0  0  0  0  0
  187.6810  175.8430  140.2760 F   0  0  0  0  0  0  0  0  0  0  0  0
  187.6910  174.5370  142.1760 O   0  0  0  0  0  0  0  0  0  0  0  0
  188.5450  173.8000  141.3240 C   0  0  1  0  0  3  0  0  0  0  0  0
  188.4630  175.2780  141.2660 C   0  0  0  0  0  0  0  0  0  0  0  0
  189.4070  176.0550  141.9090 F   0  0  0  0  0  0  0  0  0  0  0  0
  193.0550  171.3090  140.8960 C   0  0  0  0  0  2  0  0  0  0  0  0
  193.3780  172.6390  140.2360 C   0  0  0  0  0  2  0  0  0  0  0  0
  192.9920  172.5960  138.8340 N   0  0  0  0  0  2  0  0  0  0  0  0
  191.6230  173.0810  138.7360 C   0  0  0  0  0  2  0  0  0  0  0  0
  190.2820  173.6520  136.8200 O   0  0  0  0  0  0  0  0  0  0  0  0
  190.2170  171.2560  137.4120 C   0  0  2  0  0  3  0  0  0  0  0  0
  191.4930  169.3010  136.4700 N   0  0  0  0  0  2  0  0  0  0  0  0
  191.4710  173.2350  136.1740 C   0  0  2  0  0  3  0  0  0  0  0  0
  191.8130  170.1920  135.3490 C   0  0  0  0  0  2  0  0  0  0  0  0
  189.5280  171.0410  136.0630 C   0  0  0  0  0  2  0  0  0  0  0  0
  191.0880  172.5390  134.8480 C   0  0  0  0  0  2  0  0  0  0  0  0
  190.9820  172.6020  137.4390 C   0  0  2  0  0  0  0  0  0  0  0  0
  191.2010  170.0950  137.6750 C   0  0  0  0  0  2  0  0  0  0  0  0
  190.6150  171.0900  134.9880 C   0  0  1  0  0  3  0  0  0  0  0  0
  1 10  1  0  0  0  0
  1  4  1  1  0  0  0
  3 15  1  6  0  0  0
  3  9  1  0  0  0  0
  6 16  1  1  0  0  0
  6 14  1  0  0  0  0
  6  9  1  0  0  0  0
  7  2  2  0  0  0  0
  8 32  1  1  0  0  0
  8  1  1  0  0  0  0
  8 12  1  0  0  0  0
 10  3  1  0  0  0  0
 10 11  1  1  0  0  0
 11  7  1  0  0  0  0
 11  5  1  0  0  0  0
 12  7  1  0  0  0  0
 13  3  1  0  0  0  0
 14  4  1  0  0  0  0
 15 13  1  0  0  0  0
 16 17  1  6  0  0  0
 16 18  1  0  0  0  0
 18 19  1  0  0  0  0
 20 28  1  0  0  0  0
 21 22  1  0  0  0  0
 22 19  1  0  0  0  0
 22 20  2  0  0  0  0
 23 25  1  0  0  0  0
 23 20  1  0  0  0  0
 24 23  2  0  0  0  0
 26 21  2  0  0  0  0
 26 24  1  0  0  0  0
 28 29  2  0  0  0  0
 28 27  1  0  0  0  0
 30 26  1  0  0  0  0
 31 30  1  0  0  0  0
 33 44  1  6  0  0  0
 33 32  1  0  0  0  0
 34 33  1  0  0  0  0
 34 35  1  1  0  0  0
 34 37  1  0  0  0  0
 37 36  1  1  0  0  0
 38 37  1  0  0  0  0
 39 42  1  0  0  0  0
 41 38  1  1  0  0  0
 41 40  1  0  0  0  0
 42 41  1  0  0  0  0
 42 43  1  0  0  0  0
 42 40  1  0  0  0  0
 45 44  1  0  0  0  0
 46 45  1  0  0  0  0
 47 46  1  0  0  0  0
 48 55  1  0  0  0  0
 49 53  1  6  0  0  0
 49 55  1  0  0  0  0
 49 56  1  0  0  0  0
 50 56  1  0  0  0  0
 51 54  1  6  0  0  0
 51 48  1  0  0  0  0
 51 55  1  0  0  0  0
 52 50  1  0  0  0  0
 55 47  1  1  0  0  0
 57 54  1  1  0  0  0
 57 52  1  0  0  0  0
 57 53  1  0  0  0  0
M  END
>  <MODEL>
4

>  <REMARK>
 VINA RESULT:      -6.7      2.647      8.153
  Name = 
  17 active torsions:
  status: ('A' for Active; 'I' for Inactive)
    1  A    between atoms: C_3  and  C_50
    2  A    between atoms: C_4  and  N_28
    3  A    between atoms: C_4  and  C_38
    4  A    between atoms: C_8  and  C_51
    5  A    between atoms: C_9  and  C_11
    6  A    between atoms: C_9  and  C_26
    7  A    between atoms: C_9  and  O_54
    8  A    between atoms: C_11  and  C_40
    9  A    between atoms: C_15  and  C_23
   10  A    between atoms: C_19  and  C_33
   11  A    between atoms: C_21  and  O_53
   12  A    between atoms: C_23  and  C_29
   13  A    between atoms: C_26  and  C_49
   14  A    between atoms: C_27  and  O_54
   15  A    between atoms: N_28  and  C_49
   16  A    between atoms: C_29  and  O_53
   17  A    between atoms: C_33  and  C_40
                            x       y       z     vdW  Elec       q    Type
                         _______ _______ _______ _____ _____    ______ ____

>  <TORSDO>
F 17

$$$$
=
 OpenBabel11062423073D

 57 64  0  0  1  0  0  0  0  0999 V2000
  191.3900  173.9810  142.0310 C   0  0  2  0  0  3  0  0  0  0  0  0
  188.3180  172.9200  139.4290 O   0  0  0  0  0  0  0  0  0  0  0  0
  190.0210  173.0110  143.9620 C   0  0  2  0  0  0  0  0  0  0  0  0
  190.8570  175.4040  142.2200 C   0  0  0  0  0  2  0  0  0  0  0  0
  187.9680  172.5190  142.0860 O   0  0  0  0  0  1  0  0  0  0  0  0
  190.9560  175.1460  144.7990 C   0  0  1  0  0  3  0  0  0  0  0  0
  189.2830  173.1840  140.1940 C   0  0  0  0  0  0  0  0  0  0  0  0
  191.7270  173.6990  140.5640 C   0  0  1  0  0  3  0  0  0  0  0  0
  189.6750  174.3240  144.6510 C   0  0  0  0  0  2  0  0  0  0  0  0
  190.3480  172.9380  142.4650 C   0  0  1  0  0  3  0  0  0  0  0  0
  189.1510  172.9740  141.6110 N   0  0  0  0  0  0  0  0  0  0  0  0
  190.5250  173.7870  139.6070 C   0  0  0  0  0  2  0  0  0  0  0  0
  189.3040  171.9100  144.4520 O   0  0  0  0  0  0  0  0  0  0  0  0
  191.2520  176.0140  143.5680 C   0  0  0  0  0  2  0  0  0  0  0  0
  190.6680  171.9900  144.8020 C   0  0  0  0  0  2  0  0  0  0  0  0
  190.9520  176.0190  146.0550 C   0  0  1  0  0  3  0  0  0  0  0  0
  192.2310  176.4990  146.3540 O   0  0  0  0  0  1  0  0  0  0  0  0
  189.9790  177.1880  145.8940 C   0  0  0  0  0  2  0  0  0  0  0  0
  188.6170  176.7570  145.9250 O   0  0  0  0  0  0  0  0  0  0  0  0
  186.4100  177.8980  145.9100 C   0  0  0  0  0  0  0  0  0  0  0  0
  187.6870  177.5300  143.8670 C   0  0  0  0  0  3  0  0  0  0  0  0
  187.5670  177.4000  145.2530 C   0  0  0  0  0  0  0  0  0  0  0  0
  185.3670  178.4570  145.1250 C   0  0  0  0  0  0  0  0  0  0  0  0
  185.5080  178.5550  143.7380 C   0  0  0  0  0  3  0  0  0  0  0  0
  184.1180  179.0080  145.7270 C   0  0  0  0  0  1  0  0  0  0  0  0
  186.6700  178.1110  143.1090 C   0  0  0  0  0  0  0  0  0  0  0  0
  186.6010  179.0710  148.1010 O   0  0  0  0  0  1  0  0  0  0  0  0
  186.3210  177.9120  147.3880 C   0  0  0  0  0  0  0  0  0  0  0  0
  186.0080  176.8650  148.0120 O   0  0  0  0  0  0  0  0  0  0  0  0
  186.8050  178.2040  141.6280 C   0  0  0  0  0  2  0  0  0  0  0  0
  187.3510  176.8980  141.0720 C   0  0  0  0  0  1  0  0  0  0  0  0
  192.9120  174.3230  140.1090 O   0  0  0  0  0  0  0  0  0  0  0  0
  193.9920  173.9710  140.9410 C   0  0  2  0  0  3  0  0  0  0  0  0
  195.2090  174.8540  140.6220 C   0  0  1  0  0  3  0  0  0  0  0  0
  194.9780  175.6850  139.5380 F   0  0  0  0  0  0  0  0  0  0  0  0
  196.2040  176.8750  141.4150 O   0  0  0  0  0  1  0  0  0  0  0  0
  195.7540  175.6200  141.8280 C   0  0  1  0  0  3  0  0  0  0  0  0
  194.7060  175.7830  142.9210 C   0  0  0  0  0  2  0  0  0  0  0  0
  195.3070  175.2240  146.5690 F   0  0  0  0  0  0  0  0  0  0  0  0
  196.4010  175.2960  144.5410 O   0  0  0  0  0  0  0  0  0  0  0  0
  195.0890  174.9600  144.1400 C   0  0  1  0  0  3  0  0  0  0  0  0
  195.3540  175.8140  145.3210 C   0  0  0  0  0  0  0  0  0  0  0  0
  195.2720  177.1890  145.2190 F   0  0  0  0  0  0  0  0  0  0  0  0
  194.2970  172.4840  140.7920 C   0  0  0  0  0  2  0  0  0  0  0  0
  195.7760  172.2690  140.5240 C   0  0  0  0  0  2  0  0  0  0  0  0
  196.2270  171.0660  141.2050 N   0  0  0  0  0  2  0  0  0  0  0  0
  195.3240  170.8230  142.3210 C   0  0  0  0  0  2  0  0  0  0  0  0
  197.3180  171.2240  143.6080 O   0  0  0  0  0  0  0  0  0  0  0  0
  196.2750  169.0270  144.0320 C   0  0  2  0  0  3  0  0  0  0  0  0
  194.7270  168.2750  145.8690 N   0  0  0  0  0  2  0  0  0  0  0  0
  196.3350  171.6250  144.5450 C   0  0  2  0  0  3  0  0  0  0  0  0
  195.1470  169.4930  146.5700 C   0  0  0  0  0  2  0  0  0  0  0  0
  197.2230  168.9150  145.2270 C   0  0  0  0  0  2  0  0  0  0  0  0
  196.8270  171.2510  145.9610 C   0  0  0  0  0  2  0  0  0  0  0  0
  196.1140  170.4990  143.5830 C   0  0  2  0  0  0  0  0  0  0  0  0
  194.8960  168.4470  144.4170 C   0  0  0  0  0  2  0  0  0  0  0  0
  196.6430  169.7810  146.3460 C   0  0  1  0  0  3  0  0  0  0  0  0
  1  4  1  6  0  0  0
  1 10  1  0  0  0  0
  2  7  2  0  0  0  0
  3 13  1  0  0  0  0
  3  9  1  1  0  0  0
  3 15  1  0  0  0  0
  4 14  1  0  0  0  0
  6 16  1  1  0  0  0
  7 11  1  0  0  0  0
  8 32  1  6  0  0  0
  8  1  1  0  0  0  0
  9  6  1  0  0  0  0
 10 11  1  6  0  0  0
 10  3  1  0  0  0  0
 11  5  1  0  0  0  0
 12  7  1  0  0  0  0
 12  8  1  0  0  0  0
 13 15  1  0  0  0  0
 14  6  1  0  0  0  0
 16 17  1  6  0  0  0
 18 19  1  0  0  0  0
 18 16  1  0  0  0  0
 20 28  1  0  0  0  0
 21 22  2  0  0  0  0
 22 20  1  0  0  0  0
 22 19  1  0  0  0  0
 23 25  1  0  0  0  0
 23 20  2  0  0  0  0
 24 23  1  0  0  0  0
 26 24  2  0  0  0  0
 26 21  1  0  0  0  0
 28 29  2  0  0  0  0
 28 27  1  0  0  0  0
 30 26  1  0  0  0  0
 31 30  1  0  0  0  0
 32 33  1  0  0  0  0
 33 44  1  6  0  0  0
 34 35  1  6  0  0  0
 34 33  1  0  0  0  0
 34 37  1  0  0  0  0
 37 36  1  6  0  0  0
 37 38  1  0  0  0  0
 40 42  1  0  0  0  0
 41 38  1  6  0  0  0
 41 40  1  0  0  0  0
 41 42  1  0  0  0  0
 42 39  1  0  0  0  0
 43 42  1  0  0  0  0
 45 44  1  0  0  0  0
 45 46  1  0  0  0  0
 46 47  1  0  0  0  0
 48 51  1  0  0  0  0
 49 56  1  1  0  0  0
 49 53  1  0  0  0  0
 50 52  1  0  0  0  0
 51 54  1  1  0  0  0
 54 57  1  0  0  0  0
 55 47  1  6  0  0  0
 55 48  1  0  0  0  0
 55 49  1  0  0  0  0
 55 51  1  0  0  0  0
 56 50  1  0  0  0  0
 57 53  1  6  0  0  0
 57 52  1  0  0  0  0
M  END
>  <MODEL>
5

>  <REMARK>
 VINA RESULT:      -6.6      2.708      9.332
  Name = 
  17 active torsions:
  status: ('A' for Active; 'I' for Inactive)
    1  A    between atoms: C_3  and  C_50
    2  A    between atoms: C_4  and  N_28
    3  A    between atoms: C_4  and  C_38
    4  A    between atoms: C_8  and  C_51
    5  A    between atoms: C_9  and  C_11
    6  A    between atoms: C_9  and  C_26
    7  A    between atoms: C_9  and  O_54
    8  A    between atoms: C_11  and  C_40
    9  A    between atoms: C_15  and  C_23
   10  A    between atoms: C_19  and  C_33
   11  A    between atoms: C_21  and  O_53
   12  A    between atoms: C_23  and  C_29
   13  A    between atoms: C_26  and  C_49
   14  A    between atoms: C_27  and  O_54
   15  A    between atoms: N_28  and  C_49
   16  A    between atoms: C_29  and  O_53
   17  A    between atoms: C_33  and  C_40
                            x       y       z     vdW  Elec       q    Type
                         _______ _______ _______ _____ _____    ______ ____

>  <TORSDO>
F 17

$$$$
=
 OpenBabel11062423073D

 57 64  0  0  1  0  0  0  0  0999 V2000
  191.5790  173.9680  142.0270 C   0  0  2  0  0  3  0  0  0  0  0  0
  188.8240  173.3170  138.9740 O   0  0  0  0  0  0  0  0  0  0  0  0
  189.9100  172.9570  143.6800 C   0  0  2  0  0  0  0  0  0  0  0  0
  191.1110  175.4080  142.2610 C   0  0  0  0  0  2  0  0  0  0  0  0
  188.0990  172.7470  141.5230 O   0  0  0  0  0  1  0  0  0  0  0  0
  190.8500  174.9550  144.8020 C   0  0  1  0  0  3  0  0  0  0  0  0
  189.6920  173.4570  139.8760 C   0  0  0  0  0  0  0  0  0  0  0  0
  192.0910  173.7720  140.5970 C   0  0  1  0  0  3  0  0  0  0  0  0
  189.5540  174.2360  144.4240 C   0  0  0  0  0  2  0  0  0  0  0  0
  190.4280  172.9710  142.2370 C   0  0  1  0  0  3  0  0  0  0  0  0
  189.3600  173.1530  141.2410 N   0  0  0  0  0  0  0  0  0  0  0  0
  191.0340  174.0130  139.5030 C   0  0  0  0  0  2  0  0  0  0  0  0
  189.0710  171.8750  143.9830 O   0  0  0  0  0  0  0  0  0  0  0  0
  191.3580  175.8880  143.6940 C   0  0  0  0  0  2  0  0  0  0  0  0
  190.3780  171.8350  144.5090 C   0  0  0  0  0  2  0  0  0  0  0  0
  190.7300  175.7320  146.1140 C   0  0  1  0  0  3  0  0  0  0  0  0
  191.3450  176.9850  146.0290 O   0  0  0  0  0  1  0  0  0  0  0  0
  189.2620  175.8950  146.5100 C   0  0  0  0  0  2  0  0  0  0  0  0
  188.8110  177.2400  146.3450 O   0  0  0  0  0  0  0  0  0  0  0  0
  186.5480  178.0690  145.7400 C   0  0  0  0  0  0  0  0  0  0  0  0
  188.2470  177.6100  144.0550 C   0  0  0  0  0  3  0  0  0  0  0  0
  187.8600  177.6470  145.3970 C   0  0  0  0  0  0  0  0  0  0  0  0
  185.6360  178.3790  144.6970 C   0  0  0  0  0  0  0  0  0  0  0  0
  186.0470  178.3140  143.3630 C   0  0  0  0  0  3  0  0  0  0  0  0
  184.2400  178.8350  144.9620 C   0  0  0  0  0  1  0  0  0  0  0  0
  187.3520  177.9480  143.0400 C   0  0  0  0  0  0  0  0  0  0  0  0
  185.8970  177.1700  147.9720 O   0  0  0  0  0  1  0  0  0  0  0  0
  186.1580  178.2640  147.1550 C   0  0  0  0  0  0  0  0  0  0  0  0
  186.0430  179.4260  147.6260 O   0  0  0  0  0  0  0  0  0  0  0  0
  187.7780  177.8650  141.6130 C   0  0  0  0  0  2  0  0  0  0  0  0
  187.6930  176.4260  141.1280 C   0  0  0  0  0  1  0  0  0  0  0  0
  193.3610  174.3440  140.3500 O   0  0  0  0  0  0  0  0  0  0  0  0
  194.2740  173.9380  141.3420 C   0  0  2  0  0  3  0  0  0  0  0  0
  195.1990  175.1080  141.7150 C   0  0  1  0  0  3  0  0  0  0  0  0
  194.5130  176.1280  142.3530 F   0  0  0  0  0  0  0  0  0  0  0  0
  197.5830  175.1660  141.8180 O   0  0  0  0  0  1  0  0  0  0  0  0
  196.4530  174.6880  142.4830 C   0  0  1  0  0  3  0  0  0  0  0  0
  196.4420  175.2030  143.9160 C   0  0  0  0  0  2  0  0  0  0  0  0
  193.6540  173.9420  146.0650 F   0  0  0  0  0  0  0  0  0  0  0  0
  195.8480  174.6410  146.1670 O   0  0  0  0  0  0  0  0  0  0  0  0
  195.7560  174.1990  144.8280 C   0  0  1  0  0  3  0  0  0  0  0  0
  194.6020  174.7980  145.5380 C   0  0  0  0  0  0  0  0  0  0  0  0
  194.2850  176.1290  145.3540 F   0  0  0  0  0  0  0  0  0  0  0  0
  195.0470  172.7130  140.8640 C   0  0  0  0  0  2  0  0  0  0  0  0
  195.3780  172.8380  139.3860 C   0  0  0  0  0  2  0  0  0  0  0  0
  194.9870  171.6210  138.6930 N   0  0  0  0  0  2  0  0  0  0  0  0
  193.8240  171.9320  137.8730 C   0  0  0  0  0  2  0  0  0  0  0  0
  193.1890  169.8270  138.8520 O   0  0  0  0  0  0  0  0  0  0  0  0
  192.5110  170.0800  136.4920 C   0  0  2  0  0  3  0  0  0  0  0  0
  190.3070  170.7630  135.4860 N   0  0  0  0  0  2  0  0  0  0  0  0
  191.9940  170.5590  139.0460 C   0  0  2  0  0  3  0  0  0  0  0  0
  189.7430  170.4920  136.8120 C   0  0  0  0  0  2  0  0  0  0  0  0
  191.6580  168.8280  136.7030 C   0  0  0  0  0  2  0  0  0  0  0  0
  190.7980  169.5910  138.9010 C   0  0  0  0  0  2  0  0  0  0  0  0
  192.8640  170.7490  137.8420 C   0  0  2  0  0  0  0  0  0  0  0  0
  191.7400  171.0810  135.6040 C   0  0  0  0  0  2  0  0  0  0  0  0
  190.4010  169.2600  137.4600 C   0  0  1  0  0  3  0  0  0  0  0  0
  1 10  1  0  0  0  0
  1  4  1  6  0  0  0
  2  7  2  0  0  0  0
  3 13  1  0  0  0  0
  3  9  1  1  0  0  0
  3 15  1  0  0  0  0
  4 14  1  0  0  0  0
  6 16  1  1  0  0  0
  7 11  1  0  0  0  0
  8 32  1  6  0  0  0
  8  1  1  0  0  0  0
  9  6  1  0  0  0  0
 10 11  1  6  0  0  0
 10  3  1  0  0  0  0
 11  5  1  0  0  0  0
 12  7  1  0  0  0  0
 12  8  1  0  0  0  0
 13 15  1  0  0  0  0
 14  6  1  0  0  0  0
 16 17  1  6  0  0  0
 16 18  1  0  0  0  0
 19 18  1  0  0  0  0
 20 28  1  0  0  0  0
 21 22  2  0  0  0  0
 22 20  1  0  0  0  0
 22 19  1  0  0  0  0
 23 25  1  0  0  0  0
 23 20  2  0  0  0  0
 24 23  1  0  0  0  0
 26 24  2  0  0  0  0
 26 21  1  0  0  0  0
 28 29  2  0  0  0  0
 28 27  1  0  0  0  0
 30 26  1  0  0  0  0
 31 30  1  0  0  0  0
 32 33  1  0  0  0  0
 33 44  1  6  0  0  0
 33 34  1  0  0  0  0
 34 35  1  1  0  0  0
 34 37  1  0  0  0  0
 37 36  1  6  0  0  0
 37 38  1  0  0  0  0
 41 38  1  6  0  0  0
 41 42  1  0  0  0  0
 41 40  1  0  0  0  0
 42 39  1  0  0  0  0
 42 40  1  0  0  0  0
 43 42  1  0  0  0  0
 45 44  1  0  0  0  0
 46 45  1  0  0  0  0
 47 46  1  0  0  0  0
 48 51  1  0  0  0  0
 49 56  1  6  0  0  0
 49 53  1  0  0  0  0
 49 55  1  0  0  0  0
 50 56  1  0  0  0  0
 50 52  1  0  0  0  0
 51 54  1  6  0  0  0
 52 57  1  0  0  0  0
 55 47  1  6  0  0  0
 55 48  1  0  0  0  0
 55 51  1  0  0  0  0
 57 53  1  6  0  0  0
 57 54  1  0  0  0  0
M  END
>  <MODEL>
6

>  <REMARK>
 VINA RESULT:      -6.6      2.557      8.983
  Name = 
  17 active torsions:
  status: ('A' for Active; 'I' for Inactive)
    1  A    between atoms: C_3  and  C_50
    2  A    between atoms: C_4  and  N_28
    3  A    between atoms: C_4  and  C_38
    4  A    between atoms: C_8  and  C_51
    5  A    between atoms: C_9  and  C_11
    6  A    between atoms: C_9  and  C_26
    7  A    between atoms: C_9  and  O_54
    8  A    between atoms: C_11  and  C_40
    9  A    between atoms: C_15  and  C_23
   10  A    between atoms: C_19  and  C_33
   11  A    between atoms: C_21  and  O_53
   12  A    between atoms: C_23  and  C_29
   13  A    between atoms: C_26  and  C_49
   14  A    between atoms: C_27  and  O_54
   15  A    between atoms: N_28  and  C_49
   16  A    between atoms: C_29  and  O_53
   17  A    between atoms: C_33  and  C_40
                            x       y       z     vdW  Elec       q    Type
                         _______ _______ _______ _____ _____    ______ ____

>  <TORSDO>
F 17

$$$$
=
 OpenBabel11062423073D

 57 64  0  0  1  0  0  0  0  0999 V2000
  193.5040  173.9750  143.6100 C   0  0  2  0  0  3  0  0  0  0  0  0
  197.1720  172.8330  145.2150 O   0  0  0  0  0  0  0  0  0  0  0  0
  193.3290  175.7750  145.4180 C   0  0  2  0  0  0  0  0  0  0  0  0
  192.7270  172.9300  144.4150 C   0  0  0  0  0  2  0  0  0  0  0  0
  195.7420  174.7590  146.4780 O   0  0  0  0  0  1  0  0  0  0  0  0
  191.0820  174.7470  145.2660 C   0  0  1  0  0  3  0  0  0  0  0  0
  196.0970  173.2130  144.6790 C   0  0  0  0  0  0  0  0  0  0  0  0
  194.5410  173.3180  142.6940 C   0  0  1  0  0  3  0  0  0  0  0  0
  192.2010  175.1480  146.2270 C   0  0  0  0  0  2  0  0  0  0  0  0
  194.2640  174.9370  144.5370 C   0  0  1  0  0  3  0  0  0  0  0  0
  195.3110  174.2430  145.3030 N   0  0  0  0  0  0  0  0  0  0  0  0
  195.6290  172.5190  143.4340 C   0  0  0  0  0  2  0  0  0  0  0  0
  193.9540  176.8530  146.0620 O   0  0  0  0  0  0  0  0  0  0  0  0
  191.2760  173.3420  144.6790 C   0  0  0  0  0  2  0  0  0  0  0  0
  193.1140  177.1610  144.9730 C   0  0  0  0  0  2  0  0  0  0  0  0
  189.6950  174.8510  145.9030 C   0  0  1  0  0  3  0  0  0  0  0  0
  189.3170  173.6520  146.5150 O   0  0  0  0  0  1  0  0  0  0  0  0
  189.6550  175.9930  146.9190 C   0  0  0  0  0  2  0  0  0  0  0  0
  189.4710  177.2620  146.2890 O   0  0  0  0  0  0  0  0  0  0  0  0
  187.0860  177.7600  145.7960 C   0  0  0  0  0  0  0  0  0  0  0  0
  188.7700  177.6380  144.0390 C   0  0  0  0  0  3  0  0  0  0  0  0
  188.4340  177.5580  145.3920 C   0  0  0  0  0  0  0  0  0  0  0  0
  186.0990  177.9710  144.7990 C   0  0  0  0  0  0  0  0  0  0  0  0
  186.4640  178.0260  143.4510 C   0  0  0  0  0  3  0  0  0  0  0  0
  184.6610  178.1960  145.1290 C   0  0  0  0  0  1  0  0  0  0  0  0
  187.7960  177.8780  143.0690 C   0  0  0  0  0  0  0  0  0  0  0  0
  186.3030  176.6960  147.9110 O   0  0  0  0  0  1  0  0  0  0  0  0
  186.7260  177.8320  147.2310 C   0  0  0  0  0  0  0  0  0  0  0  0
  186.7850  178.9310  147.8430 O   0  0  0  0  0  0  0  0  0  0  0  0
  188.1740  177.9210  141.6280 C   0  0  0  0  0  2  0  0  0  0  0  0
  186.9780  177.5520  140.7650 C   0  0  0  0  0  1  0  0  0  0  0  0
  193.9920  172.6840  141.5550 O   0  0  0  0  0  0  0  0  0  0  0  0
  195.0230  172.2450  140.7030 C   0  0  2  0  0  3  0  0  0  0  0  0
  195.4100  173.3670  139.7260 C   0  0  1  0  0  3  0  0  0  0  0  0
  196.0850  172.8800  138.6180 F   0  0  0  0  0  0  0  0  0  0  0  0
  194.5890  175.6060  139.6090 O   0  0  0  0  0  1  0  0  0  0  0  0
  194.2470  174.2800  139.3370 C   0  0  1  0  0  3  0  0  0  0  0  0
  193.8770  174.1360  137.8670 C   0  0  0  0  0  2  0  0  0  0  0  0
  192.9970  177.2640  136.0180 F   0  0  0  0  0  0  0  0  0  0  0  0
  194.0130  175.2150  135.7330 O   0  0  0  0  0  0  0  0  0  0  0  0
  194.1860  175.4230  137.1200 C   0  0  1  0  0  3  0  0  0  0  0  0
  193.0010  175.9340  136.3910 C   0  0  0  0  0  0  0  0  0  0  0  0
  191.8110  175.2340  136.4170 F   0  0  0  0  0  0  0  0  0  0  0  0
  194.5940  170.9690  139.9860 C   0  0  0  0  0  2  0  0  0  0  0  0
  193.1000  170.7490  140.1430 C   0  0  0  0  0  2  0  0  0  0  0  0
  192.4090  171.2090  138.9490 N   0  0  0  0  0  2  0  0  0  0  0  0
  190.9790  171.0680  139.1820 C   0  0  0  0  0  2  0  0  0  0  0  0
  190.6900  173.4250  138.7810 O   0  0  0  0  0  0  0  0  0  0  0  0
  190.5520  172.7880  141.1620 C   0  0  2  0  0  3  0  0  0  0  0  0
  188.5520  172.3580  142.6290 N   0  0  0  0  0  2  0  0  0  0  0  0
  189.3360  173.0130  138.8190 C   0  0  2  0  0  3  0  0  0  0  0  0
  187.7770  173.0300  141.5810 C   0  0  0  0  0  2  0  0  0  0  0  0
  190.0230  174.2020  141.4100 C   0  0  0  0  0  2  0  0  0  0  0  0
  188.4980  174.1450  139.4550 C   0  0  0  0  0  2  0  0  0  0  0  0
  190.3890  172.3840  139.6770 C   0  0  2  0  0  0  0  0  0  0  0  0
  189.7840  171.7910  142.0580 C   0  0  0  0  0  2  0  0  0  0  0  0
  188.5550  174.2160  140.9820 C   0  0  1  0  0  3  0  0  0  0  0  0
  1  4  1  1  0  0  0
  1 10  1  0  0  0  0
  3 15  1  6  0  0  0
  3 13  1  0  0  0  0
  3  9  1  0  0  0  0
  4 14  1  0  0  0  0
  6 16  1  1  0  0  0
  6  9  1  0  0  0  0
  7  2  2  0  0  0  0
  7 11  1  0  0  0  0
  8 32  1  6  0  0  0
  8 12  1  0  0  0  0
  8  1  1  0  0  0  0
 10 11  1  1  0  0  0
 10  3  1  0  0  0  0
 11  5  1  0  0  0  0
 12  7  1  0  0  0  0
 14  6  1  0  0  0  0
 15 13  1  0  0  0  0
 16 17  1  1  0  0  0
 16 18  1  0  0  0  0
 19 18  1  0  0  0  0
 20 28  1  0  0  0  0
 21 22  2  0  0  0  0
 22 20  1  0  0  0  0
 22 19  1  0  0  0  0
 23 25  1  0  0  0  0
 23 20  2  0  0  0  0
 24 23  1  0  0  0  0
 26 24  2  0  0  0  0
 26 21  1  0  0  0  0
 28 29  2  0  0  0  0
 28 27  1  0  0  0  0
 30 26  1  0  0  0  0
 31 30  1  0  0  0  0
 33 44  1  6  0  0  0
 33 32  1  0  0  0  0
 34 35  1  6  0  0  0
 34 33  1  0  0  0  0
 37 36  1  6  0  0  0
 37 34  1  0  0  0  0
 38 37  1  0  0  0  0
 39 42  1  0  0  0  0
 40 42  1  0  0  0  0
 40 41  1  0  0  0  0
 41 38  1  1  0  0  0
 42 43  1  0  0  0  0
 42 41  1  0  0  0  0
 44 45  1  0  0  0  0
 46 47  1  0  0  0  0
 46 45  1  0  0  0  0
 48 51  1  0  0  0  0
 48 55  1  0  0  0  0
 49 53  1  6  0  0  0
 49 56  1  0  0  0  0
 51 54  1  1  0  0  0
 51 55  1  0  0  0  0
 52 50  1  0  0  0  0
 55 47  1  6  0  0  0
 55 49  1  0  0  0  0
 56 50  1  0  0  0  0
 57 54  1  6  0  0  0
 57 53  1  0  0  0  0
 57 52  1  0  0  0  0
M  END
>  <MODEL>
7

>  <REMARK>
 VINA RESULT:      -6.5      2.653      7.730
  Name = 
  17 active torsions:
  status: ('A' for Active; 'I' for Inactive)
    1  A    between atoms: C_3  and  C_50
    2  A    between atoms: C_4  and  N_28
    3  A    between atoms: C_4  and  C_38
    4  A    between atoms: C_8  and  C_51
    5  A    between atoms: C_9  and  C_11
    6  A    between atoms: C_9  and  C_26
    7  A    between atoms: C_9  and  O_54
    8  A    between atoms: C_11  and  C_40
    9  A    between atoms: C_15  and  C_23
   10  A    between atoms: C_19  and  C_33
   11  A    between atoms: C_21  and  O_53
   12  A    between atoms: C_23  and  C_29
   13  A    between atoms: C_26  and  C_49
   14  A    between atoms: C_27  and  O_54
   15  A    between atoms: N_28  and  C_49
   16  A    between atoms: C_29  and  O_53
   17  A    between atoms: C_33  and  C_40
                            x       y       z     vdW  Elec       q    Type
                         _______ _______ _______ _____ _____    ______ ____

>  <TORSDO>
F 17

$$$$
=
 OpenBabel11062423073D

 57 64  0  0  1  0  0  0  0  0999 V2000
  193.5860  174.0400  143.8440 C   0  0  2  0  0  3  0  0  0  0  0  0
  197.4810  175.5100  143.8880 O   0  0  0  0  0  0  0  0  0  0  0  0
  192.7440  176.3980  144.3650 C   0  0  2  0  0  0  0  0  0  0  0  0
  193.6380  173.6120  145.3140 C   0  0  0  0  0  2  0  0  0  0  0  0
  195.4510  177.1880  144.5270 O   0  0  0  0  0  1  0  0  0  0  0  0
  191.4250  174.8750  145.8030 C   0  0  1  0  0  3  0  0  0  0  0  0
  196.3050  175.0670  143.8050 C   0  0  0  0  0  0  0  0  0  0  0  0
  194.6570  173.3250  143.0150 C   0  0  1  0  0  3  0  0  0  0  0  0
  192.2790  176.1430  145.7920 C   0  0  0  0  0  2  0  0  0  0  0  0
  193.8340  175.5500  143.6980 C   0  0  1  0  0  3  0  0  0  0  0  0
  195.1940  175.9230  144.1180 N   0  0  0  0  0  0  0  0  0  0  0  0
  196.1030  173.6230  143.4500 C   0  0  0  0  0  2  0  0  0  0  0  0
  192.7730  177.7560  144.0150 O   0  0  0  0  0  0  0  0  0  0  0  0
  192.2580  173.5970  145.9770 C   0  0  0  0  0  2  0  0  0  0  0  0
  191.7440  176.9740  143.4520 C   0  0  0  0  0  2  0  0  0  0  0  0
  190.3220  174.9190  146.8630 C   0  0  1  0  0  3  0  0  0  0  0  0
  190.6490  175.7870  147.9100 O   0  0  0  0  0  1  0  0  0  0  0  0
  188.9900  175.3310  146.2370 C   0  0  0  0  0  2  0  0  0  0  0  0
  188.8810  176.7490  146.1000 O   0  0  0  0  0  0  0  0  0  0  0  0
  186.6950  177.8980  145.8220 C   0  0  0  0  0  0  0  0  0  0  0  0
  188.2070  177.5290  143.9470 C   0  0  0  0  0  3  0  0  0  0  0  0
  187.9210  177.3970  145.3080 C   0  0  0  0  0  0  0  0  0  0  0  0
  185.7560  178.4620  144.9200 C   0  0  0  0  0  0  0  0  0  0  0  0
  186.0630  178.5620  143.5600 C   0  0  0  0  0  3  0  0  0  0  0  0
  184.4450  179.0160  145.3690 C   0  0  0  0  0  1  0  0  0  0  0  0
  187.2900  178.1150  143.0740 C   0  0  0  0  0  0  0  0  0  0  0  0
  186.7400  179.0270  148.0440 O   0  0  0  0  0  1  0  0  0  0  0  0
  186.4300  177.9090  147.2790 C   0  0  0  0  0  0  0  0  0  0  0  0
  185.9370  176.8960  147.8400 O   0  0  0  0  0  0  0  0  0  0  0  0
  187.6020  178.2110  141.6190 C   0  0  0  0  0  2  0  0  0  0  0  0
  187.1610  176.9410  140.9080 C   0  0  0  0  0  1  0  0  0  0  0  0
  194.3720  171.9650  142.7460 O   0  0  0  0  0  0  0  0  0  0  0  0
  193.6130  171.8560  141.5650 C   0  0  2  0  0  3  0  0  0  0  0  0
  192.8550  170.5190  141.5510 C   0  0  1  0  0  3  0  0  0  0  0  0
  193.3540  169.6290  142.4890 F   0  0  0  0  0  0  0  0  0  0  0  0
  190.7760  169.4380  142.0090 O   0  0  0  0  0  1  0  0  0  0  0  0
  191.3360  170.6640  141.6460 C   0  0  1  0  0  3  0  0  0  0  0  0
  190.9280  171.7330  142.6510 C   0  0  0  0  0  2  0  0  0  0  0  0
  187.7770  173.7250  142.3570 F   0  0  0  0  0  0  0  0  0  0  0  0
  188.9990  172.4760  143.8600 O   0  0  0  0  0  0  0  0  0  0  0  0
  189.4210  171.9240  142.6300 C   0  0  1  0  0  3  0  0  0  0  0  0
  189.0440  173.3510  142.7620 C   0  0  0  0  0  0  0  0  0  0  0  0
  190.0180  174.3180  142.9180 F   0  0  0  0  0  0  0  0  0  0  0  0
  194.5190  172.0260  140.3500 C   0  0  0  0  0  2  0  0  0  0  0  0
  194.2980  170.8950  139.3610 C   0  0  0  0  0  2  0  0  0  0  0  0
  193.7680  171.4300  138.1170 N   0  0  0  0  0  2  0  0  0  0  0  0
  192.4550  170.8380  137.9030 C   0  0  0  0  0  2  0  0  0  0  0  0
  191.6740  171.7620  135.8220 O   0  0  0  0  0  0  0  0  0  0  0  0
  191.4330  173.2860  137.7490 C   0  0  2  0  0  3  0  0  0  0  0  0
  189.4410  173.7800  139.2070 N   0  0  0  0  0  2  0  0  0  0  0  0
  190.4560  171.2640  136.3430 C   0  0  2  0  0  3  0  0  0  0  0  0
  188.6490  173.1420  138.1510 C   0  0  0  0  0  2  0  0  0  0  0  0
  190.5690  174.1540  136.8320 C   0  0  0  0  0  2  0  0  0  0  0  0
  189.3160  172.2170  135.9180 C   0  0  0  0  0  2  0  0  0  0  0  0
  191.5280  171.8350  137.2180 C   0  0  2  0  0  0  0  0  0  0  0  0
  190.8260  173.2800  139.1690 C   0  0  0  0  0  2  0  0  0  0  0  0
  189.1910  173.4930  136.7530 C   0  0  1  0  0  3  0  0  0  0  0  0
  1  4  1  1  0  0  0
  3 15  1  6  0  0  0
  3  9  1  0  0  0  0
  4 14  1  0  0  0  0
  6 14  1  0  0  0  0
  6 16  1  1  0  0  0
  7  2  2  0  0  0  0
  7 11  1  0  0  0  0
  8 32  1  1  0  0  0
  8 12  1  0  0  0  0
  8  1  1  0  0  0  0
  9  6  1  0  0  0  0
 10  1  1  0  0  0  0
 10 11  1  1  0  0  0
 10  3  1  0  0  0  0
 11  5  1  0  0  0  0
 12  7  1  0  0  0  0
 13  3  1  0  0  0  0
 15 13  1  0  0  0  0
 16 17  1  1  0  0  0
 18 16  1  0  0  0  0
 19 18  1  0  0  0  0
 20 28  1  0  0  0  0
 21 22  2  0  0  0  0
 22 20  1  0  0  0  0
 22 19  1  0  0  0  0
 23 25  1  0  0  0  0
 23 20  2  0  0  0  0
 24 23  1  0  0  0  0
 26 24  2  0  0  0  0
 26 21  1  0  0  0  0
 28 29  2  0  0  0  0
 28 27  1  0  0  0  0
 30 26  1  0  0  0  0
 31 30  1  0  0  0  0
 33 44  1  6  0  0  0
 33 32  1  0  0  0  0
 34 33  1  0  0  0  0
 34 37  1  0  0  0  0
 34 35  1  1  0  0  0
 37 36  1  1  0  0  0
 37 38  1  0  0  0  0
 39 42  1  0  0  0  0
 41 38  1  1  0  0  0
 41 42  1  0  0  0  0
 41 40  1  0  0  0  0
 42 43  1  0  0  0  0
 42 40  1  0  0  0  0
 45 44  1  0  0  0  0
 46 45  1  0  0  0  0
 47 46  1  0  0  0  0
 48 51  1  0  0  0  0
 48 55  1  0  0  0  0
 49 53  1  6  0  0  0
 49 56  1  0  0  0  0
 51 54  1  6  0  0  0
 51 55  1  0  0  0  0
 52 50  1  0  0  0  0
 55 49  1  0  0  0  0
 55 47  1  1  0  0  0
 56 50  1  0  0  0  0
 57 54  1  6  0  0  0
 57 53  1  0  0  0  0
 57 52  1  0  0  0  0
M  END
>  <MODEL>
8

>  <REMARK>
 VINA RESULT:      -6.4      2.420      8.018
  Name = 
  17 active torsions:
  status: ('A' for Active; 'I' for Inactive)
    1  A    between atoms: C_3  and  C_50
    2  A    between atoms: C_4  and  N_28
    3  A    between atoms: C_4  and  C_38
    4  A    between atoms: C_8  and  C_51
    5  A    between atoms: C_9  and  C_11
    6  A    between atoms: C_9  and  C_26
    7  A    between atoms: C_9  and  O_54
    8  A    between atoms: C_11  and  C_40
    9  A    between atoms: C_15  and  C_23
   10  A    between atoms: C_19  and  C_33
   11  A    between atoms: C_21  and  O_53
   12  A    between atoms: C_23  and  C_29
   13  A    between atoms: C_26  and  C_49
   14  A    between atoms: C_27  and  O_54
   15  A    between atoms: N_28  and  C_49
   16  A    between atoms: C_29  and  O_53
   17  A    between atoms: C_33  and  C_40
                            x       y       z     vdW  Elec       q    Type
                         _______ _______ _______ _____ _____    ______ ____

>  <TORSDO>
F 17

$$$$
=
 OpenBabel11062423073D

 57 64  0  0  1  0  0  0  0  0999 V2000
  188.9240  175.1440  143.0780 C   0  0  2  0  0  3  0  0  0  0  0  0
  186.6690  177.7370  140.7260 O   0  0  0  0  0  0  0  0  0  0  0  0
  188.5010  176.6740  145.0820 C   0  0  2  0  0  0  0  0  0  0  0  0
  190.2480  175.8140  142.7020 C   0  0  0  0  0  2  0  0  0  0  0  0
  187.1510  178.4080  143.3080 O   0  0  0  0  0  1  0  0  0  0  0  0
  190.8930  176.0430  145.2040 C   0  0  1  0  0  3  0  0  0  0  0  0
  187.2960  176.9100  141.4410 C   0  0  0  0  0  0  0  0  0  0  0  0
  188.2060  174.5900  141.8440 C   0  0  1  0  0  3  0  0  0  0  0  0
  189.9160  177.2190  145.2300 C   0  0  0  0  0  2  0  0  0  0  0  0
  187.9670  176.1440  143.7460 C   0  0  1  0  0  3  0  0  0  0  0  0
  187.5620  177.2130  142.8210 N   0  0  0  0  0  0  0  0  0  0  0  0
  187.8150  175.6550  140.8030 C   0  0  0  0  0  2  0  0  0  0  0  0
  187.5500  177.3570  145.8560 O   0  0  0  0  0  0  0  0  0  0  0  0
  191.3220  175.6570  143.7820 C   0  0  0  0  0  2  0  0  0  0  0  0
  187.9140  176.0640  146.2860 C   0  0  0  0  0  2  0  0  0  0  0  0
  192.1320  176.2900  146.0670 C   0  0  1  0  0  3  0  0  0  0  0  0
  192.0460  175.6250  147.2940 O   0  0  0  0  0  1  0  0  0  0  0  0
  193.3980  175.8590  145.3260 C   0  0  0  0  0  2  0  0  0  0  0  0
  194.1050  174.8350  146.0270 O   0  0  0  0  0  0  0  0  0  0  0  0
  195.6810  173.0600  145.2920 C   0  0  0  0  0  0  0  0  0  0  0  0
  193.2640  172.7630  145.1920 C   0  0  0  0  0  3  0  0  0  0  0  0
  194.3680  173.5580  145.5110 C   0  0  0  0  0  0  0  0  0  0  0  0
  195.8350  171.7850  144.6860 C   0  0  0  0  0  0  0  0  0  0  0  0
  194.7100  171.0230  144.3600 C   0  0  0  0  0  3  0  0  0  0  0  0
  197.1730  171.1810  144.4210 C   0  0  0  0  0  1  0  0  0  0  0  0
  193.4280  171.4980  144.6270 C   0  0  0  0  0  0  0  0  0  0  0  0
  197.6410  174.5390  144.8600 O   0  0  0  0  0  0  0  0  0  0  0  0
  196.8670  173.8140  145.7580 C   0  0  0  0  0  0  0  0  0  0  0  0
  197.1940  173.7900  146.9730 O   0  0  0  0  0  1  0  0  0  0  0  0
  192.2330  170.6850  144.2610 C   0  0  0  0  0  2  0  0  0  0  0  0
  192.6000  169.6780  143.1840 C   0  0  0  0  0  1  0  0  0  0  0  0
  188.7830  173.4100  141.3160 O   0  0  0  0  0  0  0  0  0  0  0  0
  189.2940  173.6570  140.0280 C   0  0  2  0  0  3  0  0  0  0  0  0
  188.6110  172.7330  139.0070 C   0  0  1  0  0  3  0  0  0  0  0  0
  187.6860  173.4120  138.2290 F   0  0  0  0  0  0  0  0  0  0  0  0
  189.3190  170.5560  138.3310 O   0  0  0  0  0  1  0  0  0  0  0  0
  189.5850  171.9150  138.1590 C   0  0  1  0  0  3  0  0  0  0  0  0
  189.4960  172.2750  136.6820 C   0  0  0  0  0  2  0  0  0  0  0  0
  191.1730  175.5490  136.0120 F   0  0  0  0  0  0  0  0  0  0  0  0
  190.4850  173.6160  134.9620 O   0  0  0  0  0  0  0  0  0  0  0  0
  190.6630  173.1660  136.2890 C   0  0  1  0  0  3  0  0  0  0  0  0
  190.2230  174.5470  135.9810 C   0  0  0  0  0  0  0  0  0  0  0  0
  188.8840  174.8810  136.0380 F   0  0  0  0  0  0  0  0  0  0  0  0
  190.8110  173.5000  140.0330 C   0  0  0  0  0  2  0  0  0  0  0  0
  191.2520  172.6480  141.2110 C   0  0  0  0  0  2  0  0  0  0  0  0
  192.6400  172.9390  141.5320 N   0  0  0  0  0  2  0  0  0  0  0  0
  193.0700  174.0420  140.6840 C   0  0  0  0  0  2  0  0  0  0  0  0
  194.9790  173.0210  139.6300 O   0  0  0  0  0  0  0  0  0  0  0  0
  195.4890  174.1240  141.7790 C   0  0  2  0  0  3  0  0  0  0  0  0
  196.4400  176.4040  142.2650 N   0  0  0  0  0  2  0  0  0  0  0  0
  195.1210  174.3510  139.1650 C   0  0  2  0  0  3  0  0  0  0  0  0
  196.8340  176.4180  140.8530 C   0  0  0  0  0  2  0  0  0  0  0  0
  196.9630  173.9440  141.4110 C   0  0  0  0  0  2  0  0  0  0  0  0
  196.6290  174.6750  139.0640 C   0  0  0  0  0  2  0  0  0  0  0  0
  194.5850  174.0310  140.5260 C   0  0  2  0  0  0  0  0  0  0  0  0
  195.2950  175.4980  142.4580 C   0  0  0  0  0  2  0  0  0  0  0  0
  197.3080  175.0290  140.3890 C   0  0  1  0  0  3  0  0  0  0  0  0
  1  4  1  6  0  0  0
  1 10  1  0  0  0  0
  2  7  2  0  0  0  0
  3  9  1  1  0  0  0
  3 13  1  0  0  0  0
  3 15  1  0  0  0  0
  4 14  1  0  0  0  0
  6  9  1  0  0  0  0
  6 16  1  1  0  0  0
  7 11  1  0  0  0  0
  8 32  1  6  0  0  0
  8  1  1  0  0  0  0
 10 11  1  6  0  0  0
 10  3  1  0  0  0  0
 11  5  1  0  0  0  0
 12  7  1  0  0  0  0
 12  8  1  0  0  0  0
 13 15  1  0  0  0  0
 14  6  1  0  0  0  0
 16 17  1  1  0  0  0
 18 19  1  0  0  0  0
 18 16  1  0  0  0  0
 20 22  1  0  0  0  0
 20 28  1  0  0  0  0
 21 22  2  0  0  0  0
 22 19  1  0  0  0  0
 23 20  2  0  0  0  0
 24 26  2  0  0  0  0
 24 23  1  0  0  0  0
 25 23  1  0  0  0  0
 26 21  1  0  0  0  0
 27 28  2  0  0  0  0
 28 29  1  0  0  0  0
 30 26  1  0  0  0  0
 31 30  1  0  0  0  0
 33 44  1  1  0  0  0
 33 32  1  0  0  0  0
 34 35  1  6  0  0  0
 34 33  1  0  0  0  0
 37 36  1  6  0  0  0
 37 34  1  0  0  0  0
 38 37  1  0  0  0  0
 40 42  1  0  0  0  0
 40 41  1  0  0  0  0
 41 38  1  1  0  0  0
 42 39  1  0  0  0  0
 42 43  1  0  0  0  0
 42 41  1  0  0  0  0
 44 45  1  0  0  0  0
 45 46  1  0  0  0  0
 47 46  1  0  0  0  0
 48 55  1  0  0  0  0
 49 53  1  6  0  0  0
 49 56  1  0  0  0  0
 50 56  1  0  0  0  0
 51 54  1  1  0  0  0
 51 48  1  0  0  0  0
 51 55  1  0  0  0  0
 52 50  1  0  0  0  0
 55 47  1  1  0  0  0
 55 49  1  0  0  0  0
 57 54  1  6  0  0  0
 57 52  1  0  0  0  0
 57 53  1  0  0  0  0
M  END
>  <MODEL>
9

>  <REMARK>
 VINA RESULT:      -6.4      2.606      8.626
  Name = 
  17 active torsions:
  status: ('A' for Active; 'I' for Inactive)
    1  A    between atoms: C_3  and  C_50
    2  A    between atoms: C_4  and  N_28
    3  A    between atoms: C_4  and  C_38
    4  A    between atoms: C_8  and  C_51
    5  A    between atoms: C_9  and  C_11
    6  A    between atoms: C_9  and  C_26
    7  A    between atoms: C_9  and  O_54
    8  A    between atoms: C_11  and  C_40
    9  A    between atoms: C_15  and  C_23
   10  A    between atoms: C_19  and  C_33
   11  A    between atoms: C_21  and  O_53
   12  A    between atoms: C_23  and  C_29
   13  A    between atoms: C_26  and  C_49
   14  A    between atoms: C_27  and  O_54
   15  A    between atoms: N_28  and  C_49
   16  A    between atoms: C_29  and  O_53
   17  A    between atoms: C_33  and  C_40
                            x       y       z     vdW  Elec       q    Type
                         _______ _______ _______ _____ _____    ______ ____

>  <TORSDO>
F 17

$$$$
