=
 OpenBabel11062422013D

 35 39  0  0  1  0  0  0  0  0999 V2000
  187.6320  177.4120  146.9220 C   0  0  0  0  0  3  0  0  0  0  0  0
  187.5570  177.6970  144.5220 C   0  0  0  0  0  0  0  0  0  0  0  0
  185.5690  177.9370  145.8350 N   0  0  0  0  0  0  0  0  0  0  0  0
  189.6270  177.1690  145.5750 C   0  0  0  0  0  0  0  0  0  0  0  0
  186.7990  177.9750  143.3690 C   0  0  0  0  0  0  0  0  0  0  0  0
  186.9000  177.6850  145.7660 C   0  0  0  0  0  0  0  0  0  0  0  0
  184.8550  178.2030  144.7110 C   0  0  0  0  0  3  0  0  0  0  0  0
  189.0010  177.1520  146.8300 C   0  0  0  0  0  3  0  0  0  0  0  0
  185.4670  178.2210  143.4980 N   0  0  0  0  0  0  0  0  0  0  0  0
  188.8920  177.4420  144.4620 N   0  0  0  0  0  0  0  0  0  0  0  0
  191.8390  177.3330  144.3300 C   0  0  0  0  0  2  0  0  0  0  0  0
  192.4590  174.7390  143.3200 O   0  0  0  0  0  1  0  0  0  0  0  0
  191.7660  176.1300  146.4370 C   0  0  0  0  0  2  0  0  0  0  0  0
  193.7560  174.6850  146.0400 C   0  0  0  0  0  2  0  0  0  0  0  0
  191.0320  176.9030  145.4550 N   0  0  0  0  0  0  0  0  0  0  0  0
  194.8140  174.9140  143.7240 C   0  0  0  0  0  2  0  0  0  0  0  0
  195.5080  173.2400  145.2920 O   0  0  0  0  0  1  0  0  0  0  0  0
  193.2060  176.6990  144.5390 C   0  0  2  0  0  3  0  0  0  0  0  0
  193.5050  175.6600  143.4440 C   0  0  2  0  0  3  0  0  0  0  0  0
  193.2070  176.1140  145.9690 C   0  0  1  0  0  0  0  0  0  0  0  0
  195.0260  174.5440  145.2010 C   0  0  2  0  0  3  0  0  0  0  0  0
  194.0220  177.0190  146.8750 C   0  0  0  0  0  1  0  0  0  0  0  0
  187.7570  176.1650  140.5710 N   0  0  0  0  0  0  0  0  0  0  0  0
  187.6490  174.3300  139.1320 O   0  0  0  0  0  0  0  0  0  0  0  0
  187.4000  178.0260  141.9910 C   0  0  2  0  0  3  0  0  0  0  0  0
  186.3310  178.0360  140.9000 C   0  0  0  0  0  2  0  0  0  0  0  0
  188.3030  176.8330  141.7350 C   0  0  0  0  0  2  0  0  0  0  0  0
  188.2330  174.8960  140.0960 C   0  0  0  0  0  0  0  0  0  0  0  0
  186.6010  176.8380  140.0060 C   0  0  1  0  0  3  0  0  0  0  0  0
  186.8950  177.2800  138.7160 O   0  0  0  0  0  1  0  0  0  0  0  0
  189.4540  174.2620  140.6930 C   0  0  0  0  0  2  0  0  0  0  0  0
  190.0710  172.5200  142.8970 O   0  0  0  0  0  0  0  0  0  0  0  0
  188.9970  173.1290  142.0270 P   0  0  0  0  0  0  0  0  0  0  0  0
  187.4770  172.4000  142.1420 O   0  0  0  0  0  0  0  0  0  0  0  0
  189.5110  172.9570  140.3700 O   0  0  0  0  0  0  0  0  0  0  0  0
  2  6  1  0  0  0  0
  4  8  2  0  0  0  0
  5  9  2  0  0  0  0
  5  2  1  0  0  0  0
  6  3  1  0  0  0  0
  6  1  2  0  0  0  0
  7  3  2  0  0  0  0
  8  1  1  0  0  0  0
  9  7  1  0  0  0  0
 10  2  2  0  0  0  0
 10  4  1  0  0  0  0
 11 15  1  0  0  0  0
 15  4  1  0  0  0  0
 15 13  1  0  0  0  0
 16 21  1  0  0  0  0
 18 11  1  6  0  0  0
 18 20  1  0  0  0  0
 19 12  1  1  0  0  0
 19 16  1  0  0  0  0
 19 18  1  0  0  0  0
 20 14  1  0  0  0  0
 20 13  1  0  0  0  0
 20 22  1  1  0  0  0
 21 17  1  6  0  0  0
 21 14  1  0  0  0  0
 23 27  1  0  0  0  0
 24 28  2  0  0  0  0
 25  5  1  1  0  0  0
 26 25  1  0  0  0  0
 27 25  1  0  0  0  0
 28 23  1  0  0  0  0
 28 31  1  0  0  0  0
 29 30  1  6  0  0  0
 29 23  1  0  0  0  0
 29 26  1  0  0  0  0
 33 34  2  0  0  0  0
 33 32  2  0  0  0  0
 35 31  1  0  0  0  0
 35 33  1  0  0  0  0
M  END
>  <MODEL>
1

>  <REMARK>
 VINA RESULT:      -8.4      0.000      0.000
  Name = 
  3 active torsions:
  status: ('A' for Active; 'I' for Inactive)
    1  A    between atoms: C_3  and  C_17
    2  A    between atoms: C_5  and  C_24
    3  A    between atoms: N_13  and  C_21
                            x       y       z     vdW  Elec       q    Type
                         _______ _______ _______ _____ _____    ______ ____

>  <TORSDO>
F 3

$$$$
=
 OpenBabel11062422013D

 35 39  0  0  1  0  0  0  0  0999 V2000
  188.9340  173.3740  141.1310 C   0  0  0  0  0  3  0  0  0  0  0  0
  190.9990  174.3160  141.9620 C   0  0  0  0  0  0  0  0  0  0  0  0
  191.0310  172.4020  140.5240 N   0  0  0  0  0  0  0  0  0  0  0  0
  188.9250  175.3050  142.5900 C   0  0  0  0  0  0  0  0  0  0  0  0
  192.4060  174.2710  142.0120 C   0  0  0  0  0  0  0  0  0  0  0  0
  190.3270  173.3480  141.1940 C   0  0  0  0  0  0  0  0  0  0  0  0
  192.3870  172.3750  140.5840 C   0  0  0  0  0  3  0  0  0  0  0  0
  188.2260  174.3540  141.8300 C   0  0  0  0  0  3  0  0  0  0  0  0
  193.0600  173.3010  141.3190 N   0  0  0  0  0  0  0  0  0  0  0  0
  190.2850  175.2600  142.6320 N   0  0  0  0  0  0  0  0  0  0  0  0
  188.8410  177.1740  144.3130 C   0  0  0  0  0  2  0  0  0  0  0  0
  187.3930  176.2070  146.5710 O   0  0  0  0  0  1  0  0  0  0  0  0
  186.7990  176.5510  143.1570 C   0  0  0  0  0  2  0  0  0  0  0  0
  185.2010  177.3900  144.8740 C   0  0  0  0  0  2  0  0  0  0  0  0
  188.2210  176.3200  143.3190 N   0  0  0  0  0  0  0  0  0  0  0  0
  186.2810  178.2820  147.0120 C   0  0  0  0  0  2  0  0  0  0  0  0
  183.9110  178.0110  146.7890 O   0  0  0  0  0  1  0  0  0  0  0  0
  187.7050  177.9700  144.9360 C   0  0  2  0  0  3  0  0  0  0  0  0
  187.5120  177.5920  146.4150 C   0  0  2  0  0  3  0  0  0  0  0  0
  186.4570  177.7190  144.0610 C   0  0  1  0  0  0  0  0  0  0  0  0
  185.0650  178.3260  146.0750 C   0  0  2  0  0  3  0  0  0  0  0  0
  186.2000  178.9420  143.1990 C   0  0  0  0  0  1  0  0  0  0  0  0
  195.3740  174.8630  143.7020 N   0  0  0  0  0  0  0  0  0  0  0  0
  197.6300  174.4750  144.1610 O   0  0  0  0  0  0  0  0  0  0  0  0
  193.2260  175.2630  142.7900 C   0  0  2  0  0  3  0  0  0  0  0  0
  194.2640  175.9610  141.9140 C   0  0  0  0  0  2  0  0  0  0  0  0
  193.9700  174.5930  143.9320 C   0  0  0  0  0  2  0  0  0  0  0  0
  196.4270  174.2670  144.4770 C   0  0  0  0  0  0  0  0  0  0  0  0
  195.6220  175.6920  142.5370 C   0  0  1  0  0  3  0  0  0  0  0  0
  196.1990  176.8990  142.9300 O   0  0  0  0  0  1  0  0  0  0  0  0
  196.1150  173.4470  145.6930 C   0  0  0  0  0  2  0  0  0  0  0  0
  196.3170  170.6930  146.4990 O   0  0  0  0  0  0  0  0  0  0  0  0
  196.6890  171.7440  145.4800 P   0  0  0  0  0  0  0  0  0  0  0  0
  197.9300  171.3120  144.4180 O   0  0  0  0  0  0  0  0  0  0  0  0
  197.2450  173.1440  146.3580 O   0  0  0  0  0  0  0  0  0  0  0  0
  1  6  2  0  0  0  0
  1  8  1  0  0  0  0
  2  5  1  0  0  0  0
  2 10  2  0  0  0  0
  3  7  2  0  0  0  0
  3  6  1  0  0  0  0
  4 10  1  0  0  0  0
  4 15  1  0  0  0  0
  6  2  1  0  0  0  0
  7  9  1  0  0  0  0
  8  4  2  0  0  0  0
  9  5  2  0  0  0  0
 13 15  1  0  0  0  0
 13 20  1  0  0  0  0
 14 21  1  0  0  0  0
 15 11  1  0  0  0  0
 18 11  1  6  0  0  0
 18 19  1  0  0  0  0
 19 12  1  6  0  0  0
 19 16  1  0  0  0  0
 20 22  1  6  0  0  0
 20 14  1  0  0  0  0
 20 18  1  0  0  0  0
 21 17  1  1  0  0  0
 21 16  1  0  0  0  0
 23 27  1  0  0  0  0
 23 28  1  0  0  0  0
 24 28  2  0  0  0  0
 25  5  1  6  0  0  0
 25 27  1  0  0  0  0
 26 29  1  0  0  0  0
 26 25  1  0  0  0  0
 28 31  1  0  0  0  0
 29 30  1  1  0  0  0
 29 23  1  0  0  0  0
 31 35  1  0  0  0  0
 33 35  1  0  0  0  0
 33 32  2  0  0  0  0
 34 33  2  0  0  0  0
M  END
>  <MODEL>
2

>  <REMARK>
 VINA RESULT:      -8.2      3.711      8.130
  Name = 
  3 active torsions:
  status: ('A' for Active; 'I' for Inactive)
    1  A    between atoms: C_3  and  C_17
    2  A    between atoms: C_5  and  C_24
    3  A    between atoms: N_13  and  C_21
                            x       y       z     vdW  Elec       q    Type
                         _______ _______ _______ _____ _____    ______ ____

>  <TORSDO>
F 3

$$$$
=
 OpenBabel11062422013D

 35 39  0  0  1  0  0  0  0  0999 V2000
  187.4230  176.1030  147.3010 C   0  0  0  0  0  3  0  0  0  0  0  0
  187.5420  176.9000  145.0220 C   0  0  0  0  0  0  0  0  0  0  0  0
  185.5730  177.2660  146.3340 N   0  0  0  0  0  0  0  0  0  0  0  0
  189.4010  175.7400  145.9550 C   0  0  0  0  0  0  0  0  0  0  0  0
  186.9220  177.5690  143.9480 C   0  0  0  0  0  0  0  0  0  0  0  0
  186.8280  176.7620  146.2250 C   0  0  0  0  0  0  0  0  0  0  0  0
  184.9920  177.9080  145.2870 C   0  0  0  0  0  3  0  0  0  0  0  0
  188.7150  175.5880  147.1690 C   0  0  0  0  0  3  0  0  0  0  0  0
  185.6630  178.0550  144.1140 N   0  0  0  0  0  0  0  0  0  0  0  0
  188.8000  176.3900  144.9210 N   0  0  0  0  0  0  0  0  0  0  0  0
  191.6940  175.1260  146.8710 C   0  0  0  0  0  2  0  0  0  0  0  0
  193.5740  177.0000  145.8300 O   0  0  0  0  0  1  0  0  0  0  0  0
  191.2410  174.7750  144.5120 C   0  0  0  0  0  2  0  0  0  0  0  0
  193.6040  174.8390  143.7280 C   0  0  0  0  0  2  0  0  0  0  0  0
  190.7280  175.2180  145.7940 N   0  0  0  0  0  0  0  0  0  0  0  0
  195.3270  175.3960  145.5330 C   0  0  0  0  0  2  0  0  0  0  0  0
  195.9070  175.2260  143.2140 O   0  0  0  0  0  1  0  0  0  0  0  0
  192.9930  174.6780  146.2210 C   0  0  2  0  0  3  0  0  0  0  0  0
  194.0630  175.7800  146.3090 C   0  0  2  0  0  3  0  0  0  0  0  0
  192.6440  174.2640  144.7740 C   0  0  1  0  0  0  0  0  0  0  0  0
  195.0560  174.7050  144.1870 C   0  0  2  0  0  3  0  0  0  0  0  0
  192.6340  172.7490  144.6790 C   0  0  0  0  0  1  0  0  0  0  0  0
  187.8650  176.1520  140.9280 N   0  0  0  0  0  0  0  0  0  0  0  0
  187.6730  174.5910  139.2020 O   0  0  0  0  0  0  0  0  0  0  0  0
  187.5970  177.7840  142.6220 C   0  0  2  0  0  3  0  0  0  0  0  0
  186.5930  178.0710  141.5080 C   0  0  0  0  0  2  0  0  0  0  0  0
  188.4050  176.5680  142.2060 C   0  0  0  0  0  2  0  0  0  0  0  0
  188.2530  174.9370  140.2680 C   0  0  0  0  0  0  0  0  0  0  0  0
  186.8040  177.0140  140.4390 C   0  0  1  0  0  3  0  0  0  0  0  0
  187.2040  177.6280  139.2520 O   0  0  0  0  0  1  0  0  0  0  0  0
  189.3800  174.1010  140.7980 C   0  0  0  0  0  2  0  0  0  0  0  0
  189.7420  172.0420  142.7730 O   0  0  0  0  0  0  0  0  0  0  0  0
  188.7650  172.8700  141.9720 P   0  0  0  0  0  0  0  0  0  0  0  0
  187.1720  172.3070  141.9720 O   0  0  0  0  0  0  0  0  0  0  0  0
  189.3040  172.8490  140.3140 O   0  0  0  0  0  0  0  0  0  0  0  0
  2  6  1  0  0  0  0
  4  8  2  0  0  0  0
  5  9  2  0  0  0  0
  5  2  1  0  0  0  0
  6  3  1  0  0  0  0
  6  1  2  0  0  0  0
  7  3  2  0  0  0  0
  8  1  1  0  0  0  0
  9  7  1  0  0  0  0
 10  2  2  0  0  0  0
 10  4  1  0  0  0  0
 13 20  1  0  0  0  0
 13 15  1  0  0  0  0
 14 21  1  0  0  0  0
 14 20  1  0  0  0  0
 15  4  1  0  0  0  0
 15 11  1  0  0  0  0
 16 19  1  0  0  0  0
 18 19  1  0  0  0  0
 18 11  1  6  0  0  0
 19 12  1  6  0  0  0
 20 22  1  6  0  0  0
 20 18  1  0  0  0  0
 21 17  1  6  0  0  0
 21 16  1  0  0  0  0
 23 27  1  0  0  0  0
 24 28  2  0  0  0  0
 25  5  1  1  0  0  0
 26 25  1  0  0  0  0
 27 25  1  0  0  0  0
 28 31  1  0  0  0  0
 28 23  1  0  0  0  0
 29 30  1  6  0  0  0
 29 23  1  0  0  0  0
 29 26  1  0  0  0  0
 33 34  2  0  0  0  0
 33 32  2  0  0  0  0
 35 31  1  0  0  0  0
 35 33  1  0  0  0  0
M  END
>  <MODEL>
3

>  <REMARK>
 VINA RESULT:      -8.2      1.306      1.791
  Name = 
  3 active torsions:
  status: ('A' for Active; 'I' for Inactive)
    1  A    between atoms: C_3  and  C_17
    2  A    between atoms: C_5  and  C_24
    3  A    between atoms: N_13  and  C_21
                            x       y       z     vdW  Elec       q    Type
                         _______ _______ _______ _____ _____    ______ ____

>  <TORSDO>
F 3

$$$$
=
 OpenBabel11062422013D

 35 39  0  0  1  0  0  0  0  0999 V2000
  193.8020  176.0650  146.8430 C   0  0  0  0  0  3  0  0  0  0  0  0
  191.8760  176.2320  145.3910 C   0  0  0  0  0  0  0  0  0  0  0  0
  191.6970  176.7880  147.7130 N   0  0  0  0  0  0  0  0  0  0  0  0
  193.9590  175.5030  144.4940 C   0  0  0  0  0  0  0  0  0  0  0  0
  190.5110  176.5410  145.2360 C   0  0  0  0  0  0  0  0  0  0  0  0
  192.4520  176.3670  146.6670 C   0  0  0  0  0  0  0  0  0  0  0  0
  190.3820  177.0830  147.5440 C   0  0  0  0  0  3  0  0  0  0  0  0
  194.5620  175.6300  145.7550 C   0  0  0  0  0  3  0  0  0  0  0  0
  189.8040  176.9600  146.3200 N   0  0  0  0  0  0  0  0  0  0  0  0
  192.6410  175.8070  144.3480 N   0  0  0  0  0  0  0  0  0  0  0  0
  196.1650  175.0990  143.2940 C   0  0  0  0  0  2  0  0  0  0  0  0
  196.3700  177.0130  141.1900 O   0  0  0  0  0  1  0  0  0  0  0  0
  194.0920  174.5600  142.1510 C   0  0  0  0  0  2  0  0  0  0  0  0
  194.9680  174.7200  139.8250 C   0  0  0  0  0  2  0  0  0  0  0  0
  194.7180  175.0560  143.3620 N   0  0  0  0  0  0  0  0  0  0  0  0
  197.3930  175.5060  139.6340 C   0  0  0  0  0  2  0  0  0  0  0  0
  195.9840  175.2160  137.7180 O   0  0  0  0  0  1  0  0  0  0  0  0
  196.5220  174.6910  141.8730 C   0  0  2  0  0  3  0  0  0  0  0  0
  197.1610  175.8620  141.1060 C   0  0  2  0  0  3  0  0  0  0  0  0
  195.2240  174.1580  141.2270 C   0  0  1  0  0  0  0  0  0  0  0  0
  196.2480  174.7100  138.9890 C   0  0  2  0  0  3  0  0  0  0  0  0
  195.2850  172.6420  141.1650 C   0  0  0  0  0  1  0  0  0  0  0  0
  187.8260  177.6150  143.3250 N   0  0  0  0  0  0  0  0  0  0  0  0
  186.1590  179.1390  142.7330 O   0  0  0  0  0  0  0  0  0  0  0  0
  189.7970  176.4440  143.9160 C   0  0  2  0  0  3  0  0  0  0  0  0
  190.1750  177.5870  142.9760 C   0  0  0  0  0  2  0  0  0  0  0  0
  188.2900  176.4800  144.0970 C   0  0  0  0  0  2  0  0  0  0  0  0
  186.4710  178.0890  143.3600 C   0  0  0  0  0  0  0  0  0  0  0  0
  188.8860  178.3030  142.6110 C   0  0  1  0  0  3  0  0  0  0  0  0
  188.6730  178.2020  141.2360 O   0  0  0  0  0  1  0  0  0  0  0  0
  185.4060  177.3200  144.0840 C   0  0  0  0  0  2  0  0  0  0  0  0
  184.3250  177.1950  146.7470 O   0  0  0  0  0  0  0  0  0  0  0  0
  185.2070  177.9400  145.7720 P   0  0  0  0  0  0  0  0  0  0  0  0
  185.6390  179.5050  146.2400 O   0  0  0  0  0  0  0  0  0  0  0  0
  184.3200  178.0890  144.2790 O   0  0  0  0  0  0  0  0  0  0  0  0
  2  6  1  0  0  0  0
  4  8  1  0  0  0  0
  5  2  2  0  0  0  0
  5  9  1  0  0  0  0
  6  1  1  0  0  0  0
  6  3  2  0  0  0  0
  7  3  1  0  0  0  0
  8  1  2  0  0  0  0
  9  7  2  0  0  0  0
 10  4  2  0  0  0  0
 10  2  1  0  0  0  0
 11 15  1  0  0  0  0
 13 15  1  0  0  0  0
 14 20  1  0  0  0  0
 15  4  1  0  0  0  0
 16 19  1  0  0  0  0
 18 11  1  1  0  0  0
 19 12  1  6  0  0  0
 19 18  1  0  0  0  0
 20 22  1  6  0  0  0
 20 18  1  0  0  0  0
 20 13  1  0  0  0  0
 21 17  1  6  0  0  0
 21 16  1  0  0  0  0
 21 14  1  0  0  0  0
 23 28  1  0  0  0  0
 23 27  1  0  0  0  0
 24 28  2  0  0  0  0
 25 27  1  0  0  0  0
 25  5  1  1  0  0  0
 26 25  1  0  0  0  0
 28 31  1  0  0  0  0
 29 30  1  6  0  0  0
 29 26  1  0  0  0  0
 29 23  1  0  0  0  0
 31 35  1  0  0  0  0
 33 34  2  0  0  0  0
 33 32  2  0  0  0  0
 35 33  1  0  0  0  0
M  END
>  <MODEL>
4

>  <REMARK>
 VINA RESULT:      -8.1      3.681      5.650
  Name = 
  3 active torsions:
  status: ('A' for Active; 'I' for Inactive)
    1  A    between atoms: C_3  and  C_17
    2  A    between atoms: C_5  and  C_24
    3  A    between atoms: N_13  and  C_21
                            x       y       z     vdW  Elec       q    Type
                         _______ _______ _______ _____ _____    ______ ____

>  <TORSDO>
F 3

$$$$
=
 OpenBabel11062422013D

 35 39  0  0  1  0  0  0  0  0999 V2000
  188.6150  172.4850  141.9210 C   0  0  0  0  0  3  0  0  0  0  0  0
  190.6250  173.7870  141.5930 C   0  0  0  0  0  0  0  0  0  0  0  0
  190.5640  171.4740  140.9780 N   0  0  0  0  0  0  0  0  0  0  0  0
  188.7000  174.8220  142.5410 C   0  0  0  0  0  0  0  0  0  0  0  0
  191.9610  173.8440  141.1530 C   0  0  0  0  0  0  0  0  0  0  0  0
  189.9390  172.5640  141.4910 C   0  0  0  0  0  0  0  0  0  0  0  0
  191.8540  171.5490  140.5580 C   0  0  0  0  0  3  0  0  0  0  0  0
  187.9900  173.6160  142.4500 C   0  0  0  0  0  3  0  0  0  0  0  0
  192.5370  172.7210  140.6460 N   0  0  0  0  0  0  0  0  0  0  0  0
  189.9910  174.8740  142.1110 N   0  0  0  0  0  0  0  0  0  0  0  0
  188.7220  176.8780  144.0390 C   0  0  0  0  0  2  0  0  0  0  0  0
  186.9610  176.3770  146.2250 O   0  0  0  0  0  1  0  0  0  0  0  0
  186.7240  176.3870  142.7500 C   0  0  0  0  0  2  0  0  0  0  0  0
  185.1110  177.6190  144.1950 C   0  0  0  0  0  2  0  0  0  0  0  0
  188.0810  175.9980  143.0820 N   0  0  0  0  0  0  0  0  0  0  0  0
  186.1100  178.6130  146.3270 C   0  0  0  0  0  2  0  0  0  0  0  0
  183.7550  178.6210  145.8890 O   0  0  0  0  0  1  0  0  0  0  0  0
  187.6560  177.8800  144.4540 C   0  0  2  0  0  3  0  0  0  0  0  0
  187.2820  177.7070  145.9370 C   0  0  2  0  0  3  0  0  0  0  0  0
  186.4670  177.6870  143.4860 C   0  0  1  0  0  0  0  0  0  0  0  0
  184.9990  178.7010  145.2690 C   0  0  2  0  0  3  0  0  0  0  0  0
  186.4580  178.8220  142.4770 C   0  0  0  0  0  1  0  0  0  0  0  0
  194.4210  175.6150  142.8370 N   0  0  0  0  0  0  0  0  0  0  0  0
  196.2800  175.7910  144.2380 O   0  0  0  0  0  0  0  0  0  0  0  0
  192.7840  175.1020  141.2050 C   0  0  2  0  0  3  0  0  0  0  0  0
  194.1660  174.9080  140.5840 C   0  0  0  0  0  2  0  0  0  0  0  0
  192.9870  175.5750  142.6330 C   0  0  0  0  0  2  0  0  0  0  0  0
  195.0270  175.8630  144.1150 C   0  0  0  0  0  0  0  0  0  0  0  0
  195.1840  175.2570  141.6560 C   0  0  1  0  0  3  0  0  0  0  0  0
  195.9430  176.3500  141.2350 O   0  0  0  0  0  1  0  0  0  0  0  0
  194.1930  176.2640  145.2960 C   0  0  0  0  0  2  0  0  0  0  0  0
  192.3400  175.0080  147.1030 O   0  0  0  0  0  0  0  0  0  0  0  0
  193.3780  174.8200  146.0210 P   0  0  0  0  0  0  0  0  0  0  0  0
  193.9580  173.2440  145.8440 O   0  0  0  0  0  0  0  0  0  0  0  0
  194.7470  175.8160  146.4360 O   0  0  0  0  0  0  0  0  0  0  0  0
  1  8  1  0  0  0  0
  2 10  2  0  0  0  0
  3  6  1  0  0  0  0
  4 15  1  0  0  0  0
  5  2  1  0  0  0  0
  6  2  1  0  0  0  0
  6  1  2  0  0  0  0
  7  9  1  0  0  0  0
  7  3  2  0  0  0  0
  8  4  2  0  0  0  0
  9  5  2  0  0  0  0
 10  4  1  0  0  0  0
 13 15  1  0  0  0  0
 13 20  1  0  0  0  0
 14 21  1  0  0  0  0
 15 11  1  0  0  0  0
 18 11  1  6  0  0  0
 18 19  1  0  0  0  0
 19 12  1  6  0  0  0
 19 16  1  0  0  0  0
 20 22  1  6  0  0  0
 20 14  1  0  0  0  0
 20 18  1  0  0  0  0
 21 17  1  1  0  0  0
 21 16  1  0  0  0  0
 23 28  1  0  0  0  0
 25  5  1  1  0  0  0
 25 27  1  0  0  0  0
 26 25  1  0  0  0  0
 26 29  1  0  0  0  0
 27 23  1  0  0  0  0
 28 24  2  0  0  0  0
 28 31  1  0  0  0  0
 29 30  1  6  0  0  0
 29 23  1  0  0  0  0
 31 35  1  0  0  0  0
 33 35  1  0  0  0  0
 33 32  2  0  0  0  0
 34 33  2  0  0  0  0
M  END
>  <MODEL>
5

>  <REMARK>
 VINA RESULT:      -8.1      3.338      7.721
  Name = 
  3 active torsions:
  status: ('A' for Active; 'I' for Inactive)
    1  A    between atoms: C_3  and  C_17
    2  A    between atoms: C_5  and  C_24
    3  A    between atoms: N_13  and  C_21
                            x       y       z     vdW  Elec       q    Type
                         _______ _______ _______ _____ _____    ______ ____

>  <TORSDO>
F 3

$$$$
=
 OpenBabel11062422013D

 35 39  0  0  1  0  0  0  0  0999 V2000
  188.7150  173.7530  140.2620 C   0  0  0  0  0  3  0  0  0  0  0  0
  189.6630  173.1610  142.4060 C   0  0  0  0  0  0  0  0  0  0  0  0
  190.0690  171.7960  140.4810 N   0  0  0  0  0  0  0  0  0  0  0  0
  188.3130  175.1160  142.2210 C   0  0  0  0  0  0  0  0  0  0  0  0
  190.4470  172.2750  143.1690 C   0  0  0  0  0  0  0  0  0  0  0  0
  189.4880  172.8890  141.0370 C   0  0  0  0  0  0  0  0  0  0  0  0
  190.8220  170.9530  141.2340 C   0  0  0  0  0  3  0  0  0  0  0  0
  188.1230  174.8720  140.8530 C   0  0  0  0  0  3  0  0  0  0  0  0
  191.0060  171.1960  142.5590 N   0  0  0  0  0  0  0  0  0  0  0  0
  189.0750  174.2590  142.9550 N   0  0  0  0  0  0  0  0  0  0  0  0
  188.4180  177.1320  143.7680 C   0  0  0  0  0  2  0  0  0  0  0  0
  186.8910  176.5180  146.0970 O   0  0  0  0  0  1  0  0  0  0  0  0
  186.3210  176.6090  142.6620 C   0  0  0  0  0  2  0  0  0  0  0  0
  184.8180  177.7500  144.2890 C   0  0  0  0  0  2  0  0  0  0  0  0
  187.7140  176.2560  142.8520 N   0  0  0  0  0  0  0  0  0  0  0  0
  185.9870  178.7230  146.3430 C   0  0  0  0  0  2  0  0  0  0  0  0
  183.6020  178.6650  146.1330 O   0  0  0  0  0  1  0  0  0  0  0  0
  187.3670  178.0880  144.3110 C   0  0  2  0  0  3  0  0  0  0  0  0
  187.1430  177.8650  145.8170 C   0  0  2  0  0  3  0  0  0  0  0  0
  186.0970  177.8810  143.4560 C   0  0  1  0  0  0  0  0  0  0  0  0
  184.7780  178.8000  145.3990 C   0  0  2  0  0  3  0  0  0  0  0  0
  185.9570  179.0400  142.4850 C   0  0  0  0  0  1  0  0  0  0  0  0
  191.8710  174.3040  145.5930 N   0  0  0  0  0  0  0  0  0  0  0  0
  192.6420  176.3470  146.4190 O   0  0  0  0  0  0  0  0  0  0  0  0
  190.7100  172.4760  144.6370 C   0  0  2  0  0  3  0  0  0  0  0  0
  189.6910  173.4160  145.2780 C   0  0  0  0  0  2  0  0  0  0  0  0
  192.0890  173.0630  144.8780 C   0  0  0  0  0  2  0  0  0  0  0  0
  192.9200  175.2440  145.8740 C   0  0  0  0  0  0  0  0  0  0  0  0
  190.4750  174.5650  145.8880 C   0  0  1  0  0  3  0  0  0  0  0  0
  190.2780  174.5780  147.2690 O   0  0  0  0  0  1  0  0  0  0  0  0
  194.3520  174.9080  145.5800 C   0  0  0  0  0  2  0  0  0  0  0  0
  196.0860  174.8530  143.2860 O   0  0  0  0  0  0  0  0  0  0  0  0
  194.7560  175.2840  143.8570 P   0  0  0  0  0  0  0  0  0  0  0  0
  193.9070  176.4160  142.9330 O   0  0  0  0  0  0  0  0  0  0  0  0
  195.0710  176.0310  145.4010 O   0  0  0  0  0  0  0  0  0  0  0  0
  1  8  2  0  0  0  0
  1  6  1  0  0  0  0
  2 10  1  0  0  0  0
  2  5  1  0  0  0  0
  3  6  1  0  0  0  0
  3  7  2  0  0  0  0
  4 15  1  0  0  0  0
  4 10  2  0  0  0  0
  6  2  2  0  0  0  0
  7  9  1  0  0  0  0
  8  4  1  0  0  0  0
  9  5  2  0  0  0  0
 13 15  1  0  0  0  0
 13 20  1  0  0  0  0
 14 21  1  0  0  0  0
 15 11  1  0  0  0  0
 18 11  1  6  0  0  0
 18 19  1  0  0  0  0
 19 12  1  6  0  0  0
 19 16  1  0  0  0  0
 20 22  1  6  0  0  0
 20 14  1  0  0  0  0
 20 18  1  0  0  0  0
 21 17  1  1  0  0  0
 21 16  1  0  0  0  0
 23 28  1  0  0  0  0
 23 29  1  0  0  0  0
 25  5  1  6  0  0  0
 25 27  1  0  0  0  0
 25 26  1  0  0  0  0
 26 29  1  0  0  0  0
 27 23  1  0  0  0  0
 28 24  2  0  0  0  0
 29 30  1  1  0  0  0
 31 28  1  0  0  0  0
 32 33  2  0  0  0  0
 33 35  1  0  0  0  0
 34 33  2  0  0  0  0
 35 31  1  0  0  0  0
M  END
>  <MODEL>
6

>  <REMARK>
 VINA RESULT:      -7.9      3.251      7.723
  Name = 
  3 active torsions:
  status: ('A' for Active; 'I' for Inactive)
    1  A    between atoms: C_3  and  C_17
    2  A    between atoms: C_5  and  C_24
    3  A    between atoms: N_13  and  C_21
                            x       y       z     vdW  Elec       q    Type
                         _______ _______ _______ _____ _____    ______ ____

>  <TORSDO>
F 3

$$$$
=
 OpenBabel11062422013D

 35 39  0  0  1  0  0  0  0  0999 V2000
  190.5870  176.8100  147.7090 C   0  0  0  0  0  3  0  0  0  0  0  0
  189.8160  177.0470  145.4300 C   0  0  0  0  0  0  0  0  0  0  0  0
  188.3450  177.5050  147.2630 N   0  0  0  0  0  0  0  0  0  0  0  0
  192.0550  176.3470  145.8420 C   0  0  0  0  0  0  0  0  0  0  0  0
  188.7720  177.3700  144.5420 C   0  0  0  0  0  0  0  0  0  0  0  0
  189.5670  177.1260  146.8120 C   0  0  0  0  0  0  0  0  0  0  0  0
  187.3500  177.8130  146.3900 C   0  0  0  0  0  3  0  0  0  0  0  0
  191.8370  176.4180  147.2260 C   0  0  0  0  0  3  0  0  0  0  0  0
  187.5670  177.7450  145.0500 N   0  0  0  0  0  0  0  0  0  0  0  0
  191.0440  176.6640  144.9870 N   0  0  0  0  0  0  0  0  0  0  0  0
  194.3290  176.8750  144.8310 C   0  0  0  0  0  2  0  0  0  0  0  0
  194.2750  176.0530  142.1010 O   0  0  0  0  0  1  0  0  0  0  0  0
  193.7170  174.5540  145.1950 C   0  0  0  0  0  2  0  0  0  0  0  0
  195.2400  173.5600  143.4930 C   0  0  0  0  0  2  0  0  0  0  0  0
  193.3300  175.9460  145.3220 N   0  0  0  0  0  0  0  0  0  0  0  0
  196.5320  175.2520  142.0780 C   0  0  0  0  0  2  0  0  0  0  0  0
  196.5690  172.9010  141.6170 O   0  0  0  0  0  1  0  0  0  0  0  0
  195.4310  176.0150  144.2320 C   0  0  2  0  0  3  0  0  0  0  0  0
  195.5240  176.2170  142.7100 C   0  0  2  0  0  3  0  0  0  0  0  0
  195.1310  174.5580  144.6500 C   0  0  1  0  0  0  0  0  0  0  0  0
  196.4900  173.8280  142.6540 C   0  0  2  0  0  3  0  0  0  0  0  0
  196.0820  174.1540  145.7630 C   0  0  0  0  0  1  0  0  0  0  0  0
  188.7870  175.3970  141.6920 N   0  0  0  0  0  0  0  0  0  0  0  0
  188.1950  173.5070  140.4560 O   0  0  0  0  0  0  0  0  0  0  0  0
  188.9310  177.3330  143.0470 C   0  0  2  0  0  3  0  0  0  0  0  0
  187.5840  177.3430  142.3270 C   0  0  0  0  0  2  0  0  0  0  0  0
  189.6790  176.0890  142.6000 C   0  0  0  0  0  2  0  0  0  0  0  0
  189.0590  174.0880  141.1670 C   0  0  0  0  0  0  0  0  0  0  0  0
  187.5360  176.0970  141.4620 C   0  0  1  0  0  3  0  0  0  0  0  0
  187.4410  176.4670  140.1210 O   0  0  0  0  0  1  0  0  0  0  0  0
  190.3830  173.4250  141.4070 C   0  0  0  0  0  2  0  0  0  0  0  0
  191.6410  171.9010  143.4970 O   0  0  0  0  0  0  0  0  0  0  0  0
  190.3600  172.4950  142.9580 P   0  0  0  0  0  0  0  0  0  0  0  0
  188.9420  171.9160  143.6690 O   0  0  0  0  0  0  0  0  0  0  0  0
  190.2740  172.0920  141.2640 O   0  0  0  0  0  0  0  0  0  0  0  0
  2  6  1  0  0  0  0
  4  8  2  0  0  0  0
  5  9  2  0  0  0  0
  5  2  1  0  0  0  0
  6  3  1  0  0  0  0
  6  1  2  0  0  0  0
  7  3  2  0  0  0  0
  8  1  1  0  0  0  0
  9  7  1  0  0  0  0
 10  2  2  0  0  0  0
 10  4  1  0  0  0  0
 11 15  1  0  0  0  0
 13 15  1  0  0  0  0
 14 20  1  0  0  0  0
 15  4  1  0  0  0  0
 16 21  1  0  0  0  0
 16 19  1  0  0  0  0
 18 20  1  0  0  0  0
 18 11  1  6  0  0  0
 19 12  1  6  0  0  0
 19 18  1  0  0  0  0
 20 13  1  0  0  0  0
 20 22  1  1  0  0  0
 21 17  1  6  0  0  0
 21 14  1  0  0  0  0
 23 27  1  0  0  0  0
 24 28  2  0  0  0  0
 25  5  1  1  0  0  0
 26 25  1  0  0  0  0
 27 25  1  0  0  0  0
 28 31  1  0  0  0  0
 28 23  1  0  0  0  0
 29 30  1  6  0  0  0
 29 23  1  0  0  0  0
 29 26  1  0  0  0  0
 33 32  2  0  0  0  0
 33 34  2  0  0  0  0
 35 31  1  0  0  0  0
 35 33  1  0  0  0  0
M  END
>  <MODEL>
7

>  <REMARK>
 VINA RESULT:      -7.8      1.688      2.491
  Name = 
  3 active torsions:
  status: ('A' for Active; 'I' for Inactive)
    1  A    between atoms: C_3  and  C_17
    2  A    between atoms: C_5  and  C_24
    3  A    between atoms: N_13  and  C_21
                            x       y       z     vdW  Elec       q    Type
                         _______ _______ _______ _____ _____    ______ ____

>  <TORSDO>
F 3

$$$$
=
 OpenBabel11062422013D

 35 39  0  0  1  0  0  0  0  0999 V2000
  192.2730  177.0310  144.0840 C   0  0  0  0  0  3  0  0  0  0  0  0
  191.7200  174.7310  143.5850 C   0  0  0  0  0  0  0  0  0  0  0  0
  194.0030  175.4520  143.6090 N   0  0  0  0  0  0  0  0  0  0  0  0
  189.9730  176.2820  144.0490 C   0  0  0  0  0  0  0  0  0  0  0  0
  192.1580  173.4340  143.2560 C   0  0  0  0  0  0  0  0  0  0  0  0
  192.6850  175.7390  143.7580 C   0  0  0  0  0  0  0  0  0  0  0  0
  194.4070  174.1940  143.2920 C   0  0  0  0  0  3  0  0  0  0  0  0
  190.9120  177.3080  144.2300 C   0  0  0  0  0  3  0  0  0  0  0  0
  193.4920  173.2040  143.1200 N   0  0  0  0  0  0  0  0  0  0  0  0
  190.4010  175.0290  143.7350 N   0  0  0  0  0  0  0  0  0  0  0  0
  187.5460  175.8970  143.3920 C   0  0  0  0  0  2  0  0  0  0  0  0
  186.6380  178.2270  142.0220 O   0  0  0  0  0  1  0  0  0  0  0  0
  188.0480  177.5200  145.1270 C   0  0  0  0  0  2  0  0  0  0  0  0
  185.9760  178.8820  144.8880 C   0  0  0  0  0  2  0  0  0  0  0  0
  188.5690  176.5420  144.1910 N   0  0  0  0  0  0  0  0  0  0  0  0
  184.4380  178.1850  142.9690 C   0  0  0  0  0  2  0  0  0  0  0  0
  184.0590  180.1660  144.2620 O   0  0  0  0  0  1  0  0  0  0  0  0
  186.2410  176.5860  143.7620 C   0  0  2  0  0  3  0  0  0  0  0  0
  185.6740  177.3730  142.5680 C   0  0  2  0  0  3  0  0  0  0  0  0
  186.5390  177.4620  144.9990 C   0  0  1  0  0  0  0  0  0  0  0  0
  184.5480  178.8640  144.3430 C   0  0  2  0  0  3  0  0  0  0  0  0
  185.9730  176.7840  146.2350 C   0  0  0  0  0  1  0  0  0  0  0  0
  190.8110  171.1590  141.0150 N   0  0  0  0  0  0  0  0  0  0  0  0
  190.8380  169.8890  139.0560 O   0  0  0  0  0  0  0  0  0  0  0  0
  191.2150  172.2790  143.0610 C   0  0  2  0  0  3  0  0  0  0  0  0
  191.9410  170.9360  143.0910 C   0  0  0  0  0  2  0  0  0  0  0  0
  190.4880  172.3760  141.7310 C   0  0  0  0  0  2  0  0  0  0  0  0
  190.4440  170.9320  139.6440 C   0  0  0  0  0  0  0  0  0  0  0  0
  191.6470  170.2450  141.7710 C   0  0  1  0  0  3  0  0  0  0  0  0
  190.9530  169.0590  142.0120 O   0  0  0  0  0  1  0  0  0  0  0  0
  189.5470  171.8920  138.9210 C   0  0  0  0  0  2  0  0  0  0  0  0
  189.8430  174.1660  137.1840 O   0  0  0  0  0  0  0  0  0  0  0  0
  190.5150  172.9960  137.8630 P   0  0  0  0  0  0  0  0  0  0  0  0
  192.0480  172.6020  137.2720 O   0  0  0  0  0  0  0  0  0  0  0  0
  189.5050  171.5980  137.6090 O   0  0  0  0  0  0  0  0  0  0  0  0
  1  8  1  0  0  0  0
  2 10  2  0  0  0  0
  2  6  1  0  0  0  0
  3  6  1  0  0  0  0
  4 15  1  0  0  0  0
  4  8  2  0  0  0  0
  5  2  1  0  0  0  0
  6  1  2  0  0  0  0
  7  3  2  0  0  0  0
  9  5  2  0  0  0  0
  9  7  1  0  0  0  0
 10  4  1  0  0  0  0
 11 15  1  0  0  0  0
 14 20  1  0  0  0  0
 15 13  1  0  0  0  0
 16 21  1  0  0  0  0
 18 11  1  6  0  0  0
 18 20  1  0  0  0  0
 19 12  1  1  0  0  0
 19 16  1  0  0  0  0
 19 18  1  0  0  0  0
 20 13  1  0  0  0  0
 20 22  1  1  0  0  0
 21 17  1  6  0  0  0
 21 14  1  0  0  0  0
 23 27  1  0  0  0  0
 23 29  1  0  0  0  0
 24 28  2  0  0  0  0
 25 26  1  0  0  0  0
 25  5  1  6  0  0  0
 27 25  1  0  0  0  0
 28 23  1  0  0  0  0
 29 30  1  1  0  0  0
 29 26  1  0  0  0  0
 31 28  1  0  0  0  0
 32 33  2  0  0  0  0
 34 33  2  0  0  0  0
 35 33  1  0  0  0  0
 35 31  1  0  0  0  0
M  END
>  <MODEL>
8

>  <REMARK>
 VINA RESULT:      -7.6      3.124      7.191
  Name = 
  3 active torsions:
  status: ('A' for Active; 'I' for Inactive)
    1  A    between atoms: C_3  and  C_17
    2  A    between atoms: C_5  and  C_24
    3  A    between atoms: N_13  and  C_21
                            x       y       z     vdW  Elec       q    Type
                         _______ _______ _______ _____ _____    ______ ____

>  <TORSDO>
F 3

$$$$
=
 OpenBabel11062422013D

 35 39  0  0  1  0  0  0  0  0999 V2000
  194.9710  176.8960  145.0410 C   0  0  0  0  0  3  0  0  0  0  0  0
  194.4250  175.7630  142.9760 C   0  0  0  0  0  0  0  0  0  0  0  0
  196.6540  176.5380  143.3830 N   0  0  0  0  0  0  0  0  0  0  0  0
  192.7240  176.1090  144.6080 C   0  0  0  0  0  0  0  0  0  0  0  0
  194.8490  175.2750  141.7260 C   0  0  0  0  0  0  0  0  0  0  0  0
  195.3690  176.4040  143.7990 C   0  0  0  0  0  0  0  0  0  0  0  0
  197.0440  176.0600  142.1730 C   0  0  0  0  0  3  0  0  0  0  0  0
  193.6440  176.7510  145.4510 C   0  0  0  0  0  3  0  0  0  0  0  0
  196.1490  175.4370  141.3610 N   0  0  0  0  0  0  0  0  0  0  0  0
  193.1390  175.6350  143.4010 N   0  0  0  0  0  0  0  0  0  0  0  0
  190.3220  175.4170  144.1380 C   0  0  0  0  0  2  0  0  0  0  0  0
  188.7580  177.7930  143.9390 O   0  0  0  0  0  1  0  0  0  0  0  0
  190.8690  176.3570  146.3090 C   0  0  0  0  0  2  0  0  0  0  0  0
  188.5830  177.1650  146.8820 C   0  0  0  0  0  2  0  0  0  0  0  0
  191.3550  175.9500  145.0050 N   0  0  0  0  0  0  0  0  0  0  0  0
  186.8380  176.8730  145.0380 C   0  0  0  0  0  2  0  0  0  0  0  0
  186.3830  178.0840  147.0550 O   0  0  0  0  0  1  0  0  0  0  0  0
  189.0180  175.5830  144.9030 C   0  0  2  0  0  3  0  0  0  0  0  0
  188.0910  176.5910  144.2020 C   0  0  2  0  0  3  0  0  0  0  0  0
  189.3990  175.9860  146.3450 C   0  0  1  0  0  0  0  0  0  0  0  0
  187.1010  177.0040  146.5460 C   0  0  2  0  0  3  0  0  0  0  0  0
  189.2250  174.7860  147.2590 C   0  0  0  0  0  1  0  0  0  0  0  0
  194.4970  173.8210  138.5980 N   0  0  0  0  0  0  0  0  0  0  0  0
  195.3130  172.7750  136.6770 O   0  0  0  0  0  0  0  0  0  0  0  0
  193.9280  174.5630  140.7730 C   0  0  2  0  0  3  0  0  0  0  0  0
  194.1220  173.0490  140.8120 C   0  0  0  0  0  2  0  0  0  0  0  0
  194.1530  175.0160  139.3410 C   0  0  0  0  0  2  0  0  0  0  0  0
  194.9410  173.8440  137.2320 C   0  0  0  0  0  0  0  0  0  0  0  0
  194.4720  172.6120  139.4010 C   0  0  1  0  0  3  0  0  0  0  0  0
  193.4860  171.7490  138.9240 O   0  0  0  0  0  1  0  0  0  0  0  0
  194.9130  175.1160  136.4380 C   0  0  0  0  0  2  0  0  0  0  0  0
  196.8140  177.0280  135.4340 O   0  0  0  0  0  0  0  0  0  0  0  0
  196.5930  175.6720  136.0620 P   0  0  0  0  0  0  0  0  0  0  0  0
  197.9230  174.6310  136.0160 O   0  0  0  0  0  0  0  0  0  0  0  0
  195.3130  174.8890  135.1740 O   0  0  0  0  0  0  0  0  0  0  0  0
  1  8  1  0  0  0  0
  2 10  2  0  0  0  0
  2  6  1  0  0  0  0
  3  6  1  0  0  0  0
  4 15  1  0  0  0  0
  4  8  2  0  0  0  0
  5  2  1  0  0  0  0
  6  1  2  0  0  0  0
  7  3  2  0  0  0  0
  9  5  2  0  0  0  0
  9  7  1  0  0  0  0
 10  4  1  0  0  0  0
 11 15  1  0  0  0  0
 13 20  1  0  0  0  0
 15 13  1  0  0  0  0
 16 21  1  0  0  0  0
 18 11  1  6  0  0  0
 18 20  1  0  0  0  0
 19 12  1  1  0  0  0
 19 18  1  0  0  0  0
 19 16  1  0  0  0  0
 20 14  1  0  0  0  0
 20 22  1  1  0  0  0
 21 14  1  0  0  0  0
 21 17  1  6  0  0  0
 23 27  1  0  0  0  0
 23 29  1  0  0  0  0
 24 28  2  0  0  0  0
 25 26  1  0  0  0  0
 25  5  1  1  0  0  0
 27 25  1  0  0  0  0
 28 23  1  0  0  0  0
 29 30  1  6  0  0  0
 29 26  1  0  0  0  0
 31 28  1  0  0  0  0
 32 33  2  0  0  0  0
 34 33  2  0  0  0  0
 35 33  1  0  0  0  0
 35 31  1  0  0  0  0
M  END
>  <MODEL>
9

>  <REMARK>
 VINA RESULT:      -7.5      4.855      7.831
  Name = 
  3 active torsions:
  status: ('A' for Active; 'I' for Inactive)
    1  A    between atoms: C_3  and  C_17
    2  A    between atoms: C_5  and  C_24
    3  A    between atoms: N_13  and  C_21
                            x       y       z     vdW  Elec       q    Type
                         _______ _______ _______ _____ _____    ______ ____

>  <TORSDO>
F 3

$$$$
