=
 OpenBabel11062421463D

 48 54  0  0  1  0  0  0  0  0999 V2000
  189.5610  173.8840  142.9770 O   0  0  0  0  0  1  0  0  0  0  0  0
  191.7160  172.8220  143.3660 C   0  0  2  0  0  3  0  0  0  0  0  0
  190.9070  173.8510  142.5900 C   0  0  2  0  0  0  0  0  0  0  0  0
  191.9820  174.3180  143.5660 C   0  0  1  0  0  3  0  0  0  0  0  0
  192.3350  176.2710  147.2640 C   0  0  0  0  0  2  0  0  0  0  0  0
  191.2660  176.8800  146.3410 C   0  0  0  0  0  2  0  0  0  0  0  0
  192.1440  174.2170  146.0770 C   0  0  0  0  0  2  0  0  0  0  0  0
  191.3770  174.8070  144.8800 C   0  0  1  0  0  3  0  0  0  0  0  0
  193.0890  175.1890  146.6250 N   0  0  0  0  0  2  0  0  0  0  0  0
  191.3670  176.3460  144.9110 C   0  0  1  0  0  3  0  0  0  0  0  0
  188.2960  177.3610  143.4080 N   0  0  0  0  0  0  0  0  0  0  0  0
  188.9070  178.4790  141.4860 O   0  0  0  0  0  0  0  0  0  0  0  0
  190.2650  176.9090  144.0710 C   0  0  0  0  0  0  0  0  0  0  0  0
  189.2010  177.8460  142.5380 C   0  0  0  0  0  0  0  0  0  0  0  0
  190.4670  177.5850  142.9140 N   0  0  0  0  0  0  0  0  0  0  0  0
  188.9600  176.7550  144.3750 N   0  0  0  0  0  2  0  0  0  0  0  0
  186.3040  176.0450  142.7530 C   0  0  0  0  0  1  0  0  0  0  0  0
  186.8330  177.3590  143.3110 C   0  0  1  0  0  3  0  0  0  0  0  0
  184.9620  178.3360  147.0610 C   0  0  0  0  0  3  0  0  0  0  0  0
  186.2010  177.7170  144.6220 C   0  0  0  0  0  0  0  0  0  0  0  0
  186.0570  179.0560  145.0240 C   0  0  0  0  0  3  0  0  0  0  0  0
  185.0980  177.0030  146.6630 C   0  0  0  0  0  3  0  0  0  0  0  0
  185.7140  176.6950  145.4440 C   0  0  0  0  0  3  0  0  0  0  0  0
  185.4400  179.3630  146.2420 C   0  0  0  0  0  3  0  0  0  0  0  0
  192.4050  171.0010  142.0060 O   0  0  0  0  0  0  0  0  0  0  0  0
  193.2840  170.9340  143.1050 C   0  0  2  0  0  3  0  0  0  0  0  0
  192.8410  172.2260  142.5370 C   0  0  2  0  0  3  0  0  0  0  0  0
  194.6990  170.6370  142.6270 C   0  0  0  0  0  2  0  0  0  0  0  0
  195.0970  169.3500  145.8830 N   0  0  0  0  0  2  0  0  0  0  0  0
  195.5550  170.2690  143.7490 N   0  0  0  0  0  0  0  0  0  0  0  0
  195.7860  168.8400  143.6570 C   0  0  0  0  0  2  0  0  0  0  0  0
  195.6400  168.2880  145.0540 C   0  0  0  0  0  2  0  0  0  0  0  0
  194.7700  170.4330  144.9640 C   0  0  2  0  0  3  0  0  0  0  0  0
  195.0760  171.7800  145.6030 C   0  0  0  0  0  2  0  0  0  0  0  0
  196.5420  172.0610  145.5600 C   0  0  0  0  0  3  0  0  0  0  0  0
  197.1070  173.0560  144.8670 C   0  0  0  0  0  3  0  0  0  0  0  0
  196.4270  174.0910  144.0580 C   0  0  0  0  0  0  0  0  0  0  0  0
  195.9860  175.2490  144.7110 C   0  0  0  0  0  3  0  0  0  0  0  0
  196.1740  173.9420  142.6860 C   0  0  0  0  0  3  0  0  0  0  0  0
  195.0690  176.0940  142.6350 C   0  0  0  0  0  3  0  0  0  0  0  0
  195.5000  174.9400  141.9770 C   0  0  0  0  0  3  0  0  0  0  0  0
  195.3110  176.2470  144.0030 C   0  0  0  0  0  3  0  0  0  0  0  0
  191.1810  173.9130  141.2140 O   0  0  0  0  0  0  0  0  0  0  0  0
  189.9520  173.7880  140.5590 C   0  0  0  0  0  2  0  0  0  0  0  0
  189.8640  172.4300  139.8910 C   0  0  2  0  0  3  0  0  0  0  0  0
  191.0330  172.1790  139.1710 O   0  0  0  0  0  1  0  0  0  0  0  0
  188.6740  172.4030  138.9530 C   0  0  0  0  0  2  0  0  0  0  0  0
  188.3060  173.8190  138.5420 C   0  0  0  0  0  1  0  0  0  0  0  0
  2 27  1  6  0  0  0
  2  4  1  0  0  0  0
  3  1  1  1  0  0  0
  3  2  1  0  0  0  0
  3  4  1  0  0  0  0
  4  8  1  1  0  0  0
  6  5  1  0  0  0  0
  7  9  1  0  0  0  0
  8 10  1  0  0  0  0
  8  7  1  1  0  0  0
  9  5  1  0  0  0  0
 10 13  1  6  0  0  0
 10  6  1  0  0  0  0
 11 16  1  0  0  0  0
 12 14  2  0  0  0  0
 13 16  1  0  0  0  0
 14 15  1  0  0  0  0
 14 11  1  0  0  0  0
 15 13  2  0  0  0  0
 18 17  1  1  0  0  0
 18 11  1  0  0  0  0
 18 20  1  0  0  0  0
 20 21  2  0  0  0  0
 20 23  1  0  0  0  0
 21 24  1  0  0  0  0
 22 19  1  0  0  0  0
 23 22  2  0  0  0  0
 24 19  2  0  0  0  0
 25 26  1  0  0  0  0
 26 28  1  6  0  0  0
 27 25  1  6  0  0  0
 27 26  1  0  0  0  0
 28 30  1  0  0  0  0
 30 33  1  0  0  0  0
 31 30  1  0  0  0  0
 31 32  1  0  0  0  0
 32 29  1  0  0  0  0
 33 34  1  1  0  0  0
 33 29  1  0  0  0  0
 35 34  1  0  0  0  0
 36 35  2  0  0  0  0
 37 38  1  0  0  0  0
 37 36  1  0  0  0  0
 39 37  2  0  0  0  0
 40 42  1  0  0  0  0
 41 40  2  0  0  0  0
 41 39  1  0  0  0  0
 42 38  2  0  0  0  0
 43  3  1  0  0  0  0
 44 43  1  0  0  0  0
 45 46  1  6  0  0  0
 45 44  1  0  0  0  0
 47 45  1  0  0  0  0
 48 47  1  0  0  0  0
M  END
>  <MODEL>
1

>  <REMARK>
 VINA RESULT:      -6.9      0.000      0.000
  Name = 
  14 active torsions:
  status: ('A' for Active; 'I' for Inactive)
    1  A    between atoms: C_1  and  C_4
    2  A    between atoms: C_2  and  C_48
    3  A    between atoms: O_3  and  C_11
    4  A    between atoms: O_3  and  C_30
    5  A    between atoms: C_4  and  C_11
    6  A    between atoms: C_5  and  C_25
    7  A    between atoms: N_7  and  C_32
    8  A    between atoms: N_9  and  C_46
    9  A    between atoms: C_20  and  C_46
   10  A    between atoms: C_22  and  C_42
   11  A    between atoms: C_24  and  C_48
   12  A    between atoms: C_26  and  C_41
   13  A    between atoms: C_29  and  C_44
   14  A    between atoms: C_32  and  C_34
                            x       y       z     vdW  Elec       q    Type
                         _______ _______ _______ _____ _____    ______ ____

>  <TORSDO>
F 14

$$$$
=
 OpenBabel11062421463D

 48 54  0  0  1  0  0  0  0  0999 V2000
  192.5510  175.8200  142.7510 O   0  0  0  0  0  1  0  0  0  0  0  0
  193.3940  173.9320  141.4680 C   0  0  2  0  0  3  0  0  0  0  0  0
  193.0420  174.5110  142.8310 C   0  0  2  0  0  0  0  0  0  0  0  0
  192.2160  173.3610  142.2630 C   0  0  1  0  0  3  0  0  0  0  0  0
  188.5470  172.6250  140.3610 C   0  0  0  0  0  2  0  0  0  0  0  0
  188.4070  173.3040  141.7350 C   0  0  0  0  0  2  0  0  0  0  0  0
  190.7670  173.4680  140.2050 C   0  0  0  0  0  2  0  0  0  0  0  0
  190.8860  173.8510  141.6910 C   0  0  1  0  0  3  0  0  0  0  0  0
  189.9330  172.2790  140.0350 N   0  0  0  0  0  2  0  0  0  0  0  0
  189.7190  173.2860  142.5210 C   0  0  1  0  0  3  0  0  0  0  0  0
  189.2000  175.6220  145.1660 N   0  0  0  0  0  0  0  0  0  0  0  0
  189.5820  174.4330  147.1040 O   0  0  0  0  0  0  0  0  0  0  0  0
  189.5550  174.0190  143.8150 C   0  0  0  0  0  0  0  0  0  0  0  0
  189.5150  174.5040  145.8460 C   0  0  0  0  0  0  0  0  0  0  0  0
  189.7500  173.4570  145.0330 N   0  0  0  0  0  0  0  0  0  0  0  0
  189.2360  175.3280  143.8790 N   0  0  0  0  0  2  0  0  0  0  0  0
  189.8270  178.0090  144.9610 C   0  0  0  0  0  1  0  0  0  0  0  0
  188.9670  176.9760  145.6770 C   0  0  1  0  0  3  0  0  0  0  0  0
  184.7660  177.9070  145.5930 C   0  0  0  0  0  3  0  0  0  0  0  0
  187.5100  177.3260  145.6440 C   0  0  0  0  0  0  0  0  0  0  0  0
  186.9870  178.1940  144.6700 C   0  0  0  0  0  3  0  0  0  0  0  0
  185.2810  177.0390  146.5600 C   0  0  0  0  0  3  0  0  0  0  0  0
  186.6500  176.7470  146.5840 C   0  0  0  0  0  3  0  0  0  0  0  0
  185.6190  178.4840  144.6470 C   0  0  0  0  0  3  0  0  0  0  0  0
  195.0870  172.8010  140.2470 O   0  0  0  0  0  0  0  0  0  0  0  0
  194.2790  171.7510  140.7260 C   0  0  2  0  0  3  0  0  0  0  0  0
  194.5570  172.9560  141.5370 C   0  0  2  0  0  3  0  0  0  0  0  0
  195.1490  170.6030  141.2210 C   0  0  0  0  0  2  0  0  0  0  0  0
  192.0230  169.0990  141.8380 N   0  0  0  0  0  2  0  0  0  0  0  0
  194.3410  169.4160  141.4700 N   0  0  0  0  0  0  0  0  0  0  0  0
  193.7580  169.0230  140.2020 C   0  0  0  0  0  2  0  0  0  0  0  0
  192.3140  168.6780  140.4780 C   0  0  0  0  0  2  0  0  0  0  0  0
  193.2050  169.8280  142.2820 C   0  0  2  0  0  3  0  0  0  0  0  0
  193.4830  169.5400  143.7500 C   0  0  0  0  0  2  0  0  0  0  0  0
  193.5510  170.8110  144.5310 C   0  0  0  0  0  3  0  0  0  0  0  0
  194.3300  171.0080  145.6000 C   0  0  0  0  0  3  0  0  0  0  0  0
  195.2970  170.0620  146.1970 C   0  0  0  0  0  0  0  0  0  0  0  0
  196.6240  170.1120  145.7540 C   0  0  0  0  0  3  0  0  0  0  0  0
  194.9320  169.0990  147.1500 C   0  0  0  0  0  3  0  0  0  0  0  0
  197.2050  168.2710  147.2160 C   0  0  0  0  0  3  0  0  0  0  0  0
  195.8820  168.2090  147.6600 C   0  0  0  0  0  3  0  0  0  0  0  0
  197.5750  169.2230  146.2610 C   0  0  0  0  0  3  0  0  0  0  0  0
  193.9610  174.2310  143.8550 O   0  0  0  0  0  0  0  0  0  0  0  0
  193.5370  174.9500  144.9760 C   0  0  0  0  0  2  0  0  0  0  0  0
  194.7420  175.4800  145.7290 C   0  0  2  0  0  3  0  0  0  0  0  0
  194.8070  176.8680  145.6020 O   0  0  0  0  0  1  0  0  0  0  0  0
  196.0040  174.8590  145.1640 C   0  0  0  0  0  2  0  0  0  0  0  0
  196.5780  173.8590  146.1530 C   0  0  0  0  0  1  0  0  0  0  0  0
  2 27  1  1  0  0  0
  2  4  1  0  0  0  0
  2  3  1  0  0  0  0
  3  1  1  1  0  0  0
  3 43  1  0  0  0  0
  4  8  1  6  0  0  0
  4  3  1  0  0  0  0
  5  6  1  0  0  0  0
  6 10  1  0  0  0  0
  8  7  1  6  0  0  0
  8 10  1  0  0  0  0
  9  7  1  0  0  0  0
  9  5  1  0  0  0  0
 10 13  1  1  0  0  0
 11 18  1  0  0  0  0
 11 14  1  0  0  0  0
 13 16  1  0  0  0  0
 13 15  2  0  0  0  0
 14 12  2  0  0  0  0
 15 14  1  0  0  0  0
 16 11  1  0  0  0  0
 18 17  1  6  0  0  0
 19 22  1  0  0  0  0
 20 18  1  0  0  0  0
 20 23  1  0  0  0  0
 21 20  2  0  0  0  0
 22 23  2  0  0  0  0
 24 21  1  0  0  0  0
 24 19  2  0  0  0  0
 25 26  1  0  0  0  0
 26 28  1  1  0  0  0
 26 27  1  0  0  0  0
 27 25  1  6  0  0  0
 28 30  1  0  0  0  0
 29 33  1  0  0  0  0
 30 33  1  0  0  0  0
 31 32  1  0  0  0  0
 31 30  1  0  0  0  0
 32 29  1  0  0  0  0
 33 34  1  1  0  0  0
 34 35  1  0  0  0  0
 35 36  2  0  0  0  0
 36 37  1  0  0  0  0
 37 39  1  0  0  0  0
 38 37  2  0  0  0  0
 38 42  1  0  0  0  0
 39 41  2  0  0  0  0
 40 41  1  0  0  0  0
 42 40  2  0  0  0  0
 43 44  1  0  0  0  0
 44 45  1  0  0  0  0
 45 46  1  6  0  0  0
 47 45  1  0  0  0  0
 47 48  1  0  0  0  0
M  END
>  <MODEL>
2

>  <REMARK>
 VINA RESULT:      -6.8      2.477      5.243
  Name = 
  14 active torsions:
  status: ('A' for Active; 'I' for Inactive)
    1  A    between atoms: C_1  and  C_4
    2  A    between atoms: C_2  and  C_48
    3  A    between atoms: O_3  and  C_11
    4  A    between atoms: O_3  and  C_30
    5  A    between atoms: C_4  and  C_11
    6  A    between atoms: C_5  and  C_25
    7  A    between atoms: N_7  and  C_32
    8  A    between atoms: N_9  and  C_46
    9  A    between atoms: C_20  and  C_46
   10  A    between atoms: C_22  and  C_42
   11  A    between atoms: C_24  and  C_48
   12  A    between atoms: C_26  and  C_41
   13  A    between atoms: C_29  and  C_44
   14  A    between atoms: C_32  and  C_34
                            x       y       z     vdW  Elec       q    Type
                         _______ _______ _______ _____ _____    ______ ____

>  <TORSDO>
F 14

$$$$
=
 OpenBabel11062421463D

 48 54  0  0  1  0  0  0  0  0999 V2000
  187.4760  172.6090  142.3510 O   0  0  0  0  0  1  0  0  0  0  0  0
  188.9830  172.7750  140.4480 C   0  0  2  0  0  3  0  0  0  0  0  0
  188.2120  173.4900  141.5470 C   0  0  2  0  0  0  0  0  0  0  0  0
  189.7360  173.4570  141.5950 C   0  0  1  0  0  3  0  0  0  0  0  0
  192.8450  171.1680  143.2430 C   0  0  0  0  0  2  0  0  0  0  0  0
  192.1290  172.0680  144.2650 C   0  0  0  0  0  2  0  0  0  0  0  0
  190.9040  171.2420  141.8670 C   0  0  0  0  0  2  0  0  0  0  0  0
  190.2470  172.4250  142.5990 C   0  0  1  0  0  3  0  0  0  0  0  0
  192.3610  171.3660  141.8730 N   0  0  0  0  0  2  0  0  0  0  0  0
  191.2170  173.0940  143.5890 C   0  0  1  0  0  3  0  0  0  0  0  0
  189.6600  175.5830  145.6140 N   0  0  0  0  0  0  0  0  0  0  0  0
  188.8660  174.4500  147.4580 O   0  0  0  0  0  0  0  0  0  0  0  0
  190.4890  173.8960  144.6210 C   0  0  0  0  0  0  0  0  0  0  0  0
  189.4620  174.4710  146.3460 C   0  0  0  0  0  0  0  0  0  0  0  0
  189.9720  173.3720  145.7590 N   0  0  0  0  0  0  0  0  0  0  0  0
  190.3200  175.2300  144.5260 N   0  0  0  0  0  2  0  0  0  0  0  0
  189.9190  177.9490  144.9300 C   0  0  0  0  0  1  0  0  0  0  0  0
  189.3390  176.9740  145.9470 C   0  0  1  0  0  3  0  0  0  0  0  0
  185.1120  177.4920  146.5700 C   0  0  0  0  0  3  0  0  0  0  0  0
  187.8640  177.1610  146.1380 C   0  0  0  0  0  0  0  0  0  0  0  0
  186.9350  176.6550  145.2120 C   0  0  0  0  0  3  0  0  0  0  0  0
  186.0320  177.9920  147.4960 C   0  0  0  0  0  3  0  0  0  0  0  0
  187.4050  177.8250  147.2810 C   0  0  0  0  0  3  0  0  0  0  0  0
  185.5630  176.8220  145.4290 C   0  0  0  0  0  3  0  0  0  0  0  0
  188.5960  172.9020  138.1090 O   0  0  0  0  0  0  0  0  0  0  0  0
  190.0010  172.9580  138.2070 C   0  0  2  0  0  3  0  0  0  0  0  0
  189.1220  173.6210  139.1940 C   0  0  2  0  0  3  0  0  0  0  0  0
  190.5520  174.0040  137.2460 C   0  0  0  0  0  2  0  0  0  0  0  0
  193.5950  172.4050  138.0220 N   0  0  0  0  0  2  0  0  0  0  0  0
  192.0100  173.9850  137.2470 N   0  0  0  0  0  0  0  0  0  0  0  0
  192.4270  173.2010  136.1000 C   0  0  0  0  0  2  0  0  0  0  0  0
  193.5440  172.3020  136.5740 C   0  0  0  0  0  2  0  0  0  0  0  0
  192.4320  173.2000  138.3980 C   0  0  2  0  0  3  0  0  0  0  0  0
  192.7750  174.1220  139.5590 C   0  0  0  0  0  2  0  0  0  0  0  0
  194.0940  174.7840  139.3330 C   0  0  0  0  0  3  0  0  0  0  0  0
  194.8910  175.2460  140.3020 C   0  0  0  0  0  3  0  0  0  0  0  0
  194.6740  175.1650  141.7630 C   0  0  0  0  0  0  0  0  0  0  0  0
  193.8440  176.1230  142.3580 C   0  0  0  0  0  3  0  0  0  0  0  0
  195.2930  174.2010  142.5730 C   0  0  0  0  0  3  0  0  0  0  0  0
  194.2410  175.1440  144.5370 C   0  0  0  0  0  3  0  0  0  0  0  0
  195.0760  174.1880  143.9540 C   0  0  0  0  0  3  0  0  0  0  0  0
  193.6260  176.1120  143.7390 C   0  0  0  0  0  3  0  0  0  0  0  0
  187.5810  174.6820  141.1570 O   0  0  0  0  0  0  0  0  0  0  0  0
  188.1960  175.7100  141.8770 C   0  0  0  0  0  2  0  0  0  0  0  0
  187.8060  177.0510  141.2870 C   0  0  2  0  0  3  0  0  0  0  0  0
  188.6780  178.0410  141.7410 O   0  0  0  0  0  1  0  0  0  0  0  0
  186.3880  177.3930  141.7010 C   0  0  0  0  0  2  0  0  0  0  0  0
  186.3530  178.7670  142.3480 C   0  0  0  0  0  1  0  0  0  0  0  0
  2 27  1  6  0  0  0
  2  3  1  0  0  0  0
  2  4  1  0  0  0  0
  3  4  1  0  0  0  0
  3  1  1  1  0  0  0
  4  8  1  1  0  0  0
  5  6  1  0  0  0  0
  7  9  1  0  0  0  0
  8  7  1  6  0  0  0
  8 10  1  0  0  0  0
  9  5  1  0  0  0  0
 10  6  1  0  0  0  0
 10 13  1  1  0  0  0
 11 18  1  0  0  0  0
 11 14  1  0  0  0  0
 13 15  2  0  0  0  0
 14 12  2  0  0  0  0
 15 14  1  0  0  0  0
 16 13  1  0  0  0  0
 16 11  1  0  0  0  0
 18 17  1  6  0  0  0
 18 20  1  0  0  0  0
 19 22  1  0  0  0  0
 20 23  1  0  0  0  0
 21 24  1  0  0  0  0
 21 20  2  0  0  0  0
 23 22  2  0  0  0  0
 24 19  2  0  0  0  0
 25 26  1  0  0  0  0
 26 28  1  6  0  0  0
 26 27  1  0  0  0  0
 27 25  1  6  0  0  0
 28 30  1  0  0  0  0
 29 33  1  0  0  0  0
 30 33  1  0  0  0  0
 31 32  1  0  0  0  0
 31 30  1  0  0  0  0
 32 29  1  0  0  0  0
 33 34  1  1  0  0  0
 35 34  1  0  0  0  0
 35 36  2  0  0  0  0
 36 37  1  0  0  0  0
 37 38  2  0  0  0  0
 37 39  1  0  0  0  0
 38 42  1  0  0  0  0
 39 41  2  0  0  0  0
 41 40  1  0  0  0  0
 42 40  2  0  0  0  0
 43  3  1  0  0  0  0
 43 44  1  0  0  0  0
 45 47  1  0  0  0  0
 45 46  1  1  0  0  0
 45 44  1  0  0  0  0
 47 48  1  0  0  0  0
M  END
>  <MODEL>
3

>  <REMARK>
 VINA RESULT:      -6.8      2.603      5.142
  Name = 
  14 active torsions:
  status: ('A' for Active; 'I' for Inactive)
    1  A    between atoms: C_1  and  C_4
    2  A    between atoms: C_2  and  C_48
    3  A    between atoms: O_3  and  C_11
    4  A    between atoms: O_3  and  C_30
    5  A    between atoms: C_4  and  C_11
    6  A    between atoms: C_5  and  C_25
    7  A    between atoms: N_7  and  C_32
    8  A    between atoms: N_9  and  C_46
    9  A    between atoms: C_20  and  C_46
   10  A    between atoms: C_22  and  C_42
   11  A    between atoms: C_24  and  C_48
   12  A    between atoms: C_26  and  C_41
   13  A    between atoms: C_29  and  C_44
   14  A    between atoms: C_32  and  C_34
                            x       y       z     vdW  Elec       q    Type
                         _______ _______ _______ _____ _____    ______ ____

>  <TORSDO>
F 14

$$$$
=
 OpenBabel11062421463D

 48 54  0  0  1  0  0  0  0  0999 V2000
  191.5340  171.9940  144.6020 O   0  0  0  0  0  1  0  0  0  0  0  0
  190.0520  173.8510  145.1270 C   0  0  2  0  0  3  0  0  0  0  0  0
  191.4690  173.3710  144.8510 C   0  0  2  0  0  0  0  0  0  0  0  0
  190.7750  174.2870  143.8480 C   0  0  1  0  0  3  0  0  0  0  0  0
  188.9300  174.1650  140.0800 C   0  0  0  0  0  2  0  0  0  0  0  0
  190.3360  173.5400  140.1020 C   0  0  0  0  0  2  0  0  0  0  0  0
  188.7590  173.7860  142.4230 C   0  0  0  0  0  2  0  0  0  0  0  0
  190.2580  173.5090  142.6390 C   0  0  1  0  0  3  0  0  0  0  0  0
  188.5560  174.7710  141.3610 N   0  0  0  0  0  2  0  0  0  0  0  0
  191.0890  173.8630  141.3930 C   0  0  1  0  0  3  0  0  0  0  0  0
  194.5230  172.9100  141.5390 N   0  0  0  0  0  0  0  0  0  0  0  0
  194.5410  170.6510  141.0720 O   0  0  0  0  0  0  0  0  0  0  0  0
  192.4180  173.1760  141.4010 C   0  0  0  0  0  0  0  0  0  0  0  0
  193.9260  171.7400  141.2400 C   0  0  0  0  0  0  0  0  0  0  0  0
  192.5890  171.8570  141.1410 N   0  0  0  0  0  0  0  0  0  0  0  0
  193.5770  173.8260  141.6300 N   0  0  0  0  0  2  0  0  0  0  0  0
  196.3280  174.4530  140.8410 C   0  0  0  0  0  1  0  0  0  0  0  0
  195.9530  173.2140  141.6410 C   0  0  1  0  0  3  0  0  0  0  0  0
  197.1270  173.4970  145.7720 C   0  0  0  0  0  3  0  0  0  0  0  0
  196.3870  173.3070  143.0730 C   0  0  0  0  0  0  0  0  0  0  0  0
  197.5440  174.0160  143.4430 C   0  0  0  0  0  3  0  0  0  0  0  0
  195.9730  172.7970  145.4090 C   0  0  0  0  0  3  0  0  0  0  0  0
  195.6030  172.7050  144.0630 C   0  0  0  0  0  3  0  0  0  0  0  0
  197.9120  174.1080  144.7890 C   0  0  0  0  0  3  0  0  0  0  0  0
  189.3640  174.6080  147.2700 O   0  0  0  0  0  0  0  0  0  0  0  0
  188.6200  175.4170  146.3880 C   0  0  2  0  0  3  0  0  0  0  0  0
  190.0150  175.0210  146.0960 C   0  0  2  0  0  3  0  0  0  0  0  0
  188.6030  176.8570  146.8850 C   0  0  0  0  0  2  0  0  0  0  0  0
  185.2190  176.9780  145.9140 N   0  0  0  0  0  2  0  0  0  0  0  0
  187.4720  177.5830  146.3210 N   0  0  0  0  0  0  0  0  0  0  0  0
  186.6880  178.0820  147.4350 C   0  0  0  0  0  2  0  0  0  0  0  0
  185.2400  177.8260  147.0930 C   0  0  0  0  0  2  0  0  0  0  0  0
  186.6080  176.6040  145.6770 C   0  0  2  0  0  3  0  0  0  0  0  0
  186.8960  176.5590  144.1830 C   0  0  0  0  0  2  0  0  0  0  0  0
  187.4270  177.8720  143.7100 C   0  0  0  0  0  3  0  0  0  0  0  0
  186.8100  178.6720  142.8340 C   0  0  0  0  0  3  0  0  0  0  0  0
  185.4910  178.4660  142.1970 C   0  0  0  0  0  0  0  0  0  0  0  0
  185.4520  178.2880  140.8090 C   0  0  0  0  0  3  0  0  0  0  0  0
  184.2870  178.4810  142.9170 C   0  0  0  0  0  3  0  0  0  0  0  0
  183.0370  178.1280  140.8760 C   0  0  0  0  0  3  0  0  0  0  0  0
  183.0650  178.3100  142.2610 C   0  0  0  0  0  3  0  0  0  0  0  0
  184.2310  178.1180  140.1500 C   0  0  0  0  0  3  0  0  0  0  0  0
  192.4590  173.9200  145.6830 O   0  0  0  0  0  0  0  0  0  0  0  0
  192.8680  175.1120  145.0790 C   0  0  0  0  0  2  0  0  0  0  0  0
  193.6780  175.9320  146.0650 C   0  0  2  0  0  3  0  0  0  0  0  0
  192.8320  176.7620  146.8000 O   0  0  0  0  0  1  0  0  0  0  0  0
  194.6880  176.7750  145.3110 C   0  0  0  0  0  2  0  0  0  0  0  0
  194.7100  176.3720  143.8460 C   0  0  0  0  0  1  0  0  0  0  0  0
  2 27  1  1  0  0  0
  3  1  1  6  0  0  0
  3  2  1  0  0  0  0
  3 43  1  0  0  0  0
  4  8  1  6  0  0  0
  4  3  1  0  0  0  0
  4  2  1  0  0  0  0
  5  6  1  0  0  0  0
  5  9  1  0  0  0  0
  6 10  1  0  0  0  0
  8  7  1  6  0  0  0
  9  7  1  0  0  0  0
 10 13  1  1  0  0  0
 10  8  1  0  0  0  0
 11 16  1  0  0  0  0
 11 18  1  0  0  0  0
 12 14  2  0  0  0  0
 13 16  1  0  0  0  0
 14 11  1  0  0  0  0
 15 14  1  0  0  0  0
 15 13  2  0  0  0  0
 18 17  1  6  0  0  0
 18 20  1  0  0  0  0
 20 21  2  0  0  0  0
 20 23  1  0  0  0  0
 21 24  1  0  0  0  0
 22 19  1  0  0  0  0
 23 22  2  0  0  0  0
 24 19  2  0  0  0  0
 26 28  1  1  0  0  0
 26 25  1  0  0  0  0
 27 26  1  0  0  0  0
 27 25  1  1  0  0  0
 29 32  1  0  0  0  0
 30 28  1  0  0  0  0
 30 31  1  0  0  0  0
 32 31  1  0  0  0  0
 33 34  1  6  0  0  0
 33 29  1  0  0  0  0
 33 30  1  0  0  0  0
 35 34  1  0  0  0  0
 36 35  2  0  0  0  0
 37 36  1  0  0  0  0
 37 39  1  0  0  0  0
 38 37  2  0  0  0  0
 40 41  1  0  0  0  0
 41 39  2  0  0  0  0
 42 38  1  0  0  0  0
 42 40  2  0  0  0  0
 44 43  1  0  0  0  0
 44 45  1  0  0  0  0
 45 46  1  6  0  0  0
 47 45  1  0  0  0  0
 48 47  1  0  0  0  0
M  END
>  <MODEL>
4

>  <REMARK>
 VINA RESULT:      -6.8      2.590      9.454
  Name = 
  14 active torsions:
  status: ('A' for Active; 'I' for Inactive)
    1  A    between atoms: C_1  and  C_4
    2  A    between atoms: C_2  and  C_48
    3  A    between atoms: O_3  and  C_11
    4  A    between atoms: O_3  and  C_30
    5  A    between atoms: C_4  and  C_11
    6  A    between atoms: C_5  and  C_25
    7  A    between atoms: N_7  and  C_32
    8  A    between atoms: N_9  and  C_46
    9  A    between atoms: C_20  and  C_46
   10  A    between atoms: C_22  and  C_42
   11  A    between atoms: C_24  and  C_48
   12  A    between atoms: C_26  and  C_41
   13  A    between atoms: C_29  and  C_44
   14  A    between atoms: C_32  and  C_34
                            x       y       z     vdW  Elec       q    Type
                         _______ _______ _______ _____ _____    ______ ____

>  <TORSDO>
F 14

$$$$
=
 OpenBabel11062421463D

 48 54  0  0  1  0  0  0  0  0999 V2000
  191.2240  170.7510  143.4750 O   0  0  0  0  0  1  0  0  0  0  0  0
  190.2440  172.8000  144.3490 C   0  0  2  0  0  3  0  0  0  0  0  0
  191.5020  172.0310  143.9730 C   0  0  2  0  0  0  0  0  0  0  0  0
  191.0980  173.2580  143.1620 C   0  0  1  0  0  3  0  0  0  0  0  0
  188.5660  174.1250  139.9280 C   0  0  0  0  0  2  0  0  0  0  0  0
  190.0100  173.7910  139.5130 C   0  0  0  0  0  2  0  0  0  0  0  0
  188.9080  172.9330  141.9600 C   0  0  0  0  0  2  0  0  0  0  0  0
  190.4410  172.8690  141.8390 C   0  0  1  0  0  3  0  0  0  0  0  0
  188.3890  174.1720  141.3820 N   0  0  0  0  0  2  0  0  0  0  0  0
  190.9630  173.7750  140.7090 C   0  0  1  0  0  3  0  0  0  0  0  0
  194.4210  173.5100  139.8750 N   0  0  0  0  0  0  0  0  0  0  0  0
  194.6530  171.4240  138.9210 O   0  0  0  0  0  0  0  0  0  0  0  0
  192.3360  173.3740  140.2690 C   0  0  0  0  0  0  0  0  0  0  0  0
  193.9470  172.3200  139.4610 C   0  0  0  0  0  0  0  0  0  0  0  0
  192.6270  172.1850  139.6880 N   0  0  0  0  0  0  0  0  0  0  0  0
  193.4060  174.1890  140.3760 N   0  0  0  0  0  2  0  0  0  0  0  0
  195.8820  174.9510  138.4900 C   0  0  0  0  0  1  0  0  0  0  0  0
  195.7680  174.0680  139.7250 C   0  0  1  0  0  3  0  0  0  0  0  0
  196.9950  176.0380  143.3490 C   0  0  0  0  0  3  0  0  0  0  0  0
  196.2070  174.7740  140.9720 C   0  0  0  0  0  0  0  0  0  0  0  0
  196.0450  176.1620  141.1250 C   0  0  0  0  0  3  0  0  0  0  0  0
  197.1530  174.6570  143.2050 C   0  0  0  0  0  3  0  0  0  0  0  0
  196.7570  174.0260  142.0200 C   0  0  0  0  0  3  0  0  0  0  0  0
  196.4400  176.7900  142.3100 C   0  0  0  0  0  3  0  0  0  0  0  0
  189.3170  173.7590  146.3140 O   0  0  0  0  0  0  0  0  0  0  0  0
  189.5150  174.8730  145.4740 C   0  0  2  0  0  3  0  0  0  0  0  0
  190.4720  173.7460  145.5160 C   0  0  2  0  0  3  0  0  0  0  0  0
  190.0800  176.0390  146.2740 C   0  0  0  0  0  2  0  0  0  0  0  0
  188.2420  177.9140  143.9240 N   0  0  0  0  0  2  0  0  0  0  0  0
  189.4730  177.2950  145.8510 N   0  0  0  0  0  0  0  0  0  0  0  0
  188.0680  177.2300  146.2030 C   0  0  0  0  0  2  0  0  0  0  0  0
  187.3000  177.7710  145.0210 C   0  0  0  0  0  2  0  0  0  0  0  0
  189.4830  177.3110  144.3950 C   0  0  2  0  0  3  0  0  0  0  0  0
  190.6810  178.1040  143.8910 C   0  0  0  0  0  2  0  0  0  0  0  0
  191.3580  177.3810  142.7740 C   0  0  0  0  0  3  0  0  0  0  0  0
  192.4620  176.6370  142.9070 C   0  0  0  0  0  3  0  0  0  0  0  0
  193.2020  176.3360  144.1510 C   0  0  0  0  0  0  0  0  0  0  0  0
  193.4700  177.3950  145.0280 C   0  0  0  0  0  3  0  0  0  0  0  0
  193.6770  175.0540  144.4650 C   0  0  0  0  0  3  0  0  0  0  0  0
  194.6550  175.8930  146.5130 C   0  0  0  0  0  3  0  0  0  0  0  0
  194.3970  174.8310  145.6410 C   0  0  0  0  0  3  0  0  0  0  0  0
  194.1910  177.1750  146.2050 C   0  0  0  0  0  3  0  0  0  0  0  0
  192.5690  172.1490  144.8780 O   0  0  0  0  0  0  0  0  0  0  0  0
  193.4140  171.0620  144.6400 C   0  0  0  0  0  2  0  0  0  0  0  0
  194.7100  171.5480  144.0200 C   0  0  2  0  0  3  0  0  0  0  0  0
  194.7330  171.2330  142.6610 O   0  0  0  0  0  1  0  0  0  0  0  0
  195.8820  170.8860  144.7160 C   0  0  0  0  0  2  0  0  0  0  0  0
  196.5100  171.8510  145.7070 C   0  0  0  0  0  1  0  0  0  0  0  0
  2 27  1  1  0  0  0
  3  1  1  6  0  0  0
  3  2  1  0  0  0  0
  3 43  1  0  0  0  0
  4  8  1  6  0  0  0
  4  3  1  0  0  0  0
  4  2  1  0  0  0  0
  5  9  1  0  0  0  0
  6  5  1  0  0  0  0
  6 10  1  0  0  0  0
  8  7  1  1  0  0  0
  9  7  1  0  0  0  0
 10 13  1  6  0  0  0
 10  8  1  0  0  0  0
 11 16  1  0  0  0  0
 12 14  2  0  0  0  0
 13 16  1  0  0  0  0
 14 15  1  0  0  0  0
 14 11  1  0  0  0  0
 15 13  2  0  0  0  0
 18 17  1  6  0  0  0
 18 11  1  0  0  0  0
 18 20  1  0  0  0  0
 20 21  2  0  0  0  0
 20 23  1  0  0  0  0
 21 24  1  0  0  0  0
 22 19  1  0  0  0  0
 23 22  2  0  0  0  0
 24 19  2  0  0  0  0
 26 27  1  0  0  0  0
 26 28  1  1  0  0  0
 26 25  1  0  0  0  0
 27 25  1  1  0  0  0
 29 33  1  0  0  0  0
 29 32  1  0  0  0  0
 30 31  1  0  0  0  0
 30 28  1  0  0  0  0
 32 31  1  0  0  0  0
 33 34  1  1  0  0  0
 33 30  1  0  0  0  0
 35 36  2  0  0  0  0
 35 34  1  0  0  0  0
 36 37  1  0  0  0  0
 37 39  2  0  0  0  0
 37 38  1  0  0  0  0
 38 42  2  0  0  0  0
 39 41  1  0  0  0  0
 41 40  2  0  0  0  0
 42 40  1  0  0  0  0
 44 43  1  0  0  0  0
 45 46  1  6  0  0  0
 45 44  1  0  0  0  0
 45 47  1  0  0  0  0
 47 48  1  0  0  0  0
M  END
>  <MODEL>
5

>  <REMARK>
 VINA RESULT:      -6.7      2.568      7.886
  Name = 
  14 active torsions:
  status: ('A' for Active; 'I' for Inactive)
    1  A    between atoms: C_1  and  C_4
    2  A    between atoms: C_2  and  C_48
    3  A    between atoms: O_3  and  C_11
    4  A    between atoms: O_3  and  C_30
    5  A    between atoms: C_4  and  C_11
    6  A    between atoms: C_5  and  C_25
    7  A    between atoms: N_7  and  C_32
    8  A    between atoms: N_9  and  C_46
    9  A    between atoms: C_20  and  C_46
   10  A    between atoms: C_22  and  C_42
   11  A    between atoms: C_24  and  C_48
   12  A    between atoms: C_26  and  C_41
   13  A    between atoms: C_29  and  C_44
   14  A    between atoms: C_32  and  C_34
                            x       y       z     vdW  Elec       q    Type
                         _______ _______ _______ _____ _____    ______ ____

>  <TORSDO>
F 14

$$$$
=
 OpenBabel11062421463D

 48 54  0  0  1  0  0  0  0  0999 V2000
  191.6510  172.5930  142.5890 O   0  0  0  0  0  1  0  0  0  0  0  0
  189.7200  173.9780  142.0670 C   0  0  2  0  0  3  0  0  0  0  0  0
  191.2290  173.8780  142.2280 C   0  0  2  0  0  0  0  0  0  0  0  0
  190.6320  174.1140  140.8440 C   0  0  1  0  0  3  0  0  0  0  0  0
  189.7790  172.0670  137.2800 C   0  0  0  0  0  2  0  0  0  0  0  0
  191.2560  171.9840  137.7050 C   0  0  0  0  0  2  0  0  0  0  0  0
  189.1880  172.5130  139.5420 C   0  0  0  0  0  2  0  0  0  0  0  0
  190.6180  172.8340  140.0100 C   0  0  1  0  0  3  0  0  0  0  0  0
  188.9830  172.9320  138.1560 N   0  0  0  0  0  2  0  0  0  0  0  0
  191.5900  172.9720  138.8240 C   0  0  1  0  0  3  0  0  0  0  0  0
  195.0760  173.2410  139.5250 N   0  0  0  0  0  0  0  0  0  0  0  0
  195.6420  171.2490  140.5420 O   0  0  0  0  0  0  0  0  0  0  0  0
  193.0130  172.8050  139.2520 C   0  0  0  0  0  0  0  0  0  0  0  0
  194.7940  172.0150  140.0060 C   0  0  0  0  0  0  0  0  0  0  0  0
  193.4960  171.6910  139.8560 N   0  0  0  0  0  0  0  0  0  0  0  0
  193.9580  173.7420  139.0350 N   0  0  0  0  0  2  0  0  0  0  0  0
  196.4950  174.7190  138.1350 C   0  0  0  0  0  1  0  0  0  0  0  0
  196.3750  173.9110  139.4210 C   0  0  1  0  0  3  0  0  0  0  0  0
  197.1810  176.2160  142.9650 C   0  0  0  0  0  3  0  0  0  0  0  0
  196.6610  174.7350  140.6400 C   0  0  0  0  0  0  0  0  0  0  0  0
  196.1690  176.0450  140.7710 C   0  0  0  0  0  3  0  0  0  0  0  0
  197.6680  174.9110  142.8410 C   0  0  0  0  0  3  0  0  0  0  0  0
  197.4060  174.1720  141.6820 C   0  0  0  0  0  3  0  0  0  0  0  0
  196.4300  176.7820  141.9310 C   0  0  0  0  0  3  0  0  0  0  0  0
  188.5540  175.2580  143.6920 O   0  0  0  0  0  0  0  0  0  0  0  0
  187.7130  175.3260  142.5630 C   0  0  2  0  0  3  0  0  0  0  0  0
  189.1870  175.3500  142.4420 C   0  0  2  0  0  3  0  0  0  0  0  0
  187.1740  176.7410  142.3950 C   0  0  0  0  0  2  0  0  0  0  0  0
  184.4990  178.4370  143.9370 N   0  0  0  0  0  2  0  0  0  0  0  0
  185.7700  176.8070  142.7830 N   0  0  0  0  0  0  0  0  0  0  0  0
  185.0890  177.6040  141.7810 C   0  0  0  0  0  2  0  0  0  0  0  0
  184.1660  178.5380  142.5270 C   0  0  0  0  0  2  0  0  0  0  0  0
  185.6940  177.6050  143.9980 C   0  0  2  0  0  3  0  0  0  0  0  0
  185.6430  176.6950  145.2160 C   0  0  0  0  0  2  0  0  0  0  0  0
  185.8050  177.4870  146.4710 C   0  0  0  0  0  3  0  0  0  0  0  0
  186.9050  177.4940  147.2320 C   0  0  0  0  0  3  0  0  0  0  0  0
  188.1770  176.7820  146.9840 C   0  0  0  0  0  0  0  0  0  0  0  0
  189.2240  177.4970  146.3880 C   0  0  0  0  0  3  0  0  0  0  0  0
  188.3610  175.4230  147.2810 C   0  0  0  0  0  3  0  0  0  0  0  0
  190.6160  175.5160  146.4090 C   0  0  0  0  0  3  0  0  0  0  0  0
  189.5750  174.7930  146.9980 C   0  0  0  0  0  3  0  0  0  0  0  0
  190.4390  176.8680  146.1030 C   0  0  0  0  0  3  0  0  0  0  0  0
  191.8330  174.9610  142.8880 O   0  0  0  0  0  0  0  0  0  0  0  0
  193.2130  174.8060  142.7260 C   0  0  0  0  0  2  0  0  0  0  0  0
  193.9130  175.0510  144.0480 C   0  0  2  0  0  3  0  0  0  0  0  0
  193.4400  174.1560  145.0080 O   0  0  0  0  0  1  0  0  0  0  0  0
  193.6500  176.4720  144.5040 C   0  0  0  0  0  2  0  0  0  0  0  0
  194.6210  176.8520  145.6080 C   0  0  0  0  0  1  0  0  0  0  0  0
  2  3  1  0  0  0  0
  2 27  1  1  0  0  0
  3  1  1  1  0  0  0
  3 43  1  0  0  0  0
  4  8  1  6  0  0  0
  4  2  1  0  0  0  0
  4  3  1  0  0  0  0
  5  6  1  0  0  0  0
  5  9  1  0  0  0  0
  6 10  1  0  0  0  0
  8  7  1  6  0  0  0
  9  7  1  0  0  0  0
 10 13  1  1  0  0  0
 10  8  1  0  0  0  0
 11 14  1  0  0  0  0
 13 15  2  0  0  0  0
 14 12  2  0  0  0  0
 15 14  1  0  0  0  0
 16 13  1  0  0  0  0
 16 11  1  0  0  0  0
 18 17  1  6  0  0  0
 18 11  1  0  0  0  0
 18 20  1  0  0  0  0
 20 21  2  0  0  0  0
 20 23  1  0  0  0  0
 21 24  1  0  0  0  0
 22 19  1  0  0  0  0
 23 22  2  0  0  0  0
 24 19  2  0  0  0  0
 26 28  1  1  0  0  0
 26 25  1  0  0  0  0
 27 26  1  0  0  0  0
 27 25  1  1  0  0  0
 28 30  1  0  0  0  0
 29 33  1  0  0  0  0
 30 33  1  0  0  0  0
 31 32  1  0  0  0  0
 31 30  1  0  0  0  0
 32 29  1  0  0  0  0
 33 34  1  1  0  0  0
 34 35  1  0  0  0  0
 35 36  2  0  0  0  0
 37 36  1  0  0  0  0
 37 39  1  0  0  0  0
 38 37  2  0  0  0  0
 40 41  1  0  0  0  0
 41 39  2  0  0  0  0
 42 38  1  0  0  0  0
 42 40  2  0  0  0  0
 44 43  1  0  0  0  0
 44 45  1  0  0  0  0
 45 47  1  0  0  0  0
 45 46  1  1  0  0  0
 47 48  1  0  0  0  0
M  END
>  <MODEL>
6

>  <REMARK>
 VINA RESULT:      -6.7      2.982      9.315
  Name = 
  14 active torsions:
  status: ('A' for Active; 'I' for Inactive)
    1  A    between atoms: C_1  and  C_4
    2  A    between atoms: C_2  and  C_48
    3  A    between atoms: O_3  and  C_11
    4  A    between atoms: O_3  and  C_30
    5  A    between atoms: C_4  and  C_11
    6  A    between atoms: C_5  and  C_25
    7  A    between atoms: N_7  and  C_32
    8  A    between atoms: N_9  and  C_46
    9  A    between atoms: C_20  and  C_46
   10  A    between atoms: C_22  and  C_42
   11  A    between atoms: C_24  and  C_48
   12  A    between atoms: C_26  and  C_41
   13  A    between atoms: C_29  and  C_44
   14  A    between atoms: C_32  and  C_34
                            x       y       z     vdW  Elec       q    Type
                         _______ _______ _______ _____ _____    ______ ____

>  <TORSDO>
F 14

$$$$
=
 OpenBabel11062421463D

 48 54  0  0  1  0  0  0  0  0999 V2000
  191.5850  176.7130  142.8240 O   0  0  0  0  0  1  0  0  0  0  0  0
  192.1850  174.4470  143.4760 C   0  0  2  0  0  3  0  0  0  0  0  0
  191.3770  175.7020  143.7710 C   0  0  2  0  0  0  0  0  0  0  0  0
  190.6580  174.4210  143.3590 C   0  0  1  0  0  3  0  0  0  0  0  0
  188.7400  172.6920  140.0500 C   0  0  0  0  0  2  0  0  0  0  0  0
  188.1820  174.0720  140.4380 C   0  0  0  0  0  2  0  0  0  0  0  0
  190.7850  173.2500  141.1330 C   0  0  0  0  0  2  0  0  0  0  0  0
  190.2240  174.4640  141.8950 C   0  0  1  0  0  3  0  0  0  0  0  0
  189.7670  172.2110  140.9790 N   0  0  0  0  0  2  0  0  0  0  0  0
  188.6890  174.5340  141.8060 C   0  0  1  0  0  3  0  0  0  0  0  0
  186.9050  177.4450  142.8380 N   0  0  0  0  0  0  0  0  0  0  0  0
  188.1360  179.2220  142.0350 O   0  0  0  0  0  0  0  0  0  0  0  0
  188.1800  175.9080  142.1080 C   0  0  0  0  0  0  0  0  0  0  0  0
  187.9510  177.9820  142.1830 C   0  0  0  0  0  0  0  0  0  0  0  0
  188.7900  177.0470  141.6990 N   0  0  0  0  0  0  0  0  0  0  0  0
  187.0350  176.1320  142.7850 N   0  0  0  0  0  2  0  0  0  0  0  0
  184.4340  177.6070  142.8300 C   0  0  0  0  0  1  0  0  0  0  0  0
  185.7410  178.1170  143.4230 C   0  0  1  0  0  3  0  0  0  0  0  0
  185.8330  177.9350  147.7220 C   0  0  0  0  0  3  0  0  0  0  0  0
  185.7590  178.0310  144.9190 C   0  0  0  0  0  0  0  0  0  0  0  0
  186.0100  176.8160  145.5810 C   0  0  0  0  0  3  0  0  0  0  0  0
  185.5880  179.1460  147.0690 C   0  0  0  0  0  3  0  0  0  0  0  0
  185.5540  179.1940  145.6700 C   0  0  0  0  0  3  0  0  0  0  0  0
  186.0450  176.7700  146.9780 C   0  0  0  0  0  3  0  0  0  0  0  0
  193.7570  174.3170  145.2520 O   0  0  0  0  0  0  0  0  0  0  0  0
  193.9290  173.0920  144.5790 C   0  0  2  0  0  3  0  0  0  0  0  0
  192.5970  173.7130  144.7420 C   0  0  2  0  0  3  0  0  0  0  0  0
  194.0780  171.9580  145.5840 C   0  0  0  0  0  2  0  0  0  0  0  0
  197.2940  170.5660  145.9530 N   0  0  0  0  0  2  0  0  0  0  0  0
  195.1110  171.0220  145.1560 N   0  0  0  0  0  0  0  0  0  0  0  0
  195.0160  169.8590  146.0170 C   0  0  0  0  0  2  0  0  0  0  0  0
  196.4290  169.4860  146.3970 C   0  0  0  0  0  2  0  0  0  0  0  0
  196.3980  171.6170  145.4870 C   0  0  2  0  0  3  0  0  0  0  0  0
  196.9830  172.3070  144.2640 C   0  0  0  0  0  2  0  0  0  0  0  0
  197.8510  173.4510  144.6710 C   0  0  0  0  0  3  0  0  0  0  0  0
  197.8620  174.6490  144.0750 C   0  0  0  0  0  3  0  0  0  0  0  0
  197.0130  175.1060  142.9540 C   0  0  0  0  0  0  0  0  0  0  0  0
  197.4270  174.8030  141.6510 C   0  0  0  0  0  3  0  0  0  0  0  0
  195.8430  175.8580  143.1400 C   0  0  0  0  0  3  0  0  0  0  0  0
  195.5120  175.9770  140.7470 C   0  0  0  0  0  3  0  0  0  0  0  0
  195.0940  176.2900  142.0430 C   0  0  0  0  0  3  0  0  0  0  0  0
  196.6800  175.2350  140.5510 C   0  0  0  0  0  3  0  0  0  0  0  0
  191.3390  176.0850  145.1220 O   0  0  0  0  0  0  0  0  0  0  0  0
  190.3080  177.0220  145.2390 C   0  0  0  0  0  2  0  0  0  0  0  0
  189.5950  176.8330  146.5640 C   0  0  2  0  0  3  0  0  0  0  0  0
  189.8240  177.9360  147.3870 O   0  0  0  0  0  1  0  0  0  0  0  0
  190.1090  175.5780  147.2400 C   0  0  0  0  0  2  0  0  0  0  0  0
  189.0170  174.5220  147.2730 C   0  0  0  0  0  1  0  0  0  0  0  0
  2  3  1  0  0  0  0
  2 27  1  1  0  0  0
  3  1  1  6  0  0  0
  3 43  1  0  0  0  0
  4  8  1  6  0  0  0
  4  2  1  0  0  0  0
  4  3  1  0  0  0  0
  5  6  1  0  0  0  0
  5  9  1  0  0  0  0
  6 10  1  0  0  0  0
  8  7  1  6  0  0  0
  9  7  1  0  0  0  0
 10  8  1  0  0  0  0
 10 13  1  6  0  0  0
 11 18  1  0  0  0  0
 12 14  2  0  0  0  0
 13 16  1  0  0  0  0
 14 11  1  0  0  0  0
 15 13  2  0  0  0  0
 15 14  1  0  0  0  0
 16 11  1  0  0  0  0
 18 17  1  6  0  0  0
 18 20  1  0  0  0  0
 20 21  2  0  0  0  0
 20 23  1  0  0  0  0
 21 24  1  0  0  0  0
 22 19  1  0  0  0  0
 23 22  2  0  0  0  0
 24 19  2  0  0  0  0
 26 27  1  0  0  0  0
 26 25  1  0  0  0  0
 26 28  1  1  0  0  0
 27 25  1  1  0  0  0
 29 32  1  0  0  0  0
 30 33  1  0  0  0  0
 30 28  1  0  0  0  0
 30 31  1  0  0  0  0
 31 32  1  0  0  0  0
 33 34  1  6  0  0  0
 33 29  1  0  0  0  0
 34 35  1  0  0  0  0
 36 35  2  0  0  0  0
 37 39  1  0  0  0  0
 37 36  1  0  0  0  0
 38 37  2  0  0  0  0
 40 41  1  0  0  0  0
 41 39  2  0  0  0  0
 42 40  2  0  0  0  0
 42 38  1  0  0  0  0
 43 44  1  0  0  0  0
 44 45  1  0  0  0  0
 45 47  1  0  0  0  0
 45 46  1  1  0  0  0
 47 48  1  0  0  0  0
M  END
>  <MODEL>
7

>  <REMARK>
 VINA RESULT:      -6.6      2.115      4.141
  Name = 
  14 active torsions:
  status: ('A' for Active; 'I' for Inactive)
    1  A    between atoms: C_1  and  C_4
    2  A    between atoms: C_2  and  C_48
    3  A    between atoms: O_3  and  C_11
    4  A    between atoms: O_3  and  C_30
    5  A    between atoms: C_4  and  C_11
    6  A    between atoms: C_5  and  C_25
    7  A    between atoms: N_7  and  C_32
    8  A    between atoms: N_9  and  C_46
    9  A    between atoms: C_20  and  C_46
   10  A    between atoms: C_22  and  C_42
   11  A    between atoms: C_24  and  C_48
   12  A    between atoms: C_26  and  C_41
   13  A    between atoms: C_29  and  C_44
   14  A    between atoms: C_32  and  C_34
                            x       y       z     vdW  Elec       q    Type
                         _______ _______ _______ _____ _____    ______ ____

>  <TORSDO>
F 14

$$$$
=
 OpenBabel11062421463D

 48 54  0  0  1  0  0  0  0  0999 V2000
  190.6760  171.3190  141.7690 O   0  0  0  0  0  1  0  0  0  0  0  0
  189.5280  173.3970  141.2350 C   0  0  2  0  0  3  0  0  0  0  0  0
  190.5580  172.6770  142.0920 C   0  0  2  0  0  0  0  0  0  0  0  0
  191.0160  173.7320  141.0900 C   0  0  1  0  0  3  0  0  0  0  0  0
  191.5820  173.6910  136.9310 C   0  0  0  0  0  2  0  0  0  0  0  0
  192.8940  173.7140  137.7350 C   0  0  0  0  0  2  0  0  0  0  0  0
  190.4740  172.7710  138.8260 C   0  0  0  0  0  2  0  0  0  0  0  0
  191.5960  173.0960  139.8280 C   0  0  1  0  0  3  0  0  0  0  0  0
  190.3920  173.7910  137.7810 N   0  0  0  0  0  2  0  0  0  0  0  0
  192.6580  174.0270  139.2130 C   0  0  1  0  0  3  0  0  0  0  0  0
  195.5300  174.5530  141.2610 N   0  0  0  0  0  0  0  0  0  0  0  0
  196.8800  172.7200  140.8880 O   0  0  0  0  0  0  0  0  0  0  0  0
  193.9490  173.9660  139.9660 C   0  0  0  0  0  0  0  0  0  0  0  0
  195.8200  173.3730  140.6800 C   0  0  0  0  0  0  0  0  0  0  0  0
  194.8460  172.9580  139.8480 N   0  0  0  0  0  0  0  0  0  0  0  0
  194.3540  174.9420  140.8050 N   0  0  0  0  0  2  0  0  0  0  0  0
  196.5050  176.7980  141.6350 C   0  0  0  0  0  1  0  0  0  0  0  0
  196.3620  175.3710  142.1480 C   0  0  1  0  0  3  0  0  0  0  0  0
  194.9410  175.3030  146.2100 C   0  0  0  0  0  3  0  0  0  0  0  0
  195.8630  175.3210  143.5600 C   0  0  0  0  0  0  0  0  0  0  0  0
  196.2680  174.3060  144.4450 C   0  0  0  0  0  3  0  0  0  0  0  0
  194.5410  176.3180  145.3350 C   0  0  0  0  0  3  0  0  0  0  0  0
  195.0030  176.3270  144.0140 C   0  0  0  0  0  3  0  0  0  0  0  0
  195.8060  174.2990  145.7660 C   0  0  0  0  0  3  0  0  0  0  0  0
  187.4590  174.2670  142.0090 O   0  0  0  0  0  0  0  0  0  0  0  0
  187.9000  175.2470  141.0980 C   0  0  2  0  0  3  0  0  0  0  0  0
  188.8380  174.5250  141.9840 C   0  0  2  0  0  3  0  0  0  0  0  0
  187.6490  176.6390  141.6630 C   0  0  0  0  0  2  0  0  0  0  0  0
  185.0890  178.4750  143.2400 N   0  0  0  0  0  2  0  0  0  0  0  0
  186.2480  176.8000  142.0320 N   0  0  0  0  0  0  0  0  0  0  0  0
  185.6510  177.6930  141.0570 C   0  0  0  0  0  2  0  0  0  0  0  0
  184.7920  178.6640  141.8300 C   0  0  0  0  0  2  0  0  0  0  0  0
  186.2130  177.5480  143.2810 C   0  0  2  0  0  3  0  0  0  0  0  0
  186.0680  176.5920  144.4560 C   0  0  0  0  0  2  0  0  0  0  0  0
  186.1090  177.3390  145.7480 C   0  0  0  0  0  3  0  0  0  0  0  0
  187.1450  177.3430  146.5940 C   0  0  0  0  0  3  0  0  0  0  0  0
  188.4520  176.6740  146.4210 C   0  0  0  0  0  0  0  0  0  0  0  0
  188.5900  175.3670  146.9050 C   0  0  0  0  0  3  0  0  0  0  0  0
  189.5600  177.3040  145.8330 C   0  0  0  0  0  3  0  0  0  0  0  0
  190.9070  175.3290  146.2020 C   0  0  0  0  0  3  0  0  0  0  0  0
  190.7810  176.6350  145.7210 C   0  0  0  0  0  3  0  0  0  0  0  0
  189.8110  174.6960  146.7950 C   0  0  0  0  0  3  0  0  0  0  0  0
  190.5410  173.0130  143.4560 O   0  0  0  0  0  0  0  0  0  0  0  0
  191.1150  171.9360  144.1370 C   0  0  0  0  0  2  0  0  0  0  0  0
  192.4890  172.3270  144.6450 C   0  0  2  0  0  3  0  0  0  0  0  0
  192.9520  173.4450  143.9500 O   0  0  0  0  0  1  0  0  0  0  0  0
  193.4500  171.1710  144.4460 C   0  0  0  0  0  2  0  0  0  0  0  0
  194.3070  171.4150  143.2150 C   0  0  0  0  0  1  0  0  0  0  0  0
  2 27  1  1  0  0  0
  2  3  1  0  0  0  0
  3  1  1  6  0  0  0
  3 43  1  0  0  0  0
  4  8  1  6  0  0  0
  4  2  1  0  0  0  0
  4  3  1  0  0  0  0
  5  6  1  0  0  0  0
  5  9  1  0  0  0  0
  6 10  1  0  0  0  0
  8  7  1  6  0  0  0
  9  7  1  0  0  0  0
 10  8  1  0  0  0  0
 10 13  1  1  0  0  0
 11 18  1  0  0  0  0
 13 16  1  0  0  0  0
 14 12  2  0  0  0  0
 14 11  1  0  0  0  0
 15 13  2  0  0  0  0
 15 14  1  0  0  0  0
 16 11  1  0  0  0  0
 18 17  1  6  0  0  0
 18 20  1  0  0  0  0
 20 23  2  0  0  0  0
 20 21  1  0  0  0  0
 21 24  2  0  0  0  0
 22 19  2  0  0  0  0
 23 22  1  0  0  0  0
 24 19  1  0  0  0  0
 26 28  1  1  0  0  0
 26 27  1  0  0  0  0
 26 25  1  0  0  0  0
 27 25  1  1  0  0  0
 28 30  1  0  0  0  0
 29 33  1  0  0  0  0
 30 33  1  0  0  0  0
 31 32  1  0  0  0  0
 31 30  1  0  0  0  0
 32 29  1  0  0  0  0
 33 34  1  1  0  0  0
 34 35  1  0  0  0  0
 35 36  2  0  0  0  0
 37 36  1  0  0  0  0
 37 38  1  0  0  0  0
 39 37  2  0  0  0  0
 40 42  1  0  0  0  0
 41 39  1  0  0  0  0
 41 40  2  0  0  0  0
 42 38  2  0  0  0  0
 43 44  1  0  0  0  0
 44 45  1  0  0  0  0
 45 46  1  6  0  0  0
 47 45  1  0  0  0  0
 48 47  1  0  0  0  0
M  END
>  <MODEL>
8

>  <REMARK>
 VINA RESULT:      -6.6      2.585      8.658
  Name = 
  14 active torsions:
  status: ('A' for Active; 'I' for Inactive)
    1  A    between atoms: C_1  and  C_4
    2  A    between atoms: C_2  and  C_48
    3  A    between atoms: O_3  and  C_11
    4  A    between atoms: O_3  and  C_30
    5  A    between atoms: C_4  and  C_11
    6  A    between atoms: C_5  and  C_25
    7  A    between atoms: N_7  and  C_32
    8  A    between atoms: N_9  and  C_46
    9  A    between atoms: C_20  and  C_46
   10  A    between atoms: C_22  and  C_42
   11  A    between atoms: C_24  and  C_48
   12  A    between atoms: C_26  and  C_41
   13  A    between atoms: C_29  and  C_44
   14  A    between atoms: C_32  and  C_34
                            x       y       z     vdW  Elec       q    Type
                         _______ _______ _______ _____ _____    ______ ____

>  <TORSDO>
F 14

$$$$
=
 OpenBabel11062421463D

 48 54  0  0  1  0  0  0  0  0999 V2000
  191.8990  172.2820  143.1110 O   0  0  0  0  0  1  0  0  0  0  0  0
  190.0700  173.6640  142.2970 C   0  0  2  0  0  3  0  0  0  0  0  0
  191.5530  173.5460  142.6160 C   0  0  2  0  0  0  0  0  0  0  0  0
  191.1030  173.6890  141.1660 C   0  0  1  0  0  3  0  0  0  0  0  0
  190.6030  171.4060  137.6790 C   0  0  0  0  0  2  0  0  0  0  0  0
  192.0120  171.3060  138.2880 C   0  0  0  0  0  2  0  0  0  0  0  0
  189.7610  172.0430  139.8120 C   0  0  0  0  0  2  0  0  0  0  0  0
  191.1360  172.3510  140.4300 C   0  0  1  0  0  3  0  0  0  0  0  0
  189.7440  172.3620  138.3850 N   0  0  0  0  0  2  0  0  0  0  0  0
  192.2490  172.3650  139.3670 C   0  0  1  0  0  3  0  0  0  0  0  0
  195.2030  171.2680  141.0380 N   0  0  0  0  0  0  0  0  0  0  0  0
  196.6650  173.0470  140.9060 O   0  0  0  0  0  0  0  0  0  0  0  0
  193.6020  172.1830  139.9800 C   0  0  0  0  0  0  0  0  0  0  0  0
  195.5480  172.5140  140.6620 C   0  0  0  0  0  0  0  0  0  0  0  0
  194.5640  173.1370  139.9860 N   0  0  0  0  0  0  0  0  0  0  0  0
  193.9690  171.0550  140.6220 N   0  0  0  0  0  2  0  0  0  0  0  0
  197.2610  169.9010  141.1950 C   0  0  0  0  0  1  0  0  0  0  0  0
  195.9540  170.3140  141.8590 C   0  0  1  0  0  3  0  0  0  0  0  0
  196.4900  171.8630  145.8380 C   0  0  0  0  0  3  0  0  0  0  0  0
  196.1620  170.8370  143.2480 C   0  0  0  0  0  0  0  0  0  0  0  0
  197.4430  171.1670  143.7230 C   0  0  0  0  0  3  0  0  0  0  0  0
  195.2130  171.5420  145.3680 C   0  0  0  0  0  3  0  0  0  0  0  0
  195.0500  171.0330  144.0750 C   0  0  0  0  0  3  0  0  0  0  0  0
  197.6050  171.6770  145.0160 C   0  0  0  0  0  3  0  0  0  0  0  0
  188.5560  175.0300  143.5140 O   0  0  0  0  0  0  0  0  0  0  0  0
  188.1020  175.1500  142.1860 C   0  0  2  0  0  3  0  0  0  0  0  0
  189.5410  175.0720  142.5150 C   0  0  2  0  0  3  0  0  0  0  0  0
  187.7350  176.5970  141.8850 C   0  0  0  0  0  2  0  0  0  0  0  0
  185.0470  178.6060  142.9590 N   0  0  0  0  0  2  0  0  0  0  0  0
  186.3030  176.8120  142.0580 N   0  0  0  0  0  0  0  0  0  0  0  0
  185.8560  177.6220  140.9420 C   0  0  0  0  0  2  0  0  0  0  0  0
  184.9330  178.6720  141.5120 C   0  0  0  0  0  2  0  0  0  0  0  0
  186.1320  177.6690  143.2220 C   0  0  2  0  0  3  0  0  0  0  0  0
  185.8160  176.8250  144.4490 C   0  0  0  0  0  2  0  0  0  0  0  0
  185.8520  177.6610  145.6850 C   0  0  0  0  0  3  0  0  0  0  0  0
  186.8630  177.6850  146.5610 C   0  0  0  0  0  3  0  0  0  0  0  0
  188.1450  176.9520  146.4770 C   0  0  0  0  0  0  0  0  0  0  0  0
  188.2020  175.6640  147.0250 C   0  0  0  0  0  3  0  0  0  0  0  0
  189.3040  177.5060  145.9140 C   0  0  0  0  0  3  0  0  0  0  0  0
  190.5430  175.4930  146.4310 C   0  0  0  0  0  3  0  0  0  0  0  0
  190.4970  176.7790  145.8870 C   0  0  0  0  0  3  0  0  0  0  0  0
  189.3950  174.9360  147.0010 C   0  0  0  0  0  3  0  0  0  0  0  0
  192.1180  174.6620  143.2540 O   0  0  0  0  0  0  0  0  0  0  0  0
  192.9750  174.1640  144.2400 C   0  0  0  0  0  2  0  0  0  0  0  0
  194.1210  175.1330  144.4570 C   0  0  2  0  0  3  0  0  0  0  0  0
  195.2310  174.7280  143.7160 O   0  0  0  0  0  1  0  0  0  0  0  0
  194.4790  175.1690  145.9300 C   0  0  0  0  0  2  0  0  0  0  0  0
  194.1770  176.5420  146.5040 C   0  0  0  0  0  1  0  0  0  0  0  0
  2 27  1  1  0  0  0
  2  3  1  0  0  0  0
  3  1  1  1  0  0  0
  3 43  1  0  0  0  0
  4  8  1  6  0  0  0
  4  2  1  0  0  0  0
  4  3  1  0  0  0  0
  5  6  1  0  0  0  0
  5  9  1  0  0  0  0
  6 10  1  0  0  0  0
  8  7  1  6  0  0  0
  9  7  1  0  0  0  0
 10 13  1  1  0  0  0
 10  8  1  0  0  0  0
 11 18  1  0  0  0  0
 13 15  2  0  0  0  0
 13 16  1  0  0  0  0
 14 12  2  0  0  0  0
 14 11  1  0  0  0  0
 15 14  1  0  0  0  0
 16 11  1  0  0  0  0
 18 17  1  6  0  0  0
 18 20  1  0  0  0  0
 20 21  2  0  0  0  0
 20 23  1  0  0  0  0
 21 24  1  0  0  0  0
 22 19  1  0  0  0  0
 23 22  2  0  0  0  0
 24 19  2  0  0  0  0
 26 28  1  1  0  0  0
 26 27  1  0  0  0  0
 26 25  1  0  0  0  0
 27 25  1  1  0  0  0
 28 30  1  0  0  0  0
 29 33  1  0  0  0  0
 30 33  1  0  0  0  0
 31 32  1  0  0  0  0
 31 30  1  0  0  0  0
 32 29  1  0  0  0  0
 33 34  1  1  0  0  0
 34 35  1  0  0  0  0
 35 36  2  0  0  0  0
 37 36  1  0  0  0  0
 37 38  1  0  0  0  0
 39 37  2  0  0  0  0
 40 42  1  0  0  0  0
 41 39  1  0  0  0  0
 41 40  2  0  0  0  0
 42 38  2  0  0  0  0
 43 44  1  0  0  0  0
 44 45  1  0  0  0  0
 45 46  1  6  0  0  0
 45 47  1  0  0  0  0
 47 48  1  0  0  0  0
M  END
>  <MODEL>
9

>  <REMARK>
 VINA RESULT:      -6.4      2.529      9.404
  Name = 
  14 active torsions:
  status: ('A' for Active; 'I' for Inactive)
    1  A    between atoms: C_1  and  C_4
    2  A    between atoms: C_2  and  C_48
    3  A    between atoms: O_3  and  C_11
    4  A    between atoms: O_3  and  C_30
    5  A    between atoms: C_4  and  C_11
    6  A    between atoms: C_5  and  C_25
    7  A    between atoms: N_7  and  C_32
    8  A    between atoms: N_9  and  C_46
    9  A    between atoms: C_20  and  C_46
   10  A    between atoms: C_22  and  C_42
   11  A    between atoms: C_24  and  C_48
   12  A    between atoms: C_26  and  C_41
   13  A    between atoms: C_29  and  C_44
   14  A    between atoms: C_32  and  C_34
                            x       y       z     vdW  Elec       q    Type
                         _______ _______ _______ _____ _____    ______ ____

>  <TORSDO>
F 14

$$$$
