=
 OpenBabel11062420463D

 45 53  0  0  1  0  0  0  0  0999 V2000
  192.1150  176.1970  143.9000 O   0  0  0  0  0  0  0  0  0  0  0  0
  191.5540  173.6800  142.0130 C   0  0  0  0  0  2  0  0  0  0  0  0
  189.9100  177.0470  144.3470 C   0  0  2  0  0  3  0  0  0  0  0  0
  193.4750  172.9000  140.6400 C   0  0  0  0  0  2  0  0  0  0  0  0
  195.5970  172.9820  144.7640 C   0  0  0  0  0  0  0  0  0  0  0  0
  192.2780  175.4320  146.1400 C   0  0  1  0  0  3  0  0  0  0  0  0
  186.3490  177.6860  145.7750 C   0  0  1  0  0  3  0  0  0  0  0  0
  186.7230  174.9130  143.2440 C   0  0  0  0  0  2  0  0  0  0  0  0
  189.7680  177.5840  143.0650 O   0  0  0  0  0  1  0  0  0  0  0  0
  193.8440  174.2400  142.7890 C   0  0  2  0  0  3  0  0  0  0  0  0
  194.4780  173.5630  145.2070 C   0  0  0  0  0  3  0  0  0  0  0  0
  190.0580  174.9160  147.9010 O   0  0  0  0  0  1  0  0  0  0  0  0
  190.8100  175.8150  144.2880 C   0  0  2  0  0  3  0  0  0  0  0  0
  185.9420  176.2230  143.1610 C   0  0  0  0  0  2  0  0  0  0  0  0
  189.6850  175.1170  146.5700 C   0  0  1  0  0  3  0  0  0  0  0  0
  188.7350  173.9980  142.1730 C   0  0  1  0  0  3  0  0  0  0  0  0
  190.5320  171.1320  139.1700 C   0  0  0  0  0  1  0  0  0  0  0  0
  195.3500  174.1160  142.5360 C   0  0  0  0  0  2  0  0  0  0  0  0
  187.5950  176.1480  147.1030 O   0  0  0  0  0  0  0  0  0  0  0  0
  187.4440  177.6710  144.6910 C   0  0  2  0  0  3  0  0  0  0  0  0
  186.9540  177.3910  147.1440 C   0  0  0  0  0  2  0  0  0  0  0  0
  193.0170  175.6150  144.8240 C   0  0  1  0  0  3  0  0  0  0  0  0
  193.4950  174.2530  144.2940 C   0  0  1  0  0  3  0  0  0  0  0  0
  188.6750  175.3920  140.1690 O   0  0  0  0  0  1  0  0  0  0  0  0
  192.2860  176.7500  146.9030 C   0  0  0  0  0  1  0  0  0  0  0  0
  191.3270  172.2590  139.8140 C   0  0  2  0  0  3  0  0  0  0  0  0
  188.8100  176.3630  146.4340 C   0  0  2  0  0  3  0  0  0  0  0  0
  192.6920  171.7990  140.0770 N   0  0  0  0  0  2  0  0  0  0  0  0
  186.8350  177.4650  143.2910 C   0  0  0  0  0  2  0  0  0  0  0  0
  195.9320  173.0790  143.3780 N   0  0  0  0  0  2  0  0  0  0  0  0
  189.8820  171.9080  141.8070 O   0  0  0  0  0  0  0  0  0  0  0  0
  192.9970  173.1840  142.0660 C   0  0  1  0  0  3  0  0  0  0  0  0
  190.6820  172.8190  141.0980 C   0  0  1  0  0  0  0  0  0  0  0  0
  189.1960  172.9570  141.1470 C   0  0  2  0  0  3  0  0  0  0  0  0
  188.5050  175.3790  141.5570 C   0  0  1  0  0  3  0  0  0  0  0  0
  190.9090  175.0880  145.6260 C   0  0  2  0  0  3  0  0  0  0  0  0
  187.3260  174.4950  141.9070 C   0  0  2  0  0  3  0  0  0  0  0  0
  188.5640  176.6380  144.9440 C   0  0  2  0  0  3  0  0  0  0  0  0
  185.6560  179.0410  145.8040 C   0  0  0  0  0  3  0  0  0  0  0  0
  184.5610  179.0410  146.8530 C   0  0  0  0  0  2  0  0  0  0  0  0
  184.2050  178.8800  145.3920 C   0  0  0  0  0  2  0  0  0  0  0  0
  197.1910  172.9120  146.5130 O   0  0  0  0  0  0  0  0  0  0  0  0
  196.4700  172.2510  145.7180 C   0  0  0  0  0  0  0  0  0  0  0  0
  195.4630  170.0040  146.1380 C   0  0  0  0  0  1  0  0  0  0  0  0
  196.5450  170.8520  145.7840 O   0  0  0  0  0  0  0  0  0  0  0  0
  1 22  1  0  0  0  0
  2 32  1  0  0  0  0
  3  9  1  6  0  0  0
  3 38  1  0  0  0  0
  4 32  1  0  0  0  0
  5 11  2  0  0  0  0
  5 43  1  0  0  0  0
  6 25  1  6  0  0  0
  7 39  1  1  0  0  0
  7 21  1  0  0  0  0
 10 18  1  1  0  0  0
 10 23  1  0  0  0  0
 13  1  1  1  0  0  0
 13  3  1  0  0  0  0
 13 36  1  0  0  0  0
 14  8  1  0  0  0  0
 14 29  1  0  0  0  0
 15 12  1  1  0  0  0
 17 26  1  0  0  0  0
 18 30  1  0  0  0  0
 19 21  1  0  0  0  0
 20 38  1  0  0  0  0
 20  7  1  0  0  0  0
 22  6  1  0  0  0  0
 23 22  1  0  0  0  0
 23 11  1  0  0  0  0
 24 35  1  0  0  0  0
 26 28  1  0  0  0  0
 26 33  1  0  0  0  0
 27 15  1  0  0  0  0
 27 19  1  0  0  0  0
 28  4  1  0  0  0  0
 29 20  1  0  0  0  0
 30  5  1  0  0  0  0
 32 10  1  0  0  0  0
 33 34  1  0  0  0  0
 33 31  1  0  0  0  0
 33  2  1  0  0  0  0
 34 31  1  0  0  0  0
 34 16  1  0  0  0  0
 35 37  1  0  0  0  0
 35 16  1  0  0  0  0
 36  6  1  0  0  0  0
 36 15  1  0  0  0  0
 37 16  1  0  0  0  0
 37  8  1  0  0  0  0
 38 27  1  0  0  0  0
 39 40  1  0  0  0  0
 41 39  1  0  0  0  0
 41 40  1  0  0  0  0
 43 45  1  0  0  0  0
 43 42  2  0  0  0  0
 45 44  1  0  0  0  0
M  END
>  <MODEL>
1

>  <REMARK>
 VINA RESULT:      -9.1      0.000      0.000
  Name = 
  3 active torsions:
  status: ('A' for Active; 'I' for Inactive)
    1  A    between atoms: C_5  and  C_8
    2  A    between atoms: C_6  and  C_28
    3  A    between atoms: C_28  and  O_41
                            x       y       z     vdW  Elec       q    Type
                         _______ _______ _______ _____ _____    ______ ____

>  <TORSDO>
F 3

$$$$
=
 OpenBabel11062420463D

 45 53  0  0  1  0  0  0  0  0999 V2000
  190.5640  172.4880  142.6940 O   0  0  0  0  0  0  0  0  0  0  0  0
  193.4730  173.8070  142.5920 C   0  0  0  0  0  2  0  0  0  0  0  0
  189.3480  173.9630  144.1520 C   0  0  2  0  0  3  0  0  0  0  0  0
  195.3220  172.3090  141.8700 C   0  0  0  0  0  2  0  0  0  0  0  0
  192.4070  171.5040  138.3530 C   0  0  0  0  0  0  0  0  0  0  0  0
  189.3150  173.2840  140.8410 C   0  0  1  0  0  3  0  0  0  0  0  0
  187.2780  176.8940  145.6560 C   0  0  1  0  0  3  0  0  0  0  0  0
  190.9940  177.4250  145.2620 C   0  0  0  0  0  2  0  0  0  0  0  0
  189.9940  173.4960  145.2990 O   0  0  0  0  0  1  0  0  0  0  0  0
  192.8960  171.8200  141.2200 C   0  0  2  0  0  3  0  0  0  0  0  0
  191.5300  172.2260  139.0570 C   0  0  0  0  0  3  0  0  0  0  0  0
  187.9060  175.7920  140.7210 O   0  0  0  0  0  1  0  0  0  0  0  0
  190.2870  173.8500  142.9540 C   0  0  2  0  0  3  0  0  0  0  0  0
  190.1360  177.3660  146.5250 C   0  0  0  0  0  2  0  0  0  0  0  0
  188.7580  175.6780  141.8230 C   0  0  1  0  0  3  0  0  0  0  0  0
  192.7040  175.9940  144.2340 C   0  0  1  0  0  3  0  0  0  0  0  0
  197.0700  175.2930  143.2790 C   0  0  0  0  0  1  0  0  0  0  0  0
  193.4090  170.5890  140.4670 C   0  0  0  0  0  2  0  0  0  0  0  0
  187.3830  176.9850  143.2760 O   0  0  0  0  0  0  0  0  0  0  0  0
  188.3060  175.7450  145.6770 C   0  0  2  0  0  3  0  0  0  0  0  0
  186.4920  176.8750  144.3490 C   0  0  0  0  0  2  0  0  0  0  0  0
  190.3450  172.2690  141.3130 C   0  0  1  0  0  3  0  0  0  0  0  0
  191.6620  172.4580  140.5420 C   0  0  1  0  0  3  0  0  0  0  0  0
  193.4030  174.8430  146.2710 O   0  0  0  0  0  1  0  0  0  0  0  0
  187.9210  172.7740  141.1830 C   0  0  0  0  0  1  0  0  0  0  0  0
  196.0110  174.2070  143.1450 C   0  0  2  0  0  3  0  0  0  0  0  0
  187.9650  175.7170  143.1290 C   0  0  2  0  0  3  0  0  0  0  0  0
  196.3050  173.3890  141.9670 N   0  0  0  0  0  2  0  0  0  0  0  0
  189.4210  176.0190  146.7040 C   0  0  0  0  0  2  0  0  0  0  0  0
  193.4790  170.8490  139.0350 N   0  0  0  0  0  2  0  0  0  0  0  0
  194.4440  176.0510  142.5640 O   0  0  0  0  0  0  0  0  0  0  0  0
  193.9640  172.8920  141.4720 C   0  0  1  0  0  3  0  0  0  0  0  0
  194.5690  174.7520  143.0860 C   0  0  1  0  0  0  0  0  0  0  0  0
  194.2090  175.9120  143.9540 C   0  0  2  0  0  3  0  0  0  0  0  0
  192.3060  175.3190  145.5480 C   0  0  1  0  0  3  0  0  0  0  0  0
  189.7050  174.4640  141.6840 C   0  0  2  0  0  3  0  0  0  0  0  0
  192.3830  176.8290  145.4600 C   0  0  2  0  0  3  0  0  0  0  0  0
  188.9170  175.4220  144.2970 C   0  0  2  0  0  3  0  0  0  0  0  0
  186.3200  176.7660  146.8320 C   0  0  0  0  0  3  0  0  0  0  0  0
  185.1710  177.7440  146.6720 C   0  0  0  0  0  2  0  0  0  0  0  0
  186.3070  178.0620  147.6200 C   0  0  0  0  0  2  0  0  0  0  0  0
  193.0800  170.7010  136.2300 O   0  0  0  0  0  0  0  0  0  0  0  0
  192.2510  171.3930  136.8800 C   0  0  0  0  0  0  0  0  0  0  0  0
  190.0580  171.3720  135.6840 C   0  0  0  0  0  1  0  0  0  0  0  0
  191.2260  172.0230  136.1600 O   0  0  0  0  0  0  0  0  0  0  0  0
  2 33  1  0  0  0  0
  3 38  1  0  0  0  0
  3  9  1  1  0  0  0
  4 28  1  0  0  0  0
  5 30  1  0  0  0  0
  5 11  2  0  0  0  0
  6 25  1  1  0  0  0
  6 22  1  0  0  0  0
  6 36  1  0  0  0  0
  7 20  1  0  0  0  0
  7 39  1  1  0  0  0
  8 37  1  0  0  0  0
  8 14  1  0  0  0  0
 10 18  1  6  0  0  0
 10 32  1  0  0  0  0
 11 23  1  0  0  0  0
 13  1  1  6  0  0  0
 13  3  1  0  0  0  0
 14 29  1  0  0  0  0
 15 12  1  6  0  0  0
 15 27  1  0  0  0  0
 16 37  1  0  0  0  0
 16 35  1  0  0  0  0
 19 21  1  0  0  0  0
 20 29  1  0  0  0  0
 21  7  1  0  0  0  0
 22  1  1  0  0  0  0
 23 10  1  0  0  0  0
 23 22  1  0  0  0  0
 26 17  1  0  0  0  0
 27 19  1  0  0  0  0
 27 38  1  0  0  0  0
 28 26  1  0  0  0  0
 30 18  1  0  0  0  0
 31 33  1  0  0  0  0
 31 34  1  0  0  0  0
 32  4  1  0  0  0  0
 32  2  1  0  0  0  0
 33 26  1  0  0  0  0
 33 34  1  0  0  0  0
 34 16  1  0  0  0  0
 35 24  1  0  0  0  0
 36 15  1  0  0  0  0
 36 13  1  0  0  0  0
 37 35  1  0  0  0  0
 38 20  1  0  0  0  0
 39 41  1  0  0  0  0
 40 39  1  0  0  0  0
 40 41  1  0  0  0  0
 42 43  2  0  0  0  0
 43  5  1  0  0  0  0
 44 45  1  0  0  0  0
 45 43  1  0  0  0  0
M  END
>  <MODEL>
2

>  <REMARK>
 VINA RESULT:      -8.8      2.077      5.791
  Name = 
  3 active torsions:
  status: ('A' for Active; 'I' for Inactive)
    1  A    between atoms: C_5  and  C_8
    2  A    between atoms: C_6  and  C_28
    3  A    between atoms: C_28  and  O_41
                            x       y       z     vdW  Elec       q    Type
                         _______ _______ _______ _____ _____    ______ ____

>  <TORSDO>
F 3

$$$$
=
 OpenBabel11062420463D

 45 53  0  0  1  0  0  0  0  0999 V2000
  191.1620  172.7140  142.3730 O   0  0  0  0  0  0  0  0  0  0  0  0
  193.9960  173.2260  140.9880 C   0  0  0  0  0  2  0  0  0  0  0  0
  191.2600  174.0940  144.3410 C   0  0  2  0  0  3  0  0  0  0  0  0
  194.7400  171.4980  139.3610 C   0  0  0  0  0  2  0  0  0  0  0  0
  190.5100  172.2710  137.6210 C   0  0  0  0  0  0  0  0  0  0  0  0
  189.5790  174.1940  141.4090 C   0  0  1  0  0  3  0  0  0  0  0  0
  191.1440  177.0530  146.8630 C   0  0  1  0  0  3  0  0  0  0  0  0
  194.2680  176.6800  144.7790 C   0  0  0  0  0  2  0  0  0  0  0  0
  192.1410  173.2350  145.0000 O   0  0  0  0  0  1  0  0  0  0  0  0
  192.2610  171.8090  139.9180 C   0  0  2  0  0  3  0  0  0  0  0  0
  190.3170  173.0210  138.7100 C   0  0  0  0  0  3  0  0  0  0  0  0
  189.1770  176.9440  142.1640 O   0  0  0  0  0  1  0  0  0  0  0  0
  191.4940  174.0100  142.8340 C   0  0  2  0  0  3  0  0  0  0  0  0
  194.0730  176.5670  146.2900 C   0  0  0  0  0  2  0  0  0  0  0  0
  190.3290  176.3740  142.7120 C   0  0  1  0  0  3  0  0  0  0  0  0
  194.7850  175.1190  142.9550 C   0  0  1  0  0  3  0  0  0  0  0  0
  197.8030  173.5430  139.9770 C   0  0  0  0  0  1  0  0  0  0  0  0
  191.9580  170.6850  138.9230 C   0  0  0  0  0  2  0  0  0  0  0  0
  190.2350  177.6370  144.7370 O   0  0  0  0  0  0  0  0  0  0  0  0
  191.6340  175.7020  146.3050 C   0  0  2  0  0  3  0  0  0  0  0  0
  189.9140  177.5270  146.0950 C   0  0  0  0  0  2  0  0  0  0  0  0
  190.3100  172.8700  141.2540 C   0  0  1  0  0  3  0  0  0  0  0  0
  191.1450  172.8770  139.9620 C   0  0  1  0  0  3  0  0  0  0  0  0
  195.8680  173.4070  144.3170 O   0  0  0  0  0  1  0  0  0  0  0  0
  188.3880  174.0000  142.3380 C   0  0  0  0  0  1  0  0  0  0  0  0
  196.4970  172.8250  140.2860 C   0  0  2  0  0  3  0  0  0  0  0  0
  190.2400  176.3270  144.2360 C   0  0  2  0  0  3  0  0  0  0  0  0
  195.9630  172.2390  139.0550 N   0  0  0  0  0  2  0  0  0  0  0  0
  193.1030  175.4450  146.6890 C   0  0  0  0  0  2  0  0  0  0  0  0
  191.4860  171.2270  137.6560 N   0  0  0  0  0  2  0  0  0  0  0  0
  195.5440  175.0910  140.6650 O   0  0  0  0  0  0  0  0  0  0  0  0
  193.6220  172.4860  139.7060 C   0  0  1  0  0  3  0  0  0  0  0  0
  195.4420  173.7230  140.9660 C   0  0  1  0  0  0  0  0  0  0  0  0
  195.9000  174.7140  141.9830 C   0  0  2  0  0  3  0  0  0  0  0  0
  194.7930  174.2970  144.2450 C   0  0  1  0  0  3  0  0  0  0  0  0
  190.6610  175.0180  142.0470 C   0  0  2  0  0  3  0  0  0  0  0  0
  195.3210  175.7170  144.2420 C   0  0  2  0  0  3  0  0  0  0  0  0
  191.4440  175.5460  144.7810 C   0  0  2  0  0  3  0  0  0  0  0  0
  190.8050  176.9200  148.3410 C   0  0  0  0  0  3  0  0  0  0  0  0
  190.3010  178.2470  148.8770 C   0  0  0  0  0  2  0  0  0  0  0  0
  191.7230  177.8120  149.1550 C   0  0  0  0  0  2  0  0  0  0  0  0
  189.3000  171.5530  135.7160 O   0  0  0  0  0  0  0  0  0  0  0  0
  189.7070  172.5320  136.3990 C   0  0  0  0  0  0  0  0  0  0  0  0
  190.3060  174.7690  135.4630 C   0  0  0  0  0  1  0  0  0  0  0  0
  189.3720  173.8180  135.9520 O   0  0  0  0  0  0  0  0  0  0  0  0
  3 38  1  0  0  0  0
  3  9  1  1  0  0  0
  4 32  1  0  0  0  0
  5 30  1  0  0  0  0
  5 11  2  0  0  0  0
  6 36  1  0  0  0  0
  6 25  1  1  0  0  0
  7 39  1  1  0  0  0
  8 14  1  0  0  0  0
 10 18  1  6  0  0  0
 10 23  1  0  0  0  0
 11 23  1  0  0  0  0
 13  1  1  6  0  0  0
 13  3  1  0  0  0  0
 14 29  1  0  0  0  0
 15 12  1  6  0  0  0
 15 27  1  0  0  0  0
 16 37  1  0  0  0  0
 16 35  1  0  0  0  0
 17 26  1  0  0  0  0
 19 21  1  0  0  0  0
 20 29  1  0  0  0  0
 20  7  1  0  0  0  0
 21  7  1  0  0  0  0
 22  6  1  0  0  0  0
 22  1  1  0  0  0  0
 23 22  1  0  0  0  0
 26 33  1  0  0  0  0
 27 19  1  0  0  0  0
 27 38  1  0  0  0  0
 28  4  1  0  0  0  0
 28 26  1  0  0  0  0
 30 18  1  0  0  0  0
 31 33  1  0  0  0  0
 31 34  1  0  0  0  0
 32 10  1  0  0  0  0
 32  2  1  0  0  0  0
 33  2  1  0  0  0  0
 33 34  1  0  0  0  0
 34 16  1  0  0  0  0
 35 24  1  0  0  0  0
 36 15  1  0  0  0  0
 36 13  1  0  0  0  0
 37 35  1  0  0  0  0
 37  8  1  0  0  0  0
 38 20  1  0  0  0  0
 39 40  1  0  0  0  0
 39 41  1  0  0  0  0
 40 41  1  0  0  0  0
 42 43  2  0  0  0  0
 43  5  1  0  0  0  0
 44 45  1  0  0  0  0
 45 43  1  0  0  0  0
M  END
>  <MODEL>
3

>  <REMARK>
 VINA RESULT:      -7.4      2.613      6.715
  Name = 
  3 active torsions:
  status: ('A' for Active; 'I' for Inactive)
    1  A    between atoms: C_5  and  C_8
    2  A    between atoms: C_6  and  C_28
    3  A    between atoms: C_28  and  O_41
                            x       y       z     vdW  Elec       q    Type
                         _______ _______ _______ _____ _____    ______ ____

>  <TORSDO>
F 3

$$$$
=
 OpenBabel11062420463D

 45 53  0  0  1  0  0  0  0  0999 V2000
  192.9190  175.3990  142.0900 O   0  0  0  0  0  0  0  0  0  0  0  0
  194.9610  173.4240  143.5520 C   0  0  0  0  0  2  0  0  0  0  0  0
  192.3320  174.1950  140.0920 C   0  0  2  0  0  3  0  0  0  0  0  0
  196.4560  174.4630  145.2460 C   0  0  0  0  0  2  0  0  0  0  0  0
  192.4170  176.1070  146.8290 C   0  0  0  0  0  0  0  0  0  0  0  0
  190.7480  175.0130  142.9650 C   0  0  1  0  0  3  0  0  0  0  0  0
  190.7310  171.7840  137.4930 C   0  0  1  0  0  3  0  0  0  0  0  0
  193.4680  170.3910  139.6860 C   0  0  0  0  0  2  0  0  0  0  0  0
  193.5650  174.4400  139.4840 O   0  0  0  0  0  1  0  0  0  0  0  0
  194.2310  175.5510  144.6020 C   0  0  2  0  0  3  0  0  0  0  0  0
  191.8940  175.5860  145.7150 C   0  0  0  0  0  3  0  0  0  0  0  0
  188.9480  172.9270  142.1270 O   0  0  0  0  0  1  0  0  0  0  0  0
  192.5120  174.1330  141.6070 C   0  0  2  0  0  3  0  0  0  0  0  0
  193.4280  170.5970  138.1730 C   0  0  0  0  0  2  0  0  0  0  0  0
  190.2460  172.7820  141.6320 C   0  0  1  0  0  3  0  0  0  0  0  0
  194.6750  171.4140  141.5650 C   0  0  1  0  0  3  0  0  0  0  0  0
  197.9410  171.0840  144.6770 C   0  0  0  0  0  1  0  0  0  0  0  0
  194.5470  176.6560  145.6150 C   0  0  0  0  0  2  0  0  0  0  0  0
  189.5650  171.7800  139.5730 O   0  0  0  0  0  0  0  0  0  0  0  0
  191.8530  172.6490  138.1010 C   0  0  2  0  0  3  0  0  0  0  0  0
  189.4110  172.0520  138.2090 C   0  0  0  0  0  2  0  0  0  0  0  0
  192.0740  175.7270  143.1770 C   0  0  1  0  0  3  0  0  0  0  0  0
  192.7170  175.2620  144.4940 C   0  0  1  0  0  3  0  0  0  0  0  0
  196.5690  172.2670  140.2830 O   0  0  0  0  0  1  0  0  0  0  0  0
  189.8920  175.8280  142.0030 C   0  0  0  0  0  1  0  0  0  0  0  0
  197.2480  172.3980  144.3450 C   0  0  2  0  0  3  0  0  0  0  0  0
  190.2600  172.8750  140.1070 C   0  0  2  0  0  3  0  0  0  0  0  0
  197.0680  173.1750  145.5730 N   0  0  0  0  0  2  0  0  0  0  0  0
  193.2410  172.0680  137.7710 C   0  0  0  0  0  2  0  0  0  0  0  0
  193.8040  176.4530  146.8510 N   0  0  0  0  0  2  0  0  0  0  0  0
  195.2330  171.0150  143.8780 O   0  0  0  0  0  0  0  0  0  0  0  0
  194.9970  174.2430  144.8400 C   0  0  1  0  0  3  0  0  0  0  0  0
  195.9030  172.2200  143.6090 C   0  0  1  0  0  0  0  0  0  0  0  0
  195.7900  171.1430  142.5820 C   0  0  2  0  0  3  0  0  0  0  0  0
  195.1810  172.1040  140.2970 C   0  0  1  0  0  3  0  0  0  0  0  0
  191.2340  173.7360  142.3410 C   0  0  2  0  0  3  0  0  0  0  0  0
  194.8530  170.6250  140.2800 C   0  0  2  0  0  3  0  0  0  0  0  0
  191.7160  172.8780  139.6210 C   0  0  2  0  0  3  0  0  0  0  0  0
  190.5790  172.0850  136.0090 C   0  0  0  0  0  3  0  0  0  0  0  0
  189.3580  171.3730  135.4580 C   0  0  0  0  0  2  0  0  0  0  0  0
  190.7380  170.8040  135.2110 C   0  0  0  0  0  2  0  0  0  0  0  0
  191.1210  175.3150  148.6440 O   0  0  0  0  0  0  0  0  0  0  0  0
  191.5520  176.3200  148.0170 C   0  0  0  0  0  0  0  0  0  0  0  0
  191.5040  178.1000  149.7690 C   0  0  0  0  0  1  0  0  0  0  0  0
  191.1780  177.5870  148.4860 O   0  0  0  0  0  0  0  0  0  0  0  0
  1 22  1  0  0  0  0
  2 33  1  0  0  0  0
  2 32  1  0  0  0  0
  3  9  1  6  0  0  0
  3 13  1  0  0  0  0
  4 28  1  0  0  0  0
  5 30  1  0  0  0  0
  5 43  1  0  0  0  0
  6 25  1  6  0  0  0
  6 22  1  0  0  0  0
  7 39  1  6  0  0  0
  7 20  1  0  0  0  0
  7 21  1  0  0  0  0
  8 37  1  0  0  0  0
 10 32  1  0  0  0  0
 10 18  1  1  0  0  0
 11  5  2  0  0  0  0
 13  1  1  1  0  0  0
 13 36  1  0  0  0  0
 14  8  1  0  0  0  0
 15 12  1  1  0  0  0
 15 36  1  0  0  0  0
 16 34  1  0  0  0  0
 18 30  1  0  0  0  0
 19 27  1  0  0  0  0
 20 38  1  0  0  0  0
 21 19  1  0  0  0  0
 22 23  1  0  0  0  0
 23 10  1  0  0  0  0
 23 11  1  0  0  0  0
 24 35  1  0  0  0  0
 26 17  1  0  0  0  0
 26 28  1  0  0  0  0
 27 15  1  0  0  0  0
 29 20  1  0  0  0  0
 29 14  1  0  0  0  0
 32  4  1  0  0  0  0
 33 31  1  0  0  0  0
 33 26  1  0  0  0  0
 34 33  1  0  0  0  0
 34 31  1  0  0  0  0
 35 16  1  0  0  0  0
 36  6  1  0  0  0  0
 37 35  1  0  0  0  0
 37 16  1  0  0  0  0
 38  3  1  0  0  0  0
 38 27  1  0  0  0  0
 40 39  1  0  0  0  0
 41 40  1  0  0  0  0
 41 39  1  0  0  0  0
 43 45  1  0  0  0  0
 43 42  2  0  0  0  0
 45 44  1  0  0  0  0
M  END
>  <MODEL>
4

>  <REMARK>
 VINA RESULT:      -7.1      3.257      7.571
  Name = 
  3 active torsions:
  status: ('A' for Active; 'I' for Inactive)
    1  A    between atoms: C_5  and  C_8
    2  A    between atoms: C_6  and  C_28
    3  A    between atoms: C_28  and  O_41
                            x       y       z     vdW  Elec       q    Type
                         _______ _______ _______ _____ _____    ______ ____

>  <TORSDO>
F 3

$$$$
=
 OpenBabel11062420463D

 45 53  0  0  1  0  0  0  0  0999 V2000
  191.8530  175.1360  141.6100 O   0  0  0  0  0  0  0  0  0  0  0  0
  194.1000  174.3220  143.7320 C   0  0  0  0  0  2  0  0  0  0  0  0
  192.3920  173.7810  139.6980 C   0  0  2  0  0  3  0  0  0  0  0  0
  194.4920  175.9430  145.5770 C   0  0  0  0  0  2  0  0  0  0  0  0
  189.8860  175.5760  145.9860 C   0  0  0  0  0  0  0  0  0  0  0  0
  189.9280  173.8090  142.0120 C   0  0  1  0  0  3  0  0  0  0  0  0
  192.7450  170.8840  137.1260 C   0  0  1  0  0  3  0  0  0  0  0  0
  195.1450  170.9120  140.0370 C   0  0  0  0  0  2  0  0  0  0  0  0
  193.5030  174.5560  139.3590 O   0  0  0  0  0  1  0  0  0  0  0  0
  192.2670  175.8910  144.3150 C   0  0  2  0  0  3  0  0  0  0  0  0
  189.9520  174.8640  144.8570 C   0  0  0  0  0  3  0  0  0  0  0  0
  189.5120  171.1240  141.0560 O   0  0  0  0  0  1  0  0  0  0  0  0
  192.1830  173.8200  141.2100 C   0  0  2  0  0  3  0  0  0  0  0  0
  195.4110  171.0640  138.5410 C   0  0  0  0  0  2  0  0  0  0  0  0
  190.8200  171.5840  140.8900 C   0  0  1  0  0  3  0  0  0  0  0  0
  195.2500  172.3870  141.9980 C   0  0  1  0  0  3  0  0  0  0  0  0
  197.4000  173.6100  145.7850 C   0  0  0  0  0  1  0  0  0  0  0  0
  191.7920  177.0260  145.2270 C   0  0  0  0  0  2  0  0  0  0  0  0
  191.2060  170.3650  138.8710 O   0  0  0  0  0  0  0  0  0  0  0  0
  193.1730  172.1710  137.8580 C   0  0  2  0  0  3  0  0  0  0  0  0
  191.3060  170.5260  137.4850 C   0  0  0  0  0  2  0  0  0  0  0  0
  190.7010  175.0510  142.4280 C   0  0  1  0  0  3  0  0  0  0  0  0
  191.1180  174.9410  143.9040 C   0  0  1  0  0  3  0  0  0  0  0  0
  196.8360  174.0010  141.0810 O   0  0  0  0  0  1  0  0  0  0  0  0
  189.0820  174.1360  140.7880 C   0  0  0  0  0  1  0  0  0  0  0  0
  196.3130  174.4590  145.1430 C   0  0  2  0  0  3  0  0  0  0  0  0
  191.1850  171.6610  139.4080 C   0  0  2  0  0  3  0  0  0  0  0  0
  195.5000  175.0790  146.1910 N   0  0  0  0  0  2  0  0  0  0  0  0
  194.7080  172.2840  137.9270 C   0  0  0  0  0  2  0  0  0  0  0  0
  190.9220  176.5160  146.2790 N   0  0  0  0  0  2  0  0  0  0  0  0
  195.3070  172.3060  144.4080 O   0  0  0  0  0  0  0  0  0  0  0  0
  193.4380  175.0780  144.8820 C   0  0  1  0  0  3  0  0  0  0  0  0
  195.4240  173.6820  144.1490 C   0  0  1  0  0  0  0  0  0  0  0  0
  196.0650  172.6640  143.2660 C   0  0  2  0  0  3  0  0  0  0  0  0
  195.7090  173.2220  140.8010 C   0  0  1  0  0  3  0  0  0  0  0  0
  191.0680  172.8900  141.6790 C   0  0  2  0  0  3  0  0  0  0  0  0
  196.0800  171.7570  140.8960 C   0  0  2  0  0  3  0  0  0  0  0  0
  192.5630  172.3240  139.2680 C   0  0  2  0  0  3  0  0  0  0  0  0
  192.8650  171.0710  135.6200 C   0  0  0  0  0  3  0  0  0  0  0  0
  192.2980  169.8610  134.9010 C   0  0  0  0  0  2  0  0  0  0  0  0
  193.7960  170.0170  135.0500 C   0  0  0  0  0  2  0  0  0  0  0  0
  188.7420  174.3780  147.6770 O   0  0  0  0  0  0  0  0  0  0  0  0
  188.7410  175.3800  146.9120 C   0  0  0  0  0  0  0  0  0  0  0  0
  186.8830  176.6800  145.8660 C   0  0  0  0  0  1  0  0  0  0  0  0
  187.6450  176.2500  146.9840 O   0  0  0  0  0  0  0  0  0  0  0  0
  1 22  1  0  0  0  0
  2 33  1  0  0  0  0
  2 32  1  0  0  0  0
  3  9  1  1  0  0  0
  3 13  1  0  0  0  0
  4 28  1  0  0  0  0
  5 30  1  0  0  0  0
  5 43  1  0  0  0  0
  6 25  1  6  0  0  0
  6 22  1  0  0  0  0
  7 39  1  6  0  0  0
  7 21  1  0  0  0  0
  7 20  1  0  0  0  0
  8 37  1  0  0  0  0
 10 32  1  0  0  0  0
 10 18  1  1  0  0  0
 11  5  2  0  0  0  0
 13  1  1  6  0  0  0
 13 36  1  0  0  0  0
 14  8  1  0  0  0  0
 15 12  1  6  0  0  0
 15 36  1  0  0  0  0
 16 34  1  0  0  0  0
 18 30  1  0  0  0  0
 19 27  1  0  0  0  0
 20 29  1  0  0  0  0
 20 38  1  0  0  0  0
 21 19  1  0  0  0  0
 22 23  1  0  0  0  0
 23 10  1  0  0  0  0
 23 11  1  0  0  0  0
 26 17  1  0  0  0  0
 26 28  1  0  0  0  0
 27 15  1  0  0  0  0
 29 14  1  0  0  0  0
 32  4  1  0  0  0  0
 33 31  1  0  0  0  0
 33 26  1  0  0  0  0
 34 33  1  0  0  0  0
 34 31  1  0  0  0  0
 35 37  1  0  0  0  0
 35 24  1  0  0  0  0
 35 16  1  0  0  0  0
 36  6  1  0  0  0  0
 37 16  1  0  0  0  0
 38 27  1  0  0  0  0
 38  3  1  0  0  0  0
 40 41  1  0  0  0  0
 40 39  1  0  0  0  0
 41 39  1  0  0  0  0
 43 45  1  0  0  0  0
 43 42  2  0  0  0  0
 44 45  1  0  0  0  0
M  END
>  <MODEL>
5

>  <REMARK>
 VINA RESULT:      -6.9      2.629      8.578
  Name = 
  3 active torsions:
  status: ('A' for Active; 'I' for Inactive)
    1  A    between atoms: C_5  and  C_8
    2  A    between atoms: C_6  and  C_28
    3  A    between atoms: C_28  and  O_41
                            x       y       z     vdW  Elec       q    Type
                         _______ _______ _______ _____ _____    ______ ____

>  <TORSDO>
F 3

$$$$
=
 OpenBabel11062420463D

 45 53  0  0  1  0  0  0  0  0999 V2000
  189.9170  171.9380  144.0740 O   0  0  0  0  0  0  0  0  0  0  0  0
  193.0450  172.5880  144.1510 C   0  0  0  0  0  2  0  0  0  0  0  0
  188.9280  173.9050  145.0420 C   0  0  2  0  0  3  0  0  0  0  0  0
  194.5680  170.6280  143.9940 C   0  0  0  0  0  2  0  0  0  0  0  0
  191.9150  169.7020  140.3030 C   0  0  0  0  0  0  0  0  0  0  0  0
  189.0750  172.5580  141.9450 C   0  0  1  0  0  3  0  0  0  0  0  0
  187.4390  177.4440  145.6610 C   0  0  1  0  0  3  0  0  0  0  0  0
  191.1980  177.1160  145.7170 C   0  0  0  0  0  2  0  0  0  0  0  0
  189.3320  173.5700  146.3370 O   0  0  0  0  0  1  0  0  0  0  0  0
  192.1720  170.5140  143.1020 C   0  0  2  0  0  3  0  0  0  0  0  0
  191.1590  170.7190  140.7270 C   0  0  0  0  0  3  0  0  0  0  0  0
  188.2930  175.2160  141.1600 O   0  0  0  0  0  1  0  0  0  0  0  0
  189.9330  173.3520  144.0340 C   0  0  2  0  0  3  0  0  0  0  0  0
  190.2270  177.5020  146.8310 C   0  0  0  0  0  2  0  0  0  0  0  0
  188.9810  175.1690  142.3740 C   0  0  1  0  0  3  0  0  0  0  0  0
  192.6330  175.1830  145.2310 C   0  0  1  0  0  3  0  0  0  0  0  0
  196.7970  173.4260  145.0630 C   0  0  0  0  0  1  0  0  0  0  0  0
  192.4640  169.0730  142.6720 C   0  0  0  0  0  2  0  0  0  0  0  0
  187.8010  177.0050  143.3460 O   0  0  0  0  0  0  0  0  0  0  0  0
  188.1710  176.1430  146.0440 C   0  0  2  0  0  3  0  0  0  0  0  0
  186.8050  177.3080  144.2810 C   0  0  0  0  0  2  0  0  0  0  0  0
  189.7940  171.4800  142.7400 C   0  0  1  0  0  3  0  0  0  0  0  0
  191.1900  171.2290  142.1460 C   0  0  1  0  0  3  0  0  0  0  0  0
  192.8430  174.3740  147.5240 O   0  0  0  0  0  1  0  0  0  0  0  0
  187.5750  172.4260  142.1700 C   0  0  0  0  0  1  0  0  0  0  0  0
  195.5390  172.5740  144.9810 C   0  0  2  0  0  3  0  0  0  0  0  0
  188.0910  175.6440  143.5220 C   0  0  2  0  0  3  0  0  0  0  0  0
  195.7550  171.4820  144.0300 N   0  0  0  0  0  2  0  0  0  0  0  0
  189.2100  176.3960  147.1520 C   0  0  0  0  0  2  0  0  0  0  0  0
  192.7350  169.0030  141.2430 N   0  0  0  0  0  2  0  0  0  0  0  0
  194.4990  174.5300  143.8480 O   0  0  0  0  0  0  0  0  0  0  0  0
  193.4250  171.3760  143.3030 C   0  0  1  0  0  3  0  0  0  0  0  0
  194.2710  173.3750  144.6140 C   0  0  1  0  0  0  0  0  0  0  0  0
  194.1000  174.7400  145.1910 C   0  0  2  0  0  3  0  0  0  0  0  0
  191.9610  174.8970  146.5750 C   0  0  1  0  0  3  0  0  0  0  0  0
  189.6360  173.7870  142.6020 C   0  0  2  0  0  3  0  0  0  0  0  0
  192.3880  176.3070  146.2210 C   0  0  2  0  0  3  0  0  0  0  0  0
  188.8280  175.4170  144.8500 C   0  0  2  0  0  3  0  0  0  0  0  0
  186.3640  177.7660  146.6890 C   0  0  0  0  0  3  0  0  0  0  0  0
  185.5110  178.9220  146.2020 C   0  0  0  0  0  2  0  0  0  0  0  0
  186.5860  179.1630  147.2380 C   0  0  0  0  0  2  0  0  0  0  0  0
  191.2680  170.0490  138.0530 O   0  0  0  0  0  0  0  0  0  0  0  0
  191.8870  169.3150  138.8690 C   0  0  0  0  0  0  0  0  0  0  0  0
  193.6370  168.1750  137.5000 C   0  0  0  0  0  1  0  0  0  0  0  0
  192.5110  168.1660  138.3650 O   0  0  0  0  0  0  0  0  0  0  0  0
  2 33  1  0  0  0  0
  3  9  1  1  0  0  0
  4 28  1  0  0  0  0
  5 11  2  0  0  0  0
  5 30  1  0  0  0  0
  6 25  1  1  0  0  0
  6 36  1  0  0  0  0
  6 22  1  0  0  0  0
  7 20  1  0  0  0  0
  7 39  1  1  0  0  0
  8 37  1  0  0  0  0
  8 14  1  0  0  0  0
 10 18  1  6  0  0  0
 10 32  1  0  0  0  0
 11 23  1  0  0  0  0
 13  1  1  6  0  0  0
 13  3  1  0  0  0  0
 14 29  1  0  0  0  0
 15 12  1  6  0  0  0
 15 36  1  0  0  0  0
 15 27  1  0  0  0  0
 16 37  1  0  0  0  0
 16 35  1  0  0  0  0
 19 27  1  0  0  0  0
 19 21  1  0  0  0  0
 20 29  1  0  0  0  0
 21  7  1  0  0  0  0
 22  1  1  0  0  0  0
 23 22  1  0  0  0  0
 23 10  1  0  0  0  0
 26 17  1  0  0  0  0
 27 38  1  0  0  0  0
 28 26  1  0  0  0  0
 30 18  1  0  0  0  0
 31 33  1  0  0  0  0
 31 34  1  0  0  0  0
 32  4  1  0  0  0  0
 32  2  1  0  0  0  0
 33 26  1  0  0  0  0
 33 34  1  0  0  0  0
 34 16  1  0  0  0  0
 35 24  1  0  0  0  0
 36 13  1  0  0  0  0
 37 35  1  0  0  0  0
 38  3  1  0  0  0  0
 38 20  1  0  0  0  0
 39 41  1  0  0  0  0
 40 39  1  0  0  0  0
 40 41  1  0  0  0  0
 42 43  2  0  0  0  0
 43  5  1  0  0  0  0
 44 45  1  0  0  0  0
 45 43  1  0  0  0  0
M  END
>  <MODEL>
6

>  <REMARK>
 VINA RESULT:      -6.7      2.207      5.614
  Name = 
  3 active torsions:
  status: ('A' for Active; 'I' for Inactive)
    1  A    between atoms: C_5  and  C_8
    2  A    between atoms: C_6  and  C_28
    3  A    between atoms: C_28  and  O_41
                            x       y       z     vdW  Elec       q    Type
                         _______ _______ _______ _____ _____    ______ ____

>  <TORSDO>
F 3

$$$$
=
 OpenBabel11062420463D

 45 53  0  0  1  0  0  0  0  0999 V2000
  192.4270  174.6990  141.0660 O   0  0  0  0  0  0  0  0  0  0  0  0
  194.2320  174.2240  143.6600 C   0  0  0  0  0  2  0  0  0  0  0  0
  193.1620  172.9690  139.5660 C   0  0  2  0  0  3  0  0  0  0  0  0
  194.4460  176.1600  145.2070 C   0  0  0  0  0  2  0  0  0  0  0  0
  189.8190  176.0850  144.8730 C   0  0  0  0  0  0  0  0  0  0  0  0
  190.3660  173.5650  141.3700 C   0  0  1  0  0  3  0  0  0  0  0  0
  193.7010  169.6070  137.6860 C   0  0  1  0  0  3  0  0  0  0  0  0
  195.5940  170.1060  140.9110 C   0  0  0  0  0  2  0  0  0  0  0  0
  194.3690  173.6120  139.2850 O   0  0  0  0  0  1  0  0  0  0  0  0
  192.4560  175.9570  143.6100 C   0  0  2  0  0  3  0  0  0  0  0  0
  190.0110  175.1610  143.9260 C   0  0  0  0  0  3  0  0  0  0  0  0
  189.9040  170.7650  140.8790 O   0  0  0  0  0  1  0  0  0  0  0  0
  192.7150  173.3170  140.9840 C   0  0  2  0  0  3  0  0  0  0  0  0
  196.1090  169.9460  139.4820 C   0  0  0  0  0  2  0  0  0  0  0  0
  191.2530  171.1240  140.8590 C   0  0  1  0  0  3  0  0  0  0  0  0
  195.4940  171.9350  142.5470 C   0  0  1  0  0  3  0  0  0  0  0  0
  197.0930  173.7880  146.3510 C   0  0  0  0  0  1  0  0  0  0  0  0
  191.9280  177.2700  144.1970 C   0  0  0  0  0  2  0  0  0  0  0  0
  191.8650  169.5130  139.2040 O   0  0  0  0  0  0  0  0  0  0  0  0
  194.1030  170.9930  138.2260 C   0  0  2  0  0  3  0  0  0  0  0  0
  192.2000  169.3900  137.8510 C   0  0  0  0  0  2  0  0  0  0  0  0
  191.1550  174.8290  141.6730 C   0  0  1  0  0  3  0  0  0  0  0  0
  191.3190  174.9960  143.1930 C   0  0  1  0  0  3  0  0  0  0  0  0
  197.3280  173.2620  141.6330 O   0  0  0  0  0  1  0  0  0  0  0  0
  189.7570  173.6790  139.9790 C   0  0  0  0  0  1  0  0  0  0  0  0
  196.1930  174.5400  145.3820 C   0  0  2  0  0  3  0  0  0  0  0  0
  191.8580  170.8890  139.4750 C   0  0  2  0  0  3  0  0  0  0  0  0
  195.2710  175.3910  146.1380 N   0  0  0  0  0  2  0  0  0  0  0  0
  195.6110  171.0500  138.5370 C   0  0  0  0  0  2  0  0  0  0  0  0
  190.8640  177.0180  145.1580 N   0  0  0  0  0  2  0  0  0  0  0  0
  195.1550  172.3310  144.9030 O   0  0  0  0  0  0  0  0  0  0  0  0
  193.4540  175.2210  144.5150 C   0  0  1  0  0  3  0  0  0  0  0  0
  195.4180  173.6220  144.4140 C   0  0  1  0  0  0  0  0  0  0  0  0
  196.1130  172.4210  143.8630 C   0  0  2  0  0  3  0  0  0  0  0  0
  196.2040  172.4940  141.3130 C   0  0  1  0  0  3  0  0  0  0  0  0
  191.4710  172.5490  141.4190 C   0  0  2  0  0  3  0  0  0  0  0  0
  196.4410  171.0620  141.7450 C   0  0  2  0  0  3  0  0  0  0  0  0
  193.2870  171.4500  139.4540 C   0  0  2  0  0  3  0  0  0  0  0  0
  194.0770  169.4850  136.2160 C   0  0  0  0  0  3  0  0  0  0  0  0
  193.5540  168.1770  135.6540 C   0  0  0  0  0  2  0  0  0  0  0  0
  195.0140  168.3070  136.0260 C   0  0  0  0  0  2  0  0  0  0  0  0
  187.5350  176.6770  145.0580 O   0  0  0  0  0  0  0  0  0  0  0  0
  188.5280  176.1270  145.6060 C   0  0  0  0  0  0  0  0  0  0  0  0
  189.1290  174.5410  147.4390 C   0  0  0  0  0  1  0  0  0  0  0  0
  188.3470  175.5890  146.8870 O   0  0  0  0  0  0  0  0  0  0  0  0
  1 22  1  0  0  0  0
  2 33  1  0  0  0  0
  2 32  1  0  0  0  0
  3  9  1  1  0  0  0
  3 13  1  0  0  0  0
  4 28  1  0  0  0  0
  5 30  1  0  0  0  0
  5 43  1  0  0  0  0
  6 25  1  6  0  0  0
  6 36  1  0  0  0  0
  6 22  1  0  0  0  0
  7 39  1  6  0  0  0
  7 21  1  0  0  0  0
  7 20  1  0  0  0  0
  8 37  1  0  0  0  0
 10 18  1  1  0  0  0
 10 32  1  0  0  0  0
 11  5  2  0  0  0  0
 13  1  1  6  0  0  0
 13 36  1  0  0  0  0
 14  8  1  0  0  0  0
 15 12  1  6  0  0  0
 15 36  1  0  0  0  0
 16 34  1  0  0  0  0
 18 30  1  0  0  0  0
 19 27  1  0  0  0  0
 20 29  1  0  0  0  0
 20 38  1  0  0  0  0
 21 19  1  0  0  0  0
 22 23  1  0  0  0  0
 23 10  1  0  0  0  0
 23 11  1  0  0  0  0
 26 28  1  0  0  0  0
 26 17  1  0  0  0  0
 27 15  1  0  0  0  0
 29 14  1  0  0  0  0
 32  4  1  0  0  0  0
 33 31  1  0  0  0  0
 33 26  1  0  0  0  0
 34 33  1  0  0  0  0
 34 31  1  0  0  0  0
 35 24  1  0  0  0  0
 35 37  1  0  0  0  0
 35 16  1  0  0  0  0
 37 16  1  0  0  0  0
 38 27  1  0  0  0  0
 38  3  1  0  0  0  0
 40 41  1  0  0  0  0
 40 39  1  0  0  0  0
 41 39  1  0  0  0  0
 42 43  2  0  0  0  0
 43 45  1  0  0  0  0
 45 44  1  0  0  0  0
M  END
>  <MODEL>
7

>  <REMARK>
 VINA RESULT:      -6.4      2.891      9.003
  Name = 
  3 active torsions:
  status: ('A' for Active; 'I' for Inactive)
    1  A    between atoms: C_5  and  C_8
    2  A    between atoms: C_6  and  C_28
    3  A    between atoms: C_28  and  O_41
                            x       y       z     vdW  Elec       q    Type
                         _______ _______ _______ _____ _____    ______ ____

>  <TORSDO>
F 3

$$$$
=
 OpenBabel11062420463D

 45 53  0  0  1  0  0  0  0  0999 V2000
  191.1800  175.5130  141.7360 O   0  0  0  0  0  0  0  0  0  0  0  0
  193.1980  174.8540  144.1240 C   0  0  0  0  0  2  0  0  0  0  0  0
  191.6530  173.7870  140.1290 C   0  0  2  0  0  3  0  0  0  0  0  0
  193.6840  176.7260  145.6870 C   0  0  0  0  0  2  0  0  0  0  0  0
  189.0520  176.9420  145.8150 C   0  0  0  0  0  0  0  0  0  0  0  0
  189.0910  174.4980  142.2170 C   0  0  1  0  0  3  0  0  0  0  0  0
  191.7910  170.4560  138.1270 C   0  0  1  0  0  3  0  0  0  0  0  0
  194.0210  170.7430  141.1580 C   0  0  0  0  0  2  0  0  0  0  0  0
  192.8660  174.3640  139.7450 O   0  0  0  0  0  1  0  0  0  0  0  0
  191.5380  176.6910  144.2930 C   0  0  2  0  0  3  0  0  0  0  0  0
  189.0910  176.0370  144.8320 C   0  0  0  0  0  3  0  0  0  0  0  0
  188.4070  171.7470  141.7090 O   0  0  0  0  0  1  0  0  0  0  0  0
  191.3710  174.1190  141.5930 C   0  0  2  0  0  3  0  0  0  0  0  0
  194.3810  170.5950  139.6810 C   0  0  0  0  0  2  0  0  0  0  0  0
  189.7680  172.0240  141.5630 C   0  0  1  0  0  3  0  0  0  0  0  0
  194.1970  172.5260  142.8380 C   0  0  1  0  0  3  0  0  0  0  0  0
  196.2760  174.1660  146.5050 C   0  0  0  0  0  1  0  0  0  0  0  0
  191.1550  178.0170  144.9590 C   0  0  0  0  0  2  0  0  0  0  0  0
  190.1110  170.4280  139.8180 O   0  0  0  0  0  0  0  0  0  0  0  0
  192.3320  171.7980  138.6560 C   0  0  2  0  0  3  0  0  0  0  0  0
  190.3030  170.3260  138.4350 C   0  0  0  0  0  2  0  0  0  0  0  0
  189.9840  175.7020  142.4690 C   0  0  1  0  0  3  0  0  0  0  0  0
  190.3070  175.8150  143.9690 C   0  0  1  0  0  3  0  0  0  0  0  0
  196.0120  173.7670  141.7760 O   0  0  0  0  0  1  0  0  0  0  0  0
  188.3570  174.6900  140.8970 C   0  0  0  0  0  1  0  0  0  0  0  0
  195.3340  175.0000  145.6490 C   0  0  2  0  0  3  0  0  0  0  0  0
  190.2180  171.7930  140.1200 C   0  0  2  0  0  3  0  0  0  0  0  0
  194.5460  175.8820  146.5130 N   0  0  0  0  0  2  0  0  0  0  0  0
  193.8630  171.7540  138.8160 C   0  0  0  0  0  2  0  0  0  0  0  0
  190.1760  177.8010  146.0160 N   0  0  0  0  0  2  0  0  0  0  0  0
  194.1160  172.8720  145.2240 O   0  0  0  0  0  0  0  0  0  0  0  0
  192.5710  175.8710  145.0750 C   0  0  1  0  0  3  0  0  0  0  0  0
  194.4120  174.1590  144.7420 C   0  0  1  0  0  0  0  0  0  0  0  0
  194.9710  172.9350  144.0960 C   0  0  2  0  0  3  0  0  0  0  0  0
  194.8170  173.0780  141.5530 C   0  0  1  0  0  3  0  0  0  0  0  0
  190.1290  173.4150  142.1320 C   0  0  2  0  0  3  0  0  0  0  0  0
  195.0030  171.6220  141.9250 C   0  0  2  0  0  3  0  0  0  0  0  0
  191.6700  172.2670  139.9700 C   0  0  2  0  0  3  0  0  0  0  0  0
  192.0130  170.3550  136.6240 C   0  0  0  0  0  3  0  0  0  0  0  0
  191.4470  169.0470  136.1040 C   0  0  0  0  0  2  0  0  0  0  0  0
  192.9370  169.1900  136.3230 C   0  0  0  0  0  2  0  0  0  0  0  0
  187.0820  176.0410  146.7700 O   0  0  0  0  0  0  0  0  0  0  0  0
  187.8440  177.0410  146.6740 C   0  0  0  0  0  0  0  0  0  0  0  0
  186.1610  178.6120  147.6420 C   0  0  0  0  0  1  0  0  0  0  0  0
  187.4940  178.1940  147.3890 O   0  0  0  0  0  0  0  0  0  0  0  0
  1 22  1  0  0  0  0
  2 33  1  0  0  0  0
  2 32  1  0  0  0  0
  3  9  1  1  0  0  0
  3 13  1  0  0  0  0
  4 28  1  0  0  0  0
  5 30  1  0  0  0  0
  5 43  1  0  0  0  0
  6 25  1  6  0  0  0
  6 22  1  0  0  0  0
  7 39  1  6  0  0  0
  7 21  1  0  0  0  0
  7 20  1  0  0  0  0
  8 37  1  0  0  0  0
 10 18  1  1  0  0  0
 10 32  1  0  0  0  0
 11  5  2  0  0  0  0
 13  1  1  6  0  0  0
 13 36  1  0  0  0  0
 14  8  1  0  0  0  0
 15 12  1  6  0  0  0
 15 36  1  0  0  0  0
 16 34  1  0  0  0  0
 18 30  1  0  0  0  0
 19 27  1  0  0  0  0
 20 29  1  0  0  0  0
 20 38  1  0  0  0  0
 21 19  1  0  0  0  0
 22 23  1  0  0  0  0
 23 10  1  0  0  0  0
 23 11  1  0  0  0  0
 26 17  1  0  0  0  0
 26 28  1  0  0  0  0
 27 15  1  0  0  0  0
 29 14  1  0  0  0  0
 32  4  1  0  0  0  0
 33 31  1  0  0  0  0
 33 26  1  0  0  0  0
 34 33  1  0  0  0  0
 34 31  1  0  0  0  0
 35 24  1  0  0  0  0
 35 37  1  0  0  0  0
 35 16  1  0  0  0  0
 36  6  1  0  0  0  0
 37 16  1  0  0  0  0
 38 27  1  0  0  0  0
 38  3  1  0  0  0  0
 40 41  1  0  0  0  0
 40 39  1  0  0  0  0
 41 39  1  0  0  0  0
 43 42  2  0  0  0  0
 43 45  1  0  0  0  0
 45 44  1  0  0  0  0
M  END
>  <MODEL>
8

>  <REMARK>
 VINA RESULT:      -6.4      2.423      8.413
  Name = 
  3 active torsions:
  status: ('A' for Active; 'I' for Inactive)
    1  A    between atoms: C_5  and  C_8
    2  A    between atoms: C_6  and  C_28
    3  A    between atoms: C_28  and  O_41
                            x       y       z     vdW  Elec       q    Type
                         _______ _______ _______ _____ _____    ______ ____

>  <TORSDO>
F 3

$$$$
=
 OpenBabel11062420463D

 45 53  0  0  1  0  0  0  0  0999 V2000
  190.4600  172.3760  143.6590 O   0  0  0  0  0  0  0  0  0  0  0  0
  190.4890  172.2140  140.4680 C   0  0  0  0  0  2  0  0  0  0  0  0
  192.3980  171.0980  144.2880 C   0  0  2  0  0  3  0  0  0  0  0  0
  188.3280  172.6930  139.3340 C   0  0  0  0  0  2  0  0  0  0  0  0
  188.5200  176.4700  142.0200 C   0  0  0  0  0  0  0  0  0  0  0  0
  191.5600  174.3730  144.3170 C   0  0  1  0  0  3  0  0  0  0  0  0
  196.0090  169.9070  145.1050 C   0  0  1  0  0  3  0  0  0  0  0  0
  194.9750  169.9250  141.4760 C   0  0  0  0  0  2  0  0  0  0  0  0
  191.7910  169.8770  143.9860 O   0  0  0  0  0  1  0  0  0  0  0  0
  188.8120  173.5780  141.6860 C   0  0  2  0  0  3  0  0  0  0  0  0
  189.5800  175.8830  142.5830 C   0  0  0  0  0  3  0  0  0  0  0  0
  194.4080  174.7140  144.5690 O   0  0  0  0  0  1  0  0  0  0  0  0
  191.8340  172.1870  143.3790 C   0  0  2  0  0  3  0  0  0  0  0  0
  195.3540  168.7580  142.3860 C   0  0  0  0  0  2  0  0  0  0  0  0
  194.0390  173.5270  143.9330 C   0  0  1  0  0  3  0  0  0  0  0  0
  192.9090  170.7260  140.4150 C   0  0  1  0  0  3  0  0  0  0  0  0
  190.4500  171.1980  136.6490 C   0  0  0  0  0  1  0  0  0  0  0  0
  187.4290  174.2370  141.6570 C   0  0  0  0  0  2  0  0  0  0  0  0
  195.8850  172.2650  144.7740 O   0  0  0  0  0  0  0  0  0  0  0  0
  194.5490  169.7440  144.6390 C   0  0  2  0  0  3  0  0  0  0  0  0
  196.2170  171.2880  145.7190 C   0  0  0  0  0  2  0  0  0  0  0  0
  190.2530  173.7660  143.8320 C   0  0  1  0  0  3  0  0  0  0  0  0
  189.8420  174.4010  142.4920 C   0  0  1  0  0  3  0  0  0  0  0  0
  191.7200  168.5940  140.4170 O   0  0  0  0  0  1  0  0  0  0  0  0
  191.6780  174.1640  145.8210 C   0  0  0  0  0  1  0  0  0  0  0  0
  189.8740  171.4100  138.0420 C   0  0  2  0  0  3  0  0  0  0  0  0
  194.4830  172.3120  144.7470 C   0  0  2  0  0  3  0  0  0  0  0  0
  188.9270  172.5270  138.0090 N   0  0  0  0  0  2  0  0  0  0  0  0
  194.4230  168.6150  143.5990 C   0  0  0  0  0  2  0  0  0  0  0  0
  187.5380  175.6600  141.3680 N   0  0  0  0  0  2  0  0  0  0  0  0
  192.1460  172.2060  138.6690 O   0  0  0  0  0  0  0  0  0  0  0  0
  189.3790  173.2480  140.2990 C   0  0  1  0  0  3  0  0  0  0  0  0
  190.9470  171.6360  139.1280 C   0  0  1  0  0  0  0  0  0  0  0  0
  192.2100  170.8450  139.0560 C   0  0  2  0  0  3  0  0  0  0  0  0
  192.5440  169.4420  141.1620 C   0  0  1  0  0  3  0  0  0  0  0  0
  192.5400  173.5290  143.5530 C   0  0  2  0  0  3  0  0  0  0  0  0
  193.8860  169.5660  140.4700 C   0  0  2  0  0  3  0  0  0  0  0  0
  193.9130  171.0430  144.0990 C   0  0  2  0  0  3  0  0  0  0  0  0
  196.3590  168.8340  146.1260 C   0  0  0  0  0  3  0  0  0  0  0  0
  197.6370  169.2080  146.8530 C   0  0  0  0  0  2  0  0  0  0  0  0
  197.6730  168.1780  145.7460 C   0  0  0  0  0  2  0  0  0  0  0  0
  189.3050  178.6680  141.6220 O   0  0  0  0  0  0  0  0  0  0  0  0
  188.3790  177.9470  142.0840 C   0  0  0  0  0  0  0  0  0  0  0  0
  186.5110  178.1060  143.7350 C   0  0  0  0  0  1  0  0  0  0  0  0
  187.2660  178.5960  142.6380 O   0  0  0  0  0  0  0  0  0  0  0  0
  1 22  1  0  0  0  0
  3  9  1  6  0  0  0
  4 32  1  0  0  0  0
  5 43  1  0  0  0  0
  5 11  2  0  0  0  0
  6 25  1  1  0  0  0
  7 21  1  0  0  0  0
  7 39  1  1  0  0  0
  8 14  1  0  0  0  0
 10 18  1  6  0  0  0
 10 23  1  0  0  0  0
 13 36  1  0  0  0  0
 13  1  1  1  0  0  0
 13  3  1  0  0  0  0
 14 29  1  0  0  0  0
 15 12  1  1  0  0  0
 15 27  1  0  0  0  0
 16 37  1  0  0  0  0
 16 35  1  0  0  0  0
 17 26  1  0  0  0  0
 19 21  1  0  0  0  0
 20  7  1  0  0  0  0
 22  6  1  0  0  0  0
 23 11  1  0  0  0  0
 23 22  1  0  0  0  0
 24 35  1  0  0  0  0
 26 33  1  0  0  0  0
 27 19  1  0  0  0  0
 28 26  1  0  0  0  0
 28  4  1  0  0  0  0
 29 20  1  0  0  0  0
 30 18  1  0  0  0  0
 30  5  1  0  0  0  0
 31 34  1  0  0  0  0
 31 33  1  0  0  0  0
 32  2  1  0  0  0  0
 32 10  1  0  0  0  0
 33  2  1  0  0  0  0
 34 33  1  0  0  0  0
 34 16  1  0  0  0  0
 36 15  1  0  0  0  0
 36  6  1  0  0  0  0
 37 35  1  0  0  0  0
 37  8  1  0  0  0  0
 38  3  1  0  0  0  0
 38 20  1  0  0  0  0
 38 27  1  0  0  0  0
 39 40  1  0  0  0  0
 41 39  1  0  0  0  0
 41 40  1  0  0  0  0
 42 43  2  0  0  0  0
 43 45  1  0  0  0  0
 45 44  1  0  0  0  0
M  END
>  <MODEL>
9

>  <REMARK>
 VINA RESULT:      -6.3      2.661      8.360
  Name = 
  3 active torsions:
  status: ('A' for Active; 'I' for Inactive)
    1  A    between atoms: C_5  and  C_8
    2  A    between atoms: C_6  and  C_28
    3  A    between atoms: C_28  and  O_41
                            x       y       z     vdW  Elec       q    Type
                         _______ _______ _______ _____ _____    ______ ____

>  <TORSDO>
F 3

$$$$
