=
 OpenBabel11072409033D

 47 54  0  0  1  0  0  0  0  0999 V2000
  194.3400  174.9560  145.2360 C   0  0  2  0  0  3  0  0  0  0  0  0
  191.9080  174.6720  145.9650 C   0  0  0  0  0  2  0  0  0  0  0  0
  192.4710  176.9440  146.9840 C   0  0  0  0  0  2  0  0  0  0  0  0
  191.7140  175.6250  147.1580 C   0  0  1  0  0  3  0  0  0  0  0  0
  193.9080  176.7150  146.9170 N   0  0  0  0  0  2  0  0  0  0  0  0
  193.3160  174.0860  145.9780 C   0  0  0  0  0  2  0  0  0  0  0  0
  194.2270  176.4610  145.5200 C   0  0  0  0  0  2  0  0  0  0  0  0
  194.3050  174.6600  143.7650 C   0  0  2  0  0  3  0  0  0  0  0  0
  195.4630  173.3460  141.7760 C   0  0  1  0  0  0  0  0  0  0  0  0
  195.1160  173.8020  143.2000 C   0  0  1  0  0  3  0  0  0  0  0  0
  193.8000  175.6140  142.6880 C   0  0  0  0  0  2  0  0  0  0  0  0
  194.7480  175.7230  141.5530 N   0  0  0  0  0  0  0  0  0  0  0  0
  195.5020  174.7350  141.1280 C   0  0  0  0  0  3  0  0  0  0  0  0
  196.2110  172.8170  142.8890 C   0  0  1  0  0  0  0  0  0  0  0  0
  195.9270  171.5310  143.3600 O   0  0  0  0  0  1  0  0  0  0  0  0
  197.6970  173.1990  144.5240 C   0  0  0  0  0  1  0  0  0  0  0  0
  197.4900  173.3310  143.1470 O   0  0  0  0  0  0  0  0  0  0  0  0
  194.5600  172.4050  141.2120 O   0  0  0  0  0  0  0  0  0  0  0  0
  193.8500  172.9740  140.1420 C   0  0  0  0  0  2  0  0  0  0  0  0
  192.3710  172.6300  140.2570 C   0  0  0  0  0  2  0  0  0  0  0  0
  190.6120  174.1990  141.2940 C   0  0  2  0  0  3  0  0  0  0  0  0
  187.6150  172.4040  142.1420 F   0  0  0  0  0  0  0  0  0  0  0  0
  189.8660  171.6310  142.4540 C   0  0  0  0  0  2  0  0  0  0  0  0
  191.3500  172.0530  142.5460 C   0  0  0  0  0  2  0  0  0  0  0  0
  191.7390  173.1690  141.5440 C   0  0  1  0  0  3  0  0  0  0  0  0
  190.2170  174.8310  142.6310 C   0  0  0  0  0  2  0  0  0  0  0  0
  189.3620  173.4490  140.8700 C   0  0  1  0  0  3  0  0  0  0  0  0
  189.1390  173.9200  143.2220 C   0  0  0  0  0  2  0  0  0  0  0  0
  188.9320  172.8220  142.1800 C   0  0  1  0  0  0  0  0  0  0  0  0
  188.3930  174.3450  140.4000 O   0  0  0  0  0  1  0  0  0  0  0  0
  189.4770  174.8710  146.8300 C   0  0  0  0  0  2  0  0  0  0  0  0
  188.2070  175.3930  146.5540 O   0  0  0  0  0  0  0  0  0  0  0  0
  189.7790  177.4580  146.8390 S   0  0  0  0  0  0  0  0  0  0  0  0
  190.3030  175.8880  147.4710 N   0  0  2  0  0  0  0  0  0  0  0  0
  188.4570  176.6210  145.9340 C   0  0  2  0  0  3  0  0  0  0  0  0
  187.1980  177.4970  145.8650 C   0  0  1  0  0  3  0  0  0  0  0  0
  187.6400  177.4650  143.3500 C   0  0  0  0  0  2  0  0  0  0  0  0
  185.9170  177.8620  141.5460 C   0  0  0  0  0  2  0  0  0  0  0  0
  184.9060  179.0300  143.1700 C   0  0  2  0  0  3  0  0  0  0  0  0
  186.5980  177.6250  144.4610 C   0  0  2  0  0  3  0  0  0  0  0  0
  184.4840  178.7770  144.4920 O   0  0  0  0  0  0  0  0  0  0  0  0
  184.8300  177.8380  142.4300 O   0  0  0  0  0  0  0  0  0  0  0  0
  185.8680  178.9640  144.3180 C   0  0  2  0  0  3  0  0  0  0  0  0
  187.0120  176.9340  142.0630 C   0  0  0  0  0  2  0  0  0  0  0  0
  186.1680  177.1600  146.9010 C   0  0  0  0  0  0  0  0  0  0  0  0
  186.2920  177.6100  148.0690 O   0  0  0  0  0  1  0  0  0  0  0  0
  185.0750  176.3580  146.5840 O   0  0  0  0  0  0  0  0  0  0  0  0
  1  7  1  6  0  0  0
  1  6  1  0  0  0  0
  2  6  1  0  0  0  0
  3  4  1  0  0  0  0
  4  2  1  6  0  0  0
  4 34  1  0  0  0  0
  5  3  1  0  0  0  0
  7  5  1  0  0  0  0
  8 11  1  6  0  0  0
  8  1  1  0  0  0  0
  9 18  1  6  0  0  0
  9 14  1  0  0  0  0
  9 10  1  0  0  0  0
 10  8  1  0  0  0  0
 12 11  1  0  0  0  0
 13 12  2  0  0  0  0
 13  9  1  0  0  0  0
 14 17  1  0  0  0  0
 14 10  1  0  0  0  0
 14 15  1  0  0  0  0
 17 16  1  0  0  0  0
 19 20  1  0  0  0  0
 19 18  1  0  0  0  0
 20 25  1  0  0  0  0
 21 25  1  0  0  0  0
 21 26  1  0  0  0  0
 22 29  1  0  0  0  0
 23 24  1  0  0  0  0
 25 24  1  0  0  0  0
 26 28  1  0  0  0  0
 27 21  1  0  0  0  0
 27 29  1  0  0  0  0
 29 23  1  0  0  0  0
 29 28  1  0  0  0  0
 30 27  1  0  0  0  0
 31 34  1  0  0  0  0
 32 31  1  0  0  0  0
 33 34  1  0  0  0  0
 35 32  1  0  0  0  0
 35 33  1  0  0  0  0
 36 35  1  0  0  0  0
 36 45  1  0  0  0  0
 37 40  1  0  0  0  0
 38 44  1  0  0  0  0
 38 42  1  0  0  0  0
 39 43  1  0  0  0  0
 39 41  1  0  0  0  0
 40 36  1  0  0  0  0
 42 39  1  0  0  0  0
 43 40  1  0  0  0  0
 43 41  1  0  0  0  0
 44 37  1  0  0  0  0
 45 46  1  0  0  0  0
 47 45  2  0  0  0  0
M  END
>  <MODEL>
1

>  <REMARK>
 VINA RESULT:      -7.8      0.000      0.000
  Name = 
  10 active torsions:
  status: ('A' for Active; 'I' for Inactive)
    1  A    between atoms: C_2  and  C_5
    2  A    between atoms: C_3  and  O_15
    3  A    between atoms: C_4  and  C_10
    4  A    between atoms: C_4  and  C_21
    5  A    between atoms: C_7  and  C_14
    6  A    between atoms: C_7  and  C_27
    7  A    between atoms: C_7  and  C_43
    8  A    between atoms: C_10  and  O_15
    9  A    between atoms: C_23  and  N_42
   10  A    between atoms: C_35  and  O_38
                            x       y       z     vdW  Elec       q    Type
                         _______ _______ _______ _____ _____    ______ ____

>  <TORSDO>
F 10

$$$$
=
 OpenBabel11072409033D

 47 54  0  0  1  0  0  0  0  0999 V2000
  192.3570  171.8680  142.8690 C   0  0  2  0  0  3  0  0  0  0  0  0
  191.3540  174.0160  141.9170 C   0  0  0  0  0  2  0  0  0  0  0  0
  189.2630  172.8230  142.7660 C   0  0  0  0  0  2  0  0  0  0  0  0
  189.8650  173.7110  141.6740 C   0  0  1  0  0  3  0  0  0  0  0  0
  189.9120  171.5190  142.7940 N   0  0  0  0  0  2  0  0  0  0  0  0
  192.2000  172.7770  141.6420 C   0  0  0  0  0  2  0  0  0  0  0  0
  191.0670  171.6460  143.6720 C   0  0  0  0  0  2  0  0  0  0  0  0
  193.4800  172.3570  143.7380 C   0  0  2  0  0  3  0  0  0  0  0  0
  195.9760  173.2450  143.7850 C   0  0  1  0  0  0  0  0  0  0  0  0
  194.6070  172.8040  143.2470 C   0  0  1  0  0  3  0  0  0  0  0  0
  193.7290  171.9220  145.1780 C   0  0  0  0  0  2  0  0  0  0  0  0
  195.1450  171.5470  145.4080 N   0  0  0  0  0  0  0  0  0  0  0  0
  196.1630  172.1130  144.8010 C   0  0  0  0  0  3  0  0  0  0  0  0
  195.7600  173.1900  142.3600 C   0  0  1  0  0  0  0  0  0  0  0  0
  195.5220  174.3740  141.6540 O   0  0  0  0  0  1  0  0  0  0  0  0
  195.6550  172.1270  140.3880 C   0  0  0  0  0  1  0  0  0  0  0  0
  196.2770  172.1030  141.6410 O   0  0  0  0  0  0  0  0  0  0  0  0
  196.0200  174.5710  144.2920 O   0  0  0  0  0  0  0  0  0  0  0  0
  195.9070  174.5740  145.6920 C   0  0  0  0  0  2  0  0  0  0  0  0
  194.8220  175.5500  146.1250 C   0  0  0  0  0  2  0  0  0  0  0  0
  192.3750  175.0320  146.7410 C   0  0  2  0  0  3  0  0  0  0  0  0
  190.2780  177.9090  146.2420 F   0  0  0  0  0  0  0  0  0  0  0  0
  192.0500  177.1800  144.7970 C   0  0  0  0  0  2  0  0  0  0  0  0
  192.9610  175.9930  144.4060 C   0  0  0  0  0  2  0  0  0  0  0  0
  193.4330  175.1510  145.6170 C   0  0  1  0  0  3  0  0  0  0  0  0
  191.1030  174.4140  146.1570 C   0  0  0  0  0  2  0  0  0  0  0  0
  191.9430  176.4310  147.1410 C   0  0  1  0  0  3  0  0  0  0  0  0
  190.2790  175.5850  145.6190 C   0  0  0  0  0  2  0  0  0  0  0  0
  191.0950  176.8320  145.9510 C   0  0  1  0  0  0  0  0  0  0  0  0
  191.1750  176.3870  148.3120 O   0  0  0  0  0  1  0  0  0  0  0  0
  189.6700  176.0280  142.2000 C   0  0  0  0  0  2  0  0  0  0  0  0
  188.6930  176.9520  142.5940 O   0  0  0  0  0  0  0  0  0  0  0  0
  187.4240  174.7090  142.1750 S   0  0  0  0  0  0  0  0  0  0  0  0
  189.0450  174.9160  141.4920 N   0  0  2  0  0  0  0  0  0  0  0  0
  187.6960  176.1770  143.1930 C   0  0  2  0  0  3  0  0  0  0  0  0
  186.3910  176.9650  143.3800 C   0  0  1  0  0  3  0  0  0  0  0  0
  186.8480  176.6840  145.8770 C   0  0  0  0  0  2  0  0  0  0  0  0
  186.0450  178.2320  147.7050 C   0  0  0  0  0  2  0  0  0  0  0  0
  184.4240  178.6750  146.2220 C   0  0  2  0  0  3  0  0  0  0  0  0
  186.2030  177.5450  144.7860 C   0  0  2  0  0  3  0  0  0  0  0  0
  184.3650  179.0970  144.8770 O   0  0  0  0  0  0  0  0  0  0  0  0
  185.5780  179.2110  146.8180 O   0  0  0  0  0  0  0  0  0  0  0  0
  184.7130  177.7480  145.0790 C   0  0  2  0  0  3  0  0  0  0  0  0
  187.2470  177.5220  147.0900 C   0  0  0  0  0  2  0  0  0  0  0  0
  186.1350  177.9770  142.3040 C   0  0  0  0  0  0  0  0  0  0  0  0
  186.4910  179.1720  142.4770 O   0  0  0  0  0  1  0  0  0  0  0  0
  185.5130  177.6100  141.1140 O   0  0  0  0  0  0  0  0  0  0  0  0
  1  6  1  6  0  0  0
  1  7  1  0  0  0  0
  1  8  1  0  0  0  0
  3  5  1  0  0  0  0
  4  2  1  1  0  0  0
  4  3  1  0  0  0  0
  5  7  1  0  0  0  0
  6  2  1  0  0  0  0
  8 11  1  1  0  0  0
  9 18  1  1  0  0  0
  9 13  1  0  0  0  0
 10  8  1  0  0  0  0
 10  9  1  0  0  0  0
 11 12  1  0  0  0  0
 13 12  2  0  0  0  0
 14 10  1  0  0  0  0
 14  9  1  0  0  0  0
 15 14  1  0  0  0  0
 16 17  1  0  0  0  0
 17 14  1  0  0  0  0
 18 19  1  0  0  0  0
 19 20  1  0  0  0  0
 21 27  1  0  0  0  0
 23 29  1  0  0  0  0
 24 23  1  0  0  0  0
 24 25  1  0  0  0  0
 25 20  1  0  0  0  0
 25 21  1  0  0  0  0
 26 21  1  0  0  0  0
 27 30  1  0  0  0  0
 28 29  1  0  0  0  0
 28 26  1  0  0  0  0
 29 22  1  0  0  0  0
 29 27  1  0  0  0  0
 31 32  1  0  0  0  0
 32 35  1  0  0  0  0
 33 35  1  0  0  0  0
 34  4  1  0  0  0  0
 34 33  1  0  0  0  0
 34 31  1  0  0  0  0
 35 36  1  0  0  0  0
 36 40  1  0  0  0  0
 37 44  1  0  0  0  0
 39 42  1  0  0  0  0
 40 43  1  0  0  0  0
 40 37  1  0  0  0  0
 41 43  1  0  0  0  0
 41 39  1  0  0  0  0
 42 38  1  0  0  0  0
 43 39  1  0  0  0  0
 44 38  1  0  0  0  0
 45 46  1  0  0  0  0
 45 36  1  0  0  0  0
 47 45  2  0  0  0  0
M  END
>  <MODEL>
2

>  <REMARK>
 VINA RESULT:      -7.7      2.566      4.944
  Name = 
  10 active torsions:
  status: ('A' for Active; 'I' for Inactive)
    1  A    between atoms: C_2  and  C_5
    2  A    between atoms: C_3  and  O_15
    3  A    between atoms: C_4  and  C_10
    4  A    between atoms: C_4  and  C_21
    5  A    between atoms: C_7  and  C_14
    6  A    between atoms: C_7  and  C_27
    7  A    between atoms: C_7  and  C_43
    8  A    between atoms: C_10  and  O_15
    9  A    between atoms: C_23  and  N_42
   10  A    between atoms: C_35  and  O_38
                            x       y       z     vdW  Elec       q    Type
                         _______ _______ _______ _____ _____    ______ ____

>  <TORSDO>
F 10

$$$$
=
 OpenBabel11072409033D

 47 54  0  0  1  0  0  0  0  0999 V2000
  194.3610  174.4410  144.7710 C   0  0  2  0  0  3  0  0  0  0  0  0
  192.0190  174.1580  145.7520 C   0  0  0  0  0  2  0  0  0  0  0  0
  192.2840  176.6960  145.8200 C   0  0  0  0  0  2  0  0  0  0  0  0
  191.7300  175.4560  146.5260 C   0  0  1  0  0  3  0  0  0  0  0  0
  193.7360  176.6340  145.7230 N   0  0  0  0  0  2  0  0  0  0  0  0
  193.4960  173.7940  145.8620 C   0  0  0  0  0  2  0  0  0  0  0  0
  194.0430  175.9180  144.4940 C   0  0  0  0  0  2  0  0  0  0  0  0
  194.3220  173.6150  143.5180 C   0  0  2  0  0  3  0  0  0  0  0  0
  194.5940  171.1850  142.4970 C   0  0  1  0  0  0  0  0  0  0  0  0
  194.4520  172.3140  143.5280 C   0  0  1  0  0  3  0  0  0  0  0  0
  194.6830  174.1170  142.1240 C   0  0  0  0  0  2  0  0  0  0  0  0
  195.6070  173.1920  141.4230 N   0  0  0  0  0  0  0  0  0  0  0  0
  195.5930  171.8880  141.5720 C   0  0  0  0  0  3  0  0  0  0  0  0
  194.6850  170.8740  143.9020 C   0  0  1  0  0  0  0  0  0  0  0  0
  193.5870  170.3030  144.5540 O   0  0  0  0  0  1  0  0  0  0  0  0
  195.7500  169.8720  145.6020 C   0  0  0  0  0  1  0  0  0  0  0  0
  195.9520  170.6590  144.4640 O   0  0  0  0  0  0  0  0  0  0  0  0
  193.3740  170.7560  141.9080 O   0  0  0  0  0  0  0  0  0  0  0  0
  193.4070  170.9220  140.5140 C   0  0  0  0  0  2  0  0  0  0  0  0
  192.3950  171.9790  140.0920 C   0  0  0  0  0  2  0  0  0  0  0  0
  191.0780  172.9070  142.1010 C   0  0  2  0  0  3  0  0  0  0  0  0
  188.7410  175.4320  141.0630 F   0  0  0  0  0  0  0  0  0  0  0  0
  189.2170  173.3820  139.9090 C   0  0  0  0  0  2  0  0  0  0  0  0
  189.8240  171.9660  140.0370 C   0  0  0  0  0  2  0  0  0  0  0  0
  191.1020  171.9180  140.9110 C   0  0  1  0  0  3  0  0  0  0  0  0
  189.8570  172.6010  142.9710 C   0  0  0  0  0  2  0  0  0  0  0  0
  190.7960  174.2980  141.5630 C   0  0  1  0  0  3  0  0  0  0  0  0
  188.7070  173.4180  142.3780 C   0  0  0  0  0  2  0  0  0  0  0  0
  189.3260  174.1890  141.2140 C   0  0  1  0  0  0  0  0  0  0  0  0
  191.0050  175.2570  142.5620 O   0  0  0  0  0  1  0  0  0  0  0  0
  189.5040  175.0490  145.7740 C   0  0  0  0  0  2  0  0  0  0  0  0
  188.2760  175.7140  145.6730 O   0  0  0  0  0  0  0  0  0  0  0  0
  189.8780  177.3620  146.9100 S   0  0  0  0  0  0  0  0  0  0  0  0
  190.3060  175.6450  146.8370 N   0  0  2  0  0  0  0  0  0  0  0  0
  188.6100  177.0710  145.6560 C   0  0  2  0  0  3  0  0  0  0  0  0
  187.3860  177.9670  145.8950 C   0  0  1  0  0  3  0  0  0  0  0  0
  187.0360  177.7900  143.3720 C   0  0  0  0  0  2  0  0  0  0  0  0
  184.8210  177.9830  142.1740 C   0  0  0  0  0  2  0  0  0  0  0  0
  184.2820  179.2060  143.9730 C   0  0  2  0  0  3  0  0  0  0  0  0
  186.3770  177.9730  144.7420 C   0  0  2  0  0  3  0  0  0  0  0  0
  184.3020  179.0210  145.3710 O   0  0  0  0  0  0  0  0  0  0  0  0
  184.0610  177.9660  143.3520 O   0  0  0  0  0  0  0  0  0  0  0  0
  185.5520  179.2630  144.7680 C   0  0  2  0  0  3  0  0  0  0  0  0
  186.0800  177.1450  142.3700 C   0  0  0  0  0  2  0  0  0  0  0  0
  186.7320  177.7570  147.2280 C   0  0  0  0  0  0  0  0  0  0  0  0
  186.1080  176.6870  147.4520 O   0  0  0  0  0  0  0  0  0  0  0  0
  186.8110  178.7280  148.2220 O   0  0  0  0  0  1  0  0  0  0  0  0
  1  7  1  6  0  0  0
  1  6  1  0  0  0  0
  2  6  1  0  0  0  0
  3  4  1  0  0  0  0
  4  2  1  6  0  0  0
  4 34  1  0  0  0  0
  5  3  1  0  0  0  0
  7  5  1  0  0  0  0
  8 11  1  6  0  0  0
  8 10  1  0  0  0  0
  8  1  1  0  0  0  0
  9 18  1  6  0  0  0
  9 10  1  0  0  0  0
  9 14  1  0  0  0  0
 10 14  1  0  0  0  0
 12 13  2  0  0  0  0
 12 11  1  0  0  0  0
 13  9  1  0  0  0  0
 14 17  1  0  0  0  0
 14 15  1  0  0  0  0
 17 16  1  0  0  0  0
 19 18  1  0  0  0  0
 20 19  1  0  0  0  0
 20 25  1  0  0  0  0
 21 26  1  0  0  0  0
 22 29  1  0  0  0  0
 23 24  1  0  0  0  0
 23 29  1  0  0  0  0
 24 25  1  0  0  0  0
 25 21  1  0  0  0  0
 27 21  1  0  0  0  0
 27 30  1  0  0  0  0
 28 26  1  0  0  0  0
 29 27  1  0  0  0  0
 29 28  1  0  0  0  0
 31 34  1  0  0  0  0
 32 31  1  0  0  0  0
 34 33  1  0  0  0  0
 35 32  1  0  0  0  0
 35 36  1  0  0  0  0
 35 33  1  0  0  0  0
 36 45  1  0  0  0  0
 37 40  1  0  0  0  0
 38 44  1  0  0  0  0
 38 42  1  0  0  0  0
 39 43  1  0  0  0  0
 39 41  1  0  0  0  0
 40 43  1  0  0  0  0
 40 36  1  0  0  0  0
 42 39  1  0  0  0  0
 43 41  1  0  0  0  0
 44 37  1  0  0  0  0
 45 46  2  0  0  0  0
 45 47  1  0  0  0  0
M  END
>  <MODEL>
3

>  <REMARK>
 VINA RESULT:      -7.2      1.567      1.904
  Name = 
  10 active torsions:
  status: ('A' for Active; 'I' for Inactive)
    1  A    between atoms: C_2  and  C_5
    2  A    between atoms: C_3  and  O_15
    3  A    between atoms: C_4  and  C_10
    4  A    between atoms: C_4  and  C_21
    5  A    between atoms: C_7  and  C_14
    6  A    between atoms: C_7  and  C_27
    7  A    between atoms: C_7  and  C_43
    8  A    between atoms: C_10  and  O_15
    9  A    between atoms: C_23  and  N_42
   10  A    between atoms: C_35  and  O_38
                            x       y       z     vdW  Elec       q    Type
                         _______ _______ _______ _____ _____    ______ ____

>  <TORSDO>
F 10

$$$$
=
 OpenBabel11072409033D

 47 54  0  0  1  0  0  0  0  0999 V2000
  194.4510  175.0340  144.9720 C   0  0  2  0  0  3  0  0  0  0  0  0
  191.9550  174.6170  145.3150 C   0  0  0  0  0  2  0  0  0  0  0  0
  192.3310  176.6470  146.8160 C   0  0  0  0  0  2  0  0  0  0  0  0
  191.5900  175.3200  146.6340 C   0  0  1  0  0  3  0  0  0  0  0  0
  193.7700  176.4330  146.8910 N   0  0  0  0  0  2  0  0  0  0  0  0
  193.3640  174.0380  145.3950 C   0  0  0  0  0  2  0  0  0  0  0  0
  194.2680  176.4560  145.5230 C   0  0  0  0  0  2  0  0  0  0  0  0
  194.6090  175.0300  143.4790 C   0  0  2  0  0  3  0  0  0  0  0  0
  196.0760  174.1790  141.4420 C   0  0  1  0  0  0  0  0  0  0  0  0
  195.5350  174.3330  142.8710 C   0  0  1  0  0  3  0  0  0  0  0  0
  194.1720  176.1540  142.5450 C   0  0  0  0  0  2  0  0  0  0  0  0
  195.2370  176.5210  141.5810 N   0  0  0  0  0  0  0  0  0  0  0  0
  196.0990  175.6670  141.0780 C   0  0  0  0  0  3  0  0  0  0  0  0
  196.7210  173.4750  142.5230 C   0  0  1  0  0  0  0  0  0  0  0  0
  196.4700  172.1110  142.7030 O   0  0  0  0  0  1  0  0  0  0  0  0
  197.9130  173.7140  144.4070 C   0  0  0  0  0  1  0  0  0  0  0  0
  197.9250  173.9810  143.0340 O   0  0  0  0  0  0  0  0  0  0  0  0
  195.3090  173.3280  140.6010 O   0  0  0  0  0  0  0  0  0  0  0  0
  194.5630  174.0810  139.6790 C   0  0  0  0  0  2  0  0  0  0  0  0
  193.4520  173.2240  139.0860 C   0  0  0  0  0  2  0  0  0  0  0  0
  190.9140  172.7980  138.9710 C   0  0  2  0  0  3  0  0  0  0  0  0
  189.7610  171.0460  141.8890 F   0  0  0  0  0  0  0  0  0  0  0  0
  191.3760  172.8210  141.8480 C   0  0  0  0  0  2  0  0  0  0  0  0
  191.9470  173.9970  141.0240 C   0  0  0  0  0  2  0  0  0  0  0  0
  192.0560  173.6940  139.5080 C   0  0  1  0  0  3  0  0  0  0  0  0
  189.5760  173.4820  139.2570 C   0  0  0  0  0  2  0  0  0  0  0  0
  190.8590  171.5360  139.8120 C   0  0  1  0  0  3  0  0  0  0  0  0
  189.1630  173.0230  140.6570 C   0  0  0  0  0  2  0  0  0  0  0  0
  190.2650  172.0640  141.1010 C   0  0  1  0  0  0  0  0  0  0  0  0
  190.0110  170.5920  139.2170 O   0  0  0  0  0  1  0  0  0  0  0  0
  189.4530  175.0510  145.6130 C   0  0  0  0  0  2  0  0  0  0  0  0
  188.2550  175.7580  145.4480 O   0  0  0  0  0  0  0  0  0  0  0  0
  189.7430  177.2320  147.0060 S   0  0  0  0  0  0  0  0  0  0  0  0
  190.1450  175.5180  146.8090 N   0  0  2  0  0  0  0  0  0  0  0  0
  188.6130  177.1010  145.6020 C   0  0  2  0  0  3  0  0  0  0  0  0
  187.3870  178.0040  145.7960 C   0  0  1  0  0  3  0  0  0  0  0  0
  187.1270  178.0140  143.2560 C   0  0  0  0  0  2  0  0  0  0  0  0
  184.9380  178.0840  141.9990 C   0  0  0  0  0  2  0  0  0  0  0  0
  184.2240  179.0840  143.8740 C   0  0  2  0  0  3  0  0  0  0  0  0
  186.4150  178.0080  144.6120 C   0  0  2  0  0  3  0  0  0  0  0  0
  184.2260  178.7810  145.2510 O   0  0  0  0  0  0  0  0  0  0  0  0
  184.1520  177.8870  143.1430 O   0  0  0  0  0  0  0  0  0  0  0  0
  185.4590  179.2000  144.7170 C   0  0  2  0  0  3  0  0  0  0  0  0
  186.2720  177.3650  142.1700 C   0  0  0  0  0  2  0  0  0  0  0  0
  186.6910  177.8050  147.1090 C   0  0  0  0  0  0  0  0  0  0  0  0
  186.7360  178.7130  147.9800 O   0  0  0  0  0  1  0  0  0  0  0  0
  185.9920  176.6310  147.3750 O   0  0  0  0  0  0  0  0  0  0  0  0
  1  6  1  6  0  0  0
  1  7  1  0  0  0  0
  2  6  1  0  0  0  0
  3  5  1  0  0  0  0
  4  2  1  6  0  0  0
  4 34  1  0  0  0  0
  4  3  1  0  0  0  0
  7  5  1  0  0  0  0
  8 11  1  1  0  0  0
  8  1  1  0  0  0  0
  9 18  1  6  0  0  0
  9 14  1  0  0  0  0
  9 10  1  0  0  0  0
 10  8  1  0  0  0  0
 12 11  1  0  0  0  0
 13  9  1  0  0  0  0
 13 12  2  0  0  0  0
 14 15  1  0  0  0  0
 14 10  1  0  0  0  0
 14 17  1  0  0  0  0
 17 16  1  0  0  0  0
 19 18  1  0  0  0  0
 20 25  1  0  0  0  0
 20 19  1  0  0  0  0
 21 26  1  0  0  0  0
 21 25  1  0  0  0  0
 21 27  1  0  0  0  0
 24 23  1  0  0  0  0
 25 24  1  0  0  0  0
 26 28  1  0  0  0  0
 27 29  1  0  0  0  0
 28 29  1  0  0  0  0
 29 23  1  0  0  0  0
 29 22  1  0  0  0  0
 30 27  1  0  0  0  0
 31 34  1  0  0  0  0
 32 35  1  0  0  0  0
 32 31  1  0  0  0  0
 34 33  1  0  0  0  0
 35 36  1  0  0  0  0
 35 33  1  0  0  0  0
 36 45  1  0  0  0  0
 37 40  1  0  0  0  0
 38 44  1  0  0  0  0
 38 42  1  0  0  0  0
 39 43  1  0  0  0  0
 39 41  1  0  0  0  0
 40 43  1  0  0  0  0
 40 36  1  0  0  0  0
 42 39  1  0  0  0  0
 43 41  1  0  0  0  0
 44 37  1  0  0  0  0
 45 47  2  0  0  0  0
 45 46  1  0  0  0  0
M  END
>  <MODEL>
4

>  <REMARK>
 VINA RESULT:      -6.7      1.241      1.515
  Name = 
  10 active torsions:
  status: ('A' for Active; 'I' for Inactive)
    1  A    between atoms: C_2  and  C_5
    2  A    between atoms: C_3  and  O_15
    3  A    between atoms: C_4  and  C_10
    4  A    between atoms: C_4  and  C_21
    5  A    between atoms: C_7  and  C_14
    6  A    between atoms: C_7  and  C_27
    7  A    between atoms: C_7  and  C_43
    8  A    between atoms: C_10  and  O_15
    9  A    between atoms: C_23  and  N_42
   10  A    between atoms: C_35  and  O_38
                            x       y       z     vdW  Elec       q    Type
                         _______ _______ _______ _____ _____    ______ ____

>  <TORSDO>
F 10

$$$$
=
 OpenBabel11072409033D

 47 54  0  0  1  0  0  0  0  0999 V2000
  190.6560  172.3410  140.9580 C   0  0  2  0  0  3  0  0  0  0  0  0
  190.1480  174.7750  141.5440 C   0  0  0  0  0  2  0  0  0  0  0  0
  187.8920  173.6710  142.0030 C   0  0  0  0  0  2  0  0  0  0  0  0
  188.6160  174.9110  141.4750 C   0  0  1  0  0  3  0  0  0  0  0  0
  188.2010  172.5020  141.1910 N   0  0  0  0  0  2  0  0  0  0  0  0
  190.6410  173.8000  140.4810 C   0  0  0  0  0  2  0  0  0  0  0  0
  189.4100  171.9130  141.7480 C   0  0  0  0  0  2  0  0  0  0  0  0
  191.9220  172.0530  141.7110 C   0  0  2  0  0  3  0  0  0  0  0  0
  194.5650  171.9260  141.5680 C   0  0  1  0  0  0  0  0  0  0  0  0
  193.1080  172.2210  141.1850 C   0  0  1  0  0  3  0  0  0  0  0  0
  192.0520  171.0660  142.8670 C   0  0  0  0  0  2  0  0  0  0  0  0
  193.2150  170.1610  142.6970 N   0  0  0  0  0  0  0  0  0  0  0  0
  194.3410  170.5140  142.1210 C   0  0  0  0  0  3  0  0  0  0  0  0
  194.2730  172.4730  140.2660 C   0  0  1  0  0  0  0  0  0  0  0  0
  194.4870  173.8350  140.0280 O   0  0  0  0  0  1  0  0  0  0  0  0
  193.3650  172.1430  138.2430 C   0  0  0  0  0  1  0  0  0  0  0  0
  194.2830  171.6150  139.1570 O   0  0  0  0  0  0  0  0  0  0  0  0
  195.1550  172.8700  142.4510 O   0  0  0  0  0  0  0  0  0  0  0  0
  195.5160  172.2610  143.6650 C   0  0  0  0  0  2  0  0  0  0  0  0
  194.8100  172.9510  144.8240 C   0  0  0  0  0  2  0  0  0  0  0  0
  192.7880  174.5130  144.4960 C   0  0  2  0  0  3  0  0  0  0  0  0
  192.1860  176.4860  147.4390 F   0  0  0  0  0  0  0  0  0  0  0  0
  194.3310  175.9610  146.5000 C   0  0  0  0  0  2  0  0  0  0  0  0
  195.0780  175.4750  145.2370 C   0  0  0  0  0  2  0  0  0  0  0  0
  194.3280  174.3610  144.4660 C   0  0  1  0  0  3  0  0  0  0  0  0
  192.4170  175.8760  143.9070 C   0  0  0  0  0  2  0  0  0  0  0  0
  192.3450  174.6150  145.9440 C   0  0  1  0  0  3  0  0  0  0  0  0
  192.4540  176.8600  145.0780 C   0  0  0  0  0  2  0  0  0  0  0  0
  192.8080  176.0130  146.2990 C   0  0  1  0  0  0  0  0  0  0  0  0
  190.9510  174.5090  146.0350 O   0  0  0  0  0  1  0  0  0  0  0  0
  189.1610  177.1270  142.1670 C   0  0  0  0  0  2  0  0  0  0  0  0
  188.9860  177.9700  143.2720 O   0  0  0  0  0  0  0  0  0  0  0  0
  187.6600  175.7900  143.8240 S   0  0  0  0  0  0  0  0  0  0  0  0
  188.1070  176.1180  142.1420 N   0  0  2  0  0  0  0  0  0  0  0  0
  188.7850  177.1030  144.3500 C   0  0  2  0  0  3  0  0  0  0  0  0
  188.2360  177.8360  145.5820 C   0  0  1  0  0  3  0  0  0  0  0  0
  186.3020  179.0190  144.4070 C   0  0  0  0  0  2  0  0  0  0  0  0
  183.8760  178.9230  145.1020 C   0  0  0  0  0  2  0  0  0  0  0  0
  184.7680  178.5240  147.1190 C   0  0  2  0  0  3  0  0  0  0  0  0
  186.7250  178.0850  145.5450 C   0  0  2  0  0  3  0  0  0  0  0  0
  185.6830  177.5980  147.6600 O   0  0  0  0  0  0  0  0  0  0  0  0
  184.0780  177.9170  146.0570 O   0  0  0  0  0  0  0  0  0  0  0  0
  186.2460  178.6350  146.8910 C   0  0  2  0  0  3  0  0  0  0  0  0
  184.8690  178.7440  143.9580 C   0  0  0  0  0  2  0  0  0  0  0  0
  188.6890  177.2510  146.8870 C   0  0  0  0  0  0  0  0  0  0  0  0
  189.4290  177.9290  147.6480 O   0  0  0  0  0  1  0  0  0  0  0  0
  188.2990  175.9710  147.2670 O   0  0  0  0  0  0  0  0  0  0  0  0
  1  6  1  1  0  0  0
  1  8  1  0  0  0  0
  1  7  1  0  0  0  0
  4  2  1  1  0  0  0
  4  3  1  0  0  0  0
  4 34  1  0  0  0  0
  5  7  1  0  0  0  0
  5  3  1  0  0  0  0
  6  2  1  0  0  0  0
  8 11  1  6  0  0  0
  9 13  1  0  0  0  0
  9 18  1  1  0  0  0
 10  9  1  0  0  0  0
 10  8  1  0  0  0  0
 12 11  1  0  0  0  0
 13 12  2  0  0  0  0
 14 10  1  0  0  0  0
 14  9  1  0  0  0  0
 15 14  1  0  0  0  0
 16 17  1  0  0  0  0
 17 14  1  0  0  0  0
 18 19  1  0  0  0  0
 19 20  1  0  0  0  0
 21 27  1  0  0  0  0
 24 23  1  0  0  0  0
 25 21  1  0  0  0  0
 25 20  1  0  0  0  0
 25 24  1  0  0  0  0
 26 21  1  0  0  0  0
 26 28  1  0  0  0  0
 27 30  1  0  0  0  0
 27 29  1  0  0  0  0
 28 29  1  0  0  0  0
 29 23  1  0  0  0  0
 29 22  1  0  0  0  0
 31 32  1  0  0  0  0
 32 35  1  0  0  0  0
 33 35  1  0  0  0  0
 34 31  1  0  0  0  0
 34 33  1  0  0  0  0
 35 36  1  0  0  0  0
 36 45  1  0  0  0  0
 37 40  1  0  0  0  0
 38 42  1  0  0  0  0
 39 41  1  0  0  0  0
 40 36  1  0  0  0  0
 40 43  1  0  0  0  0
 42 39  1  0  0  0  0
 43 39  1  0  0  0  0
 43 41  1  0  0  0  0
 44 37  1  0  0  0  0
 44 38  1  0  0  0  0
 45 47  2  0  0  0  0
 45 46  1  0  0  0  0
M  END
>  <MODEL>
5

>  <REMARK>
 VINA RESULT:      -6.6      2.665      4.955
  Name = 
  10 active torsions:
  status: ('A' for Active; 'I' for Inactive)
    1  A    between atoms: C_2  and  C_5
    2  A    between atoms: C_3  and  O_15
    3  A    between atoms: C_4  and  C_10
    4  A    between atoms: C_4  and  C_21
    5  A    between atoms: C_7  and  C_14
    6  A    between atoms: C_7  and  C_27
    7  A    between atoms: C_7  and  C_43
    8  A    between atoms: C_10  and  O_15
    9  A    between atoms: C_23  and  N_42
   10  A    between atoms: C_35  and  O_38
                            x       y       z     vdW  Elec       q    Type
                         _______ _______ _______ _____ _____    ______ ____

>  <TORSDO>
F 10

$$$$
=
 OpenBabel11072409033D

 47 54  0  0  1  0  0  0  0  0999 V2000
  193.9150  174.2440  144.6140 C   0  0  2  0  0  3  0  0  0  0  0  0
  191.8810  174.4700  146.1430 C   0  0  0  0  0  2  0  0  0  0  0  0
  192.0330  176.8230  145.1660 C   0  0  0  0  0  2  0  0  0  0  0  0
  191.7170  175.9780  146.4020 C   0  0  1  0  0  3  0  0  0  0  0  0
  193.4240  176.6620  144.7660 N   0  0  0  0  0  2  0  0  0  0  0  0
  193.3590  174.1080  146.0380 C   0  0  0  0  0  2  0  0  0  0  0  0
  193.4710  175.5140  143.8710 C   0  0  0  0  0  2  0  0  0  0  0  0
  193.6260  173.0030  143.8200 C   0  0  2  0  0  3  0  0  0  0  0  0
  191.9210  171.8090  142.1800 C   0  0  1  0  0  0  0  0  0  0  0  0
  192.5970  172.9030  143.0190 C   0  0  1  0  0  3  0  0  0  0  0  0
  194.0680  171.5940  144.2010 C   0  0  0  0  0  2  0  0  0  0  0  0
  192.9550  170.6180  144.1100 N   0  0  0  0  0  0  0  0  0  0  0  0
  191.9860  170.6910  143.2260 C   0  0  0  0  0  3  0  0  0  0  0  0
  191.3190  173.1180  142.2530 C   0  0  1  0  0  0  0  0  0  0  0  0
  191.4750  174.0070  141.1850 O   0  0  0  0  0  1  0  0  0  0  0  0
  189.8720  174.6590  143.0010 C   0  0  0  0  0  1  0  0  0  0  0  0
  190.2100  173.3040  143.0910 O   0  0  0  0  0  0  0  0  0  0  0  0
  192.5390  171.5480  140.9280 O   0  0  0  0  0  0  0  0  0  0  0  0
  192.1250  170.3060  140.4170 C   0  0  0  0  0  2  0  0  0  0  0  0
  190.7410  170.4350  139.7950 C   0  0  0  0  0  2  0  0  0  0  0  0
  189.5560  171.2910  137.6750 C   0  0  2  0  0  3  0  0  0  0  0  0
  190.8390  174.4980  136.6790 F   0  0  0  0  0  0  0  0  0  0  0  0
  192.1300  172.6470  137.4980 C   0  0  0  0  0  2  0  0  0  0  0  0
  192.1410  171.1220  137.7500 C   0  0  0  0  0  2  0  0  0  0  0  0
  190.7900  170.5710  138.2700 C   0  0  1  0  0  3  0  0  0  0  0  0
  189.6020  171.1680  136.1500 C   0  0  0  0  0  2  0  0  0  0  0  0
  189.7070  172.7820  137.9180 C   0  0  1  0  0  3  0  0  0  0  0  0
  190.4290  172.3580  135.6590 C   0  0  0  0  0  2  0  0  0  0  0  0
  190.7910  173.1380  136.9220 C   0  0  1  0  0  0  0  0  0  0  0  0
  188.5110  173.4470  137.6180 O   0  0  0  0  0  1  0  0  0  0  0  0
  189.5040  175.1920  146.8090 C   0  0  0  0  0  2  0  0  0  0  0  0
  188.1790  175.6310  146.6900 O   0  0  0  0  0  0  0  0  0  0  0  0
  189.6680  177.6710  146.0290 S   0  0  0  0  0  0  0  0  0  0  0  0
  190.3970  176.3370  146.9380 N   0  0  2  0  0  0  0  0  0  0  0  0
  188.2250  176.6300  145.7140 C   0  0  2  0  0  3  0  0  0  0  0  0
  186.9380  177.4680  145.6880 C   0  0  1  0  0  3  0  0  0  0  0  0
  187.2830  177.4080  143.1580 C   0  0  0  0  0  2  0  0  0  0  0  0
  185.4880  177.7640  141.4180 C   0  0  0  0  0  2  0  0  0  0  0  0
  184.5280  178.9420  143.0650 C   0  0  2  0  0  3  0  0  0  0  0  0
  186.2830  177.5720  144.3070 C   0  0  2  0  0  3  0  0  0  0  0  0
  184.1590  178.7020  144.4050 O   0  0  0  0  0  0  0  0  0  0  0  0
  184.4360  177.7410  142.3440 O   0  0  0  0  0  0  0  0  0  0  0  0
  185.5340  178.9020  144.1760 C   0  0  2  0  0  3  0  0  0  0  0  0
  186.6120  176.8540  141.9040 C   0  0  0  0  0  2  0  0  0  0  0  0
  185.9570  177.1040  146.7620 C   0  0  0  0  0  0  0  0  0  0  0  0
  185.0190  176.3060  146.5030 O   0  0  0  0  0  0  0  0  0  0  0  0
  186.0740  177.6360  148.0430 O   0  0  0  0  0  1  0  0  0  0  0  0
  1  7  1  6  0  0  0
  1  6  1  0  0  0  0
  2  4  1  0  0  0  0
  4  3  1  6  0  0  0
  4 34  1  0  0  0  0
  5  3  1  0  0  0  0
  6  2  1  0  0  0  0
  7  5  1  0  0  0  0
  8 11  1  1  0  0  0
  8  1  1  0  0  0  0
  9 18  1  6  0  0  0
  9 14  1  0  0  0  0
  9 10  1  0  0  0  0
  9 13  1  0  0  0  0
 10  8  1  0  0  0  0
 12 11  1  0  0  0  0
 13 12  2  0  0  0  0
 14 10  1  0  0  0  0
 14 17  1  0  0  0  0
 15 14  1  0  0  0  0
 16 17  1  0  0  0  0
 19 18  1  0  0  0  0
 20 19  1  0  0  0  0
 21 27  1  0  0  0  0
 21 25  1  0  0  0  0
 22 29  1  0  0  0  0
 23 24  1  0  0  0  0
 24 25  1  0  0  0  0
 25 20  1  0  0  0  0
 26 21  1  0  0  0  0
 28 26  1  0  0  0  0
 28 29  1  0  0  0  0
 29 23  1  0  0  0  0
 29 27  1  0  0  0  0
 30 27  1  0  0  0  0
 31 34  1  0  0  0  0
 32 31  1  0  0  0  0
 33 34  1  0  0  0  0
 35 33  1  0  0  0  0
 35 32  1  0  0  0  0
 36 35  1  0  0  0  0
 36 45  1  0  0  0  0
 37 40  1  0  0  0  0
 38 44  1  0  0  0  0
 38 42  1  0  0  0  0
 39 43  1  0  0  0  0
 39 41  1  0  0  0  0
 40 36  1  0  0  0  0
 42 39  1  0  0  0  0
 43 40  1  0  0  0  0
 43 41  1  0  0  0  0
 44 37  1  0  0  0  0
 45 47  1  0  0  0  0
 46 45  2  0  0  0  0
M  END
>  <MODEL>
6

>  <REMARK>
 VINA RESULT:      -6.6      2.428      3.703
  Name = 
  10 active torsions:
  status: ('A' for Active; 'I' for Inactive)
    1  A    between atoms: C_2  and  C_5
    2  A    between atoms: C_3  and  O_15
    3  A    between atoms: C_4  and  C_10
    4  A    between atoms: C_4  and  C_21
    5  A    between atoms: C_7  and  C_14
    6  A    between atoms: C_7  and  C_27
    7  A    between atoms: C_7  and  C_43
    8  A    between atoms: C_10  and  O_15
    9  A    between atoms: C_23  and  N_42
   10  A    between atoms: C_35  and  O_38
                            x       y       z     vdW  Elec       q    Type
                         _______ _______ _______ _____ _____    ______ ____

>  <TORSDO>
F 10

$$$$
=
 OpenBabel11072409033D

 47 54  0  0  1  0  0  0  0  0999 V2000
  192.4550  171.6880  141.7710 C   0  0  2  0  0  3  0  0  0  0  0  0
  190.8620  173.4290  140.7930 C   0  0  0  0  0  2  0  0  0  0  0  0
  189.3160  172.1870  142.4010 C   0  0  0  0  0  2  0  0  0  0  0  0
  189.4430  172.8870  141.0460 C   0  0  1  0  0  3  0  0  0  0  0  0
  190.1810  171.0160  142.4650 N   0  0  0  0  0  2  0  0  0  0  0  0
  191.8240  172.2810  140.5040 C   0  0  0  0  0  2  0  0  0  0  0  0
  191.4770  171.4790  142.9370 C   0  0  0  0  0  2  0  0  0  0  0  0
  193.6520  172.4960  142.1830 C   0  0  2  0  0  3  0  0  0  0  0  0
  195.6110  174.0730  141.3490 C   0  0  1  0  0  0  0  0  0  0  0  0
  194.3190  173.2450  141.3420 C   0  0  1  0  0  3  0  0  0  0  0  0
  194.5670  172.1750  143.3600 C   0  0  0  0  0  2  0  0  0  0  0  0
  196.0000  172.2320  142.9820 N   0  0  0  0  0  0  0  0  0  0  0  0
  196.4910  173.0610  142.0900 C   0  0  0  0  0  3  0  0  0  0  0  0
  194.8660  173.9360  140.1220 C   0  0  1  0  0  0  0  0  0  0  0  0
  194.0520  174.9890  139.6900 O   0  0  0  0  0  1  0  0  0  0  0  0
  194.5030  173.2090  138.0320 C   0  0  0  0  0  1  0  0  0  0  0  0
  195.3260  173.0370  139.1500 O   0  0  0  0  0  0  0  0  0  0  0  0
  195.4920  175.3630  141.9340 O   0  0  0  0  0  0  0  0  0  0  0  0
  196.5170  175.5830  142.8690 C   0  0  0  0  0  2  0  0  0  0  0  0
  195.9450  175.5720  144.2800 C   0  0  0  0  0  2  0  0  0  0  0  0
  193.3690  175.5330  144.2670 C   0  0  2  0  0  3  0  0  0  0  0  0
  192.0580  175.4440  147.6120 F   0  0  0  0  0  0  0  0  0  0  0  0
  193.9250  176.7490  146.8560 C   0  0  0  0  0  2  0  0  0  0  0  0
  194.6430  177.3390  145.6210 C   0  0  0  0  0  2  0  0  0  0  0  0
  194.6530  176.3870  144.3990 C   0  0  1  0  0  3  0  0  0  0  0  0
  192.1620  176.4690  144.1720 C   0  0  0  0  0  2  0  0  0  0  0  0
  193.1480  174.7950  145.5750 C   0  0  1  0  0  3  0  0  0  0  0  0
  191.7320  176.7430  145.6140 C   0  0  0  0  0  2  0  0  0  0  0  0
  192.6870  175.9210  146.4770 C   0  0  1  0  0  0  0  0  0  0  0  0
  192.1460  173.8280  145.4240 O   0  0  0  0  0  1  0  0  0  0  0  0
  189.0180  175.2250  140.8570 C   0  0  0  0  0  2  0  0  0  0  0  0
  188.1300  176.1900  141.3510 O   0  0  0  0  0  0  0  0  0  0  0  0
  187.2890  173.9010  142.2860 S   0  0  0  0  0  0  0  0  0  0  0  0
  188.3950  173.9070  140.9020 N   0  0  2  0  0  0  0  0  0  0  0  0
  187.6560  175.6510  142.5510 C   0  0  2  0  0  3  0  0  0  0  0  0
  186.4190  176.4000  143.0680 C   0  0  1  0  0  3  0  0  0  0  0  0
  185.3840  177.6740  145.0250 C   0  0  0  0  0  2  0  0  0  0  0  0
  186.0570  177.4490  147.4490 C   0  0  0  0  0  2  0  0  0  0  0  0
  188.0160  176.8350  146.5500 C   0  0  2  0  0  3  0  0  0  0  0  0
  186.4070  176.6210  144.5840 C   0  0  2  0  0  3  0  0  0  0  0  0
  188.4480  175.8700  145.6170 O   0  0  0  0  0  0  0  0  0  0  0  0
  186.8880  176.3430  147.2270 O   0  0  0  0  0  0  0  0  0  0  0  0
  187.8070  177.0010  145.0750 C   0  0  2  0  0  3  0  0  0  0  0  0
  184.9020  177.4250  146.4520 C   0  0  0  0  0  2  0  0  0  0  0  0
  186.1050  177.6500  142.3030 C   0  0  0  0  0  0  0  0  0  0  0  0
  186.8900  178.6330  142.3690 O   0  0  0  0  0  1  0  0  0  0  0  0
  184.9590  177.7360  141.5180 O   0  0  0  0  0  0  0  0  0  0  0  0
  1  6  1  6  0  0  0
  1  8  1  0  0  0  0
  1  7  1  0  0  0  0
  3  5  1  0  0  0  0
  4  2  1  1  0  0  0
  4  3  1  0  0  0  0
  5  7  1  0  0  0  0
  6  2  1  0  0  0  0
  8 11  1  6  0  0  0
  9 18  1  1  0  0  0
  9 13  1  0  0  0  0
 10  9  1  0  0  0  0
 10  8  1  0  0  0  0
 12 11  1  0  0  0  0
 13 12  2  0  0  0  0
 14 10  1  0  0  0  0
 14  9  1  0  0  0  0
 15 14  1  0  0  0  0
 16 17  1  0  0  0  0
 17 14  1  0  0  0  0
 18 19  1  0  0  0  0
 19 20  1  0  0  0  0
 20 25  1  0  0  0  0
 21 25  1  0  0  0  0
 21 27  1  0  0  0  0
 24 23  1  0  0  0  0
 25 24  1  0  0  0  0
 26 21  1  0  0  0  0
 26 28  1  0  0  0  0
 27 29  1  0  0  0  0
 28 29  1  0  0  0  0
 29 23  1  0  0  0  0
 29 22  1  0  0  0  0
 30 27  1  0  0  0  0
 31 34  1  0  0  0  0
 31 32  1  0  0  0  0
 32 35  1  0  0  0  0
 33 35  1  0  0  0  0
 34  4  1  0  0  0  0
 34 33  1  0  0  0  0
 35 36  1  0  0  0  0
 36 40  1  0  0  0  0
 37 44  1  0  0  0  0
 39 42  1  0  0  0  0
 40 37  1  0  0  0  0
 40 43  1  0  0  0  0
 41 39  1  0  0  0  0
 42 38  1  0  0  0  0
 43 41  1  0  0  0  0
 43 39  1  0  0  0  0
 44 38  1  0  0  0  0
 45 46  1  0  0  0  0
 45 36  1  0  0  0  0
 47 45  2  0  0  0  0
M  END
>  <MODEL>
7

>  <REMARK>
 VINA RESULT:      -6.5      2.613      5.276
  Name = 
  10 active torsions:
  status: ('A' for Active; 'I' for Inactive)
    1  A    between atoms: C_2  and  C_5
    2  A    between atoms: C_3  and  O_15
    3  A    between atoms: C_4  and  C_10
    4  A    between atoms: C_4  and  C_21
    5  A    between atoms: C_7  and  C_14
    6  A    between atoms: C_7  and  C_27
    7  A    between atoms: C_7  and  C_43
    8  A    between atoms: C_10  and  O_15
    9  A    between atoms: C_23  and  N_42
   10  A    between atoms: C_35  and  O_38
                            x       y       z     vdW  Elec       q    Type
                         _______ _______ _______ _____ _____    ______ ____

>  <TORSDO>
F 10

$$$$
=
 OpenBabel11072409033D

 47 54  0  0  1  0  0  0  0  0999 V2000
  193.1900  171.4820  139.7170 C   0  0  2  0  0  3  0  0  0  0  0  0
  191.3310  172.9250  140.7120 C   0  0  0  0  0  2  0  0  0  0  0  0
  190.7370  170.6280  141.6530 C   0  0  0  0  0  2  0  0  0  0  0  0
  190.2040  171.9500  141.0950 C   0  0  1  0  0  3  0  0  0  0  0  0
  191.5210  169.9180  140.6520 N   0  0  0  0  0  2  0  0  0  0  0  0
  192.0320  172.4520  139.4420 C   0  0  0  0  0  2  0  0  0  0  0  0
  192.8880  170.4050  140.7690 C   0  0  0  0  0  2  0  0  0  0  0  0
  194.4420  172.2450  140.0400 C   0  0  2  0  0  3  0  0  0  0  0  0
  196.1360  174.1080  139.2160 C   0  0  1  0  0  0  0  0  0  0  0  0
  194.8860  173.2200  139.2900 C   0  0  1  0  0  3  0  0  0  0  0  0
  195.6100  171.7100  140.8620 C   0  0  0  0  0  2  0  0  0  0  0  0
  196.9140  171.9550  140.2000 N   0  0  0  0  0  0  0  0  0  0  0  0
  197.1750  173.0090  139.4610 C   0  0  0  0  0  3  0  0  0  0  0  0
  195.1250  174.2240  138.1940 C   0  0  1  0  0  0  0  0  0  0  0  0
  194.2230  175.2920  138.2360 O   0  0  0  0  0  1  0  0  0  0  0  0
  194.0950  173.3280  136.4150 C   0  0  0  0  0  1  0  0  0  0  0  0
  195.3540  173.6220  136.9490 O   0  0  0  0  0  0  0  0  0  0  0  0
  196.1440  175.2050  140.1200 O   0  0  0  0  0  0  0  0  0  0  0  0
  197.3970  175.3270  140.7440 C   0  0  0  0  0  2  0  0  0  0  0  0
  197.2140  175.5480  142.2400 C   0  0  0  0  0  2  0  0  0  0  0  0
  196.1090  173.8650  143.8470 C   0  0  2  0  0  3  0  0  0  0  0  0
  195.0650  175.4720  146.8870 F   0  0  0  0  0  0  0  0  0  0  0  0
  194.8630  176.3680  144.6700 C   0  0  0  0  0  2  0  0  0  0  0  0
  194.8610  176.0310  143.1610 C   0  0  0  0  0  2  0  0  0  0  0  0
  195.9030  174.9540  142.7670 C   0  0  1  0  0  3  0  0  0  0  0  0
  194.7650  173.1910  144.1290 C   0  0  0  0  0  2  0  0  0  0  0  0
  196.4500  174.5490  145.1580 C   0  0  1  0  0  3  0  0  0  0  0  0
  194.0980  174.0300  145.2220 C   0  0  0  0  0  2  0  0  0  0  0  0
  195.1070  175.1300  145.5490 C   0  0  1  0  0  0  0  0  0  0  0  0
  196.8830  173.6060  146.1000 O   0  0  0  0  0  1  0  0  0  0  0  0
  188.2020  173.2350  141.2480 C   0  0  0  0  0  2  0  0  0  0  0  0
  187.6610  174.2770  142.0120 O   0  0  0  0  0  0  0  0  0  0  0  0
  189.9660  173.7170  143.1030 S   0  0  0  0  0  0  0  0  0  0  0  0
  189.2200  172.5300  142.0190 N   0  0  2  0  0  0  0  0  0  0  0  0
  188.7730  174.9480  142.5310 C   0  0  2  0  0  3  0  0  0  0  0  0
  188.3860  175.9070  143.6670 C   0  0  1  0  0  3  0  0  0  0  0  0
  188.4600  175.6650  146.2080 C   0  0  0  0  0  2  0  0  0  0  0  0
  190.5530  175.6090  147.6220 C   0  0  0  0  0  2  0  0  0  0  0  0
  191.3940  176.7880  145.9120 C   0  0  2  0  0  3  0  0  0  0  0  0
  189.2690  175.7930  144.9130 C   0  0  2  0  0  3  0  0  0  0  0  0
  191.4940  176.6230  144.5150 O   0  0  0  0  0  0  0  0  0  0  0  0
  191.4200  175.5250  146.5250 O   0  0  0  0  0  0  0  0  0  0  0  0
  190.2230  176.9880  144.9970 C   0  0  2  0  0  3  0  0  0  0  0  0
  189.2390  174.9110  147.2850 C   0  0  0  0  0  2  0  0  0  0  0  0
  188.2000  177.3270  143.2230 C   0  0  0  0  0  0  0  0  0  0  0  0
  187.3590  178.0560  143.8110 O   0  0  0  0  0  1  0  0  0  0  0  0
  188.9480  177.8490  142.1720 O   0  0  0  0  0  0  0  0  0  0  0  0
  1  6  1  1  0  0  0
  1  8  1  0  0  0  0
  1  7  1  0  0  0  0
  4  2  1  1  0  0  0
  4  3  1  0  0  0  0
  4 34  1  0  0  0  0
  5  7  1  0  0  0  0
  5  3  1  0  0  0  0
  6  2  1  0  0  0  0
  8 11  1  6  0  0  0
  9 10  1  0  0  0  0
  9 13  1  0  0  0  0
  9 18  1  1  0  0  0
 10  8  1  0  0  0  0
 12 11  1  0  0  0  0
 13 12  2  0  0  0  0
 14 15  1  0  0  0  0
 14  9  1  0  0  0  0
 14 10  1  0  0  0  0
 16 17  1  0  0  0  0
 17 14  1  0  0  0  0
 18 19  1  0  0  0  0
 19 20  1  0  0  0  0
 20 25  1  0  0  0  0
 21 26  1  0  0  0  0
 21 27  1  0  0  0  0
 23 29  1  0  0  0  0
 24 23  1  0  0  0  0
 25 24  1  0  0  0  0
 25 21  1  0  0  0  0
 26 28  1  0  0  0  0
 27 29  1  0  0  0  0
 27 30  1  0  0  0  0
 28 29  1  0  0  0  0
 29 22  1  0  0  0  0
 31 32  1  0  0  0  0
 31 34  1  0  0  0  0
 32 35  1  0  0  0  0
 34 33  1  0  0  0  0
 35 33  1  0  0  0  0
 35 36  1  0  0  0  0
 36 40  1  0  0  0  0
 37 44  1  0  0  0  0
 39 42  1  0  0  0  0
 40 43  1  0  0  0  0
 40 37  1  0  0  0  0
 41 43  1  0  0  0  0
 41 39  1  0  0  0  0
 42 38  1  0  0  0  0
 43 39  1  0  0  0  0
 44 38  1  0  0  0  0
 45 36  1  0  0  0  0
 45 46  1  0  0  0  0
 47 45  2  0  0  0  0
M  END
>  <MODEL>
8

>  <REMARK>
 VINA RESULT:      -6.5      3.063      6.196
  Name = 
  10 active torsions:
  status: ('A' for Active; 'I' for Inactive)
    1  A    between atoms: C_2  and  C_5
    2  A    between atoms: C_3  and  O_15
    3  A    between atoms: C_4  and  C_10
    4  A    between atoms: C_4  and  C_21
    5  A    between atoms: C_7  and  C_14
    6  A    between atoms: C_7  and  C_27
    7  A    between atoms: C_7  and  C_43
    8  A    between atoms: C_10  and  O_15
    9  A    between atoms: C_23  and  N_42
   10  A    between atoms: C_35  and  O_38
                            x       y       z     vdW  Elec       q    Type
                         _______ _______ _______ _____ _____    ______ ____

>  <TORSDO>
F 10

$$$$
=
 OpenBabel11072409033D

 47 54  0  0  1  0  0  0  0  0999 V2000
  194.6160  174.3560  145.1890 C   0  0  2  0  0  3  0  0  0  0  0  0
  192.1870  174.1330  145.9480 C   0  0  0  0  0  2  0  0  0  0  0  0
  192.6940  176.5470  146.6040 C   0  0  0  0  0  2  0  0  0  0  0  0
  191.9650  175.2540  146.9790 C   0  0  1  0  0  3  0  0  0  0  0  0
  194.1360  176.3430  146.5770 N   0  0  0  0  0  2  0  0  0  0  0  0
  193.6070  173.5880  146.0550 C   0  0  0  0  0  2  0  0  0  0  0  0
  194.4680  175.8840  145.2360 C   0  0  0  0  0  2  0  0  0  0  0  0
  194.5960  173.8350  143.7810 C   0  0  2  0  0  3  0  0  0  0  0  0
  193.5320  174.1060  141.3700 C   0  0  1  0  0  0  0  0  0  0  0  0
  193.8980  174.4020  142.8310 C   0  0  1  0  0  3  0  0  0  0  0  0
  194.8630  172.3890  143.3750 C   0  0  0  0  0  2  0  0  0  0  0  0
  193.8330  171.8760  142.4390 N   0  0  0  0  0  0  0  0  0  0  0  0
  193.2230  172.6150  141.5420 C   0  0  0  0  0  3  0  0  0  0  0  0
  192.9590  175.2570  142.0230 C   0  0  1  0  0  0  0  0  0  0  0  0
  193.4810  176.5280  141.7600 O   0  0  0  0  0  1  0  0  0  0  0  0
  191.3720  176.3990  143.1190 C   0  0  0  0  0  1  0  0  0  0  0  0
  191.6350  175.1850  142.4770 O   0  0  0  0  0  0  0  0  0  0  0  0
  194.5350  174.4440  140.4210 O   0  0  0  0  0  0  0  0  0  0  0  0
  194.2840  173.8210  139.1870 C   0  0  0  0  0  2  0  0  0  0  0  0
  192.9990  174.3660  138.5810 C   0  0  0  0  0  2  0  0  0  0  0  0
  191.5710  172.2330  138.3650 C   0  0  2  0  0  3  0  0  0  0  0  0
  188.1060  173.0400  137.8510 F   0  0  0  0  0  0  0  0  0  0  0  0
  189.9840  174.1570  136.8580 C   0  0  0  0  0  2  0  0  0  0  0  0
  191.4890  174.0530  136.5220 C   0  0  0  0  0  2  0  0  0  0  0  0
  192.3240  173.3690  137.6320 C   0  0  1  0  0  3  0  0  0  0  0  0
  191.1390  171.1850  137.3370 C   0  0  0  0  0  2  0  0  0  0  0  0
  190.2570  172.7870  138.8850 C   0  0  1  0  0  3  0  0  0  0  0  0
  189.7740  171.6450  136.8210 C   0  0  0  0  0  2  0  0  0  0  0  0
  189.4610  172.9180  137.6040 C   0  0  1  0  0  0  0  0  0  0  0  0
  189.6560  171.8720  139.7600 O   0  0  0  0  0  1  0  0  0  0  0  0
  189.7310  174.7890  146.2900 C   0  0  0  0  0  2  0  0  0  0  0  0
  188.5220  175.4610  146.0720 O   0  0  0  0  0  0  0  0  0  0  0  0
  190.1680  177.2480  147.0300 S   0  0  0  0  0  0  0  0  0  0  0  0
  190.5470  175.5310  147.2450 N   0  0  2  0  0  0  0  0  0  0  0  0
  188.8940  176.7880  145.8330 C   0  0  2  0  0  3  0  0  0  0  0  0
  187.6950  177.7440  145.9120 C   0  0  1  0  0  3  0  0  0  0  0  0
  187.5510  177.4630  143.3770 C   0  0  0  0  0  2  0  0  0  0  0  0
  185.4450  177.6320  141.9940 C   0  0  0  0  0  2  0  0  0  0  0  0
  184.7790  178.9370  143.6900 C   0  0  2  0  0  3  0  0  0  0  0  0
  186.7850  177.7120  144.6800 C   0  0  2  0  0  3  0  0  0  0  0  0
  184.6820  178.8120  145.0910 O   0  0  0  0  0  0  0  0  0  0  0  0
  184.5910  177.6740  143.1050 O   0  0  0  0  0  0  0  0  0  0  0  0
  185.9800  179.0120  144.5840 C   0  0  2  0  0  3  0  0  0  0  0  0
  186.6710  176.7880  142.3280 C   0  0  0  0  0  2  0  0  0  0  0  0
  186.9270  177.6470  147.1960 C   0  0  0  0  0  0  0  0  0  0  0  0
  186.3290  176.5770  147.4830 O   0  0  0  0  0  0  0  0  0  0  0  0
  186.8710  178.7240  148.0750 O   0  0  0  0  0  1  0  0  0  0  0  0
  1  7  1  6  0  0  0
  1  6  1  0  0  0  0
  2  6  1  0  0  0  0
  3  4  1  0  0  0  0
  4  2  1  6  0  0  0
  4 34  1  0  0  0  0
  5  3  1  0  0  0  0
  7  5  1  0  0  0  0
  8 11  1  1  0  0  0
  8  1  1  0  0  0  0
  9 18  1  6  0  0  0
  9 13  1  0  0  0  0
  9 14  1  0  0  0  0
  9 10  1  0  0  0  0
 10  8  1  0  0  0  0
 12 11  1  0  0  0  0
 13 12  2  0  0  0  0
 14 17  1  0  0  0  0
 14 10  1  0  0  0  0
 15 14  1  0  0  0  0
 17 16  1  0  0  0  0
 19 18  1  0  0  0  0
 20 19  1  0  0  0  0
 21 27  1  0  0  0  0
 23 29  1  0  0  0  0
 24 23  1  0  0  0  0
 24 25  1  0  0  0  0
 25 21  1  0  0  0  0
 25 20  1  0  0  0  0
 26 21  1  0  0  0  0
 27 30  1  0  0  0  0
 28 26  1  0  0  0  0
 28 29  1  0  0  0  0
 29 22  1  0  0  0  0
 29 27  1  0  0  0  0
 31 34  1  0  0  0  0
 32 31  1  0  0  0  0
 33 34  1  0  0  0  0
 35 36  1  0  0  0  0
 35 32  1  0  0  0  0
 35 33  1  0  0  0  0
 36 45  1  0  0  0  0
 37 40  1  0  0  0  0
 38 44  1  0  0  0  0
 38 42  1  0  0  0  0
 39 43  1  0  0  0  0
 39 41  1  0  0  0  0
 40 36  1  0  0  0  0
 42 39  1  0  0  0  0
 43 40  1  0  0  0  0
 43 41  1  0  0  0  0
 44 37  1  0  0  0  0
 45 46  2  0  0  0  0
 45 47  1  0  0  0  0
M  END
>  <MODEL>
9

>  <REMARK>
 VINA RESULT:      -6.4      2.100      3.157
  Name = 
  10 active torsions:
  status: ('A' for Active; 'I' for Inactive)
    1  A    between atoms: C_2  and  C_5
    2  A    between atoms: C_3  and  O_15
    3  A    between atoms: C_4  and  C_10
    4  A    between atoms: C_4  and  C_21
    5  A    between atoms: C_7  and  C_14
    6  A    between atoms: C_7  and  C_27
    7  A    between atoms: C_7  and  C_43
    8  A    between atoms: C_10  and  O_15
    9  A    between atoms: C_23  and  N_42
   10  A    between atoms: C_35  and  O_38
                            x       y       z     vdW  Elec       q    Type
                         _______ _______ _______ _____ _____    ______ ____

>  <TORSDO>
F 10

$$$$
