=
 OpenBabel11072409393D

 25 29  0  0  1  0  0  0  0  0999 V2000
  186.9420  177.1500  146.4870 C   0  0  0  0  0  0  0  0  0  0  0  0
  189.0310  175.9040  146.5350 N   0  0  0  0  0  0  0  0  0  0  0  0
  191.4700  178.6370  143.4900 C   0  0  0  0  0  1  0  0  0  0  0  0
  186.1760  177.0420  145.3680 C   0  0  0  0  0  0  0  0  0  0  0  0
  186.1340  177.7000  143.3340 C   0  0  0  0  0  3  0  0  0  0  0  0
  186.8600  177.0230  144.2550 N   0  0  0  0  0  0  0  0  0  0  0  0
  189.1650  177.7590  143.6300 C   0  0  1  0  0  3  0  0  0  0  0  0
  189.0100  174.7500  145.6150 C   0  0  0  0  0  2  0  0  0  0  0  0
  184.9920  177.6840  145.2370 C   0  0  0  0  0  0  0  0  0  0  0  0
  188.3770  177.1210  146.0210 C   0  0  1  0  0  3  0  0  0  0  0  0
  189.7840  175.2400  143.1940 C   0  0  2  0  0  3  0  0  0  0  0  0
  184.9130  178.1030  143.9140 C   0  0  0  0  0  3  0  0  0  0  0  0
  190.1620  174.7250  144.5940 C   0  0  0  0  0  2  0  0  0  0  0  0
  184.4170  178.2900  146.3120 N   0  0  0  0  0  0  0  0  0  0  0  0
  185.0810  178.2970  147.5160 C   0  0  0  0  0  3  0  0  0  0  0  0
  188.2280  177.1120  144.5450 N   0  0  1  0  0  0  0  0  0  0  0  0
  186.4020  177.7840  147.6140 C   0  0  0  0  0  3  0  0  0  0  0  0
  190.6100  177.5140  144.0290 C   0  0  1  0  0  3  0  0  0  0  0  0
  190.0150  176.7370  142.8670 C   0  0  2  0  0  3  0  0  0  0  0  0
  188.4740  174.6780  142.6520 C   0  0  0  0  0  2  0  0  0  0  0  0
  188.2060  175.2150  141.3930 O   0  0  0  0  0  1  0  0  0  0  0  0
  190.3780  176.2210  147.0020 C   0  0  0  0  0  2  0  0  0  0  0  0
  190.3640  177.4910  147.8420 C   0  0  0  0  0  2  0  0  0  0  0  0
  191.4980  177.4890  148.8520 C   0  0  0  0  0  2  0  0  0  0  0  0
  191.3220  178.5240  149.7700 O   0  0  0  0  0  1  0  0  0  0  0  0
  1 17  1  0  0  0  0
  2 22  1  0  0  0  0
  3 18  1  0  0  0  0
  4  1  2  0  0  0  0
  5 12  2  0  0  0  0
  5  6  1  0  0  0  0
  6 16  1  0  0  0  0
  6  4  1  0  0  0  0
  7 18  1  0  0  0  0
  7 16  1  0  0  0  0
  8  2  1  0  0  0  0
  9  4  1  0  0  0  0
  9 14  2  0  0  0  0
 10  1  1  0  0  0  0
 10  2  1  0  0  0  0
 11 13  1  0  0  0  0
 12  9  1  0  0  0  0
 13  8  1  0  0  0  0
 14 15  1  0  0  0  0
 15 17  2  0  0  0  0
 16 10  1  0  0  0  0
 19 11  1  0  0  0  0
 19  7  1  0  0  0  0
 19 18  1  0  0  0  0
 20 11  1  0  0  0  0
 21 20  1  0  0  0  0
 22 23  1  0  0  0  0
 23 24  1  0  0  0  0
 24 25  1  0  0  0  0
M  END
>  <MODEL>
1

>  <REMARK>
 VINA RESULT:      -6.7      0.000      0.000
  Name = 
  4 active torsions:
  status: ('A' for Active; 'I' for Inactive)
    1  A    between atoms: N_2  and  C_9
    2  A    between atoms: C_3  and  C_14
    3  A    between atoms: C_5  and  C_9
    4  A    between atoms: C_5  and  C_17
                            x       y       z     vdW  Elec       q    Type
                         _______ _______ _______ _____ _____    ______ ____

>  <TORSDO>
F 4

$$$$
=
 OpenBabel11072409393D

 25 29  0  0  1  0  0  0  0  0999 V2000
  187.0780  177.7570  144.2360 C   0  0  0  0  0  0  0  0  0  0  0  0
  189.3920  177.3690  143.5920 N   0  0  0  0  0  0  0  0  0  0  0  0
  189.7670  172.9110  145.2290 C   0  0  0  0  0  1  0  0  0  0  0  0
  186.8220  177.9420  145.5590 C   0  0  0  0  0  0  0  0  0  0  0  0
  186.7090  176.8320  147.3830 C   0  0  0  0  0  3  0  0  0  0  0  0
  187.5170  177.1680  146.3500 N   0  0  0  0  0  0  0  0  0  0  0  0
  188.7350  175.0110  146.0220 C   0  0  1  0  0  3  0  0  0  0  0  0
  190.3430  177.9040  144.5860 C   0  0  0  0  0  2  0  0  0  0  0  0
  185.5740  178.1740  146.0280 C   0  0  0  0  0  0  0  0  0  0  0  0
  188.1880  176.7360  144.1600 C   0  0  1  0  0  3  0  0  0  0  0  0
  190.9880  176.2830  146.4980 C   0  0  2  0  0  3  0  0  0  0  0  0
  185.4710  177.4910  147.2340 C   0  0  0  0  0  3  0  0  0  0  0  0
  191.3520  176.8750  145.1240 C   0  0  0  0  0  2  0  0  0  0  0  0
  184.5570  178.4490  145.1660 N   0  0  0  0  0  0  0  0  0  0  0  0
  184.7970  178.4270  143.8130 C   0  0  0  0  0  3  0  0  0  0  0  0
  188.3590  176.3520  145.5830 N   0  0  1  0  0  0  0  0  0  0  0  0
  186.0570  178.0070  143.3100 C   0  0  0  0  0  3  0  0  0  0  0  0
  189.8430  174.4210  145.1650 C   0  0  1  0  0  3  0  0  0  0  0  0
  190.1760  174.9640  146.5450 C   0  0  2  0  0  3  0  0  0  0  0  0
  190.5580  177.3180  147.5320 C   0  0  0  0  0  2  0  0  0  0  0  0
  191.4030  177.2670  148.6400 O   0  0  0  0  0  1  0  0  0  0  0  0
  190.0300  176.4600  142.6420 C   0  0  0  0  0  2  0  0  0  0  0  0
  188.9790  175.6810  141.8640 C   0  0  0  0  0  2  0  0  0  0  0  0
  189.4810  174.2900  141.5130 C   0  0  0  0  0  2  0  0  0  0  0  0
  188.5200  173.3370  141.8500 O   0  0  0  0  0  1  0  0  0  0  0  0
  1  4  1  0  0  0  0
  2 10  1  0  0  0  0
  2  8  1  0  0  0  0
  4  9  2  0  0  0  0
  4  6  1  0  0  0  0
  6  5  1  0  0  0  0
  7 19  1  0  0  0  0
  8 13  1  0  0  0  0
  9 12  1  0  0  0  0
 10  1  1  0  0  0  0
 10 16  1  0  0  0  0
 11 19  1  0  0  0  0
 11 20  1  0  0  0  0
 12  5  2  0  0  0  0
 13 11  1  0  0  0  0
 14  9  1  0  0  0  0
 15 14  2  0  0  0  0
 16  7  1  0  0  0  0
 16  6  1  0  0  0  0
 17 15  1  0  0  0  0
 17  1  2  0  0  0  0
 18  3  1  0  0  0  0
 18  7  1  0  0  0  0
 18 19  1  0  0  0  0
 20 21  1  0  0  0  0
 22  2  1  0  0  0  0
 23 22  1  0  0  0  0
 24 25  1  0  0  0  0
 24 23  1  0  0  0  0
M  END
>  <MODEL>
2

>  <REMARK>
 VINA RESULT:      -6.6      1.244      4.616
  Name = 
  4 active torsions:
  status: ('A' for Active; 'I' for Inactive)
    1  A    between atoms: N_2  and  C_9
    2  A    between atoms: C_3  and  C_14
    3  A    between atoms: C_5  and  C_9
    4  A    between atoms: C_5  and  C_17
                            x       y       z     vdW  Elec       q    Type
                         _______ _______ _______ _____ _____    ______ ____

>  <TORSDO>
F 4

$$$$
=
 OpenBabel11072409393D

 25 29  0  0  1  0  0  0  0  0999 V2000
  186.5150  178.1270  144.4020 C   0  0  0  0  0  0  0  0  0  0  0  0
  188.2400  178.0680  142.6880 N   0  0  0  0  0  0  0  0  0  0  0  0
  188.8870  173.3490  142.6040 C   0  0  0  0  0  1  0  0  0  0  0  0
  186.9020  177.8940  145.6860 C   0  0  0  0  0  0  0  0  0  0  0  0
  187.5190  176.2840  146.9490 C   0  0  0  0  0  3  0  0  0  0  0  0
  187.8020  176.9540  145.8070 N   0  0  0  0  0  0  0  0  0  0  0  0
  188.5290  175.0600  144.3500 C   0  0  1  0  0  3  0  0  0  0  0  0
  189.5840  178.3270  143.2430 C   0  0  0  0  0  2  0  0  0  0  0  0
  186.0280  177.9120  146.7180 C   0  0  0  0  0  0  0  0  0  0  0  0
  187.3680  177.2350  143.5340 C   0  0  1  0  0  3  0  0  0  0  0  0
  190.8640  176.2410  144.0850 C   0  0  2  0  0  3  0  0  0  0  0  0
  186.4160  176.8940  147.5820 C   0  0  0  0  0  3  0  0  0  0  0  0
  190.6250  177.2360  142.9350 C   0  0  0  0  0  2  0  0  0  0  0  0
  184.7630  178.3810  146.5390 N   0  0  0  0  0  0  0  0  0  0  0  0
  184.3630  178.7780  145.2850 C   0  0  0  0  0  3  0  0  0  0  0  0
  188.1250  176.4500  144.5410 N   0  0  1  0  0  0  0  0  0  0  0  0
  185.2140  178.5930  144.1640 C   0  0  0  0  0  3  0  0  0  0  0  0
  189.0690  174.8100  142.9520 C   0  0  1  0  0  3  0  0  0  0  0  0
  190.0390  174.9300  144.1160 C   0  0  2  0  0  3  0  0  0  0  0  0
  191.0480  176.8950  145.4510 C   0  0  0  0  0  2  0  0  0  0  0  0
  191.2830  175.9210  146.4210 O   0  0  0  0  0  1  0  0  0  0  0  0
  188.2920  177.5200  141.3350 C   0  0  0  0  0  2  0  0  0  0  0  0
  186.9750  176.8430  140.9860 C   0  0  0  0  0  2  0  0  0  0  0  0
  186.2030  177.6490  139.9550 C   0  0  0  0  0  2  0  0  0  0  0  0
  185.1990  178.3880  140.5810 O   0  0  0  0  0  1  0  0  0  0  0  0
  1  4  1  0  0  0  0
  2  8  1  0  0  0  0
  2 10  1  0  0  0  0
  3 18  1  0  0  0  0
  4  6  1  0  0  0  0
  4  9  2  0  0  0  0
  5 12  2  0  0  0  0
  6  5  1  0  0  0  0
  7 16  1  0  0  0  0
  9 12  1  0  0  0  0
 10  1  1  0  0  0  0
 10 16  1  0  0  0  0
 11 19  1  0  0  0  0
 11 20  1  0  0  0  0
 13  8  1  0  0  0  0
 13 11  1  0  0  0  0
 14  9  1  0  0  0  0
 15 14  2  0  0  0  0
 16  6  1  0  0  0  0
 17  1  2  0  0  0  0
 17 15  1  0  0  0  0
 18 19  1  0  0  0  0
 18  7  1  0  0  0  0
 19  7  1  0  0  0  0
 20 21  1  0  0  0  0
 22  2  1  0  0  0  0
 23 22  1  0  0  0  0
 24 25  1  0  0  0  0
 24 23  1  0  0  0  0
M  END
>  <MODEL>
3

>  <REMARK>
 VINA RESULT:      -6.4      1.882      4.760
  Name = 
  4 active torsions:
  status: ('A' for Active; 'I' for Inactive)
    1  A    between atoms: N_2  and  C_9
    2  A    between atoms: C_3  and  C_14
    3  A    between atoms: C_5  and  C_9
    4  A    between atoms: C_5  and  C_17
                            x       y       z     vdW  Elec       q    Type
                         _______ _______ _______ _____ _____    ______ ____

>  <TORSDO>
F 4

$$$$
=
 OpenBabel11072409393D

 25 29  0  0  1  0  0  0  0  0999 V2000
  186.7650  177.4470  146.3840 C   0  0  0  0  0  0  0  0  0  0  0  0
  188.8590  176.2120  146.4750 N   0  0  0  0  0  0  0  0  0  0  0  0
  191.2600  178.8010  143.2770 C   0  0  0  0  0  1  0  0  0  0  0  0
  185.9900  177.2810  145.2790 C   0  0  0  0  0  0  0  0  0  0  0  0
  185.9280  177.8380  143.2160 C   0  0  0  0  0  3  0  0  0  0  0  0
  186.6650  177.2090  144.1620 N   0  0  0  0  0  0  0  0  0  0  0  0
  188.9610  177.9220  143.4810 C   0  0  1  0  0  3  0  0  0  0  0  0
  188.8360  175.0140  145.6130 C   0  0  0  0  0  2  0  0  0  0  0  0
  184.8030  177.9110  145.1270 C   0  0  0  0  0  0  0  0  0  0  0  0
  188.1970  177.4000  145.9080 C   0  0  1  0  0  3  0  0  0  0  0  0
  189.5860  175.3870  143.1640 C   0  0  2  0  0  3  0  0  0  0  0  0
  184.7100  178.2640  143.7860 C   0  0  0  0  0  3  0  0  0  0  0  0
  189.9780  174.9430  144.5850 C   0  0  0  0  0  2  0  0  0  0  0  0
  184.2350  178.5670  146.1760 N   0  0  0  0  0  0  0  0  0  0  0  0
  184.9090  178.6360  147.3720 C   0  0  0  0  0  3  0  0  0  0  0  0
  188.0340  177.3180  144.4350 N   0  0  1  0  0  0  0  0  0  0  0  0
  186.2320  178.1340  147.4840 C   0  0  0  0  0  3  0  0  0  0  0  0
  190.4100  177.7030  143.8790 C   0  0  1  0  0  3  0  0  0  0  0  0
  189.8090  176.8670  142.7620 C   0  0  2  0  0  3  0  0  0  0  0  0
  188.2740  174.7940  142.6620 C   0  0  0  0  0  2  0  0  0  0  0  0
  187.9980  175.2610  141.3780 O   0  0  0  0  0  1  0  0  0  0  0  0
  190.2100  176.5570  146.9140 C   0  0  0  0  0  2  0  0  0  0  0  0
  190.8490  175.3810  147.6380 C   0  0  0  0  0  2  0  0  0  0  0  0
  192.3140  175.2400  147.2630 C   0  0  0  0  0  2  0  0  0  0  0  0
  192.7020  176.3020  146.4460 O   0  0  0  0  0  1  0  0  0  0  0  0
  1 17  1  0  0  0  0
  2 22  1  0  0  0  0
  3 18  1  0  0  0  0
  4  1  2  0  0  0  0
  5 12  2  0  0  0  0
  5  6  1  0  0  0  0
  6 16  1  0  0  0  0
  6  4  1  0  0  0  0
  7 18  1  0  0  0  0
  7 16  1  0  0  0  0
  8  2  1  0  0  0  0
  9  4  1  0  0  0  0
  9 14  2  0  0  0  0
 10  1  1  0  0  0  0
 10  2  1  0  0  0  0
 11 13  1  0  0  0  0
 12  9  1  0  0  0  0
 13  8  1  0  0  0  0
 14 15  1  0  0  0  0
 15 17  2  0  0  0  0
 16 10  1  0  0  0  0
 19 11  1  0  0  0  0
 19  7  1  0  0  0  0
 19 18  1  0  0  0  0
 20 11  1  0  0  0  0
 21 20  1  0  0  0  0
 22 23  1  0  0  0  0
 24 23  1  0  0  0  0
 25 24  1  0  0  0  0
M  END
>  <MODEL>
4

>  <REMARK>
 VINA RESULT:      -6.3      1.062      1.151
  Name = 
  4 active torsions:
  status: ('A' for Active; 'I' for Inactive)
    1  A    between atoms: N_2  and  C_9
    2  A    between atoms: C_3  and  C_14
    3  A    between atoms: C_5  and  C_9
    4  A    between atoms: C_5  and  C_17
                            x       y       z     vdW  Elec       q    Type
                         _______ _______ _______ _____ _____    ______ ____

>  <TORSDO>
F 4

$$$$
=
 OpenBabel11072409393D

 25 29  0  0  1  0  0  0  0  0999 V2000
  188.0640  177.7130  143.5320 C   0  0  0  0  0  0  0  0  0  0  0  0
  190.3680  176.9390  143.4250 N   0  0  0  0  0  0  0  0  0  0  0  0
  189.6910  172.6520  145.3870 C   0  0  0  0  0  1  0  0  0  0  0  0
  187.5780  178.0590  144.7550 C   0  0  0  0  0  0  0  0  0  0  0  0
  186.9250  177.1570  146.5800 C   0  0  0  0  0  3  0  0  0  0  0  0
  187.9680  177.2730  145.7240 N   0  0  0  0  0  0  0  0  0  0  0  0
  188.8680  174.9440  145.8040 C   0  0  1  0  0  3  0  0  0  0  0  0
  191.1720  177.4280  144.5630 C   0  0  0  0  0  2  0  0  0  0  0  0
  186.3150  178.5100  144.9290 C   0  0  0  0  0  0  0  0  0  0  0  0
  188.9900  176.5420  143.7610 C   0  0  1  0  0  3  0  0  0  0  0  0
  191.1510  175.9230  146.6690 C   0  0  2  0  0  3  0  0  0  0  0  0
  185.8630  177.9680  146.1270 C   0  0  0  0  0  3  0  0  0  0  0  0
  191.8750  176.3220  145.3700 C   0  0  0  0  0  2  0  0  0  0  0  0
  185.5500  178.8430  143.8540 N   0  0  0  0  0  0  0  0  0  0  0  0
  186.0520  178.6560  142.5870 C   0  0  0  0  0  3  0  0  0  0  0  0
  188.8070  176.2770  145.2090 N   0  0  1  0  0  0  0  0  0  0  0  0
  187.3040  178.0160  142.3940 C   0  0  0  0  0  3  0  0  0  0  0  0
  190.0170  174.1230  145.2450 C   0  0  1  0  0  3  0  0  0  0  0  0
  190.1470  174.7430  146.6250 C   0  0  2  0  0  3  0  0  0  0  0  0
  190.6910  177.1030  147.5180 C   0  0  0  0  0  2  0  0  0  0  0  0
  191.4680  177.1940  148.6730 O   0  0  0  0  0  1  0  0  0  0  0  0
  191.0330  175.8630  142.6940 C   0  0  0  0  0  2  0  0  0  0  0  0
  190.0200  175.0710  141.8780 C   0  0  0  0  0  2  0  0  0  0  0  0
  190.5360  173.6750  141.5750 C   0  0  0  0  0  2  0  0  0  0  0  0
  189.5290  172.7360  141.7960 O   0  0  0  0  0  1  0  0  0  0  0  0
  1 10  1  0  0  0  0
  1  4  1  0  0  0  0
  2 10  1  0  0  0  0
  2  8  1  0  0  0  0
  4  9  2  0  0  0  0
  4  6  1  0  0  0  0
  6  5  1  0  0  0  0
  7 19  1  0  0  0  0
  8 13  1  0  0  0  0
  9 12  1  0  0  0  0
 10 16  1  0  0  0  0
 11 20  1  0  0  0  0
 12  5  2  0  0  0  0
 13 11  1  0  0  0  0
 14  9  1  0  0  0  0
 15 14  2  0  0  0  0
 16  6  1  0  0  0  0
 16  7  1  0  0  0  0
 17 15  1  0  0  0  0
 17  1  2  0  0  0  0
 18  3  1  0  0  0  0
 18  7  1  0  0  0  0
 18 19  1  0  0  0  0
 19 11  1  0  0  0  0
 20 21  1  0  0  0  0
 22  2  1  0  0  0  0
 23 22  1  0  0  0  0
 24 25  1  0  0  0  0
 24 23  1  0  0  0  0
M  END
>  <MODEL>
5

>  <REMARK>
 VINA RESULT:      -6.3      1.583      4.773
  Name = 
  4 active torsions:
  status: ('A' for Active; 'I' for Inactive)
    1  A    between atoms: N_2  and  C_9
    2  A    between atoms: C_3  and  C_14
    3  A    between atoms: C_5  and  C_9
    4  A    between atoms: C_5  and  C_17
                            x       y       z     vdW  Elec       q    Type
                         _______ _______ _______ _____ _____    ______ ____

>  <TORSDO>
F 4

$$$$
=
 OpenBabel11072409393D

 25 29  0  0  1  0  0  0  0  0999 V2000
  190.8430  173.7330  143.5000 C   0  0  0  0  0  0  0  0  0  0  0  0
  191.6870  175.8410  144.3720 N   0  0  0  0  0  0  0  0  0  0  0  0
  187.7820  177.1450  146.7680 C   0  0  0  0  0  1  0  0  0  0  0  0
  189.9290  173.7940  142.4950 C   0  0  0  0  0  0  0  0  0  0  0  0
  187.8700  174.2740  142.1720 C   0  0  0  0  0  3  0  0  0  0  0  0
  189.0510  174.7520  142.6320 N   0  0  0  0  0  0  0  0  0  0  0  0
  188.2540  176.1000  144.5800 C   0  0  1  0  0  3  0  0  0  0  0  0
  191.5560  176.9390  143.3930 C   0  0  0  0  0  2  0  0  0  0  0  0
  189.4000  172.6850  141.9300 C   0  0  0  0  0  0  0  0  0  0  0  0
  190.5520  174.9020  144.4090 C   0  0  1  0  0  3  0  0  0  0  0  0
  189.3140  178.2310  143.4600 C   0  0  2  0  0  3  0  0  0  0  0  0
  188.0630  172.9680  141.6760 C   0  0  0  0  0  3  0  0  0  0  0  0
  190.7850  178.1670  143.9090 C   0  0  0  0  0  2  0  0  0  0  0  0
  189.9290  171.4590  142.1980 N   0  0  0  0  0  0  0  0  0  0  0  0
  190.9640  171.3540  143.0970 C   0  0  0  0  0  3  0  0  0  0  0  0
  189.3200  175.4680  143.8060 N   0  0  1  0  0  0  0  0  0  0  0  0
  191.4030  172.4900  143.8280 C   0  0  0  0  0  3  0  0  0  0  0  0
  188.8020  177.0210  145.6570 C   0  0  1  0  0  3  0  0  0  0  0  0
  188.2300  177.6200  144.3830 C   0  0  2  0  0  3  0  0  0  0  0  0
  189.0990  177.9520  141.9760 C   0  0  0  0  0  2  0  0  0  0  0  0
  187.7470  178.0700  141.6570 O   0  0  0  0  0  1  0  0  0  0  0  0
  191.9760  176.3270  145.7190 C   0  0  0  0  0  2  0  0  0  0  0  0
  192.0500  175.1630  146.6980 C   0  0  0  0  0  2  0  0  0  0  0  0
  191.2500  175.4570  147.9550 C   0  0  0  0  0  2  0  0  0  0  0  0
  191.2860  176.8220  148.2370 O   0  0  0  0  0  1  0  0  0  0  0  0
  1 17  1  0  0  0  0
  1 10  1  0  0  0  0
  2 10  1  0  0  0  0
  2 22  1  0  0  0  0
  4  6  1  0  0  0  0
  4  1  2  0  0  0  0
  5  6  1  0  0  0  0
  6 16  1  0  0  0  0
  7 18  1  0  0  0  0
  8 13  1  0  0  0  0
  8  2  1  0  0  0  0
  9 14  2  0  0  0  0
  9  4  1  0  0  0  0
 11 13  1  0  0  0  0
 11 19  1  0  0  0  0
 12  9  1  0  0  0  0
 12  5  2  0  0  0  0
 14 15  1  0  0  0  0
 15 17  2  0  0  0  0
 16 10  1  0  0  0  0
 16  7  1  0  0  0  0
 18  3  1  0  0  0  0
 19  7  1  0  0  0  0
 19 18  1  0  0  0  0
 20 11  1  0  0  0  0
 21 20  1  0  0  0  0
 22 23  1  0  0  0  0
 23 24  1  0  0  0  0
 24 25  1  0  0  0  0
M  END
>  <MODEL>
6

>  <REMARK>
 VINA RESULT:      -6.2      2.376      4.947
  Name = 
  4 active torsions:
  status: ('A' for Active; 'I' for Inactive)
    1  A    between atoms: N_2  and  C_9
    2  A    between atoms: C_3  and  C_14
    3  A    between atoms: C_5  and  C_9
    4  A    between atoms: C_5  and  C_17
                            x       y       z     vdW  Elec       q    Type
                         _______ _______ _______ _____ _____    ______ ____

>  <TORSDO>
F 4

$$$$
=
 OpenBabel11072409393D

 25 29  0  0  1  0  0  0  0  0999 V2000
  188.7720  174.1130  142.0220 C   0  0  0  0  0  0  0  0  0  0  0  0
  187.6050  176.2250  142.3320 N   0  0  0  0  0  0  0  0  0  0  0  0
  191.3380  178.8060  143.7800 C   0  0  0  0  0  1  0  0  0  0  0  0
  189.1410  173.4340  143.1410 C   0  0  0  0  0  0  0  0  0  0  0  0
  190.5820  173.5230  144.7180 C   0  0  0  0  0  3  0  0  0  0  0  0
  189.5800  174.1970  144.1070 N   0  0  0  0  0  0  0  0  0  0  0  0
  190.4940  176.5210  144.1930 C   0  0  1  0  0  3  0  0  0  0  0  0
  186.9350  176.3020  143.6450 C   0  0  0  0  0  2  0  0  0  0  0  0
  189.7860  172.2470  143.0860 C   0  0  0  0  0  0  0  0  0  0  0  0
  188.9290  175.5790  142.3460 C   0  0  1  0  0  3  0  0  0  0  0  0
  188.3780  177.2360  145.5810 C   0  0  2  0  0  3  0  0  0  0  0  0
  190.7160  172.2520  144.1200 C   0  0  0  0  0  3  0  0  0  0  0  0
  187.3270  177.5250  144.4930 C   0  0  0  0  0  2  0  0  0  0  0  0
  189.8970  171.5790  141.9050 N   0  0  0  0  0  0  0  0  0  0  0  0
  189.4020  172.1540  140.7580 C   0  0  0  0  0  3  0  0  0  0  0  0
  189.5330  175.5370  143.7010 N   0  0  1  0  0  0  0  0  0  0  0  0
  188.8860  173.4770  140.7780 C   0  0  0  0  0  3  0  0  0  0  0  0
  190.0980  177.9400  143.8200 C   0  0  1  0  0  3  0  0  0  0  0  0
  189.8740  177.4510  145.2410 C   0  0  2  0  0  3  0  0  0  0  0  0
  188.0980  175.9840  146.4050 C   0  0  0  0  0  2  0  0  0  0  0  0
  189.1890  175.6980  147.2260 O   0  0  0  0  0  1  0  0  0  0  0  0
  187.6930  177.5270  141.6740 C   0  0  0  0  0  2  0  0  0  0  0  0
  186.9710  177.4940  140.3340 C   0  0  0  0  0  2  0  0  0  0  0  0
  185.5130  177.8930  140.4900 C   0  0  0  0  0  2  0  0  0  0  0  0
  185.3540  178.6870  141.6260 O   0  0  0  0  0  1  0  0  0  0  0  0
  1 10  1  0  0  0  0
  1  4  1  0  0  0  0
  2 10  1  0  0  0  0
  2  8  1  0  0  0  0
  3 18  1  0  0  0  0
  4  6  1  0  0  0  0
  6  5  1  0  0  0  0
  7 19  1  0  0  0  0
  8 13  1  0  0  0  0
  9  4  2  0  0  0  0
  9 12  1  0  0  0  0
 10 16  1  0  0  0  0
 11 20  1  0  0  0  0
 12  5  2  0  0  0  0
 13 11  1  0  0  0  0
 14  9  1  0  0  0  0
 15 17  1  0  0  0  0
 15 14  2  0  0  0  0
 16  6  1  0  0  0  0
 16  7  1  0  0  0  0
 17  1  2  0  0  0  0
 18  7  1  0  0  0  0
 18 19  1  0  0  0  0
 19 11  1  0  0  0  0
 20 21  1  0  0  0  0
 22  2  1  0  0  0  0
 23 24  1  0  0  0  0
 23 22  1  0  0  0  0
 24 25  1  0  0  0  0
M  END
>  <MODEL>
7

>  <REMARK>
 VINA RESULT:      -6.2      2.597      6.199
  Name = 
  4 active torsions:
  status: ('A' for Active; 'I' for Inactive)
    1  A    between atoms: N_2  and  C_9
    2  A    between atoms: C_3  and  C_14
    3  A    between atoms: C_5  and  C_9
    4  A    between atoms: C_5  and  C_17
                            x       y       z     vdW  Elec       q    Type
                         _______ _______ _______ _____ _____    ______ ____

>  <TORSDO>
F 4

$$$$
=
 OpenBabel11072409393D

 25 29  0  0  1  0  0  0  0  0999 V2000
  188.7770  177.5690  143.2530 C   0  0  0  0  0  0  0  0  0  0  0  0
  191.0590  176.7710  143.5300 N   0  0  0  0  0  0  0  0  0  0  0  0
  190.0160  172.3660  145.0120 C   0  0  0  0  0  1  0  0  0  0  0  0
  188.0680  177.8350  144.3830 C   0  0  0  0  0  0  0  0  0  0  0  0
  187.0780  176.8150  145.9800 C   0  0  0  0  0  3  0  0  0  0  0  0
  188.2640  176.9760  145.3490 N   0  0  0  0  0  0  0  0  0  0  0  0
  189.1310  174.6340  145.4300 C   0  0  1  0  0  3  0  0  0  0  0  0
  191.6310  177.1660  144.8330 C   0  0  0  0  0  2  0  0  0  0  0  0
  186.7950  178.2910  144.3460 C   0  0  0  0  0  0  0  0  0  0  0  0
  189.6410  176.3720  143.5690 C   0  0  1  0  0  3  0  0  0  0  0  0
  191.2080  175.5160  146.7820 C   0  0  2  0  0  3  0  0  0  0  0  0
  186.1220  177.6720  145.3940 C   0  0  0  0  0  3  0  0  0  0  0  0
  192.1660  175.9960  145.6770 C   0  0  0  0  0  2  0  0  0  0  0  0
  186.2490  178.7100  143.1720 N   0  0  0  0  0  0  0  0  0  0  0  0
  186.9830  178.6060  142.0140 C   0  0  0  0  0  3  0  0  0  0  0  0
  189.1850  176.0070  144.9330 N   0  0  1  0  0  0  0  0  0  0  0  0
  188.2480  177.9630  142.0160 C   0  0  0  0  0  3  0  0  0  0  0  0
  190.3650  173.8380  145.0410 C   0  0  1  0  0  3  0  0  0  0  0  0
  190.2290  174.3570  146.4630 C   0  0  2  0  0  3  0  0  0  0  0  0
  190.5960  176.6390  147.6110 C   0  0  0  0  0  2  0  0  0  0  0  0
  191.5500  177.1670  148.4810 O   0  0  0  0  0  1  0  0  0  0  0  0
  191.8500  175.7390  142.8630 C   0  0  0  0  0  2  0  0  0  0  0  0
  193.1430  176.3300  142.3200 C   0  0  0  0  0  2  0  0  0  0  0  0
  194.3420  175.4970  142.7410 C   0  0  0  0  0  2  0  0  0  0  0  0
  195.1840  176.2510  143.5580 O   0  0  0  0  0  1  0  0  0  0  0  0
  1 10  1  0  0  0  0
  1  4  1  0  0  0  0
  2 10  1  0  0  0  0
  2  8  1  0  0  0  0
  3 18  1  0  0  0  0
  4  6  1  0  0  0  0
  6  5  1  0  0  0  0
  7 19  1  0  0  0  0
  8 13  1  0  0  0  0
  9  4  2  0  0  0  0
  9 12  1  0  0  0  0
 10 16  1  0  0  0  0
 11 20  1  0  0  0  0
 12  5  2  0  0  0  0
 13 11  1  0  0  0  0
 14  9  1  0  0  0  0
 15 17  1  0  0  0  0
 15 14  2  0  0  0  0
 16  6  1  0  0  0  0
 16  7  1  0  0  0  0
 17  1  2  0  0  0  0
 18  7  1  0  0  0  0
 18 19  1  0  0  0  0
 19 11  1  0  0  0  0
 20 21  1  0  0  0  0
 22  2  1  0  0  0  0
 23 24  1  0  0  0  0
 23 22  1  0  0  0  0
 24 25  1  0  0  0  0
M  END
>  <MODEL>
8

>  <REMARK>
 VINA RESULT:      -5.9      2.342      4.631
  Name = 
  4 active torsions:
  status: ('A' for Active; 'I' for Inactive)
    1  A    between atoms: N_2  and  C_9
    2  A    between atoms: C_3  and  C_14
    3  A    between atoms: C_5  and  C_9
    4  A    between atoms: C_5  and  C_17
                            x       y       z     vdW  Elec       q    Type
                         _______ _______ _______ _____ _____    ______ ____

>  <TORSDO>
F 4

$$$$
=
 OpenBabel11072409393D

 25 29  0  0  1  0  0  0  0  0999 V2000
  187.9730  176.9810  145.2800 C   0  0  0  0  0  0  0  0  0  0  0  0
  189.1760  177.9160  143.3830 N   0  0  0  0  0  0  0  0  0  0  0  0
  190.2090  173.8110  141.2000 C   0  0  0  0  0  1  0  0  0  0  0  0
  188.7090  176.3530  146.2370 C   0  0  0  0  0  0  0  0  0  0  0  0
  189.7870  174.5340  146.5530 C   0  0  0  0  0  3  0  0  0  0  0  0
  189.6910  175.6320  145.7660 N   0  0  0  0  0  0  0  0  0  0  0  0
  190.1750  174.6180  143.5340 C   0  0  1  0  0  3  0  0  0  0  0  0
  190.5890  178.1980  143.7060 C   0  0  0  0  0  2  0  0  0  0  0  0
  188.1450  175.8050  147.3370 C   0  0  0  0  0  0  0  0  0  0  0  0
  188.6430  176.6710  143.9620 C   0  0  1  0  0  3  0  0  0  0  0  0
  192.2350  176.2390  143.3140 C   0  0  2  0  0  3  0  0  0  0  0  0
  188.8410  174.6300  147.5960 C   0  0  0  0  0  3  0  0  0  0  0  0
  191.6060  177.5310  142.7630 C   0  0  0  0  0  2  0  0  0  0  0  0
  186.8400  176.0530  147.6370 N   0  0  0  0  0  0  0  0  0  0  0  0
  186.0850  176.8150  146.7760 C   0  0  0  0  0  3  0  0  0  0  0  0
  189.7100  175.7230  144.3680 N   0  0  1  0  0  0  0  0  0  0  0  0
  186.6190  177.2410  145.5320 C   0  0  0  0  0  3  0  0  0  0  0  0
  190.3420  175.0330  142.0820 C   0  0  1  0  0  3  0  0  0  0  0  0
  191.5720  174.8830  142.9620 C   0  0  2  0  0  3  0  0  0  0  0  0
  192.7150  176.3420  144.7580 C   0  0  0  0  0  2  0  0  0  0  0  0
  193.9590  176.9710  144.8050 O   0  0  0  0  0  1  0  0  0  0  0  0
  188.9150  177.9490  141.9460 C   0  0  0  0  0  2  0  0  0  0  0  0
  187.5840  177.2800  141.6330 C   0  0  0  0  0  2  0  0  0  0  0  0
  186.4510  178.2910  141.6380 C   0  0  0  0  0  2  0  0  0  0  0  0
  185.3410  177.7610  142.2970 O   0  0  0  0  0  1  0  0  0  0  0  0
  1 17  2  0  0  0  0
  1  4  1  0  0  0  0
  2  8  1  0  0  0  0
  2 10  1  0  0  0  0
  3 18  1  0  0  0  0
  4  9  2  0  0  0  0
  5 12  2  0  0  0  0
  6  4  1  0  0  0  0
  6  5  1  0  0  0  0
  7 16  1  0  0  0  0
  9 12  1  0  0  0  0
  9 14  1  0  0  0  0
 10 16  1  0  0  0  0
 10  1  1  0  0  0  0
 11 20  1  0  0  0  0
 13 11  1  0  0  0  0
 13  8  1  0  0  0  0
 15 14  2  0  0  0  0
 16  6  1  0  0  0  0
 17 15  1  0  0  0  0
 18 19  1  0  0  0  0
 18  7  1  0  0  0  0
 19 11  1  0  0  0  0
 19  7  1  0  0  0  0
 20 21  1  0  0  0  0
 22  2  1  0  0  0  0
 23 24  1  0  0  0  0
 23 22  1  0  0  0  0
 24 25  1  0  0  0  0
M  END
>  <MODEL>
9

>  <REMARK>
 VINA RESULT:      -5.9      2.299      4.793
  Name = 
  4 active torsions:
  status: ('A' for Active; 'I' for Inactive)
    1  A    between atoms: N_2  and  C_9
    2  A    between atoms: C_3  and  C_14
    3  A    between atoms: C_5  and  C_9
    4  A    between atoms: C_5  and  C_17
                            x       y       z     vdW  Elec       q    Type
                         _______ _______ _______ _____ _____    ______ ____

>  <TORSDO>
F 4

$$$$
