=
 OpenBabel11062421403D

 41 42  0  0  1  0  0  0  0  0999 V2000
  191.7250  172.8600  144.6340 C   0  0  0  0  0  2  0  0  0  0  0  0
  193.2430  174.5960  145.3140 C   0  0  2  0  0  3  0  0  0  0  0  0
  193.1890  173.1310  144.9310 C   0  0  0  0  0  2  0  0  0  0  0  0
  192.4970  175.6610  143.1310 C   0  0  0  0  0  1  0  0  0  0  0  0
  191.0330  174.2120  144.4690 C   0  0  2  0  0  3  0  0  0  0  0  0
  192.1120  175.2780  144.5510 C   0  0  1  0  0  3  0  0  0  0  0  0
  195.7100  174.3330  145.9070 C   0  0  0  0  0  2  0  0  0  0  0  0
  196.4050  175.4010  143.8500 C   0  0  1  0  0  3  0  0  0  0  0  0
  195.0080  175.5690  143.9620 O   0  0  0  0  0  0  0  0  0  0  0  0
  194.5830  176.5310  146.1070 C   0  0  0  0  0  1  0  0  0  0  0  0
  196.8150  174.5320  144.9760 C   0  0  0  0  0  0  0  0  0  0  0  0
  197.9410  174.0930  145.1470 O   0  0  0  0  0  0  0  0  0  0  0  0
  194.6440  175.2410  145.2960 C   0  0  1  0  0  0  0  0  0  0  0  0
  197.0920  175.9750  141.4660 C   0  0  0  0  0  1  0  0  0  0  0  0
  196.7750  174.8660  142.4580 C   0  0  2  0  0  3  0  0  0  0  0  0
  195.6830  173.9570  141.9060 C   0  0  0  0  0  2  0  0  0  0  0  0
  197.8700  172.2920  141.0930 O   0  0  0  0  0  1  0  0  0  0  0  0
  196.4030  172.6200  140.9230 P   0  0  0  0  0  2  0  0  0  0  0  0
  195.7220  172.7660  142.5230 O   0  0  0  0  0  0  0  0  0  0  0  0
  195.4550  170.0620  140.8340 C   0  0  0  0  0  1  0  0  0  0  0  0
  195.4130  171.3660  140.0620 C   0  0  0  0  0  1  0  0  0  0  0  0
  190.1140  174.3900  145.5060 O   0  0  0  0  0  0  0  0  0  0  0  0
  187.2660  176.7080  143.5880 C   0  0  1  0  0  3  0  0  0  0  0  0
  189.3310  176.6250  145.0840 C   0  0  1  0  0  3  0  0  0  0  0  0
  189.0640  175.1190  144.9400 C   0  0  1  0  0  3  0  0  0  0  0  0
  187.7220  175.4560  142.8130 C   0  0  0  0  0  2  0  0  0  0  0  0
  189.2430  178.0300  143.1300 O   0  0  0  0  0  1  0  0  0  0  0  0
  188.4550  177.4940  144.1620 C   0  0  1  0  0  3  0  0  0  0  0  0
  189.1520  177.0140  146.4140 O   0  0  0  0  0  1  0  0  0  0  0  0
  188.9270  174.7530  143.4630 C   0  0  0  0  0  2  0  0  0  0  0  0
  186.3740  177.6010  142.7370 C   0  0  0  0  0  2  0  0  0  0  0  0
  185.1080  177.9890  143.4910 C   0  0  1  0  0  3  0  0  0  0  0  0
  185.3790  176.7180  146.1620 O   0  0  0  0  0  0  0  0  0  0  0  0
  185.5350  179.0440  145.8240 N   0  0  0  0  0  2  0  0  0  0  0  0
  185.3380  180.3070  143.8920 O   0  0  0  0  0  0  0  0  0  0  0  0
  185.5560  177.8670  146.6450 C   0  0  0  0  0  0  0  0  0  0  0  0
  185.3290  179.1580  144.4050 C   0  0  0  0  0  0  0  0  0  0  0  0
  185.8380  178.0110  148.0980 C   0  0  0  0  0  2  0  0  0  0  0  0
  186.8770  178.9200  148.2850 O   0  0  0  0  0  1  0  0  0  0  0  0
  183.0050  178.3670  141.8740 C   0  0  0  0  0  3  0  0  0  0  0  0
  183.9540  178.1960  142.6040 C   0  0  0  0  0  0  0  0  0  0  0  0
  1  3  1  0  0  0  0
  2  3  1  6  0  0  0
  5  6  1  0  0  0  0
  5  1  1  0  0  0  0
  5 22  1  1  0  0  0
  6  4  1  6  0  0  0
  6  2  1  0  0  0  0
  8 15  1  6  0  0  0
  8  9  1  0  0  0  0
  8 11  1  0  0  0  0
  9 13  1  0  0  0  0
 11 12  2  0  0  0  0
 11  7  1  0  0  0  0
 13  2  1  0  0  0  0
 13  7  1  0  0  0  0
 13 10  1  1  0  0  0
 15 14  1  6  0  0  0
 16 15  1  0  0  0  0
 16 19  1  0  0  0  0
 18 17  1  0  0  0  0
 18 19  1  0  0  0  0
 21 20  1  0  0  0  0
 23 31  1  6  0  0  0
 23 28  1  0  0  0  0
 24 29  1  1  0  0  0
 25 24  1  0  0  0  0
 25 22  1  6  0  0  0
 26 30  1  0  0  0  0
 26 23  1  0  0  0  0
 28 27  1  6  0  0  0
 28 24  1  0  0  0  0
 30 25  1  0  0  0  0
 31 32  1  0  0  0  0
 32 41  1  6  0  0  0
 32 37  1  0  0  0  0
 33 36  2  0  0  0  0
 34 36  1  0  0  0  0
 35 37  2  0  0  0  0
 36 38  1  0  0  0  0
 37 34  1  0  0  0  0
 38 39  1  0  0  0  0
 40 41  3  0  0  0  0
M  END
>  <MODEL>
1

>  <REMARK>
 VINA RESULT:      -7.1      0.000      0.000
  Name = 
  11 active torsions:
  status: ('A' for Active; 'I' for Inactive)
    1  A    between atoms: C_1  and  C_7
    2  A    between atoms: C_1  and  C_38
    3  A    between atoms: C_1  and  C_39
    4  A    between atoms: C_4  and  C_19
    5  A    between atoms: C_5  and  C_38
    6  A    between atoms: C_8  and  C_34
    7  A    between atoms: C_13  and  P_22
    8  A    between atoms: C_14  and  C_19
    9  A    between atoms: C_15  and  O_30
   10  A    between atoms: C_23  and  C_36
   11  A    between atoms: O_30  and  C_37
                            x       y       z     vdW  Elec       q    Type
                         _______ _______ _______ _____ _____    ______ ____

>  <TORSDO>
F 11

$$$$
=
 OpenBabel11062421403D

 41 42  0  0  1  0  0  0  0  0999 V2000
  191.5570  177.6700  143.1230 C   0  0  0  0  0  2  0  0  0  0  0  0
  190.7850  176.9030  145.2680 C   0  0  2  0  0  3  0  0  0  0  0  0
  190.4340  177.8420  144.1310 C   0  0  0  0  0  2  0  0  0  0  0  0
  190.6570  174.6690  144.0650 C   0  0  0  0  0  1  0  0  0  0  0  0
  192.3090  176.3930  143.4890 C   0  0  2  0  0  3  0  0  0  0  0  0
  191.5590  175.7480  144.6420 C   0  0  1  0  0  3  0  0  0  0  0  0
  189.4130  177.7030  147.2630 C   0  0  0  0  0  2  0  0  0  0  0  0
  187.3690  176.8160  146.3200 C   0  0  1  0  0  3  0  0  0  0  0  0
  188.4390  176.3450  145.5290 O   0  0  0  0  0  0  0  0  0  0  0  0
  190.0060  175.3110  147.0070 C   0  0  0  0  0  1  0  0  0  0  0  0
  187.9550  177.7540  147.3040 C   0  0  0  0  0  0  0  0  0  0  0  0
  187.3160  178.4300  148.0940 O   0  0  0  0  0  0  0  0  0  0  0  0
  189.6400  176.5830  146.2500 C   0  0  1  0  0  0  0  0  0  0  0  0
  184.8710  177.1840  145.9890 C   0  0  0  0  0  1  0  0  0  0  0  0
  186.2680  177.4200  145.4350 C   0  0  2  0  0  3  0  0  0  0  0  0
  186.3640  176.9050  144.0040 C   0  0  0  0  0  2  0  0  0  0  0  0
  185.4870  179.5400  143.2940 O   0  0  0  0  0  1  0  0  0  0  0  0
  185.6660  178.1060  142.8460 P   0  0  0  0  0  2  0  0  0  0  0  0
  187.2730  177.6180  143.3200 O   0  0  0  0  0  0  0  0  0  0  0  0
  184.2280  178.3370  140.5380 C   0  0  0  0  0  1  0  0  0  0  0  0
  185.5560  177.8240  141.0560 C   0  0  0  0  0  1  0  0  0  0  0  0
  193.6060  176.7210  143.8950 O   0  0  0  0  0  0  0  0  0  0  0  0
  195.5940  173.3300  145.1990 C   0  0  1  0  0  3  0  0  0  0  0  0
  195.0670  174.9160  143.2710 C   0  0  1  0  0  3  0  0  0  0  0  0
  194.1590  175.5210  144.3510 C   0  0  1  0  0  3  0  0  0  0  0  0
  195.5150  174.4770  146.2250 C   0  0  0  0  0  2  0  0  0  0  0  0
  197.3330  174.3220  143.8340 O   0  0  0  0  0  1  0  0  0  0  0  0
  196.0180  173.8280  143.8080 C   0  0  1  0  0  3  0  0  0  0  0  0
  194.2900  174.3960  142.2330 O   0  0  0  0  0  1  0  0  0  0  0  0
  194.9630  175.7820  145.6230 C   0  0  0  0  0  2  0  0  0  0  0  0
  196.5020  172.2070  145.6820 C   0  0  0  0  0  2  0  0  0  0  0  0
  195.8060  170.8560  145.5790 C   0  0  1  0  0  3  0  0  0  0  0  0
  193.0260  171.1740  144.5810 O   0  0  0  0  0  0  0  0  0  0  0  0
  194.7570  170.2340  143.2880 N   0  0  0  0  0  2  0  0  0  0  0  0
  196.9800  169.8350  143.7990 O   0  0  0  0  0  0  0  0  0  0  0  0
  193.4030  170.6640  143.4930 C   0  0  0  0  0  0  0  0  0  0  0  0
  195.8740  170.2870  144.1920 C   0  0  0  0  0  0  0  0  0  0  0  0
  192.4330  170.5420  142.3720 C   0  0  0  0  0  2  0  0  0  0  0  0
  191.3620  171.4060  142.5850 O   0  0  0  0  0  1  0  0  0  0  0  0
  196.6530  169.1030  147.4210 C   0  0  0  0  0  3  0  0  0  0  0  0
  196.2700  169.8940  146.5900 C   0  0  0  0  0  0  0  0  0  0  0  0
  1  5  1  0  0  0  0
  1  3  1  0  0  0  0
  2  3  1  6  0  0  0
  2 13  1  0  0  0  0
  5 22  1  1  0  0  0
  5  6  1  0  0  0  0
  6  4  1  6  0  0  0
  6  2  1  0  0  0  0
  7 11  1  0  0  0  0
  8 15  1  6  0  0  0
  8 11  1  0  0  0  0
  9 13  1  0  0  0  0
  9  8  1  0  0  0  0
 11 12  2  0  0  0  0
 13 10  1  1  0  0  0
 13  7  1  0  0  0  0
 15 14  1  1  0  0  0
 16 15  1  0  0  0  0
 18 17  1  0  0  0  0
 18 19  1  0  0  0  0
 19 16  1  0  0  0  0
 20 21  1  0  0  0  0
 23 31  1  1  0  0  0
 23 26  1  0  0  0  0
 24 29  1  6  0  0  0
 24 28  1  0  0  0  0
 24 25  1  0  0  0  0
 25 22  1  6  0  0  0
 25 30  1  0  0  0  0
 28 27  1  1  0  0  0
 28 23  1  0  0  0  0
 30 26  1  0  0  0  0
 32 31  1  6  0  0  0
 32 41  1  0  0  0  0
 34 36  1  0  0  0  0
 34 37  1  0  0  0  0
 35 37  2  0  0  0  0
 36 33  2  0  0  0  0
 37 32  1  0  0  0  0
 38 39  1  0  0  0  0
 38 36  1  0  0  0  0
 41 40  3  0  0  0  0
M  END
>  <MODEL>
2

>  <REMARK>
 VINA RESULT:      -7.0      3.609     10.046
  Name = 
  11 active torsions:
  status: ('A' for Active; 'I' for Inactive)
    1  A    between atoms: C_1  and  C_7
    2  A    between atoms: C_1  and  C_38
    3  A    between atoms: C_1  and  C_39
    4  A    between atoms: C_4  and  C_19
    5  A    between atoms: C_5  and  C_38
    6  A    between atoms: C_8  and  C_34
    7  A    between atoms: C_13  and  P_22
    8  A    between atoms: C_14  and  C_19
    9  A    between atoms: C_15  and  O_30
   10  A    between atoms: C_23  and  C_36
   11  A    between atoms: O_30  and  C_37
                            x       y       z     vdW  Elec       q    Type
                         _______ _______ _______ _____ _____    ______ ____

>  <TORSDO>
F 11

$$$$
=
 OpenBabel11062421403D

 41 42  0  0  1  0  0  0  0  0999 V2000
  194.0000  176.1310  146.4860 C   0  0  0  0  0  2  0  0  0  0  0  0
  194.6520  174.8120  144.5830 C   0  0  2  0  0  3  0  0  0  0  0  0
  195.1200  175.2540  145.9550 C   0  0  0  0  0  2  0  0  0  0  0  0
  192.5980  173.4600  145.2220 C   0  0  0  0  0  1  0  0  0  0  0  0
  192.7700  175.8780  145.6180 C   0  0  2  0  0  3  0  0  0  0  0  0
  193.1290  174.7640  144.6490 C   0  0  1  0  0  3  0  0  0  0  0  0
  195.5850  172.4710  144.9690 C   0  0  0  0  0  2  0  0  0  0  0  0
  194.8970  171.7420  142.7680 C   0  0  1  0  0  3  0  0  0  0  0  0
  194.7120  173.1400  142.8270 O   0  0  0  0  0  0  0  0  0  0  0  0
  196.7850  174.0960  143.5340 C   0  0  0  0  0  1  0  0  0  0  0  0
  195.3090  171.3150  144.1240 C   0  0  0  0  0  0  0  0  0  0  0  0
  195.4660  170.1570  144.4760 O   0  0  0  0  0  0  0  0  0  0  0  0
  195.4060  173.6140  143.9720 C   0  0  1  0  0  0  0  0  0  0  0  0
  193.9350  169.7590  141.4920 C   0  0  0  0  0  1  0  0  0  0  0  0
  193.6320  171.0520  142.2340 C   0  0  2  0  0  3  0  0  0  0  0  0
  192.8200  171.9920  141.3510 C   0  0  0  0  0  2  0  0  0  0  0  0
  190.6010  170.3520  142.1260 O   0  0  0  0  0  1  0  0  0  0  0  0
  191.1310  171.3770  141.1490 P   0  0  0  0  0  2  0  0  0  0  0  0
  191.8980  172.6320  142.0880 O   0  0  0  0  0  0  0  0  0  0  0  0
  189.0910  173.1800  140.9670 C   0  0  0  0  0  1  0  0  0  0  0  0
  189.8820  172.2020  140.1220 C   0  0  0  0  0  1  0  0  0  0  0  0
  192.4590  177.0400  144.9070 O   0  0  0  0  0  0  0  0  0  0  0  0
  188.3390  177.1580  145.3190 C   0  0  1  0  0  3  0  0  0  0  0  0
  190.3450  176.8010  143.7840 C   0  0  1  0  0  3  0  0  0  0  0  0
  191.0810  177.2080  145.0690 C   0  0  1  0  0  3  0  0  0  0  0  0
  189.1020  176.5760  146.5260 C   0  0  0  0  0  2  0  0  0  0  0  0
  188.5510  175.1990  143.9100 O   0  0  0  0  0  1  0  0  0  0  0  0
  188.8350  176.5720  143.9880 C   0  0  1  0  0  3  0  0  0  0  0  0
  190.5500  177.7650  142.7940 O   0  0  0  0  0  1  0  0  0  0  0  0
  190.5980  176.3540  146.2390 C   0  0  0  0  0  2  0  0  0  0  0  0
  186.8340  176.9850  145.4700 C   0  0  0  0  0  2  0  0  0  0  0  0
  186.1330  178.3350  145.5610 C   0  0  1  0  0  3  0  0  0  0  0  0
  186.3550  178.4950  142.6030 O   0  0  0  0  0  0  0  0  0  0  0  0
  184.2960  178.2880  143.7290 N   0  0  0  0  0  2  0  0  0  0  0  0
  183.8150  178.1730  145.9910 O   0  0  0  0  0  0  0  0  0  0  0  0
  185.1010  178.3990  142.5460 C   0  0  0  0  0  0  0  0  0  0  0  0
  184.7050  178.2640  145.1080 C   0  0  0  0  0  0  0  0  0  0  0  0
  184.4350  178.3540  141.2170 C   0  0  0  0  0  2  0  0  0  0  0  0
  185.3990  178.3120  140.2120 O   0  0  0  0  0  1  0  0  0  0  0  0
  186.3590  179.4660  147.9800 C   0  0  0  0  0  3  0  0  0  0  0  0
  186.2580  178.9560  146.8880 C   0  0  0  0  0  0  0  0  0  0  0  0
  2  6  1  0  0  0  0
  2  3  1  1  0  0  0
  3  1  1  0  0  0  0
  5 22  1  6  0  0  0
  5  1  1  0  0  0  0
  6  4  1  1  0  0  0
  6  5  1  0  0  0  0
  8 15  1  1  0  0  0
  8  9  1  0  0  0  0
  8 11  1  0  0  0  0
  9 13  1  0  0  0  0
 11 12  2  0  0  0  0
 11  7  1  0  0  0  0
 13 10  1  6  0  0  0
 13  2  1  0  0  0  0
 13  7  1  0  0  0  0
 15 14  1  6  0  0  0
 16 19  1  0  0  0  0
 16 15  1  0  0  0  0
 18 19  1  0  0  0  0
 18 17  1  0  0  0  0
 21 20  1  0  0  0  0
 23 31  1  1  0  0  0
 23 26  1  0  0  0  0
 24 29  1  6  0  0  0
 24 28  1  0  0  0  0
 24 25  1  0  0  0  0
 25 22  1  6  0  0  0
 25 30  1  0  0  0  0
 28 27  1  1  0  0  0
 28 23  1  0  0  0  0
 30 26  1  0  0  0  0
 32 31  1  1  0  0  0
 32 41  1  0  0  0  0
 34 37  1  0  0  0  0
 36 33  2  0  0  0  0
 36 34  1  0  0  0  0
 37 32  1  0  0  0  0
 37 35  2  0  0  0  0
 38 36  1  0  0  0  0
 39 38  1  0  0  0  0
 41 40  3  0  0  0  0
M  END
>  <MODEL>
3

>  <REMARK>
 VINA RESULT:      -7.0      2.414      4.267
  Name = 
  11 active torsions:
  status: ('A' for Active; 'I' for Inactive)
    1  A    between atoms: C_1  and  C_7
    2  A    between atoms: C_1  and  C_38
    3  A    between atoms: C_1  and  C_39
    4  A    between atoms: C_4  and  C_19
    5  A    between atoms: C_5  and  C_38
    6  A    between atoms: C_8  and  C_34
    7  A    between atoms: C_13  and  P_22
    8  A    between atoms: C_14  and  C_19
    9  A    between atoms: C_15  and  O_30
   10  A    between atoms: C_23  and  C_36
   11  A    between atoms: O_30  and  C_37
                            x       y       z     vdW  Elec       q    Type
                         _______ _______ _______ _____ _____    ______ ____

>  <TORSDO>
F 11

$$$$
=
 OpenBabel11062421403D

 41 42  0  0  1  0  0  0  0  0999 V2000
  188.3600  173.9650  142.5250 C   0  0  0  0  0  2  0  0  0  0  0  0
  188.2950  176.2110  141.6670 C   0  0  2  0  0  3  0  0  0  0  0  0
  187.4070  175.0380  142.0290 C   0  0  0  0  0  2  0  0  0  0  0  0
  189.2580  176.7690  143.9510 C   0  0  0  0  0  1  0  0  0  0  0  0
  189.7000  174.6400  142.8090 C   0  0  2  0  0  3  0  0  0  0  0  0
  189.5050  176.1310  142.5940 C   0  0  1  0  0  3  0  0  0  0  0  0
  186.6610  177.5900  140.2780 C   0  0  0  0  0  2  0  0  0  0  0  0
  185.6720  178.5680  142.2570 C   0  0  1  0  0  3  0  0  0  0  0  0
  186.8240  177.8620  142.6650 O   0  0  0  0  0  0  0  0  0  0  0  0
  188.6420  178.6460  141.3270 C   0  0  0  0  0  1  0  0  0  0  0  0
  185.5000  178.2930  140.8130 C   0  0  0  0  0  0  0  0  0  0  0  0
  184.5520  178.6600  140.1380 O   0  0  0  0  0  0  0  0  0  0  0  0
  187.5790  177.5660  141.4990 C   0  0  1  0  0  0  0  0  0  0  0  0
  183.1440  178.2900  142.3890 C   0  0  0  0  0  1  0  0  0  0  0  0
  184.4670  178.1870  143.1310 C   0  0  2  0  0  3  0  0  0  0  0  0
  184.4260  179.0190  144.4070 C   0  0  0  0  0  2  0  0  0  0  0  0
  185.7340  176.7590  145.5900 O   0  0  0  0  0  1  0  0  0  0  0  0
  184.9530  178.0320  145.8290 P   0  0  0  0  0  2  0  0  0  0  0  0
  185.6740  179.2700  144.8330 O   0  0  0  0  0  0  0  0  0  0  0  0
  186.4190  178.7620  148.0120 C   0  0  0  0  0  1  0  0  0  0  0  0
  184.9860  178.6660  147.5300 C   0  0  0  0  0  1  0  0  0  0  0  0
  190.6600  174.1560  141.9160 O   0  0  0  0  0  0  0  0  0  0  0  0
  193.5700  172.9400  144.6010 C   0  0  1  0  0  3  0  0  0  0  0  0
  192.4050  174.8710  143.4080 C   0  0  1  0  0  3  0  0  0  0  0  0
  191.7040  173.6910  142.7200 C   0  0  1  0  0  3  0  0  0  0  0  0
  192.2710  172.1100  144.6220 C   0  0  0  0  0  2  0  0  0  0  0  0
  192.6800  174.8460  145.8010 O   0  0  0  0  0  1  0  0  0  0  0  0
  193.2890  174.4500  144.5990 C   0  0  1  0  0  3  0  0  0  0  0  0
  193.1690  175.5780  142.4770 O   0  0  0  0  0  1  0  0  0  0  0  0
  191.1490  172.7300  143.7700 C   0  0  0  0  0  2  0  0  0  0  0  0
  194.5010  172.5540  145.7420 C   0  0  0  0  0  2  0  0  0  0  0  0
  195.9360  172.4030  145.2520 C   0  0  1  0  0  3  0  0  0  0  0  0
  196.1070  173.7390  142.6030 O   0  0  0  0  0  0  0  0  0  0  0  0
  197.1100  174.6080  144.5490 N   0  0  0  0  0  2  0  0  0  0  0  0
  197.1730  173.7880  146.7150 O   0  0  0  0  0  0  0  0  0  0  0  0
  196.7860  174.6460  143.1520 C   0  0  0  0  0  0  0  0  0  0  0  0
  196.7630  173.6220  145.5370 C   0  0  0  0  0  0  0  0  0  0  0  0
  197.2290  175.8130  142.3430 C   0  0  0  0  0  2  0  0  0  0  0  0
  197.2430  176.9560  143.1400 O   0  0  0  0  0  1  0  0  0  0  0  0
  197.1120  170.1640  146.1380 C   0  0  0  0  0  3  0  0  0  0  0  0
  196.5810  171.1750  145.7390 C   0  0  0  0  0  0  0  0  0  0  0  0
  1  5  1  0  0  0  0
  2  3  1  1  0  0  0
  2  6  1  0  0  0  0
  3  1  1  0  0  0  0
  5 22  1  6  0  0  0
  6  5  1  0  0  0  0
  6  4  1  1  0  0  0
  7 11  1  0  0  0  0
  7 13  1  0  0  0  0
  8  9  1  0  0  0  0
  8 15  1  1  0  0  0
 11  8  1  0  0  0  0
 12 11  2  0  0  0  0
 13 10  1  6  0  0  0
 13  2  1  0  0  0  0
 13  9  1  0  0  0  0
 15 14  1  6  0  0  0
 15 16  1  0  0  0  0
 16 19  1  0  0  0  0
 17 18  1  0  0  0  0
 19 18  1  0  0  0  0
 21 20  1  0  0  0  0
 23 26  1  0  0  0  0
 23 31  1  1  0  0  0
 24 29  1  6  0  0  0
 24 28  1  0  0  0  0
 25 22  1  1  0  0  0
 25 24  1  0  0  0  0
 25 30  1  0  0  0  0
 28 23  1  0  0  0  0
 28 27  1  1  0  0  0
 30 26  1  0  0  0  0
 32 37  1  0  0  0  0
 32 41  1  1  0  0  0
 32 31  1  0  0  0  0
 33 36  2  0  0  0  0
 34 37  1  0  0  0  0
 36 34  1  0  0  0  0
 37 35  2  0  0  0  0
 38 39  1  0  0  0  0
 38 36  1  0  0  0  0
 41 40  3  0  0  0  0
M  END
>  <MODEL>
4

>  <REMARK>
 VINA RESULT:      -6.9      3.461     10.518
  Name = 
  11 active torsions:
  status: ('A' for Active; 'I' for Inactive)
    1  A    between atoms: C_1  and  C_7
    2  A    between atoms: C_1  and  C_38
    3  A    between atoms: C_1  and  C_39
    4  A    between atoms: C_4  and  C_19
    5  A    between atoms: C_5  and  C_38
    6  A    between atoms: C_8  and  C_34
    7  A    between atoms: C_13  and  P_22
    8  A    between atoms: C_14  and  C_19
    9  A    between atoms: C_15  and  O_30
   10  A    between atoms: C_23  and  C_36
   11  A    between atoms: O_30  and  C_37
                            x       y       z     vdW  Elec       q    Type
                         _______ _______ _______ _____ _____    ______ ____

>  <TORSDO>
F 11

$$$$
=
 OpenBabel11062421403D

 41 42  0  0  1  0  0  0  0  0999 V2000
  193.2230  174.5530  146.1290 C   0  0  0  0  0  2  0  0  0  0  0  0
  194.7060  175.5950  144.5480 C   0  0  2  0  0  3  0  0  0  0  0  0
  194.5840  174.4000  145.4730 C   0  0  0  0  0  2  0  0  0  0  0  0
  192.8050  175.1110  142.9320 C   0  0  0  0  0  1  0  0  0  0  0  0
  192.4350  175.5770  145.3160 C   0  0  2  0  0  3  0  0  0  0  0  0
  193.2860  175.9420  144.1110 C   0  0  1  0  0  3  0  0  0  0  0  0
  196.7550  174.3250  143.7160 C   0  0  0  0  0  2  0  0  0  0  0  0
  196.0720  174.5640  141.4080 C   0  0  1  0  0  3  0  0  0  0  0  0
  195.2210  175.3790  142.1870 O   0  0  0  0  0  0  0  0  0  0  0  0
  196.6200  176.7910  143.5130 C   0  0  0  0  0  1  0  0  0  0  0  0
  196.9270  173.8190  142.3590 C   0  0  0  0  0  0  0  0  0  0  0  0
  197.7210  172.9460  142.0490 O   0  0  0  0  0  0  0  0  0  0  0  0
  195.8090  175.5000  143.4740 C   0  0  1  0  0  0  0  0  0  0  0  0
  194.7190  172.4250  141.1270 C   0  0  0  0  0  1  0  0  0  0  0  0
  195.2500  173.6810  140.4550 C   0  0  2  0  0  3  0  0  0  0  0  0
  196.0500  173.3200  139.2100 C   0  0  0  0  0  2  0  0  0  0  0  0
  194.4100  175.2900  137.9260 O   0  0  0  0  0  1  0  0  0  0  0  0
  195.3420  174.1120  137.7460 P   0  0  0  0  0  2  0  0  0  0  0  0
  196.7260  174.3930  138.7710 O   0  0  0  0  0  0  0  0  0  0  0  0
  197.3630  174.5140  135.9560 C   0  0  0  0  0  1  0  0  0  0  0  0
  195.9930  173.8770  136.0670 C   0  0  0  0  0  1  0  0  0  0  0  0
  192.2120  176.7140  146.0970 O   0  0  0  0  0  0  0  0  0  0  0  0
  188.1070  177.0640  145.6660 C   0  0  1  0  0  3  0  0  0  0  0  0
  190.4140  177.2610  144.5950 C   0  0  1  0  0  3  0  0  0  0  0  0
  190.8330  176.9320  146.0360 C   0  0  1  0  0  3  0  0  0  0  0  0
  188.5750  175.9040  146.5680 C   0  0  0  0  0  2  0  0  0  0  0  0
  188.6470  175.9900  143.5630 O   0  0  0  0  0  1  0  0  0  0  0  0
  188.8990  177.1250  144.3510 C   0  0  1  0  0  3  0  0  0  0  0  0
  190.8360  178.5490  144.2590 O   0  0  0  0  0  1  0  0  0  0  0  0
  190.0970  175.6850  146.5210 C   0  0  0  0  0  2  0  0  0  0  0  0
  186.6080  177.0020  145.4050 C   0  0  0  0  0  2  0  0  0  0  0  0
  185.9830  178.3900  145.4660 C   0  0  1  0  0  3  0  0  0  0  0  0
  186.2660  178.3750  142.5080 O   0  0  0  0  0  0  0  0  0  0  0  0
  184.1790  178.3710  143.6010 N   0  0  0  0  0  2  0  0  0  0  0  0
  183.6520  178.4120  145.8560 O   0  0  0  0  0  0  0  0  0  0  0  0
  185.0090  178.3620  142.4310 C   0  0  0  0  0  0  0  0  0  0  0  0
  184.5620  178.3930  144.9870 C   0  0  0  0  0  0  0  0  0  0  0  0
  184.3630  178.2910  141.0920 C   0  0  0  0  0  2  0  0  0  0  0  0
  185.3050  177.9130  140.1380 O   0  0  0  0  0  1  0  0  0  0  0  0
  186.2310  179.5410  147.8730 C   0  0  0  0  0  3  0  0  0  0  0  0
  186.1200  179.0220  146.7860 C   0  0  0  0  0  0  0  0  0  0  0  0
  2  3  1  6  0  0  0
  3  1  1  0  0  0  0
  5 22  1  1  0  0  0
  5  1  1  0  0  0  0
  6  4  1  6  0  0  0
  6  2  1  0  0  0  0
  6  5  1  0  0  0  0
  8 15  1  1  0  0  0
  8  9  1  0  0  0  0
  8 11  1  0  0  0  0
  9 13  1  0  0  0  0
 11  7  1  0  0  0  0
 12 11  2  0  0  0  0
 13 10  1  1  0  0  0
 13  7  1  0  0  0  0
 13  2  1  0  0  0  0
 15 14  1  1  0  0  0
 16 15  1  0  0  0  0
 18 17  1  0  0  0  0
 18 19  1  0  0  0  0
 19 16  1  0  0  0  0
 20 21  1  0  0  0  0
 23 31  1  6  0  0  0
 23 26  1  0  0  0  0
 24 29  1  1  0  0  0
 24 25  1  0  0  0  0
 25 22  1  6  0  0  0
 25 30  1  0  0  0  0
 28 27  1  1  0  0  0
 28 24  1  0  0  0  0
 28 23  1  0  0  0  0
 30 26  1  0  0  0  0
 32 31  1  1  0  0  0
 32 41  1  0  0  0  0
 34 37  1  0  0  0  0
 36 33  2  0  0  0  0
 36 34  1  0  0  0  0
 37 32  1  0  0  0  0
 37 35  2  0  0  0  0
 38 36  1  0  0  0  0
 39 38  1  0  0  0  0
 41 40  3  0  0  0  0
M  END
>  <MODEL>
5

>  <REMARK>
 VINA RESULT:      -6.8      2.312      3.704
  Name = 
  11 active torsions:
  status: ('A' for Active; 'I' for Inactive)
    1  A    between atoms: C_1  and  C_7
    2  A    between atoms: C_1  and  C_38
    3  A    between atoms: C_1  and  C_39
    4  A    between atoms: C_4  and  C_19
    5  A    between atoms: C_5  and  C_38
    6  A    between atoms: C_8  and  C_34
    7  A    between atoms: C_13  and  P_22
    8  A    between atoms: C_14  and  C_19
    9  A    between atoms: C_15  and  O_30
   10  A    between atoms: C_23  and  C_36
   11  A    between atoms: O_30  and  C_37
                            x       y       z     vdW  Elec       q    Type
                         _______ _______ _______ _____ _____    ______ ____

>  <TORSDO>
F 11

$$$$
=
 OpenBabel11062421403D

 41 42  0  0  1  0  0  0  0  0999 V2000
  191.3290  177.6430  143.4180 C   0  0  0  0  0  2  0  0  0  0  0  0
  190.2690  176.6790  145.3490 C   0  0  2  0  0  3  0  0  0  0  0  0
  190.2130  177.8750  144.4210 C   0  0  0  0  0  2  0  0  0  0  0  0
  189.7130  174.8140  143.7160 C   0  0  0  0  0  1  0  0  0  0  0  0
  191.7470  176.1780  143.5300 C   0  0  2  0  0  3  0  0  0  0  0  0
  190.7990  175.5170  144.5150 C   0  0  1  0  0  3  0  0  0  0  0  0
  188.8520  177.5400  147.2870 C   0  0  0  0  0  2  0  0  0  0  0  0
  186.7960  176.9620  146.1510 C   0  0  1  0  0  3  0  0  0  0  0  0
  187.8590  176.4030  145.4100 O   0  0  0  0  0  0  0  0  0  0  0  0
  189.1730  175.1090  146.9300 C   0  0  0  0  0  1  0  0  0  0  0  0
  187.4120  177.7690  147.2280 C   0  0  0  0  0  0  0  0  0  0  0  0
  186.7990  178.4770  148.0100 O   0  0  0  0  0  0  0  0  0  0  0  0
  189.0210  176.4530  146.2270 C   0  0  1  0  0  0  0  0  0  0  0  0
  184.4600  177.9230  145.8260 C   0  0  0  0  0  1  0  0  0  0  0  0
  185.8460  177.7420  145.2270 C   0  0  2  0  0  3  0  0  0  0  0  0
  185.7500  177.0880  143.8540 C   0  0  0  0  0  2  0  0  0  0  0  0
  185.9410  179.7750  142.8720 O   0  0  0  0  0  1  0  0  0  0  0  0
  185.5660  178.3420  142.5630 P   0  0  0  0  0  2  0  0  0  0  0  0
  186.8650  177.3350  143.1490 O   0  0  0  0  0  0  0  0  0  0  0  0
  186.6910  177.4670  140.2360 C   0  0  0  0  0  1  0  0  0  0  0  0
  185.3700  177.9440  140.8030 C   0  0  0  0  0  1  0  0  0  0  0  0
  193.0550  176.1080  144.0140 O   0  0  0  0  0  0  0  0  0  0  0  0
  195.5140  175.5330  140.7310 C   0  0  1  0  0  3  0  0  0  0  0  0
  195.3000  175.6690  143.2690 C   0  0  1  0  0  3  0  0  0  0  0  0
  193.8620  176.0390  142.8750 C   0  0  1  0  0  3  0  0  0  0  0  0
  194.0950  174.9460  140.5970 C   0  0  0  0  0  2  0  0  0  0  0  0
  196.3730  173.8010  142.1910 O   0  0  0  0  0  1  0  0  0  0  0  0
  196.1560  175.1850  142.0830 C   0  0  1  0  0  3  0  0  0  0  0  0
  195.9190  176.7570  143.8880 O   0  0  0  0  0  1  0  0  0  0  0  0
  193.3000  174.9940  141.9140 C   0  0  0  0  0  2  0  0  0  0  0  0
  196.4070  175.1110  139.5720 C   0  0  0  0  0  2  0  0  0  0  0  0
  195.5850  174.5200  138.4330 C   0  0  1  0  0  3  0  0  0  0  0  0
  192.7860  174.8990  137.5150 O   0  0  0  0  0  0  0  0  0  0  0  0
  194.6490  175.7340  136.3400 N   0  0  0  0  0  2  0  0  0  0  0  0
  196.9160  175.5720  136.7870 O   0  0  0  0  0  0  0  0  0  0  0  0
  193.2400  175.5360  136.5280 C   0  0  0  0  0  0  0  0  0  0  0  0
  195.7460  175.2920  137.1570 C   0  0  0  0  0  0  0  0  0  0  0  0
  192.2930  176.1400  135.5530 C   0  0  0  0  0  2  0  0  0  0  0  0
  192.6610  177.4600  135.3000 O   0  0  0  0  0  1  0  0  0  0  0  0
  196.0250  171.9000  138.0810 C   0  0  0  0  0  3  0  0  0  0  0  0
  195.8270  173.0820  138.2390 C   0  0  0  0  0  0  0  0  0  0  0  0
  1  5  1  0  0  0  0
  1  3  1  0  0  0  0
  2  3  1  6  0  0  0
  2 13  1  0  0  0  0
  5 22  1  1  0  0  0
  5  6  1  0  0  0  0
  6  4  1  6  0  0  0
  6  2  1  0  0  0  0
  8 15  1  6  0  0  0
  8 11  1  0  0  0  0
  9  8  1  0  0  0  0
  9 13  1  0  0  0  0
 11  7  1  0  0  0  0
 11 12  2  0  0  0  0
 13 10  1  1  0  0  0
 13  7  1  0  0  0  0
 15 14  1  1  0  0  0
 16 15  1  0  0  0  0
 18 17  1  0  0  0  0
 18 19  1  0  0  0  0
 19 16  1  0  0  0  0
 20 21  1  0  0  0  0
 23 31  1  6  0  0  0
 23 28  1  0  0  0  0
 24 29  1  6  0  0  0
 25 24  1  0  0  0  0
 25 22  1  1  0  0  0
 26 23  1  0  0  0  0
 26 30  1  0  0  0  0
 28 27  1  1  0  0  0
 28 24  1  0  0  0  0
 30 25  1  0  0  0  0
 32 41  1  6  0  0  0
 32 31  1  0  0  0  0
 34 36  1  0  0  0  0
 34 37  1  0  0  0  0
 35 37  2  0  0  0  0
 36 33  2  0  0  0  0
 37 32  1  0  0  0  0
 38 36  1  0  0  0  0
 39 38  1  0  0  0  0
 40 41  3  0  0  0  0
M  END
>  <MODEL>
6

>  <REMARK>
 VINA RESULT:      -6.7      4.120     10.058
  Name = 
  11 active torsions:
  status: ('A' for Active; 'I' for Inactive)
    1  A    between atoms: C_1  and  C_7
    2  A    between atoms: C_1  and  C_38
    3  A    between atoms: C_1  and  C_39
    4  A    between atoms: C_4  and  C_19
    5  A    between atoms: C_5  and  C_38
    6  A    between atoms: C_8  and  C_34
    7  A    between atoms: C_13  and  P_22
    8  A    between atoms: C_14  and  C_19
    9  A    between atoms: C_15  and  O_30
   10  A    between atoms: C_23  and  C_36
   11  A    between atoms: O_30  and  C_37
                            x       y       z     vdW  Elec       q    Type
                         _______ _______ _______ _____ _____    ______ ____

>  <TORSDO>
F 11

$$$$
=
 OpenBabel11062421403D

 41 42  0  0  1  0  0  0  0  0999 V2000
  194.2690  175.9320  146.0450 C   0  0  0  0  0  2  0  0  0  0  0  0
  195.3140  174.2920  144.6290 C   0  0  2  0  0  3  0  0  0  0  0  0
  195.5980  175.2530  145.7660 C   0  0  0  0  0  2  0  0  0  0  0  0
  193.6610  172.7300  145.7610 C   0  0  0  0  0  1  0  0  0  0  0  0
  193.1810  175.1060  145.3620 C   0  0  2  0  0  3  0  0  0  0  0  0
  193.8540  173.8750  144.7800 C   0  0  1  0  0  3  0  0  0  0  0  0
  196.8380  172.5480  145.6940 C   0  0  0  0  0  2  0  0  0  0  0  0
  196.4190  170.9690  143.9100 C   0  0  1  0  0  3  0  0  0  0  0  0
  195.8610  172.2050  143.5190 O   0  0  0  0  0  0  0  0  0  0  0  0
  197.5820  173.8500  143.7220 C   0  0  0  0  0  1  0  0  0  0  0  0
  196.9020  171.1450  145.2980 C   0  0  0  0  0  0  0  0  0  0  0  0
  197.3590  170.2560  145.9980 O   0  0  0  0  0  0  0  0  0  0  0  0
  196.3770  173.2000  144.3930 C   0  0  1  0  0  0  0  0  0  0  0  0
  196.0520  168.5090  143.3630 C   0  0  0  0  0  1  0  0  0  0  0  0
  195.3990  169.8340  143.7250 C   0  0  2  0  0  3  0  0  0  0  0  0
  194.3430  170.2040  142.6910 C   0  0  0  0  0  2  0  0  0  0  0  0
  192.6890  168.3580  144.1330 O   0  0  0  0  0  1  0  0  0  0  0  0
  192.8940  169.1320  142.8490 P   0  0  0  0  0  2  0  0  0  0  0  0
  193.2870  170.7720  143.2960 O   0  0  0  0  0  0  0  0  0  0  0  0
  190.7510  170.5670  141.9560 C   0  0  0  0  0  1  0  0  0  0  0  0
  191.4480  169.2360  141.7560 C   0  0  0  0  0  1  0  0  0  0  0  0
  192.6060  175.8590  144.3360 O   0  0  0  0  0  0  0  0  0  0  0  0
  188.7930  176.3460  145.8790 C   0  0  1  0  0  3  0  0  0  0  0  0
  190.5110  174.7820  144.8250 C   0  0  1  0  0  3  0  0  0  0  0  0
  191.2940  176.1020  144.7540 C   0  0  1  0  0  3  0  0  0  0  0  0
  189.8960  177.1510  146.5930 C   0  0  0  0  0  2  0  0  0  0  0  0
  189.3590  174.2050  146.8610 O   0  0  0  0  0  1  0  0  0  0  0  0
  189.2080  174.8860  145.6410 C   0  0  1  0  0  3  0  0  0  0  0  0
  190.2290  174.3270  143.5360 O   0  0  0  0  0  1  0  0  0  0  0  0
  191.3130  176.7720  146.1270 C   0  0  0  0  0  2  0  0  0  0  0  0
  187.4670  176.4280  146.6250 C   0  0  0  0  0  2  0  0  0  0  0  0
  186.7370  177.7260  146.3040 C   0  0  1  0  0  3  0  0  0  0  0  0
  187.1730  178.1240  143.3920 O   0  0  0  0  0  0  0  0  0  0  0  0
  185.0830  177.5440  144.3120 N   0  0  0  0  0  2  0  0  0  0  0  0
  184.4420  177.2010  146.5110 O   0  0  0  0  0  0  0  0  0  0  0  0
  185.9560  177.8520  143.2160 C   0  0  0  0  0  0  0  0  0  0  0  0
  185.3780  177.4820  145.7190 C   0  0  0  0  0  0  0  0  0  0  0  0
  185.4140  177.8050  141.8310 C   0  0  0  0  0  2  0  0  0  0  0  0
  184.1390  178.3660  141.8090 O   0  0  0  0  0  1  0  0  0  0  0  0
  186.6440  179.4110  148.3850 C   0  0  0  0  0  3  0  0  0  0  0  0
  186.6860  178.6510  147.4450 C   0  0  0  0  0  0  0  0  0  0  0  0
  2  6  1  0  0  0  0
  2  3  1  1  0  0  0
  3  1  1  0  0  0  0
  5 22  1  6  0  0  0
  5  1  1  0  0  0  0
  6  5  1  0  0  0  0
  6  4  1  1  0  0  0
  8 15  1  1  0  0  0
  8 11  1  0  0  0  0
  9  8  1  0  0  0  0
  9 13  1  0  0  0  0
 11  7  1  0  0  0  0
 11 12  2  0  0  0  0
 13 10  1  6  0  0  0
 13  2  1  0  0  0  0
 13  7  1  0  0  0  0
 15 14  1  6  0  0  0
 16 19  1  0  0  0  0
 16 15  1  0  0  0  0
 18 19  1  0  0  0  0
 18 17  1  0  0  0  0
 21 20  1  0  0  0  0
 23 26  1  0  0  0  0
 23 31  1  1  0  0  0
 24 29  1  6  0  0  0
 24 28  1  0  0  0  0
 25 22  1  1  0  0  0
 25 24  1  0  0  0  0
 25 30  1  0  0  0  0
 28 23  1  0  0  0  0
 28 27  1  1  0  0  0
 30 26  1  0  0  0  0
 32 31  1  1  0  0  0
 32 41  1  0  0  0  0
 34 37  1  0  0  0  0
 36 33  2  0  0  0  0
 36 34  1  0  0  0  0
 37 32  1  0  0  0  0
 37 35  2  0  0  0  0
 38 36  1  0  0  0  0
 39 38  1  0  0  0  0
 41 40  3  0  0  0  0
M  END
>  <MODEL>
7

>  <REMARK>
 VINA RESULT:      -6.7      2.402      4.353
  Name = 
  11 active torsions:
  status: ('A' for Active; 'I' for Inactive)
    1  A    between atoms: C_1  and  C_7
    2  A    between atoms: C_1  and  C_38
    3  A    between atoms: C_1  and  C_39
    4  A    between atoms: C_4  and  C_19
    5  A    between atoms: C_5  and  C_38
    6  A    between atoms: C_8  and  C_34
    7  A    between atoms: C_13  and  P_22
    8  A    between atoms: C_14  and  C_19
    9  A    between atoms: C_15  and  O_30
   10  A    between atoms: C_23  and  C_36
   11  A    between atoms: O_30  and  C_37
                            x       y       z     vdW  Elec       q    Type
                         _______ _______ _______ _____ _____    ______ ____

>  <TORSDO>
F 11

$$$$
=
 OpenBabel11062421403D

 41 42  0  0  1  0  0  0  0  0999 V2000
  189.9920  175.6340  147.0150 C   0  0  0  0  0  2  0  0  0  0  0  0
  190.5620  175.2020  144.7190 C   0  0  2  0  0  3  0  0  0  0  0  0
  189.4440  175.0420  145.7300 C   0  0  0  0  0  2  0  0  0  0  0  0
  190.7170  177.7360  144.6160 C   0  0  0  0  0  1  0  0  0  0  0  0
  191.2250  176.4580  146.6510 C   0  0  2  0  0  3  0  0  0  0  0  0
  191.3360  176.4490  145.1360 C   0  0  1  0  0  3  0  0  0  0  0  0
  189.2660  173.8210  143.0120 C   0  0  0  0  0  2  0  0  0  0  0  0
  188.5110  175.8050  141.8540 C   0  0  1  0  0  3  0  0  0  0  0  0
  189.4830  176.2100  142.7940 O   0  0  0  0  0  0  0  0  0  0  0  0
  191.4280  174.8750  142.4150 C   0  0  0  0  0  1  0  0  0  0  0  0
  188.2840  174.3600  142.0770 C   0  0  0  0  0  0  0  0  0  0  0  0
  187.4390  173.6880  141.5100 O   0  0  0  0  0  0  0  0  0  0  0  0
  190.1560  175.0410  143.2400 C   0  0  1  0  0  0  0  0  0  0  0  0
  187.0070  177.5270  140.7310 C   0  0  0  0  0  1  0  0  0  0  0  0
  187.2510  176.6780  141.9690 C   0  0  2  0  0  3  0  0  0  0  0  0
  187.3000  177.5570  143.2130 C   0  0  0  0  0  2  0  0  0  0  0  0
  184.4410  177.5410  142.9930 O   0  0  0  0  0  1  0  0  0  0  0  0
  185.6570  178.2100  143.5960 P   0  0  0  0  0  2  0  0  0  0  0  0
  186.6760  176.9440  144.2320 O   0  0  0  0  0  0  0  0  0  0  0  0
  184.4350  178.6550  145.9950 C   0  0  0  0  0  1  0  0  0  0  0  0
  185.3270  179.3390  144.9790 C   0  0  0  0  0  1  0  0  0  0  0  0
  192.3590  175.8640  147.2100 O   0  0  0  0  0  0  0  0  0  0  0  0
  194.7640  174.2600  144.2440 C   0  0  1  0  0  3  0  0  0  0  0  0
  194.5360  175.8960  146.1880 C   0  0  1  0  0  3  0  0  0  0  0  0
  193.0910  175.3800  146.1220 C   0  0  1  0  0  3  0  0  0  0  0  0
  193.7910  173.2650  144.9070 C   0  0  0  0  0  2  0  0  0  0  0  0
  196.3550  174.3210  146.0690 O   0  0  0  0  0  1  0  0  0  0  0  0
  195.5080  175.1160  145.2800 C   0  0  1  0  0  3  0  0  0  0  0  0
  194.5720  177.2540  145.8650 O   0  0  0  0  0  1  0  0  0  0  0  0
  193.0810  173.8530  146.1400 C   0  0  0  0  0  2  0  0  0  0  0  0
  195.7390  173.5530  143.3110 C   0  0  0  0  0  2  0  0  0  0  0  0
  195.1000  172.3230  142.6800 C   0  0  1  0  0  3  0  0  0  0  0  0
  192.5160  170.8660  142.8500 O   0  0  0  0  0  0  0  0  0  0  0  0
  193.1440  172.1570  140.9830 N   0  0  0  0  0  2  0  0  0  0  0  0
  195.0770  173.3610  140.5570 O   0  0  0  0  0  0  0  0  0  0  0  0
  192.2380  171.3130  141.7070 C   0  0  0  0  0  0  0  0  0  0  0  0
  194.4460  172.6340  141.3670 C   0  0  0  0  0  0  0  0  0  0  0  0
  190.9150  170.9970  141.1040 C   0  0  0  0  0  2  0  0  0  0  0  0
  190.5510  172.0080  140.2170 O   0  0  0  0  0  1  0  0  0  0  0  0
  196.7900  170.2510  142.4920 C   0  0  0  0  0  3  0  0  0  0  0  0
  196.0270  171.1860  142.5760 C   0  0  0  0  0  0  0  0  0  0  0  0
  2  6  1  0  0  0  0
  2  3  1  1  0  0  0
  3  1  1  0  0  0  0
  5  1  1  0  0  0  0
  5 22  1  1  0  0  0
  6  4  1  6  0  0  0
  6  5  1  0  0  0  0
  7 13  1  0  0  0  0
  8 15  1  1  0  0  0
  8 11  1  0  0  0  0
  8  9  1  0  0  0  0
  9 13  1  0  0  0  0
 11  7  1  0  0  0  0
 12 11  2  0  0  0  0
 13 10  1  6  0  0  0
 13  2  1  0  0  0  0
 15 14  1  6  0  0  0
 15 16  1  0  0  0  0
 16 19  1  0  0  0  0
 17 18  1  0  0  0  0
 18 19  1  0  0  0  0
 21 20  1  0  0  0  0
 23 31  1  1  0  0  0
 23 26  1  0  0  0  0
 23 28  1  0  0  0  0
 24 29  1  6  0  0  0
 25 30  1  0  0  0  0
 25 24  1  0  0  0  0
 25 22  1  1  0  0  0
 26 30  1  0  0  0  0
 28 27  1  1  0  0  0
 28 24  1  0  0  0  0
 32 41  1  6  0  0  0
 32 31  1  0  0  0  0
 34 37  1  0  0  0  0
 34 36  1  0  0  0  0
 35 37  2  0  0  0  0
 36 33  2  0  0  0  0
 37 32  1  0  0  0  0
 38 36  1  0  0  0  0
 39 38  1  0  0  0  0
 40 41  3  0  0  0  0
M  END
>  <MODEL>
8

>  <REMARK>
 VINA RESULT:      -6.6      3.444      9.300
  Name = 
  11 active torsions:
  status: ('A' for Active; 'I' for Inactive)
    1  A    between atoms: C_1  and  C_7
    2  A    between atoms: C_1  and  C_38
    3  A    between atoms: C_1  and  C_39
    4  A    between atoms: C_4  and  C_19
    5  A    between atoms: C_5  and  C_38
    6  A    between atoms: C_8  and  C_34
    7  A    between atoms: C_13  and  P_22
    8  A    between atoms: C_14  and  C_19
    9  A    between atoms: C_15  and  O_30
   10  A    between atoms: C_23  and  C_36
   11  A    between atoms: O_30  and  C_37
                            x       y       z     vdW  Elec       q    Type
                         _______ _______ _______ _____ _____    ______ ____

>  <TORSDO>
F 11

$$$$
=
 OpenBabel11062421403D

 41 42  0  0  1  0  0  0  0  0999 V2000
  193.5700  173.3140  138.9250 C   0  0  0  0  0  2  0  0  0  0  0  0
  194.8680  173.4150  140.9470 C   0  0  2  0  0  3  0  0  0  0  0  0
  194.9920  173.2250  139.4490 C   0  0  0  0  0  2  0  0  0  0  0  0
  193.9640  175.7880  141.0280 C   0  0  0  0  0  1  0  0  0  0  0  0
  192.7120  173.9250  140.0300 C   0  0  2  0  0  3  0  0  0  0  0  0
  193.6490  174.3070  141.1630 C   0  0  1  0  0  3  0  0  0  0  0  0
  196.5920  175.2100  141.4990 C   0  0  0  0  0  2  0  0  0  0  0  0
  196.7970  174.4330  143.7800 C   0  0  1  0  0  3  0  0  0  0  0  0
  196.0280  173.4800  143.0770 O   0  0  0  0  0  0  0  0  0  0  0  0
  197.2790  172.8570  141.1390 C   0  0  0  0  0  1  0  0  0  0  0  0
  197.0320  175.5570  142.8460 C   0  0  0  0  0  0  0  0  0  0  0  0
  197.5810  176.6070  143.1380 O   0  0  0  0  0  0  0  0  0  0  0  0
  196.1760  173.7530  141.6900 C   0  0  1  0  0  0  0  0  0  0  0  0
  196.5980  174.0200  146.2850 C   0  0  0  0  0  1  0  0  0  0  0  0
  196.1020  174.8240  145.0940 C   0  0  2  0  0  3  0  0  0  0  0  0
  194.5870  174.7120  144.9720 C   0  0  0  0  0  2  0  0  0  0  0  0
  194.5640  177.1110  146.5410 O   0  0  0  0  0  1  0  0  0  0  0  0
  193.7700  175.9270  146.0350 P   0  0  0  0  0  2  0  0  0  0  0  0
  194.0970  175.7830  144.3270 O   0  0  0  0  0  0  0  0  0  0  0  0
  191.5040  175.2900  147.4160 C   0  0  0  0  0  1  0  0  0  0  0  0
  191.9670  176.0640  146.1980 C   0  0  0  0  0  1  0  0  0  0  0  0
  191.7920  172.9740  140.4800 O   0  0  0  0  0  0  0  0  0  0  0  0
  188.5450  174.8310  142.2600 C   0  0  1  0  0  3  0  0  0  0  0  0
  189.4160  173.3380  140.3830 C   0  0  1  0  0  3  0  0  0  0  0  0
  190.7500  173.7150  141.0450 C   0  0  1  0  0  3  0  0  0  0  0  0
  189.6150  174.3050  143.2360 C   0  0  0  0  0  2  0  0  0  0  0  0
  187.5610  172.6730  141.7680 O   0  0  0  0  0  1  0  0  0  0  0  0
  188.1820  173.7910  141.1880 C   0  0  1  0  0  3  0  0  0  0  0  0
  189.3600  173.8660  139.0910 O   0  0  0  0  0  1  0  0  0  0  0  0
  190.6840  173.4390  142.5460 C   0  0  0  0  0  2  0  0  0  0  0  0
  187.3050  175.3190  142.9960 C   0  0  0  0  0  2  0  0  0  0  0  0
  187.2590  176.8410  143.0450 C   0  0  1  0  0  3  0  0  0  0  0  0
  185.8890  177.5730  140.5130 O   0  0  0  0  0  0  0  0  0  0  0  0
  184.8910  177.8190  142.6320 N   0  0  0  0  0  2  0  0  0  0  0  0
  185.7110  177.3700  144.7510 O   0  0  0  0  0  0  0  0  0  0  0  0
  184.8920  177.9160  141.2010 C   0  0  0  0  0  0  0  0  0  0  0  0
  185.9290  177.3530  143.5120 C   0  0  0  0  0  0  0  0  0  0  0  0
  183.6620  178.3930  140.5130 C   0  0  0  0  0  2  0  0  0  0  0  0
  182.5370  177.9340  141.1940 O   0  0  0  0  0  1  0  0  0  0  0  0
  189.2870  177.9000  144.4400 C   0  0  0  0  0  3  0  0  0  0  0  0
  188.3720  177.4230  143.8100 C   0  0  0  0  0  0  0  0  0  0  0  0
  1  3  1  0  0  0  0
  1  5  1  0  0  0  0
  2  3  1  6  0  0  0
  2  6  1  0  0  0  0
  2 13  1  0  0  0  0
  5 22  1  1  0  0  0
  5  6  1  0  0  0  0
  6  4  1  6  0  0  0
  7 13  1  0  0  0  0
  7 11  1  0  0  0  0
  8 15  1  1  0  0  0
  9  8  1  0  0  0  0
 11 12  2  0  0  0  0
 11  8  1  0  0  0  0
 13 10  1  6  0  0  0
 13  9  1  0  0  0  0
 15 14  1  1  0  0  0
 16 15  1  0  0  0  0
 18 17  1  0  0  0  0
 19 16  1  0  0  0  0
 19 18  1  0  0  0  0
 21 20  1  0  0  0  0
 23 31  1  1  0  0  0
 23 26  1  0  0  0  0
 24 29  1  6  0  0  0
 24 25  1  0  0  0  0
 24 28  1  0  0  0  0
 25 22  1  6  0  0  0
 25 30  1  0  0  0  0
 28 27  1  1  0  0  0
 28 23  1  0  0  0  0
 30 26  1  0  0  0  0
 32 31  1  1  0  0  0
 32 37  1  0  0  0  0
 32 41  1  0  0  0  0
 33 36  2  0  0  0  0
 34 37  1  0  0  0  0
 36 34  1  0  0  0  0
 37 35  2  0  0  0  0
 38 39  1  0  0  0  0
 38 36  1  0  0  0  0
 41 40  3  0  0  0  0
M  END
>  <MODEL>
9

>  <REMARK>
 VINA RESULT:      -6.5      2.680      5.162
  Name = 
  11 active torsions:
  status: ('A' for Active; 'I' for Inactive)
    1  A    between atoms: C_1  and  C_7
    2  A    between atoms: C_1  and  C_38
    3  A    between atoms: C_1  and  C_39
    4  A    between atoms: C_4  and  C_19
    5  A    between atoms: C_5  and  C_38
    6  A    between atoms: C_8  and  C_34
    7  A    between atoms: C_13  and  P_22
    8  A    between atoms: C_14  and  C_19
    9  A    between atoms: C_15  and  O_30
   10  A    between atoms: C_23  and  C_36
   11  A    between atoms: O_30  and  C_37
                            x       y       z     vdW  Elec       q    Type
                         _______ _______ _______ _____ _____    ______ ____

>  <TORSDO>
F 11

$$$$
