=
 OpenBabel11062418543D

 33 35  0  0  1  0  0  0  0  0999 V2000
  189.6870  173.3610  138.7980 C   0  0  0  0  0  2  0  0  0  0  0  0
  191.4060  175.1090  145.3040 C   0  0  0  0  0  0  0  0  0  0  0  0
  189.4720  173.9120  140.1950 C   0  0  0  0  0  2  0  0  0  0  0  0
  193.4790  173.9870  144.8670 O   0  0  0  0  0  0  0  0  0  0  0  0
  190.1000  175.2020  144.5730 C   0  0  2  0  0  3  0  0  0  0  0  0
  192.2890  172.5520  139.0360 S   0  0  0  0  0  0  0  0  0  0  0  0
  188.3510  173.1490  140.8790 C   0  0  0  0  0  2  0  0  0  0  0  0
  189.3340  173.2440  143.1900 C   0  0  0  0  0  2  0  0  0  0  0  0
  194.2310  174.4240  139.3040 C   0  0  0  0  0  2  0  0  0  0  0  0
  188.1540  173.6280  142.3100 C   0  0  0  0  0  2  0  0  0  0  0  0
  192.4070  173.3250  142.1920 C   0  0  0  0  0  2  0  0  0  0  0  0
  191.6900  173.8700  143.3360 N   0  0  0  0  0  0  0  0  0  0  0  0
  192.6650  174.4220  141.1730 C   0  0  0  0  0  2  0  0  0  0  0  0
  193.1840  173.8530  139.8920 C   0  0  0  0  0  0  0  0  0  0  0  0
  190.3290  174.3940  143.2690 C   0  0  2  0  0  3  0  0  0  0  0  0
  191.5050  175.2350  146.5860 N   0  0  0  0  0  2  0  0  0  0  0  0
  191.0820  173.7060  138.3120 C   0  0  0  0  0  2  0  0  0  0  0  0
  192.3060  174.2970  144.5310 C   0  0  0  0  0  0  0  0  0  0  0  0
  189.7630  176.6690  144.2560 C   0  0  2  0  0  3  0  0  0  0  0  0
  189.8090  177.5450  145.5140 C   0  0  0  0  0  2  0  0  0  0  0  0
  188.5860  177.3060  146.4000 C   0  0  0  0  0  2  0  0  0  0  0  0
  188.3750  176.8170  143.6140 C   0  0  0  0  0  2  0  0  0  0  0  0
  187.3700  176.4110  144.5130 O   0  0  0  0  0  0  0  0  0  0  0  0
  187.3200  177.3770  145.5370 C   0  0  1  0  0  3  0  0  0  0  0  0
  185.2260  176.2540  145.7820 F   0  0  0  0  0  0  0  0  0  0  0  0
  186.3970  176.7870  147.6210 F   0  0  0  0  0  0  0  0  0  0  0  0
  186.0330  177.2220  146.3580 C   0  0  0  0  0  0  0  0  0  0  0  0
  185.8080  179.3560  147.4720 O   0  0  0  0  0  1  0  0  0  0  0  0
  185.2590  178.5490  146.4730 C   0  0  1  0  0  3  0  0  0  0  0  0
  185.2600  179.3260  145.1600 C   0  0  0  0  0  2  0  0  0  0  0  0
  184.1610  178.9430  144.3460 O   0  0  0  0  0  0  0  0  0  0  0  0
  185.3570  178.5530  142.3950 N   0  0  0  0  0  2  0  0  0  0  0  0
  184.3650  178.2470  143.1600 C   0  0  0  0  0  3  0  0  0  0  0  0
  1  3  1  0  0  0  0
  2 16  2  0  0  0  0
  3  7  1  0  0  0  0
  5  2  1  1  0  0  0
  6 14  1  0  0  0  0
  7 10  1  0  0  0  0
  9 14  2  0  0  0  0
 10  8  1  0  0  0  0
 11 12  1  0  0  0  0
 12 18  1  0  0  0  0
 13 11  1  0  0  0  0
 14 13  1  0  0  0  0
 15  8  1  1  0  0  0
 15 12  1  0  0  0  0
 15  5  1  0  0  0  0
 17  1  1  0  0  0  0
 17  6  1  0  0  0  0
 18  4  2  0  0  0  0
 18  2  1  0  0  0  0
 19 22  1  1  0  0  0
 19  5  1  0  0  0  0
 19 20  1  0  0  0  0
 20 21  1  0  0  0  0
 22 23  1  0  0  0  0
 23 24  1  0  0  0  0
 24 27  1  1  0  0  0
 24 21  1  0  0  0  0
 25 27  1  0  0  0  0
 27 29  1  0  0  0  0
 27 26  1  0  0  0  0
 29 28  1  1  0  0  0
 30 29  1  0  0  0  0
 31 30  1  0  0  0  0
 32 33  2  0  0  0  0
 33 31  1  0  0  0  0
M  END
>  <MODEL>
1

>  <REMARK>
 VINA RESULT:      -7.2      0.000      0.000
  Name = 
  6 active torsions:
  status: ('A' for Active; 'I' for Inactive)
    1  A    between atoms: O_3  and  C_11
    2  A    between atoms: O_3  and  C_32
    3  A    between atoms: C_4  and  C_10
    4  A    between atoms: C_19  and  C_20
    5  A    between atoms: C_19  and  C_31
    6  A    between atoms: C_20  and  C_32
                            x       y       z     vdW  Elec       q    Type
                         _______ _______ _______ _____ _____    ______ ____

>  <TORSDO>
F 6

$$$$
=
 OpenBabel11062418543D

 33 35  0  0  1  0  0  0  0  0999 V2000
  186.0690  179.0670  145.0690 C   0  0  0  0  0  2  0  0  0  0  0  0
  190.1400  174.3510  141.9840 C   0  0  0  0  0  0  0  0  0  0  0  0
  187.3280  178.2550  144.8360 C   0  0  0  0  0  2  0  0  0  0  0  0
  188.1820  173.7310  140.7480 O   0  0  0  0  0  0  0  0  0  0  0  0
  190.3850  175.2380  143.1680 C   0  0  2  0  0  3  0  0  0  0  0  0
  184.4670  177.9660  143.1440 S   0  0  0  0  0  0  0  0  0  0  0  0
  187.6800  177.4830  146.0940 C   0  0  0  0  0  2  0  0  0  0  0  0
  188.5910  175.4560  144.9190 C   0  0  0  0  0  2  0  0  0  0  0  0
  185.0510  178.4070  140.5340 C   0  0  0  0  0  2  0  0  0  0  0  0
  188.9000  176.6000  145.8750 C   0  0  0  0  0  2  0  0  0  0  0  0
  186.7110  175.7670  142.3090 C   0  0  0  0  0  2  0  0  0  0  0  0
  188.0510  175.2500  142.5480 N   0  0  0  0  0  0  0  0  0  0  0  0
  186.7940  177.1510  141.6870 C   0  0  0  0  0  2  0  0  0  0  0  0
  185.4500  177.8030  141.6500 C   0  0  0  0  0  0  0  0  0  0  0  0
  188.9920  175.8320  143.5000 C   0  0  2  0  0  3  0  0  0  0  0  0
  190.8980  173.3470  141.6880 N   0  0  0  0  0  2  0  0  0  0  0  0
  185.4120  179.4020  143.7430 C   0  0  0  0  0  2  0  0  0  0  0  0
  188.7380  174.3860  141.6680 C   0  0  0  0  0  0  0  0  0  0  0  0
  191.3850  176.3510  142.8110 C   0  0  2  0  0  3  0  0  0  0  0  0
  192.6760  175.7810  142.2100 C   0  0  0  0  0  2  0  0  0  0  0  0
  193.5520  175.1420  143.2870 C   0  0  0  0  0  2  0  0  0  0  0  0
  191.7570  177.2070  144.0310 C   0  0  0  0  0  2  0  0  0  0  0  0
  192.4250  176.4290  144.9940 O   0  0  0  0  0  0  0  0  0  0  0  0
  193.6920  176.1170  144.4640 C   0  0  1  0  0  3  0  0  0  0  0  0
  195.1210  176.6500  146.3020 F   0  0  0  0  0  0  0  0  0  0  0  0
  193.8580  174.7980  146.4080 F   0  0  0  0  0  0  0  0  0  0  0  0
  194.6210  175.5880  145.5650 C   0  0  0  0  0  0  0  0  0  0  0  0
  196.7380  175.5850  144.3980 O   0  0  0  0  0  1  0  0  0  0  0  0
  195.7830  174.7560  144.9890 C   0  0  1  0  0  3  0  0  0  0  0  0
  196.4630  173.9090  146.0600 C   0  0  0  0  0  2  0  0  0  0  0  0
  196.4640  172.5370  145.6930 O   0  0  0  0  0  0  0  0  0  0  0  0
  194.3460  171.5890  145.7630 N   0  0  0  0  0  2  0  0  0  0  0  0
  195.3620  171.9700  145.0650 C   0  0  0  0  0  3  0  0  0  0  0  0
  3  1  1  0  0  0  0
  3  7  1  0  0  0  0
  4 18  2  0  0  0  0
  5  2  1  6  0  0  0
  5 15  1  0  0  0  0
  6 17  1  0  0  0  0
  8 10  1  0  0  0  0
  9 14  2  0  0  0  0
 10  7  1  0  0  0  0
 11 12  1  0  0  0  0
 12 15  1  0  0  0  0
 13 11  1  0  0  0  0
 14 13  1  0  0  0  0
 14  6  1  0  0  0  0
 15  8  1  1  0  0  0
 16  2  2  0  0  0  0
 17  1  1  0  0  0  0
 18  2  1  0  0  0  0
 18 12  1  0  0  0  0
 19 20  1  1  0  0  0
 19  5  1  0  0  0  0
 19 22  1  0  0  0  0
 20 21  1  0  0  0  0
 21 24  1  0  0  0  0
 22 23  1  0  0  0  0
 24 23  1  0  0  0  0
 24 27  1  1  0  0  0
 27 25  1  0  0  0  0
 27 26  1  0  0  0  0
 29 28  1  1  0  0  0
 29 27  1  0  0  0  0
 29 30  1  0  0  0  0
 31 30  1  0  0  0  0
 33 31  1  0  0  0  0
 33 32  2  0  0  0  0
M  END
>  <MODEL>
2

>  <REMARK>
 VINA RESULT:      -7.0      3.995      7.990
  Name = 
  6 active torsions:
  status: ('A' for Active; 'I' for Inactive)
    1  A    between atoms: O_3  and  C_11
    2  A    between atoms: O_3  and  C_32
    3  A    between atoms: C_4  and  C_10
    4  A    between atoms: C_19  and  C_20
    5  A    between atoms: C_19  and  C_31
    6  A    between atoms: C_20  and  C_32
                            x       y       z     vdW  Elec       q    Type
                         _______ _______ _______ _____ _____    ______ ____

>  <TORSDO>
F 6

$$$$
=
 OpenBabel11062418543D

 33 35  0  0  1  0  0  0  0  0999 V2000
  187.1060  177.2530  147.4150 C   0  0  0  0  0  2  0  0  0  0  0  0
  190.5260  174.7830  141.8890 C   0  0  0  0  0  0  0  0  0  0  0  0
  188.2660  176.6360  146.6570 C   0  0  0  0  0  2  0  0  0  0  0  0
  188.4510  175.0380  140.7150 O   0  0  0  0  0  0  0  0  0  0  0  0
  190.9210  174.8660  143.3340 C   0  0  2  0  0  3  0  0  0  0  0  0
  185.3010  177.4630  145.3700 S   0  0  0  0  0  0  0  0  0  0  0  0
  188.6110  175.2860  147.2590 C   0  0  0  0  0  2  0  0  0  0  0  0
  189.2560  174.1850  145.0930 C   0  0  0  0  0  2  0  0  0  0  0  0
  185.7790  179.2250  143.3680 C   0  0  0  0  0  2  0  0  0  0  0  0
  189.7260  174.6050  146.4780 C   0  0  0  0  0  2  0  0  0  0  0  0
  187.2730  175.9640  143.2640 C   0  0  0  0  0  2  0  0  0  0  0  0
  188.5680  175.3330  143.0520 N   0  0  0  0  0  0  0  0  0  0  0  0
  187.4550  177.4570  143.4820 C   0  0  0  0  0  2  0  0  0  0  0  0
  186.1800  178.0920  143.9360 C   0  0  0  0  0  0  0  0  0  0  0  0
  189.6110  175.2530  144.0690 C   0  0  2  0  0  3  0  0  0  0  0  0
  191.1660  174.0660  141.0250 N   0  0  0  0  0  2  0  0  0  0  0  0
  186.4120  178.2900  146.5520 C   0  0  0  0  0  2  0  0  0  0  0  0
  189.1190  175.0560  141.7830 C   0  0  0  0  0  0  0  0  0  0  0  0
  192.0020  175.9420  143.5350 C   0  0  2  0  0  3  0  0  0  0  0  0
  193.1690  175.7630  142.5560 C   0  0  0  0  0  2  0  0  0  0  0  0
  194.0580  174.5880  142.9630 C   0  0  0  0  0  2  0  0  0  0  0  0
  192.5650  175.9320  144.9650 C   0  0  0  0  0  2  0  0  0  0  0  0
  193.2240  174.7170  145.2280 O   0  0  0  0  0  0  0  0  0  0  0  0
  194.4000  174.7110  144.4530 C   0  0  1  0  0  3  0  0  0  0  0  0
  194.8080  172.9650  146.0320 F   0  0  0  0  0  0  0  0  0  0  0  0
  195.4780  172.6890  143.9080 F   0  0  0  0  0  0  0  0  0  0  0  0
  195.3560  173.6100  144.9350 C   0  0  0  0  0  0  0  0  0  0  0  0
  197.1880  173.6470  146.5110 O   0  0  0  0  0  1  0  0  0  0  0  0
  196.7450  174.1700  145.2950 C   0  0  1  0  0  3  0  0  0  0  0  0
  197.7820  173.8570  144.2200 C   0  0  0  0  0  2  0  0  0  0  0  0
  197.5780  174.6660  143.0700 O   0  0  0  0  0  0  0  0  0  0  0  0
  196.8150  176.8410  142.7980 N   0  0  0  0  0  2  0  0  0  0  0  0
  197.7710  176.0410  143.1270 C   0  0  0  0  0  3  0  0  0  0  0  0
  3  7  1  0  0  0  0
  3  1  1  0  0  0  0
  4 18  2  0  0  0  0
  5  2  1  6  0  0  0
  5 19  1  0  0  0  0
  5 15  1  0  0  0  0
  6 17  1  0  0  0  0
  8 10  1  0  0  0  0
  9 14  2  0  0  0  0
 10  7  1  0  0  0  0
 11 13  1  0  0  0  0
 12 11  1  0  0  0  0
 12 15  1  0  0  0  0
 13 14  1  0  0  0  0
 14  6  1  0  0  0  0
 15  8  1  1  0  0  0
 16  2  2  0  0  0  0
 17  1  1  0  0  0  0
 18  2  1  0  0  0  0
 18 12  1  0  0  0  0
 19 20  1  6  0  0  0
 19 22  1  0  0  0  0
 20 21  1  0  0  0  0
 21 24  1  0  0  0  0
 22 23  1  0  0  0  0
 24 27  1  1  0  0  0
 24 23  1  0  0  0  0
 26 27  1  0  0  0  0
 27 29  1  0  0  0  0
 27 25  1  0  0  0  0
 29 28  1  1  0  0  0
 30 29  1  0  0  0  0
 31 33  1  0  0  0  0
 31 30  1  0  0  0  0
 32 33  2  0  0  0  0
M  END
>  <MODEL>
3

>  <REMARK>
 VINA RESULT:      -6.9      4.230      8.473
  Name = 
  6 active torsions:
  status: ('A' for Active; 'I' for Inactive)
    1  A    between atoms: O_3  and  C_11
    2  A    between atoms: O_3  and  C_32
    3  A    between atoms: C_4  and  C_10
    4  A    between atoms: C_19  and  C_20
    5  A    between atoms: C_19  and  C_31
    6  A    between atoms: C_20  and  C_32
                            x       y       z     vdW  Elec       q    Type
                         _______ _______ _______ _____ _____    ______ ____

>  <TORSDO>
F 6

$$$$
=
 OpenBabel11062418543D

 33 35  0  0  1  0  0  0  0  0999 V2000
  186.9810  177.3030  147.3360 C   0  0  0  0  0  2  0  0  0  0  0  0
  190.7360  174.8880  142.0060 C   0  0  0  0  0  0  0  0  0  0  0  0
  188.1990  176.7300  146.6380 C   0  0  0  0  0  2  0  0  0  0  0  0
  188.6990  175.0110  140.7480 O   0  0  0  0  0  0  0  0  0  0  0  0
  191.0680  175.0240  143.4630 C   0  0  2  0  0  3  0  0  0  0  0  0
  185.2500  177.3750  145.2190 S   0  0  0  0  0  0  0  0  0  0  0  0
  188.5870  175.4130  147.2850 C   0  0  0  0  0  2  0  0  0  0  0  0
  189.3720  174.2980  145.1730 C   0  0  0  0  0  2  0  0  0  0  0  0
  185.7170  179.1140  143.1930 C   0  0  0  0  0  2  0  0  0  0  0  0
  189.7650  174.7720  146.5650 C   0  0  0  0  0  2  0  0  0  0  0  0
  187.3750  175.9320  143.2270 C   0  0  0  0  0  2  0  0  0  0  0  0
  188.7080  175.3640  143.0800 N   0  0  0  0  0  0  0  0  0  0  0  0
  187.4740  177.4370  143.4150 C   0  0  0  0  0  2  0  0  0  0  0  0
  186.1510  178.0160  143.8040 C   0  0  0  0  0  0  0  0  0  0  0  0
  189.7130  175.3600  144.1380 C   0  0  2  0  0  3  0  0  0  0  0  0
  191.4440  174.1860  141.1860 N   0  0  0  0  0  2  0  0  0  0  0  0
  186.2700  178.2840  146.4220 C   0  0  0  0  0  2  0  0  0  0  0  0
  189.3220  175.0860  141.8400 C   0  0  0  0  0  0  0  0  0  0  0  0
  192.0850  176.1570  143.6790 C   0  0  2  0  0  3  0  0  0  0  0  0
  193.3200  175.9890  142.7860 C   0  0  0  0  0  2  0  0  0  0  0  0
  194.2320  174.8780  143.3050 C   0  0  0  0  0  2  0  0  0  0  0  0
  192.5540  176.2410  145.1400 C   0  0  0  0  0  2  0  0  0  0  0  0
  193.2470  175.0710  145.5030 O   0  0  0  0  0  0  0  0  0  0  0  0
  194.4700  175.0850  144.8070 C   0  0  1  0  0  3  0  0  0  0  0  0
  196.0180  174.5680  146.5500 F   0  0  0  0  0  0  0  0  0  0  0  0
  194.6970  172.9400  145.7510 F   0  0  0  0  0  0  0  0  0  0  0  0
  195.4400  174.0540  145.4010 C   0  0  0  0  0  0  0  0  0  0  0  0
  197.7780  174.1490  144.7960 O   0  0  0  0  0  1  0  0  0  0  0  0
  196.5370  173.6490  144.3980 C   0  0  1  0  0  3  0  0  0  0  0  0
  196.6420  172.1340  144.2490 C   0  0  0  0  0  2  0  0  0  0  0  0
  197.4670  171.5830  145.2650 O   0  0  0  0  0  0  0  0  0  0  0  0
  196.2250  170.0410  146.4760 N   0  0  0  0  0  2  0  0  0  0  0  0
  197.2490  170.2930  145.7340 C   0  0  0  0  0  3  0  0  0  0  0  0
  3  7  1  0  0  0  0
  3  1  1  0  0  0  0
  4 18  2  0  0  0  0
  5  2  1  6  0  0  0
  5 19  1  0  0  0  0
  5 15  1  0  0  0  0
  6 17  1  0  0  0  0
  8 10  1  0  0  0  0
  9 14  2  0  0  0  0
 10  7  1  0  0  0  0
 11 13  1  0  0  0  0
 12 11  1  0  0  0  0
 12 15  1  0  0  0  0
 13 14  1  0  0  0  0
 14  6  1  0  0  0  0
 15  8  1  1  0  0  0
 16  2  2  0  0  0  0
 17  1  1  0  0  0  0
 18  2  1  0  0  0  0
 18 12  1  0  0  0  0
 19 20  1  6  0  0  0
 19 22  1  0  0  0  0
 20 21  1  0  0  0  0
 21 24  1  0  0  0  0
 22 23  1  0  0  0  0
 24 27  1  1  0  0  0
 24 23  1  0  0  0  0
 27 26  1  0  0  0  0
 27 25  1  0  0  0  0
 29 28  1  1  0  0  0
 29 27  1  0  0  0  0
 30 29  1  0  0  0  0
 30 31  1  0  0  0  0
 31 33  1  0  0  0  0
 33 32  2  0  0  0  0
M  END
>  <MODEL>
4

>  <REMARK>
 VINA RESULT:      -6.9      4.249      8.719
  Name = 
  6 active torsions:
  status: ('A' for Active; 'I' for Inactive)
    1  A    between atoms: O_3  and  C_11
    2  A    between atoms: O_3  and  C_32
    3  A    between atoms: C_4  and  C_10
    4  A    between atoms: C_19  and  C_20
    5  A    between atoms: C_19  and  C_31
    6  A    between atoms: C_20  and  C_32
                            x       y       z     vdW  Elec       q    Type
                         _______ _______ _______ _____ _____    ______ ____

>  <TORSDO>
F 6

$$$$
=
 OpenBabel11062418543D

 33 35  0  0  1  0  0  0  0  0999 V2000
  184.5450  178.2780  142.1930 C   0  0  0  0  0  2  0  0  0  0  0  0
  190.3000  175.1440  144.5160 C   0  0  0  0  0  0  0  0  0  0  0  0
  185.7180  177.3190  142.1570 C   0  0  0  0  0  2  0  0  0  0  0  0
  190.2450  176.7540  146.2910 O   0  0  0  0  0  0  0  0  0  0  0  0
  189.5480  174.9920  143.2270 C   0  0  2  0  0  3  0  0  0  0  0  0
  185.0550  179.5140  144.5800 S   0  0  0  0  0  0  0  0  0  0  0  0
  186.5720  177.6000  140.9340 C   0  0  0  0  0  2  0  0  0  0  0  0
  188.7760  177.0570  142.0140 C   0  0  0  0  0  2  0  0  0  0  0  0
  184.8070  178.0970  146.8770 C   0  0  0  0  0  2  0  0  0  0  0  0
  187.8000  176.7010  140.9020 C   0  0  0  0  0  2  0  0  0  0  0  0
  187.8550  177.9140  144.9920 C   0  0  0  0  0  2  0  0  0  0  0  0
  188.7790  176.9260  144.4520 N   0  0  0  0  0  0  0  0  0  0  0  0
  186.5680  177.2330  145.4270 C   0  0  0  0  0  2  0  0  0  0  0  0
  185.5160  178.2410  145.7610 C   0  0  0  0  0  0  0  0  0  0  0  0
  188.5380  176.1690  143.2270 C   0  0  2  0  0  3  0  0  0  0  0  0
  191.4920  174.6800  144.6940 N   0  0  0  0  0  2  0  0  0  0  0  0
  184.0050  178.3890  143.6080 C   0  0  0  0  0  2  0  0  0  0  0  0
  189.8110  176.3140  145.1940 C   0  0  0  0  0  0  0  0  0  0  0  0
  188.8150  173.6400  143.1880 C   0  0  2  0  0  3  0  0  0  0  0  0
  189.7980  172.4620  143.1930 C   0  0  0  0  0  2  0  0  0  0  0  0
  190.4720  172.2980  141.8320 C   0  0  0  0  0  2  0  0  0  0  0  0
  187.9110  173.5100  141.9520 C   0  0  0  0  0  2  0  0  0  0  0  0
  188.6810  173.5280  140.7740 O   0  0  0  0  0  0  0  0  0  0  0  0
  189.4000  172.3180  140.7340 C   0  0  1  0  0  3  0  0  0  0  0  0
  191.1910  171.4140  139.4380 F   0  0  0  0  0  0  0  0  0  0  0  0
  189.0950  171.2690  138.6480 F   0  0  0  0  0  0  0  0  0  0  0  0
  189.9820  172.0830  139.3330 C   0  0  0  0  0  0  0  0  0  0  0  0
  191.5180  173.7860  138.5710 O   0  0  0  0  0  1  0  0  0  0  0  0
  190.1760  173.4010  138.5610 C   0  0  1  0  0  3  0  0  0  0  0  0
  189.7080  173.2880  137.1130 C   0  0  0  0  0  2  0  0  0  0  0  0
  188.8170  174.3450  136.7860 O   0  0  0  0  0  0  0  0  0  0  0  0
  187.0480  175.7230  137.3840 N   0  0  0  0  0  2  0  0  0  0  0  0
  187.8180  174.7290  137.6720 C   0  0  0  0  0  3  0  0  0  0  0  0
  1 17  1  0  0  0  0
  2 16  2  0  0  0  0
  2 18  1  0  0  0  0
  3  1  1  0  0  0  0
  5  2  1  1  0  0  0
  6 14  1  0  0  0  0
  7  3  1  0  0  0  0
 10  7  1  0  0  0  0
 10  8  1  0  0  0  0
 11 13  1  0  0  0  0
 12 11  1  0  0  0  0
 12 18  1  0  0  0  0
 13 14  1  0  0  0  0
 14  9  2  0  0  0  0
 15  8  1  6  0  0  0
 15  5  1  0  0  0  0
 15 12  1  0  0  0  0
 17  6  1  0  0  0  0
 18  4  2  0  0  0  0
 19 22  1  6  0  0  0
 19 20  1  0  0  0  0
 19  5  1  0  0  0  0
 21 20  1  0  0  0  0
 23 22  1  0  0  0  0
 24 27  1  6  0  0  0
 24 23  1  0  0  0  0
 24 21  1  0  0  0  0
 26 27  1  0  0  0  0
 27 25  1  0  0  0  0
 29 28  1  6  0  0  0
 29 27  1  0  0  0  0
 30 29  1  0  0  0  0
 31 30  1  0  0  0  0
 31 33  1  0  0  0  0
 32 33  2  0  0  0  0
M  END
>  <MODEL>
5

>  <REMARK>
 VINA RESULT:      -6.9      4.157      7.553
  Name = 
  6 active torsions:
  status: ('A' for Active; 'I' for Inactive)
    1  A    between atoms: O_3  and  C_11
    2  A    between atoms: O_3  and  C_32
    3  A    between atoms: C_4  and  C_10
    4  A    between atoms: C_19  and  C_20
    5  A    between atoms: C_19  and  C_31
    6  A    between atoms: C_20  and  C_32
                            x       y       z     vdW  Elec       q    Type
                         _______ _______ _______ _____ _____    ______ ____

>  <TORSDO>
F 6

$$$$
=
 OpenBabel11062418543D

 33 35  0  0  1  0  0  0  0  0999 V2000
  185.1660  178.1350  142.1720 C   0  0  0  0  0  2  0  0  0  0  0  0
  190.4960  175.5050  145.7800 C   0  0  0  0  0  0  0  0  0  0  0  0
  186.4020  177.2900  142.4130 C   0  0  0  0  0  2  0  0  0  0  0  0
  189.8770  177.0680  147.4900 O   0  0  0  0  0  0  0  0  0  0  0  0
  190.0820  175.3080  144.3520 C   0  0  2  0  0  3  0  0  0  0  0  0
  184.9880  179.3660  144.6090 S   0  0  0  0  0  0  0  0  0  0  0  0
  187.4850  177.6730  141.4220 C   0  0  0  0  0  2  0  0  0  0  0  0
  189.4190  177.3160  142.9870 C   0  0  0  0  0  2  0  0  0  0  0  0
  184.3500  177.8870  146.7890 C   0  0  0  0  0  2  0  0  0  0  0  0
  188.7670  176.8930  141.6790 C   0  0  0  0  0  2  0  0  0  0  0  0
  187.7550  178.0250  145.6660 C   0  0  0  0  0  2  0  0  0  0  0  0
  188.8690  177.1380  145.3590 N   0  0  0  0  0  0  0  0  0  0  0  0
  186.4730  177.2200  145.7910 C   0  0  0  0  0  2  0  0  0  0  0  0
  185.2810  178.1190  145.8680 C   0  0  0  0  0  0  0  0  0  0  0  0
  188.9920  176.3860  144.1140 C   0  0  2  0  0  3  0  0  0  0  0  0
  191.6520  175.1510  146.2320 N   0  0  0  0  0  2  0  0  0  0  0  0
  184.3050  178.1670  143.4220 C   0  0  0  0  0  2  0  0  0  0  0  0
  189.7540  176.6110  146.3230 C   0  0  0  0  0  0  0  0  0  0  0  0
  189.5090  173.8960  144.1460 C   0  0  2  0  0  3  0  0  0  0  0  0
  190.5540  172.8130  144.4460 C   0  0  0  0  0  2  0  0  0  0  0  0
  191.5860  172.7130  143.3240 C   0  0  0  0  0  2  0  0  0  0  0  0
  188.9920  173.6850  142.7150 C   0  0  0  0  0  2  0  0  0  0  0  0
  190.0490  173.7750  141.7900 O   0  0  0  0  0  0  0  0  0  0  0  0
  190.8560  172.6360  141.9760 C   0  0  1  0  0  3  0  0  0  0  0  0
  191.9230  173.6510  140.0960 F   0  0  0  0  0  0  0  0  0  0  0  0
  193.0610  172.1460  141.3100 F   0  0  0  0  0  0  0  0  0  0  0  0
  191.8160  172.4580  140.7920 C   0  0  0  0  0  0  0  0  0  0  0  0
  190.6040  170.3830  140.5310 O   0  0  0  0  0  1  0  0  0  0  0  0
  191.3570  171.3350  139.8420 C   0  0  1  0  0  3  0  0  0  0  0  0
  190.5250  171.8740  138.6820 C   0  0  0  0  0  2  0  0  0  0  0  0
  189.1370  171.7300  138.9470 O   0  0  0  0  0  0  0  0  0  0  0  0
  188.7660  174.0040  138.6680 N   0  0  0  0  0  2  0  0  0  0  0  0
  188.2880  172.8290  138.9000 C   0  0  0  0  0  3  0  0  0  0  0  0
  1  3  1  0  0  0  0
  1 17  1  0  0  0  0
  2 16  2  0  0  0  0
  2 18  1  0  0  0  0
  5  2  1  1  0  0  0
  6 14  1  0  0  0  0
  7 10  1  0  0  0  0
  7  3  1  0  0  0  0
 10  8  1  0  0  0  0
 11 13  1  0  0  0  0
 12 11  1  0  0  0  0
 12 18  1  0  0  0  0
 13 14  1  0  0  0  0
 14  9  2  0  0  0  0
 15  8  1  6  0  0  0
 15  5  1  0  0  0  0
 15 12  1  0  0  0  0
 17  6  1  0  0  0  0
 18  4  2  0  0  0  0
 19 22  1  6  0  0  0
 19  5  1  0  0  0  0
 19 20  1  0  0  0  0
 21 20  1  0  0  0  0
 23 24  1  0  0  0  0
 23 22  1  0  0  0  0
 24 27  1  6  0  0  0
 24 21  1  0  0  0  0
 25 27  1  0  0  0  0
 27 26  1  0  0  0  0
 29 28  1  1  0  0  0
 29 27  1  0  0  0  0
 30 31  1  0  0  0  0
 30 29  1  0  0  0  0
 32 33  2  0  0  0  0
 33 31  1  0  0  0  0
M  END
>  <MODEL>
6

>  <REMARK>
 VINA RESULT:      -6.7      4.049      7.561
  Name = 
  6 active torsions:
  status: ('A' for Active; 'I' for Inactive)
    1  A    between atoms: O_3  and  C_11
    2  A    between atoms: O_3  and  C_32
    3  A    between atoms: C_4  and  C_10
    4  A    between atoms: C_19  and  C_20
    5  A    between atoms: C_19  and  C_31
    6  A    between atoms: C_20  and  C_32
                            x       y       z     vdW  Elec       q    Type
                         _______ _______ _______ _____ _____    ______ ____

>  <TORSDO>
F 6

$$$$
=
 OpenBabel11062418543D

 33 35  0  0  1  0  0  0  0  0999 V2000
  194.0430  174.0640  139.4520 C   0  0  0  0  0  2  0  0  0  0  0  0
  191.7240  175.8790  145.7500 C   0  0  0  0  0  0  0  0  0  0  0  0
  193.0340  174.5340  140.4810 C   0  0  0  0  0  2  0  0  0  0  0  0
  193.8480  175.1120  146.5560 O   0  0  0  0  0  0  0  0  0  0  0  0
  191.0170  175.7850  144.4300 C   0  0  2  0  0  3  0  0  0  0  0  0
  196.1980  173.6700  141.0910 S   0  0  0  0  0  0  0  0  0  0  0  0
  191.8490  173.5850  140.5080 C   0  0  0  0  0  2  0  0  0  0  0  0
  191.4130  173.7700  142.9760 C   0  0  0  0  0  2  0  0  0  0  0  0
  197.3910  175.8170  142.2370 C   0  0  0  0  0  2  0  0  0  0  0  0
  190.8460  173.9870  141.5800 C   0  0  0  0  0  2  0  0  0  0  0  0
  194.4890  174.3630  143.7680 C   0  0  0  0  0  2  0  0  0  0  0  0
  193.1990  174.7560  144.3170 N   0  0  0  0  0  0  0  0  0  0  0  0
  195.0870  175.5160  142.9790 C   0  0  0  0  0  2  0  0  0  0  0  0
  196.2900  175.0720  142.2100 C   0  0  0  0  0  0  0  0  0  0  0  0
  192.0260  175.0590  143.5030 C   0  0  2  0  0  3  0  0  0  0  0  0
  191.1010  175.9840  146.8760 N   0  0  0  0  0  2  0  0  0  0  0  0
  195.4120  174.6380  139.7640 C   0  0  0  0  0  2  0  0  0  0  0  0
  193.0070  175.2420  145.6270 C   0  0  0  0  0  0  0  0  0  0  0  0
  190.6900  177.1890  143.8930 C   0  0  2  0  0  3  0  0  0  0  0  0
  189.8820  178.0090  144.9070 C   0  0  0  0  0  2  0  0  0  0  0  0
  188.4300  177.5370  144.9690 C   0  0  0  0  0  2  0  0  0  0  0  0
  189.8990  177.1330  142.5770 C   0  0  0  0  0  2  0  0  0  0  0  0
  188.6430  176.5320  142.7810 O   0  0  0  0  0  0  0  0  0  0  0  0
  187.8740  177.4340  143.5420 C   0  0  1  0  0  3  0  0  0  0  0  0
  186.2010  176.0260  142.5830 F   0  0  0  0  0  0  0  0  0  0  0  0
  186.0670  176.5450  144.7620 F   0  0  0  0  0  0  0  0  0  0  0  0
  186.3920  177.0380  143.5100 C   0  0  0  0  0  0  0  0  0  0  0  0
  184.2200  177.7970  142.7700 O   0  0  0  0  0  1  0  0  0  0  0  0
  185.4820  178.2350  143.1750 C   0  0  1  0  0  3  0  0  0  0  0  0
  185.3170  179.1770  144.3640 C   0  0  0  0  0  2  0  0  0  0  0  0
  184.1170  178.8930  145.0700 O   0  0  0  0  0  0  0  0  0  0  0  0
  185.2080  178.7680  147.1150 N   0  0  0  0  0  2  0  0  0  0  0  0
  184.1520  178.5340  146.4120 C   0  0  0  0  0  3  0  0  0  0  0  0
  1 17  1  0  0  0  0
  1  3  1  0  0  0  0
  2 16  2  0  0  0  0
  3  7  1  0  0  0  0
  5  2  1  1  0  0  0
  6 14  1  0  0  0  0
  7 10  1  0  0  0  0
 10  8  1  0  0  0  0
 11 12  1  0  0  0  0
 12 18  1  0  0  0  0
 13 11  1  0  0  0  0
 14  9  2  0  0  0  0
 14 13  1  0  0  0  0
 15  8  1  1  0  0  0
 15 12  1  0  0  0  0
 15  5  1  0  0  0  0
 17  6  1  0  0  0  0
 18  2  1  0  0  0  0
 18  4  2  0  0  0  0
 19 22  1  6  0  0  0
 19  5  1  0  0  0  0
 19 20  1  0  0  0  0
 20 21  1  0  0  0  0
 22 23  1  0  0  0  0
 23 24  1  0  0  0  0
 24 27  1  1  0  0  0
 24 21  1  0  0  0  0
 25 27  1  0  0  0  0
 27 26  1  0  0  0  0
 29 28  1  1  0  0  0
 29 27  1  0  0  0  0
 29 30  1  0  0  0  0
 30 31  1  0  0  0  0
 31 33  1  0  0  0  0
 33 32  2  0  0  0  0
M  END
>  <MODEL>
7

>  <REMARK>
 VINA RESULT:      -6.6      2.156      2.962
  Name = 
  6 active torsions:
  status: ('A' for Active; 'I' for Inactive)
    1  A    between atoms: O_3  and  C_11
    2  A    between atoms: O_3  and  C_32
    3  A    between atoms: C_4  and  C_10
    4  A    between atoms: C_19  and  C_20
    5  A    between atoms: C_19  and  C_31
    6  A    between atoms: C_20  and  C_32
                            x       y       z     vdW  Elec       q    Type
                         _______ _______ _______ _____ _____    ______ ____

>  <TORSDO>
F 6

$$$$
=
 OpenBabel11062418543D

 33 35  0  0  1  0  0  0  0  0999 V2000
  190.9210  172.0920  139.1530 C   0  0  0  0  0  2  0  0  0  0  0  0
  191.1700  175.1070  145.4130 C   0  0  0  0  0  0  0  0  0  0  0  0
  190.4340  172.9460  140.3070 C   0  0  0  0  0  2  0  0  0  0  0  0
  193.1400  173.7900  145.7710 O   0  0  0  0  0  0  0  0  0  0  0  0
  190.1050  175.1200  144.3560 C   0  0  2  0  0  3  0  0  0  0  0  0
  193.2710  171.1930  140.2290 S   0  0  0  0  0  0  0  0  0  0  0  0
  189.0970  172.4230  140.8020 C   0  0  0  0  0  2  0  0  0  0  0  0
  189.4820  172.9590  143.2280 C   0  0  0  0  0  2  0  0  0  0  0  0
  195.2920  172.9520  140.6350 C   0  0  0  0  0  2  0  0  0  0  0  0
  188.6090  173.2150  142.0070 C   0  0  0  0  0  2  0  0  0  0  0  0
  192.6940  172.6270  143.0890 C   0  0  0  0  0  2  0  0  0  0  0  0
  191.7850  173.4530  143.8720 N   0  0  0  0  0  0  0  0  0  0  0  0
  193.3230  173.4570  141.9830 C   0  0  0  0  0  2  0  0  0  0  0  0
  194.0720  172.5910  141.0230 C   0  0  0  0  0  0  0  0  0  0  0  0
  190.5540  174.0340  143.3440 C   0  0  2  0  0  3  0  0  0  0  0  0
  190.9630  175.5040  146.6240 N   0  0  0  0  0  2  0  0  0  0  0  0
  192.4240  172.2340  138.9990 C   0  0  0  0  0  2  0  0  0  0  0  0
  192.1310  174.0910  145.0810 C   0  0  0  0  0  0  0  0  0  0  0  0
  190.0320  176.5010  143.6820 C   0  0  2  0  0  3  0  0  0  0  0  0
  189.6920  177.6060  144.6890 C   0  0  0  0  0  2  0  0  0  0  0  0
  188.2160  177.5600  145.0820 C   0  0  0  0  0  2  0  0  0  0  0  0
  188.9900  176.5370  142.5530 C   0  0  0  0  0  2  0  0  0  0  0  0
  187.6970  176.3280  143.0690 O   0  0  0  0  0  0  0  0  0  0  0  0
  187.3600  177.4760  143.8120 C   0  0  1  0  0  3  0  0  0  0  0  0
  185.1450  177.3520  142.9260 F   0  0  0  0  0  0  0  0  0  0  0  0
  185.5730  176.4190  144.9220 F   0  0  0  0  0  0  0  0  0  0  0  0
  185.8540  177.5020  144.1080 C   0  0  0  0  0  0  0  0  0  0  0  0
  185.3730  179.8620  143.9060 O   0  0  0  0  0  1  0  0  0  0  0  0
  185.4280  178.8030  144.8140 C   0  0  1  0  0  3  0  0  0  0  0  0
  184.0670  178.6660  145.4900 C   0  0  0  0  0  2  0  0  0  0  0  0
  184.2080  178.6160  146.9030 O   0  0  0  0  0  0  0  0  0  0  0  0
  185.9410  177.5430  148.0130 N   0  0  0  0  0  2  0  0  0  0  0  0
  185.4670  178.6230  147.4910 C   0  0  0  0  0  3  0  0  0  0  0  0
  1  3  1  0  0  0  0
  2 16  2  0  0  0  0
  3  7  1  0  0  0  0
  5  2  1  1  0  0  0
  6 14  1  0  0  0  0
  7 10  1  0  0  0  0
  9 14  2  0  0  0  0
 10  8  1  0  0  0  0
 11 12  1  0  0  0  0
 12 18  1  0  0  0  0
 13 11  1  0  0  0  0
 14 13  1  0  0  0  0
 15  8  1  1  0  0  0
 15 12  1  0  0  0  0
 15  5  1  0  0  0  0
 17  1  1  0  0  0  0
 17  6  1  0  0  0  0
 18  2  1  0  0  0  0
 18  4  2  0  0  0  0
 19 22  1  6  0  0  0
 19  5  1  0  0  0  0
 19 20  1  0  0  0  0
 20 21  1  0  0  0  0
 22 23  1  0  0  0  0
 23 24  1  0  0  0  0
 24 27  1  1  0  0  0
 24 21  1  0  0  0  0
 25 27  1  0  0  0  0
 27 29  1  0  0  0  0
 27 26  1  0  0  0  0
 29 28  1  6  0  0  0
 29 30  1  0  0  0  0
 30 31  1  0  0  0  0
 31 33  1  0  0  0  0
 33 32  2  0  0  0  0
M  END
>  <MODEL>
8

>  <REMARK>
 VINA RESULT:      -6.6      1.676      2.061
  Name = 
  6 active torsions:
  status: ('A' for Active; 'I' for Inactive)
    1  A    between atoms: O_3  and  C_11
    2  A    between atoms: O_3  and  C_32
    3  A    between atoms: C_4  and  C_10
    4  A    between atoms: C_19  and  C_20
    5  A    between atoms: C_19  and  C_31
    6  A    between atoms: C_20  and  C_32
                            x       y       z     vdW  Elec       q    Type
                         _______ _______ _______ _____ _____    ______ ____

>  <TORSDO>
F 6

$$$$
=
 OpenBabel11062418543D

 33 35  0  0  1  0  0  0  0  0999 V2000
  184.7230  178.2650  143.1440 C   0  0  0  0  0  2  0  0  0  0  0  0
  190.7540  175.0130  144.3200 C   0  0  0  0  0  0  0  0  0  0  0  0
  185.8680  177.3120  142.8630 C   0  0  0  0  0  2  0  0  0  0  0  0
  190.9980  176.5160  146.1720 O   0  0  0  0  0  0  0  0  0  0  0  0
  189.8030  174.9340  143.1630 C   0  0  2  0  0  3  0  0  0  0  0  0
  185.6210  179.3590  145.4850 S   0  0  0  0  0  0  0  0  0  0  0  0
  186.5150  177.6660  141.5360 C   0  0  0  0  0  2  0  0  0  0  0  0
  188.8600  177.0650  142.2130 C   0  0  0  0  0  2  0  0  0  0  0  0
  185.7360  177.8090  147.7050 C   0  0  0  0  0  2  0  0  0  0  0  0
  187.7150  176.7730  141.2540 C   0  0  0  0  0  2  0  0  0  0  0  0
  188.4380  177.7440  145.3450 C   0  0  0  0  0  2  0  0  0  0  0  0
  189.2560  176.7920  144.6070 N   0  0  0  0  0  0  0  0  0  0  0  0
  187.2330  177.0370  145.9420 C   0  0  0  0  0  2  0  0  0  0  0  0
  186.2560  178.0210  146.5000 C   0  0  0  0  0  0  0  0  0  0  0  0
  188.8160  176.1070  143.3950 C   0  0  2  0  0  3  0  0  0  0  0  0
  191.9560  174.5420  144.2760 N   0  0  0  0  0  2  0  0  0  0  0  0
  184.4190  178.2910  144.6310 C   0  0  0  0  0  2  0  0  0  0  0  0
  190.3900  176.1400  145.1350 C   0  0  0  0  0  0  0  0  0  0  0  0
  189.0640  173.5860  143.1640 C   0  0  2  0  0  3  0  0  0  0  0  0
  190.0370  172.4050  143.0580 C   0  0  0  0  0  2  0  0  0  0  0  0
  190.5860  172.2670  141.6380 C   0  0  0  0  0  2  0  0  0  0  0  0
  188.0510  173.4820  142.0130 C   0  0  0  0  0  2  0  0  0  0  0  0
  188.7110  173.5210  140.7700 O   0  0  0  0  0  0  0  0  0  0  0  0
  189.4190  172.3100  140.6430 C   0  0  1  0  0  3  0  0  0  0  0  0
  191.1470  171.5620  139.1730 F   0  0  0  0  0  0  0  0  0  0  0  0
  189.0060  171.1850  138.6150 F   0  0  0  0  0  0  0  0  0  0  0  0
  189.8700  172.1010  139.1900 C   0  0  0  0  0  0  0  0  0  0  0  0
  191.1300  173.7660  137.9730 O   0  0  0  0  0  1  0  0  0  0  0  0
  189.8430  173.4130  138.3840 C   0  0  1  0  0  3  0  0  0  0  0  0
  188.9470  173.3080  137.1540 C   0  0  0  0  0  2  0  0  0  0  0  0
  189.7240  173.1980  135.9700 O   0  0  0  0  0  0  0  0  0  0  0  0
  190.2070  170.9480  135.6630 N   0  0  0  0  0  2  0  0  0  0  0  0
  189.6910  172.0380  135.2050 C   0  0  0  0  0  3  0  0  0  0  0  0
  1 17  1  0  0  0  0
  2 18  1  0  0  0  0
  3  1  1  0  0  0  0
  5 19  1  0  0  0  0
  5 15  1  0  0  0  0
  5  2  1  1  0  0  0
  6 14  1  0  0  0  0
  7  3  1  0  0  0  0
 10  7  1  0  0  0  0
 10  8  1  0  0  0  0
 11 13  1  0  0  0  0
 12 18  1  0  0  0  0
 12 11  1  0  0  0  0
 13 14  1  0  0  0  0
 14  9  2  0  0  0  0
 15  8  1  6  0  0  0
 15 12  1  0  0  0  0
 16  2  2  0  0  0  0
 17  6  1  0  0  0  0
 18  4  2  0  0  0  0
 19 22  1  6  0  0  0
 20 19  1  0  0  0  0
 21 20  1  0  0  0  0
 23 22  1  0  0  0  0
 24 27  1  6  0  0  0
 24 23  1  0  0  0  0
 24 21  1  0  0  0  0
 25 27  1  0  0  0  0
 26 27  1  0  0  0  0
 29 28  1  6  0  0  0
 29 27  1  0  0  0  0
 30 29  1  0  0  0  0
 31 30  1  0  0  0  0
 33 32  2  0  0  0  0
 33 31  1  0  0  0  0
M  END
>  <MODEL>
9

>  <REMARK>
 VINA RESULT:      -6.6      4.418      7.931
  Name = 
  6 active torsions:
  status: ('A' for Active; 'I' for Inactive)
    1  A    between atoms: O_3  and  C_11
    2  A    between atoms: O_3  and  C_32
    3  A    between atoms: C_4  and  C_10
    4  A    between atoms: C_19  and  C_20
    5  A    between atoms: C_19  and  C_31
    6  A    between atoms: C_20  and  C_32
                            x       y       z     vdW  Elec       q    Type
                         _______ _______ _______ _____ _____    ______ ____

>  <TORSDO>
F 6

$$$$
