=
 OpenBabel11062418573D

 33 37  0  0  1  0  0  0  0  0999 V2000
  189.1890  175.5690  147.2490 C   0  0  0  0  0  2  0  0  0  0  0  0
  188.1740  175.6230  146.1020 C   0  0  2  0  0  3  0  0  0  0  0  0
  188.8440  175.8760  144.7380 C   0  0  1  0  0  3  0  0  0  0  0  0
  190.0960  176.7120  147.1980 N   0  0  0  0  0  2  0  0  0  0  0  0
  190.4720  177.3220  145.9580 C   0  0  0  0  0  3  0  0  0  0  0  0
  189.8940  176.9600  144.8110 C   0  0  0  0  0  3  0  0  0  0  0  0
  186.6180  176.8720  147.6710 C   0  0  0  0  0  3  0  0  0  0  0  0
  186.3680  177.1350  145.2780 C   0  0  0  0  0  3  0  0  0  0  0  0
  185.5560  177.7570  147.8780 C   0  0  0  0  0  3  0  0  0  0  0  0
  187.0280  176.5560  146.3660 C   0  0  0  0  0  0  0  0  0  0  0  0
  184.8970  178.3290  146.7850 C   0  0  0  0  0  3  0  0  0  0  0  0
  185.2970  178.0220  145.4790 C   0  0  0  0  0  0  0  0  0  0  0  0
  184.6210  178.6130  144.4060 O   0  0  0  0  0  0  0  0  0  0  0  0
  185.2470  179.5010  143.4830 C   0  0  0  0  0  2  0  0  0  0  0  0
  184.9650  178.4060  141.2860 N   0  0  0  0  0  0  0  0  0  0  0  0
  185.7850  178.7430  142.3190 C   0  0  0  0  0  0  0  0  0  0  0  0
  187.6380  177.7090  141.1720 C   0  0  0  0  0  3  0  0  0  0  0  0
  185.4300  177.7310  140.2000 C   0  0  0  0  0  3  0  0  0  0  0  0
  187.1420  178.4030  142.2770 C   0  0  0  0  0  3  0  0  0  0  0  0
  186.7780  177.3680  140.1230 C   0  0  0  0  0  3  0  0  0  0  0  0
  188.9940  174.3790  142.8050 N   0  0  0  0  0  2  0  0  0  0  0  0
  189.4380  174.5810  144.1670 C   0  0  1  0  0  3  0  0  0  0  0  0
  191.3250  174.3950  142.7720 O   0  0  0  0  0  0  0  0  0  0  0  0
  190.1790  174.6260  142.0000 C   0  0  0  0  0  2  0  0  0  0  0  0
  190.9440  174.6790  144.0890 C   0  0  2  0  0  3  0  0  0  0  0  0
  191.5770  173.6760  145.0420 C   0  0  0  0  0  2  0  0  0  0  0  0
  194.0630  173.2360  144.8420 C   0  0  0  0  0  0  0  0  0  0  0  0
  193.7710  171.7630  143.9310 Cl  0  0  0  0  0  0  0  0  0  0  0  0
  195.6590  174.7780  145.8220 C   0  0  0  0  0  3  0  0  0  0  0  0
  195.3850  173.6150  145.0970 C   0  0  0  0  0  3  0  0  0  0  0  0
  194.6100  175.5690  146.2940 C   0  0  0  0  0  3  0  0  0  0  0  0
  193.0040  174.0320  145.3180 C   0  0  0  0  0  0  0  0  0  0  0  0
  193.2860  175.1980  146.0420 C   0  0  0  0  0  3  0  0  0  0  0  0
  2 10  1  1  0  0  0
  2  1  1  0  0  0  0
  3  6  1  1  0  0  0
  3  2  1  0  0  0  0
  4  1  1  0  0  0  0
  5  4  1  0  0  0  0
  6  5  2  0  0  0  0
  7  9  1  0  0  0  0
  8 12  2  0  0  0  0
  8 10  1  0  0  0  0
 10  7  2  0  0  0  0
 11  9  2  0  0  0  0
 12 11  1  0  0  0  0
 13 12  1  0  0  0  0
 14 13  1  0  0  0  0
 15 16  1  0  0  0  0
 16 14  1  0  0  0  0
 17 19  1  0  0  0  0
 18 15  2  0  0  0  0
 19 16  2  0  0  0  0
 20 18  1  0  0  0  0
 20 17  2  0  0  0  0
 22 21  1  6  0  0  0
 22  3  1  0  0  0  0
 23 25  1  0  0  0  0
 24 23  1  0  0  0  0
 24 21  1  0  0  0  0
 25 22  1  0  0  0  0
 25 26  1  1  0  0  0
 26 32  1  0  0  0  0
 27 30  2  0  0  0  0
 27 32  1  0  0  0  0
 28 27  1  0  0  0  0
 29 31  2  0  0  0  0
 30 29  1  0  0  0  0
 32 33  2  0  0  0  0
 33 31  1  0  0  0  0
M  END
>  <MODEL>
1

>  <REMARK>
 VINA RESULT:      -7.9      0.000      0.000
  Name = 
  7 active torsions:
  status: ('A' for Active; 'I' for Inactive)
    1  A    between atoms: C_2  and  C_15
    2  A    between atoms: C_3  and  C_14
    3  A    between atoms: C_13  and  C_27
    4  A    between atoms: C_13  and  C_30
    5  A    between atoms: C_16  and  C_21
    6  A    between atoms: C_21  and  O_29
    7  A    between atoms: O_29  and  C_33
                            x       y       z     vdW  Elec       q    Type
                         _______ _______ _______ _____ _____    ______ ____

>  <TORSDO>
F 7

$$$$
=
 OpenBabel11062418573D

 33 37  0  0  1  0  0  0  0  0999 V2000
  191.7340  176.5970  145.7800 C   0  0  0  0  0  2  0  0  0  0  0  0
  191.7250  175.5120  144.6970 C   0  0  2  0  0  3  0  0  0  0  0  0
  190.3120  174.9530  144.4390 C   0  0  1  0  0  3  0  0  0  0  0  0
  191.0080  176.1550  146.9670 N   0  0  0  0  0  2  0  0  0  0  0  0
  189.8930  175.2610  146.8810 C   0  0  0  0  0  3  0  0  0  0  0  0
  189.5640  174.6820  145.7240 C   0  0  0  0  0  3  0  0  0  0  0  0
  192.4360  173.0770  144.7460 C   0  0  0  0  0  3  0  0  0  0  0  0
  194.0340  174.8010  145.3170 C   0  0  0  0  0  3  0  0  0  0  0  0
  193.4140  172.1010  144.9580 C   0  0  0  0  0  3  0  0  0  0  0  0
  192.7420  174.4340  144.9280 C   0  0  0  0  0  0  0  0  0  0  0  0
  194.7030  172.4750  145.3510 C   0  0  0  0  0  3  0  0  0  0  0  0
  195.0210  173.8250  145.5350 C   0  0  0  0  0  0  0  0  0  0  0  0
  196.3210  174.1690  145.9270 O   0  0  0  0  0  0  0  0  0  0  0  0
  197.4540  174.0320  145.0740 C   0  0  0  0  0  2  0  0  0  0  0  0
  196.9910  176.0200  143.6800 N   0  0  0  0  0  0  0  0  0  0  0  0
  197.1900  174.6750  143.7560 C   0  0  0  0  0  0  0  0  0  0  0  0
  196.9450  174.5150  141.3610 C   0  0  0  0  0  3  0  0  0  0  0  0
  196.7670  176.6390  142.4890 C   0  0  0  0  0  3  0  0  0  0  0  0
  197.1760  173.8980  142.5920 C   0  0  0  0  0  3  0  0  0  0  0  0
  196.7390  175.8970  141.3050 C   0  0  0  0  0  3  0  0  0  0  0  0
  189.2170  175.2370  142.2670 N   0  0  0  0  0  2  0  0  0  0  0  0
  189.5070  175.8880  143.5270 C   0  0  1  0  0  3  0  0  0  0  0  0
  187.1760  175.8680  143.2000 O   0  0  0  0  0  0  0  0  0  0  0  0
  187.7900  174.9650  142.3230 C   0  0  0  0  0  2  0  0  0  0  0  0
  188.1600  176.1950  144.1400 C   0  0  2  0  0  3  0  0  0  0  0  0
  188.0780  177.6730  144.4900 C   0  0  0  0  0  2  0  0  0  0  0  0
  185.8290  178.7220  144.9980 C   0  0  0  0  0  0  0  0  0  0  0  0
  185.7660  179.4610  143.4050 Cl  0  0  0  0  0  0  0  0  0  0  0  0
  184.7720  178.3600  147.1510 C   0  0  0  0  0  3  0  0  0  0  0  0
  184.7570  178.9270  145.8740 C   0  0  0  0  0  3  0  0  0  0  0  0
  185.8580  177.5840  147.5580 C   0  0  0  0  0  3  0  0  0  0  0  0
  186.9250  177.9390  145.4060 C   0  0  0  0  0  0  0  0  0  0  0  0
  186.9310  177.3720  146.6870 C   0  0  0  0  0  3  0  0  0  0  0  0
  1  4  1  0  0  0  0
  2 10  1  1  0  0  0
  2  1  1  0  0  0  0
  3  2  1  0  0  0  0
  3  6  1  1  0  0  0
  5  4  1  0  0  0  0
  6  5  2  0  0  0  0
  7 10  2  0  0  0  0
  7  9  1  0  0  0  0
  8 12  2  0  0  0  0
  9 11  2  0  0  0  0
 10  8  1  0  0  0  0
 11 12  1  0  0  0  0
 12 13  1  0  0  0  0
 14 13  1  0  0  0  0
 15 16  1  0  0  0  0
 16 14  1  0  0  0  0
 17 19  1  0  0  0  0
 18 15  2  0  0  0  0
 19 16  2  0  0  0  0
 20 17  2  0  0  0  0
 20 18  1  0  0  0  0
 21 24  1  0  0  0  0
 22 21  1  6  0  0  0
 22 25  1  0  0  0  0
 22  3  1  0  0  0  0
 23 25  1  0  0  0  0
 24 23  1  0  0  0  0
 25 26  1  6  0  0  0
 26 32  1  0  0  0  0
 27 32  2  0  0  0  0
 27 30  1  0  0  0  0
 28 27  1  0  0  0  0
 29 31  1  0  0  0  0
 30 29  2  0  0  0  0
 32 33  1  0  0  0  0
 33 31  2  0  0  0  0
M  END
>  <MODEL>
2

>  <REMARK>
 VINA RESULT:      -7.8      3.219      8.514
  Name = 
  7 active torsions:
  status: ('A' for Active; 'I' for Inactive)
    1  A    between atoms: C_2  and  C_15
    2  A    between atoms: C_3  and  C_14
    3  A    between atoms: C_13  and  C_27
    4  A    between atoms: C_13  and  C_30
    5  A    between atoms: C_16  and  C_21
    6  A    between atoms: C_21  and  O_29
    7  A    between atoms: O_29  and  C_33
                            x       y       z     vdW  Elec       q    Type
                         _______ _______ _______ _____ _____    ______ ____

>  <TORSDO>
F 7

$$$$
=
 OpenBabel11062418573D

 33 37  0  0  1  0  0  0  0  0999 V2000
  191.3080  176.7280  146.2740 C   0  0  0  0  0  2  0  0  0  0  0  0
  191.7640  175.9300  145.0470 C   0  0  2  0  0  3  0  0  0  0  0  0
  190.6190  175.1050  144.4270 C   0  0  1  0  0  3  0  0  0  0  0  0
  190.5710  175.8780  147.2050 N   0  0  0  0  0  2  0  0  0  0  0  0
  189.7780  174.7750  146.7530 C   0  0  0  0  0  3  0  0  0  0  0  0
  189.7980  174.3910  145.4750 C   0  0  0  0  0  3  0  0  0  0  0  0
  194.2050  175.7030  145.7010 C   0  0  0  0  0  3  0  0  0  0  0  0
  192.9310  173.7260  145.1320 C   0  0  0  0  0  3  0  0  0  0  0  0
  195.3310  174.9080  145.9370 C   0  0  0  0  0  3  0  0  0  0  0  0
  192.9980  175.1140  145.2950 C   0  0  0  0  0  0  0  0  0  0  0  0
  195.2580  173.5220  145.7670 C   0  0  0  0  0  3  0  0  0  0  0  0
  194.0600  172.9220  145.3620 C   0  0  0  0  0  0  0  0  0  0  0  0
  194.0160  171.5320  145.2040 O   0  0  0  0  0  0  0  0  0  0  0  0
  195.1340  170.7610  144.7690 C   0  0  0  0  0  2  0  0  0  0  0  0
  196.9060  169.5780  146.0200 N   0  0  0  0  0  0  0  0  0  0  0  0
  195.5810  169.8430  145.8540 C   0  0  0  0  0  0  0  0  0  0  0  0
  195.0730  168.4320  147.7430 C   0  0  0  0  0  3  0  0  0  0  0  0
  197.3480  168.7590  147.0140 C   0  0  0  0  0  3  0  0  0  0  0  0
  194.6390  169.2760  146.7200 C   0  0  0  0  0  3  0  0  0  0  0  0
  196.4380  168.1690  147.8950 C   0  0  0  0  0  3  0  0  0  0  0  0
  189.4340  175.3080  142.2930 N   0  0  0  0  0  2  0  0  0  0  0  0
  189.7260  175.9820  143.5400 C   0  0  1  0  0  3  0  0  0  0  0  0
  187.3910  175.8160  143.2940 O   0  0  0  0  0  0  0  0  0  0  0  0
  188.0300  174.9470  142.4000 C   0  0  0  0  0  2  0  0  0  0  0  0
  188.3850  176.2090  144.1980 C   0  0  2  0  0  3  0  0  0  0  0  0
  188.2220  177.6810  144.5450 C   0  0  0  0  0  2  0  0  0  0  0  0
  185.9080  178.6330  144.9370 C   0  0  0  0  0  0  0  0  0  0  0  0
  185.8980  179.3760  143.3450 Cl  0  0  0  0  0  0  0  0  0  0  0  0
  184.7550  178.2180  147.0300 C   0  0  0  0  0  3  0  0  0  0  0  0
  184.7840  178.7900  145.7560 C   0  0  0  0  0  3  0  0  0  0  0  0
  185.8500  177.4850  147.4920 C   0  0  0  0  0  3  0  0  0  0  0  0
  187.0130  177.8950  145.4000 C   0  0  0  0  0  0  0  0  0  0  0  0
  186.9750  177.3230  146.6790 C   0  0  0  0  0  3  0  0  0  0  0  0
  1  4  1  0  0  0  0
  2 10  1  1  0  0  0
  2  1  1  0  0  0  0
  3  2  1  0  0  0  0
  3  6  1  1  0  0  0
  5  4  1  0  0  0  0
  6  5  2  0  0  0  0
  7  9  1  0  0  0  0
  8 10  1  0  0  0  0
  8 12  2  0  0  0  0
 10  7  2  0  0  0  0
 11  9  2  0  0  0  0
 12 11  1  0  0  0  0
 13 12  1  0  0  0  0
 14 13  1  0  0  0  0
 14 16  1  0  0  0  0
 15 18  1  0  0  0  0
 16 15  2  0  0  0  0
 16 19  1  0  0  0  0
 17 20  1  0  0  0  0
 18 20  2  0  0  0  0
 19 17  2  0  0  0  0
 21 24  1  0  0  0  0
 22 21  1  6  0  0  0
 22 25  1  0  0  0  0
 22  3  1  0  0  0  0
 23 25  1  0  0  0  0
 24 23  1  0  0  0  0
 25 26  1  6  0  0  0
 26 32  1  0  0  0  0
 27 32  2  0  0  0  0
 27 30  1  0  0  0  0
 28 27  1  0  0  0  0
 29 31  1  0  0  0  0
 30 29  2  0  0  0  0
 32 33  1  0  0  0  0
 33 31  2  0  0  0  0
M  END
>  <MODEL>
3

>  <REMARK>
 VINA RESULT:      -7.7      3.592      9.314
  Name = 
  7 active torsions:
  status: ('A' for Active; 'I' for Inactive)
    1  A    between atoms: C_2  and  C_15
    2  A    between atoms: C_3  and  C_14
    3  A    between atoms: C_13  and  C_27
    4  A    between atoms: C_13  and  C_30
    5  A    between atoms: C_16  and  C_21
    6  A    between atoms: C_21  and  O_29
    7  A    between atoms: O_29  and  C_33
                            x       y       z     vdW  Elec       q    Type
                         _______ _______ _______ _____ _____    ______ ____

>  <TORSDO>
F 7

$$$$
=
 OpenBabel11062418573D

 33 37  0  0  1  0  0  0  0  0999 V2000
  192.2130  176.7750  143.4510 C   0  0  0  0  0  2  0  0  0  0  0  0
  191.4170  175.5800  143.9870 C   0  0  2  0  0  3  0  0  0  0  0  0
  192.3300  174.4240  144.4400 C   0  0  1  0  0  3  0  0  0  0  0  0
  193.2100  176.3430  142.4760 N   0  0  0  0  0  0  0  0  0  0  0  0
  193.8430  175.0610  142.5600 C   0  0  0  0  0  3  0  0  0  0  0  0
  193.4400  174.1530  143.4510 C   0  0  0  0  0  2  0  0  0  0  0  0
  190.1320  173.7740  142.7520 C   0  0  0  0  0  3  0  0  0  0  0  0
  189.4750  176.0900  142.5060 C   0  0  0  0  0  3  0  0  0  0  0  0
  189.0960  173.3900  141.8950 C   0  0  0  0  0  3  0  0  0  0  0  0
  190.3270  175.1290  143.0590 C   0  0  0  0  0  0  0  0  0  0  0  0
  188.2510  174.3580  141.3410 C   0  0  0  0  0  3  0  0  0  0  0  0
  188.4350  175.7120  141.6410 C   0  0  0  0  0  0  0  0  0  0  0  0
  187.5710  176.6560  141.0730 O   0  0  0  0  0  0  0  0  0  0  0  0
  187.5460  178.0260  141.4670 C   0  0  0  0  0  2  0  0  0  0  0  0
  185.1040  177.9320  141.8330 N   0  0  0  0  0  0  0  0  0  0  0  0
  186.3330  178.3060  142.2850 C   0  0  0  0  0  0  0  0  0  0  0  0
  185.3180  179.1690  144.2960 C   0  0  0  0  0  3  0  0  0  0  0  0
  183.9790  178.1560  142.5660 C   0  0  0  0  0  3  0  0  0  0  0  0
  186.4610  178.9290  143.5320 C   0  0  0  0  0  3  0  0  0  0  0  0
  184.0650  178.7810  143.8130 C   0  0  0  0  0  3  0  0  0  0  0  0
  194.3440  174.7590  145.7910 N   0  0  0  0  0  2  0  0  0  0  0  0
  192.9000  174.6870  145.8400 C   0  0  1  0  0  3  0  0  0  0  0  0
  193.5870  176.7630  146.7100 O   0  0  0  0  0  0  0  0  0  0  0  0
  194.6420  176.1650  146.0080 C   0  0  0  0  0  2  0  0  0  0  0  0
  192.4470  176.0350  146.3510 C   0  0  2  0  0  3  0  0  0  0  0  0
  191.5430  175.8520  147.5610 C   0  0  0  0  0  2  0  0  0  0  0  0
  189.1610  175.4800  146.7830 C   0  0  0  0  0  0  0  0  0  0  0  0
  189.4890  173.7850  146.4550 Cl  0  0  0  0  0  0  0  0  0  0  0  0
  187.5730  177.3130  146.7920 C   0  0  0  0  0  3  0  0  0  0  0  0
  187.8720  175.9700  146.5480 C   0  0  0  0  0  3  0  0  0  0  0  0
  188.5620  178.1720  147.2750 C   0  0  0  0  0  3  0  0  0  0  0  0
  190.1600  176.3440  147.2700 C   0  0  0  0  0  0  0  0  0  0  0  0
  189.8520  177.6880  147.5150 C   0  0  0  0  0  3  0  0  0  0  0  0
  1  2  1  0  0  0  0
  2 10  1  6  0  0  0
  2  3  1  0  0  0  0
  3  6  1  6  0  0  0
  3 22  1  0  0  0  0
  4  5  2  0  0  0  0
  4  1  1  0  0  0  0
  5  6  1  0  0  0  0
  7 10  1  0  0  0  0
  8 10  2  0  0  0  0
  9  7  2  0  0  0  0
 11 12  2  0  0  0  0
 11  9  1  0  0  0  0
 12  8  1  0  0  0  0
 13 14  1  0  0  0  0
 13 12  1  0  0  0  0
 14 16  1  0  0  0  0
 15 16  2  0  0  0  0
 15 18  1  0  0  0  0
 16 19  1  0  0  0  0
 18 20  2  0  0  0  0
 19 17  2  0  0  0  0
 20 17  1  0  0  0  0
 21 24  1  0  0  0  0
 22 21  1  6  0  0  0
 22 25  1  0  0  0  0
 24 23  1  0  0  0  0
 25 23  1  0  0  0  0
 25 26  1  1  0  0  0
 27 32  1  0  0  0  0
 28 27  1  0  0  0  0
 29 31  2  0  0  0  0
 30 27  2  0  0  0  0
 30 29  1  0  0  0  0
 31 33  1  0  0  0  0
 32 33  2  0  0  0  0
 32 26  1  0  0  0  0
M  END
>  <MODEL>
4

>  <REMARK>
 VINA RESULT:      -7.7      2.397      5.174
  Name = 
  7 active torsions:
  status: ('A' for Active; 'I' for Inactive)
    1  A    between atoms: C_2  and  C_15
    2  A    between atoms: C_3  and  C_14
    3  A    between atoms: C_13  and  C_27
    4  A    between atoms: C_13  and  C_30
    5  A    between atoms: C_16  and  C_21
    6  A    between atoms: C_21  and  O_29
    7  A    between atoms: O_29  and  C_33
                            x       y       z     vdW  Elec       q    Type
                         _______ _______ _______ _____ _____    ______ ____

>  <TORSDO>
F 7

$$$$
=
 OpenBabel11062418573D

 33 37  0  0  1  0  0  0  0  0999 V2000
  188.8290  176.2650  146.6260 C   0  0  0  0  0  2  0  0  0  0  0  0
  187.8050  176.0980  145.4980 C   0  0  2  0  0  3  0  0  0  0  0  0
  188.4530  176.1760  144.1020 C   0  0  1  0  0  3  0  0  0  0  0  0
  189.6760  177.4310  146.3930 N   0  0  0  0  0  2  0  0  0  0  0  0
  190.0130  177.8660  145.0710 C   0  0  0  0  0  3  0  0  0  0  0  0
  189.4470  177.3100  143.9980 C   0  0  0  0  0  3  0  0  0  0  0  0
  186.0910  177.3470  146.8920 C   0  0  0  0  0  3  0  0  0  0  0  0
  186.0300  177.5260  144.4800 C   0  0  0  0  0  3  0  0  0  0  0  0
  184.9910  178.2040  146.9830 C   0  0  0  0  0  3  0  0  0  0  0  0
  186.6150  177.0020  145.6370 C   0  0  0  0  0  0  0  0  0  0  0  0
  184.4080  178.7210  145.8210 C   0  0  0  0  0  3  0  0  0  0  0  0
  184.9210  178.3840  144.5630 C   0  0  0  0  0  0  0  0  0  0  0  0
  184.3180  178.9190  143.4190 O   0  0  0  0  0  0  0  0  0  0  0  0
  184.0020  178.1400  142.2670 C   0  0  0  0  0  2  0  0  0  0  0  0
  181.7490  179.0750  142.6630 N   0  0  0  0  0  0  0  0  0  0  0  0
  182.5940  178.3860  141.8470 C   0  0  0  0  0  0  0  0  0  0  0  0
  180.8330  178.1880  140.2100 C   0  0  0  0  0  3  0  0  0  0  0  0
  180.4630  179.3330  142.3000 C   0  0  0  0  0  3  0  0  0  0  0  0
  182.1500  177.9340  140.6000 C   0  0  0  0  0  3  0  0  0  0  0  0
  179.9800  178.8930  141.0650 C   0  0  0  0  0  3  0  0  0  0  0  0
  188.4990  174.3040  142.5240 N   0  0  0  0  0  2  0  0  0  0  0  0
  189.1080  174.8420  143.7220 C   0  0  1  0  0  3  0  0  0  0  0  0
  190.7840  174.5080  142.1040 O   0  0  0  0  0  0  0  0  0  0  0  0
  189.5190  174.4630  141.5010 C   0  0  0  0  0  2  0  0  0  0  0  0
  190.5640  175.0460  143.3770 C   0  0  2  0  0  3  0  0  0  0  0  0
  191.4410  174.3390  144.4000 C   0  0  0  0  0  2  0  0  0  0  0  0
  192.8690  175.5030  146.1380 C   0  0  0  0  0  0  0  0  0  0  0  0
  191.8370  174.9210  147.4360 Cl  0  0  0  0  0  0  0  0  0  0  0  0
  194.8210  176.7740  145.4630 C   0  0  0  0  0  3  0  0  0  0  0  0
  193.9780  176.2890  146.4670 C   0  0  0  0  0  3  0  0  0  0  0  0
  194.5580  176.4740  144.1260 C   0  0  0  0  0  3  0  0  0  0  0  0
  192.6020  175.1990  144.7900 C   0  0  0  0  0  0  0  0  0  0  0  0
  193.4520  175.6880  143.7900 C   0  0  0  0  0  3  0  0  0  0  0  0
  2 10  1  6  0  0  0
  2  1  1  0  0  0  0
  3  6  1  1  0  0  0
  3  2  1  0  0  0  0
  4  1  1  0  0  0  0
  5  4  1  0  0  0  0
  6  5  2  0  0  0  0
  7  9  1  0  0  0  0
  8 12  2  0  0  0  0
  8 10  1  0  0  0  0
 10  7  2  0  0  0  0
 11  9  2  0  0  0  0
 12 11  1  0  0  0  0
 13 12  1  0  0  0  0
 14 13  1  0  0  0  0
 16 14  1  0  0  0  0
 16 15  2  0  0  0  0
 17 19  2  0  0  0  0
 17 20  1  0  0  0  0
 18 15  1  0  0  0  0
 19 16  1  0  0  0  0
 20 18  2  0  0  0  0
 22 21  1  6  0  0  0
 22  3  1  0  0  0  0
 23 25  1  0  0  0  0
 24 23  1  0  0  0  0
 24 21  1  0  0  0  0
 25 22  1  0  0  0  0
 25 26  1  1  0  0  0
 26 32  1  0  0  0  0
 27 30  1  0  0  0  0
 27 28  1  0  0  0  0
 29 30  2  0  0  0  0
 31 29  1  0  0  0  0
 32 27  2  0  0  0  0
 33 31  2  0  0  0  0
 33 32  1  0  0  0  0
M  END
>  <MODEL>
5

>  <REMARK>
 VINA RESULT:      -7.7      2.284      2.834
  Name = 
  7 active torsions:
  status: ('A' for Active; 'I' for Inactive)
    1  A    between atoms: C_2  and  C_15
    2  A    between atoms: C_3  and  C_14
    3  A    between atoms: C_13  and  C_27
    4  A    between atoms: C_13  and  C_30
    5  A    between atoms: C_16  and  C_21
    6  A    between atoms: C_21  and  O_29
    7  A    between atoms: O_29  and  C_33
                            x       y       z     vdW  Elec       q    Type
                         _______ _______ _______ _____ _____    ______ ____

>  <TORSDO>
F 7

$$$$
=
 OpenBabel11062418573D

 33 37  0  0  1  0  0  0  0  0999 V2000
  187.3130  178.8170  146.3430 C   0  0  0  0  0  2  0  0  0  0  0  0
  187.6050  177.5060  145.6050 C   0  0  2  0  0  3  0  0  0  0  0  0
  186.3180  176.7410  145.2400 C   0  0  1  0  0  3  0  0  0  0  0  0
  186.3790  178.6000  147.4440 N   0  0  0  0  0  2  0  0  0  0  0  0
  185.3670  177.5890  147.3860 C   0  0  0  0  0  3  0  0  0  0  0  0
  185.3300  176.7090  146.3830 C   0  0  0  0  0  3  0  0  0  0  0  0
  188.2430  175.4700  146.9790 C   0  0  0  0  0  3  0  0  0  0  0  0
  189.9620  177.0150  146.2590 C   0  0  0  0  0  3  0  0  0  0  0  0
  189.2140  174.6830  147.6060 C   0  0  0  0  0  3  0  0  0  0  0  0
  188.6140  176.6430  146.3030 C   0  0  0  0  0  0  0  0  0  0  0  0
  190.5600  175.0640  147.5610 C   0  0  0  0  0  3  0  0  0  0  0  0
  190.9420  176.2310  146.8900 C   0  0  0  0  0  0  0  0  0  0  0  0
  192.2960  176.5840  146.8610 O   0  0  0  0  0  0  0  0  0  0  0  0
  193.0840  176.5580  145.6730 C   0  0  0  0  0  2  0  0  0  0  0  0
  195.2700  175.4150  145.8190 N   0  0  0  0  0  0  0  0  0  0  0  0
  193.9240  175.3270  145.6370 C   0  0  0  0  0  0  0  0  0  0  0  0
  194.1190  172.9320  145.4320 C   0  0  0  0  0  3  0  0  0  0  0  0
  196.0620  174.3080  145.8120 C   0  0  0  0  0  3  0  0  0  0  0  0
  193.3220  174.0780  145.4450 C   0  0  0  0  0  3  0  0  0  0  0  0
  195.5000  173.0430  145.6170 C   0  0  0  0  0  3  0  0  0  0  0  0
  184.5140  178.1210  144.3250 N   0  0  0  0  0  2  0  0  0  0  0  0
  185.6700  177.3230  143.9770 C   0  0  1  0  0  3  0  0  0  0  0  0
  185.9620  179.4950  143.1190 O   0  0  0  0  0  0  0  0  0  0  0  0
  184.9340  179.4900  144.0710 C   0  0  0  0  0  2  0  0  0  0  0  0
  186.6200  178.2700  143.2820 C   0  0  2  0  0  3  0  0  0  0  0  0
  187.0130  177.7050  141.9260 C   0  0  0  0  0  2  0  0  0  0  0  0
  189.2350  176.6260  142.4870 C   0  0  0  0  0  0  0  0  0  0  0  0
  189.9670  178.1940  142.7900 Cl  0  0  0  0  0  0  0  0  0  0  0  0
  189.4740  174.2140  142.4150 C   0  0  0  0  0  3  0  0  0  0  0  0
  190.0190  175.4790  142.6500 C   0  0  0  0  0  3  0  0  0  0  0  0
  188.1430  174.0900  142.0160 C   0  0  0  0  0  3  0  0  0  0  0  0
  187.8920  176.5040  142.0850 C   0  0  0  0  0  0  0  0  0  0  0  0
  187.3530  175.2320  141.8520 C   0  0  0  0  0  3  0  0  0  0  0  0
  1  4  1  0  0  0  0
  2 10  1  1  0  0  0
  2  1  1  0  0  0  0
  3  2  1  0  0  0  0
  3  6  1  1  0  0  0
  5  4  1  0  0  0  0
  6  5  2  0  0  0  0
  7  9  1  0  0  0  0
  8 10  1  0  0  0  0
  8 12  2  0  0  0  0
 10  7  2  0  0  0  0
 11  9  2  0  0  0  0
 12 11  1  0  0  0  0
 13 12  1  0  0  0  0
 14 13  1  0  0  0  0
 16 14  1  0  0  0  0
 16 15  2  0  0  0  0
 17 19  2  0  0  0  0
 17 20  1  0  0  0  0
 18 15  1  0  0  0  0
 19 16  1  0  0  0  0
 20 18  2  0  0  0  0
 22 21  1  1  0  0  0
 22  3  1  0  0  0  0
 23 25  1  0  0  0  0
 23 24  1  0  0  0  0
 24 21  1  0  0  0  0
 25 26  1  6  0  0  0
 25 22  1  0  0  0  0
 26 32  1  0  0  0  0
 27 30  1  0  0  0  0
 27 28  1  0  0  0  0
 29 30  2  0  0  0  0
 31 29  1  0  0  0  0
 32 27  2  0  0  0  0
 33 31  2  0  0  0  0
 33 32  1  0  0  0  0
M  END
>  <MODEL>
6

>  <REMARK>
 VINA RESULT:      -7.7      2.396      6.987
  Name = 
  7 active torsions:
  status: ('A' for Active; 'I' for Inactive)
    1  A    between atoms: C_2  and  C_15
    2  A    between atoms: C_3  and  C_14
    3  A    between atoms: C_13  and  C_27
    4  A    between atoms: C_13  and  C_30
    5  A    between atoms: C_16  and  C_21
    6  A    between atoms: C_21  and  O_29
    7  A    between atoms: O_29  and  C_33
                            x       y       z     vdW  Elec       q    Type
                         _______ _______ _______ _____ _____    ______ ____

>  <TORSDO>
F 7

$$$$
=
 OpenBabel11062418573D

 33 37  0  0  1  0  0  0  0  0999 V2000
  187.2250  178.4200  142.3890 C   0  0  0  0  0  2  0  0  0  0  0  0
  185.8230  178.5690  142.9900 C   0  0  2  0  0  3  0  0  0  0  0  0
  185.6440  177.7340  144.2730 C   0  0  1  0  0  3  0  0  0  0  0  0
  187.6000  177.0130  142.2800 N   0  0  0  0  0  0  0  0  0  0  0  0
  187.1290  176.0320  143.2110 C   0  0  0  0  0  3  0  0  0  0  0  0
  186.2130  176.3410  144.1310 C   0  0  0  0  0  2  0  0  0  0  0  0
  184.9890  177.9270  140.6800 C   0  0  0  0  0  3  0  0  0  0  0  0
  183.3990  178.5390  142.4000 C   0  0  0  0  0  3  0  0  0  0  0  0
  183.9370  177.7130  139.7850 C   0  0  0  0  0  3  0  0  0  0  0  0
  184.7230  178.3440  141.9940 C   0  0  0  0  0  0  0  0  0  0  0  0
  182.6150  177.9160  140.1960 C   0  0  0  0  0  3  0  0  0  0  0  0
  182.3380  178.3310  141.5030 C   0  0  0  0  0  0  0  0  0  0  0  0
  181.0050  178.5220  141.8860 O   0  0  0  0  0  0  0  0  0  0  0  0
  179.8970  178.1080  141.0890 C   0  0  0  0  0  2  0  0  0  0  0  0
  178.3780  179.0600  139.3890 N   0  0  0  0  0  0  0  0  0  0  0  0
  179.3750  179.2560  140.2950 C   0  0  0  0  0  0  0  0  0  0  0  0
  179.3800  181.6090  139.7660 C   0  0  0  0  0  3  0  0  0  0  0  0
  177.8650  180.0910  138.6620 C   0  0  0  0  0  3  0  0  0  0  0  0
  179.8910  180.5400  140.5040 C   0  0  0  0  0  3  0  0  0  0  0  0
  178.3590  181.3870  138.8370 C   0  0  0  0  0  3  0  0  0  0  0  0
  185.2130  179.0430  146.2970 N   0  0  0  0  0  2  0  0  0  0  0  0
  186.2540  178.4500  145.4860 C   0  0  1  0  0  3  0  0  0  0  0  0
  186.4260  177.6070  147.6760 O   0  0  0  0  0  0  0  0  0  0  0  0
  185.1790  178.2210  147.4960 C   0  0  0  0  0  2  0  0  0  0  0  0
  186.9540  177.4610  146.3880 C   0  0  2  0  0  3  0  0  0  0  0  0
  188.4490  177.7430  146.4020 C   0  0  0  0  0  2  0  0  0  0  0  0
  190.2160  176.5990  144.9940 C   0  0  0  0  0  0  0  0  0  0  0  0
  190.5820  178.1010  144.1580 Cl  0  0  0  0  0  0  0  0  0  0  0  0
  190.6720  174.2360  145.2900 C   0  0  0  0  0  3  0  0  0  0  0  0
  190.9370  175.4500  144.6510 C   0  0  0  0  0  3  0  0  0  0  0  0
  189.6870  174.1650  146.2760 C   0  0  0  0  0  3  0  0  0  0  0  0
  189.2220  176.5310  145.9880 C   0  0  0  0  0  0  0  0  0  0  0  0
  188.9640  175.3100  146.6250 C   0  0  0  0  0  3  0  0  0  0  0  0
  1  2  1  0  0  0  0
  2 10  1  6  0  0  0
  2  3  1  0  0  0  0
  3  6  1  6  0  0  0
  3 22  1  0  0  0  0
  4  1  1  0  0  0  0
  4  5  2  0  0  0  0
  5  6  1  0  0  0  0
  7 10  1  0  0  0  0
  9 11  1  0  0  0  0
  9  7  2  0  0  0  0
 10  8  2  0  0  0  0
 11 12  2  0  0  0  0
 12 13  1  0  0  0  0
 12  8  1  0  0  0  0
 14 13  1  0  0  0  0
 15 16  1  0  0  0  0
 16 19  2  0  0  0  0
 16 14  1  0  0  0  0
 17 19  1  0  0  0  0
 18 20  1  0  0  0  0
 18 15  2  0  0  0  0
 20 17  2  0  0  0  0
 21 24  1  0  0  0  0
 22 21  1  1  0  0  0
 22 25  1  0  0  0  0
 24 23  1  0  0  0  0
 25 26  1  1  0  0  0
 25 23  1  0  0  0  0
 27 32  1  0  0  0  0
 28 27  1  0  0  0  0
 29 31  2  0  0  0  0
 30 27  2  0  0  0  0
 30 29  1  0  0  0  0
 31 33  1  0  0  0  0
 32 26  1  0  0  0  0
 32 33  2  0  0  0  0
M  END
>  <MODEL>
7

>  <REMARK>
 VINA RESULT:      -7.7      3.935      6.223
  Name = 
  7 active torsions:
  status: ('A' for Active; 'I' for Inactive)
    1  A    between atoms: C_2  and  C_15
    2  A    between atoms: C_3  and  C_14
    3  A    between atoms: C_13  and  C_27
    4  A    between atoms: C_13  and  C_30
    5  A    between atoms: C_16  and  C_21
    6  A    between atoms: C_21  and  O_29
    7  A    between atoms: O_29  and  C_33
                            x       y       z     vdW  Elec       q    Type
                         _______ _______ _______ _____ _____    ______ ____

>  <TORSDO>
F 7

$$$$
=
 OpenBabel11062418573D

 33 37  0  0  1  0  0  0  0  0999 V2000
  186.3610  175.9590  142.6610 C   0  0  0  0  0  2  0  0  0  0  0  0
  187.7330  175.9580  143.3430 C   0  0  2  0  0  3  0  0  0  0  0  0
  188.1940  177.3760  143.7350 C   0  0  1  0  0  3  0  0  0  0  0  0
  186.3100  176.9530  141.5920 N   0  0  0  0  0  0  0  0  0  0  0  0
  187.0590  178.1710  141.6580 C   0  0  0  0  0  3  0  0  0  0  0  0
  187.9480  178.3800  142.6320 C   0  0  0  0  0  2  0  0  0  0  0  0
  188.4510  174.0920  141.7810 C   0  0  0  0  0  3  0  0  0  0  0  0
  190.1070  175.6310  142.6460 C   0  0  0  0  0  3  0  0  0  0  0  0
  189.4490  173.4200  141.0690 C   0  0  0  0  0  3  0  0  0  0  0  0
  188.7770  175.2010  142.5760 C   0  0  0  0  0  0  0  0  0  0  0  0
  190.7770  173.8520  141.1480 C   0  0  0  0  0  3  0  0  0  0  0  0
  191.1150  174.9570  141.9370 C   0  0  0  0  0  0  0  0  0  0  0  0
  192.4520  175.3680  141.9930 O   0  0  0  0  0  0  0  0  0  0  0  0
  193.5360  174.4660  142.2030 C   0  0  0  0  0  2  0  0  0  0  0  0
  194.6210  173.6600  144.2720 N   0  0  0  0  0  0  0  0  0  0  0  0
  194.1580  174.7070  143.5360 C   0  0  0  0  0  0  0  0  0  0  0  0
  194.8920  176.2280  145.2580 C   0  0  0  0  0  3  0  0  0  0  0  0
  195.2120  173.8480  145.4840 C   0  0  0  0  0  3  0  0  0  0  0  0
  194.2910  176.0150  144.0160 C   0  0  0  0  0  3  0  0  0  0  0  0
  195.3580  175.1390  146.0010 C   0  0  0  0  0  3  0  0  0  0  0  0
  186.4210  178.7170  144.7630 N   0  0  0  0  0  2  0  0  0  0  0  0
  187.5300  177.8300  145.0420 C   0  0  1  0  0  3  0  0  0  0  0  0
  185.5810  176.9370  146.0130 O   0  0  0  0  0  0  0  0  0  0  0  0
  185.2420  177.9290  145.0840 C   0  0  0  0  0  2  0  0  0  0  0  0
  186.9290  176.6490  145.7680 C   0  0  2  0  0  3  0  0  0  0  0  0
  187.6610  176.4240  147.0820 C   0  0  0  0  0  2  0  0  0  0  0  0
  190.1730  176.7040  147.2490 C   0  0  0  0  0  0  0  0  0  0  0  0
  189.9890  178.2620  148.0410 Cl  0  0  0  0  0  0  0  0  0  0  0  0
  191.6530  174.9820  146.3960 C   0  0  0  0  0  3  0  0  0  0  0  0
  191.4650  176.2150  147.0260 C   0  0  0  0  0  3  0  0  0  0  0  0
  190.5490  174.2320  145.9860 C   0  0  0  0  0  3  0  0  0  0  0  0
  189.0590  175.9490  146.8370 C   0  0  0  0  0  0  0  0  0  0  0  0
  189.2550  174.7130  146.2070 C   0  0  0  0  0  3  0  0  0  0  0  0
  1  2  1  0  0  0  0
  2 10  1  6  0  0  0
  2  3  1  0  0  0  0
  3  6  1  6  0  0  0
  3 22  1  0  0  0  0
  4  5  2  0  0  0  0
  4  1  1  0  0  0  0
  5  6  1  0  0  0  0
  7 10  1  0  0  0  0
  9 11  1  0  0  0  0
  9  7  2  0  0  0  0
 10  8  2  0  0  0  0
 11 12  2  0  0  0  0
 12 13  1  0  0  0  0
 12  8  1  0  0  0  0
 13 14  1  0  0  0  0
 14 16  1  0  0  0  0
 15 18  1  0  0  0  0
 16 19  1  0  0  0  0
 16 15  2  0  0  0  0
 17 20  1  0  0  0  0
 18 20  2  0  0  0  0
 19 17  2  0  0  0  0
 21 24  1  0  0  0  0
 22 21  1  6  0  0  0
 22 25  1  0  0  0  0
 24 23  1  0  0  0  0
 25 23  1  0  0  0  0
 25 26  1  1  0  0  0
 27 28  1  0  0  0  0
 29 30  2  0  0  0  0
 30 27  1  0  0  0  0
 31 33  2  0  0  0  0
 31 29  1  0  0  0  0
 32 26  1  0  0  0  0
 32 27  2  0  0  0  0
 33 32  1  0  0  0  0
M  END
>  <MODEL>
8

>  <REMARK>
 VINA RESULT:      -7.6      2.457      6.967
  Name = 
  7 active torsions:
  status: ('A' for Active; 'I' for Inactive)
    1  A    between atoms: C_2  and  C_15
    2  A    between atoms: C_3  and  C_14
    3  A    between atoms: C_13  and  C_27
    4  A    between atoms: C_13  and  C_30
    5  A    between atoms: C_16  and  C_21
    6  A    between atoms: C_21  and  O_29
    7  A    between atoms: O_29  and  C_33
                            x       y       z     vdW  Elec       q    Type
                         _______ _______ _______ _____ _____    ______ ____

>  <TORSDO>
F 7

$$$$
=
 OpenBabel11062418573D

 33 37  0  0  1  0  0  0  0  0999 V2000
  193.0970  173.3300  142.1010 C   0  0  0  0  0  2  0  0  0  0  0  0
  191.9480  173.9180  142.9270 C   0  0  2  0  0  3  0  0  0  0  0  0
  191.7230  173.1520  144.2450 C   0  0  1  0  0  3  0  0  0  0  0  0
  192.9580  171.8830  141.9690 N   0  0  0  0  0  0  0  0  0  0  0  0
  192.3540  171.0860  142.9940 C   0  0  0  0  0  3  0  0  0  0  0  0
  191.7630  171.6540  144.0480 C   0  0  0  0  0  2  0  0  0  0  0  0
  190.5810  173.6960  140.8010 C   0  0  0  0  0  3  0  0  0  0  0  0
  189.5770  174.6780  142.7720 C   0  0  0  0  0  3  0  0  0  0  0  0
  189.3820  173.8710  140.1040 C   0  0  0  0  0  3  0  0  0  0  0  0
  190.6840  174.1020  142.1400 C   0  0  0  0  0  0  0  0  0  0  0  0
  188.2800  174.4520  140.7410 C   0  0  0  0  0  3  0  0  0  0  0  0
  188.3700  174.8610  142.0760 C   0  0  0  0  0  0  0  0  0  0  0  0
  187.2500  175.4370  142.6860 O   0  0  0  0  0  0  0  0  0  0  0  0
  186.6130  176.6130  142.1950 C   0  0  0  0  0  2  0  0  0  0  0  0
  185.8700  176.8910  144.5350 N   0  0  0  0  0  0  0  0  0  0  0  0
  186.1430  177.4590  143.3280 C   0  0  0  0  0  0  0  0  0  0  0  0
  185.5870  179.6240  144.2340 C   0  0  0  0  0  3  0  0  0  0  0  0
  185.4580  177.6380  145.5960 C   0  0  0  0  0  3  0  0  0  0  0  0
  186.0100  178.8410  143.1580 C   0  0  0  0  0  3  0  0  0  0  0  0
  185.3080  179.0210  145.4640 C   0  0  0  0  0  3  0  0  0  0  0  0
  193.7630  172.5830  145.4760 N   0  0  0  0  0  2  0  0  0  0  0  0
  192.7320  173.5870  145.3160 C   0  0  1  0  0  3  0  0  0  0  0  0
  194.8310  174.5870  144.9460 O   0  0  0  0  0  0  0  0  0  0  0  0
  194.9490  173.1910  144.8970 C   0  0  0  0  0  2  0  0  0  0  0  0
  193.4560  174.8410  144.8830 C   0  0  2  0  0  3  0  0  0  0  0  0
  193.0950  175.9910  145.8110 C   0  0  0  0  0  2  0  0  0  0  0  0
  190.6310  176.4590  146.1660 C   0  0  0  0  0  0  0  0  0  0  0  0
  190.6140  175.4820  147.6270 Cl  0  0  0  0  0  0  0  0  0  0  0  0
  189.4170  177.8640  144.6060 C   0  0  0  0  0  3  0  0  0  0  0  0
  189.4460  177.0830  145.7640 C   0  0  0  0  0  3  0  0  0  0  0  0
  190.5760  178.0260  143.8450 C   0  0  0  0  0  3  0  0  0  0  0  0
  191.8010  176.6200  145.4000 C   0  0  0  0  0  0  0  0  0  0  0  0
  191.7650  177.4060  144.2410 C   0  0  0  0  0  3  0  0  0  0  0  0
  1  2  1  0  0  0  0
  2 10  1  6  0  0  0
  2  3  1  0  0  0  0
  3  6  1  6  0  0  0
  3 22  1  0  0  0  0
  4  1  1  0  0  0  0
  4  5  2  0  0  0  0
  5  6  1  0  0  0  0
  7 10  1  0  0  0  0
  9 11  1  0  0  0  0
  9  7  2  0  0  0  0
 10  8  2  0  0  0  0
 11 12  2  0  0  0  0
 12 13  1  0  0  0  0
 12  8  1  0  0  0  0
 14 13  1  0  0  0  0
 14 16  1  0  0  0  0
 15 18  1  0  0  0  0
 16 15  2  0  0  0  0
 17 20  1  0  0  0  0
 19 16  1  0  0  0  0
 19 17  2  0  0  0  0
 20 18  2  0  0  0  0
 22 21  1  6  0  0  0
 24 23  1  0  0  0  0
 24 21  1  0  0  0  0
 25 23  1  0  0  0  0
 25 22  1  0  0  0  0
 25 26  1  1  0  0  0
 27 28  1  0  0  0  0
 29 30  2  0  0  0  0
 30 27  1  0  0  0  0
 31 33  2  0  0  0  0
 31 29  1  0  0  0  0
 32 26  1  0  0  0  0
 32 27  2  0  0  0  0
 33 32  1  0  0  0  0
M  END
>  <MODEL>
9

>  <REMARK>
 VINA RESULT:      -7.6      2.527      5.498
  Name = 
  7 active torsions:
  status: ('A' for Active; 'I' for Inactive)
    1  A    between atoms: C_2  and  C_15
    2  A    between atoms: C_3  and  C_14
    3  A    between atoms: C_13  and  C_27
    4  A    between atoms: C_13  and  C_30
    5  A    between atoms: C_16  and  C_21
    6  A    between atoms: C_21  and  O_29
    7  A    between atoms: O_29  and  C_33
                            x       y       z     vdW  Elec       q    Type
                         _______ _______ _______ _____ _____    ______ ____

>  <TORSDO>
F 7

$$$$
