=
 OpenBabel11072409403D

 25 26  0  0  1  0  0  0  0  0999 V2000
  185.6270  179.6020  144.6540 C   0  0  0  0  0  2  0  0  0  0  0  0
  187.9120  177.0730  146.3170 C   0  0  0  0  0  0  0  0  0  0  0  0
  189.9420  176.6220  144.8620 C   0  0  1  0  0  3  0  0  0  0  0  0
  189.1780  175.7030  143.9690 C   0  0  0  0  0  3  0  0  0  0  0  0
  188.1720  175.2120  141.7950 C   0  0  0  0  0  0  0  0  0  0  0  0
  189.3500  176.6330  146.2800 C   0  0  1  0  0  3  0  0  0  0  0  0
  185.2450  177.9190  146.4960 C   0  0  0  0  0  3  0  0  0  0  0  0
  185.7140  176.9000  147.3280 C   0  0  0  0  0  3  0  0  0  0  0  0
  186.1050  178.5160  145.5650 C   0  0  0  0  0  0  0  0  0  0  0  0
  187.8480  174.0390  142.1180 O   0  0  0  0  0  0  0  0  0  0  0  0
  185.8910  176.9630  141.7610 N   0  0  0  0  0  2  0  0  0  0  0  0
  187.0440  176.4770  147.2380 C   0  0  0  0  0  3  0  0  0  0  0  0
  184.3700  179.2190  143.8680 C   0  0  0  0  0  2  0  0  0  0  0  0
  187.4390  178.1060  145.4930 C   0  0  0  0  0  3  0  0  0  0  0  0
  185.0470  178.1100  142.0520 C   0  0  0  0  0  2  0  0  0  0  0  0
  187.7220  175.7630  140.4790 C   0  0  0  0  0  2  0  0  0  0  0  0
  188.9430  176.0580  142.7130 C   0  0  0  0  0  3  0  0  0  0  0  0
  186.8010  176.9310  140.6600 C   0  0  0  0  0  0  0  0  0  0  0  0
  186.8260  177.8720  139.8240 O   0  0  0  0  0  0  0  0  0  0  0  0
  184.4750  177.9370  143.3140 O   0  0  0  0  0  0  0  0  0  0  0  0
  190.1360  177.4960  147.1480 N   0  0  0  0  0  2  0  0  0  0  0  0
  190.8410  176.6880  147.9740 O   0  0  0  0  0  1  0  0  0  0  0  0
  191.2820  176.2210  144.8960 O   0  0  0  0  0  0  0  0  0  0  0  0
  191.9730  177.2170  144.2040 C   0  0  0  0  0  2  0  0  0  0  0  0
  192.4950  176.6870  143.0250 O   0  0  0  0  0  1  0  0  0  0  0  0
  1  9  1  0  0  0  0
  2 12  1  0  0  0  0
  3 23  1  1  0  0  0
  3  6  1  0  0  0  0
  4  3  1  0  0  0  0
  5 10  2  0  0  0  0
  5 17  1  0  0  0  0
  6  2  1  0  0  0  0
  6 21  1  1  0  0  0
  7  8  1  0  0  0  0
  9  7  2  0  0  0  0
 11 15  1  0  0  0  0
 12  8  2  0  0  0  0
 13  1  1  0  0  0  0
 14  9  1  0  0  0  0
 14  2  2  0  0  0  0
 15 20  1  0  0  0  0
 16 18  1  0  0  0  0
 16  5  1  0  0  0  0
 17  4  2  0  0  0  0
 18 11  1  0  0  0  0
 19 18  2  0  0  0  0
 20 13  1  0  0  0  0
 21 22  1  0  0  0  0
 24 23  1  0  0  0  0
 25 24  1  0  0  0  0
M  END
>  <MODEL>
1

>  <REMARK>
 VINA RESULT:      -7.4      0.000      0.000
  Name = 
  3 active torsions:
  status: ('A' for Active; 'I' for Inactive)
    1  A    between atoms: N_2  and  C_8
    2  A    between atoms: C_5  and  O_22
    3  A    between atoms: C_12  and  O_22
                            x       y       z     vdW  Elec       q    Type
                         _______ _______ _______ _____ _____    ______ ____

>  <TORSDO>
F 3

$$$$
=
 OpenBabel11072409403D

 25 26  0  0  1  0  0  0  0  0999 V2000
  189.9330  173.3620  145.6270 C   0  0  0  0  0  2  0  0  0  0  0  0
  188.3570  176.7150  146.4420 C   0  0  0  0  0  0  0  0  0  0  0  0
  186.2070  177.0260  145.1300 C   0  0  1  0  0  3  0  0  0  0  0  0
  186.9430  177.4020  143.8890 C   0  0  0  0  0  3  0  0  0  0  0  0
  187.6390  176.8930  141.6010 C   0  0  0  0  0  0  0  0  0  0  0  0
  187.0160  177.3920  146.3850 C   0  0  1  0  0  3  0  0  0  0  0  0
  190.8600  175.4700  146.6600 C   0  0  0  0  0  3  0  0  0  0  0  0
  190.6930  176.7880  147.0940 C   0  0  0  0  0  3  0  0  0  0  0  0
  189.7790  174.7710  146.1090 C   0  0  0  0  0  0  0  0  0  0  0  0
  188.1850  178.0150  141.4300 O   0  0  0  0  0  0  0  0  0  0  0  0
  189.5950  174.8220  141.9990 N   0  0  0  0  0  2  0  0  0  0  0  0
  189.4440  177.4090  146.9840 C   0  0  0  0  0  3  0  0  0  0  0  0
  191.0870  173.1880  144.6350 C   0  0  0  0  0  2  0  0  0  0  0  0
  188.5280  175.3870  146.0210 C   0  0  0  0  0  3  0  0  0  0  0  0
  190.2940  173.7050  142.6120 C   0  0  0  0  0  2  0  0  0  0  0  0
  187.7790  175.8390  140.5490 C   0  0  0  0  0  2  0  0  0  0  0  0
  186.9120  176.5920  142.8390 C   0  0  0  0  0  3  0  0  0  0  0  0
  188.5310  174.6490  141.0610 C   0  0  0  0  0  0  0  0  0  0  0  0
  188.2290  173.5000  140.6430 O   0  0  0  0  0  0  0  0  0  0  0  0
  191.0850  174.1900  143.6560 O   0  0  0  0  0  0  0  0  0  0  0  0
  186.2620  177.0610  147.5850 N   0  0  0  0  0  2  0  0  0  0  0  0
  186.1250  178.2070  148.2920 O   0  0  0  0  0  1  0  0  0  0  0  0
  184.9660  177.6720  145.1440 O   0  0  0  0  0  0  0  0  0  0  0  0
  185.2620  179.0230  144.9470 C   0  0  0  0  0  2  0  0  0  0  0  0
  184.2680  179.6070  144.1630 O   0  0  0  0  0  1  0  0  0  0  0  0
  1  9  1  0  0  0  0
  2 12  1  0  0  0  0
  3 23  1  1  0  0  0
  3  6  1  0  0  0  0
  4  3  1  0  0  0  0
  5 17  1  0  0  0  0
  6  2  1  0  0  0  0
  6 21  1  1  0  0  0
  7  8  1  0  0  0  0
  9  7  2  0  0  0  0
 10  5  2  0  0  0  0
 11 15  1  0  0  0  0
 12  8  2  0  0  0  0
 13  1  1  0  0  0  0
 14  9  1  0  0  0  0
 14  2  2  0  0  0  0
 15 20  1  0  0  0  0
 16 18  1  0  0  0  0
 16  5  1  0  0  0  0
 17  4  2  0  0  0  0
 18 11  1  0  0  0  0
 19 18  2  0  0  0  0
 20 13  1  0  0  0  0
 21 22  1  0  0  0  0
 24 23  1  0  0  0  0
 25 24  1  0  0  0  0
M  END
>  <MODEL>
2

>  <REMARK>
 VINA RESULT:      -7.1      2.303      5.141
  Name = 
  3 active torsions:
  status: ('A' for Active; 'I' for Inactive)
    1  A    between atoms: N_2  and  C_8
    2  A    between atoms: C_5  and  O_22
    3  A    between atoms: C_12  and  O_22
                            x       y       z     vdW  Elec       q    Type
                         _______ _______ _______ _____ _____    ______ ____

>  <TORSDO>
F 3

$$$$
=
 OpenBabel11072409403D

 25 26  0  0  1  0  0  0  0  0999 V2000
  187.1550  177.8000  146.9610 C   0  0  0  0  0  2  0  0  0  0  0  0
  190.2140  175.9450  145.7000 C   0  0  0  0  0  0  0  0  0  0  0  0
  191.0340  176.9630  143.5250 C   0  0  1  0  0  3  0  0  0  0  0  0
  189.9840  176.2650  142.7270 C   0  0  0  0  0  3  0  0  0  0  0  0
  187.9470  176.3410  141.3770 C   0  0  0  0  0  0  0  0  0  0  0  0
  191.3900  176.1660  144.7890 C   0  0  1  0  0  3  0  0  0  0  0  0
  188.0940  175.5170  147.4840 C   0  0  0  0  0  3  0  0  0  0  0  0
  189.0580  174.5240  147.2910 C   0  0  0  0  0  3  0  0  0  0  0  0
  188.1800  176.7250  146.7810 C   0  0  0  0  0  0  0  0  0  0  0  0
  187.9900  175.1140  141.0950 O   0  0  0  0  0  0  0  0  0  0  0  0
  185.9240  176.8970  143.3440 N   0  0  0  0  0  2  0  0  0  0  0  0
  190.1150  174.7380  146.4000 C   0  0  0  0  0  3  0  0  0  0  0  0
  185.7200  177.3050  146.7560 C   0  0  0  0  0  2  0  0  0  0  0  0
  189.2490  176.9430  145.9090 C   0  0  0  0  0  3  0  0  0  0  0  0
  185.3060  177.3920  144.5630 C   0  0  0  0  0  2  0  0  0  0  0  0
  186.7590  177.1490  140.9630 C   0  0  0  0  0  2  0  0  0  0  0  0
  189.0240  176.9720  142.1490 C   0  0  0  0  0  3  0  0  0  0  0  0
  186.0120  177.6760  142.1500 C   0  0  0  0  0  0  0  0  0  0  0  0
  185.4500  178.8000  142.0760 O   0  0  0  0  0  0  0  0  0  0  0  0
  185.6050  176.5130  145.6060 O   0  0  0  0  0  0  0  0  0  0  0  0
  192.4480  176.8380  145.5280 N   0  0  0  0  0  2  0  0  0  0  0  0
  193.3950  175.9080  145.7940 O   0  0  0  0  0  1  0  0  0  0  0  0
  192.1690  177.1480  142.7290 O   0  0  0  0  0  0  0  0  0  0  0  0
  192.5440  175.8630  142.3330 C   0  0  0  0  0  2  0  0  0  0  0  0
  193.9330  175.7930  142.2360 O   0  0  0  0  0  1  0  0  0  0  0  0
  2 14  2  0  0  0  0
  2 12  1  0  0  0  0
  3 23  1  6  0  0  0
  3  6  1  0  0  0  0
  4  3  1  0  0  0  0
  5 17  1  0  0  0  0
  6 21  1  1  0  0  0
  6  2  1  0  0  0  0
  8  7  1  0  0  0  0
  9  1  1  0  0  0  0
  9  7  2  0  0  0  0
 10  5  2  0  0  0  0
 11 15  1  0  0  0  0
 12  8  2  0  0  0  0
 13  1  1  0  0  0  0
 14  9  1  0  0  0  0
 15 20  1  0  0  0  0
 16  5  1  0  0  0  0
 16 18  1  0  0  0  0
 17  4  2  0  0  0  0
 18 11  1  0  0  0  0
 19 18  2  0  0  0  0
 20 13  1  0  0  0  0
 21 22  1  0  0  0  0
 24 23  1  0  0  0  0
 25 24  1  0  0  0  0
M  END
>  <MODEL>
3

>  <REMARK>
 VINA RESULT:      -7.1      1.678      2.649
  Name = 
  3 active torsions:
  status: ('A' for Active; 'I' for Inactive)
    1  A    between atoms: N_2  and  C_8
    2  A    between atoms: C_5  and  O_22
    3  A    between atoms: C_12  and  O_22
                            x       y       z     vdW  Elec       q    Type
                         _______ _______ _______ _____ _____    ______ ____

>  <TORSDO>
F 3

$$$$
=
 OpenBabel11072409403D

 25 26  0  0  1  0  0  0  0  0999 V2000
  190.6900  177.3760  144.5370 C   0  0  0  0  0  2  0  0  0  0  0  0
  187.6970  176.5800  142.3480 C   0  0  0  0  0  0  0  0  0  0  0  0
  185.8750  178.3170  142.6730 C   0  0  1  0  0  3  0  0  0  0  0  0
  185.4140  177.6900  143.9450 C   0  0  0  0  0  3  0  0  0  0  0  0
  185.1770  177.7600  146.3780 C   0  0  0  0  0  0  0  0  0  0  0  0
  186.5090  177.2730  141.7400 C   0  0  1  0  0  3  0  0  0  0  0  0
  189.9470  175.2620  143.3780 C   0  0  0  0  0  3  0  0  0  0  0  0
  189.0350  174.5700  142.5770 C   0  0  0  0  0  3  0  0  0  0  0  0
  189.7350  176.6140  143.6740 C   0  0  0  0  0  0  0  0  0  0  0  0
  184.5020  176.6980  146.4250 O   0  0  0  0  0  0  0  0  0  0  0  0
  187.8760  177.3310  147.2740 N   0  0  0  0  0  2  0  0  0  0  0  0
  187.9120  175.2280  142.0640 C   0  0  0  0  0  3  0  0  0  0  0  0
  190.9590  176.6960  145.8830 C   0  0  0  0  0  2  0  0  0  0  0  0
  188.6240  177.2740  143.1420 C   0  0  0  0  0  3  0  0  0  0  0  0
  189.3290  177.3280  147.2720 C   0  0  0  0  0  2  0  0  0  0  0  0
  185.6120  178.4110  147.6520 C   0  0  0  0  0  2  0  0  0  0  0  0
  185.5810  178.3360  145.0910 C   0  0  0  0  0  3  0  0  0  0  0  0
  187.1050  178.4220  147.7810 C   0  0  0  0  0  0  0  0  0  0  0  0
  187.6680  179.3910  148.3550 O   0  0  0  0  0  0  0  0  0  0  0  0
  189.7750  176.2600  146.4900 O   0  0  0  0  0  0  0  0  0  0  0  0
  186.9080  177.8940  140.4860 N   0  0  0  0  0  2  0  0  0  0  0  0
  186.2420  177.2510  139.4980 O   0  0  0  0  0  1  0  0  0  0  0  0
  184.7880  178.9360  142.0450 O   0  0  0  0  0  0  0  0  0  0  0  0
  183.7520  178.0030  142.1180 C   0  0  0  0  0  2  0  0  0  0  0  0
  183.0390  178.0050  140.9200 O   0  0  0  0  0  1  0  0  0  0  0  0
  1 13  1  0  0  0  0
  2 14  1  0  0  0  0
  3 23  1  6  0  0  0
  3  4  1  0  0  0  0
  4 17  2  0  0  0  0
  5 10  2  0  0  0  0
  5 16  1  0  0  0  0
  6 21  1  6  0  0  0
  6  2  1  0  0  0  0
  6  3  1  0  0  0  0
  7  9  1  0  0  0  0
  8  7  2  0  0  0  0
  9  1  1  0  0  0  0
 11 18  1  0  0  0  0
 12  2  2  0  0  0  0
 12  8  1  0  0  0  0
 13 20  1  0  0  0  0
 14  9  2  0  0  0  0
 15 11  1  0  0  0  0
 16 18  1  0  0  0  0
 17  5  1  0  0  0  0
 18 19  2  0  0  0  0
 20 15  1  0  0  0  0
 22 21  1  0  0  0  0
 23 24  1  0  0  0  0
 25 24  1  0  0  0  0
M  END
>  <MODEL>
4

>  <REMARK>
 VINA RESULT:      -6.7      1.910      6.602
  Name = 
  3 active torsions:
  status: ('A' for Active; 'I' for Inactive)
    1  A    between atoms: N_2  and  C_8
    2  A    between atoms: C_5  and  O_22
    3  A    between atoms: C_12  and  O_22
                            x       y       z     vdW  Elec       q    Type
                         _______ _______ _______ _____ _____    ______ ____

>  <TORSDO>
F 3

$$$$
=
 OpenBabel11072409403D

 25 26  0  0  1  0  0  0  0  0999 V2000
  185.4630  176.7730  146.4200 C   0  0  0  0  0  2  0  0  0  0  0  0
  185.8470  178.4340  143.0320 C   0  0  0  0  0  0  0  0  0  0  0  0
  187.2180  176.9700  141.4770 C   0  0  1  0  0  3  0  0  0  0  0  0
  188.5030  177.3990  142.1010 C   0  0  0  0  0  3  0  0  0  0  0  0
  190.4760  176.8920  143.4540 C   0  0  0  0  0  0  0  0  0  0  0  0
  186.1480  178.0650  141.6050 C   0  0  1  0  0  3  0  0  0  0  0  0
  185.1850  179.1620  145.6570 C   0  0  0  0  0  3  0  0  0  0  0  0
  185.2230  180.1300  144.6500 C   0  0  0  0  0  3  0  0  0  0  0  0
  185.4850  177.8270  145.3580 C   0  0  0  0  0  0  0  0  0  0  0  0
  191.0060  178.0150  143.2500 O   0  0  0  0  0  0  0  0  0  0  0  0
  189.3760  176.7150  146.1060 N   0  0  0  0  0  2  0  0  0  0  0  0
  185.5540  179.7660  143.3410 C   0  0  0  0  0  3  0  0  0  0  0  0
  186.3220  177.1260  147.6380 C   0  0  0  0  0  2  0  0  0  0  0  0
  185.7940  177.4640  144.0450 C   0  0  0  0  0  3  0  0  0  0  0  0
  188.4120  176.4940  147.1700 C   0  0  0  0  0  2  0  0  0  0  0  0
  191.1100  175.9450  144.4220 C   0  0  0  0  0  2  0  0  0  0  0  0
  189.2190  176.5230  142.7920 C   0  0  0  0  0  3  0  0  0  0  0  0
  190.2170  175.6790  145.5950 C   0  0  0  0  0  0  0  0  0  0  0  0
  190.2280  174.5410  146.1350 O   0  0  0  0  0  0  0  0  0  0  0  0
  187.5810  177.6120  147.2620 O   0  0  0  0  0  0  0  0  0  0  0  0
  184.9180  177.6480  140.9490 N   0  0  0  0  0  2  0  0  0  0  0  0
  184.5370  178.6660  140.1420 O   0  0  0  0  0  1  0  0  0  0  0  0
  187.4410  176.6610  140.1310 O   0  0  0  0  0  0  0  0  0  0  0  0
  187.7690  175.3040  140.1220 C   0  0  0  0  0  2  0  0  0  0  0  0
  187.8180  174.8450  138.8070 O   0  0  0  0  0  1  0  0  0  0  0  0
  1 13  1  0  0  0  0
  2 12  2  0  0  0  0
  2 14  1  0  0  0  0
  3 23  1  6  0  0  0
  3  6  1  0  0  0  0
  3  4  1  0  0  0  0
  4 17  2  0  0  0  0
  5 16  1  0  0  0  0
  6 21  1  1  0  0  0
  6  2  1  0  0  0  0
  8  7  2  0  0  0  0
  9  7  1  0  0  0  0
  9  1  1  0  0  0  0
 10  5  2  0  0  0  0
 11 15  1  0  0  0  0
 12  8  1  0  0  0  0
 14  9  2  0  0  0  0
 15 20  1  0  0  0  0
 16 18  1  0  0  0  0
 17  5  1  0  0  0  0
 18 11  1  0  0  0  0
 18 19  2  0  0  0  0
 20 13  1  0  0  0  0
 22 21  1  0  0  0  0
 24 23  1  0  0  0  0
 25 24  1  0  0  0  0
M  END
>  <MODEL>
5

>  <REMARK>
 VINA RESULT:      -6.7      1.683      5.352
  Name = 
  3 active torsions:
  status: ('A' for Active; 'I' for Inactive)
    1  A    between atoms: N_2  and  C_8
    2  A    between atoms: C_5  and  O_22
    3  A    between atoms: C_12  and  O_22
                            x       y       z     vdW  Elec       q    Type
                         _______ _______ _______ _____ _____    ______ ____

>  <TORSDO>
F 3

$$$$
=
 OpenBabel11072409403D

 25 26  0  0  1  0  0  0  0  0999 V2000
  187.9630  178.0090  142.7600 C   0  0  0  0  0  2  0  0  0  0  0  0
  188.8820  176.7740  146.2260 C   0  0  0  0  0  0  0  0  0  0  0  0
  191.0680  175.4860  146.1570 C   0  0  1  0  0  3  0  0  0  0  0  0
  190.4020  174.2580  145.6340 C   0  0  0  0  0  3  0  0  0  0  0  0
  190.0210  172.6640  143.8190 C   0  0  0  0  0  0  0  0  0  0  0  0
  190.0930  176.3280  146.9970 C   0  0  1  0  0  3  0  0  0  0  0  0
  186.6080  177.6890  144.8650 C   0  0  0  0  0  3  0  0  0  0  0  0
  186.5140  177.3030  146.2040 C   0  0  0  0  0  3  0  0  0  0  0  0
  187.8370  177.6120  144.1970 C   0  0  0  0  0  0  0  0  0  0  0  0
  189.3180  171.8980  144.5290 O   0  0  0  0  0  0  0  0  0  0  0  0
  188.4020  174.1850  141.9920 N   0  0  0  0  0  2  0  0  0  0  0  0
  187.6490  176.8460  146.8830 C   0  0  0  0  0  3  0  0  0  0  0  0
  186.9530  177.3030  141.8490 C   0  0  0  0  0  2  0  0  0  0  0  0
  188.9720  177.1760  144.8840 C   0  0  0  0  0  3  0  0  0  0  0  0
  187.8410  175.3300  141.2960 C   0  0  0  0  0  2  0  0  0  0  0  0
  190.1570  172.3900  142.3550 C   0  0  0  0  0  2  0  0  0  0  0  0
  190.6660  173.8470  144.4010 C   0  0  0  0  0  3  0  0  0  0  0  0
  189.5650  173.4930  141.5330 C   0  0  0  0  0  0  0  0  0  0  0  0
  190.0910  173.7900  140.4280 O   0  0  0  0  0  0  0  0  0  0  0  0
  186.8850  175.9300  142.1180 O   0  0  0  0  0  0  0  0  0  0  0  0
  190.7730  177.4950  147.5380 N   0  0  0  0  0  2  0  0  0  0  0  0
  191.1830  177.1690  148.7860 O   0  0  0  0  0  1  0  0  0  0  0  0
  192.1780  175.1170  146.9230 O   0  0  0  0  0  0  0  0  0  0  0  0
  193.2840  175.5100  146.1670 C   0  0  0  0  0  2  0  0  0  0  0  0
  193.9880  176.4990  146.8520 O   0  0  0  0  0  1  0  0  0  0  0  0
  1  9  1  0  0  0  0
  2 12  1  0  0  0  0
  2  6  1  0  0  0  0
  3 23  1  1  0  0  0
  3  6  1  0  0  0  0
  4  3  1  0  0  0  0
  5 17  1  0  0  0  0
  5 10  2  0  0  0  0
  6 21  1  6  0  0  0
  7  8  1  0  0  0  0
  8 12  2  0  0  0  0
  9  7  2  0  0  0  0
  9 14  1  0  0  0  0
 13 20  1  0  0  0  0
 13  1  1  0  0  0  0
 14  2  2  0  0  0  0
 15 11  1  0  0  0  0
 15 20  1  0  0  0  0
 16  5  1  0  0  0  0
 17  4  2  0  0  0  0
 18 11  1  0  0  0  0
 18 16  1  0  0  0  0
 19 18  2  0  0  0  0
 21 22  1  0  0  0  0
 24 25  1  0  0  0  0
 24 23  1  0  0  0  0
M  END
>  <MODEL>
6

>  <REMARK>
 VINA RESULT:      -6.5      2.231      3.072
  Name = 
  3 active torsions:
  status: ('A' for Active; 'I' for Inactive)
    1  A    between atoms: N_2  and  C_8
    2  A    between atoms: C_5  and  O_22
    3  A    between atoms: C_12  and  O_22
                            x       y       z     vdW  Elec       q    Type
                         _______ _______ _______ _____ _____    ______ ____

>  <TORSDO>
F 3

$$$$
=
 OpenBabel11072409403D

 25 26  0  0  1  0  0  0  0  0999 V2000
  192.0460  174.9520  141.8790 C   0  0  0  0  0  2  0  0  0  0  0  0
  188.3430  175.3670  142.5870 C   0  0  0  0  0  0  0  0  0  0  0  0
  187.9770  177.1040  144.4020 C   0  0  1  0  0  3  0  0  0  0  0  0
  188.3210  176.1380  145.4850 C   0  0  0  0  0  3  0  0  0  0  0  0
  189.8360  175.3860  147.2510 C   0  0  0  0  0  0  0  0  0  0  0  0
  187.3990  176.3770  143.1770 C   0  0  1  0  0  3  0  0  0  0  0  0
  190.0480  173.4910  141.3900 C   0  0  0  0  0  3  0  0  0  0  0  0
  188.6730  173.2470  141.4560 C   0  0  0  0  0  3  0  0  0  0  0  0
  190.5770  174.6700  141.9280 C   0  0  0  0  0  0  0  0  0  0  0  0
  189.0610  174.4720  147.6390 O   0  0  0  0  0  0  0  0  0  0  0  0
  192.0500  174.3230  145.7540 N   0  0  0  0  0  2  0  0  0  0  0  0
  187.8240  174.1830  142.0540 C   0  0  0  0  0  3  0  0  0  0  0  0
  192.8960  173.8160  142.4570 C   0  0  0  0  0  2  0  0  0  0  0  0
  189.7230  175.6130  142.5050 C   0  0  0  0  0  3  0  0  0  0  0  0
  192.9930  174.1310  144.6660 C   0  0  0  0  0  2  0  0  0  0  0  0
  191.2060  175.4890  147.8430 C   0  0  0  0  0  2  0  0  0  0  0  0
  189.4280  176.3170  146.1930 C   0  0  0  0  0  3  0  0  0  0  0  0
  192.2670  175.2590  146.8110 C   0  0  0  0  0  0  0  0  0  0  0  0
  193.3570  175.8850  146.8970 O   0  0  0  0  0  0  0  0  0  0  0  0
  192.3850  173.3550  143.6770 O   0  0  0  0  0  0  0  0  0  0  0  0
  187.0240  177.3390  142.1510 N   0  0  0  0  0  2  0  0  0  0  0  0
  185.6910  177.2100  141.9570 O   0  0  0  0  0  1  0  0  0  0  0  0
  187.0600  178.0380  144.8930 O   0  0  0  0  0  0  0  0  0  0  0  0
  186.0540  177.2760  145.4900 C   0  0  0  0  0  2  0  0  0  0  0  0
  184.8100  177.8230  145.1790 O   0  0  0  0  0  1  0  0  0  0  0  0
  1  9  1  0  0  0  0
  1 13  1  0  0  0  0
  2  6  1  0  0  0  0
  3 23  1  1  0  0  0
  3  4  1  0  0  0  0
  4 17  2  0  0  0  0
  5 10  2  0  0  0  0
  5 16  1  0  0  0  0
  6 21  1  6  0  0  0
  6  3  1  0  0  0  0
  7  8  2  0  0  0  0
  7  9  1  0  0  0  0
  8 12  1  0  0  0  0
  9 14  2  0  0  0  0
 11 18  1  0  0  0  0
 12  2  2  0  0  0  0
 13 20  1  0  0  0  0
 14  2  1  0  0  0  0
 15 11  1  0  0  0  0
 17  5  1  0  0  0  0
 18 19  2  0  0  0  0
 18 16  1  0  0  0  0
 20 15  1  0  0  0  0
 22 21  1  0  0  0  0
 23 24  1  0  0  0  0
 25 24  1  0  0  0  0
M  END
>  <MODEL>
7

>  <REMARK>
 VINA RESULT:      -6.5      2.416      6.930
  Name = 
  3 active torsions:
  status: ('A' for Active; 'I' for Inactive)
    1  A    between atoms: N_2  and  C_8
    2  A    between atoms: C_5  and  O_22
    3  A    between atoms: C_12  and  O_22
                            x       y       z     vdW  Elec       q    Type
                         _______ _______ _______ _____ _____    ______ ____

>  <TORSDO>
F 3

$$$$
=
 OpenBabel11072409403D

 25 26  0  0  1  0  0  0  0  0999 V2000
  185.6840  177.1650  142.1530 C   0  0  0  0  0  2  0  0  0  0  0  0
  189.1200  176.5970  143.6560 C   0  0  0  0  0  0  0  0  0  0  0  0
  188.9210  175.4750  145.9240 C   0  0  1  0  0  3  0  0  0  0  0  0
  188.5720  176.7580  146.6000 C   0  0  0  0  0  3  0  0  0  0  0  0
  186.9440  178.1740  147.7500 C   0  0  0  0  0  0  0  0  0  0  0  0
  189.7890  175.7230  144.6810 C   0  0  1  0  0  3  0  0  0  0  0  0
  187.9420  178.1830  141.6670 C   0  0  0  0  0  3  0  0  0  0  0  0
  189.3100  178.2880  141.9280 C   0  0  0  0  0  3  0  0  0  0  0  0
  187.1540  177.2900  142.4040 C   0  0  0  0  0  0  0  0  0  0  0  0
  187.7850  179.0760  148.0050 O   0  0  0  0  0  0  0  0  0  0  0  0
  185.1850  178.9530  145.6120 N   0  0  0  0  0  2  0  0  0  0  0  0
  189.8970  177.4980  142.9210 C   0  0  0  0  0  3  0  0  0  0  0  0
  184.9470  178.5070  142.2080 C   0  0  0  0  0  2  0  0  0  0  0  0
  187.7480  176.4860  143.3800 C   0  0  0  0  0  3  0  0  0  0  0  0
  184.4630  178.9000  144.3520 C   0  0  0  0  0  2  0  0  0  0  0  0
  185.5010  178.4050  148.0680 C   0  0  0  0  0  2  0  0  0  0  0  0
  187.3560  176.9250  147.1010 C   0  0  0  0  0  3  0  0  0  0  0  0
  184.6610  178.4160  146.8280 C   0  0  0  0  0  0  0  0  0  0  0  0
  183.4850  177.9670  146.8740 O   0  0  0  0  0  0  0  0  0  0  0  0
  185.3320  179.2640  143.3210 O   0  0  0  0  0  0  0  0  0  0  0  0
  190.1580  174.4580  144.0630 N   0  0  0  0  0  2  0  0  0  0  0  0
  191.4990  174.4850  143.8810 O   0  0  0  0  0  1  0  0  0  0  0  0
  189.5900  174.6450  146.8290 O   0  0  0  0  0  0  0  0  0  0  0  0
  190.7230  175.3670  147.2100 C   0  0  0  0  0  2  0  0  0  0  0  0
  191.1460  174.9410  148.4670 O   0  0  0  0  0  1  0  0  0  0  0  0
  1 13  1  0  0  0  0
  1  9  1  0  0  0  0
  2  6  1  0  0  0  0
  3  4  1  0  0  0  0
  3 23  1  1  0  0  0
  4 17  2  0  0  0  0
  5 10  2  0  0  0  0
  5 16  1  0  0  0  0
  6 21  1  6  0  0  0
  6  3  1  0  0  0  0
  7  8  2  0  0  0  0
  7  9  1  0  0  0  0
  8 12  1  0  0  0  0
  9 14  2  0  0  0  0
 11 18  1  0  0  0  0
 12  2  2  0  0  0  0
 13 20  1  0  0  0  0
 14  2  1  0  0  0  0
 15 11  1  0  0  0  0
 17  5  1  0  0  0  0
 18 19  2  0  0  0  0
 18 16  1  0  0  0  0
 20 15  1  0  0  0  0
 22 21  1  0  0  0  0
 23 24  1  0  0  0  0
 24 25  1  0  0  0  0
M  END
>  <MODEL>
8

>  <REMARK>
 VINA RESULT:      -6.3      2.244      4.867
  Name = 
  3 active torsions:
  status: ('A' for Active; 'I' for Inactive)
    1  A    between atoms: N_2  and  C_8
    2  A    between atoms: C_5  and  O_22
    3  A    between atoms: C_12  and  O_22
                            x       y       z     vdW  Elec       q    Type
                         _______ _______ _______ _____ _____    ______ ____

>  <TORSDO>
F 3

$$$$
=
 OpenBabel11072409403D

 25 26  0  0  1  0  0  0  0  0999 V2000
  187.1310  178.2860  145.3920 C   0  0  0  0  0  2  0  0  0  0  0  0
  189.9830  175.8500  145.9610 C   0  0  0  0  0  0  0  0  0  0  0  0
  191.5180  175.7960  143.9410 C   0  0  1  0  0  3  0  0  0  0  0  0
  190.5920  174.9070  143.1800 C   0  0  0  0  0  3  0  0  0  0  0  0
  189.0270  174.5610  141.3340 C   0  0  0  0  0  0  0  0  0  0  0  0
  191.3730  175.5790  145.4550 C   0  0  1  0  0  3  0  0  0  0  0  0
  187.4340  176.3710  147.0070 C   0  0  0  0  0  3  0  0  0  0  0  0
  188.2000  175.3200  147.5190 C   0  0  0  0  0  3  0  0  0  0  0  0
  187.9350  177.1610  145.9650 C   0  0  0  0  0  0  0  0  0  0  0  0
  188.8980  173.3300  141.5660 O   0  0  0  0  0  0  0  0  0  0  0  0
  186.7180  176.0420  142.1980 N   0  0  0  0  0  2  0  0  0  0  0  0
  189.4710  175.0600  146.9960 C   0  0  0  0  0  3  0  0  0  0  0  0
  185.7290  177.8590  144.9480 C   0  0  0  0  0  2  0  0  0  0  0  0
  189.2140  176.9120  145.4600 C   0  0  0  0  0  3  0  0  0  0  0  0
  185.9180  177.0470  142.8760 C   0  0  0  0  0  2  0  0  0  0  0  0
  188.1690  175.2060  140.2930 C   0  0  0  0  0  2  0  0  0  0  0  0
  189.9720  175.3760  142.1060 C   0  0  0  0  0  3  0  0  0  0  0  0
  187.2620  176.2370  140.8910 C   0  0  0  0  0  0  0  0  0  0  0  0
  186.9700  177.2650  140.2250 O   0  0  0  0  0  0  0  0  0  0  0  0
  185.7590  176.6680  144.2110 O   0  0  0  0  0  0  0  0  0  0  0  0
  192.3170  176.4180  146.1770 N   0  0  0  0  0  2  0  0  0  0  0  0
  193.1230  175.5890  146.8810 O   0  0  0  0  0  1  0  0  0  0  0  0
  192.8330  175.5440  143.5360 O   0  0  0  0  0  0  0  0  0  0  0  0
  192.9720  174.1560  143.6070 C   0  0  0  0  0  2  0  0  0  0  0  0
  194.1980  173.8400  144.1890 O   0  0  0  0  0  1  0  0  0  0  0  0
  1  9  1  0  0  0  0
  2 12  1  0  0  0  0
  3 23  1  6  0  0  0
  3  6  1  0  0  0  0
  4  3  1  0  0  0  0
  5 10  2  0  0  0  0
  5 17  1  0  0  0  0
  6  2  1  0  0  0  0
  6 21  1  1  0  0  0
  7  8  1  0  0  0  0
  9  7  2  0  0  0  0
 11 15  1  0  0  0  0
 12  8  2  0  0  0  0
 13  1  1  0  0  0  0
 14  2  2  0  0  0  0
 14  9  1  0  0  0  0
 15 20  1  0  0  0  0
 16 18  1  0  0  0  0
 16  5  1  0  0  0  0
 17  4  2  0  0  0  0
 18 11  1  0  0  0  0
 19 18  2  0  0  0  0
 20 13  1  0  0  0  0
 21 22  1  0  0  0  0
 23 24  1  0  0  0  0
 24 25  1  0  0  0  0
M  END
>  <MODEL>
9

>  <REMARK>
 VINA RESULT:      -6.2      1.704      2.192
  Name = 
  3 active torsions:
  status: ('A' for Active; 'I' for Inactive)
    1  A    between atoms: N_2  and  C_8
    2  A    between atoms: C_5  and  O_22
    3  A    between atoms: C_12  and  O_22
                            x       y       z     vdW  Elec       q    Type
                         _______ _______ _______ _____ _____    ______ ____

>  <TORSDO>
F 3

$$$$
