=
 OpenBabel11062421123D

 33 34  0  0  1  0  0  0  0  0999 V2000
  192.0090  176.3740  144.1440 C   0  0  1  0  0  3  0  0  0  0  0  0
  187.9870  176.9830  143.5300 C   0  0  0  0  0  0  0  0  0  0  0  0
  188.1390  176.4200  146.2150 N   0  0  0  0  0  2  0  0  0  0  0  0
  190.0340  176.1630  142.7390 O   0  0  0  0  0  0  0  0  0  0  0  0
  186.6350  177.8060  147.5390 C   0  0  0  0  0  1  0  0  0  0  0  0
  191.3970  177.6290  144.7600 C   0  0  0  0  0  2  0  0  0  0  0  0
  191.4590  176.2050  142.7310 C   0  0  0  0  0  2  0  0  0  0  0  0
  186.7040  177.1020  143.7000 C   0  0  0  0  0  0  0  0  0  0  0  0
  187.2770  177.6180  146.1740 C   0  0  2  0  0  3  0  0  0  0  0  0
  189.5260  176.7340  146.1320 N   0  0  0  0  0  0  0  0  0  0  0  0
  186.1830  177.4840  145.0750 C   0  0  1  0  0  3  0  0  0  0  0  0
  189.2740  176.8980  143.6540 C   0  0  0  0  0  0  0  0  0  0  0  0
  189.8760  177.4940  144.9070 C   0  0  2  0  0  3  0  0  0  0  0  0
  194.2140  176.1110  142.9230 N   0  0  0  0  0  2  0  0  0  0  0  0
  193.4960  176.4870  144.1070 C   0  0  0  0  0  0  0  0  0  0  0  0
  196.2210  175.7250  141.4520 C   0  0  0  0  0  1  0  0  0  0  0  0
  194.1030  176.9230  145.1230 O   0  0  0  0  0  0  0  0  0  0  0  0
  196.4080  176.6440  143.6620 N   0  0  0  0  0  2  0  0  0  0  0  0
  195.6350  176.1560  142.7470 C   0  0  0  0  0  0  0  0  0  0  0  0
  184.0730  178.7660  145.4550 O   0  0  0  0  0  1  0  0  0  0  0  0
  185.8880  179.7970  144.5100 O   0  0  0  0  0  0  0  0  0  0  0  0
  185.3780  178.7470  144.9820 C   0  0  0  0  0  0  0  0  0  0  0  0
  185.7660  176.6930  142.6100 C   0  0  0  0  0  2  0  0  0  0  0  0
  185.6370  178.6610  141.2950 O   0  0  0  0  0  0  0  0  0  0  0  0
  186.0330  177.4650  141.3580 C   0  0  0  0  0  0  0  0  0  0  0  0
  186.7850  176.8930  140.2130 C   0  0  0  0  0  0  0  0  0  0  0  0
  187.6480  176.0080  140.4480 O   0  0  0  0  0  0  0  0  0  0  0  0
  186.5830  177.2740  138.8790 O   0  0  0  0  0  0  0  0  0  0  0  0
  186.4810  176.3650  137.7920 C   0  0  0  0  0  1  0  0  0  0  0  0
  189.9130  177.5000  147.3210 C   0  0  0  0  0  2  0  0  0  0  0  0
  191.2110  176.9750  147.9290 C   0  0  0  0  0  3  0  0  0  0  0  0
  191.5230  177.6450  149.2550 C   0  0  0  0  0  1  0  0  0  0  0  0
  191.1740  175.4670  148.0980 C   0  0  0  0  0  1  0  0  0  0  0  0
  1 15  1  6  0  0  0
  1  6  1  0  0  0  0
  2 12  2  0  0  0  0
  2  8  2  0  0  0  0
  4 12  1  0  0  0  0
  7  4  1  0  0  0  0
  7  1  1  0  0  0  0
  8 11  1  0  0  0  0
  9  3  1  0  0  0  0
  9  5  1  1  0  0  0
 10  3  1  0  0  0  0
 10 30  1  0  0  0  0
 11 22  1  6  0  0  0
 11  9  1  0  0  0  0
 12 13  1  0  0  0  0
 13  6  1  6  0  0  0
 13 10  1  0  0  0  0
 14 15  1  0  0  0  0
 15 17  2  0  0  0  0
 16 19  1  0  0  0  0
 19 14  1  0  0  0  0
 19 18  2  0  0  0  0
 21 22  2  0  0  0  0
 22 20  1  0  0  0  0
 23  8  1  0  0  0  0
 24 25  2  0  0  0  0
 25 23  1  0  0  0  0
 26 27  2  0  0  0  0
 26 25  1  0  0  0  0
 28 26  1  0  0  0  0
 29 28  1  0  0  0  0
 30 31  1  0  0  0  0
 31 33  1  0  0  0  0
 31 32  1  0  0  0  0
M  END
>  <MODEL>
1

>  <REMARK>
 VINA RESULT:      -7.4      0.000      0.000
  Name = 
  8 active torsions:
  status: ('A' for Active; 'I' for Inactive)
    1  A    between atoms: C_2  and  C_9
    2  A    between atoms: C_3  and  C_19
    3  A    between atoms: C_4  and  C_10
    4  A    between atoms: C_4  and  C_22
    5  A    between atoms: C_10  and  C_13
    6  A    between atoms: C_13  and  O_20
    7  A    between atoms: C_19  and  N_27
    8  A    between atoms: C_29  and  C_32
                            x       y       z     vdW  Elec       q    Type
                         _______ _______ _______ _____ _____    ______ ____

>  <TORSDO>
F 8

$$$$
=
 OpenBabel11062421123D

 33 34  0  0  1  0  0  0  0  0999 V2000
  189.2490  174.5400  141.2350 C   0  0  1  0  0  3  0  0  0  0  0  0
  189.2260  176.2690  144.9670 C   0  0  0  0  0  0  0  0  0  0  0  0
  187.7450  178.0180  143.4510 N   0  0  0  0  0  2  0  0  0  0  0  0
  190.3740  175.0490  143.3300 O   0  0  0  0  0  0  0  0  0  0  0  0
  185.8220  178.8950  144.6620 C   0  0  0  0  0  1  0  0  0  0  0  0
  187.9190  174.5520  141.9830 C   0  0  0  0  0  2  0  0  0  0  0  0
  190.3570  174.1630  142.2130 C   0  0  0  0  0  2  0  0  0  0  0  0
  189.0150  177.0700  145.9690 C   0  0  0  0  0  0  0  0  0  0  0  0
  186.9160  177.8390  144.6590 C   0  0  2  0  0  3  0  0  0  0  0  0
  187.5870  176.9600  142.5100 N   0  0  0  0  0  0  0  0  0  0  0  0
  187.7770  177.9490  145.9520 C   0  0  1  0  0  3  0  0  0  0  0  0
  189.2060  175.6120  143.8500 C   0  0  0  0  0  0  0  0  0  0  0  0
  187.9050  175.6260  143.0790 C   0  0  2  0  0  3  0  0  0  0  0  0
  190.0850  172.4300  140.1060 N   0  0  0  0  0  2  0  0  0  0  0  0
  189.2010  173.5610  140.1100 C   0  0  0  0  0  0  0  0  0  0  0  0
  191.1380  170.3120  139.2420 C   0  0  0  0  0  1  0  0  0  0  0  0
  188.3720  173.7390  139.1770 O   0  0  0  0  0  0  0  0  0  0  0  0
  189.3320  171.4060  138.0990 N   0  0  0  0  0  2  0  0  0  0  0  0
  190.1590  171.4190  139.0940 C   0  0  0  0  0  0  0  0  0  0  0  0
  186.6900  178.6870  148.0770 O   0  0  0  0  0  1  0  0  0  0  0  0
  186.4290  176.5320  147.3420 O   0  0  0  0  0  0  0  0  0  0  0  0
  186.9380  177.6710  147.1640 C   0  0  0  0  0  0  0  0  0  0  0  0
  190.0660  177.2450  147.0170 C   0  0  0  0  0  2  0  0  0  0  0  0
  190.1320  175.0120  147.8090 O   0  0  0  0  0  0  0  0  0  0  0  0
  190.7780  175.9570  147.2800 C   0  0  0  0  0  0  0  0  0  0  0  0
  192.1960  175.7370  146.9010 C   0  0  0  0  0  0  0  0  0  0  0  0
  192.5010  174.6570  146.3290 O   0  0  0  0  0  0  0  0  0  0  0  0
  193.2190  176.6670  147.1310 O   0  0  0  0  0  0  0  0  0  0  0  0
  194.2660  176.9540  146.2140 C   0  0  0  0  0  1  0  0  0  0  0  0
  186.2090  176.9710  142.0090 C   0  0  0  0  0  2  0  0  0  0  0  0
  186.0510  177.9190  140.8230 C   0  0  0  0  0  3  0  0  0  0  0  0
  186.6100  177.3200  139.5450 C   0  0  0  0  0  1  0  0  0  0  0  0
  184.6010  178.3220  140.6250 C   0  0  0  0  0  1  0  0  0  0  0  0
  1 15  1  6  0  0  0
  1  6  1  0  0  0  0
  1  7  1  0  0  0  0
  2  8  2  0  0  0  0
  3  9  1  0  0  0  0
  4 12  1  0  0  0  0
  7  4  1  0  0  0  0
  8 23  1  0  0  0  0
  9  5  1  1  0  0  0
  9 11  1  0  0  0  0
 10 13  1  0  0  0  0
 10  3  1  0  0  0  0
 11  8  1  0  0  0  0
 11 22  1  1  0  0  0
 12  2  2  0  0  0  0
 13  6  1  6  0  0  0
 13 12  1  0  0  0  0
 14 15  1  0  0  0  0
 17 15  2  0  0  0  0
 18 19  2  0  0  0  0
 19 16  1  0  0  0  0
 19 14  1  0  0  0  0
 22 21  2  0  0  0  0
 22 20  1  0  0  0  0
 23 25  1  0  0  0  0
 25 24  2  0  0  0  0
 26 28  1  0  0  0  0
 26 25  1  0  0  0  0
 27 26  2  0  0  0  0
 29 28  1  0  0  0  0
 30 10  1  0  0  0  0
 31 30  1  0  0  0  0
 32 31  1  0  0  0  0
 33 31  1  0  0  0  0
M  END
>  <MODEL>
2

>  <REMARK>
 VINA RESULT:      -7.2      3.300      6.654
  Name = 
  8 active torsions:
  status: ('A' for Active; 'I' for Inactive)
    1  A    between atoms: C_2  and  C_9
    2  A    between atoms: C_3  and  C_19
    3  A    between atoms: C_4  and  C_10
    4  A    between atoms: C_4  and  C_22
    5  A    between atoms: C_10  and  C_13
    6  A    between atoms: C_13  and  O_20
    7  A    between atoms: C_19  and  N_27
    8  A    between atoms: C_29  and  C_32
                            x       y       z     vdW  Elec       q    Type
                         _______ _______ _______ _____ _____    ______ ____

>  <TORSDO>
F 8

$$$$
=
 OpenBabel11062421123D

 33 34  0  0  1  0  0  0  0  0999 V2000
  185.3340  178.1210  142.0000 C   0  0  1  0  0  3  0  0  0  0  0  0
  189.1780  177.2400  143.1690 C   0  0  0  0  0  0  0  0  0  0  0  0
  187.8950  177.7470  145.5450 N   0  0  0  0  0  2  0  0  0  0  0  0
  187.7320  178.2230  141.6100 O   0  0  0  0  0  0  0  0  0  0  0  0
  188.5890  176.2260  147.3160 C   0  0  0  0  0  1  0  0  0  0  0  0
  185.5450  176.8120  142.7530 C   0  0  0  0  0  2  0  0  0  0  0  0
  186.4550  178.2840  140.9790 C   0  0  0  0  0  2  0  0  0  0  0  0
  190.2480  177.0240  143.8750 C   0  0  0  0  0  0  0  0  0  0  0  0
  188.6210  176.4920  145.8200 C   0  0  2  0  0  3  0  0  0  0  0  0
  186.6700  177.5370  144.8490 N   0  0  0  0  0  0  0  0  0  0  0  0
  190.0920  176.5740  145.3160 C   0  0  1  0  0  3  0  0  0  0  0  0
  187.9740  177.4140  142.7230 C   0  0  0  0  0  0  0  0  0  0  0  0
  186.8520  176.8330  143.5550 C   0  0  2  0  0  3  0  0  0  0  0  0
  182.8270  178.4930  142.0340 N   0  0  0  0  0  2  0  0  0  0  0  0
  184.0090  178.1160  141.3130 C   0  0  0  0  0  0  0  0  0  0  0  0
  180.3750  178.9390  142.3990 C   0  0  0  0  0  1  0  0  0  0  0  0
  183.9500  177.7860  140.0980 O   0  0  0  0  0  0  0  0  0  0  0  0
  181.2570  178.2860  140.2630 N   0  0  0  0  0  2  0  0  0  0  0  0
  181.4930  178.5260  141.5120 C   0  0  0  0  0  0  0  0  0  0  0  0
  190.3030  174.1220  144.8840 O   0  0  0  0  0  0  0  0  0  0  0  0
  191.8250  175.1860  146.2270 O   0  0  0  0  0  1  0  0  0  0  0  0
  190.7870  175.2590  145.5170 C   0  0  0  0  0  0  0  0  0  0  0  0
  191.5890  177.3910  143.3260 C   0  0  0  0  0  2  0  0  0  0  0  0
  191.6010  175.3850  142.0630 O   0  0  0  0  0  0  0  0  0  0  0  0
  192.2780  176.1940  142.7540 C   0  0  0  0  0  0  0  0  0  0  0  0
  193.7310  175.9490  142.9310 C   0  0  0  0  0  0  0  0  0  0  0  0
  194.4740  176.0030  141.9160 O   0  0  0  0  0  0  0  0  0  0  0  0
  194.3310  175.6710  144.1670 O   0  0  0  0  0  0  0  0  0  0  0  0
  194.8960  176.6530  145.0240 C   0  0  0  0  0  1  0  0  0  0  0  0
  185.7600  176.7720  145.7080 C   0  0  0  0  0  2  0  0  0  0  0  0
  184.7630  177.6820  146.4200 C   0  0  0  0  0  3  0  0  0  0  0  0
  185.3670  178.3190  147.6580 C   0  0  0  0  0  1  0  0  0  0  0  0
  184.2250  178.7520  145.4870 C   0  0  0  0  0  1  0  0  0  0  0  0
  1 15  1  6  0  0  0
  1  6  1  0  0  0  0
  2  8  2  0  0  0  0
  3  9  1  0  0  0  0
  4 12  1  0  0  0  0
  7  4  1  0  0  0  0
  7  1  1  0  0  0  0
  8 11  1  0  0  0  0
  9  5  1  1  0  0  0
 10  3  1  0  0  0  0
 10 30  1  0  0  0  0
 11 22  1  6  0  0  0
 11  9  1  0  0  0  0
 12  2  2  0  0  0  0
 12 13  1  0  0  0  0
 13  6  1  6  0  0  0
 13 10  1  0  0  0  0
 15 14  1  0  0  0  0
 17 15  2  0  0  0  0
 18 19  2  0  0  0  0
 19 14  1  0  0  0  0
 19 16  1  0  0  0  0
 20 22  2  0  0  0  0
 22 21  1  0  0  0  0
 23  8  1  0  0  0  0
 24 25  2  0  0  0  0
 25 26  1  0  0  0  0
 25 23  1  0  0  0  0
 26 28  1  0  0  0  0
 27 26  2  0  0  0  0
 28 29  1  0  0  0  0
 30 31  1  0  0  0  0
 31 32  1  0  0  0  0
 33 31  1  0  0  0  0
M  END
>  <MODEL>
3

>  <REMARK>
 VINA RESULT:      -7.2      2.914      7.895
  Name = 
  8 active torsions:
  status: ('A' for Active; 'I' for Inactive)
    1  A    between atoms: C_2  and  C_9
    2  A    between atoms: C_3  and  C_19
    3  A    between atoms: C_4  and  C_10
    4  A    between atoms: C_4  and  C_22
    5  A    between atoms: C_10  and  C_13
    6  A    between atoms: C_13  and  O_20
    7  A    between atoms: C_19  and  N_27
    8  A    between atoms: C_29  and  C_32
                            x       y       z     vdW  Elec       q    Type
                         _______ _______ _______ _____ _____    ______ ____

>  <TORSDO>
F 8

$$$$
=
 OpenBabel11062421123D

 33 34  0  0  1  0  0  0  0  0999 V2000
  185.5330  177.8830  141.6340 C   0  0  1  0  0  3  0  0  0  0  0  0
  189.2000  176.3130  142.6390 C   0  0  0  0  0  0  0  0  0  0  0  0
  188.5720  177.8860  144.8020 N   0  0  0  0  0  2  0  0  0  0  0  0
  187.7590  177.1460  140.9900 O   0  0  0  0  0  0  0  0  0  0  0  0
  189.2090  176.8550  146.9140 C   0  0  0  0  0  1  0  0  0  0  0  0
  185.5630  176.8700  142.7750 C   0  0  0  0  0  2  0  0  0  0  0  0
  186.4370  177.3820  140.5120 C   0  0  0  0  0  2  0  0  0  0  0  0
  190.3030  176.0200  143.2620 C   0  0  0  0  0  0  0  0  0  0  0  0
  189.0100  176.6220  145.4250 C   0  0  2  0  0  3  0  0  0  0  0  0
  187.2200  177.8420  144.3540 N   0  0  0  0  0  0  0  0  0  0  0  0
  190.3290  176.1060  144.7770 C   0  0  1  0  0  3  0  0  0  0  0  0
  188.0110  176.6880  142.2860 C   0  0  0  0  0  0  0  0  0  0  0  0
  186.9680  176.7510  143.3800 C   0  0  2  0  0  3  0  0  0  0  0  0
  183.1040  178.4900  142.0280 N   0  0  0  0  0  2  0  0  0  0  0  0
  184.1380  178.0560  141.1320 C   0  0  0  0  0  0  0  0  0  0  0  0
  180.7790  179.1400  142.7460 C   0  0  0  0  0  1  0  0  0  0  0  0
  183.8900  177.8260  139.9180 O   0  0  0  0  0  0  0  0  0  0  0  0
  181.3080  178.5680  140.4750 N   0  0  0  0  0  2  0  0  0  0  0  0
  181.7250  178.6900  141.6930 C   0  0  0  0  0  0  0  0  0  0  0  0
  189.8300  173.7040  145.2520 O   0  0  0  0  0  0  0  0  0  0  0  0
  191.8310  174.6120  145.9040 O   0  0  0  0  0  1  0  0  0  0  0  0
  190.7080  174.7740  145.3560 C   0  0  0  0  0  0  0  0  0  0  0  0
  191.5580  175.7860  142.4840 C   0  0  0  0  0  2  0  0  0  0  0  0
  192.7710  173.7550  142.6430 O   0  0  0  0  0  0  0  0  0  0  0  0
  191.7420  174.3310  142.1940 C   0  0  0  0  0  0  0  0  0  0  0  0
  190.7420  173.5340  141.4400 C   0  0  0  0  0  0  0  0  0  0  0  0
  190.6670  173.6950  140.1940 O   0  0  0  0  0  0  0  0  0  0  0  0
  189.8800  172.6020  142.0330 O   0  0  0  0  0  0  0  0  0  0  0  0
  188.4670  172.7370  142.0880 C   0  0  0  0  0  1  0  0  0  0  0  0
  186.3390  177.6860  145.5150 C   0  0  0  0  0  2  0  0  0  0  0  0
  185.5160  178.9460  145.7690 C   0  0  0  0  0  3  0  0  0  0  0  0
  185.5850  179.9090  144.5970 C   0  0  0  0  0  1  0  0  0  0  0  0
  184.0710  178.6100  146.0890 C   0  0  0  0  0  1  0  0  0  0  0  0
  1 15  1  6  0  0  0
  1  6  1  0  0  0  0
  2  8  2  0  0  0  0
  3  9  1  0  0  0  0
  4 12  1  0  0  0  0
  7  4  1  0  0  0  0
  7  1  1  0  0  0  0
  8 11  1  0  0  0  0
  9  5  1  1  0  0  0
 10  3  1  0  0  0  0
 10 30  1  0  0  0  0
 11 22  1  1  0  0  0
 11  9  1  0  0  0  0
 12  2  2  0  0  0  0
 12 13  1  0  0  0  0
 13  6  1  6  0  0  0
 13 10  1  0  0  0  0
 15 14  1  0  0  0  0
 17 15  2  0  0  0  0
 18 19  2  0  0  0  0
 19 14  1  0  0  0  0
 19 16  1  0  0  0  0
 20 22  2  0  0  0  0
 22 21  1  0  0  0  0
 23  8  1  0  0  0  0
 25 23  1  0  0  0  0
 25 24  2  0  0  0  0
 26 28  1  0  0  0  0
 26 25  1  0  0  0  0
 27 26  2  0  0  0  0
 28 29  1  0  0  0  0
 30 31  1  0  0  0  0
 31 33  1  0  0  0  0
 32 31  1  0  0  0  0
M  END
>  <MODEL>
4

>  <REMARK>
 VINA RESULT:      -7.2      3.106      7.566
  Name = 
  8 active torsions:
  status: ('A' for Active; 'I' for Inactive)
    1  A    between atoms: C_2  and  C_9
    2  A    between atoms: C_3  and  C_19
    3  A    between atoms: C_4  and  C_10
    4  A    between atoms: C_4  and  C_22
    5  A    between atoms: C_10  and  C_13
    6  A    between atoms: C_13  and  O_20
    7  A    between atoms: C_19  and  N_27
    8  A    between atoms: C_29  and  C_32
                            x       y       z     vdW  Elec       q    Type
                         _______ _______ _______ _____ _____    ______ ____

>  <TORSDO>
F 8

$$$$
=
 OpenBabel11062421123D

 33 34  0  0  1  0  0  0  0  0999 V2000
  185.9840  178.2450  143.3760 C   0  0  1  0  0  3  0  0  0  0  0  0
  189.8630  176.8880  143.5610 C   0  0  0  0  0  0  0  0  0  0  0  0
  189.1840  177.2230  146.2020 N   0  0  0  0  0  2  0  0  0  0  0  0
  188.2400  178.1770  142.4680 O   0  0  0  0  0  0  0  0  0  0  0  0
  190.0620  175.4450  147.6160 C   0  0  0  0  0  1  0  0  0  0  0  0
  186.2010  176.8410  143.9330 C   0  0  0  0  0  2  0  0  0  0  0  0
  186.8730  178.4270  142.1500 C   0  0  0  0  0  2  0  0  0  0  0  0
  191.0280  176.4950  143.9830 C   0  0  0  0  0  0  0  0  0  0  0  0
  189.8040  175.8830  146.1840 C   0  0  2  0  0  3  0  0  0  0  0  0
  187.8230  177.2070  145.7820 N   0  0  0  0  0  0  0  0  0  0  0  0
  191.1330  175.8910  145.3730 C   0  0  1  0  0  3  0  0  0  0  0  0
  188.6200  177.2220  143.4160 C   0  0  0  0  0  0  0  0  0  0  0  0
  187.6430  176.6490  144.4190 C   0  0  2  0  0  3  0  0  0  0  0  0
  184.0650  177.9630  141.7440 N   0  0  0  0  0  2  0  0  0  0  0  0
  184.5520  178.4410  143.0080 C   0  0  0  0  0  0  0  0  0  0  0  0
  182.3880  177.5390  139.9150 C   0  0  0  0  0  1  0  0  0  0  0  0
  183.7830  179.0200  143.8210 O   0  0  0  0  0  0  0  0  0  0  0  0
  181.7880  178.5930  141.9870 N   0  0  0  0  0  2  0  0  0  0  0  0
  182.7250  178.0880  141.2530 C   0  0  0  0  0  0  0  0  0  0  0  0
  190.9640  173.4990  144.6720 O   0  0  0  0  0  0  0  0  0  0  0  0
  192.8520  174.2550  145.7300 O   0  0  0  0  0  1  0  0  0  0  0  0
  191.7000  174.5050  145.2840 C   0  0  0  0  0  0  0  0  0  0  0  0
  192.2530  176.8020  143.1850 C   0  0  0  0  0  2  0  0  0  0  0  0
  191.9320  174.9220  141.7780 O   0  0  0  0  0  0  0  0  0  0  0  0
  192.7490  175.5830  142.4760 C   0  0  0  0  0  0  0  0  0  0  0  0
  194.1680  175.1510  142.5260 C   0  0  0  0  0  0  0  0  0  0  0  0
  194.4170  173.9170  142.5350 O   0  0  0  0  0  0  0  0  0  0  0  0
  195.2530  176.0390  142.5520 O   0  0  0  0  0  0  0  0  0  0  0  0
  196.1870  176.1330  143.6180 C   0  0  0  0  0  1  0  0  0  0  0  0
  187.0370  176.4310  146.7460 C   0  0  0  0  0  2  0  0  0  0  0  0
  186.1010  177.3240  147.5560 C   0  0  0  0  0  3  0  0  0  0  0  0
  186.6980  178.7000  147.7890 C   0  0  0  0  0  1  0  0  0  0  0  0
  184.7400  177.4460  146.8940 C   0  0  0  0  0  1  0  0  0  0  0  0
  1 15  1  6  0  0  0
  1  6  1  0  0  0  0
  2  8  2  0  0  0  0
  4 12  1  0  0  0  0
  7  4  1  0  0  0  0
  7  1  1  0  0  0  0
  8 11  1  0  0  0  0
  9  3  1  0  0  0  0
  9  5  1  1  0  0  0
 10  3  1  0  0  0  0
 10 30  1  0  0  0  0
 11 22  1  6  0  0  0
 11  9  1  0  0  0  0
 12  2  2  0  0  0  0
 12 13  1  0  0  0  0
 13  6  1  6  0  0  0
 13 10  1  0  0  0  0
 14 15  1  0  0  0  0
 15 17  2  0  0  0  0
 16 19  1  0  0  0  0
 19 14  1  0  0  0  0
 19 18  2  0  0  0  0
 20 22  2  0  0  0  0
 22 21  1  0  0  0  0
 23  8  1  0  0  0  0
 24 25  2  0  0  0  0
 25 26  1  0  0  0  0
 25 23  1  0  0  0  0
 26 27  2  0  0  0  0
 26 28  1  0  0  0  0
 28 29  1  0  0  0  0
 30 31  1  0  0  0  0
 31 32  1  0  0  0  0
 33 31  1  0  0  0  0
M  END
>  <MODEL>
5

>  <REMARK>
 VINA RESULT:      -6.8      2.647      7.572
  Name = 
  8 active torsions:
  status: ('A' for Active; 'I' for Inactive)
    1  A    between atoms: C_2  and  C_9
    2  A    between atoms: C_3  and  C_19
    3  A    between atoms: C_4  and  C_10
    4  A    between atoms: C_4  and  C_22
    5  A    between atoms: C_10  and  C_13
    6  A    between atoms: C_13  and  O_20
    7  A    between atoms: C_19  and  N_27
    8  A    between atoms: C_29  and  C_32
                            x       y       z     vdW  Elec       q    Type
                         _______ _______ _______ _____ _____    ______ ____

>  <TORSDO>
F 8

$$$$
=
 OpenBabel11062421123D

 33 34  0  0  1  0  0  0  0  0999 V2000
  187.5010  177.3150  142.4820 C   0  0  1  0  0  3  0  0  0  0  0  0
  189.2100  174.0410  140.6710 C   0  0  0  0  0  0  0  0  0  0  0  0
  191.2390  175.0260  142.2400 N   0  0  0  0  0  2  0  0  0  0  0  0
  187.7550  175.8730  140.5400 O   0  0  0  0  0  0  0  0  0  0  0  0
  192.5310  173.2560  143.3030 C   0  0  0  0  0  1  0  0  0  0  0  0
  187.8150  176.1170  143.3730 C   0  0  0  0  0  2  0  0  0  0  0  0
  186.8900  176.8090  141.1790 C   0  0  0  0  0  2  0  0  0  0  0  0
  190.0440  173.1150  140.2990 C   0  0  0  0  0  0  0  0  0  0  0  0
  191.2570  173.5810  142.5400 C   0  0  2  0  0  3  0  0  0  0  0  0
  190.2380  175.7300  142.9710 N   0  0  0  0  0  0  0  0  0  0  0  0
  191.1770  172.7370  141.2350 C   0  0  1  0  0  3  0  0  0  0  0  0
  188.5690  174.9980  141.2650 C   0  0  0  0  0  0  0  0  0  0  0  0
  188.8700  175.2060  142.7330 C   0  0  2  0  0  3  0  0  0  0  0  0
  186.4360  178.2100  144.6010 N   0  0  0  0  0  2  0  0  0  0  0  0
  186.5520  178.2380  143.1700 C   0  0  0  0  0  0  0  0  0  0  0  0
  185.5670  178.8660  146.8710 C   0  0  0  0  0  1  0  0  0  0  0  0
  185.8670  179.0400  142.4800 O   0  0  0  0  0  0  0  0  0  0  0  0
  184.8430  179.9530  144.8560 N   0  0  0  0  0  2  0  0  0  0  0  0
  185.5660  179.0250  145.3940 C   0  0  0  0  0  0  0  0  0  0  0  0
  190.0660  170.8010  142.3580 O   0  0  0  0  0  1  0  0  0  0  0  0
  191.9480  170.4680  141.0930 O   0  0  0  0  0  0  0  0  0  0  0  0
  191.1010  171.2740  141.5620 C   0  0  0  0  0  0  0  0  0  0  0  0
  189.9840  172.5740  138.9070 C   0  0  0  0  0  2  0  0  0  0  0  0
  191.3360  174.1380  137.7470 O   0  0  0  0  0  0  0  0  0  0  0  0
  190.1770  173.6640  137.9010 C   0  0  0  0  0  0  0  0  0  0  0  0
  189.0720  174.1710  137.0510 C   0  0  0  0  0  0  0  0  0  0  0  0
  189.2650  174.2590  135.8100 O   0  0  0  0  0  0  0  0  0  0  0  0
  187.8160  174.5500  137.5470 O   0  0  0  0  0  0  0  0  0  0  0  0
  187.0720  175.6660  137.0800 C   0  0  0  0  0  1  0  0  0  0  0  0
  190.5560  175.6610  144.4000 C   0  0  0  0  0  2  0  0  0  0  0  0
  190.8680  177.0410  144.9740 C   0  0  0  0  0  3  0  0  0  0  0  0
  190.9340  178.0990  143.8880 C   0  0  0  0  0  1  0  0  0  0  0  0
  189.8620  177.4400  146.0370 C   0  0  0  0  0  1  0  0  0  0  0  0
  1 15  1  1  0  0  0
  1  6  1  0  0  0  0
  2 12  2  0  0  0  0
  3  9  1  0  0  0  0
  3 10  1  0  0  0  0
  4  7  1  0  0  0  0
  4 12  1  0  0  0  0
  7  1  1  0  0  0  0
  8  2  2  0  0  0  0
  8 11  1  0  0  0  0
  9  5  1  6  0  0  0
 10 30  1  0  0  0  0
 11 22  1  1  0  0  0
 11  9  1  0  0  0  0
 12 13  1  0  0  0  0
 13 10  1  0  0  0  0
 13  6  1  6  0  0  0
 14 19  1  0  0  0  0
 15 14  1  0  0  0  0
 17 15  2  0  0  0  0
 18 19  2  0  0  0  0
 19 16  1  0  0  0  0
 21 22  2  0  0  0  0
 22 20  1  0  0  0  0
 23  8  1  0  0  0  0
 24 25  2  0  0  0  0
 25 23  1  0  0  0  0
 26 28  1  0  0  0  0
 26 25  1  0  0  0  0
 27 26  2  0  0  0  0
 29 28  1  0  0  0  0
 30 31  1  0  0  0  0
 31 33  1  0  0  0  0
 32 31  1  0  0  0  0
M  END
>  <MODEL>
6

>  <REMARK>
 VINA RESULT:      -6.6      3.313      6.988
  Name = 
  8 active torsions:
  status: ('A' for Active; 'I' for Inactive)
    1  A    between atoms: C_2  and  C_9
    2  A    between atoms: C_3  and  C_19
    3  A    between atoms: C_4  and  C_10
    4  A    between atoms: C_4  and  C_22
    5  A    between atoms: C_10  and  C_13
    6  A    between atoms: C_13  and  O_20
    7  A    between atoms: C_19  and  N_27
    8  A    between atoms: C_29  and  C_32
                            x       y       z     vdW  Elec       q    Type
                         _______ _______ _______ _____ _____    ______ ____

>  <TORSDO>
F 8

$$$$
=
 OpenBabel11062421123D

 33 34  0  0  1  0  0  0  0  0999 V2000
  190.2150  176.3730  146.4820 C   0  0  1  0  0  3  0  0  0  0  0  0
  194.0850  175.1930  145.7380 C   0  0  0  0  0  0  0  0  0  0  0  0
  192.7480  174.4460  143.4580 N   0  0  0  0  0  2  0  0  0  0  0  0
  192.3330  175.4710  147.2680 O   0  0  0  0  0  0  0  0  0  0  0  0
  194.0540  174.8510  141.4420 C   0  0  0  0  0  1  0  0  0  0  0  0
  190.9790  177.1420  145.4070 C   0  0  0  0  0  2  0  0  0  0  0  0
  191.1420  176.1440  147.6710 C   0  0  0  0  0  2  0  0  0  0  0  0
  195.1560  174.7080  145.1840 C   0  0  0  0  0  0  0  0  0  0  0  0
  193.9450  175.1310  142.9320 C   0  0  2  0  0  3  0  0  0  0  0  0
  191.7190  175.3520  143.8470 N   0  0  0  0  0  0  0  0  0  0  0  0
  195.2320  174.6530  143.6680 C   0  0  1  0  0  3  0  0  0  0  0  0
  192.9150  175.6770  146.0140 C   0  0  0  0  0  0  0  0  0  0  0  0
  192.1640  176.3270  144.8740 C   0  0  2  0  0  3  0  0  0  0  0  0
  187.7050  176.7180  146.4870 N   0  0  0  0  0  2  0  0  0  0  0  0
  189.0090  177.1410  146.9100 C   0  0  0  0  0  0  0  0  0  0  0  0
  185.1960  176.7910  146.2840 C   0  0  0  0  0  1  0  0  0  0  0  0
  189.1560  178.1510  147.6480 O   0  0  0  0  0  0  0  0  0  0  0  0
  186.4210  178.3680  147.6150 N   0  0  0  0  0  2  0  0  0  0  0  0
  186.4640  177.3580  146.8090 C   0  0  0  0  0  0  0  0  0  0  0  0
  196.5110  176.7880  143.4460 O   0  0  0  0  0  1  0  0  0  0  0  0
  197.3650  174.8420  142.5870 O   0  0  0  0  0  0  0  0  0  0  0  0
  196.4250  175.4260  143.1890 C   0  0  0  0  0  0  0  0  0  0  0  0
  196.2020  174.0550  146.0290 C   0  0  0  0  0  2  0  0  0  0  0  0
  197.5870  172.4970  144.9000 O   0  0  0  0  0  0  0  0  0  0  0  0
  196.5100  172.6790  145.5310 C   0  0  0  0  0  0  0  0  0  0  0  0
  195.6210  171.5190  145.7910 C   0  0  0  0  0  0  0  0  0  0  0  0
  194.3770  171.6900  145.7090 O   0  0  0  0  0  0  0  0  0  0  0  0
  196.0870  170.2370  146.1120 O   0  0  0  0  0  0  0  0  0  0  0  0
  195.3590  169.2870  146.8780 C   0  0  0  0  0  1  0  0  0  0  0  0
  191.2390  176.0650  142.6590 C   0  0  0  0  0  2  0  0  0  0  0  0
  189.7930  175.7000  142.3330 C   0  0  0  0  0  3  0  0  0  0  0  0
  189.2660  174.6120  143.2520 C   0  0  0  0  0  1  0  0  0  0  0  0
  188.8880  176.9170  142.3860 C   0  0  0  0  0  1  0  0  0  0  0  0
  1 15  1  1  0  0  0
  1  7  1  0  0  0  0
  2 12  2  0  0  0  0
  3 10  1  0  0  0  0
  4  7  1  0  0  0  0
  6  1  1  0  0  0  0
  8  2  2  0  0  0  0
  8 23  1  0  0  0  0
  9  5  1  6  0  0  0
  9  3  1  0  0  0  0
  9 11  1  0  0  0  0
 10 13  1  0  0  0  0
 11 22  1  6  0  0  0
 11  8  1  0  0  0  0
 12  4  1  0  0  0  0
 13  6  1  1  0  0  0
 13 12  1  0  0  0  0
 14 19  1  0  0  0  0
 14 15  1  0  0  0  0
 15 17  2  0  0  0  0
 16 19  1  0  0  0  0
 19 18  2  0  0  0  0
 21 22  2  0  0  0  0
 22 20  1  0  0  0  0
 24 25  2  0  0  0  0
 25 26  1  0  0  0  0
 25 23  1  0  0  0  0
 26 28  1  0  0  0  0
 27 26  2  0  0  0  0
 28 29  1  0  0  0  0
 30 10  1  0  0  0  0
 31 33  1  0  0  0  0
 31 30  1  0  0  0  0
 31 32  1  0  0  0  0
M  END
>  <MODEL>
7

>  <REMARK>
 VINA RESULT:      -6.5      3.509      9.058
  Name = 
  8 active torsions:
  status: ('A' for Active; 'I' for Inactive)
    1  A    between atoms: C_2  and  C_9
    2  A    between atoms: C_3  and  C_19
    3  A    between atoms: C_4  and  C_10
    4  A    between atoms: C_4  and  C_22
    5  A    between atoms: C_10  and  C_13
    6  A    between atoms: C_13  and  O_20
    7  A    between atoms: C_19  and  N_27
    8  A    between atoms: C_29  and  C_32
                            x       y       z     vdW  Elec       q    Type
                         _______ _______ _______ _____ _____    ______ ____

>  <TORSDO>
F 8

$$$$
=
 OpenBabel11062421123D

 33 34  0  0  1  0  0  0  0  0999 V2000
  189.0470  176.5530  145.2360 C   0  0  1  0  0  3  0  0  0  0  0  0
  193.0420  176.3380  144.2790 C   0  0  0  0  0  0  0  0  0  0  0  0
  191.9400  174.2600  142.8600 N   0  0  0  0  0  2  0  0  0  0  0  0
  191.3840  176.7800  145.8730 O   0  0  0  0  0  0  0  0  0  0  0  0
  192.9170  174.0310  140.6410 C   0  0  0  0  0  1  0  0  0  0  0  0
  189.4360  176.9120  143.8050 C   0  0  0  0  0  2  0  0  0  0  0  0
  190.0540  177.1870  146.1910 C   0  0  0  0  0  2  0  0  0  0  0  0
  194.1860  175.9830  143.7740 C   0  0  0  0  0  0  0  0  0  0  0  0
  192.7920  174.9320  141.8590 C   0  0  2  0  0  3  0  0  0  0  0  0
  190.6790  174.9020  143.0330 N   0  0  0  0  0  0  0  0  0  0  0  0
  194.1990  175.2490  142.4440 C   0  0  1  0  0  3  0  0  0  0  0  0
  191.7920  176.5330  144.5600 C   0  0  0  0  0  0  0  0  0  0  0  0
  190.8040  176.3250  143.4340 C   0  0  2  0  0  3  0  0  0  0  0  0
  187.1120  178.1230  144.7720 N   0  0  0  0  0  2  0  0  0  0  0  0
  187.6720  177.0460  145.5390 C   0  0  0  0  0  0  0  0  0  0  0  0
  185.3900  179.8210  144.0730 C   0  0  0  0  0  1  0  0  0  0  0  0
  187.0140  176.4980  146.4640 O   0  0  0  0  0  0  0  0  0  0  0  0
  184.9790  178.2190  145.8120 N   0  0  0  0  0  2  0  0  0  0  0  0
  185.8150  178.7040  144.9540 C   0  0  0  0  0  0  0  0  0  0  0  0
  196.2220  175.4890  140.9980 O   0  0  0  0  0  1  0  0  0  0  0  0
  194.6060  177.1150  140.9910 O   0  0  0  0  0  0  0  0  0  0  0  0
  195.0190  176.0150  141.4480 C   0  0  0  0  0  0  0  0  0  0  0  0
  195.4360  176.1360  144.5790 C   0  0  0  0  0  2  0  0  0  0  0  0
  194.8340  175.6390  146.8170 O   0  0  0  0  0  0  0  0  0  0  0  0
  195.4160  175.2360  145.7720 C   0  0  0  0  0  0  0  0  0  0  0  0
  196.0130  173.8770  145.7580 C   0  0  0  0  0  0  0  0  0  0  0  0
  197.1900  173.7380  146.1820 O   0  0  0  0  0  0  0  0  0  0  0  0
  195.3380  172.7340  145.3090 O   0  0  0  0  0  0  0  0  0  0  0  0
  193.9330  172.5440  145.3970 C   0  0  0  0  0  1  0  0  0  0  0  0
  189.9190  174.8020  141.7830 C   0  0  0  0  0  2  0  0  0  0  0  0
  188.8270  173.7390  141.8740 C   0  0  0  0  0  3  0  0  0  0  0  0
  187.4490  174.3580  142.0260 C   0  0  0  0  0  1  0  0  0  0  0  0
  188.8570  172.8090  140.6750 C   0  0  0  0  0  1  0  0  0  0  0  0
  1 15  1  1  0  0  0
  1  7  1  0  0  0  0
  2 12  2  0  0  0  0
  3 10  1  0  0  0  0
  4  7  1  0  0  0  0
  6  1  1  0  0  0  0
  8  2  2  0  0  0  0
  8 23  1  0  0  0  0
  9  5  1  6  0  0  0
  9 11  1  0  0  0  0
  9  3  1  0  0  0  0
 10 13  1  0  0  0  0
 11 22  1  6  0  0  0
 11  8  1  0  0  0  0
 12  4  1  0  0  0  0
 13  6  1  1  0  0  0
 13 12  1  0  0  0  0
 14 19  1  0  0  0  0
 14 15  1  0  0  0  0
 15 17  2  0  0  0  0
 16 19  1  0  0  0  0
 19 18  2  0  0  0  0
 20 22  1  0  0  0  0
 21 22  2  0  0  0  0
 23 25  1  0  0  0  0
 25 24  2  0  0  0  0
 26 25  1  0  0  0  0
 26 27  2  0  0  0  0
 28 29  1  0  0  0  0
 28 26  1  0  0  0  0
 30 31  1  0  0  0  0
 30 10  1  0  0  0  0
 31 32  1  0  0  0  0
 33 31  1  0  0  0  0
M  END
>  <MODEL>
8

>  <REMARK>
 VINA RESULT:      -6.5      3.158      8.579
  Name = 
  8 active torsions:
  status: ('A' for Active; 'I' for Inactive)
    1  A    between atoms: C_2  and  C_9
    2  A    between atoms: C_3  and  C_19
    3  A    between atoms: C_4  and  C_10
    4  A    between atoms: C_4  and  C_22
    5  A    between atoms: C_10  and  C_13
    6  A    between atoms: C_13  and  O_20
    7  A    between atoms: C_19  and  N_27
    8  A    between atoms: C_29  and  C_32
                            x       y       z     vdW  Elec       q    Type
                         _______ _______ _______ _____ _____    ______ ____

>  <TORSDO>
F 8

$$$$
=
 OpenBabel11062421123D

 33 34  0  0  1  0  0  0  0  0999 V2000
  188.2130  176.5750  144.3900 C   0  0  1  0  0  3  0  0  0  0  0  0
  188.6250  173.7990  141.3830 C   0  0  0  0  0  0  0  0  0  0  0  0
  191.1820  174.7450  141.7250 N   0  0  0  0  0  2  0  0  0  0  0  0
  187.3410  175.4700  142.4060 O   0  0  0  0  0  0  0  0  0  0  0  0
  192.8530  172.9800  141.5620 C   0  0  0  0  0  1  0  0  0  0  0  0
  188.9750  175.2970  144.7280 C   0  0  0  0  0  2  0  0  0  0  0  0
  186.9790  176.2080  143.5720 C   0  0  0  0  0  2  0  0  0  0  0  0
  189.1110  173.0290  140.4540 C   0  0  0  0  0  0  0  0  0  0  0  0
  191.3690  173.2810  141.6990 C   0  0  2  0  0  3  0  0  0  0  0  0
  190.7600  175.2260  142.9980 N   0  0  0  0  0  0  0  0  0  0  0  0
  190.5750  172.6350  140.5260 C   0  0  1  0  0  3  0  0  0  0  0  0
  188.4240  174.5860  142.3920 C   0  0  0  0  0  0  0  0  0  0  0  0
  189.4940  174.6050  143.4610 C   0  0  2  0  0  3  0  0  0  0  0  0
  186.4370  177.6540  145.8420 N   0  0  0  0  0  2  0  0  0  0  0  0
  187.8090  177.2830  145.6400 C   0  0  0  0  0  0  0  0  0  0  0  0
  184.4560  178.6550  147.0300 C   0  0  0  0  0  1  0  0  0  0  0  0
  188.6840  177.5390  146.5090 O   0  0  0  0  0  0  0  0  0  0  0  0
  186.6510  178.6200  148.0010 N   0  0  0  0  0  2  0  0  0  0  0  0
  185.9070  178.3420  146.9810 C   0  0  0  0  0  0  0  0  0  0  0  0
  191.1350  170.4520  139.4470 O   0  0  0  0  0  0  0  0  0  0  0  0
  190.4420  170.5100  141.6320 O   0  0  0  0  0  1  0  0  0  0  0  0
  190.6990  171.1410  140.5710 C   0  0  0  0  0  0  0  0  0  0  0  0
  188.2840  172.6970  139.2540 C   0  0  0  0  0  2  0  0  0  0  0  0
  187.8110  174.7700  138.2050 O   0  0  0  0  0  0  0  0  0  0  0  0
  188.4870  173.7060  138.1690 C   0  0  0  0  0  0  0  0  0  0  0  0
  189.4840  173.5220  137.0850 C   0  0  0  0  0  0  0  0  0  0  0  0
  190.0450  172.4000  136.9740 O   0  0  0  0  0  0  0  0  0  0  0  0
  189.8310  174.5210  136.1660 O   0  0  0  0  0  0  0  0  0  0  0  0
  191.1650  174.8910  135.8470 C   0  0  0  0  0  1  0  0  0  0  0  0
  191.8230  174.9790  143.9770 C   0  0  0  0  0  2  0  0  0  0  0  0
  192.4480  176.2820  144.4670 C   0  0  0  0  0  3  0  0  0  0  0  0
  191.8190  177.4930  143.8030 C   0  0  0  0  0  1  0  0  0  0  0  0
  192.3600  176.4050  145.9770 C   0  0  0  0  0  1  0  0  0  0  0  0
  1  6  1  0  0  0  0
  1 15  1  1  0  0  0
  2 12  2  0  0  0  0
  3 10  1  0  0  0  0
  4  7  1  0  0  0  0
  7  1  1  0  0  0  0
  8 11  1  0  0  0  0
  8  2  2  0  0  0  0
  9  5  1  6  0  0  0
  9  3  1  0  0  0  0
 10 13  1  0  0  0  0
 10 30  1  0  0  0  0
 11 22  1  1  0  0  0
 11  9  1  0  0  0  0
 12  4  1  0  0  0  0
 12 13  1  0  0  0  0
 13  6  1  1  0  0  0
 14 19  1  0  0  0  0
 15 14  1  0  0  0  0
 15 17  2  0  0  0  0
 19 16  1  0  0  0  0
 19 18  2  0  0  0  0
 20 22  2  0  0  0  0
 22 21  1  0  0  0  0
 23  8  1  0  0  0  0
 25 24  2  0  0  0  0
 25 23  1  0  0  0  0
 26 25  1  0  0  0  0
 27 26  2  0  0  0  0
 28 26  1  0  0  0  0
 29 28  1  0  0  0  0
 30 31  1  0  0  0  0
 31 33  1  0  0  0  0
 32 31  1  0  0  0  0
M  END
>  <MODEL>
9

>  <REMARK>
 VINA RESULT:      -6.3      3.551      6.939
  Name = 
  8 active torsions:
  status: ('A' for Active; 'I' for Inactive)
    1  A    between atoms: C_2  and  C_9
    2  A    between atoms: C_3  and  C_19
    3  A    between atoms: C_4  and  C_10
    4  A    between atoms: C_4  and  C_22
    5  A    between atoms: C_10  and  C_13
    6  A    between atoms: C_13  and  O_20
    7  A    between atoms: C_19  and  N_27
    8  A    between atoms: C_29  and  C_32
                            x       y       z     vdW  Elec       q    Type
                         _______ _______ _______ _____ _____    ______ ____

>  <TORSDO>
F 8

$$$$
