=
 OpenBabel11062421223D

 51 57  0  0  1  0  0  0  0  0999 V2000
  188.1920  174.6260  139.0010 O   0  0  0  0  0  1  0  0  0  0  0  0
  188.8460  172.3450  138.7080 C   0  0  0  0  0  2  0  0  0  0  0  0
  189.7290  173.0910  143.6970 C   0  0  0  0  0  2  0  0  0  0  0  0
  189.2930  173.5790  140.9090 C   0  0  2  0  0  3  0  0  0  0  0  0
  192.5700  173.5220  138.7980 C   0  0  0  0  0  1  0  0  0  0  0  0
  189.7530  174.4750  143.9290 O   0  0  0  0  0  0  0  0  0  0  0  0
  190.7790  173.2810  140.5660 C   0  0  2  0  0  3  0  0  0  0  0  0
  191.7770  171.5080  142.0100 C   0  0  0  0  0  0  0  0  0  0  0  0
  191.0750  173.5630  139.0920 C   0  0  2  0  0  3  0  0  0  0  0  0
  189.9800  175.1920  142.7240 C   0  0  2  0  0  3  0  0  0  0  0  0
  190.9110  171.4370  137.9220 O   0  0  0  0  0  1  0  0  0  0  0  0
  192.0800  172.4780  143.1250 C   0  0  1  0  0  3  0  0  0  0  0  0
  192.0930  170.2890  142.1250 O   0  0  0  0  0  0  0  0  0  0  0  0
  188.3480  173.4170  139.6810 C   0  0  1  0  0  3  0  0  0  0  0  0
  190.2540  172.6490  138.1520 C   0  0  1  0  0  3  0  0  0  0  0  0
  191.0040  172.4400  144.2020 C   0  0  0  0  0  2  0  0  0  0  0  0
  191.0850  171.9210  140.8620 O   0  0  0  0  0  0  0  0  0  0  0  0
  189.0920  174.8930  141.5710 N   0  0  0  0  0  0  0  0  0  0  0  0
  196.0260  172.1050  144.8030 C   0  0  0  0  0  3  0  0  0  0  0  0
  194.9110  172.0430  145.6450 C   0  0  0  0  0  3  0  0  0  0  0  0
  193.6220  172.1470  145.1080 C   0  0  0  0  0  3  0  0  0  0  0  0
  194.5570  172.3710  142.8920 C   0  0  0  0  0  3  0  0  0  0  0  0
  193.4410  172.3010  143.7240 C   0  0  0  0  0  0  0  0  0  0  0  0
  195.8540  172.2680  143.4250 C   0  0  0  0  0  0  0  0  0  0  0  0
  196.6400  172.2370  141.0910 C   0  0  0  0  0  1  0  0  0  0  0  0
  197.0460  172.4380  142.5440 C   0  0  0  0  0  2  0  0  0  0  0  0
  191.3870  175.2930  142.3570 N   0  0  0  0  0  2  0  0  0  0  0  0
  192.4030  175.6690  143.2560 N   0  0  0  0  0  0  0  0  0  0  0  0
  194.3150  175.6190  141.6930 C   0  0  0  0  0  3  0  0  0  0  0  0
  193.7380  176.6620  146.3700 N   0  0  0  0  0  0  0  0  0  0  0  0
  192.6560  176.6980  147.2100 C   0  0  0  0  0  3  0  0  0  0  0  0
  196.4470  176.2350  142.7370 C   0  0  0  0  0  3  0  0  0  0  0  0
  191.1750  176.0080  145.3910 C   0  0  0  0  0  3  0  0  0  0  0  0
  195.8190  176.4250  143.9810 C   0  0  0  0  0  3  0  0  0  0  0  0
  195.7010  175.8370  141.6010 C   0  0  0  0  0  3  0  0  0  0  0  0
  194.4480  176.2030  144.0430 C   0  0  0  0  0  0  0  0  0  0  0  0
  193.7120  175.8060  142.9410 C   0  0  0  0  0  0  0  0  0  0  0  0
  193.5440  176.3050  145.0760 C   0  0  0  0  0  0  0  0  0  0  0  0
  191.3630  176.3730  146.7370 C   0  0  0  0  0  3  0  0  0  0  0  0
  192.3030  175.9770  144.5740 C   0  0  0  0  0  0  0  0  0  0  0  0
  187.7040  175.0000  142.0280 C   0  0  0  0  0  2  0  0  0  0  0  0
  187.1360  176.3750  141.7120 C   0  0  0  0  0  2  0  0  0  0  0  0
  186.2350  176.7700  142.7030 O   0  0  0  0  0  0  0  0  0  0  0  0
  186.6530  178.0490  143.0760 C   0  0  0  0  0  2  0  0  0  0  0  0
  185.6600  178.9570  145.1480 C   0  0  0  0  0  3  0  0  0  0  0  0
  185.7350  177.6230  147.2600 C   0  0  1  0  0  3  0  0  0  0  0  0
  186.0170  177.7250  148.6080 F   0  0  0  0  0  0  0  0  0  0  0  0
  185.6100  179.0290  146.6490 C   0  0  0  0  0  2  0  0  0  0  0  0
  186.5990  178.1960  144.5650 C   0  0  0  0  0  0  0  0  0  0  0  0
  187.5490  177.4130  145.4300 C   0  0  0  0  0  2  0  0  0  0  0  0
  186.7880  176.7220  146.5720 C   0  0  0  0  0  2  0  0  0  0  0  0
  2 14  1  0  0  0  0
  3  6  1  0  0  0  0
  3 16  1  0  0  0  0
  4 18  1  6  0  0  0
  7 17  1  6  0  0  0
  7  4  1  0  0  0  0
  8 13  2  0  0  0  0
  8 12  1  0  0  0  0
  9  5  1  1  0  0  0
  9  7  1  0  0  0  0
 10 27  1  6  0  0  0
 10  6  1  0  0  0  0
 12 23  1  1  0  0  0
 12 16  1  0  0  0  0
 14  1  1  6  0  0  0
 14  4  1  0  0  0  0
 15 11  1  1  0  0  0
 15  2  1  0  0  0  0
 15  9  1  0  0  0  0
 17  8  1  0  0  0  0
 18 41  1  0  0  0  0
 18 10  1  0  0  0  0
 19 20  1  0  0  0  0
 21 20  2  0  0  0  0
 22 24  1  0  0  0  0
 22 23  2  0  0  0  0
 23 21  1  0  0  0  0
 24 19  2  0  0  0  0
 25 26  1  0  0  0  0
 26 24  1  0  0  0  0
 27 28  1  0  0  0  0
 28 40  1  0  0  0  0
 29 37  1  0  0  0  0
 30 31  1  0  0  0  0
 32 34  2  0  0  0  0
 33 39  1  0  0  0  0
 34 36  1  0  0  0  0
 35 29  2  0  0  0  0
 35 32  1  0  0  0  0
 36 38  1  0  0  0  0
 37 28  1  0  0  0  0
 37 36  2  0  0  0  0
 38 30  2  0  0  0  0
 39 31  2  0  0  0  0
 40 38  1  0  0  0  0
 40 33  2  0  0  0  0
 42 41  1  0  0  0  0
 42 43  1  0  0  0  0
 43 44  1  0  0  0  0
 44 49  1  0  0  0  0
 45 48  1  0  0  0  0
 46 47  1  1  0  0  0
 48 46  1  0  0  0  0
 49 45  2  0  0  0  0
 49 50  1  0  0  0  0
 50 51  1  0  0  0  0
 51 46  1  0  0  0  0
M  END
>  <MODEL>
1

>  <REMARK>
 VINA RESULT:      -8.7      0.000      0.000
  Name = 
  9 active torsions:
  status: ('A' for Active; 'I' for Inactive)
    1  A    between atoms: N_2  and  N_6
    2  A    between atoms: N_2  and  C_27
    3  A    between atoms: C_3  and  C_30
    4  A    between atoms: C_3  and  N_51
    5  A    between atoms: O_13  and  C_22
    6  A    between atoms: O_13  and  C_30
    7  A    between atoms: C_21  and  C_22
    8  A    between atoms: C_32  and  C_43
    9  A    between atoms: C_47  and  C_49
                            x       y       z     vdW  Elec       q    Type
                         _______ _______ _______ _____ _____    ______ ____

>  <TORSDO>
F 9

$$$$
=
 OpenBabel11062421223D

 51 57  0  0  1  0  0  0  0  0999 V2000
  188.5540  174.4790  139.0560 O   0  0  0  0  0  1  0  0  0  0  0  0
  188.9050  172.1280  138.7870 C   0  0  0  0  0  2  0  0  0  0  0  0
  189.6300  172.7610  143.8170 C   0  0  0  0  0  2  0  0  0  0  0  0
  189.4050  173.2960  141.0120 C   0  0  2  0  0  3  0  0  0  0  0  0
  192.7450  172.7860  139.0680 C   0  0  0  0  0  1  0  0  0  0  0  0
  189.8310  174.1290  144.0550 O   0  0  0  0  0  0  0  0  0  0  0  0
  190.8510  172.7970  140.7440 C   0  0  2  0  0  3  0  0  0  0  0  0
  191.5250  170.9080  142.2280 C   0  0  0  0  0  0  0  0  0  0  0  0
  191.2570  173.0320  139.2870 C   0  0  2  0  0  3  0  0  0  0  0  0
  190.2140  174.8050  142.8660 C   0  0  2  0  0  3  0  0  0  0  0  0
  190.8640  170.9450  138.1010 O   0  0  0  0  0  1  0  0  0  0  0  0
  191.9010  171.8310  143.3610 C   0  0  1  0  0  3  0  0  0  0  0  0
  191.6650  169.6580  142.3540 O   0  0  0  0  0  0  0  0  0  0  0  0
  188.5090  173.2610  139.7380 C   0  0  1  0  0  3  0  0  0  0  0  0
  190.3670  172.2360  138.3040 C   0  0  1  0  0  3  0  0  0  0  0  0
  190.7770  171.9440  144.3820 C   0  0  0  0  0  2  0  0  0  0  0  0
  190.9540  171.4090  141.0490 O   0  0  0  0  0  0  0  0  0  0  0  0
  189.3520  174.6270  141.6690 N   0  0  0  0  0  0  0  0  0  0  0  0
  195.6020  170.9170  145.3600 C   0  0  0  0  0  3  0  0  0  0  0  0
  194.5320  170.0210  145.4490 C   0  0  0  0  0  3  0  0  0  0  0  0
  193.3270  170.3010  144.7890 C   0  0  0  0  0  3  0  0  0  0  0  0
  194.2610  172.3640  143.9500 C   0  0  0  0  0  3  0  0  0  0  0  0
  193.1940  171.4720  144.0270 C   0  0  0  0  0  0  0  0  0  0  0  0
  195.4710  172.0900  144.6100 C   0  0  0  0  0  0  0  0  0  0  0  0
  196.6650  173.7640  145.9660 C   0  0  0  0  0  1  0  0  0  0  0  0
  196.5770  173.0910  144.6030 C   0  0  0  0  0  2  0  0  0  0  0  0
  191.6380  174.7120  142.5710 N   0  0  0  0  0  2  0  0  0  0  0  0
  192.6380  175.3340  143.3430 N   0  0  0  0  0  0  0  0  0  0  0  0
  191.4100  175.4860  145.4810 C   0  0  0  0  0  3  0  0  0  0  0  0
  195.8240  176.7200  143.9670 N   0  0  0  0  0  0  0  0  0  0  0  0
  196.4860  176.6070  142.7730 C   0  0  0  0  0  3  0  0  0  0  0  0
  192.7160  176.5100  147.2860 C   0  0  0  0  0  3  0  0  0  0  0  0
  194.5300  175.5580  141.7470 C   0  0  0  0  0  3  0  0  0  0  0  0
  193.8190  176.6870  146.4320 C   0  0  0  0  0  3  0  0  0  0  0  0
  191.5210  175.9120  146.8160 C   0  0  0  0  0  3  0  0  0  0  0  0
  193.6810  176.2540  145.1170 C   0  0  0  0  0  0  0  0  0  0  0  0
  192.5160  175.6770  144.6450 C   0  0  0  0  0  0  0  0  0  0  0  0
  194.5480  176.2680  144.0470 C   0  0  0  0  0  0  0  0  0  0  0  0
  195.8530  176.0270  141.6480 C   0  0  0  0  0  3  0  0  0  0  0  0
  193.8920  175.7000  142.9770 C   0  0  0  0  0  0  0  0  0  0  0  0
  187.9700  174.9240  142.0560 C   0  0  0  0  0  2  0  0  0  0  0  0
  187.6080  176.3580  141.7050 C   0  0  0  0  0  2  0  0  0  0  0  0
  186.5900  176.8230  142.5410 O   0  0  0  0  0  0  0  0  0  0  0  0
  187.0370  178.0660  142.9920 C   0  0  0  0  0  2  0  0  0  0  0  0
  185.8830  178.9260  144.9990 C   0  0  0  0  0  3  0  0  0  0  0  0
  185.7720  177.5340  147.0710 C   0  0  1  0  0  3  0  0  0  0  0  0
  185.9430  177.5950  148.4400 F   0  0  0  0  0  0  0  0  0  0  0  0
  185.7100  178.9570  146.4920 C   0  0  0  0  0  2  0  0  0  0  0  0
  186.8610  178.1720  144.4750 C   0  0  0  0  0  0  0  0  0  0  0  0
  187.7300  177.3560  145.3920 C   0  0  0  0  0  2  0  0  0  0  0  0
  186.8720  176.6410  146.4470 C   0  0  0  0  0  2  0  0  0  0  0  0
  2 14  1  0  0  0  0
  3  6  1  0  0  0  0
  3 16  1  0  0  0  0
  4 18  1  6  0  0  0
  7  4  1  0  0  0  0
  7 17  1  6  0  0  0
  8 13  2  0  0  0  0
  8 12  1  0  0  0  0
  9  5  1  1  0  0  0
  9  7  1  0  0  0  0
 10 27  1  6  0  0  0
 10  6  1  0  0  0  0
 12 23  1  1  0  0  0
 12 16  1  0  0  0  0
 14  1  1  6  0  0  0
 14  4  1  0  0  0  0
 15 11  1  1  0  0  0
 15  2  1  0  0  0  0
 15  9  1  0  0  0  0
 17  8  1  0  0  0  0
 18 41  1  0  0  0  0
 18 10  1  0  0  0  0
 19 20  1  0  0  0  0
 21 20  2  0  0  0  0
 22 23  2  0  0  0  0
 22 24  1  0  0  0  0
 23 21  1  0  0  0  0
 24 19  2  0  0  0  0
 26 24  1  0  0  0  0
 26 25  1  0  0  0  0
 27 28  1  0  0  0  0
 28 37  1  0  0  0  0
 29 35  1  0  0  0  0
 30 38  1  0  0  0  0
 31 30  2  0  0  0  0
 33 40  1  0  0  0  0
 34 32  1  0  0  0  0
 35 32  2  0  0  0  0
 36 34  2  0  0  0  0
 37 36  1  0  0  0  0
 37 29  2  0  0  0  0
 38 36  1  0  0  0  0
 39 33  2  0  0  0  0
 39 31  1  0  0  0  0
 40 28  1  0  0  0  0
 40 38  2  0  0  0  0
 42 41  1  0  0  0  0
 42 43  1  0  0  0  0
 43 44  1  0  0  0  0
 44 49  1  0  0  0  0
 45 48  1  0  0  0  0
 46 47  1  1  0  0  0
 48 46  1  0  0  0  0
 49 45  2  0  0  0  0
 49 50  1  0  0  0  0
 50 51  1  0  0  0  0
 51 46  1  0  0  0  0
M  END
>  <MODEL>
2

>  <REMARK>
 VINA RESULT:      -8.6      0.934      2.393
  Name = 
  9 active torsions:
  status: ('A' for Active; 'I' for Inactive)
    1  A    between atoms: N_2  and  N_6
    2  A    between atoms: N_2  and  C_27
    3  A    between atoms: C_3  and  C_30
    4  A    between atoms: C_3  and  N_51
    5  A    between atoms: O_13  and  C_22
    6  A    between atoms: O_13  and  C_30
    7  A    between atoms: C_21  and  C_22
    8  A    between atoms: C_32  and  C_43
    9  A    between atoms: C_47  and  C_49
                            x       y       z     vdW  Elec       q    Type
                         _______ _______ _______ _____ _____    ______ ____

>  <TORSDO>
F 9

$$$$
=
 OpenBabel11062421223D

 51 57  0  0  1  0  0  0  0  0999 V2000
  195.6270  172.9870  144.9480 O   0  0  0  0  0  1  0  0  0  0  0  0
  196.5890  171.5010  143.3390 C   0  0  0  0  0  2  0  0  0  0  0  0
  195.5020  175.6200  140.4970 C   0  0  0  0  0  2  0  0  0  0  0  0
  195.4830  173.6980  142.6200 C   0  0  2  0  0  3  0  0  0  0  0  0
  192.9810  170.7680  142.0320 C   0  0  0  0  0  1  0  0  0  0  0  0
  194.5970  176.4150  141.2170 O   0  0  0  0  0  0  0  0  0  0  0  0
  194.5320  172.7550  141.8340 C   0  0  2  0  0  3  0  0  0  0  0  0
  194.9270  172.8000  139.3710 C   0  0  0  0  0  0  0  0  0  0  0  0
  194.1040  171.5610  142.6900 C   0  0  2  0  0  3  0  0  0  0  0  0
  193.9450  175.6610  142.2280 C   0  0  2  0  0  3  0  0  0  0  0  0
  195.5790  169.7160  142.1150 O   0  0  0  0  0  1  0  0  0  0  0  0
  194.0870  174.0390  139.1810 C   0  0  1  0  0  3  0  0  0  0  0  0
  195.4700  172.2420  138.3750 O   0  0  0  0  0  0  0  0  0  0  0  0
  196.2950  172.9540  143.7230 C   0  0  1  0  0  3  0  0  0  0  0  0
  195.3070  170.6770  143.0920 C   0  0  1  0  0  3  0  0  0  0  0  0
  194.9510  175.2920  139.1210 C   0  0  0  0  0  2  0  0  0  0  0  0
  195.1760  172.2870  140.6520 O   0  0  0  0  0  0  0  0  0  0  0  0
  194.8020  174.8980  143.1720 N   0  0  0  0  0  0  0  0  0  0  0  0
  191.3430  173.9110  135.8680 C   0  0  0  0  0  3  0  0  0  0  0  0
  192.5740  174.5560  135.7170 C   0  0  0  0  0  3  0  0  0  0  0  0
  193.4820  174.5910  136.7840 C   0  0  0  0  0  3  0  0  0  0  0  0
  191.9340  173.3350  138.1480 C   0  0  0  0  0  3  0  0  0  0  0  0
  193.1670  173.9680  138.0020 C   0  0  0  0  0  0  0  0  0  0  0  0
  191.0190  173.2970  137.0820 C   0  0  0  0  0  0  0  0  0  0  0  0
  188.6710  173.7970  137.6330 C   0  0  0  0  0  1  0  0  0  0  0  0
  189.6640  172.7020  137.2710 C   0  0  0  0  0  2  0  0  0  0  0  0
  192.7980  174.9020  141.7470 N   0  0  0  0  0  2  0  0  0  0  0  0
  191.4720  175.1540  142.1470 N   0  0  0  0  0  0  0  0  0  0  0  0
  191.8420  177.3000  143.3130 C   0  0  0  0  0  3  0  0  0  0  0  0
  188.0080  174.5180  142.3890 N   0  0  0  0  0  0  0  0  0  0  0  0
  187.8300  173.3350  141.7210 C   0  0  0  0  0  3  0  0  0  0  0  0
  189.7910  178.2740  144.2410 C   0  0  0  0  0  3  0  0  0  0  0  0
  190.2210  173.2160  141.2200 C   0  0  0  0  0  3  0  0  0  0  0  0
  189.0250  177.1950  143.7630 C   0  0  0  0  0  3  0  0  0  0  0  0
  191.1880  178.3270  144.0170 C   0  0  0  0  0  3  0  0  0  0  0  0
  189.6970  176.1950  143.0700 C   0  0  0  0  0  0  0  0  0  0  0  0
  191.0620  176.2330  142.8520 C   0  0  0  0  0  0  0  0  0  0  0  0
  189.2590  175.0340  142.4730 C   0  0  0  0  0  0  0  0  0  0  0  0
  188.9280  172.6680  141.1280 C   0  0  0  0  0  3  0  0  0  0  0  0
  190.3570  174.4160  141.9150 C   0  0  0  0  0  0  0  0  0  0  0  0
  195.8030  175.8160  143.7220 C   0  0  0  0  0  2  0  0  0  0  0  0
  195.1700  176.7660  144.7260 C   0  0  0  0  0  2  0  0  0  0  0  0
  194.9110  176.1030  145.9280 O   0  0  0  0  0  0  0  0  0  0  0  0
  193.8690  176.8230  146.5150 C   0  0  0  0  0  2  0  0  0  0  0  0
  191.5590  176.4080  147.2860 C   0  0  0  0  0  3  0  0  0  0  0  0
  190.1640  174.6590  146.1720 C   0  0  1  0  0  3  0  0  0  0  0  0
  189.3160  173.6020  146.4400 F   0  0  0  0  0  0  0  0  0  0  0  0
  190.3840  175.4840  147.4510 C   0  0  0  0  0  2  0  0  0  0  0  0
  192.6920  175.9280  146.7510 C   0  0  0  0  0  0  0  0  0  0  0  0
  192.7410  174.4930  146.3020 C   0  0  0  0  0  2  0  0  0  0  0  0
  191.4670  174.1320  145.5240 C   0  0  0  0  0  2  0  0  0  0  0  0
  2 14  1  0  0  0  0
  3  6  1  0  0  0  0
  4 18  1  1  0  0  0
  4 14  1  0  0  0  0
  6 10  1  0  0  0  0
  7 17  1  6  0  0  0
  7  4  1  0  0  0  0
  7  9  1  0  0  0  0
  8 17  1  0  0  0  0
  9  5  1  6  0  0  0
  9 15  1  0  0  0  0
 10 27  1  6  0  0  0
 10 18  1  0  0  0  0
 12 23  1  6  0  0  0
 12  8  1  0  0  0  0
 13  8  2  0  0  0  0
 14  1  1  1  0  0  0
 15 11  1  6  0  0  0
 15  2  1  0  0  0  0
 16 12  1  0  0  0  0
 16  3  1  0  0  0  0
 18 41  1  0  0  0  0
 19 24  1  0  0  0  0
 20 19  2  0  0  0  0
 20 21  1  0  0  0  0
 21 23  2  0  0  0  0
 23 22  1  0  0  0  0
 24 26  1  0  0  0  0
 24 22  2  0  0  0  0
 26 25  1  0  0  0  0
 27 28  1  0  0  0  0
 28 37  1  0  0  0  0
 29 35  1  0  0  0  0
 30 38  1  0  0  0  0
 31 30  2  0  0  0  0
 33 40  1  0  0  0  0
 34 32  1  0  0  0  0
 35 32  2  0  0  0  0
 36 34  2  0  0  0  0
 37 36  1  0  0  0  0
 37 29  2  0  0  0  0
 38 36  1  0  0  0  0
 39 33  2  0  0  0  0
 39 31  1  0  0  0  0
 40 28  1  0  0  0  0
 40 38  2  0  0  0  0
 41 42  1  0  0  0  0
 42 43  1  0  0  0  0
 43 44  1  0  0  0  0
 44 49  1  0  0  0  0
 45 48  1  0  0  0  0
 46 47  1  1  0  0  0
 46 48  1  0  0  0  0
 49 45  2  0  0  0  0
 50 49  1  0  0  0  0
 51 46  1  0  0  0  0
 51 50  1  0  0  0  0
M  END
>  <MODEL>
3

>  <REMARK>
 VINA RESULT:      -8.2      2.913      6.672
  Name = 
  9 active torsions:
  status: ('A' for Active; 'I' for Inactive)
    1  A    between atoms: N_2  and  N_6
    2  A    between atoms: N_2  and  C_27
    3  A    between atoms: C_3  and  C_30
    4  A    between atoms: C_3  and  N_51
    5  A    between atoms: O_13  and  C_22
    6  A    between atoms: O_13  and  C_30
    7  A    between atoms: C_21  and  C_22
    8  A    between atoms: C_32  and  C_43
    9  A    between atoms: C_47  and  C_49
                            x       y       z     vdW  Elec       q    Type
                         _______ _______ _______ _____ _____    ______ ____

>  <TORSDO>
F 9

$$$$
=
 OpenBabel11062421223D

 51 57  0  0  1  0  0  0  0  0999 V2000
  195.6560  173.0970  145.0750 O   0  0  0  0  0  1  0  0  0  0  0  0
  196.6950  171.6240  143.5030 C   0  0  0  0  0  2  0  0  0  0  0  0
  195.5020  175.6590  140.5830 C   0  0  0  0  0  2  0  0  0  0  0  0
  195.5220  173.7690  142.7340 C   0  0  2  0  0  3  0  0  0  0  0  0
  193.1370  170.7410  142.1540 C   0  0  0  0  0  1  0  0  0  0  0  0
  194.5590  176.4300  141.2780 O   0  0  0  0  0  0  0  0  0  0  0  0
  194.6180  172.7800  141.9490 C   0  0  2  0  0  3  0  0  0  0  0  0
  195.0480  172.8030  139.4910 C   0  0  0  0  0  0  0  0  0  0  0  0
  194.2200  171.5840  142.8170 C   0  0  2  0  0  3  0  0  0  0  0  0
  193.9190  175.6680  142.2910 C   0  0  2  0  0  3  0  0  0  0  0  0
  195.7700  169.7850  142.2900 O   0  0  0  0  0  1  0  0  0  0  0  0
  194.1660  174.0080  139.2710 C   0  0  1  0  0  3  0  0  0  0  0  0
  195.6260  172.2520  138.5120 O   0  0  0  0  0  0  0  0  0  0  0  0
  196.3430  173.0700  143.8600 C   0  0  1  0  0  3  0  0  0  0  0  0
  195.4490  170.7500  143.2490 C   0  0  1  0  0  3  0  0  0  0  0  0
  194.9840  175.2910  139.2040 C   0  0  0  0  0  2  0  0  0  0  0  0
  195.2960  172.3180  140.7830 O   0  0  0  0  0  0  0  0  0  0  0  0
  194.7890  174.9500  143.2580 N   0  0  0  0  0  0  0  0  0  0  0  0
  191.4670  173.6880  135.9330 C   0  0  0  0  0  3  0  0  0  0  0  0
  192.4590  174.6740  135.9240 C   0  0  0  0  0  3  0  0  0  0  0  0
  193.3530  174.7780  136.9980 C   0  0  0  0  0  3  0  0  0  0  0  0
  192.2710  172.9120  138.0850 C   0  0  0  0  0  3  0  0  0  0  0  0
  193.2670  173.8860  138.0790 C   0  0  0  0  0  0  0  0  0  0  0  0
  191.3700  172.8030  137.0110 C   0  0  0  0  0  0  0  0  0  0  0  0
  189.6670  171.6330  135.6700 C   0  0  0  0  0  1  0  0  0  0  0  0
  190.2480  171.8220  137.0650 C   0  0  0  0  0  2  0  0  0  0  0  0
  192.8080  174.8600  141.8040 N   0  0  0  0  0  2  0  0  0  0  0  0
  191.4610  175.1080  142.1310 N   0  0  0  0  0  0  0  0  0  0  0  0
  190.4450  173.1550  141.0110 C   0  0  0  0  0  3  0  0  0  0  0  0
  188.7840  176.8510  143.6330 N   0  0  0  0  0  0  0  0  0  0  0  0
  189.3780  177.9160  144.2590 C   0  0  0  0  0  3  0  0  0  0  0  0
  188.0080  173.0410  141.2680 C   0  0  0  0  0  3  0  0  0  0  0  0
  191.5810  177.1850  143.4920 C   0  0  0  0  0  3  0  0  0  0  0  0
  188.0010  174.2240  142.0270 C   0  0  0  0  0  3  0  0  0  0  0  0
  189.2210  172.5090  140.7640 C   0  0  0  0  0  3  0  0  0  0  0  0
  189.2260  174.8410  142.2570 C   0  0  0  0  0  0  0  0  0  0  0  0
  190.4140  174.3350  141.7630 C   0  0  0  0  0  0  0  0  0  0  0  0
  189.5680  175.9800  142.9520 C   0  0  0  0  0  0  0  0  0  0  0  0
  190.7790  178.1000  144.2000 C   0  0  0  0  0  3  0  0  0  0  0  0
  190.9360  176.1220  142.8640 C   0  0  0  0  0  0  0  0  0  0  0  0
  195.7470  175.9120  143.8090 C   0  0  0  0  0  2  0  0  0  0  0  0
  195.0740  176.8260  144.8210 C   0  0  0  0  0  2  0  0  0  0  0  0
  194.8840  176.1570  146.0320 O   0  0  0  0  0  0  0  0  0  0  0  0
  193.8460  176.8450  146.6610 C   0  0  0  0  0  2  0  0  0  0  0  0
  191.5450  176.3890  147.4330 C   0  0  0  0  0  3  0  0  0  0  0  0
  190.1560  174.6660  146.2720 C   0  0  1  0  0  3  0  0  0  0  0  0
  189.3170  173.5940  146.5110 F   0  0  0  0  0  0  0  0  0  0  0  0
  190.3780  175.4510  147.5750 C   0  0  0  0  0  2  0  0  0  0  0  0
  192.6780  175.9350  146.8750 C   0  0  0  0  0  0  0  0  0  0  0  0
  192.7340  174.5150  146.3810 C   0  0  0  0  0  2  0  0  0  0  0  0
  191.4580  174.1690  145.5990 C   0  0  0  0  0  2  0  0  0  0  0  0
  2 14  1  0  0  0  0
  3  6  1  0  0  0  0
  4 18  1  1  0  0  0
  4 14  1  0  0  0  0
  6 10  1  0  0  0  0
  7 17  1  6  0  0  0
  7  4  1  0  0  0  0
  7  9  1  0  0  0  0
  8 17  1  0  0  0  0
  9  5  1  6  0  0  0
  9 15  1  0  0  0  0
 10 27  1  6  0  0  0
 10 18  1  0  0  0  0
 12 23  1  6  0  0  0
 12  8  1  0  0  0  0
 13  8  2  0  0  0  0
 14  1  1  1  0  0  0
 15 11  1  6  0  0  0
 15  2  1  0  0  0  0
 16 12  1  0  0  0  0
 16  3  1  0  0  0  0
 18 41  1  0  0  0  0
 19 24  1  0  0  0  0
 20 19  2  0  0  0  0
 20 21  1  0  0  0  0
 21 23  2  0  0  0  0
 23 22  1  0  0  0  0
 24 26  1  0  0  0  0
 24 22  2  0  0  0  0
 25 26  1  0  0  0  0
 27 28  1  0  0  0  0
 28 40  1  0  0  0  0
 29 37  1  0  0  0  0
 30 31  1  0  0  0  0
 32 34  2  0  0  0  0
 33 39  1  0  0  0  0
 34 36  1  0  0  0  0
 35 29  2  0  0  0  0
 35 32  1  0  0  0  0
 36 38  1  0  0  0  0
 37 28  1  0  0  0  0
 37 36  2  0  0  0  0
 38 30  2  0  0  0  0
 39 31  2  0  0  0  0
 40 38  1  0  0  0  0
 40 33  2  0  0  0  0
 41 42  1  0  0  0  0
 42 43  1  0  0  0  0
 43 44  1  0  0  0  0
 44 49  1  0  0  0  0
 45 48  1  0  0  0  0
 46 47  1  1  0  0  0
 46 48  1  0  0  0  0
 49 45  2  0  0  0  0
 50 49  1  0  0  0  0
 51 46  1  0  0  0  0
 51 50  1  0  0  0  0
M  END
>  <MODEL>
4

>  <REMARK>
 VINA RESULT:      -8.2      2.931      6.609
  Name = 
  9 active torsions:
  status: ('A' for Active; 'I' for Inactive)
    1  A    between atoms: N_2  and  N_6
    2  A    between atoms: N_2  and  C_27
    3  A    between atoms: C_3  and  C_30
    4  A    between atoms: C_3  and  N_51
    5  A    between atoms: O_13  and  C_22
    6  A    between atoms: O_13  and  C_30
    7  A    between atoms: C_21  and  C_22
    8  A    between atoms: C_32  and  C_43
    9  A    between atoms: C_47  and  C_49
                            x       y       z     vdW  Elec       q    Type
                         _______ _______ _______ _____ _____    ______ ____

>  <TORSDO>
F 9

$$$$
=
 OpenBabel11062421223D

 51 57  0  0  1  0  0  0  0  0999 V2000
  197.6970  172.7720  142.7470 O   0  0  0  0  0  1  0  0  0  0  0  0
  197.9410  174.8420  143.9210 C   0  0  0  0  0  2  0  0  0  0  0  0
  193.3100  173.2730  145.4430 C   0  0  0  0  0  2  0  0  0  0  0  0
  195.7130  173.5770  143.9150 C   0  0  2  0  0  3  0  0  0  0  0  0
  195.5340  176.4730  141.3120 C   0  0  0  0  0  1  0  0  0  0  0  0
  192.8770  172.2780  144.5540 O   0  0  0  0  0  0  0  0  0  0  0  0
  195.1850  174.8710  143.2370 C   0  0  2  0  0  3  0  0  0  0  0  0
  193.7540  176.2510  144.7440 C   0  0  0  0  0  0  0  0  0  0  0  0
  196.1500  175.3620  142.1550 C   0  0  2  0  0  3  0  0  0  0  0  0
  193.5920  172.3410  143.3280 C   0  0  2  0  0  3  0  0  0  0  0  0
  197.5400  177.0760  143.1770 O   0  0  0  0  0  1  0  0  0  0  0  0
  192.5230  175.4270  144.4560 C   0  0  1  0  0  3  0  0  0  0  0  0
  193.6860  177.2440  145.5230 O   0  0  0  0  0  0  0  0  0  0  0  0
  197.2670  173.4680  143.8780 C   0  0  1  0  0  3  0  0  0  0  0  0
  197.5280  175.7480  142.7420 C   0  0  1  0  0  3  0  0  0  0  0  0
  192.2840  174.3870  145.5430 C   0  0  0  0  0  2  0  0  0  0  0  0
  195.0020  175.8930  144.2120 O   0  0  0  0  0  0  0  0  0  0  0  0
  195.0760  172.3370  143.4000 N   0  0  0  0  0  0  0  0  0  0  0  0
  189.0150  177.8590  143.9010 C   0  0  0  0  0  3  0  0  0  0  0  0
  190.0270  177.8790  142.9360 C   0  0  0  0  0  3  0  0  0  0  0  0
  191.1660  177.0800  143.0980 C   0  0  0  0  0  3  0  0  0  0  0  0
  190.2840  176.2380  145.1830 C   0  0  0  0  0  3  0  0  0  0  0  0
  191.2920  176.2460  144.2210 C   0  0  0  0  0  0  0  0  0  0  0  0
  189.1390  177.0380  145.0270 C   0  0  0  0  0  0  0  0  0  0  0  0
  188.1410  175.8090  146.9140 C   0  0  0  0  0  1  0  0  0  0  0  0
  188.1070  177.0970  146.1030 C   0  0  0  0  0  2  0  0  0  0  0  0
  193.0610  173.3220  142.3890 N   0  0  0  0  0  2  0  0  0  0  0  0
  192.1690  173.0030  141.3480 N   0  0  0  0  0  0  0  0  0  0  0  0
  190.0470  173.4000  142.5490 C   0  0  0  0  0  3  0  0  0  0  0  0
  191.2540  172.0330  138.0800 N   0  0  0  0  0  0  0  0  0  0  0  0
  192.4470  171.8380  137.4340 C   0  0  0  0  0  3  0  0  0  0  0  0
  188.0570  173.0080  141.1690 C   0  0  0  0  0  3  0  0  0  0  0  0
  193.6810  172.4390  139.4570 C   0  0  0  0  0  3  0  0  0  0  0  0
  188.8530  172.6560  140.0640 C   0  0  0  0  0  3  0  0  0  0  0  0
  188.6490  173.3780  142.4010 C   0  0  0  0  0  3  0  0  0  0  0  0
  190.2320  172.6870  140.2380 C   0  0  0  0  0  0  0  0  0  0  0  0
  190.8200  173.0400  141.4390 C   0  0  0  0  0  0  0  0  0  0  0  0
  191.2750  172.4180  139.3790 C   0  0  0  0  0  0  0  0  0  0  0  0
  193.6750  172.0370  138.1090 C   0  0  0  0  0  3  0  0  0  0  0  0
  192.4470  172.6190  140.0770 C   0  0  0  0  0  0  0  0  0  0  0  0
  195.4880  171.1990  144.2250 C   0  0  0  0  0  2  0  0  0  0  0  0
  195.4600  169.9100  143.4190 C   0  0  0  0  0  2  0  0  0  0  0  0
  194.3520  169.1370  143.7730 O   0  0  0  0  0  0  0  0  0  0  0  0
  194.2300  168.1960  142.7500 C   0  0  0  0  0  2  0  0  0  0  0  0
  193.3780  168.2990  140.4340 C   0  0  0  0  0  3  0  0  0  0  0  0
  190.9330  168.5990  140.0130 C   0  0  1  0  0  3  0  0  0  0  0  0
  190.0350  169.3210  139.2510 F   0  0  0  0  0  0  0  0  0  0  0  0
  192.3500  168.7660  139.4410 C   0  0  0  0  0  2  0  0  0  0  0  0
  193.2640  168.6810  141.7140 C   0  0  0  0  0  0  0  0  0  0  0  0
  192.0950  169.5370  142.1230 C   0  0  0  0  0  2  0  0  0  0  0  0
  190.7970  169.0020  141.5010 C   0  0  0  0  0  2  0  0  0  0  0  0
  3 16  1  0  0  0  0
  4 18  1  6  0  0  0
  6  3  1  0  0  0  0
  7  4  1  0  0  0  0
  7 17  1  1  0  0  0
  8 13  2  0  0  0  0
  9  5  1  1  0  0  0
  9 15  1  0  0  0  0
  9  7  1  0  0  0  0
 10 27  1  1  0  0  0
 10 18  1  0  0  0  0
 10  6  1  0  0  0  0
 12 23  1  1  0  0  0
 12  8  1  0  0  0  0
 12 16  1  0  0  0  0
 14  1  1  6  0  0  0
 14  4  1  0  0  0  0
 14  2  1  0  0  0  0
 15 11  1  1  0  0  0
 15  2  1  0  0  0  0
 17  8  1  0  0  0  0
 18 41  1  0  0  0  0
 19 24  1  0  0  0  0
 20 21  1  0  0  0  0
 20 19  2  0  0  0  0
 21 23  2  0  0  0  0
 23 22  1  0  0  0  0
 24 22  2  0  0  0  0
 24 26  1  0  0  0  0
 26 25  1  0  0  0  0
 28 37  1  0  0  0  0
 28 27  1  0  0  0  0
 30 38  1  0  0  0  0
 31 30  2  0  0  0  0
 31 39  1  0  0  0  0
 32 35  2  0  0  0  0
 33 40  1  0  0  0  0
 34 36  2  0  0  0  0
 34 32  1  0  0  0  0
 35 29  1  0  0  0  0
 36 37  1  0  0  0  0
 37 29  2  0  0  0  0
 38 40  2  0  0  0  0
 38 36  1  0  0  0  0
 39 33  2  0  0  0  0
 40 28  1  0  0  0  0
 42 43  1  0  0  0  0
 42 41  1  0  0  0  0
 44 43  1  0  0  0  0
 45 49  2  0  0  0  0
 46 47  1  6  0  0  0
 46 51  1  0  0  0  0
 48 46  1  0  0  0  0
 48 45  1  0  0  0  0
 49 50  1  0  0  0  0
 49 44  1  0  0  0  0
 51 50  1  0  0  0  0
M  END
>  <MODEL>
5

>  <REMARK>
 VINA RESULT:      -8.2      3.350      8.597
  Name = 
  9 active torsions:
  status: ('A' for Active; 'I' for Inactive)
    1  A    between atoms: N_2  and  N_6
    2  A    between atoms: N_2  and  C_27
    3  A    between atoms: C_3  and  C_30
    4  A    between atoms: C_3  and  N_51
    5  A    between atoms: O_13  and  C_22
    6  A    between atoms: O_13  and  C_30
    7  A    between atoms: C_21  and  C_22
    8  A    between atoms: C_32  and  C_43
    9  A    between atoms: C_47  and  C_49
                            x       y       z     vdW  Elec       q    Type
                         _______ _______ _______ _____ _____    ______ ____

>  <TORSDO>
F 9

$$$$
=
 OpenBabel11062421223D

 51 57  0  0  1  0  0  0  0  0999 V2000
  188.2950  176.5380  145.5150 O   0  0  0  0  0  1  0  0  0  0  0  0
  189.8780  177.9190  146.6570 C   0  0  0  0  0  2  0  0  0  0  0  0
  192.5400  176.3790  142.5630 C   0  0  0  0  0  2  0  0  0  0  0  0
  190.5700  176.5030  144.6370 C   0  0  2  0  0  3  0  0  0  0  0  0
  191.6450  174.6650  147.9020 C   0  0  0  0  0  1  0  0  0  0  0  0
  191.8790  175.2740  142.0080 O   0  0  0  0  0  0  0  0  0  0  0  0
  191.5240  175.8300  145.6620 C   0  0  2  0  0  3  0  0  0  0  0  0
  193.9160  176.4590  145.3290 C   0  0  0  0  0  0  0  0  0  0  0  0
  190.8070  175.5470  146.9830 C   0  0  2  0  0  3  0  0  0  0  0  0
  191.0040  174.6740  142.9530 C   0  0  2  0  0  3  0  0  0  0  0  0
  191.3310  177.3910  148.4790 O   0  0  0  0  0  1  0  0  0  0  0  0
  194.1170  175.4270  144.2480 C   0  0  1  0  0  3  0  0  0  0  0  0
  194.8770  177.1960  145.6910 O   0  0  0  0  0  0  0  0  0  0  0  0
  189.4340  177.3220  145.3200 C   0  0  1  0  0  3  0  0  0  0  0  0
  190.3290  176.8460  147.6720 C   0  0  1  0  0  3  0  0  0  0  0  0
  193.9910  176.0430  142.8610 C   0  0  0  0  0  2  0  0  0  0  0  0
  192.6520  176.6680  145.9010 O   0  0  0  0  0  0  0  0  0  0  0  0
  190.0210  175.5570  143.6320 N   0  0  0  0  0  0  0  0  0  0  0  0
  197.8650  173.3300  144.5380 C   0  0  0  0  0  3  0  0  0  0  0  0
  197.2600  173.8220  145.6990 C   0  0  0  0  0  3  0  0  0  0  0  0
  196.0320  174.4920  145.6180 C   0  0  0  0  0  3  0  0  0  0  0  0
  196.0110  174.1760  143.2230 C   0  0  0  0  0  3  0  0  0  0  0  0
  195.3980  174.6610  144.3770 C   0  0  0  0  0  0  0  0  0  0  0  0
  197.2430  173.5030  143.2970 C   0  0  0  0  0  0  0  0  0  0  0  0
  197.9300  174.2050  141.0380 C   0  0  0  0  0  1  0  0  0  0  0  0
  197.9410  173.0700  142.0520 C   0  0  0  0  0  2  0  0  0  0  0  0
  191.6660  173.7430  143.8580 N   0  0  0  0  0  2  0  0  0  0  0  0
  192.0640  172.4450  143.4890 N   0  0  0  0  0  0  0  0  0  0  0  0
  193.6810  172.0240  145.3090 C   0  0  0  0  0  3  0  0  0  0  0  0
  192.0400  169.5070  141.5320 N   0  0  0  0  0  0  0  0  0  0  0  0
  191.1260  169.7620  140.5440 C   0  0  0  0  0  3  0  0  0  0  0  0
  194.7250  169.8080  145.1950 C   0  0  0  0  0  3  0  0  0  0  0  0
  190.6960  171.9860  141.4650 C   0  0  0  0  0  3  0  0  0  0  0  0
  193.9980  169.4900  144.0340 C   0  0  0  0  0  3  0  0  0  0  0  0
  194.5670  171.0640  145.8290 C   0  0  0  0  0  3  0  0  0  0  0  0
  193.1280  170.4570  143.5430 C   0  0  0  0  0  0  0  0  0  0  0  0
  192.9720  171.6900  144.1490 C   0  0  0  0  0  0  0  0  0  0  0  0
  192.2780  170.4670  142.4590 C   0  0  0  0  0  0  0  0  0  0  0  0
  190.4410  171.0000  140.4940 C   0  0  0  0  0  3  0  0  0  0  0  0
  191.6380  171.6880  142.4470 C   0  0  0  0  0  0  0  0  0  0  0  0
  189.2970  176.3070  142.6030 C   0  0  0  0  0  2  0  0  0  0  0  0
  188.1040  175.5130  142.0940 C   0  0  0  0  0  2  0  0  0  0  0  0
  187.2920  176.3140  141.2890 O   0  0  0  0  0  0  0  0  0  0  0  0
  187.5670  177.6220  141.6920 C   0  0  0  0  0  2  0  0  0  0  0  0
  185.1630  177.7480  142.2430 C   0  0  0  0  0  3  0  0  0  0  0  0
  184.4410  178.2920  144.5730 C   0  0  1  0  0  3  0  0  0  0  0  0
  183.5640  179.0820  145.2900 F   0  0  0  0  0  0  0  0  0  0  0  0
  184.0440  178.2930  143.0870 C   0  0  0  0  0  2  0  0  0  0  0  0
  186.4140  178.1760  142.4690 C   0  0  0  0  0  0  0  0  0  0  0  0
  186.6640  179.1600  143.5790 C   0  0  0  0  0  2  0  0  0  0  0  0
  185.8950  178.7480  144.8430 C   0  0  0  0  0  2  0  0  0  0  0  0
  2 15  1  0  0  0  0
  3 16  1  0  0  0  0
  4 18  1  1  0  0  0
  4 14  1  0  0  0  0
  4  7  1  0  0  0  0
  6  3  1  0  0  0  0
  6 10  1  0  0  0  0
  7 17  1  1  0  0  0
  7  9  1  0  0  0  0
  8 13  2  0  0  0  0
  8 17  1  0  0  0  0
  9 15  1  0  0  0  0
  9  5  1  1  0  0  0
 10 18  1  0  0  0  0
 10 27  1  1  0  0  0
 12 23  1  6  0  0  0
 12  8  1  0  0  0  0
 14  1  1  1  0  0  0
 14  2  1  0  0  0  0
 15 11  1  6  0  0  0
 16 12  1  0  0  0  0
 19 20  1  0  0  0  0
 21 20  2  0  0  0  0
 22 24  1  0  0  0  0
 22 23  2  0  0  0  0
 23 21  1  0  0  0  0
 24 19  2  0  0  0  0
 25 26  1  0  0  0  0
 26 24  1  0  0  0  0
 28 27  1  0  0  0  0
 28 37  1  0  0  0  0
 29 35  1  0  0  0  0
 30 38  1  0  0  0  0
 31 30  2  0  0  0  0
 32 35  2  0  0  0  0
 33 40  1  0  0  0  0
 34 32  1  0  0  0  0
 36 34  2  0  0  0  0
 36 37  1  0  0  0  0
 37 29  2  0  0  0  0
 38 36  1  0  0  0  0
 39 31  1  0  0  0  0
 39 33  2  0  0  0  0
 40 38  2  0  0  0  0
 40 28  1  0  0  0  0
 41 18  1  0  0  0  0
 42 41  1  0  0  0  0
 43 44  1  0  0  0  0
 43 42  1  0  0  0  0
 44 49  1  0  0  0  0
 45 49  2  0  0  0  0
 45 48  1  0  0  0  0
 46 51  1  0  0  0  0
 46 47  1  1  0  0  0
 48 46  1  0  0  0  0
 49 50  1  0  0  0  0
 50 51  1  0  0  0  0
M  END
>  <MODEL>
6

>  <REMARK>
 VINA RESULT:      -8.2      2.354      5.603
  Name = 
  9 active torsions:
  status: ('A' for Active; 'I' for Inactive)
    1  A    between atoms: N_2  and  N_6
    2  A    between atoms: N_2  and  C_27
    3  A    between atoms: C_3  and  C_30
    4  A    between atoms: C_3  and  N_51
    5  A    between atoms: O_13  and  C_22
    6  A    between atoms: O_13  and  C_30
    7  A    between atoms: C_21  and  C_22
    8  A    between atoms: C_32  and  C_43
    9  A    between atoms: C_47  and  C_49
                            x       y       z     vdW  Elec       q    Type
                         _______ _______ _______ _____ _____    ______ ____

>  <TORSDO>
F 9

$$$$
=
 OpenBabel11062421223D

 51 57  0  0  1  0  0  0  0  0999 V2000
  197.4880  173.0200  142.0880 O   0  0  0  0  0  1  0  0  0  0  0  0
  197.9410  174.8950  143.5010 C   0  0  0  0  0  2  0  0  0  0  0  0
  193.5000  173.1710  145.3810 C   0  0  0  0  0  2  0  0  0  0  0  0
  195.6940  173.6670  143.6090 C   0  0  2  0  0  3  0  0  0  0  0  0
  195.2670  176.9110  141.4890 C   0  0  0  0  0  1  0  0  0  0  0  0
  192.9280  172.3200  144.4230 O   0  0  0  0  0  0  0  0  0  0  0  0
  195.1220  175.0510  143.1960 C   0  0  2  0  0  3  0  0  0  0  0  0
  193.9370  176.2140  145.0590 C   0  0  0  0  0  0  0  0  0  0  0  0
  195.9530  175.6830  142.0780 C   0  0  2  0  0  3  0  0  0  0  0  0
  193.4800  172.5520  143.1360 C   0  0  2  0  0  3  0  0  0  0  0  0
  197.5120  177.2170  143.1420 O   0  0  0  0  0  1  0  0  0  0  0  0
  192.6560  175.4530  144.8210 C   0  0  1  0  0  3  0  0  0  0  0  0
  193.9980  177.0840  145.9730 O   0  0  0  0  0  0  0  0  0  0  0  0
  197.2270  173.5490  143.3530 C   0  0  1  0  0  3  0  0  0  0  0  0
  197.4060  175.9660  142.5280 C   0  0  1  0  0  3  0  0  0  0  0  0
  192.5280  174.2690  145.7710 C   0  0  0  0  0  2  0  0  0  0  0  0
  195.0950  175.9240  144.3220 O   0  0  0  0  0  0  0  0  0  0  0  0
  194.9600  172.5220  143.0110 N   0  0  0  0  0  0  0  0  0  0  0  0
  189.0570  177.8130  144.8820 C   0  0  0  0  0  3  0  0  0  0  0  0
  189.6140  177.3770  146.0880 C   0  0  0  0  0  3  0  0  0  0  0  0
  190.7940  176.6210  146.0810 C   0  0  0  0  0  3  0  0  0  0  0  0
  190.8620  176.7410  143.6700 C   0  0  0  0  0  3  0  0  0  0  0  0
  191.4280  176.3100  144.8680 C   0  0  0  0  0  0  0  0  0  0  0  0
  189.6780  177.4990  143.6700 C   0  0  0  0  0  0  0  0  0  0  0  0
  188.3630  176.6510  141.7680 C   0  0  0  0  0  1  0  0  0  0  0  0
  189.0250  177.8760  142.3830 C   0  0  0  0  0  2  0  0  0  0  0  0
  192.8620  173.6640  142.4240 N   0  0  0  0  0  2  0  0  0  0  0  0
  191.8190  173.5100  141.4910 N   0  0  0  0  0  0  0  0  0  0  0  0
  193.1520  173.6800  139.4180 C   0  0  0  0  0  3  0  0  0  0  0  0
  188.4880  172.9890  140.4480 N   0  0  0  0  0  0  0  0  0  0  0  0
  187.7770  172.8810  141.6140 C   0  0  0  0  0  3  0  0  0  0  0  0
  191.8140  173.4540  137.3750 C   0  0  0  0  0  3  0  0  0  0  0  0
  189.8150  173.1990  142.9270 C   0  0  0  0  0  3  0  0  0  0  0  0
  190.6360  173.2930  138.1270 C   0  0  0  0  0  3  0  0  0  0  0  0
  193.0630  173.6450  138.0150 C   0  0  0  0  0  3  0  0  0  0  0  0
  190.7540  173.3310  139.5120 C   0  0  0  0  0  0  0  0  0  0  0  0
  191.9670  173.5240  140.1460 C   0  0  0  0  0  0  0  0  0  0  0  0
  189.8250  173.1990  140.5200 C   0  0  0  0  0  0  0  0  0  0  0  0
  188.4250  172.9840  142.8680 C   0  0  0  0  0  3  0  0  0  0  0  0
  190.4970  173.3100  141.7180 C   0  0  0  0  0  0  0  0  0  0  0  0
  195.4420  171.2730  143.6050 C   0  0  0  0  0  2  0  0  0  0  0  0
  195.5040  170.1680  142.5610 C   0  0  0  0  0  2  0  0  0  0  0  0
  194.2590  169.5490  142.4310 O   0  0  0  0  0  0  0  0  0  0  0  0
  194.2690  168.9920  141.1520 C   0  0  0  0  0  2  0  0  0  0  0  0
  193.1370  169.4850  139.0120 C   0  0  0  0  0  3  0  0  0  0  0  0
  190.6450  169.3800  138.8620 C   0  0  1  0  0  3  0  0  0  0  0  0
  189.5480  170.0700  138.3840 F   0  0  0  0  0  0  0  0  0  0  0  0
  191.9310  169.9640  138.2540 C   0  0  0  0  0  2  0  0  0  0  0  0
  193.1140  169.5110  140.3530 C   0  0  0  0  0  0  0  0  0  0  0  0
  191.8710  169.9870  141.0560 C   0  0  0  0  0  2  0  0  0  0  0  0
  190.6210  169.3700  140.4100 C   0  0  0  0  0  2  0  0  0  0  0  0
  3 16  1  0  0  0  0
  4 18  1  6  0  0  0
  6  3  1  0  0  0  0
  7  4  1  0  0  0  0
  7 17  1  1  0  0  0
  8 13  2  0  0  0  0
  9  5  1  1  0  0  0
  9 15  1  0  0  0  0
  9  7  1  0  0  0  0
 10 27  1  1  0  0  0
 10  6  1  0  0  0  0
 12 23  1  1  0  0  0
 12  8  1  0  0  0  0
 12 16  1  0  0  0  0
 14  1  1  6  0  0  0
 14  2  1  0  0  0  0
 14  4  1  0  0  0  0
 15 11  1  1  0  0  0
 15  2  1  0  0  0  0
 17  8  1  0  0  0  0
 18 10  1  0  0  0  0
 18 41  1  0  0  0  0
 19 20  1  0  0  0  0
 21 20  2  0  0  0  0
 22 24  1  0  0  0  0
 22 23  2  0  0  0  0
 23 21  1  0  0  0  0
 24 19  2  0  0  0  0
 25 26  1  0  0  0  0
 26 24  1  0  0  0  0
 28 40  1  0  0  0  0
 28 27  1  0  0  0  0
 29 37  1  0  0  0  0
 30 38  2  0  0  0  0
 30 31  1  0  0  0  0
 31 39  2  0  0  0  0
 32 35  1  0  0  0  0
 32 34  2  0  0  0  0
 34 36  1  0  0  0  0
 35 29  2  0  0  0  0
 36 37  2  0  0  0  0
 36 38  1  0  0  0  0
 37 28  1  0  0  0  0
 38 40  1  0  0  0  0
 39 33  1  0  0  0  0
 40 33  2  0  0  0  0
 42 41  1  0  0  0  0
 43 42  1  0  0  0  0
 44 43  1  0  0  0  0
 45 49  2  0  0  0  0
 46 47  1  6  0  0  0
 46 51  1  0  0  0  0
 48 46  1  0  0  0  0
 48 45  1  0  0  0  0
 49 50  1  0  0  0  0
 49 44  1  0  0  0  0
 51 50  1  0  0  0  0
M  END
>  <MODEL>
7

>  <REMARK>
 VINA RESULT:      -8.2      3.273      8.101
  Name = 
  9 active torsions:
  status: ('A' for Active; 'I' for Inactive)
    1  A    between atoms: N_2  and  N_6
    2  A    between atoms: N_2  and  C_27
    3  A    between atoms: C_3  and  C_30
    4  A    between atoms: C_3  and  N_51
    5  A    between atoms: O_13  and  C_22
    6  A    between atoms: O_13  and  C_30
    7  A    between atoms: C_21  and  C_22
    8  A    between atoms: C_32  and  C_43
    9  A    between atoms: C_47  and  C_49
                            x       y       z     vdW  Elec       q    Type
                         _______ _______ _______ _____ _____    ______ ____

>  <TORSDO>
F 9

$$$$
=
 OpenBabel11062421223D

 51 57  0  0  1  0  0  0  0  0999 V2000
  195.2600  172.2950  143.8830 O   0  0  0  0  0  1  0  0  0  0  0  0
  195.1830  174.1240  145.4230 C   0  0  0  0  0  2  0  0  0  0  0  0
  190.2240  172.9830  144.8500 C   0  0  0  0  0  2  0  0  0  0  0  0
  193.0420  173.1800  144.3790 C   0  0  2  0  0  3  0  0  0  0  0  0
  194.0660  176.4170  142.4630 C   0  0  0  0  0  1  0  0  0  0  0  0
  190.0930  172.1920  143.6980 O   0  0  0  0  0  0  0  0  0  0  0  0
  192.9020  174.6170  143.8040 C   0  0  2  0  0  3  0  0  0  0  0  0
  191.1060  175.9440  144.9150 C   0  0  0  0  0  0  0  0  0  0  0  0
  194.2370  175.1250  143.2540 C   0  0  2  0  0  3  0  0  0  0  0  0
  191.2220  172.3340  142.8480 C   0  0  2  0  0  3  0  0  0  0  0  0
  195.2500  176.4760  145.0050 O   0  0  0  0  0  1  0  0  0  0  0  0
  190.0220  175.3410  144.0550 C   0  0  1  0  0  3  0  0  0  0  0  0
  190.8160  176.8160  145.7830 O   0  0  0  0  0  0  0  0  0  0  0  0
  194.4820  172.8730  144.8890 C   0  0  1  0  0  3  0  0  0  0  0  0
  195.3120  175.2370  144.3600 C   0  0  1  0  0  3  0  0  0  0  0  0
  189.3160  174.1970  144.7720 C   0  0  0  0  0  2  0  0  0  0  0  0
  192.4340  175.5040  144.8150 O   0  0  0  0  0  0  0  0  0  0  0  0
  192.5630  172.1230  143.4510 N   0  0  0  0  0  0  0  0  0  0  0  0
  187.1900  178.2910  142.7110 C   0  0  0  0  0  3  0  0  0  0  0  0
  188.3940  178.1260  142.0180 C   0  0  0  0  0  3  0  0  0  0  0  0
  189.3160  177.1580  142.4370 C   0  0  0  0  0  3  0  0  0  0  0  0
  187.8350  176.5170  144.2340 C   0  0  0  0  0  3  0  0  0  0  0  0
  189.0320  176.3420  143.5430 C   0  0  0  0  0  0  0  0  0  0  0  0
  186.9050  177.4870  143.8190 C   0  0  0  0  0  0  0  0  0  0  0  0
  185.6310  176.7910  145.8080 C   0  0  0  0  0  1  0  0  0  0  0  0
  185.6690  177.7370  144.6160 C   0  0  0  0  0  2  0  0  0  0  0  0
  191.1570  173.5010  141.9770 N   0  0  0  0  0  2  0  0  0  0  0  0
  191.3680  173.4490  140.5860 N   0  0  0  0  0  0  0  0  0  0  0  0
  189.0150  173.6220  139.8520 C   0  0  0  0  0  3  0  0  0  0  0  0
  193.2840  173.2660  137.6270 N   0  0  0  0  0  0  0  0  0  0  0  0
  194.5800  173.1880  138.0640 C   0  0  0  0  0  3  0  0  0  0  0  0
  188.7500  173.6050  137.4140 C   0  0  0  0  0  3  0  0  0  0  0  0
  193.8400  173.2850  140.3920 C   0  0  0  0  0  3  0  0  0  0  0  0
  190.1400  173.4900  137.2310 C   0  0  0  0  0  3  0  0  0  0  0  0
  188.1910  173.6720  138.7130 C   0  0  0  0  0  3  0  0  0  0  0  0
  190.9300  173.4440  138.3740 C   0  0  0  0  0  0  0  0  0  0  0  0
  190.3950  173.5000  139.6480 C   0  0  0  0  0  0  0  0  0  0  0  0
  192.2930  173.3470  138.5490 C   0  0  0  0  0  0  0  0  0  0  0  0
  194.8790  173.1970  139.4470 C   0  0  0  0  0  3  0  0  0  0  0  0
  192.5370  173.3540  139.9050 C   0  0  0  0  0  0  0  0  0  0  0  0
  192.5520  170.8340  144.1470 C   0  0  0  0  0  2  0  0  0  0  0  0
  192.6220  169.6840  143.1540 C   0  0  0  0  0  2  0  0  0  0  0  0
  193.1650  170.1180  141.9430 O   0  0  0  0  0  0  0  0  0  0  0  0
  192.9400  169.0660  141.0530 C   0  0  0  0  0  2  0  0  0  0  0  0
  192.9410  169.5670  138.6340 C   0  0  0  0  0  3  0  0  0  0  0  0
  190.8170  169.4220  137.3260 C   0  0  1  0  0  3  0  0  0  0  0  0
  190.0610  170.0990  136.3890 F   0  0  0  0  0  0  0  0  0  0  0  0
  192.2250  170.0350  137.3990 C   0  0  0  0  0  2  0  0  0  0  0  0
  192.2870  169.5750  139.8060 C   0  0  0  0  0  0  0  0  0  0  0  0
  190.8500  170.0210  139.8410 C   0  0  0  0  0  2  0  0  0  0  0  0
  190.0660  169.3910  138.6790 C   0  0  0  0  0  2  0  0  0  0  0  0
  4 18  1  6  0  0  0
  4 14  1  0  0  0  0
  6  3  1  0  0  0  0
  7  4  1  0  0  0  0
  7 17  1  1  0  0  0
  8 13  2  0  0  0  0
  9  5  1  1  0  0  0
  9  7  1  0  0  0  0
  9 15  1  0  0  0  0
 10 27  1  1  0  0  0
 10 18  1  0  0  0  0
 10  6  1  0  0  0  0
 12 23  1  1  0  0  0
 12 16  1  0  0  0  0
 12  8  1  0  0  0  0
 14  1  1  6  0  0  0
 14  2  1  0  0  0  0
 15 11  1  1  0  0  0
 15  2  1  0  0  0  0
 16  3  1  0  0  0  0
 17  8  1  0  0  0  0
 18 41  1  0  0  0  0
 19 24  1  0  0  0  0
 20 21  1  0  0  0  0
 20 19  2  0  0  0  0
 21 23  2  0  0  0  0
 23 22  1  0  0  0  0
 24 22  2  0  0  0  0
 24 26  1  0  0  0  0
 26 25  1  0  0  0  0
 28 27  1  0  0  0  0
 30 31  2  0  0  0  0
 30 38  1  0  0  0  0
 31 39  1  0  0  0  0
 32 35  1  0  0  0  0
 34 32  2  0  0  0  0
 34 36  1  0  0  0  0
 35 29  2  0  0  0  0
 36 38  1  0  0  0  0
 36 37  2  0  0  0  0
 37 29  1  0  0  0  0
 37 28  1  0  0  0  0
 38 40  2  0  0  0  0
 39 33  2  0  0  0  0
 40 33  1  0  0  0  0
 40 28  1  0  0  0  0
 42 41  1  0  0  0  0
 43 42  1  0  0  0  0
 44 43  1  0  0  0  0
 45 49  2  0  0  0  0
 46 47  1  6  0  0  0
 46 48  1  0  0  0  0
 46 51  1  0  0  0  0
 48 45  1  0  0  0  0
 49 50  1  0  0  0  0
 49 44  1  0  0  0  0
 51 50  1  0  0  0  0
M  END
>  <MODEL>
8

>  <REMARK>
 VINA RESULT:      -8.1      3.127      8.559
  Name = 
  9 active torsions:
  status: ('A' for Active; 'I' for Inactive)
    1  A    between atoms: N_2  and  N_6
    2  A    between atoms: N_2  and  C_27
    3  A    between atoms: C_3  and  C_30
    4  A    between atoms: C_3  and  N_51
    5  A    between atoms: O_13  and  C_22
    6  A    between atoms: O_13  and  C_30
    7  A    between atoms: C_21  and  C_22
    8  A    between atoms: C_32  and  C_43
    9  A    between atoms: C_47  and  C_49
                            x       y       z     vdW  Elec       q    Type
                         _______ _______ _______ _____ _____    ______ ____

>  <TORSDO>
F 9

$$$$
=
 OpenBabel11062421223D

 51 57  0  0  1  0  0  0  0  0999 V2000
  194.0370  173.9740  143.5540 O   0  0  0  0  0  1  0  0  0  0  0  0
  194.6070  175.3960  145.3900 C   0  0  0  0  0  2  0  0  0  0  0  0
  189.9180  173.7900  146.6790 C   0  0  0  0  0  2  0  0  0  0  0  0
  192.2420  174.4410  145.1380 C   0  0  2  0  0  3  0  0  0  0  0  0
  192.2670  178.1220  143.8560 C   0  0  0  0  0  1  0  0  0  0  0  0
  189.3120  173.2610  145.5290 O   0  0  0  0  0  0  0  0  0  0  0  0
  191.8390  175.9390  145.0580 C   0  0  2  0  0  3  0  0  0  0  0  0
  190.6840  176.7520  147.1140 C   0  0  0  0  0  0  0  0  0  0  0  0
  192.7900  176.7200  144.1480 C   0  0  2  0  0  3  0  0  0  0  0  0
  189.9520  173.7280  144.3510 C   0  0  2  0  0  3  0  0  0  0  0  0
  194.4410  177.7710  145.5920 O   0  0  0  0  0  1  0  0  0  0  0  0
  189.3460  176.2200  146.6660 C   0  0  1  0  0  3  0  0  0  0  0  0
  190.7870  177.3680  148.2130 O   0  0  0  0  0  0  0  0  0  0  0  0
  193.7660  174.2140  144.9020 C   0  0  1  0  0  3  0  0  0  0  0  0
  194.2380  176.7220  144.6910 C   0  0  1  0  0  3  0  0  0  0  0  0
  189.0450  174.8670  147.2980 C   0  0  0  0  0  2  0  0  0  0  0  0
  191.8430  176.5160  146.3600 O   0  0  0  0  0  0  0  0  0  0  0  0
  191.4260  173.5610  144.2620 N   0  0  0  0  0  0  0  0  0  0  0  0
  186.0120  178.8540  147.3540 C   0  0  0  0  0  3  0  0  0  0  0  0
  187.2140  179.0740  148.0340 C   0  0  0  0  0  3  0  0  0  0  0  0
  188.3110  178.2320  147.8060 C   0  0  0  0  0  3  0  0  0  0  0  0
  187.0090  176.9570  146.2200 C   0  0  0  0  0  3  0  0  0  0  0  0
  188.2130  177.1750  146.8870 C   0  0  0  0  0  0  0  0  0  0  0  0
  185.9050  177.7970  146.4440 C   0  0  0  0  0  0  0  0  0  0  0  0
  184.0330  178.7760  145.1770 C   0  0  0  0  0  1  0  0  0  0  0  0
  184.5910  177.5040  145.8010 C   0  0  0  0  0  2  0  0  0  0  0  0
  189.4920  175.0400  143.9130 N   0  0  0  0  0  2  0  0  0  0  0  0
  188.8680  175.2740  142.6730 N   0  0  0  0  0  0  0  0  0  0  0  0
  187.6790  177.3620  143.2490 C   0  0  0  0  0  3  0  0  0  0  0  0
  188.0870  174.6280  139.2920 N   0  0  0  0  0  0  0  0  0  0  0  0
  188.7710  173.4790  138.9970 C   0  0  0  0  0  3  0  0  0  0  0  0
  186.3800  178.2910  141.3880 C   0  0  0  0  0  3  0  0  0  0  0  0
  189.6650  173.3830  141.2700 C   0  0  0  0  0  3  0  0  0  0  0  0
  186.7750  177.2370  140.5440 C   0  0  0  0  0  3  0  0  0  0  0  0
  186.8290  178.3540  142.7290 C   0  0  0  0  0  3  0  0  0  0  0  0
  187.6170  176.2700  141.0840 C   0  0  0  0  0  0  0  0  0  0  0  0
  188.0540  176.3180  142.3950 C   0  0  0  0  0  0  0  0  0  0  0  0
  188.1860  175.1390  140.5440 C   0  0  0  0  0  0  0  0  0  0  0  0
  189.5680  172.8400  139.9760 C   0  0  0  0  0  3  0  0  0  0  0  0
  188.9470  174.5480  141.5300 C   0  0  0  0  0  0  0  0  0  0  0  0
  191.7440  172.1600  144.5480 C   0  0  0  0  0  2  0  0  0  0  0  0
  191.8360  171.3540  143.2620 C   0  0  0  0  0  2  0  0  0  0  0  0
  192.5440  170.1700  143.4780 O   0  0  0  0  0  0  0  0  0  0  0  0
  193.8660  170.5750  143.6720 C   0  0  0  0  0  2  0  0  0  0  0  0
  193.9980  168.8940  145.4770 C   0  0  0  0  0  3  0  0  0  0  0  0
  196.0870  168.6750  146.8310 C   0  0  1  0  0  3  0  0  0  0  0  0
  196.5400  168.5560  148.1310 F   0  0  0  0  0  0  0  0  0  0  0  0
  194.5700  168.4280  146.7870 C   0  0  0  0  0  2  0  0  0  0  0  0
  194.3650  170.0920  144.9980 C   0  0  0  0  0  0  0  0  0  0  0  0
  195.3600  170.9170  145.7690 C   0  0  0  0  0  2  0  0  0  0  0  0
  196.5260  170.0390  146.2470 C   0  0  0  0  0  2  0  0  0  0  0  0
  3 16  1  0  0  0  0
  4 18  1  6  0  0  0
  6  3  1  0  0  0  0
  7  4  1  0  0  0  0
  7 17  1  1  0  0  0
  8 13  2  0  0  0  0
  9  5  1  1  0  0  0
  9 15  1  0  0  0  0
  9  7  1  0  0  0  0
 10 27  1  1  0  0  0
 10  6  1  0  0  0  0
 12 23  1  1  0  0  0
 12  8  1  0  0  0  0
 12 16  1  0  0  0  0
 14  1  1  6  0  0  0
 14  4  1  0  0  0  0
 14  2  1  0  0  0  0
 15  2  1  0  0  0  0
 15 11  1  1  0  0  0
 17  8  1  0  0  0  0
 18 10  1  0  0  0  0
 18 41  1  0  0  0  0
 19 20  1  0  0  0  0
 21 20  2  0  0  0  0
 22 24  1  0  0  0  0
 22 23  2  0  0  0  0
 23 21  1  0  0  0  0
 24 19  2  0  0  0  0
 25 26  1  0  0  0  0
 26 24  1  0  0  0  0
 28 27  1  0  0  0  0
 30 38  1  0  0  0  0
 31 30  2  0  0  0  0
 31 39  1  0  0  0  0
 32 35  2  0  0  0  0
 33 40  1  0  0  0  0
 34 36  2  0  0  0  0
 34 32  1  0  0  0  0
 35 29  1  0  0  0  0
 36 37  1  0  0  0  0
 37 28  1  0  0  0  0
 37 29  2  0  0  0  0
 38 36  1  0  0  0  0
 38 40  2  0  0  0  0
 39 33  2  0  0  0  0
 40 28  1  0  0  0  0
 42 43  1  0  0  0  0
 42 41  1  0  0  0  0
 43 44  1  0  0  0  0
 44 49  1  0  0  0  0
 45 48  1  0  0  0  0
 46 47  1  1  0  0  0
 48 46  1  0  0  0  0
 49 45  2  0  0  0  0
 49 50  1  0  0  0  0
 50 51  1  0  0  0  0
 51 46  1  0  0  0  0
M  END
>  <MODEL>
9

>  <REMARK>
 VINA RESULT:      -8.0      3.123      8.877
  Name = 
  9 active torsions:
  status: ('A' for Active; 'I' for Inactive)
    1  A    between atoms: N_2  and  N_6
    2  A    between atoms: N_2  and  C_27
    3  A    between atoms: C_3  and  C_30
    4  A    between atoms: C_3  and  N_51
    5  A    between atoms: O_13  and  C_22
    6  A    between atoms: O_13  and  C_30
    7  A    between atoms: C_21  and  C_22
    8  A    between atoms: C_32  and  C_43
    9  A    between atoms: C_47  and  C_49
                            x       y       z     vdW  Elec       q    Type
                         _______ _______ _______ _____ _____    ______ ____

>  <TORSDO>
F 9

$$$$
