=
 OpenBabel11072408503D

 26 29  0  0  1  0  0  0  0  0999 V2000
  191.3040  175.6230  142.9000 C   0  0  1  0  0  3  0  0  0  0  0  0
  187.7330  176.1600  141.6940 C   0  0  0  0  0  0  0  0  0  0  0  0
  184.5760  178.2720  145.9630 C   0  0  0  0  0  0  0  0  0  0  0  0
  186.0710  177.2880  147.5300 C   0  0  0  0  0  3  0  0  0  0  0  0
  186.4530  176.9560  145.1680 C   0  0  0  0  0  0  0  0  0  0  0  0
  188.0470  175.9170  146.8610 C   0  0  0  0  0  2  0  0  0  0  0  0
  185.3150  177.7400  144.8930 C   0  0  0  0  0  0  0  0  0  0  0  0
  190.1110  176.3820  142.3470 C   0  0  0  0  0  2  0  0  0  0  0  0
  189.5020  177.3790  145.6190 O   0  0  0  0  0  0  0  0  0  0  0  0
  192.5900  176.0220  144.9950 C   0  0  0  0  0  2  0  0  0  0  0  0
  186.8530  176.6920  142.7690 C   0  0  0  0  0  0  0  0  0  0  0  0
  191.9860  174.9850  141.8630 O   0  0  0  0  0  1  0  0  0  0  0  0
  189.3270  176.7480  146.8660 C   0  0  2  0  0  3  0  0  0  0  0  0
  185.7050  177.4710  142.4960 C   0  0  0  0  0  0  0  0  0  0  0  0
  183.5500  178.9720  145.7530 O   0  0  0  0  0  0  0  0  0  0  0  0
  190.2390  176.2020  145.8360 C   0  0  2  0  0  3  0  0  0  0  0  0
  191.6830  176.5920  146.0820 C   0  0  0  0  0  2  0  0  0  0  0  0
  192.2430  176.5760  143.6180 C   0  0  0  0  0  2  0  0  0  0  0  0
  187.4590  176.3510  140.4800 O   0  0  0  0  0  0  0  0  0  0  0  0
  188.9850  175.4120  142.0280 C   0  0  0  0  0  2  0  0  0  0  0  0
  184.9720  178.0340  147.2420 N   0  0  0  0  0  0  0  0  0  0  0  0
  187.1970  176.4360  144.1030 C   0  0  0  0  0  3  0  0  0  0  0  0
  186.8360  176.7300  146.5050 C   0  0  1  0  0  3  0  0  0  0  0  0
  184.9480  177.9840  143.5640 C   0  0  0  0  0  3  0  0  0  0  0  0
  184.0620  178.2800  140.8240 C   0  0  0  0  0  1  0  0  0  0  0  0
  185.3270  177.7340  141.1730 O   0  0  0  0  0  0  0  0  0  0  0  0
  1 12  1  6  0  0  0
  1 18  1  0  0  0  0
  2 20  1  0  0  0  0
  2 11  1  0  0  0  0
  3 21  1  0  0  0  0
  5 23  1  0  0  0  0
  7  5  1  0  0  0  0
  7  3  1  0  0  0  0
  8  1  1  0  0  0  0
  9 16  1  0  0  0  0
  9 13  1  0  0  0  0
 10 17  1  0  0  0  0
 11 22  1  0  0  0  0
 13  6  1  6  0  0  0
 14 11  2  0  0  0  0
 14 24  1  0  0  0  0
 15  3  2  0  0  0  0
 16 17  1  1  0  0  0
 16 13  1  0  0  0  0
 18 10  1  0  0  0  0
 19  2  2  0  0  0  0
 20  8  1  0  0  0  0
 21  4  2  0  0  0  0
 22  5  2  0  0  0  0
 23  6  1  6  0  0  0
 23  4  1  0  0  0  0
 24  7  2  0  0  0  0
 25 26  1  0  0  0  0
 26 14  1  0  0  0  0
M  END
>  <MODEL>
1

>  <REMARK>
 VINA RESULT:      -8.8      0.000      0.000
  Name = 
  1 active torsions:
  status: ('A' for Active; 'I' for Inactive)
    1  A    between atoms: O_10  and  C_16
                            x       y       z     vdW  Elec       q    Type
                         _______ _______ _______ _____ _____    ______ ____

>  <TORSDO>
F 1

$$$$
=
 OpenBabel11072408503D

 26 29  0  0  1  0  0  0  0  0999 V2000
  185.8390  179.3500  144.5200 C   0  0  1  0  0  3  0  0  0  0  0  0
  187.4340  177.5110  141.5930 C   0  0  0  0  0  0  0  0  0  0  0  0
  189.8600  172.6880  143.4630 C   0  0  0  0  0  0  0  0  0  0  0  0
  190.0820  173.6600  145.6230 C   0  0  0  0  0  3  0  0  0  0  0  0
  189.1270  174.9720  143.8330 C   0  0  0  0  0  0  0  0  0  0  0  0
  189.3650  175.9920  146.1550 C   0  0  0  0  0  2  0  0  0  0  0  0
  189.2890  173.8710  142.9670 C   0  0  0  0  0  0  0  0  0  0  0  0
  185.9470  178.3420  143.3900 C   0  0  0  0  0  2  0  0  0  0  0  0
  186.9850  176.0690  145.8050 O   0  0  0  0  0  0  0  0  0  0  0  0
  185.5290  178.9520  146.9590 C   0  0  0  0  0  2  0  0  0  0  0  0
  188.1010  176.2530  142.0180 C   0  0  0  0  0  0  0  0  0  0  0  0
  185.3850  180.5730  144.0270 O   0  0  0  0  0  1  0  0  0  0  0  0
  187.9810  176.0140  146.7980 C   0  0  2  0  0  3  0  0  0  0  0  0
  188.2740  175.1510  141.1480 C   0  0  0  0  0  0  0  0  0  0  0  0
  190.0260  171.6890  142.7140 O   0  0  0  0  0  0  0  0  0  0  0  0
  187.3180  177.2840  146.4270 C   0  0  2  0  0  3  0  0  0  0  0  0
  186.1960  177.6460  147.3800 C   0  0  0  0  0  2  0  0  0  0  0  0
  184.8810  178.8420  145.5840 C   0  0  0  0  0  2  0  0  0  0  0  0
  187.0290  177.6610  140.4090 O   0  0  0  0  0  0  0  0  0  0  0  0
  187.1940  178.6210  142.5670 C   0  0  0  0  0  2  0  0  0  0  0  0
  190.2370  172.6150  144.7670 N   0  0  0  0  0  0  0  0  0  0  0  0
  188.5460  176.1460  143.3430 C   0  0  0  0  0  3  0  0  0  0  0  0
  189.5270  174.8610  145.1790 C   0  0  1  0  0  3  0  0  0  0  0  0
  188.8690  173.9740  141.6340 C   0  0  0  0  0  3  0  0  0  0  0  0
  188.2290  174.2810  138.8270 C   0  0  0  0  0  1  0  0  0  0  0  0
  187.8530  175.2310  139.8150 O   0  0  0  0  0  0  0  0  0  0  0  0
  1 12  1  6  0  0  0
  1 18  1  0  0  0  0
  2 11  1  0  0  0  0
  2 20  1  0  0  0  0
  3 21  1  0  0  0  0
  5 23  1  0  0  0  0
  7  3  1  0  0  0  0
  7  5  2  0  0  0  0
  8  1  1  0  0  0  0
  9 16  1  0  0  0  0
  9 13  1  0  0  0  0
 10 17  1  0  0  0  0
 11 22  2  0  0  0  0
 13  6  1  6  0  0  0
 14 24  2  0  0  0  0
 14 11  1  0  0  0  0
 15  3  2  0  0  0  0
 16 13  1  0  0  0  0
 16 17  1  1  0  0  0
 18 10  1  0  0  0  0
 19  2  2  0  0  0  0
 20  8  1  0  0  0  0
 21  4  2  0  0  0  0
 22  5  1  0  0  0  0
 23  4  1  1  0  0  0
 23  6  1  0  0  0  0
 24  7  1  0  0  0  0
 25 26  1  0  0  0  0
 26 14  1  0  0  0  0
M  END
>  <MODEL>
2

>  <REMARK>
 VINA RESULT:      -8.3      2.529      5.470
  Name = 
  1 active torsions:
  status: ('A' for Active; 'I' for Inactive)
    1  A    between atoms: O_10  and  C_16
                            x       y       z     vdW  Elec       q    Type
                         _______ _______ _______ _____ _____    ______ ____

>  <TORSDO>
F 1

$$$$
=
 OpenBabel11072408503D

 26 29  0  0  1  0  0  0  0  0999 V2000
  191.4900  173.9840  143.4860 C   0  0  1  0  0  3  0  0  0  0  0  0
  188.3170  175.2500  141.8030 C   0  0  0  0  0  0  0  0  0  0  0  0
  185.6580  178.9310  145.2700 C   0  0  0  0  0  0  0  0  0  0  0  0
  186.6960  177.8910  147.1400 C   0  0  0  0  0  3  0  0  0  0  0  0
  187.1120  177.0190  144.9260 C   0  0  0  0  0  0  0  0  0  0  0  0
  188.2200  175.9240  146.9400 C   0  0  0  0  0  2  0  0  0  0  0  0
  186.2740  178.0210  144.3950 C   0  0  0  0  0  0  0  0  0  0  0  0
  190.6090  174.9240  142.6810 C   0  0  0  0  0  2  0  0  0  0  0  0
  190.1160  176.6580  145.6510 O   0  0  0  0  0  0  0  0  0  0  0  0
  192.7010  174.4050  145.6210 C   0  0  0  0  0  2  0  0  0  0  0  0
  187.5670  176.2000  142.6660 C   0  0  0  0  0  0  0  0  0  0  0  0
  192.0190  172.9970  142.6550 O   0  0  0  0  0  1  0  0  0  0  0  0
  189.6850  176.3520  146.9560 C   0  0  2  0  0  3  0  0  0  0  0  0
  186.7180  177.2000  142.1370 C   0  0  0  0  0  0  0  0  0  0  0  0
  184.8980  179.8350  144.8300 O   0  0  0  0  0  0  0  0  0  0  0  0
  190.4590  175.3880  146.1430 C   0  0  2  0  0  3  0  0  0  0  0  0
  191.9350  175.4010  146.4860 C   0  0  0  0  0  2  0  0  0  0  0  0
  192.6200  174.7590  144.1400 C   0  0  0  0  0  2  0  0  0  0  0  0
  188.1890  175.2730  140.5500 O   0  0  0  0  0  0  0  0  0  0  0  0
  189.2710  174.2620  142.3980 C   0  0  0  0  0  2  0  0  0  0  0  0
  185.8850  178.8430  146.6080 N   0  0  0  0  0  0  0  0  0  0  0  0
  187.7360  176.1200  144.0550 C   0  0  0  0  0  3  0  0  0  0  0  0
  187.3260  176.9570  146.3170 C   0  0  1  0  0  3  0  0  0  0  0  0
  186.0790  178.0980  143.0110 C   0  0  0  0  0  3  0  0  0  0  0  0
  185.3880  177.9410  140.1800 C   0  0  0  0  0  1  0  0  0  0  0  0
  186.5180  177.2990  140.7540 O   0  0  0  0  0  0  0  0  0  0  0  0
  1 12  1  6  0  0  0
  1 18  1  0  0  0  0
  2 20  1  0  0  0  0
  2 11  1  0  0  0  0
  3 21  1  0  0  0  0
  5 23  1  0  0  0  0
  7  5  1  0  0  0  0
  7  3  1  0  0  0  0
  8  1  1  0  0  0  0
  9 16  1  0  0  0  0
  9 13  1  0  0  0  0
 10 17  1  0  0  0  0
 11 22  1  0  0  0  0
 13  6  1  6  0  0  0
 14 11  2  0  0  0  0
 14 24  1  0  0  0  0
 15  3  2  0  0  0  0
 16 17  1  1  0  0  0
 16 13  1  0  0  0  0
 18 10  1  0  0  0  0
 19  2  2  0  0  0  0
 20  8  1  0  0  0  0
 21  4  2  0  0  0  0
 22  5  2  0  0  0  0
 23  6  1  6  0  0  0
 23  4  1  0  0  0  0
 24  7  2  0  0  0  0
 25 26  1  0  0  0  0
 26 14  1  0  0  0  0
M  END
>  <MODEL>
3

>  <REMARK>
 VINA RESULT:      -8.1      1.223      1.292
  Name = 
  1 active torsions:
  status: ('A' for Active; 'I' for Inactive)
    1  A    between atoms: O_10  and  C_16
                            x       y       z     vdW  Elec       q    Type
                         _______ _______ _______ _____ _____    ______ ____

>  <TORSDO>
F 1

$$$$
=
 OpenBabel11072408503D

 26 29  0  0  1  0  0  0  0  0999 V2000
  189.8700  175.1080  146.4710 C   0  0  1  0  0  3  0  0  0  0  0  0
  187.3340  177.9470  146.3960 C   0  0  0  0  0  0  0  0  0  0  0  0
  184.9560  178.2450  141.2100 C   0  0  0  0  0  0  0  0  0  0  0  0
  186.8910  177.2170  140.2840 C   0  0  0  0  0  3  0  0  0  0  0  0
  186.8200  177.6750  142.6550 C   0  0  0  0  0  0  0  0  0  0  0  0
  188.8800  176.5680  141.6470 C   0  0  0  0  0  2  0  0  0  0  0  0
  185.5270  178.2130  142.4920 C   0  0  0  0  0  0  0  0  0  0  0  0
  188.5070  175.7730  146.5540 C   0  0  0  0  0  2  0  0  0  0  0  0
  188.1200  174.9040  143.2120 O   0  0  0  0  0  0  0  0  0  0  0  0
  190.6710  173.3510  144.8980 C   0  0  0  0  0  2  0  0  0  0  0  0
  186.6920  178.0900  145.0630 C   0  0  0  0  0  0  0  0  0  0  0  0
  190.5080  175.1720  147.7100 O   0  0  0  0  0  1  0  0  0  0  0  0
  188.8400  175.0870  142.0160 C   0  0  2  0  0  3  0  0  0  0  0  0
  185.3990  178.6390  144.8960 C   0  0  0  0  0  0  0  0  0  0  0  0
  183.8050  178.7250  141.0280 O   0  0  0  0  0  0  0  0  0  0  0  0
  189.5210  174.9170  143.3190 C   0  0  2  0  0  3  0  0  0  0  0  0
  189.9870  173.4910  143.5420 C   0  0  0  0  0  2  0  0  0  0  0  0
  189.7190  173.6570  146.0490 C   0  0  0  0  0  2  0  0  0  0  0  0
  186.7580  178.3570  147.4390 O   0  0  0  0  0  0  0  0  0  0  0  0
  188.6680  177.2840  146.5400 C   0  0  0  0  0  2  0  0  0  0  0  0
  185.6470  177.7490  140.1490 N   0  0  0  0  0  0  0  0  0  0  0  0
  187.3850  177.6320  143.9340 C   0  0  0  0  0  3  0  0  0  0  0  0
  187.5080  177.1680  141.5350 C   0  0  1  0  0  3  0  0  0  0  0  0
  184.8340  178.6950  143.6100 C   0  0  0  0  0  3  0  0  0  0  0  0
  183.6600  178.3710  146.6420 C   0  0  0  0  0  1  0  0  0  0  0  0
  184.6860  179.1170  146.0020 O   0  0  0  0  0  0  0  0  0  0  0  0
  1  8  1  0  0  0  0
  1 12  1  1  0  0  0
  2 20  1  0  0  0  0
  2 19  2  0  0  0  0
  3  7  1  0  0  0  0
  5 22  1  0  0  0  0
  7  5  2  0  0  0  0
  7 24  1  0  0  0  0
  9 16  1  0  0  0  0
 10 18  1  0  0  0  0
 11  2  1  0  0  0  0
 13  6  1  1  0  0  0
 13  9  1  0  0  0  0
 13 16  1  0  0  0  0
 14 11  1  0  0  0  0
 14 26  1  0  0  0  0
 15  3  2  0  0  0  0
 16 17  1  6  0  0  0
 17 10  1  0  0  0  0
 18  1  1  0  0  0  0
 20  8  1  0  0  0  0
 21  4  2  0  0  0  0
 21  3  1  0  0  0  0
 22 11  2  0  0  0  0
 23  4  1  1  0  0  0
 23  6  1  0  0  0  0
 23  5  1  0  0  0  0
 24 14  2  0  0  0  0
 26 25  1  0  0  0  0
M  END
>  <MODEL>
4

>  <REMARK>
 VINA RESULT:      -8.0      2.336      4.665
  Name = 
  1 active torsions:
  status: ('A' for Active; 'I' for Inactive)
    1  A    between atoms: O_10  and  C_16
                            x       y       z     vdW  Elec       q    Type
                         _______ _______ _______ _____ _____    ______ ____

>  <TORSDO>
F 1

$$$$
=
 OpenBabel11072408503D

 26 29  0  0  1  0  0  0  0  0999 V2000
  184.7050  178.3700  144.6200 C   0  0  1  0  0  3  0  0  0  0  0  0
  187.6370  177.4920  146.8850 C   0  0  0  0  0  0  0  0  0  0  0  0
  191.8850  175.3110  143.7480 C   0  0  0  0  0  0  0  0  0  0  0  0
  190.3000  174.6290  142.1100 C   0  0  0  0  0  3  0  0  0  0  0  0
  189.5230  175.7260  144.1170 C   0  0  0  0  0  0  0  0  0  0  0  0
  187.8420  174.9950  142.3490 C   0  0  0  0  0  2  0  0  0  0  0  0
  190.8590  175.8290  144.5550 C   0  0  0  0  0  0  0  0  0  0  0  0
  186.0350  178.5600  145.3280 C   0  0  0  0  0  2  0  0  0  0  0  0
  187.5110  177.3790  142.4130 O   0  0  0  0  0  0  0  0  0  0  0  0
  184.2180  178.3060  142.1780 C   0  0  0  0  0  2  0  0  0  0  0  0
  188.7710  176.9000  146.1280 C   0  0  0  0  0  0  0  0  0  0  0  0
  183.6590  178.7680  145.4530 O   0  0  0  0  0  1  0  0  0  0  0  0
  187.3900  176.2410  141.5920 C   0  0  2  0  0  3  0  0  0  0  0  0
  190.1120  176.9930  146.5700 C   0  0  0  0  0  0  0  0  0  0  0  0
  193.0890  175.3800  144.1120 O   0  0  0  0  0  0  0  0  0  0  0  0
  186.2270  176.8190  142.3030 C   0  0  2  0  0  3  0  0  0  0  0  0
  185.3990  177.7210  141.4090 C   0  0  0  0  0  2  0  0  0  0  0  0
  184.6740  179.1840  143.3380 C   0  0  0  0  0  2  0  0  0  0  0  0
  187.8260  178.0720  147.9870 O   0  0  0  0  0  0  0  0  0  0  0  0
  186.2430  177.4460  146.3410 C   0  0  0  0  0  2  0  0  0  0  0  0
  191.5800  174.7300  142.5560 N   0  0  0  0  0  0  0  0  0  0  0  0
  188.5010  176.2530  144.9140 C   0  0  0  0  0  3  0  0  0  0  0  0
  189.2420  175.1200  142.8770 C   0  0  1  0  0  3  0  0  0  0  0  0
  191.1400  176.4530  145.7770 C   0  0  0  0  0  3  0  0  0  0  0  0
  191.4940  177.2200  148.6150 C   0  0  0  0  0  1  0  0  0  0  0  0
  190.4130  177.6220  147.7850 O   0  0  0  0  0  0  0  0  0  0  0  0
  1  8  1  0  0  0  0
  1 12  1  1  0  0  0
  2 19  2  0  0  0  0
  3 15  2  0  0  0  0
  3  7  1  0  0  0  0
  4 21  2  0  0  0  0
  5  7  2  0  0  0  0
  5 22  1  0  0  0  0
  6 23  1  0  0  0  0
  7 24  1  0  0  0  0
  8 20  1  0  0  0  0
 10 18  1  0  0  0  0
 11 14  1  0  0  0  0
 11  2  1  0  0  0  0
 13 16  1  0  0  0  0
 13  6  1  1  0  0  0
 13  9  1  0  0  0  0
 14 26  1  0  0  0  0
 16 17  1  6  0  0  0
 16  9  1  0  0  0  0
 17 10  1  0  0  0  0
 18  1  1  0  0  0  0
 20  2  1  0  0  0  0
 21  3  1  0  0  0  0
 22 11  2  0  0  0  0
 23  4  1  6  0  0  0
 23  5  1  0  0  0  0
 24 14  2  0  0  0  0
 26 25  1  0  0  0  0
M  END
>  <MODEL>
5

>  <REMARK>
 VINA RESULT:      -7.9      2.283      6.973
  Name = 
  1 active torsions:
  status: ('A' for Active; 'I' for Inactive)
    1  A    between atoms: O_10  and  C_16
                            x       y       z     vdW  Elec       q    Type
                         _______ _______ _______ _____ _____    ______ ____

>  <TORSDO>
F 1

$$$$
=
 OpenBabel11072408503D

 26 29  0  0  1  0  0  0  0  0999 V2000
  191.1790  174.5850  143.9330 C   0  0  1  0  0  3  0  0  0  0  0  0
  189.2750  177.1080  146.0550 C   0  0  0  0  0  0  0  0  0  0  0  0
  184.4070  178.5290  143.4220 C   0  0  0  0  0  0  0  0  0  0  0  0
  185.3910  177.9540  141.3340 C   0  0  0  0  0  3  0  0  0  0  0  0
  186.7120  177.7720  143.3490 C   0  0  0  0  0  0  0  0  0  0  0  0
  187.7450  177.1530  141.1050 C   0  0  0  0  0  2  0  0  0  0  0  0
  185.6000  178.2160  144.0940 C   0  0  0  0  0  0  0  0  0  0  0  0
  190.1590  175.0800  144.9420 C   0  0  0  0  0  2  0  0  0  0  0  0
  187.8810  175.0790  142.3190 O   0  0  0  0  0  0  0  0  0  0  0  0
  190.8100  173.3760  141.7860 C   0  0  0  0  0  2  0  0  0  0  0  0
  188.0030  177.5330  145.4130 C   0  0  0  0  0  0  0  0  0  0  0  0
  192.4090  174.3810  144.5570 O   0  0  0  0  0  1  0  0  0  0  0  0
  187.8080  175.6300  141.0250 C   0  0  2  0  0  3  0  0  0  0  0  0
  186.8900  177.9890  146.1580 C   0  0  0  0  0  0  0  0  0  0  0  0
  183.3980  178.9350  144.0570 O   0  0  0  0  0  0  0  0  0  0  0  0
  189.0920  175.1880  141.6140 C   0  0  2  0  0  3  0  0  0  0  0  0
  189.4900  173.8010  141.1500 C   0  0  0  0  0  2  0  0  0  0  0  0
  190.7050  173.2860  143.3040 C   0  0  0  0  0  2  0  0  0  0  0  0
  189.4250  177.1790  147.3040 O   0  0  0  0  0  0  0  0  0  0  0  0
  190.3990  176.5510  145.2390 C   0  0  0  0  0  2  0  0  0  0  0  0
  184.3350  178.3890  142.0710 N   0  0  0  0  0  0  0  0  0  0  0  0
  187.8970  177.4480  144.0180 C   0  0  0  0  0  3  0  0  0  0  0  0
  186.6030  177.6370  141.9510 C   0  0  1  0  0  3  0  0  0  0  0  0
  185.7020  178.3270  145.4860 C   0  0  0  0  0  3  0  0  0  0  0  0
  186.6300  179.2860  148.2550 C   0  0  0  0  0  1  0  0  0  0  0  0
  186.9690  178.0980  147.5510 O   0  0  0  0  0  0  0  0  0  0  0  0
  1 12  1  1  0  0  0
  1  8  1  0  0  0  0
  2 19  2  0  0  0  0
  3 15  2  0  0  0  0
  3  7  1  0  0  0  0
  4 23  1  0  0  0  0
  4 21  2  0  0  0  0
  5 22  2  0  0  0  0
  5  7  1  0  0  0  0
  7 24  2  0  0  0  0
  8 20  1  0  0  0  0
 10 18  1  0  0  0  0
 11  2  1  0  0  0  0
 11 14  2  0  0  0  0
 13  6  1  1  0  0  0
 13 16  1  0  0  0  0
 13  9  1  0  0  0  0
 14 26  1  0  0  0  0
 16 17  1  6  0  0  0
 16  9  1  0  0  0  0
 17 10  1  0  0  0  0
 18  1  1  0  0  0  0
 20  2  1  0  0  0  0
 21  3  1  0  0  0  0
 22 11  1  0  0  0  0
 23  6  1  1  0  0  0
 23  5  1  0  0  0  0
 24 14  1  0  0  0  0
 26 25  1  0  0  0  0
M  END
>  <MODEL>
6

>  <REMARK>
 VINA RESULT:      -7.7      1.956      4.500
  Name = 
  1 active torsions:
  status: ('A' for Active; 'I' for Inactive)
    1  A    between atoms: O_10  and  C_16
                            x       y       z     vdW  Elec       q    Type
                         _______ _______ _______ _____ _____    ______ ____

>  <TORSDO>
F 1

$$$$
=
 OpenBabel11072408503D

 26 29  0  0  1  0  0  0  0  0999 V2000
  186.4280  177.2890  146.6320 C   0  0  1  0  0  3  0  0  0  0  0  0
  189.7100  175.3840  146.9390 C   0  0  0  0  0  0  0  0  0  0  0  0
  191.6460  174.0640  141.7280 C   0  0  0  0  0  0  0  0  0  0  0  0
  189.4200  174.1660  140.8960 C   0  0  0  0  0  3  0  0  0  0  0  0
  189.8170  174.5460  143.2490 C   0  0  0  0  0  0  0  0  0  0  0  0
  187.4410  174.6590  142.3380 C   0  0  0  0  0  2  0  0  0  0  0  0
  191.1960  174.3570  143.0260 C   0  0  0  0  0  0  0  0  0  0  0  0
  187.9320  177.0850  146.6640 C   0  0  0  0  0  2  0  0  0  0  0  0
  187.7630  176.8830  143.2000 O   0  0  0  0  0  0  0  0  0  0  0  0
  184.9960  178.1460  144.7830 C   0  0  0  0  0  2  0  0  0  0  0  0
  190.2570  174.9930  145.6130 C   0  0  0  0  0  0  0  0  0  0  0  0
  185.9410  177.4630  147.9270 O   0  0  0  0  0  1  0  0  0  0  0  0
  187.0440  176.1300  142.2510 C   0  0  2  0  0  3  0  0  0  0  0  0
  191.6400  174.7930  145.3900 C   0  0  0  0  0  0  0  0  0  0  0  0
  192.8710  173.8830  141.4960 O   0  0  0  0  0  0  0  0  0  0  0  0
  186.4500  176.5260  143.5480 C   0  0  2  0  0  3  0  0  0  0  0  0
  185.5810  177.7620  143.4270 C   0  0  0  0  0  2  0  0  0  0  0  0
  186.0830  178.5050  145.7900 C   0  0  0  0  0  2  0  0  0  0  0  0
  190.4650  175.5110  147.9400 O   0  0  0  0  0  0  0  0  0  0  0  0
  188.2510  175.6690  147.1150 C   0  0  0  0  0  2  0  0  0  0  0  0
  190.7530  173.9780  140.7060 N   0  0  0  0  0  0  0  0  0  0  0  0
  189.3690  174.8500  144.5390 C   0  0  0  0  0  3  0  0  0  0  0  0
  188.9190  174.4520  142.1680 C   0  0  1  0  0  3  0  0  0  0  0  0
  192.0910  174.4750  144.0970 C   0  0  0  0  0  3  0  0  0  0  0  0
  193.5810  175.8950  146.4680 C   0  0  0  0  0  1  0  0  0  0  0  0
  192.5510  174.9160  146.4460 O   0  0  0  0  0  0  0  0  0  0  0  0
  1  8  1  0  0  0  0
  1 12  1  1  0  0  0
  2 20  1  0  0  0  0
  2 19  2  0  0  0  0
  3  7  1  0  0  0  0
  5 22  1  0  0  0  0
  7  5  2  0  0  0  0
  7 24  1  0  0  0  0
  8 20  1  0  0  0  0
  9 16  1  0  0  0  0
 10 18  1  0  0  0  0
 11  2  1  0  0  0  0
 13  6  1  1  0  0  0
 13  9  1  0  0  0  0
 13 16  1  0  0  0  0
 14 11  1  0  0  0  0
 14 26  1  0  0  0  0
 15  3  2  0  0  0  0
 16 17  1  6  0  0  0
 17 10  1  0  0  0  0
 18  1  1  0  0  0  0
 21  4  2  0  0  0  0
 21  3  1  0  0  0  0
 22 11  2  0  0  0  0
 23  4  1  6  0  0  0
 23  6  1  0  0  0  0
 23  5  1  0  0  0  0
 24 14  2  0  0  0  0
 26 25  1  0  0  0  0
M  END
>  <MODEL>
7

>  <REMARK>
 VINA RESULT:      -7.7      2.626      7.161
  Name = 
  1 active torsions:
  status: ('A' for Active; 'I' for Inactive)
    1  A    between atoms: O_10  and  C_16
                            x       y       z     vdW  Elec       q    Type
                         _______ _______ _______ _____ _____    ______ ____

>  <TORSDO>
F 1

$$$$
=
 OpenBabel11072408503D

 26 29  0  0  1  0  0  0  0  0999 V2000
  191.6460  174.6190  141.8380 C   0  0  1  0  0  3  0  0  0  0  0  0
  191.7590  176.5420  145.1220 C   0  0  0  0  0  0  0  0  0  0  0  0
  186.4480  177.9340  146.7010 C   0  0  0  0  0  0  0  0  0  0  0  0
  185.7630  177.8270  144.4250 C   0  0  0  0  0  3  0  0  0  0  0  0
  188.0790  177.4230  144.9790 C   0  0  0  0  0  0  0  0  0  0  0  0
  187.3260  177.3050  142.5500 C   0  0  0  0  0  2  0  0  0  0  0  0
  187.7690  177.6240  146.3400 C   0  0  0  0  0  0  0  0  0  0  0  0
  191.5820  174.8330  143.3400 C   0  0  0  0  0  2  0  0  0  0  0  0
  188.1380  175.0730  142.9410 O   0  0  0  0  0  0  0  0  0  0  0  0
  189.8860  173.7730  140.2910 C   0  0  0  0  0  2  0  0  0  0  0  0
  190.4040  176.9510  145.5780 C   0  0  0  0  0  0  0  0  0  0  0  0
  192.9690  174.4270  141.4390 O   0  0  0  0  0  1  0  0  0  0  0  0
  187.2490  175.8320  142.1570 C   0  0  2  0  0  3  0  0  0  0  0  0
  190.0920  177.1630  146.9410 C   0  0  0  0  0  0  0  0  0  0  0  0
  186.1370  178.1270  147.9070 O   0  0  0  0  0  0  0  0  0  0  0  0
  188.5760  175.4180  141.6510 C   0  0  2  0  0  3  0  0  0  0  0  0
  188.4990  174.1770  140.7830 C   0  0  0  0  0  2  0  0  0  0  0  0
  190.8140  173.4110  141.4450 C   0  0  0  0  0  2  0  0  0  0  0  0
  192.7050  176.4090  145.9420 O   0  0  0  0  0  0  0  0  0  0  0  0
  192.0270  176.2450  143.6790 C   0  0  0  0  0  2  0  0  0  0  0  0
  185.4880  178.0260  145.7420 N   0  0  0  0  0  0  0  0  0  0  0  0
  189.3920  177.1010  144.6190 C   0  0  0  0  0  3  0  0  0  0  0  0
  187.0610  177.5240  144.0110 C   0  0  1  0  0  3  0  0  0  0  0  0
  188.7770  177.5000  147.3040 C   0  0  0  0  0  3  0  0  0  0  0  0
  191.1920  177.9140  149.0330 C   0  0  0  0  0  1  0  0  0  0  0  0
  191.0840  177.0350  147.9210 O   0  0  0  0  0  0  0  0  0  0  0  0
  1 12  1  1  0  0  0
  1  8  1  0  0  0  0
  2 11  1  0  0  0  0
  2 19  2  0  0  0  0
  3 15  2  0  0  0  0
  4 21  2  0  0  0  0
  5  7  1  0  0  0  0
  7  3  1  0  0  0  0
  7 24  2  0  0  0  0
  8 20  1  0  0  0  0
 10 17  1  0  0  0  0
 10 18  1  0  0  0  0
 11 14  2  0  0  0  0
 13  6  1  1  0  0  0
 13  9  1  0  0  0  0
 14 24  1  0  0  0  0
 14 26  1  0  0  0  0
 16 17  1  6  0  0  0
 16 13  1  0  0  0  0
 16  9  1  0  0  0  0
 18  1  1  0  0  0  0
 20  2  1  0  0  0  0
 21  3  1  0  0  0  0
 22  5  2  0  0  0  0
 22 11  1  0  0  0  0
 23  6  1  1  0  0  0
 23  4  1  0  0  0  0
 23  5  1  0  0  0  0
 26 25  1  0  0  0  0
M  END
>  <MODEL>
8

>  <REMARK>
 VINA RESULT:      -7.3      1.882      4.901
  Name = 
  1 active torsions:
  status: ('A' for Active; 'I' for Inactive)
    1  A    between atoms: O_10  and  C_16
                            x       y       z     vdW  Elec       q    Type
                         _______ _______ _______ _____ _____    ______ ____

>  <TORSDO>
F 1

$$$$
=
 OpenBabel11072408503D

 26 29  0  0  1  0  0  0  0  0999 V2000
  184.4450  177.9800  141.9270 C   0  0  1  0  0  3  0  0  0  0  0  0
  185.1150  177.9190  145.6740 C   0  0  0  0  0  0  0  0  0  0  0  0
  190.5420  176.4010  146.6170 C   0  0  0  0  0  0  0  0  0  0  0  0
  190.5700  175.2720  144.5240 C   0  0  0  0  0  3  0  0  0  0  0  0
  188.5350  176.3520  145.2530 C   0  0  0  0  0  0  0  0  0  0  0  0
  188.5880  175.1440  143.0110 C   0  0  0  0  0  2  0  0  0  0  0  0
  189.1980  176.7640  146.4280 C   0  0  0  0  0  0  0  0  0  0  0  0
  184.9100  178.4990  143.2760 C   0  0  0  0  0  2  0  0  0  0  0  0
  188.0790  177.4060  142.3620 O   0  0  0  0  0  0  0  0  0  0  0  0
  185.7600  177.6130  139.8430 C   0  0  0  0  0  2  0  0  0  0  0  0
  186.5100  177.5110  145.9870 C   0  0  0  0  0  0  0  0  0  0  0  0
  183.0810  178.2240  141.7660 O   0  0  0  0  0  1  0  0  0  0  0  0
  188.6580  176.2030  141.9140 C   0  0  2  0  0  3  0  0  0  0  0  0
  187.1730  177.9140  147.1690 C   0  0  0  0  0  0  0  0  0  0  0  0
  191.1620  176.7470  147.6580 O   0  0  0  0  0  0  0  0  0  0  0  0
  187.2750  176.5860  141.5520 C   0  0  2  0  0  3  0  0  0  0  0  0
  187.1960  177.2200  140.1760 C   0  0  0  0  0  2  0  0  0  0  0  0
  185.2190  178.6600  140.8100 C   0  0  0  0  0  2  0  0  0  0  0  0
  184.4470  178.6150  146.4840 O   0  0  0  0  0  0  0  0  0  0  0  0
  184.4770  177.5410  144.3730 C   0  0  0  0  0  2  0  0  0  0  0  0
  191.1870  175.6720  145.6680 N   0  0  0  0  0  0  0  0  0  0  0  0
  187.2010  176.7220  145.0570 C   0  0  0  0  0  3  0  0  0  0  0  0
  189.2330  175.5980  144.2890 C   0  0  1  0  0  3  0  0  0  0  0  0
  188.5110  177.5330  147.3750 C   0  0  0  0  0  3  0  0  0  0  0  0
  186.8020  180.0640  148.3480 C   0  0  0  0  0  1  0  0  0  0  0  0
  186.5060  178.6920  148.1240 O   0  0  0  0  0  0  0  0  0  0  0  0
  1 12  1  6  0  0  0
  1  8  1  0  0  0  0
  2 11  1  0  0  0  0
  2 19  2  0  0  0  0
  3 15  2  0  0  0  0
  4 21  2  0  0  0  0
  5  7  1  0  0  0  0
  7  3  1  0  0  0  0
  7 24  2  0  0  0  0
  8 20  1  0  0  0  0
 10 17  1  0  0  0  0
 10 18  1  0  0  0  0
 11 14  2  0  0  0  0
 13  9  1  0  0  0  0
 13  6  1  1  0  0  0
 14 24  1  0  0  0  0
 14 26  1  0  0  0  0
 16 17  1  6  0  0  0
 16 13  1  0  0  0  0
 16  9  1  0  0  0  0
 18  1  1  0  0  0  0
 20  2  1  0  0  0  0
 21  3  1  0  0  0  0
 22  5  2  0  0  0  0
 22 11  1  0  0  0  0
 23  6  1  6  0  0  0
 23  4  1  0  0  0  0
 23  5  1  0  0  0  0
 26 25  1  0  0  0  0
M  END
>  <MODEL>
9

>  <REMARK>
 VINA RESULT:      -7.2      2.152      6.072
  Name = 
  1 active torsions:
  status: ('A' for Active; 'I' for Inactive)
    1  A    between atoms: O_10  and  C_16
                            x       y       z     vdW  Elec       q    Type
                         _______ _______ _______ _____ _____    ______ ____

>  <TORSDO>
F 1

$$$$
