=
 OpenBabel11062422503D

 46 49  0  0  1  0  0  0  0  0999 V2000
  188.3720  174.4080  142.1410 C   0  0  1  0  0  3  0  0  0  0  0  0
  187.4720  172.1810  142.0370 O   0  0  0  0  0  0  0  0  0  0  0  0
  188.2580  172.9930  140.0110 N   0  0  0  0  0  2  0  0  0  0  0  0
  188.0120  173.1330  141.4120 C   0  0  0  0  0  0  0  0  0  0  0  0
  188.7610  174.0750  139.1710 C   0  0  0  0  0  2  0  0  0  0  0  0
  188.5370  173.7610  137.6970 C   0  0  0  0  0  2  0  0  0  0  0  0
  189.8630  173.5060  136.9770 C   0  0  2  0  0  3  0  0  0  0  0  0
  191.3890  174.2010  135.3990 C   0  0  0  0  0  1  0  0  0  0  0  0
  190.2770  174.5920  136.1670 O   0  0  0  0  0  0  0  0  0  0  0  0
  189.8600  172.1660  136.2460 C   0  0  0  0  0  2  0  0  0  0  0  0
  189.7510  171.0630  137.2080 C   0  0  0  0  0  0  0  0  0  0  0  0
  189.6650  170.1910  137.9650 N   0  0  0  0  0  0  0  0  0  0  0  0
  187.2790  174.9930  142.8270 O   0  0  0  0  0  0  0  0  0  0  0  0
  186.7020  176.8540  141.5090 C   0  0  1  0  0  3  0  0  0  0  0  0
  186.0080  176.9710  142.8220 N   0  0  1  0  0  0  0  0  0  0  0  0
  187.2920  178.0530  141.0890 O   0  0  0  0  0  1  0  0  0  0  0  0
  187.3630  176.3950  142.7290 C   0  0  1  0  0  3  0  0  0  0  0  0
  184.2970  178.9220  144.8760 C   0  0  0  0  0  2  0  0  0  0  0  0
  186.6290  178.1690  144.8960 C   0  0  2  0  0  3  0  0  0  0  0  0
  186.1550  178.2910  143.4450 C   0  0  2  0  0  3  0  0  0  0  0  0
  184.8220  179.0210  143.4640 C   0  0  0  0  0  2  0  0  0  0  0  0
  185.8250  177.1480  145.6900 C   0  0  0  0  0  2  0  0  0  0  0  0
  185.4770  178.6180  145.7830 C   0  0  2  0  0  3  0  0  0  0  0  0
  189.6410  174.3090  143.0100 C   0  0  1  0  0  3  0  0  0  0  0  0
  189.4200  173.5800  144.2610 N   0  0  0  0  0  2  0  0  0  0  0  0
  190.0530  174.2800  145.3730 C   0  0  0  0  0  2  0  0  0  0  0  0
  189.1940  175.4580  145.7870 C   0  0  0  0  0  2  0  0  0  0  0  0
  190.8550  176.5470  147.0920 O   0  0  0  0  0  0  0  0  0  0  0  0
  190.0630  176.6250  146.1180 C   0  0  0  0  0  0  0  0  0  0  0  0
  190.0250  177.7940  145.3560 O   0  0  0  0  0  0  0  0  0  0  0  0
  191.2570  178.2960  143.6390 C   0  0  0  0  0  1  0  0  0  0  0  0
  190.0260  177.7580  144.0160 O   0  0  0  0  0  0  0  0  0  0  0  0
  190.7380  173.7110  142.2530 N   0  0  0  0  0  2  0  0  0  0  0  0
  191.9920  174.3680  142.0530 C   0  0  0  0  0  0  0  0  0  0  0  0
  193.8740  175.5940  142.9840 C   0  0  0  0  0  0  0  0  0  0  0  0
  192.6010  174.3990  140.7920 C   0  0  0  0  0  3  0  0  0  0  0  0
  193.8490  175.0150  140.6180 C   0  0  0  0  0  0  0  0  0  0  0  0
  192.6330  174.9640  143.1410 C   0  0  0  0  0  3  0  0  0  0  0  0
  194.4780  175.6110  141.7200 C   0  0  0  0  0  3  0  0  0  0  0  0
  195.7000  176.7120  144.0070 O   0  0  0  0  0  0  0  0  0  0  0  0
  194.5310  176.2470  144.1290 C   0  0  0  0  0  0  0  0  0  0  0  0
  193.8410  176.3640  145.3760 N   0  0  0  0  0  2  0  0  0  0  0  0
  194.4200  177.0630  146.5100 C   0  0  0  0  0  1  0  0  0  0  0  0
  194.4820  175.0280  139.3320 N   0  0  0  0  0  0  0  0  0  0  0  0
  195.7050  175.2580  139.2300 O   0  0  0  0  0  0  0  0  0  0  0  0
  193.7430  174.7950  138.1940 O   0  0  0  0  0  0  0  0  0  0  0  0
  1  4  1  1  0  0  0
  1 13  1  0  0  0  0
  1 24  1  0  0  0  0
  3  4  1  0  0  0  0
  4  2  2  0  0  0  0
  5  3  1  0  0  0  0
  6  5  1  0  0  0  0
  7 10  1  6  0  0  0
  7  6  1  0  0  0  0
  8  9  1  0  0  0  0
  9  7  1  0  0  0  0
 10 11  1  0  0  0  0
 11 12  3  0  0  0  0
 14 16  1  1  0  0  0
 14 17  1  0  0  0  0
 14 15  1  0  0  0  0
 15 20  1  1  0  0  0
 17 15  1  0  0  0  0
 17 13  1  6  0  0  0
 19 22  1  1  0  0  0
 19 23  1  0  0  0  0
 20 21  1  1  0  0  0
 20 19  1  0  0  0  0
 21 18  1  0  0  0  0
 22 23  1  0  0  0  0
 23 18  1  6  0  0  0
 24 33  1  6  0  0  0
 24 25  1  0  0  0  0
 25 26  1  0  0  0  0
 26 27  1  0  0  0  0
 27 29  1  0  0  0  0
 29 28  2  0  0  0  0
 30 29  1  0  0  0  0
 31 32  1  0  0  0  0
 32 30  1  0  0  0  0
 34 33  1  0  0  0  0
 34 38  1  0  0  0  0
 35 38  2  0  0  0  0
 35 41  1  0  0  0  0
 36 34  2  0  0  0  0
 37 36  1  0  0  0  0
 37 39  2  0  0  0  0
 39 35  1  0  0  0  0
 40 41  2  0  0  0  0
 41 42  1  0  0  0  0
 42 43  1  0  0  0  0
 44 37  1  0  0  0  0
 45 44  2  0  0  0  0
 46 44  2  0  0  0  0
M  END
>  <MODEL>
1

>  <REMARK>
 VINA RESULT:      -5.7      0.000      0.000
  Name = 
  21 active torsions:
  status: ('A' for Active; 'I' for Inactive)
    1  A    between atoms: N_2  and  C_11
    2  A    between atoms: N_2  and  C_13
    3  A    between atoms: C_4  and  C_17
    4  A    between atoms: C_4  and  C_21
    5  A    between atoms: O_5  and  O_25
    6  A    between atoms: C_7  and  C_11
    7  A    between atoms: C_7  and  O_14
    8  A    between atoms: C_7  and  C_27
    9  A    between atoms: N_9  and  C_24
   10  A    between atoms: C_10  and  N_30
   11  A    between atoms: C_11  and  N_35
   12  A    between atoms: O_14  and  C_45
   13  A    between atoms: C_17  and  O_18
   14  A    between atoms: C_17  and  C_37
   15  A    between atoms: N_19  and  C_41
   16  A    between atoms: C_22  and  N_35
   17  A    between atoms: C_22  and  C_43
   18  A    between atoms: C_24  and  C_37
   19  A    between atoms: O_25  and  C_39
   20  A    between atoms: C_28  and  C_29
   21  A    between atoms: C_39  and  C_43
                            x       y       z     vdW  Elec       q    Type
                         _______ _______ _______ _____ _____    ______ ____

>  <TORSDO>
F 21

$$$$
=
 OpenBabel11062422503D

 46 49  0  0  1  0  0  0  0  0999 V2000
  188.7830  174.5720  142.1990 C   0  0  1  0  0  3  0  0  0  0  0  0
  187.7970  172.3850  142.3500 O   0  0  0  0  0  0  0  0  0  0  0  0
  188.9770  172.7720  140.3900 N   0  0  0  0  0  2  0  0  0  0  0  0
  188.4910  173.1860  141.6690 C   0  0  0  0  0  0  0  0  0  0  0  0
  189.6810  173.6590  139.4710 C   0  0  0  0  0  2  0  0  0  0  0  0
  191.1740  173.3570  139.4680 C   0  0  0  0  0  2  0  0  0  0  0  0
  191.6590  172.9750  138.0680 C   0  0  2  0  0  3  0  0  0  0  0  0
  191.7660  171.3010  136.4900 C   0  0  0  0  0  1  0  0  0  0  0  0
  190.9970  171.8390  137.5380 O   0  0  0  0  0  0  0  0  0  0  0  0
  193.1810  172.8780  138.0040 C   0  0  0  0  0  2  0  0  0  0  0  0
  193.7790  174.2150  138.0940 C   0  0  0  0  0  0  0  0  0  0  0  0
  194.2500  175.2710  138.1640 N   0  0  0  0  0  0  0  0  0  0  0  0
  187.6830  175.1640  142.8670 O   0  0  0  0  0  0  0  0  0  0  0  0
  187.7180  177.2740  141.8290 C   0  0  1  0  0  3  0  0  0  0  0  0
  186.6880  177.2930  142.9040 N   0  0  1  0  0  0  0  0  0  0  0  0
  188.5300  178.4160  141.8240 O   0  0  0  0  0  1  0  0  0  0  0  0
  187.9410  176.5320  143.0690 C   0  0  1  0  0  3  0  0  0  0  0  0
  184.6430  179.2800  144.5860 C   0  0  0  0  0  2  0  0  0  0  0  0
  186.6560  178.0550  145.2580 C   0  0  2  0  0  3  0  0  0  0  0  0
  186.7850  178.4600  143.7870 C   0  0  2  0  0  3  0  0  0  0  0  0
  185.6680  179.4460  143.4890 C   0  0  0  0  0  2  0  0  0  0  0  0
  185.4700  177.1320  145.5090 C   0  0  0  0  0  2  0  0  0  0  0  0
  185.3360  178.6190  145.7640 C   0  0  2  0  0  3  0  0  0  0  0  0
  190.0990  174.6860  142.9940 C   0  0  1  0  0  3  0  0  0  0  0  0
  190.6700  173.3820  143.3420 N   0  0  0  0  0  2  0  0  0  0  0  0
  190.9340  173.3120  144.7750 C   0  0  0  0  0  2  0  0  0  0  0  0
  189.6260  173.3930  145.5370 C   0  0  0  0  0  2  0  0  0  0  0  0
  188.9030  174.3950  147.5670 O   0  0  0  0  0  0  0  0  0  0  0  0
  189.7400  174.4030  146.6290 C   0  0  0  0  0  0  0  0  0  0  0  0
  190.7710  175.3450  146.6370 O   0  0  0  0  0  0  0  0  0  0  0  0
  190.0640  177.3260  146.0940 C   0  0  0  0  0  1  0  0  0  0  0  0
  190.5940  176.5750  147.1430 O   0  0  0  0  0  0  0  0  0  0  0  0
  191.0730  175.4950  142.2650 N   0  0  0  0  0  2  0  0  0  0  0  0
  192.4250  175.6600  142.6990 C   0  0  0  0  0  0  0  0  0  0  0  0
  194.8030  175.4510  142.2320 C   0  0  0  0  0  0  0  0  0  0  0  0
  192.7240  176.2200  143.9470 C   0  0  0  0  0  3  0  0  0  0  0  0
  194.0560  176.4080  144.3430 C   0  0  0  0  0  0  0  0  0  0  0  0
  193.4670  175.2800  141.8480 C   0  0  0  0  0  3  0  0  0  0  0  0
  195.0890  176.0210  143.4800 C   0  0  0  0  0  3  0  0  0  0  0  0
  196.0880  173.7920  141.1260 O   0  0  0  0  0  0  0  0  0  0  0  0
  195.8960  175.0220  141.3430 C   0  0  0  0  0  0  0  0  0  0  0  0
  196.7330  175.9980  140.7190 N   0  0  0  0  0  2  0  0  0  0  0  0
  197.7770  175.6260  139.7780 C   0  0  0  0  0  1  0  0  0  0  0  0
  194.3610  177.0020  145.6120 N   0  0  0  0  0  0  0  0  0  0  0  0
  193.9540  176.4790  146.6700 O   0  0  0  0  0  0  0  0  0  0  0  0
  195.1010  178.1610  145.6750 O   0  0  0  0  0  0  0  0  0  0  0  0
  1  4  1  1  0  0  0
  1 13  1  0  0  0  0
  1 24  1  0  0  0  0
  3  4  1  0  0  0  0
  4  2  2  0  0  0  0
  5  3  1  0  0  0  0
  6  5  1  0  0  0  0
  7 10  1  1  0  0  0
  7  6  1  0  0  0  0
  8  9  1  0  0  0  0
  9  7  1  0  0  0  0
 10 11  1  0  0  0  0
 11 12  3  0  0  0  0
 14 16  1  1  0  0  0
 14 15  1  0  0  0  0
 14 17  1  0  0  0  0
 15 17  1  0  0  0  0
 15 20  1  1  0  0  0
 17 13  1  6  0  0  0
 19 22  1  6  0  0  0
 19 23  1  0  0  0  0
 20 21  1  6  0  0  0
 20 19  1  0  0  0  0
 21 18  1  0  0  0  0
 22 23  1  0  0  0  0
 23 18  1  6  0  0  0
 24 33  1  6  0  0  0
 24 25  1  0  0  0  0
 25 26  1  0  0  0  0
 26 27  1  0  0  0  0
 27 29  1  0  0  0  0
 29 30  1  0  0  0  0
 29 28  2  0  0  0  0
 30 32  1  0  0  0  0
 31 32  1  0  0  0  0
 33 34  1  0  0  0  0
 34 36  1  0  0  0  0
 35 39  2  0  0  0  0
 36 37  2  0  0  0  0
 37 44  1  0  0  0  0
 38 35  1  0  0  0  0
 38 34  2  0  0  0  0
 39 37  1  0  0  0  0
 40 41  2  0  0  0  0
 41 35  1  0  0  0  0
 42 41  1  0  0  0  0
 43 42  1  0  0  0  0
 44 46  2  0  0  0  0
 44 45  2  0  0  0  0
M  END
>  <MODEL>
2

>  <REMARK>
 VINA RESULT:      -5.7      1.677      3.348
  Name = 
  21 active torsions:
  status: ('A' for Active; 'I' for Inactive)
    1  A    between atoms: N_2  and  C_11
    2  A    between atoms: N_2  and  C_13
    3  A    between atoms: C_4  and  C_17
    4  A    between atoms: C_4  and  C_21
    5  A    between atoms: O_5  and  O_25
    6  A    between atoms: C_7  and  C_11
    7  A    between atoms: C_7  and  O_14
    8  A    between atoms: C_7  and  C_27
    9  A    between atoms: N_9  and  C_24
   10  A    between atoms: C_10  and  N_30
   11  A    between atoms: C_11  and  N_35
   12  A    between atoms: O_14  and  C_45
   13  A    between atoms: C_17  and  O_18
   14  A    between atoms: C_17  and  C_37
   15  A    between atoms: N_19  and  C_41
   16  A    between atoms: C_22  and  N_35
   17  A    between atoms: C_22  and  C_43
   18  A    between atoms: C_24  and  C_37
   19  A    between atoms: O_25  and  C_39
   20  A    between atoms: C_28  and  C_29
   21  A    between atoms: C_39  and  C_43
                            x       y       z     vdW  Elec       q    Type
                         _______ _______ _______ _____ _____    ______ ____

>  <TORSDO>
F 21

$$$$
=
 OpenBabel11062422503D

 46 49  0  0  1  0  0  0  0  0999 V2000
  188.2730  174.6370  142.1960 C   0  0  1  0  0  3  0  0  0  0  0  0
  187.8360  172.2970  142.5270 O   0  0  0  0  0  0  0  0  0  0  0  0
  188.6490  172.8310  140.4210 N   0  0  0  0  0  2  0  0  0  0  0  0
  188.2410  173.1950  141.7420 C   0  0  0  0  0  0  0  0  0  0  0  0
  189.0170  173.8030  139.3960 C   0  0  0  0  0  2  0  0  0  0  0  0
  190.4890  173.6680  139.0300 C   0  0  0  0  0  2  0  0  0  0  0  0
  190.6590  173.1260  137.6090 C   0  0  2  0  0  3  0  0  0  0  0  0
  189.5330  174.2280  135.9300 C   0  0  0  0  0  1  0  0  0  0  0  0
  189.4630  173.1660  136.8500 O   0  0  0  0  0  0  0  0  0  0  0  0
  191.3390  171.7600  137.6020 C   0  0  0  0  0  2  0  0  0  0  0  0
  190.3540  170.7020  137.8560 C   0  0  0  0  0  0  0  0  0  0  0  0
  189.5780  169.8670  138.0590 N   0  0  0  0  0  0  0  0  0  0  0  0
  187.0120  175.1220  142.6210 O   0  0  0  0  0  0  0  0  0  0  0  0
  186.2150  177.1320  141.6930 C   0  0  1  0  0  3  0  0  0  0  0  0
  185.7280  177.0330  143.0970 N   0  0  1  0  0  0  0  0  0  0  0  0
  186.7180  178.3990  141.3720 O   0  0  0  0  0  1  0  0  0  0  0  0
  187.0610  176.5250  142.7200 C   0  0  1  0  0  3  0  0  0  0  0  0
  184.1860  178.7380  145.4790 C   0  0  0  0  0  2  0  0  0  0  0  0
  186.4900  177.9270  145.2750 C   0  0  2  0  0  3  0  0  0  0  0  0
  185.9490  178.2540  143.8800 C   0  0  2  0  0  3  0  0  0  0  0  0
  184.6430  179.0090  144.0660 C   0  0  0  0  0  2  0  0  0  0  0  0
  185.6930  176.8300  145.9690 C   0  0  0  0  0  2  0  0  0  0  0  0
  185.3980  178.2840  146.2730 C   0  0  2  0  0  3  0  0  0  0  0  0
  189.4080  174.9690  143.1840 C   0  0  1  0  0  3  0  0  0  0  0  0
  189.2800  174.2570  144.4590 N   0  0  0  0  0  2  0  0  0  0  0  0
  189.0530  175.2030  145.5460 C   0  0  0  0  0  2  0  0  0  0  0  0
  190.2370  175.1830  146.4920 C   0  0  0  0  0  2  0  0  0  0  0  0
  190.1620  177.5300  146.1320 O   0  0  0  0  0  0  0  0  0  0  0  0
  190.7030  176.5770  146.7480 C   0  0  0  0  0  0  0  0  0  0  0  0
  191.7150  176.8420  147.6720 O   0  0  0  0  0  0  0  0  0  0  0  0
  191.4870  178.0410  149.4690 C   0  0  0  0  0  1  0  0  0  0  0  0
  191.5080  176.7300  148.9920 O   0  0  0  0  0  0  0  0  0  0  0  0
  190.7110  174.7100  142.5790 N   0  0  0  0  0  2  0  0  0  0  0  0
  191.9000  174.5150  143.3490 C   0  0  0  0  0  0  0  0  0  0  0  0
  193.4380  172.9930  144.4580 C   0  0  0  0  0  0  0  0  0  0  0  0
  192.7180  175.5950  143.7070 C   0  0  0  0  0  3  0  0  0  0  0  0
  193.8990  175.3840  144.4320 C   0  0  0  0  0  0  0  0  0  0  0  0
  192.2660  173.2210  143.7250 C   0  0  0  0  0  3  0  0  0  0  0  0
  194.2520  174.0800  144.8030 C   0  0  0  0  0  3  0  0  0  0  0  0
  193.1210  170.6420  144.4820 O   0  0  0  0  0  0  0  0  0  0  0  0
  193.8040  171.6290  144.8770 C   0  0  0  0  0  0  0  0  0  0  0  0
  194.9390  171.4220  145.7220 N   0  0  0  0  0  2  0  0  0  0  0  0
  195.3810  170.0910  146.1010 C   0  0  0  0  0  1  0  0  0  0  0  0
  194.7460  176.4870  144.7800 N   0  0  0  0  0  0  0  0  0  0  0  0
  195.8090  176.6920  144.1580 O   0  0  0  0  0  0  0  0  0  0  0  0
  194.3990  177.3290  145.8130 O   0  0  0  0  0  0  0  0  0  0  0  0
  1  4  1  1  0  0  0
  1 13  1  0  0  0  0
  1 24  1  0  0  0  0
  3  4  1  0  0  0  0
  4  2  2  0  0  0  0
  5  3  1  0  0  0  0
  6  5  1  0  0  0  0
  7 10  1  1  0  0  0
  7  6  1  0  0  0  0
  8  9  1  0  0  0  0
  9  7  1  0  0  0  0
 10 11  1  0  0  0  0
 11 12  3  0  0  0  0
 14 16  1  1  0  0  0
 14 17  1  0  0  0  0
 14 15  1  0  0  0  0
 15 20  1  1  0  0  0
 17 13  1  6  0  0  0
 17 15  1  0  0  0  0
 19 22  1  6  0  0  0
 19 23  1  0  0  0  0
 20 21  1  1  0  0  0
 20 19  1  0  0  0  0
 21 18  1  0  0  0  0
 22 23  1  0  0  0  0
 23 18  1  6  0  0  0
 24 33  1  6  0  0  0
 24 25  1  0  0  0  0
 25 26  1  0  0  0  0
 26 27  1  0  0  0  0
 27 29  1  0  0  0  0
 28 29  2  0  0  0  0
 29 30  1  0  0  0  0
 30 32  1  0  0  0  0
 32 31  1  0  0  0  0
 33 34  1  0  0  0  0
 34 36  2  0  0  0  0
 34 38  1  0  0  0  0
 35 39  1  0  0  0  0
 35 41  1  0  0  0  0
 36 37  1  0  0  0  0
 37 44  1  0  0  0  0
 37 39  2  0  0  0  0
 38 35  2  0  0  0  0
 40 41  2  0  0  0  0
 41 42  1  0  0  0  0
 42 43  1  0  0  0  0
 44 46  2  0  0  0  0
 45 44  2  0  0  0  0
M  END
>  <MODEL>
3

>  <REMARK>
 VINA RESULT:      -5.7      2.030      3.017
  Name = 
  21 active torsions:
  status: ('A' for Active; 'I' for Inactive)
    1  A    between atoms: N_2  and  C_11
    2  A    between atoms: N_2  and  C_13
    3  A    between atoms: C_4  and  C_17
    4  A    between atoms: C_4  and  C_21
    5  A    between atoms: O_5  and  O_25
    6  A    between atoms: C_7  and  C_11
    7  A    between atoms: C_7  and  O_14
    8  A    between atoms: C_7  and  C_27
    9  A    between atoms: N_9  and  C_24
   10  A    between atoms: C_10  and  N_30
   11  A    between atoms: C_11  and  N_35
   12  A    between atoms: O_14  and  C_45
   13  A    between atoms: C_17  and  O_18
   14  A    between atoms: C_17  and  C_37
   15  A    between atoms: N_19  and  C_41
   16  A    between atoms: C_22  and  N_35
   17  A    between atoms: C_22  and  C_43
   18  A    between atoms: C_24  and  C_37
   19  A    between atoms: O_25  and  C_39
   20  A    between atoms: C_28  and  C_29
   21  A    between atoms: C_39  and  C_43
                            x       y       z     vdW  Elec       q    Type
                         _______ _______ _______ _____ _____    ______ ____

>  <TORSDO>
F 21

$$$$
=
 OpenBabel11062422503D

 46 49  0  0  1  0  0  0  0  0999 V2000
  188.7170  175.7400  143.5880 C   0  0  1  0  0  3  0  0  0  0  0  0
  189.9280  177.4230  142.3720 O   0  0  0  0  0  0  0  0  0  0  0  0
  189.7800  177.8100  144.6550 N   0  0  0  0  0  2  0  0  0  0  0  0
  189.5100  177.0240  143.4920 C   0  0  0  0  0  0  0  0  0  0  0  0
  189.2390  177.5050  145.9750 C   0  0  0  0  0  2  0  0  0  0  0  0
  190.3620  177.2530  146.9730 C   0  0  0  0  0  2  0  0  0  0  0  0
  190.9920  175.8750  146.7610 C   0  0  2  0  0  3  0  0  0  0  0  0
  189.2070  174.5840  147.4300 C   0  0  0  0  0  1  0  0  0  0  0  0
  190.5490  174.9080  147.6980 O   0  0  0  0  0  0  0  0  0  0  0  0
  192.5120  175.9600  146.6450 C   0  0  0  0  0  2  0  0  0  0  0  0
  192.8990  176.2810  145.2670 C   0  0  0  0  0  0  0  0  0  0  0  0
  193.2020  176.5360  144.1780 N   0  0  0  0  0  0  0  0  0  0  0  0
  187.3760  175.8710  143.1530 O   0  0  0  0  0  0  0  0  0  0  0  0
  185.8930  177.4890  142.3050 C   0  0  1  0  0  3  0  0  0  0  0  0
  185.6080  177.3000  143.7560 N   0  0  1  0  0  0  0  0  0  0  0  0
  185.9330  178.8360  141.9230 O   0  0  0  0  0  1  0  0  0  0  0  0
  186.9880  177.2210  143.2370 C   0  0  1  0  0  3  0  0  0  0  0  0
  183.7190  178.6020  146.1400 C   0  0  0  0  0  2  0  0  0  0  0  0
  186.1510  178.4330  145.8870 C   0  0  2  0  0  3  0  0  0  0  0  0
  185.5110  178.5590  144.5010 C   0  0  2  0  0  3  0  0  0  0  0  0
  184.0540  178.9420  144.7080 C   0  0  0  0  0  2  0  0  0  0  0  0
  185.6930  177.1860  146.6310 C   0  0  0  0  0  2  0  0  0  0  0  0
  185.0260  178.5160  146.9090 C   0  0  2  0  0  3  0  0  0  0  0  0
  189.4240  174.5080  142.9900 C   0  0  1  0  0  3  0  0  0  0  0  0
  190.0910  173.6860  144.0030 N   0  0  0  0  0  2  0  0  0  0  0  0
  191.4630  173.3990  143.5990 C   0  0  0  0  0  2  0  0  0  0  0  0
  192.1630  172.6210  144.6940 C   0  0  0  0  0  2  0  0  0  0  0  0
  194.1370  172.8380  143.3880 O   0  0  0  0  0  0  0  0  0  0  0  0
  193.6420  172.7500  144.5410 C   0  0  0  0  0  0  0  0  0  0  0  0
  194.4830  172.7940  145.6540 O   0  0  0  0  0  0  0  0  0  0  0  0
  196.0190  174.3160  145.8700 C   0  0  0  0  0  1  0  0  0  0  0  0
  195.8050  172.9800  145.5280 O   0  0  0  0  0  0  0  0  0  0  0  0
  188.4870  173.7030  142.2110 N   0  0  0  0  0  2  0  0  0  0  0  0
  188.6920  173.3920  140.8300 C   0  0  0  0  0  0  0  0  0  0  0  0
  189.4960  171.8380  139.1410 C   0  0  0  0  0  0  0  0  0  0  0  0
  188.2640  174.2620  139.8190 C   0  0  0  0  0  3  0  0  0  0  0  0
  188.4390  173.9270  138.4690 C   0  0  0  0  0  0  0  0  0  0  0  0
  189.3040  172.1850  140.4850 C   0  0  0  0  0  3  0  0  0  0  0  0
  189.0570  172.7130  138.1390 C   0  0  0  0  0  3  0  0  0  0  0  0
  189.7440  169.8870  137.8150 O   0  0  0  0  0  0  0  0  0  0  0  0
  190.1690  170.5780  138.7840 C   0  0  0  0  0  0  0  0  0  0  0  0
  191.3100  170.1420  139.5280 N   0  0  0  0  0  2  0  0  0  0  0  0
  192.0500  168.9450  139.1670 C   0  0  0  0  0  1  0  0  0  0  0  0
  187.9820  174.8080  137.4350 N   0  0  0  0  0  0  0  0  0  0  0  0
  187.0010  175.5560  137.6270 O   0  0  0  0  0  0  0  0  0  0  0  0
  188.6180  174.8320  136.2140 O   0  0  0  0  0  0  0  0  0  0  0  0
  1 13  1  6  0  0  0
  2  4  2  0  0  0  0
  3  5  1  0  0  0  0
  4  1  1  0  0  0  0
  4  3  1  0  0  0  0
  5  6  1  0  0  0  0
  7 10  1  1  0  0  0
  7  6  1  0  0  0  0
  7  9  1  0  0  0  0
  8  9  1  0  0  0  0
 11 10  1  0  0  0  0
 12 11  3  0  0  0  0
 14 16  1  1  0  0  0
 14 17  1  0  0  0  0
 14 15  1  0  0  0  0
 15 20  1  1  0  0  0
 17 13  1  6  0  0  0
 17 15  1  0  0  0  0
 19 22  1  6  0  0  0
 19 23  1  0  0  0  0
 20 21  1  1  0  0  0
 20 19  1  0  0  0  0
 21 18  1  0  0  0  0
 22 23  1  0  0  0  0
 23 18  1  6  0  0  0
 24 33  1  1  0  0  0
 24  1  1  0  0  0  0
 24 25  1  0  0  0  0
 26 25  1  0  0  0  0
 26 27  1  0  0  0  0
 28 29  2  0  0  0  0
 29 27  1  0  0  0  0
 29 30  1  0  0  0  0
 32 30  1  0  0  0  0
 32 31  1  0  0  0  0
 34 33  1  0  0  0  0
 35 38  2  0  0  0  0
 36 34  2  0  0  0  0
 37 36  1  0  0  0  0
 38 34  1  0  0  0  0
 39 37  2  0  0  0  0
 39 35  1  0  0  0  0
 40 41  2  0  0  0  0
 41 35  1  0  0  0  0
 41 42  1  0  0  0  0
 43 42  1  0  0  0  0
 44 45  2  0  0  0  0
 44 37  1  0  0  0  0
 46 44  2  0  0  0  0
M  END
>  <MODEL>
4

>  <REMARK>
 VINA RESULT:      -5.6      2.431      6.576
  Name = 
  21 active torsions:
  status: ('A' for Active; 'I' for Inactive)
    1  A    between atoms: N_2  and  C_11
    2  A    between atoms: N_2  and  C_13
    3  A    between atoms: C_4  and  C_17
    4  A    between atoms: C_4  and  C_21
    5  A    between atoms: O_5  and  O_25
    6  A    between atoms: C_7  and  C_11
    7  A    between atoms: C_7  and  O_14
    8  A    between atoms: C_7  and  C_27
    9  A    between atoms: N_9  and  C_24
   10  A    between atoms: C_10  and  N_30
   11  A    between atoms: C_11  and  N_35
   12  A    between atoms: O_14  and  C_45
   13  A    between atoms: C_17  and  O_18
   14  A    between atoms: C_17  and  C_37
   15  A    between atoms: N_19  and  C_41
   16  A    between atoms: C_22  and  N_35
   17  A    between atoms: C_22  and  C_43
   18  A    between atoms: C_24  and  C_37
   19  A    between atoms: O_25  and  C_39
   20  A    between atoms: C_28  and  C_29
   21  A    between atoms: C_39  and  C_43
                            x       y       z     vdW  Elec       q    Type
                         _______ _______ _______ _____ _____    ______ ____

>  <TORSDO>
F 21

$$$$
=
 OpenBabel11062422503D

 46 49  0  0  1  0  0  0  0  0999 V2000
  190.1190  174.2640  142.7990 C   0  0  1  0  0  3  0  0  0  0  0  0
  188.6840  172.3360  142.8600 O   0  0  0  0  0  0  0  0  0  0  0  0
  189.7470  172.6750  140.8270 N   0  0  0  0  0  2  0  0  0  0  0  0
  189.4790  173.0400  142.1820 C   0  0  0  0  0  0  0  0  0  0  0  0
  190.5510  173.4870  139.9190 C   0  0  0  0  0  2  0  0  0  0  0  0
  190.6360  172.8340  138.5450 C   0  0  0  0  0  2  0  0  0  0  0  0
  190.1770  173.7950  137.4460 C   0  0  2  0  0  3  0  0  0  0  0  0
  188.0140  174.5720  137.5840 C   0  0  0  0  0  1  0  0  0  0  0  0
  188.8390  173.5750  137.0340 O   0  0  0  0  0  0  0  0  0  0  0  0
  191.1710  173.8450  136.2880 C   0  0  0  0  0  2  0  0  0  0  0  0
  192.1050  174.9620  136.4690 C   0  0  0  0  0  0  0  0  0  0  0  0
  192.8410  175.8450  136.6140 N   0  0  0  0  0  0  0  0  0  0  0  0
  191.5340  174.2310  142.7810 O   0  0  0  0  0  0  0  0  0  0  0  0
  192.6540  172.2710  143.4440 C   0  0  1  0  0  3  0  0  0  0  0  0
  193.4720  173.4460  143.8570 N   0  0  1  0  0  0  0  0  0  0  0  0
  192.5420  171.2990  144.4460 O   0  0  0  0  0  1  0  0  0  0  0  0
  191.9980  173.4990  143.8900 C   0  0  1  0  0  3  0  0  0  0  0  0
  196.0890  174.4080  145.6390 C   0  0  0  0  0  2  0  0  0  0  0  0
  193.6810  174.7140  145.9710 C   0  0  2  0  0  3  0  0  0  0  0  0
  193.9220  173.3830  145.2510 C   0  0  2  0  0  3  0  0  0  0  0  0
  195.4130  173.0970  145.3160 C   0  0  0  0  0  2  0  0  0  0  0  0
  194.1740  175.9110  145.1690 C   0  0  0  0  0  2  0  0  0  0  0  0
  195.0460  175.3220  146.2570 C   0  0  2  0  0  3  0  0  0  0  0  0
  189.5440  175.6040  142.2980 C   0  0  1  0  0  3  0  0  0  0  0  0
  188.0800  175.6090  142.2360 N   0  0  0  0  0  2  0  0  0  0  0  0
  187.6290  176.1660  140.9660 C   0  0  0  0  0  2  0  0  0  0  0  0
  187.3000  177.6350  141.1440 C   0  0  0  0  0  2  0  0  0  0  0  0
  185.5300  177.5220  139.5620 O   0  0  0  0  0  0  0  0  0  0  0  0
  185.8980  177.8960  140.7050 C   0  0  0  0  0  0  0  0  0  0  0  0
  184.9840  178.5310  141.5470 O   0  0  0  0  0  0  0  0  0  0  0  0
  182.8350  178.2120  141.5580 C   0  0  0  0  0  1  0  0  0  0  0  0
  184.0260  177.8460  142.1880 O   0  0  0  0  0  0  0  0  0  0  0  0
  190.0270  176.7120  143.1180 N   0  0  0  0  0  2  0  0  0  0  0  0
  189.6290  176.9030  144.4780 C   0  0  0  0  0  0  0  0  0  0  0  0
  187.9120  177.5480  146.0750 C   0  0  0  0  0  0  0  0  0  0  0  0
  190.4940  176.6000  145.5370 C   0  0  0  0  0  3  0  0  0  0  0  0
  190.0760  176.7590  146.8660 C   0  0  0  0  0  0  0  0  0  0  0  0
  188.3430  177.3740  144.7530 C   0  0  0  0  0  3  0  0  0  0  0  0
  188.7840  177.2340  147.1250 C   0  0  0  0  0  3  0  0  0  0  0  0
  186.2780  178.4800  147.5190 O   0  0  0  0  0  0  0  0  0  0  0  0
  186.5660  178.0730  146.3590 C   0  0  0  0  0  0  0  0  0  0  0  0
  185.5880  178.1310  145.3160 N   0  0  0  0  0  2  0  0  0  0  0  0
  184.2720  178.7070  145.5300 C   0  0  0  0  0  1  0  0  0  0  0  0
  190.9550  176.4300  147.9490 N   0  0  0  0  0  0  0  0  0  0  0  0
  191.2090  175.2370  148.2190 O   0  0  0  0  0  0  0  0  0  0  0  0
  191.5220  177.4270  148.7100 O   0  0  0  0  0  0  0  0  0  0  0  0
  1  4  1  6  0  0  0
  3  4  1  0  0  0  0
  4  2  2  0  0  0  0
  5  3  1  0  0  0  0
  6  5  1  0  0  0  0
  7 10  1  6  0  0  0
  7  6  1  0  0  0  0
  9  7  1  0  0  0  0
  9  8  1  0  0  0  0
 10 11  1  0  0  0  0
 11 12  3  0  0  0  0
 13  1  1  0  0  0  0
 14 15  1  0  0  0  0
 14 17  1  0  0  0  0
 14 16  1  1  0  0  0
 15 17  1  0  0  0  0
 15 20  1  1  0  0  0
 17 13  1  6  0  0  0
 18 23  1  0  0  0  0
 19 22  1  6  0  0  0
 19 23  1  0  0  0  0
 20 21  1  6  0  0  0
 20 19  1  0  0  0  0
 21 18  1  0  0  0  0
 23 22  1  6  0  0  0
 24 25  1  1  0  0  0
 24  1  1  0  0  0  0
 24 33  1  0  0  0  0
 26 27  1  0  0  0  0
 26 25  1  0  0  0  0
 28 29  2  0  0  0  0
 29 27  1  0  0  0  0
 29 30  1  0  0  0  0
 30 32  1  0  0  0  0
 31 32  1  0  0  0  0
 33 34  1  0  0  0  0
 34 38  2  0  0  0  0
 34 36  1  0  0  0  0
 35 41  1  0  0  0  0
 35 39  2  0  0  0  0
 36 37  2  0  0  0  0
 37 39  1  0  0  0  0
 37 44  1  0  0  0  0
 38 35  1  0  0  0  0
 41 40  2  0  0  0  0
 42 43  1  0  0  0  0
 42 41  1  0  0  0  0
 44 45  2  0  0  0  0
 44 46  2  0  0  0  0
M  END
>  <MODEL>
5

>  <REMARK>
 VINA RESULT:      -5.6      2.562      7.061
  Name = 
  21 active torsions:
  status: ('A' for Active; 'I' for Inactive)
    1  A    between atoms: N_2  and  C_11
    2  A    between atoms: N_2  and  C_13
    3  A    between atoms: C_4  and  C_17
    4  A    between atoms: C_4  and  C_21
    5  A    between atoms: O_5  and  O_25
    6  A    between atoms: C_7  and  C_11
    7  A    between atoms: C_7  and  O_14
    8  A    between atoms: C_7  and  C_27
    9  A    between atoms: N_9  and  C_24
   10  A    between atoms: C_10  and  N_30
   11  A    between atoms: C_11  and  N_35
   12  A    between atoms: O_14  and  C_45
   13  A    between atoms: C_17  and  O_18
   14  A    between atoms: C_17  and  C_37
   15  A    between atoms: N_19  and  C_41
   16  A    between atoms: C_22  and  N_35
   17  A    between atoms: C_22  and  C_43
   18  A    between atoms: C_24  and  C_37
   19  A    between atoms: O_25  and  C_39
   20  A    between atoms: C_28  and  C_29
   21  A    between atoms: C_39  and  C_43
                            x       y       z     vdW  Elec       q    Type
                         _______ _______ _______ _____ _____    ______ ____

>  <TORSDO>
F 21

$$$$
=
 OpenBabel11062422503D

 46 49  0  0  1  0  0  0  0  0999 V2000
  188.0710  174.7690  142.1770 C   0  0  1  0  0  3  0  0  0  0  0  0
  187.6700  172.4100  142.4080 O   0  0  0  0  0  0  0  0  0  0  0  0
  188.2960  173.0710  140.2750 N   0  0  0  0  0  2  0  0  0  0  0  0
  188.0040  173.3550  141.6440 C   0  0  0  0  0  0  0  0  0  0  0  0
  188.5710  174.1030  139.2800 C   0  0  0  0  0  2  0  0  0  0  0  0
  189.7900  173.7340  138.4440 C   0  0  0  0  0  2  0  0  0  0  0  0
  189.3780  173.1940  137.0730 C   0  0  2  0  0  3  0  0  0  0  0  0
  189.4400  171.4280  135.5960 C   0  0  0  0  0  1  0  0  0  0  0  0
  190.0770  172.0180  136.7030 O   0  0  0  0  0  0  0  0  0  0  0  0
  189.4090  174.2820  136.0030 C   0  0  0  0  0  2  0  0  0  0  0  0
  190.7370  174.9040  135.9520 C   0  0  0  0  0  0  0  0  0  0  0  0
  191.7860  175.3950  135.9140 N   0  0  0  0  0  0  0  0  0  0  0  0
  186.8470  175.2230  142.7270 O   0  0  0  0  0  0  0  0  0  0  0  0
  185.9730  177.2100  141.8190 C   0  0  1  0  0  3  0  0  0  0  0  0
  185.5400  177.1080  143.2410 N   0  0  1  0  0  0  0  0  0  0  0  0
  186.4360  178.4850  141.4740 O   0  0  0  0  0  1  0  0  0  0  0  0
  186.8690  176.6270  142.8170 C   0  0  1  0  0  3  0  0  0  0  0  0
  184.0680  178.7770  145.6910 C   0  0  0  0  0  2  0  0  0  0  0  0
  186.3810  178.0320  145.3770 C   0  0  2  0  0  3  0  0  0  0  0  0
  185.7640  178.3380  144.0090 C   0  0  2  0  0  3  0  0  0  0  0  0
  184.4470  179.0560  144.2560 C   0  0  0  0  0  2  0  0  0  0  0  0
  185.6510  176.9160  146.1120 C   0  0  0  0  0  2  0  0  0  0  0  0
  185.3300  178.3620  146.4260 C   0  0  2  0  0  3  0  0  0  0  0  0
  189.2800  175.0480  143.0910 C   0  0  1  0  0  3  0  0  0  0  0  0
  189.5890  173.9290  143.9860 N   0  0  0  0  0  2  0  0  0  0  0  0
  189.7570  174.4070  145.3540 C   0  0  0  0  0  2  0  0  0  0  0  0
  189.1970  175.8100  145.4740 C   0  0  0  0  0  2  0  0  0  0  0  0
  189.6760  177.4830  147.0920 O   0  0  0  0  0  0  0  0  0  0  0  0
  190.1370  176.6640  146.2570 C   0  0  0  0  0  0  0  0  0  0  0  0
  191.5190  176.5560  146.0920 O   0  0  0  0  0  0  0  0  0  0  0  0
  193.6220  176.5420  146.6370 C   0  0  0  0  0  1  0  0  0  0  0  0
  192.3340  176.3270  147.1310 O   0  0  0  0  0  0  0  0  0  0  0  0
  190.4520  175.4120  142.3000 N   0  0  0  0  0  2  0  0  0  0  0  0
  191.6360  174.6120  142.2520 C   0  0  0  0  0  0  0  0  0  0  0  0
  193.8770  174.1560  143.0790 C   0  0  0  0  0  0  0  0  0  0  0  0
  191.7250  173.4970  141.4090 C   0  0  0  0  0  3  0  0  0  0  0  0
  192.8790  172.7020  141.3990 C   0  0  0  0  0  0  0  0  0  0  0  0
  192.7120  174.9340  143.0830 C   0  0  0  0  0  3  0  0  0  0  0  0
  193.9510  173.0390  142.2370 C   0  0  0  0  0  3  0  0  0  0  0  0
  195.5890  175.6350  143.7910 O   0  0  0  0  0  0  0  0  0  0  0  0
  195.0190  174.5170  143.9350 C   0  0  0  0  0  0  0  0  0  0  0  0
  195.4760  173.6060  144.9380 N   0  0  0  0  0  2  0  0  0  0  0  0
  196.5500  173.9470  145.8540 C   0  0  0  0  0  1  0  0  0  0  0  0
  192.9620  171.5480  140.5520 N   0  0  0  0  0  0  0  0  0  0  0  0
  194.0170  170.8840  140.4860 O   0  0  0  0  0  0  0  0  0  0  0  0
  191.8780  171.1670  139.7930 O   0  0  0  0  0  0  0  0  0  0  0  0
  1  4  1  1  0  0  0
  1 13  1  0  0  0  0
  1 24  1  0  0  0  0
  3  4  1  0  0  0  0
  4  2  2  0  0  0  0
  5  3  1  0  0  0  0
  6  5  1  0  0  0  0
  7 10  1  6  0  0  0
  7  6  1  0  0  0  0
  8  9  1  0  0  0  0
  9  7  1  0  0  0  0
 11 10  1  0  0  0  0
 12 11  3  0  0  0  0
 14 16  1  1  0  0  0
 14 17  1  0  0  0  0
 14 15  1  0  0  0  0
 15 20  1  1  0  0  0
 17 13  1  6  0  0  0
 17 15  1  0  0  0  0
 19 22  1  6  0  0  0
 19 23  1  0  0  0  0
 20 21  1  1  0  0  0
 20 19  1  0  0  0  0
 21 18  1  0  0  0  0
 22 23  1  0  0  0  0
 23 18  1  6  0  0  0
 24 33  1  6  0  0  0
 24 25  1  0  0  0  0
 25 26  1  0  0  0  0
 26 27  1  0  0  0  0
 27 29  1  0  0  0  0
 29 28  2  0  0  0  0
 30 29  1  0  0  0  0
 30 32  1  0  0  0  0
 31 32  1  0  0  0  0
 34 33  1  0  0  0  0
 34 38  1  0  0  0  0
 35 38  2  0  0  0  0
 35 41  1  0  0  0  0
 36 34  2  0  0  0  0
 37 36  1  0  0  0  0
 37 39  2  0  0  0  0
 39 35  1  0  0  0  0
 40 41  2  0  0  0  0
 41 42  1  0  0  0  0
 42 43  1  0  0  0  0
 44 37  1  0  0  0  0
 45 44  2  0  0  0  0
 46 44  2  0  0  0  0
M  END
>  <MODEL>
6

>  <REMARK>
 VINA RESULT:      -5.5      1.806      2.272
  Name = 
  21 active torsions:
  status: ('A' for Active; 'I' for Inactive)
    1  A    between atoms: N_2  and  C_11
    2  A    between atoms: N_2  and  C_13
    3  A    between atoms: C_4  and  C_17
    4  A    between atoms: C_4  and  C_21
    5  A    between atoms: O_5  and  O_25
    6  A    between atoms: C_7  and  C_11
    7  A    between atoms: C_7  and  O_14
    8  A    between atoms: C_7  and  C_27
    9  A    between atoms: N_9  and  C_24
   10  A    between atoms: C_10  and  N_30
   11  A    between atoms: C_11  and  N_35
   12  A    between atoms: O_14  and  C_45
   13  A    between atoms: C_17  and  O_18
   14  A    between atoms: C_17  and  C_37
   15  A    between atoms: N_19  and  C_41
   16  A    between atoms: C_22  and  N_35
   17  A    between atoms: C_22  and  C_43
   18  A    between atoms: C_24  and  C_37
   19  A    between atoms: O_25  and  C_39
   20  A    between atoms: C_28  and  C_29
   21  A    between atoms: C_39  and  C_43
                            x       y       z     vdW  Elec       q    Type
                         _______ _______ _______ _____ _____    ______ ____

>  <TORSDO>
F 21

$$$$
=
 OpenBabel11062422503D

 46 49  0  0  1  0  0  0  0  0999 V2000
  190.8320  176.1910  144.1900 C   0  0  1  0  0  3  0  0  0  0  0  0
  189.9040  178.3140  143.5500 O   0  0  0  0  0  0  0  0  0  0  0  0
  189.2970  177.6040  145.6740 N   0  0  0  0  0  2  0  0  0  0  0  0
  189.9990  177.4280  144.4410 C   0  0  0  0  0  0  0  0  0  0  0  0
  189.2390  176.5870  146.7180 C   0  0  0  0  0  2  0  0  0  0  0  0
  187.8240  176.0420  146.8620 C   0  0  0  0  0  2  0  0  0  0  0  0
  186.7840  177.1560  146.7130 C   0  0  2  0  0  3  0  0  0  0  0  0
  186.7640  178.9260  148.1850 C   0  0  0  0  0  1  0  0  0  0  0  0
  186.2860  177.6240  147.9550 O   0  0  0  0  0  0  0  0  0  0  0  0
  185.6880  176.7770  145.7210 C   0  0  0  0  0  2  0  0  0  0  0  0
  184.8080  177.9250  145.4760 C   0  0  0  0  0  0  0  0  0  0  0  0
  184.1120  178.8310  145.2810 N   0  0  0  0  0  0  0  0  0  0  0  0
  191.5380  175.7450  145.3340 O   0  0  0  0  0  0  0  0  0  0  0  0
  193.4670  176.4430  146.4850 C   0  0  1  0  0  3  0  0  0  0  0  0
  193.7080  175.0760  145.9430 N   0  0  1  0  0  0  0  0  0  0  0  0
  194.5430  177.3150  146.2760 O   0  0  0  0  0  1  0  0  0  0  0  0
  192.9030  176.0580  145.1920 C   0  0  1  0  0  3  0  0  0  0  0  0
  196.0860  172.8060  145.5550 C   0  0  0  0  0  2  0  0  0  0  0  0
  194.8170  174.1410  143.9380 C   0  0  2  0  0  3  0  0  0  0  0  0
  194.9840  174.9460  145.2310 C   0  0  2  0  0  3  0  0  0  0  0  0
  196.0010  174.2150  146.0920 C   0  0  0  0  0  2  0  0  0  0  0  0
  194.0430  172.8470  144.1510 C   0  0  0  0  0  2  0  0  0  0  0  0
  195.5570  172.8250  144.1320 C   0  0  2  0  0  3  0  0  0  0  0  0
  190.0830  175.0550  143.4660 C   0  0  1  0  0  3  0  0  0  0  0  0
  188.6270  175.1730  143.5740 N   0  0  0  0  0  2  0  0  0  0  0  0
  188.0410  175.4230  142.2610 C   0  0  0  0  0  2  0  0  0  0  0  0
  186.7110  176.1310  142.4250 C   0  0  0  0  0  2  0  0  0  0  0  0
  187.7300  177.7360  140.9990 O   0  0  0  0  0  0  0  0  0  0  0  0
  186.7620  177.4620  141.7540 C   0  0  0  0  0  0  0  0  0  0  0  0
  185.7450  178.4010  141.9340 O   0  0  0  0  0  0  0  0  0  0  0  0
  183.9990  178.3030  140.6460 C   0  0  0  0  0  1  0  0  0  0  0  0
  184.4520  178.0440  141.9400 O   0  0  0  0  0  0  0  0  0  0  0  0
  190.4910  174.9800  142.0650 N   0  0  0  0  0  2  0  0  0  0  0  0
  191.4360  174.0230  141.5820 C   0  0  0  0  0  0  0  0  0  0  0  0
  192.0290  171.6990  141.1780 C   0  0  0  0  0  0  0  0  0  0  0  0
  192.6450  174.4270  141.0000 C   0  0  0  0  0  3  0  0  0  0  0  0
  193.5470  173.4780  140.4980 C   0  0  0  0  0  0  0  0  0  0  0  0
  191.1350  172.6610  141.6660 C   0  0  0  0  0  3  0  0  0  0  0  0
  193.2310  172.1170  140.5920 C   0  0  0  0  0  3  0  0  0  0  0  0
  191.9510  169.6540  142.3780 O   0  0  0  0  0  0  0  0  0  0  0  0
  191.7190  170.2640  141.2960 C   0  0  0  0  0  0  0  0  0  0  0  0
  191.1470  169.5640  140.1890 N   0  0  0  0  0  2  0  0  0  0  0  0
  190.7570  168.1680  140.2820 C   0  0  0  0  0  1  0  0  0  0  0  0
  194.7740  173.8940  139.8840 N   0  0  0  0  0  0  0  0  0  0  0  0
  195.4220  173.1040  139.1670 O   0  0  0  0  0  0  0  0  0  0  0  0
  195.2540  175.1680  140.0880 O   0  0  0  0  0  0  0  0  0  0  0  0
  1  4  1  1  0  0  0
  1 13  1  0  0  0  0
  2  4  2  0  0  0  0
  3  5  1  0  0  0  0
  4  3  1  0  0  0  0
  5  6  1  0  0  0  0
  7 10  1  6  0  0  0
  7  6  1  0  0  0  0
  7  9  1  0  0  0  0
  9  8  1  0  0  0  0
 11 10  1  0  0  0  0
 12 11  3  0  0  0  0
 14 16  1  6  0  0  0
 15 20  1  6  0  0  0
 15 14  1  0  0  0  0
 17 13  1  1  0  0  0
 17 15  1  0  0  0  0
 17 14  1  0  0  0  0
 18 21  1  0  0  0  0
 19 23  1  0  0  0  0
 19 22  1  1  0  0  0
 19 20  1  0  0  0  0
 20 21  1  1  0  0  0
 23 22  1  1  0  0  0
 23 18  1  0  0  0  0
 24 33  1  6  0  0  0
 24 25  1  0  0  0  0
 24  1  1  0  0  0  0
 26 27  1  0  0  0  0
 26 25  1  0  0  0  0
 28 29  2  0  0  0  0
 29 30  1  0  0  0  0
 29 27  1  0  0  0  0
 30 32  1  0  0  0  0
 31 32  1  0  0  0  0
 34 38  1  0  0  0  0
 34 33  1  0  0  0  0
 35 41  1  0  0  0  0
 35 38  2  0  0  0  0
 36 34  2  0  0  0  0
 37 39  2  0  0  0  0
 37 36  1  0  0  0  0
 39 35  1  0  0  0  0
 41 40  2  0  0  0  0
 42 43  1  0  0  0  0
 42 41  1  0  0  0  0
 44 46  2  0  0  0  0
 44 37  1  0  0  0  0
 45 44  2  0  0  0  0
M  END
>  <MODEL>
7

>  <REMARK>
 VINA RESULT:      -5.4      2.689      7.902
  Name = 
  21 active torsions:
  status: ('A' for Active; 'I' for Inactive)
    1  A    between atoms: N_2  and  C_11
    2  A    between atoms: N_2  and  C_13
    3  A    between atoms: C_4  and  C_17
    4  A    between atoms: C_4  and  C_21
    5  A    between atoms: O_5  and  O_25
    6  A    between atoms: C_7  and  C_11
    7  A    between atoms: C_7  and  O_14
    8  A    between atoms: C_7  and  C_27
    9  A    between atoms: N_9  and  C_24
   10  A    between atoms: C_10  and  N_30
   11  A    between atoms: C_11  and  N_35
   12  A    between atoms: O_14  and  C_45
   13  A    between atoms: C_17  and  O_18
   14  A    between atoms: C_17  and  C_37
   15  A    between atoms: N_19  and  C_41
   16  A    between atoms: C_22  and  N_35
   17  A    between atoms: C_22  and  C_43
   18  A    between atoms: C_24  and  C_37
   19  A    between atoms: O_25  and  C_39
   20  A    between atoms: C_28  and  C_29
   21  A    between atoms: C_39  and  C_43
                            x       y       z     vdW  Elec       q    Type
                         _______ _______ _______ _____ _____    ______ ____

>  <TORSDO>
F 21

$$$$
=
 OpenBabel11062422503D

 46 49  0  0  1  0  0  0  0  0999 V2000
  190.2530  176.4620  143.7100 C   0  0  1  0  0  3  0  0  0  0  0  0
  191.5160  178.3070  142.8270 O   0  0  0  0  0  0  0  0  0  0  0  0
  192.4310  176.2220  142.3870 N   0  0  0  0  0  2  0  0  0  0  0  0
  191.4190  177.0570  142.9520 C   0  0  0  0  0  0  0  0  0  0  0  0
  192.4810  174.7760  142.5800 C   0  0  0  0  0  2  0  0  0  0  0  0
  193.8680  174.2370  142.2520 C   0  0  0  0  0  2  0  0  0  0  0  0
  193.7920  172.8100  141.7050 C   0  0  2  0  0  3  0  0  0  0  0  0
  193.2990  171.4330  139.9270 C   0  0  0  0  0  1  0  0  0  0  0  0
  193.1340  172.7270  140.4530 O   0  0  0  0  0  0  0  0  0  0  0  0
  193.2480  171.8340  142.7450 C   0  0  0  0  0  2  0  0  0  0  0  0
  194.2940  171.4930  143.7160 C   0  0  0  0  0  0  0  0  0  0  0  0
  195.1190  171.2220  144.4830 N   0  0  0  0  0  0  0  0  0  0  0  0
  189.9430  177.1570  144.9040 O   0  0  0  0  0  0  0  0  0  0  0  0
  189.9320  175.0520  145.9550 C   0  0  1  0  0  3  0  0  0  0  0  0
  191.3260  175.3610  145.5280 N   0  0  1  0  0  0  0  0  0  0  0  0
  189.8540  174.5420  147.2570 O   0  0  0  0  0  1  0  0  0  0  0  0
  190.4250  176.4280  146.0070 C   0  0  1  0  0  3  0  0  0  0  0  0
  194.5640  174.7190  145.7570 C   0  0  0  0  0  2  0  0  0  0  0  0
  193.1500  176.4100  146.8290 C   0  0  2  0  0  3  0  0  0  0  0  0
  192.3200  175.1460  146.5840 C   0  0  2  0  0  3  0  0  0  0  0  0
  193.2850  174.0400  146.1870 C   0  0  0  0  0  2  0  0  0  0  0  0
  193.6760  177.0230  145.5370 C   0  0  0  0  0  2  0  0  0  0  0  0
  194.5670  176.1130  146.3570 C   0  0  2  0  0  3  0  0  0  0  0  0
  189.0110  176.1740  142.8430 C   0  0  1  0  0  3  0  0  0  0  0  0
  189.2420  175.1250  141.8470 N   0  0  0  0  0  2  0  0  0  0  0  0
  188.5940  173.8850  142.2590 C   0  0  0  0  0  2  0  0  0  0  0  0
  188.2520  173.0590  141.0350 C   0  0  0  0  0  2  0  0  0  0  0  0
  190.0740  171.5490  141.2490 O   0  0  0  0  0  0  0  0  0  0  0  0
  189.4800  172.3850  140.5220 C   0  0  0  0  0  0  0  0  0  0  0  0
  189.9690  172.6520  139.2420 O   0  0  0  0  0  0  0  0  0  0  0  0
  189.0660  173.3790  137.4040 C   0  0  0  0  0  1  0  0  0  0  0  0
  189.6640  173.7880  138.5970 O   0  0  0  0  0  0  0  0  0  0  0  0
  187.8620  175.8430  143.6820 N   0  0  0  0  0  2  0  0  0  0  0  0
  186.7590  176.7310  143.8750 C   0  0  0  0  0  0  0  0  0  0  0  0
  184.8430  177.9060  142.9470 C   0  0  0  0  0  0  0  0  0  0  0  0
  186.4620  177.2550  145.1400 C   0  0  0  0  0  3  0  0  0  0  0  0
  185.3540  178.0960  145.3200 C   0  0  0  0  0  0  0  0  0  0  0  0
  185.9470  177.0580  142.7870 C   0  0  0  0  0  3  0  0  0  0  0  0
  184.5510  178.4170  144.2180 C   0  0  0  0  0  3  0  0  0  0  0  0
  184.5490  178.5550  140.6840 O   0  0  0  0  0  0  0  0  0  0  0  0
  184.0070  178.2710  141.7900 C   0  0  0  0  0  0  0  0  0  0  0  0
  182.5830  178.2930  141.9170 N   0  0  0  0  0  2  0  0  0  0  0  0
  181.7170  178.5760  140.7860 C   0  0  0  0  0  1  0  0  0  0  0  0
  185.0380  178.6150  146.6190 N   0  0  0  0  0  0  0  0  0  0  0  0
  183.9410  178.3570  147.1540 O   0  0  0  0  0  0  0  0  0  0  0  0
  185.9420  179.4120  147.2850 O   0  0  0  0  0  0  0  0  0  0  0  0
  1  4  1  6  0  0  0
  1 13  1  0  0  0  0
  2  4  2  0  0  0  0
  3  5  1  0  0  0  0
  3  4  1  0  0  0  0
  6  5  1  0  0  0  0
  7  6  1  1  0  0  0
  7 10  1  0  0  0  0
  8  9  1  0  0  0  0
  9  7  1  0  0  0  0
 10 11  1  0  0  0  0
 11 12  3  0  0  0  0
 14 17  1  0  0  0  0
 14 16  1  1  0  0  0
 15 14  1  0  0  0  0
 15 17  1  0  0  0  0
 15 20  1  1  0  0  0
 17 13  1  6  0  0  0
 18 21  1  0  0  0  0
 18 23  1  0  0  0  0
 19 22  1  6  0  0  0
 20 21  1  6  0  0  0
 20 19  1  0  0  0  0
 23 22  1  6  0  0  0
 23 19  1  0  0  0  0
 24 25  1  6  0  0  0
 24 33  1  0  0  0  0
 24  1  1  0  0  0  0
 25 26  1  0  0  0  0
 27 26  1  0  0  0  0
 29 27  1  0  0  0  0
 29 28  2  0  0  0  0
 30 29  1  0  0  0  0
 31 32  1  0  0  0  0
 32 30  1  0  0  0  0
 33 34  1  0  0  0  0
 34 36  1  0  0  0  0
 35 39  2  0  0  0  0
 36 37  2  0  0  0  0
 37 44  1  0  0  0  0
 38 35  1  0  0  0  0
 38 34  2  0  0  0  0
 39 37  1  0  0  0  0
 40 41  2  0  0  0  0
 41 42  1  0  0  0  0
 41 35  1  0  0  0  0
 43 42  1  0  0  0  0
 44 45  2  0  0  0  0
 44 46  2  0  0  0  0
M  END
>  <MODEL>
8

>  <REMARK>
 VINA RESULT:      -5.4      2.630      8.184
  Name = 
  21 active torsions:
  status: ('A' for Active; 'I' for Inactive)
    1  A    between atoms: N_2  and  C_11
    2  A    between atoms: N_2  and  C_13
    3  A    between atoms: C_4  and  C_17
    4  A    between atoms: C_4  and  C_21
    5  A    between atoms: O_5  and  O_25
    6  A    between atoms: C_7  and  C_11
    7  A    between atoms: C_7  and  O_14
    8  A    between atoms: C_7  and  C_27
    9  A    between atoms: N_9  and  C_24
   10  A    between atoms: C_10  and  N_30
   11  A    between atoms: C_11  and  N_35
   12  A    between atoms: O_14  and  C_45
   13  A    between atoms: C_17  and  O_18
   14  A    between atoms: C_17  and  C_37
   15  A    between atoms: N_19  and  C_41
   16  A    between atoms: C_22  and  N_35
   17  A    between atoms: C_22  and  C_43
   18  A    between atoms: C_24  and  C_37
   19  A    between atoms: O_25  and  C_39
   20  A    between atoms: C_28  and  C_29
   21  A    between atoms: C_39  and  C_43
                            x       y       z     vdW  Elec       q    Type
                         _______ _______ _______ _____ _____    ______ ____

>  <TORSDO>
F 21

$$$$
=
 OpenBabel11062422503D

 46 49  0  0  1  0  0  0  0  0999 V2000
  191.4660  174.6920  144.0830 C   0  0  1  0  0  3  0  0  0  0  0  0
  191.2790  176.7110  142.7910 O   0  0  0  0  0  0  0  0  0  0  0  0
  192.1660  174.9090  141.6300 N   0  0  0  0  0  2  0  0  0  0  0  0
  191.6200  175.4980  142.8120 C   0  0  0  0  0  0  0  0  0  0  0  0
  192.7050  173.5540  141.5810 C   0  0  0  0  0  2  0  0  0  0  0  0
  194.0380  173.5310  140.8440 C   0  0  0  0  0  2  0  0  0  0  0  0
  193.9280  172.7670  139.5230 C   0  0  2  0  0  3  0  0  0  0  0  0
  192.9960  170.9670  138.4300 C   0  0  0  0  0  1  0  0  0  0  0  0
  193.4220  171.4520  139.6800 O   0  0  0  0  0  0  0  0  0  0  0  0
  195.2270  172.8290  138.7240 C   0  0  0  0  0  2  0  0  0  0  0  0
  195.4100  174.1690  138.1560 C   0  0  0  0  0  0  0  0  0  0  0  0
  195.5540  175.2270  137.7060 N   0  0  0  0  0  0  0  0  0  0  0  0
  192.1530  175.2470  145.1890 O   0  0  0  0  0  0  0  0  0  0  0  0
  194.1310  176.3440  145.8360 C   0  0  1  0  0  3  0  0  0  0  0  0
  194.3860  174.8760  145.8270 N   0  0  1  0  0  0  0  0  0  0  0  0
  195.1540  177.0850  145.2310 O   0  0  0  0  0  1  0  0  0  0  0  0
  193.4910  175.4970  144.8310 C   0  0  1  0  0  3  0  0  0  0  0  0
  196.8220  172.6580  146.1310 C   0  0  0  0  0  2  0  0  0  0  0  0
  195.3860  173.2630  144.2400 C   0  0  2  0  0  3  0  0  0  0  0  0
  195.6110  174.5010  145.1140 C   0  0  2  0  0  3  0  0  0  0  0  0
  196.7170  174.1640  146.1010 C   0  0  0  0  0  2  0  0  0  0  0  0
  194.6840  172.1380  144.9890 C   0  0  0  0  0  2  0  0  0  0  0  0
  196.1920  172.1280  144.8560 C   0  0  2  0  0  3  0  0  0  0  0  0
  190.0140  174.2960  144.4150 C   0  0  1  0  0  3  0  0  0  0  0  0
  189.8620  172.8650  144.6910 N   0  0  0  0  0  2  0  0  0  0  0  0
  189.5660  172.1410  143.4600 C   0  0  0  0  0  2  0  0  0  0  0  0
  188.6400  172.9710  142.5930 C   0  0  0  0  0  2  0  0  0  0  0  0
  189.6920  171.9020  140.7500 O   0  0  0  0  0  0  0  0  0  0  0  0
  189.1010  172.9270  141.1750 C   0  0  0  0  0  0  0  0  0  0  0  0
  188.8720  173.9960  140.3080 O   0  0  0  0  0  0  0  0  0  0  0  0
  188.1990  174.0350  138.2420 C   0  0  0  0  0  1  0  0  0  0  0  0
  189.3370  173.9910  139.0490 O   0  0  0  0  0  0  0  0  0  0  0  0
  189.5050  175.0910  145.5290 N   0  0  0  0  0  2  0  0  0  0  0  0
  188.5290  176.1230  145.3640 C   0  0  0  0  0  0  0  0  0  0  0  0
  187.1830  177.5010  143.8790 C   0  0  0  0  0  0  0  0  0  0  0  0
  187.9240  176.7320  146.4710 C   0  0  0  0  0  3  0  0  0  0  0  0
  186.9430  177.7180  146.2930 C   0  0  0  0  0  0  0  0  0  0  0  0
  188.1540  176.5100  144.0750 C   0  0  0  0  0  3  0  0  0  0  0  0
  186.5790  178.0970  144.9940 C   0  0  0  0  0  3  0  0  0  0  0  0
  187.7110  178.2540  141.6930 O   0  0  0  0  0  0  0  0  0  0  0  0
  186.8130  177.9250  142.5180 C   0  0  0  0  0  0  0  0  0  0  0  0
  185.4380  177.9550  142.1290 N   0  0  0  0  0  2  0  0  0  0  0  0
  185.0300  178.2960  140.7770 C   0  0  0  0  0  1  0  0  0  0  0  0
  186.3080  178.3270  147.4260 N   0  0  0  0  0  0  0  0  0  0  0  0
  185.0650  178.3100  147.5400 O   0  0  0  0  0  0  0  0  0  0  0  0
  187.0650  178.9430  148.3960 O   0  0  0  0  0  0  0  0  0  0  0  0
  1  4  1  6  0  0  0
  1 24  1  0  0  0  0
  1 13  1  0  0  0  0
  2  4  2  0  0  0  0
  3  4  1  0  0  0  0
  5  3  1  0  0  0  0
  6  5  1  0  0  0  0
  7 10  1  1  0  0  0
  7  9  1  0  0  0  0
  7  6  1  0  0  0  0
  8  9  1  0  0  0  0
 11 10  1  0  0  0  0
 12 11  3  0  0  0  0
 14 16  1  6  0  0  0
 15 20  1  6  0  0  0
 15 14  1  0  0  0  0
 17 13  1  1  0  0  0
 17 15  1  0  0  0  0
 17 14  1  0  0  0  0
 19 23  1  0  0  0  0
 19 22  1  1  0  0  0
 19 20  1  0  0  0  0
 20 21  1  1  0  0  0
 21 18  1  0  0  0  0
 23 22  1  1  0  0  0
 23 18  1  0  0  0  0
 24 25  1  1  0  0  0
 24 33  1  0  0  0  0
 26 25  1  0  0  0  0
 27 26  1  0  0  0  0
 28 29  2  0  0  0  0
 29 27  1  0  0  0  0
 30 29  1  0  0  0  0
 31 32  1  0  0  0  0
 32 30  1  0  0  0  0
 34 33  1  0  0  0  0
 34 36  1  0  0  0  0
 35 38  1  0  0  0  0
 35 39  2  0  0  0  0
 37 36  2  0  0  0  0
 37 44  1  0  0  0  0
 38 34  2  0  0  0  0
 39 37  1  0  0  0  0
 40 41  2  0  0  0  0
 41 35  1  0  0  0  0
 42 41  1  0  0  0  0
 43 42  1  0  0  0  0
 44 45  2  0  0  0  0
 44 46  2  0  0  0  0
M  END
>  <MODEL>
9

>  <REMARK>
 VINA RESULT:      -5.4      2.560      8.032
  Name = 
  21 active torsions:
  status: ('A' for Active; 'I' for Inactive)
    1  A    between atoms: N_2  and  C_11
    2  A    between atoms: N_2  and  C_13
    3  A    between atoms: C_4  and  C_17
    4  A    between atoms: C_4  and  C_21
    5  A    between atoms: O_5  and  O_25
    6  A    between atoms: C_7  and  C_11
    7  A    between atoms: C_7  and  O_14
    8  A    between atoms: C_7  and  C_27
    9  A    between atoms: N_9  and  C_24
   10  A    between atoms: C_10  and  N_30
   11  A    between atoms: C_11  and  N_35
   12  A    between atoms: O_14  and  C_45
   13  A    between atoms: C_17  and  O_18
   14  A    between atoms: C_17  and  C_37
   15  A    between atoms: N_19  and  C_41
   16  A    between atoms: C_22  and  N_35
   17  A    between atoms: C_22  and  C_43
   18  A    between atoms: C_24  and  C_37
   19  A    between atoms: O_25  and  C_39
   20  A    between atoms: C_28  and  C_29
   21  A    between atoms: C_39  and  C_43
                            x       y       z     vdW  Elec       q    Type
                         _______ _______ _______ _____ _____    ______ ____

>  <TORSDO>
F 21

$$$$
