=
 OpenBabel11072409183D

 64 68  0  0  1  0  0  0  0  0999 V2000
  187.8220  176.4510  144.4000 C   0  0  2  0  0  3  0  0  0  0  0  0
  193.1630  173.0320  140.7280 C   0  0  2  0  0  3  0  0  0  0  0  0
  193.5310  173.2780  143.1320 O   0  0  0  0  0  0  0  0  0  0  0  0
  194.9540  175.6980  146.2260 O   0  0  0  0  0  0  0  0  0  0  0  0
  191.8180  176.6830  147.2970 O   0  0  0  0  0  1  0  0  0  0  0  0
  193.0170  174.3420  146.0470 C   0  0  0  0  0  2  0  0  0  0  0  0
  191.6340  174.8860  145.6910 C   0  0  2  0  0  3  0  0  0  0  0  0
  191.2140  174.5460  144.2620 C   0  0  1  0  0  3  0  0  0  0  0  0
  187.1330  174.3330  141.5690 O   0  0  0  0  0  0  0  0  0  0  0  0
  194.0880  175.1510  141.7250 C   0  0  0  0  0  2  0  0  0  0  0  0
  194.3260  175.2560  144.0710 O   0  0  0  0  0  0  0  0  0  0  0  0
  189.7200  174.8630  144.1010 C   0  0  2  0  0  3  0  0  0  0  0  0
  189.2010  174.4070  142.7380 C   0  0  0  0  0  2  0  0  0  0  0  0
  192.6850  172.7110  142.1470 C   0  0  0  0  0  2  0  0  0  0  0  0
  193.3460  174.5400  140.5480 C   0  0  0  0  0  2  0  0  0  0  0  0
  189.1620  176.0420  146.8530 O   0  0  0  0  0  1  0  0  0  0  0  0
  187.8070  174.8770  142.4810 C   0  0  0  0  0  0  0  0  0  0  0  0
  189.9200  177.1980  143.4990 O   0  0  0  0  0  1  0  0  0  0  0  0
  189.8950  176.6960  145.8520 C   0  0  2  0  0  3  0  0  0  0  0  0
  193.4900  174.6970  143.0600 C   0  0  2  0  0  0  0  0  0  0  0  0
  189.3580  176.3300  144.4450 C   0  0  1  0  0  0  0  0  0  0  0  0
  194.1400  175.1300  145.4510 C   0  0  0  0  0  0  0  0  0  0  0  0
  191.3890  176.3710  146.0030 C   0  0  1  0  0  3  0  0  0  0  0  0
  187.2750  175.9690  143.1700 O   0  0  0  0  0  0  0  0  0  0  0  0
  192.0650  175.2680  143.2050 C   0  0  0  0  0  2  0  0  0  0  0  0
  187.1670  178.5910  143.5180 O   0  0  0  0  0  1  0  0  0  0  0  0
  187.3020  177.8670  144.7030 C   0  0  1  0  0  3  0  0  0  0  0  0
  187.3870  178.2910  148.1700 O   0  0  0  0  0  0  0  0  0  0  0  0
  184.7240  178.7100  147.9370 O   0  0  0  0  0  0  0  0  0  0  0  0
  186.0130  178.4380  147.1940 P   0  0  0  0  0  0  0  0  0  0  0  0
  185.9680  177.8870  145.4770 C   0  0  2  0  0  3  0  0  0  0  0  0
  185.8150  176.9000  146.3710 O   0  0  0  0  0  0  0  0  0  0  0  0
  184.6800  178.2200  144.7430 C   0  0  0  0  0  2  0  0  0  0  0  0
  184.7770  177.8190  143.3500 N   0  0  0  0  0  2  0  0  0  0  0  0
  182.7590  178.8270  142.7560 O   0  0  0  0  0  0  0  0  0  0  0  0
  183.7790  178.1810  142.3940 C   0  0  0  0  0  0  0  0  0  0  0  0
  183.9150  177.7660  140.9640 C   0  0  1  0  0  3  0  0  0  0  0  0
  182.6840  178.0030  140.2250 N   0  0  0  0  0  1  0  0  0  0  0  0
  185.1130  178.4180  140.2730 C   0  0  0  0  0  2  0  0  0  0  0  0
  187.4120  177.7760  140.4850 O   0  0  0  0  0  1  0  0  0  0  0  0
  186.2030  177.4280  139.8760 C   0  0  0  0  0  2  0  0  0  0  0  0
  192.1760  172.4680  139.6960 C   0  0  2  0  0  3  0  0  0  0  0  0
  191.5480  173.5100  138.9970 O   0  0  0  0  0  0  0  0  0  0  0  0
  188.9770  173.4420  137.8850 O   0  0  0  0  0  1  0  0  0  0  0  0
  189.8820  172.4190  136.0490 O   0  0  0  0  0  0  0  0  0  0  0  0
  190.0690  172.9620  137.1720 C   0  0  0  0  0  0  0  0  0  0  0  0
  191.3910  173.0670  137.7220 N   0  0  0  0  0  0  0  0  0  0  0  0
  192.5290  172.4260  137.0620 C   0  0  0  0  0  2  0  0  0  0  0  0
  194.8280  171.5870  135.0420 C   0  0  2  0  0  3  0  0  0  0  0  0
  197.3120  172.9970  137.0690 O   0  0  0  0  0  0  0  0  0  0  0  0
  193.2660  173.3740  136.1160 C   0  0  1  0  0  3  0  0  0  0  0  0
  193.5950  175.6550  136.9970 C   0  0  0  0  0  1  0  0  0  0  0  0
  195.6240  174.4260  136.1250 C   0  0  2  0  0  3  0  0  0  0  0  0
  196.1320  172.0920  135.3300 O   0  0  0  0  0  0  0  0  0  0  0  0
  194.2660  174.2990  136.8320 C   0  0  2  0  0  3  0  0  0  0  0  0
  193.7570  172.6720  134.8380 C   0  0  0  0  0  2  0  0  0  0  0  0
  196.3920  173.1360  136.2170 C   0  0  0  0  0  0  0  0  0  0  0  0
  194.4480  170.6420  135.9950 O   0  0  0  0  0  1  0  0  0  0  0  0
  196.4550  175.5950  136.6590 C   0  0  0  0  0  2  0  0  0  0  0  0
  197.1470  176.3150  135.5120 C   0  0  0  0  0  1  0  0  0  0  0  0
  191.1460  171.4890  140.2970 C   0  0  0  0  0  2  0  0  0  0  0  0
  192.6630  169.8880  139.3640 O   0  0  0  0  0  1  0  0  0  0  0  0
  190.3740  169.6550  138.7870 C   0  0  0  0  0  1  0  0  0  0  0  0
  191.3690  170.0420  139.8620 C   0  0  2  0  0  3  0  0  0  0  0  0
  1 21  1  0  0  0  0
  1 27  1  6  0  0  0
  2 42  1  6  0  0  0
  2 14  1  0  0  0  0
  7 23  1  0  0  0  0
  7  6  1  6  0  0  0
  8 25  1  6  0  0  0
  8  7  1  0  0  0  0
  9 17  2  0  0  0  0
 11 22  1  0  0  0  0
 12 13  1  6  0  0  0
 12  8  1  0  0  0  0
 12 21  1  0  0  0  0
 14  3  1  0  0  0  0
 15  2  1  0  0  0  0
 15 10  1  0  0  0  0
 17 13  1  0  0  0  0
 17 24  1  0  0  0  0
 19 23  1  0  0  0  0
 19 16  1  1  0  0  0
 20 10  1  6  0  0  0
 20  3  1  0  0  0  0
 20 25  1  0  0  0  0
 20 11  1  0  0  0  0
 21 18  1  6  0  0  0
 21 19  1  0  0  0  0
 22  6  1  0  0  0  0
 22  4  2  0  0  0  0
 23  5  1  1  0  0  0
 24  1  1  0  0  0  0
 27 26  1  6  0  0  0
 27 31  1  0  0  0  0
 30 29  2  0  0  0  0
 30 28  2  0  0  0  0
 31 33  1  6  0  0  0
 31 32  1  0  0  0  0
 32 30  1  0  0  0  0
 34 33  1  0  0  0  0
 36 35  2  0  0  0  0
 36 34  1  0  0  0  0
 37 38  1  6  0  0  0
 37 36  1  0  0  0  0
 39 37  1  0  0  0  0
 41 39  1  0  0  0  0
 41 40  1  0  0  0  0
 42 61  1  1  0  0  0
 43 42  1  0  0  0  0
 45 46  2  0  0  0  0
 46 47  1  0  0  0  0
 46 44  1  0  0  0  0
 47 43  1  0  0  0  0
 48 47  1  0  0  0  0
 49 54  1  0  0  0  0
 49 58  1  1  0  0  0
 51 55  1  0  0  0  0
 51 48  1  1  0  0  0
 53 57  1  0  0  0  0
 53 59  1  1  0  0  0
 53 55  1  0  0  0  0
 54 57  1  0  0  0  0
 55 52  1  6  0  0  0
 56 49  1  0  0  0  0
 56 51  1  0  0  0  0
 57 50  2  0  0  0  0
 60 59  1  0  0  0  0
 62 64  1  0  0  0  0
 64 63  1  6  0  0  0
 64 61  1  0  0  0  0
M  END
>  <MODEL>
1

>  <REMARK>
 VINA RESULT:      -7.4      0.000      0.000
  Name = 
  15 active torsions:
  status: ('A' for Active; 'I' for Inactive)
    1  A    between atoms: O_1  and  C_20
    2  A    between atoms: O_1  and  N_60
    3  A    between atoms: C_2  and  C_35
    4  A    between atoms: C_3  and  C_20
    5  A    between atoms: C_4  and  C_20
    6  A    between atoms: C_4  and  C_50
    7  A    between atoms: C_5  and  N_12
    8  A    between atoms: C_5  and  C_37
    9  A    between atoms: C_14  and  C_27
   10  A    between atoms: C_14  and  C_52
   11  A    between atoms: C_27  and  C_53
   12  A    between atoms: C_34  and  C_39
   13  A    between atoms: C_34  and  N_60
   14  A    between atoms: C_35  and  C_37
   15  A    between atoms: C_44  and  C_51
                            x       y       z     vdW  Elec       q    Type
                         _______ _______ _______ _____ _____    ______ ____

>  <TORSDO>
F 15

$$$$
=
 OpenBabel11072409183D

 64 68  0  0  1  0  0  0  0  0999 V2000
  188.2020  176.6420  142.6480 C   0  0  2  0  0  3  0  0  0  0  0  0
  194.8700  174.2890  144.5740 C   0  0  2  0  0  3  0  0  0  0  0  0
  193.3270  174.7070  146.4240 O   0  0  0  0  0  0  0  0  0  0  0  0
  191.7360  177.4990  149.0930 O   0  0  0  0  0  0  0  0  0  0  0  0
  188.7340  177.8380  147.4130 O   0  0  0  0  0  1  0  0  0  0  0  0
  190.7250  175.7560  147.8450 C   0  0  0  0  0  2  0  0  0  0  0  0
  189.9940  175.9780  146.5210 C   0  0  2  0  0  3  0  0  0  0  0  0
  190.7980  175.4980  145.3130 C   0  0  1  0  0  3  0  0  0  0  0  0
  190.0570  174.3100  140.6240 O   0  0  0  0  0  0  0  0  0  0  0  0
  194.5160  176.5960  145.5200 C   0  0  0  0  0  2  0  0  0  0  0  0
  192.9440  176.8460  147.2640 O   0  0  0  0  0  0  0  0  0  0  0  0
  189.8770  175.4830  144.0840 C   0  0  2  0  0  3  0  0  0  0  0  0
  190.5800  174.8710  142.8730 C   0  0  0  0  0  2  0  0  0  0  0  0
  193.5460  173.9330  145.2570 C   0  0  0  0  0  2  0  0  0  0  0  0
  194.9500  175.7930  144.3050 C   0  0  0  0  0  2  0  0  0  0  0  0
  187.3510  176.6290  145.3420 O   0  0  0  0  0  1  0  0  0  0  0  0
  189.7790  175.0230  141.6220 C   0  0  0  0  0  0  0  0  0  0  0  0
  190.1830  177.7800  143.3890 O   0  0  0  0  0  1  0  0  0  0  0  0
  188.5010  177.3820  145.0620 C   0  0  2  0  0  3  0  0  0  0  0  0
  193.1890  176.0800  146.0850 C   0  0  2  0  0  0  0  0  0  0  0  0
  189.2130  176.8520  143.7920 C   0  0  1  0  0  0  0  0  0  0  0  0
  191.8230  176.7400  148.0930 C   0  0  0  0  0  0  0  0  0  0  0  0
  189.4300  177.3880  146.2860 C   0  0  1  0  0  3  0  0  0  0  0  0
  188.7910  176.0040  141.5120 O   0  0  0  0  0  0  0  0  0  0  0  0
  192.0600  176.3410  145.0670 C   0  0  0  0  0  2  0  0  0  0  0  0
  188.1780  178.5720  141.2140 O   0  0  0  0  0  1  0  0  0  0  0  0
  187.4670  177.9250  142.2250 C   0  0  1  0  0  3  0  0  0  0  0  0
  184.8900  178.3600  144.5430 O   0  0  0  0  0  0  0  0  0  0  0  0
  183.2620  178.2570  142.3840 O   0  0  0  0  0  0  0  0  0  0  0  0
  184.6950  178.2380  142.8670 P   0  0  0  0  0  0  0  0  0  0  0  0
  186.0140  177.6880  141.7660 C   0  0  2  0  0  3  0  0  0  0  0  0
  185.3750  176.6910  142.3940 O   0  0  0  0  0  0  0  0  0  0  0  0
  185.6720  177.7660  140.2870 C   0  0  0  0  0  2  0  0  0  0  0  0
  186.7140  177.1330  139.4970 N   0  0  0  0  0  2  0  0  0  0  0  0
  185.2290  176.3590  137.8720 O   0  0  0  0  0  0  0  0  0  0  0  0
  186.4200  176.4570  138.2730 C   0  0  0  0  0  0  0  0  0  0  0  0
  187.5170  175.8280  137.4740 C   0  0  1  0  0  3  0  0  0  0  0  0
  187.7630  174.4580  137.8990 N   0  0  0  0  0  1  0  0  0  0  0  0
  187.2660  175.9060  135.9680 C   0  0  0  0  0  2  0  0  0  0  0  0
  189.3540  176.0070  134.7950 O   0  0  0  0  0  1  0  0  0  0  0  0
  188.2720  176.7800  135.2250 C   0  0  0  0  0  2  0  0  0  0  0  0
  195.0280  173.4870  143.2750 C   0  0  2  0  0  3  0  0  0  0  0  0
  195.9320  172.4290  143.4570 O   0  0  0  0  0  0  0  0  0  0  0  0
  195.7960  171.2310  145.9860 O   0  0  0  0  0  1  0  0  0  0  0  0
  194.5890  169.5370  145.0320 O   0  0  0  0  0  0  0  0  0  0  0  0
  195.1610  170.6520  144.8930 C   0  0  0  0  0  0  0  0  0  0  0  0
  195.1760  171.3120  143.6180 N   0  0  0  0  0  0  0  0  0  0  0  0
  194.6550  170.6450  142.4250 C   0  0  0  0  0  2  0  0  0  0  0  0
  192.0800  168.7990  142.6140 C   0  0  2  0  0  3  0  0  0  0  0  0
  191.9110  168.4460  139.1330 O   0  0  0  0  0  0  0  0  0  0  0  0
  193.2270  171.0790  142.0910 C   0  0  1  0  0  3  0  0  0  0  0  0
  193.0540  172.7240  140.2610 C   0  0  0  0  0  1  0  0  0  0  0  0
  191.6460  170.6310  140.0990 C   0  0  2  0  0  3  0  0  0  0  0  0
  191.4520  168.4700  141.3740 O   0  0  0  0  0  0  0  0  0  0  0  0
  192.9720  171.2380  140.5820 C   0  0  2  0  0  3  0  0  0  0  0  0
  192.1700  170.3070  142.9000 C   0  0  0  0  0  2  0  0  0  0  0  0
  191.6940  169.1290  140.1700 C   0  0  0  0  0  0  0  0  0  0  0  0
  193.3200  168.1670  142.7160 O   0  0  0  0  0  1  0  0  0  0  0  0
  191.2660  171.0990  138.6930 C   0  0  0  0  0  2  0  0  0  0  0  0
  189.7890  171.4540  138.6390 C   0  0  0  0  0  1  0  0  0  0  0  0
  195.4110  174.3530  142.0570 C   0  0  0  0  0  2  0  0  0  0  0  0
  197.7770  174.5730  141.7580 O   0  0  0  0  0  1  0  0  0  0  0  0
  196.5040  174.0190  139.8350 C   0  0  0  0  0  1  0  0  0  0  0  0
  196.6600  173.8530  141.3330 C   0  0  2  0  0  3  0  0  0  0  0  0
  1 27  1  6  0  0  0
  1 21  1  0  0  0  0
  2 42  1  6  0  0  0
  2 14  1  0  0  0  0
  6 22  1  0  0  0  0
  7  6  1  1  0  0  0
  8 25  1  6  0  0  0
  8  7  1  0  0  0  0
  9 17  2  0  0  0  0
 10 20  1  0  0  0  0
 11 22  1  0  0  0  0
 12 13  1  6  0  0  0
 12  8  1  0  0  0  0
 14  3  1  0  0  0  0
 15  2  1  0  0  0  0
 15 10  1  0  0  0  0
 17 13  1  0  0  0  0
 19 16  1  1  0  0  0
 19 23  1  0  0  0  0
 20 25  1  6  0  0  0
 20  3  1  0  0  0  0
 20 11  1  0  0  0  0
 21 18  1  6  0  0  0
 21 12  1  0  0  0  0
 21 19  1  0  0  0  0
 22  4  2  0  0  0  0
 23  7  1  0  0  0  0
 23  5  1  1  0  0  0
 24 17  1  0  0  0  0
 24  1  1  0  0  0  0
 27 26  1  6  0  0  0
 29 30  2  0  0  0  0
 30 28  2  0  0  0  0
 31 33  1  6  0  0  0
 31 27  1  0  0  0  0
 31 32  1  0  0  0  0
 32 30  1  0  0  0  0
 34 33  1  0  0  0  0
 35 36  2  0  0  0  0
 36 34  1  0  0  0  0
 37 38  1  1  0  0  0
 37 36  1  0  0  0  0
 39 37  1  0  0  0  0
 40 41  1  0  0  0  0
 41 39  1  0  0  0  0
 42 61  1  6  0  0  0
 42 43  1  0  0  0  0
 43 47  1  0  0  0  0
 46 45  2  0  0  0  0
 46 44  1  0  0  0  0
 47 46  1  0  0  0  0
 48 47  1  0  0  0  0
 49 58  1  6  0  0  0
 49 56  1  0  0  0  0
 50 57  2  0  0  0  0
 51 48  1  6  0  0  0
 51 56  1  0  0  0  0
 53 59  1  6  0  0  0
 53 57  1  0  0  0  0
 53 55  1  0  0  0  0
 54 49  1  0  0  0  0
 55 52  1  1  0  0  0
 55 51  1  0  0  0  0
 57 54  1  0  0  0  0
 60 59  1  0  0  0  0
 64 63  1  6  0  0  0
 64 62  1  0  0  0  0
 64 61  1  0  0  0  0
M  END
>  <MODEL>
2

>  <REMARK>
 VINA RESULT:      -7.1      2.790      5.455
  Name = 
  15 active torsions:
  status: ('A' for Active; 'I' for Inactive)
    1  A    between atoms: O_1  and  C_20
    2  A    between atoms: O_1  and  N_60
    3  A    between atoms: C_2  and  C_35
    4  A    between atoms: C_3  and  C_20
    5  A    between atoms: C_4  and  C_20
    6  A    between atoms: C_4  and  C_50
    7  A    between atoms: C_5  and  N_12
    8  A    between atoms: C_5  and  C_37
    9  A    between atoms: C_14  and  C_27
   10  A    between atoms: C_14  and  C_52
   11  A    between atoms: C_27  and  C_53
   12  A    between atoms: C_34  and  C_39
   13  A    between atoms: C_34  and  N_60
   14  A    between atoms: C_35  and  C_37
   15  A    between atoms: C_44  and  C_51
                            x       y       z     vdW  Elec       q    Type
                         _______ _______ _______ _____ _____    ______ ____

>  <TORSDO>
F 15

$$$$
=
 OpenBabel11072409183D

 64 68  0  0  1  0  0  0  0  0999 V2000
  187.6980  176.8110  142.9120 C   0  0  2  0  0  3  0  0  0  0  0  0
  194.3200  173.9440  144.1930 C   0  0  2  0  0  3  0  0  0  0  0  0
  192.9940  174.4570  146.1820 O   0  0  0  0  0  0  0  0  0  0  0  0
  191.8760  177.3310  148.9990 O   0  0  0  0  0  0  0  0  0  0  0  0
  188.7640  177.9130  147.6100 O   0  0  0  0  0  1  0  0  0  0  0  0
  190.6230  175.6830  147.8450 C   0  0  0  0  0  2  0  0  0  0  0  0
  189.7900  175.9730  146.5970 C   0  0  2  0  0  3  0  0  0  0  0  0
  190.4390  175.4470  145.3170 C   0  0  1  0  0  3  0  0  0  0  0  0
  189.1740  174.3690  140.7140 O   0  0  0  0  0  0  0  0  0  0  0  0
  194.2320  176.2610  145.1770 C   0  0  0  0  0  2  0  0  0  0  0  0
  192.8540  176.6090  147.0620 O   0  0  0  0  0  0  0  0  0  0  0  0
  189.4090  175.5140  144.1800 C   0  0  2  0  0  3  0  0  0  0  0  0
  189.9470  174.8650  142.9060 C   0  0  0  0  0  2  0  0  0  0  0  0
  193.0430  173.6810  144.9970 C   0  0  0  0  0  2  0  0  0  0  0  0
  194.4890  175.4400  143.9230 C   0  0  0  0  0  2  0  0  0  0  0  0
  187.1060  176.8330  145.6740 O   0  0  0  0  0  1  0  0  0  0  0  0
  189.0460  175.0900  141.7370 C   0  0  0  0  0  0  0  0  0  0  0  0
  189.8210  177.7890  143.4680 O   0  0  0  0  0  1  0  0  0  0  0  0
  188.2770  177.5000  145.2910 C   0  0  2  0  0  3  0  0  0  0  0  0
  192.9290  175.8400  145.8620 C   0  0  2  0  0  0  0  0  0  0  0  0
  188.8260  176.9330  143.9570 C   0  0  1  0  0  0  0  0  0  0  0  0
  191.8110  176.5790  147.9920 C   0  0  0  0  0  0  0  0  0  0  0  0
  189.3150  177.4240  146.4220 C   0  0  1  0  0  3  0  0  0  0  0  0
  188.1290  176.1430  141.7240 O   0  0  0  0  0  0  0  0  0  0  0  0
  191.7330  176.1950  144.9560 C   0  0  0  0  0  2  0  0  0  0  0  0
  187.3550  178.5260  141.2620 O   0  0  0  0  0  1  0  0  0  0  0  0
  187.0260  178.1510  142.5650 C   0  0  1  0  0  3  0  0  0  0  0  0
  185.6490  179.5120  145.4720 O   0  0  0  0  0  0  0  0  0  0  0  0
  183.3010  179.3620  144.1350 O   0  0  0  0  0  0  0  0  0  0  0  0
  184.7940  179.1360  144.0610 P   0  0  0  0  0  0  0  0  0  0  0  0
  185.4930  178.1390  142.7300 C   0  0  2  0  0  3  0  0  0  0  0  0
  185.0390  177.4230  143.7680 O   0  0  0  0  0  0  0  0  0  0  0  0
  184.6070  178.0200  141.5010 C   0  0  0  0  0  2  0  0  0  0  0  0
  183.2140  178.2050  141.8670 N   0  0  0  0  0  2  0  0  0  0  0  0
  182.4170  177.6020  139.7590 O   0  0  0  0  0  0  0  0  0  0  0  0
  182.1560  177.9530  140.9410 C   0  0  0  0  0  0  0  0  0  0  0  0
  180.7300  178.1370  141.3520 C   0  0  1  0  0  3  0  0  0  0  0  0
  180.5740  179.2950  142.2190 N   0  0  0  0  0  1  0  0  0  0  0  0
  179.7770  178.2040  140.1580 C   0  0  0  0  0  2  0  0  0  0  0  0
  177.8690  179.3190  139.2320 O   0  0  0  0  0  1  0  0  0  0  0  0
  178.5050  178.9990  140.4340 C   0  0  0  0  0  2  0  0  0  0  0  0
  194.2950  173.1460  142.8820 C   0  0  2  0  0  3  0  0  0  0  0  0
  194.9380  171.9100  143.0470 O   0  0  0  0  0  0  0  0  0  0  0  0
  194.2200  170.5420  145.3840 O   0  0  0  0  0  1  0  0  0  0  0  0
  192.8450  169.2350  144.1050 O   0  0  0  0  0  0  0  0  0  0  0  0
  193.6400  170.2120  144.1650 C   0  0  0  0  0  0  0  0  0  0  0  0
  193.9610  170.9670  142.9870 N   0  0  0  0  0  0  0  0  0  0  0  0
  193.4880  170.5370  141.6710 C   0  0  0  0  0  2  0  0  0  0  0  0
  190.8410  168.8880  141.0830 C   0  0  2  0  0  3  0  0  0  0  0  0
  191.0830  169.4650  137.6370 O   0  0  0  0  0  0  0  0  0  0  0  0
  192.1290  171.1400  141.3130 C   0  0  1  0  0  3  0  0  0  0  0  0
  192.2420  173.2130  139.9800 C   0  0  0  0  0  1  0  0  0  0  0  0
  190.7860  171.3360  139.1170 C   0  0  2  0  0  3  0  0  0  0  0  0
  190.3560  168.9360  139.7410 O   0  0  0  0  0  0  0  0  0  0  0  0
  192.0650  171.7040  139.8830 C   0  0  2  0  0  3  0  0  0  0  0  0
  190.9520  170.2590  141.7690 C   0  0  0  0  0  2  0  0  0  0  0  0
  190.7680  169.8680  138.7900 C   0  0  0  0  0  0  0  0  0  0  0  0
  192.0340  168.1670  141.1460 O   0  0  0  0  0  1  0  0  0  0  0  0
  190.5980  172.1790  137.8530 C   0  0  0  0  0  2  0  0  0  0  0  0
  189.1370  172.5680  137.6940 C   0  0  0  0  0  1  0  0  0  0  0  0
  194.8640  173.9220  141.6760 C   0  0  0  0  0  2  0  0  0  0  0  0
  197.1530  174.3330  141.1050 O   0  0  0  0  0  1  0  0  0  0  0  0
  195.9810  172.7690  139.7620 C   0  0  0  0  0  1  0  0  0  0  0  0
  196.1760  173.3400  141.1520 C   0  0  2  0  0  3  0  0  0  0  0  0
  1 27  1  6  0  0  0
  1 21  1  0  0  0  0
  2 42  1  6  0  0  0
  2 14  1  0  0  0  0
  6 22  1  0  0  0  0
  7  6  1  1  0  0  0
  8 25  1  6  0  0  0
  8  7  1  0  0  0  0
  9 17  2  0  0  0  0
 10 20  1  0  0  0  0
 11 22  1  0  0  0  0
 12 13  1  6  0  0  0
 12  8  1  0  0  0  0
 14  3  1  0  0  0  0
 15  2  1  0  0  0  0
 15 10  1  0  0  0  0
 17 13  1  0  0  0  0
 19 16  1  1  0  0  0
 19 23  1  0  0  0  0
 20 25  1  6  0  0  0
 20  3  1  0  0  0  0
 20 11  1  0  0  0  0
 21 18  1  6  0  0  0
 21 12  1  0  0  0  0
 21 19  1  0  0  0  0
 22  4  2  0  0  0  0
 23  7  1  0  0  0  0
 23  5  1  1  0  0  0
 24 17  1  0  0  0  0
 24  1  1  0  0  0  0
 27 26  1  6  0  0  0
 27 31  1  0  0  0  0
 30 29  2  0  0  0  0
 30 28  2  0  0  0  0
 31 33  1  6  0  0  0
 31 32  1  0  0  0  0
 32 30  1  0  0  0  0
 33 34  1  0  0  0  0
 35 36  2  0  0  0  0
 36 37  1  0  0  0  0
 36 34  1  0  0  0  0
 37 38  1  6  0  0  0
 39 41  1  0  0  0  0
 39 37  1  0  0  0  0
 40 41  1  0  0  0  0
 42 61  1  6  0  0  0
 42 43  1  0  0  0  0
 45 46  2  0  0  0  0
 46 44  1  0  0  0  0
 47 43  1  0  0  0  0
 47 46  1  0  0  0  0
 48 47  1  0  0  0  0
 49 58  1  6  0  0  0
 49 56  1  0  0  0  0
 50 57  2  0  0  0  0
 51 48  1  6  0  0  0
 51 56  1  0  0  0  0
 53 59  1  6  0  0  0
 53 55  1  0  0  0  0
 54 49  1  0  0  0  0
 55 52  1  1  0  0  0
 55 51  1  0  0  0  0
 57 53  1  0  0  0  0
 57 54  1  0  0  0  0
 60 59  1  0  0  0  0
 62 64  1  0  0  0  0
 64 63  1  6  0  0  0
 64 61  1  0  0  0  0
M  END
>  <MODEL>
3

>  <REMARK>
 VINA RESULT:      -7.1      2.633      4.918
  Name = 
  15 active torsions:
  status: ('A' for Active; 'I' for Inactive)
    1  A    between atoms: O_1  and  C_20
    2  A    between atoms: O_1  and  N_60
    3  A    between atoms: C_2  and  C_35
    4  A    between atoms: C_3  and  C_20
    5  A    between atoms: C_4  and  C_20
    6  A    between atoms: C_4  and  C_50
    7  A    between atoms: C_5  and  N_12
    8  A    between atoms: C_5  and  C_37
    9  A    between atoms: C_14  and  C_27
   10  A    between atoms: C_14  and  C_52
   11  A    between atoms: C_27  and  C_53
   12  A    between atoms: C_34  and  C_39
   13  A    between atoms: C_34  and  N_60
   14  A    between atoms: C_35  and  C_37
   15  A    between atoms: C_44  and  C_51
                            x       y       z     vdW  Elec       q    Type
                         _______ _______ _______ _____ _____    ______ ____

>  <TORSDO>
F 15

$$$$
=
 OpenBabel11072409183D

 64 68  0  0  1  0  0  0  0  0999 V2000
  187.6300  176.7120  142.8610 C   0  0  2  0  0  3  0  0  0  0  0  0
  194.2920  173.7610  142.0760 C   0  0  2  0  0  3  0  0  0  0  0  0
  193.5990  174.1940  144.3800 O   0  0  0  0  0  0  0  0  0  0  0  0
  193.3820  176.9500  147.5120 O   0  0  0  0  0  0  0  0  0  0  0  0
  190.0130  177.6060  147.0970 O   0  0  0  0  0  1  0  0  0  0  0  0
  191.8230  175.3590  146.7010 C   0  0  0  0  0  2  0  0  0  0  0  0
  190.6740  175.7060  145.7550 C   0  0  2  0  0  3  0  0  0  0  0  0
  190.9210  175.2330  144.3240 C   0  0  1  0  0  3  0  0  0  0  0  0
  188.3740  174.3600  140.2370 O   0  0  0  0  0  0  0  0  0  0  0  0
  194.5280  176.0340  143.1350 C   0  0  0  0  0  2  0  0  0  0  0  0
  193.7530  176.3070  145.3490 O   0  0  0  0  0  0  0  0  0  0  0  0
  189.6090  175.3540  143.5330 C   0  0  2  0  0  3  0  0  0  0  0  0
  189.7490  174.7570  142.1340 C   0  0  0  0  0  2  0  0  0  0  0  0
  193.2940  173.4700  143.2010 C   0  0  0  0  0  2  0  0  0  0  0  0
  194.4020  175.2670  141.8290 C   0  0  0  0  0  2  0  0  0  0  0  0
  187.8520  176.6180  145.6760 O   0  0  0  0  0  1  0  0  0  0  0  0
  188.5560  175.0370  141.2810 C   0  0  0  0  0  0  0  0  0  0  0  0
  189.8390  177.6550  142.8240 O   0  0  0  0  0  1  0  0  0  0  0  0
  188.8760  177.2960  145.0000 C   0  0  2  0  0  3  0  0  0  0  0  0
  193.4680  175.5900  144.1480 C   0  0  2  0  0  0  0  0  0  0  0  0
  189.0110  176.7830  143.5430 C   0  0  1  0  0  0  0  0  0  0  0  0
  193.0190  176.2420  146.5370 C   0  0  0  0  0  0  0  0  0  0  0  0
  190.1930  177.1660  145.7820 C   0  0  1  0  0  3  0  0  0  0  0  0
  187.6910  176.0940  141.5740 O   0  0  0  0  0  0  0  0  0  0  0  0
  192.0690  175.9900  143.6370 C   0  0  0  0  0  2  0  0  0  0  0  0
  187.1230  178.6440  141.5220 O   0  0  0  0  0  1  0  0  0  0  0  0
  186.9090  178.0690  142.7750 C   0  0  1  0  0  3  0  0  0  0  0  0
  185.6990  179.3770  145.7790 O   0  0  0  0  0  0  0  0  0  0  0  0
  183.2640  179.1160  144.6270 O   0  0  0  0  0  0  0  0  0  0  0  0
  184.7570  178.9570  144.4380 P   0  0  0  0  0  0  0  0  0  0  0  0
  185.3960  177.9880  143.0570 C   0  0  2  0  0  3  0  0  0  0  0  0
  185.0560  177.2560  144.1270 O   0  0  0  0  0  0  0  0  0  0  0  0
  184.4240  177.8260  141.9000 C   0  0  0  0  0  2  0  0  0  0  0  0
  183.1330  178.3940  142.2450 N   0  0  0  0  0  2  0  0  0  0  0  0
  182.1700  177.8530  140.1900 O   0  0  0  0  0  0  0  0  0  0  0  0
  182.0290  178.3530  141.3390 C   0  0  0  0  0  0  0  0  0  0  0  0
  180.7070  178.9330  141.7290 C   0  0  1  0  0  3  0  0  0  0  0  0
  180.3470  180.0520  140.8710 N   0  0  0  0  0  1  0  0  0  0  0  0
  179.5950  177.8860  141.7730 C   0  0  0  0  0  2  0  0  0  0  0  0
  178.8520  177.3640  139.5550 O   0  0  0  0  0  1  0  0  0  0  0  0
  178.5240  178.0850  140.7050 C   0  0  0  0  0  2  0  0  0  0  0  0
  193.8800  173.0200  140.7960 C   0  0  2  0  0  3  0  0  0  0  0  0
  195.0100  172.5190  140.1330 O   0  0  0  0  0  0  0  0  0  0  0  0
  195.7330  171.2790  137.7280 O   0  0  0  0  0  0  0  0  0  0  0  0
  194.7820  169.3560  138.5220 O   0  0  0  0  0  1  0  0  0  0  0  0
  195.1010  170.5570  138.7330 C   0  0  0  0  0  0  0  0  0  0  0  0
  194.8000  171.1840  139.9890 N   0  0  0  0  0  0  0  0  0  0  0  0
  193.9950  170.4920  140.9960 C   0  0  0  0  0  2  0  0  0  0  0  0
  192.9060  168.8730  143.4990 C   0  0  2  0  0  3  0  0  0  0  0  0
  194.2600  171.1840  145.7550 O   0  0  0  0  0  0  0  0  0  0  0  0
  194.8430  169.6270  141.9280 C   0  0  1  0  0  3  0  0  0  0  0  0
  197.1410  170.4470  142.2860 C   0  0  0  0  0  1  0  0  0  0  0  0
  195.7410  169.9400  144.3280 C   0  0  2  0  0  3  0  0  0  0  0  0
  193.3410  169.3300  144.7790 O   0  0  0  0  0  0  0  0  0  0  0  0
  195.7380  170.4420  142.8760 C   0  0  2  0  0  3  0  0  0  0  0  0
  194.0440  168.4670  142.5480 C   0  0  0  0  0  2  0  0  0  0  0  0
  194.4110  170.2000  144.9820 C   0  0  0  0  0  0  0  0  0  0  0  0
  192.0380  169.7990  142.9190 O   0  0  0  0  0  1  0  0  0  0  0  0
  196.8820  170.5410  145.1530 C   0  0  0  0  0  2  0  0  0  0  0  0
  197.5730  169.4550  145.9620 C   0  0  0  0  0  1  0  0  0  0  0  0
  192.9980  173.8640  139.8520 C   0  0  0  0  0  2  0  0  0  0  0  0
  194.1840  175.2810  138.3300 O   0  0  0  0  0  1  0  0  0  0  0  0
  192.5200  173.8710  137.4000 C   0  0  0  0  0  1  0  0  0  0  0  0
  193.5960  174.0230  138.4550 C   0  0  2  0  0  3  0  0  0  0  0  0
  1 27  1  6  0  0  0
  1 21  1  0  0  0  0
  2 42  1  6  0  0  0
  2 14  1  0  0  0  0
  7 23  1  0  0  0  0
  7  6  1  1  0  0  0
  8 25  1  6  0  0  0
  8  7  1  0  0  0  0
  9 17  2  0  0  0  0
 11 22  1  0  0  0  0
 12 13  1  6  0  0  0
 12 21  1  0  0  0  0
 12  8  1  0  0  0  0
 14  3  1  0  0  0  0
 15  2  1  0  0  0  0
 15 10  1  0  0  0  0
 17 24  1  0  0  0  0
 17 13  1  0  0  0  0
 19 16  1  1  0  0  0
 19 23  1  0  0  0  0
 20 10  1  6  0  0  0
 20  3  1  0  0  0  0
 20 11  1  0  0  0  0
 21 18  1  6  0  0  0
 21 19  1  0  0  0  0
 22  6  1  0  0  0  0
 22  4  2  0  0  0  0
 23  5  1  1  0  0  0
 24  1  1  0  0  0  0
 25 20  1  0  0  0  0
 27 26  1  6  0  0  0
 27 31  1  0  0  0  0
 30 29  2  0  0  0  0
 30 28  2  0  0  0  0
 31 33  1  6  0  0  0
 31 32  1  0  0  0  0
 32 30  1  0  0  0  0
 33 34  1  0  0  0  0
 35 36  2  0  0  0  0
 36 37  1  0  0  0  0
 36 34  1  0  0  0  0
 37 38  1  6  0  0  0
 37 39  1  0  0  0  0
 40 41  1  0  0  0  0
 41 39  1  0  0  0  0
 42 61  1  6  0  0  0
 43 42  1  0  0  0  0
 44 46  2  0  0  0  0
 45 46  1  0  0  0  0
 46 47  1  0  0  0  0
 47 43  1  0  0  0  0
 47 48  1  0  0  0  0
 49 58  1  6  0  0  0
 49 54  1  0  0  0  0
 51 48  1  1  0  0  0
 51 56  1  0  0  0  0
 51 55  1  0  0  0  0
 53 57  1  0  0  0  0
 53 59  1  1  0  0  0
 54 57  1  0  0  0  0
 55 52  1  6  0  0  0
 55 53  1  0  0  0  0
 56 49  1  0  0  0  0
 57 50  2  0  0  0  0
 59 60  1  0  0  0  0
 62 64  1  0  0  0  0
 64 63  1  6  0  0  0
 64 61  1  0  0  0  0
M  END
>  <MODEL>
4

>  <REMARK>
 VINA RESULT:      -7.1      2.833      5.014
  Name = 
  15 active torsions:
  status: ('A' for Active; 'I' for Inactive)
    1  A    between atoms: O_1  and  C_20
    2  A    between atoms: O_1  and  N_60
    3  A    between atoms: C_2  and  C_35
    4  A    between atoms: C_3  and  C_20
    5  A    between atoms: C_4  and  C_20
    6  A    between atoms: C_4  and  C_50
    7  A    between atoms: C_5  and  N_12
    8  A    between atoms: C_5  and  C_37
    9  A    between atoms: C_14  and  C_27
   10  A    between atoms: C_14  and  C_52
   11  A    between atoms: C_27  and  C_53
   12  A    between atoms: C_34  and  C_39
   13  A    between atoms: C_34  and  N_60
   14  A    between atoms: C_35  and  C_37
   15  A    between atoms: C_44  and  C_51
                            x       y       z     vdW  Elec       q    Type
                         _______ _______ _______ _____ _____    ______ ____

>  <TORSDO>
F 15

$$$$
=
 OpenBabel11072409183D

 64 68  0  0  1  0  0  0  0  0999 V2000
  188.3070  176.7190  142.8650 C   0  0  2  0  0  3  0  0  0  0  0  0
  194.9340  174.4930  145.0630 C   0  0  2  0  0  3  0  0  0  0  0  0
  193.3230  174.9230  146.8510 O   0  0  0  0  0  0  0  0  0  0  0  0
  191.6030  177.7410  149.4110 O   0  0  0  0  0  0  0  0  0  0  0  0
  188.6570  178.0080  147.6220 O   0  0  0  0  0  1  0  0  0  0  0  0
  190.6590  175.9620  148.1610 C   0  0  0  0  0  2  0  0  0  0  0  0
  189.9720  176.1500  146.8090 C   0  0  2  0  0  3  0  0  0  0  0  0
  190.8240  175.6600  145.6390 C   0  0  1  0  0  3  0  0  0  0  0  0
  190.2620  174.3770  140.9490 O   0  0  0  0  0  0  0  0  0  0  0  0
  194.5170  176.8120  145.9530 C   0  0  0  0  0  2  0  0  0  0  0  0
  192.8830  177.0720  147.6370 O   0  0  0  0  0  0  0  0  0  0  0  0
  189.9460  175.6090  144.3790 C   0  0  2  0  0  3  0  0  0  0  0  0
  190.6990  174.9860  143.2040 C   0  0  0  0  0  2  0  0  0  0  0  0
  193.5920  174.1310  145.7070 C   0  0  0  0  0  2  0  0  0  0  0  0
  195.0040  175.9930  144.7690 C   0  0  0  0  0  2  0  0  0  0  0  0
  187.3630  176.7430  145.5270 O   0  0  0  0  0  1  0  0  0  0  0  0
  189.9400  175.1040  141.9240 C   0  0  0  0  0  0  0  0  0  0  0  0
  190.2460  177.8970  143.6530 O   0  0  0  0  0  1  0  0  0  0  0  0
  188.5120  177.5070  145.2740 C   0  0  2  0  0  3  0  0  0  0  0  0
  193.1780  176.2880  146.4820 C   0  0  2  0  0  0  0  0  0  0  0  0
  189.2750  176.9640  144.0390 C   0  0  1  0  0  0  0  0  0  0  0  0
  191.7350  176.9650  148.4290 C   0  0  0  0  0  0  0  0  0  0  0  0
  189.3980  177.5480  146.5290 C   0  0  1  0  0  3  0  0  0  0  0  0
  188.9430  176.0690  141.7620 O   0  0  0  0  0  0  0  0  0  0  0  0
  192.0820  176.5150  145.4200 C   0  0  0  0  0  2  0  0  0  0  0  0
  188.3260  178.6430  141.4230 O   0  0  0  0  0  1  0  0  0  0  0  0
  187.5700  177.9850  142.3930 C   0  0  1  0  0  3  0  0  0  0  0  0
  184.8430  178.4890  144.5170 O   0  0  0  0  0  0  0  0  0  0  0  0
  183.3620  178.2790  142.2630 O   0  0  0  0  0  0  0  0  0  0  0  0
  184.7600  178.2960  142.8390 P   0  0  0  0  0  0  0  0  0  0  0  0
  186.1530  177.7140  141.8500 C   0  0  2  0  0  3  0  0  0  0  0  0
  185.4820  176.7370  142.4770 O   0  0  0  0  0  0  0  0  0  0  0  0
  185.9080  177.7270  140.3500 C   0  0  0  0  0  2  0  0  0  0  0  0
  186.9130  176.9280  139.6710 N   0  0  0  0  0  2  0  0  0  0  0  0
  185.5770  176.5590  137.7940 O   0  0  0  0  0  0  0  0  0  0  0  0
  186.6860  176.3870  138.3680 C   0  0  0  0  0  0  0  0  0  0  0  0
  187.7460  175.5810  137.6880 C   0  0  1  0  0  3  0  0  0  0  0  0
  188.0320  174.3560  138.4200 N   0  0  0  0  0  1  0  0  0  0  0  0
  187.4140  175.2890  136.2240 C   0  0  0  0  0  2  0  0  0  0  0  0
  189.3220  176.0120  134.9680 O   0  0  0  0  0  1  0  0  0  0  0  0
  187.9870  176.3130  135.2510 C   0  0  0  0  0  2  0  0  0  0  0  0
  195.1480  173.6700  143.7850 C   0  0  2  0  0  3  0  0  0  0  0  0
  193.9210  173.4020  143.1610 O   0  0  0  0  0  0  0  0  0  0  0  0
  193.8670  175.9840  142.0770 O   0  0  0  0  0  1  0  0  0  0  0  0
  194.0800  175.0350  140.0060 O   0  0  0  0  0  0  0  0  0  0  0  0
  194.0340  174.8760  141.2550 C   0  0  0  0  0  0  0  0  0  0  0  0
  194.1320  173.5630  141.8290 N   0  0  0  0  0  0  0  0  0  0  0  0
  194.1460  172.3740  140.9770 C   0  0  0  0  0  2  0  0  0  0  0  0
  192.6890  169.7200  141.9260 C   0  0  2  0  0  3  0  0  0  0  0  0
  193.1990  168.1680  138.8280 O   0  0  0  0  0  0  0  0  0  0  0  0
  192.7420  171.9370  140.5600 C   0  0  1  0  0  3  0  0  0  0  0  0
  192.1070  172.5690  138.2610 C   0  0  0  0  0  1  0  0  0  0  0  0
  191.8390  170.1470  138.9330 C   0  0  2  0  0  3  0  0  0  0  0  0
  192.4630  168.7330  140.9190 O   0  0  0  0  0  0  0  0  0  0  0  0
  192.6610  171.4320  139.1090 C   0  0  2  0  0  3  0  0  0  0  0  0
  192.0440  171.0850  141.6350 C   0  0  0  0  0  2  0  0  0  0  0  0
  192.5500  168.9740  139.5490 C   0  0  0  0  0  0  0  0  0  0  0  0
  194.0510  169.8280  142.2080 O   0  0  0  0  0  1  0  0  0  0  0  0
  191.4940  169.8690  137.4680 C   0  0  0  0  0  2  0  0  0  0  0  0
  190.0010  169.6230  137.3170 C   0  0  0  0  0  1  0  0  0  0  0  0
  195.9600  172.3780  144.0120 C   0  0  0  0  0  2  0  0  0  0  0  0
  197.1860  171.6370  145.9310 O   0  0  0  0  0  1  0  0  0  0  0  0
  195.0950  170.5920  145.5300 C   0  0  0  0  0  1  0  0  0  0  0  0
  195.8980  171.8750  145.4530 C   0  0  2  0  0  3  0  0  0  0  0  0
  1 27  1  6  0  0  0
  1 21  1  0  0  0  0
  2 42  1  6  0  0  0
  2 14  1  0  0  0  0
  6 22  1  0  0  0  0
  7  6  1  1  0  0  0
  8 25  1  6  0  0  0
  8  7  1  0  0  0  0
  9 17  2  0  0  0  0
 10 20  1  0  0  0  0
 11 22  1  0  0  0  0
 12 13  1  6  0  0  0
 12  8  1  0  0  0  0
 14  3  1  0  0  0  0
 15  2  1  0  0  0  0
 15 10  1  0  0  0  0
 17 13  1  0  0  0  0
 19 16  1  1  0  0  0
 19 23  1  0  0  0  0
 20 25  1  6  0  0  0
 20  3  1  0  0  0  0
 20 11  1  0  0  0  0
 21 18  1  6  0  0  0
 21 12  1  0  0  0  0
 21 19  1  0  0  0  0
 22  4  2  0  0  0  0
 23  7  1  0  0  0  0
 23  5  1  1  0  0  0
 24 17  1  0  0  0  0
 24  1  1  0  0  0  0
 27 26  1  6  0  0  0
 29 30  2  0  0  0  0
 30 28  2  0  0  0  0
 31 33  1  6  0  0  0
 31 27  1  0  0  0  0
 31 32  1  0  0  0  0
 32 30  1  0  0  0  0
 34 33  1  0  0  0  0
 35 36  2  0  0  0  0
 36 34  1  0  0  0  0
 37 36  1  0  0  0  0
 37 38  1  1  0  0  0
 39 37  1  0  0  0  0
 40 41  1  0  0  0  0
 41 39  1  0  0  0  0
 42 61  1  1  0  0  0
 43 42  1  0  0  0  0
 45 46  2  0  0  0  0
 46 47  1  0  0  0  0
 46 44  1  0  0  0  0
 47 43  1  0  0  0  0
 48 47  1  0  0  0  0
 49 58  1  6  0  0  0
 50 57  2  0  0  0  0
 51 48  1  1  0  0  0
 51 56  1  0  0  0  0
 53 59  1  6  0  0  0
 53 55  1  0  0  0  0
 53 57  1  0  0  0  0
 54 49  1  0  0  0  0
 55 52  1  6  0  0  0
 55 51  1  0  0  0  0
 56 49  1  0  0  0  0
 57 54  1  0  0  0  0
 60 59  1  0  0  0  0
 61 64  1  0  0  0  0
 64 63  1  6  0  0  0
 64 62  1  0  0  0  0
M  END
>  <MODEL>
5

>  <REMARK>
 VINA RESULT:      -6.9      2.753      5.046
  Name = 
  15 active torsions:
  status: ('A' for Active; 'I' for Inactive)
    1  A    between atoms: O_1  and  C_20
    2  A    between atoms: O_1  and  N_60
    3  A    between atoms: C_2  and  C_35
    4  A    between atoms: C_3  and  C_20
    5  A    between atoms: C_4  and  C_20
    6  A    between atoms: C_4  and  C_50
    7  A    between atoms: C_5  and  N_12
    8  A    between atoms: C_5  and  C_37
    9  A    between atoms: C_14  and  C_27
   10  A    between atoms: C_14  and  C_52
   11  A    between atoms: C_27  and  C_53
   12  A    between atoms: C_34  and  C_39
   13  A    between atoms: C_34  and  N_60
   14  A    between atoms: C_35  and  C_37
   15  A    between atoms: C_44  and  C_51
                            x       y       z     vdW  Elec       q    Type
                         _______ _______ _______ _____ _____    ______ ____

>  <TORSDO>
F 15

$$$$
=
 OpenBabel11072409183D

 64 68  0  0  1  0  0  0  0  0999 V2000
  188.1370  176.6790  142.7380 C   0  0  2  0  0  3  0  0  0  0  0  0
  194.6770  173.9940  144.6680 C   0  0  2  0  0  3  0  0  0  0  0  0
  193.1980  174.5940  146.5210 O   0  0  0  0  0  0  0  0  0  0  0  0
  191.8370  177.6010  149.0810 O   0  0  0  0  0  0  0  0  0  0  0  0
  188.8320  178.0550  147.4330 O   0  0  0  0  0  1  0  0  0  0  0  0
  190.6940  175.8720  147.9310 C   0  0  0  0  0  2  0  0  0  0  0  0
  189.9550  176.0790  146.6100 C   0  0  2  0  0  3  0  0  0  0  0  0
  190.7040  175.4940  145.4140 C   0  0  1  0  0  3  0  0  0  0  0  0
  189.8030  174.1440  140.7970 O   0  0  0  0  0  0  0  0  0  0  0  0
  194.4870  176.3600  145.5110 C   0  0  0  0  0  2  0  0  0  0  0  0
  192.9670  176.7890  147.2660 O   0  0  0  0  0  0  0  0  0  0  0  0
  189.7620  175.4820  144.2010 C   0  0  2  0  0  3  0  0  0  0  0  0
  190.4020  174.7720  143.0090 C   0  0  0  0  0  2  0  0  0  0  0  0
  193.3460  173.7550  145.3890 C   0  0  0  0  0  2  0  0  0  0  0  0
  194.8470  175.4760  144.3280 C   0  0  0  0  0  2  0  0  0  0  0  0
  187.3370  176.8440  145.4430 O   0  0  0  0  0  1  0  0  0  0  0  0
  189.5890  174.9180  141.7650 C   0  0  0  0  0  0  0  0  0  0  0  0
  190.1990  177.7200  143.3950 O   0  0  0  0  0  1  0  0  0  0  0  0
  188.5260  177.5080  145.1110 C   0  0  2  0  0  3  0  0  0  0  0  0
  193.1400  175.9560  146.1200 C   0  0  2  0  0  0  0  0  0  0  0  0
  189.1810  176.8760  143.8550 C   0  0  1  0  0  0  0  0  0  0  0  0
  191.8570  176.7930  148.1160 C   0  0  0  0  0  0  0  0  0  0  0  0
  189.4770  177.5110  146.3180 C   0  0  1  0  0  3  0  0  0  0  0  0
  188.6630  175.9540  141.6240 O   0  0  0  0  0  0  0  0  0  0  0  0
  192.0120  176.2420  145.1080 C   0  0  0  0  0  2  0  0  0  0  0  0
  188.2560  178.5850  141.2760 O   0  0  0  0  0  1  0  0  0  0  0  0
  187.4770  177.9870  142.2670 C   0  0  1  0  0  3  0  0  0  0  0  0
  184.8420  178.3160  144.5360 O   0  0  0  0  0  0  0  0  0  0  0  0
  183.2750  178.3830  142.3310 O   0  0  0  0  0  0  0  0  0  0  0  0
  184.6940  178.3070  142.8510 P   0  0  0  0  0  0  0  0  0  0  0  0
  186.0340  177.8060  141.7530 C   0  0  2  0  0  3  0  0  0  0  0  0
  185.3620  176.7820  142.2970 O   0  0  0  0  0  0  0  0  0  0  0  0
  185.7370  177.9860  140.2740 C   0  0  0  0  0  2  0  0  0  0  0  0
  186.0420  176.7650  139.5490 N   0  0  0  0  0  2  0  0  0  0  0  0
  187.0540  177.8890  137.7720 O   0  0  0  0  0  0  0  0  0  0  0  0
  186.7320  176.7890  138.2980 C   0  0  0  0  0  0  0  0  0  0  0  0
  187.0460  175.5140  137.5810 C   0  0  1  0  0  3  0  0  0  0  0  0
  187.2920  175.7490  136.1670 N   0  0  0  0  0  1  0  0  0  0  0  0
  188.2000  174.7460  138.2260 C   0  0  0  0  0  2  0  0  0  0  0  0
  188.9210  172.4920  137.8460 O   0  0  0  0  0  1  0  0  0  0  0  0
  188.8890  173.7700  137.2790 C   0  0  0  0  0  2  0  0  0  0  0  0
  194.7600  173.1250  143.4060 C   0  0  2  0  0  3  0  0  0  0  0  0
  194.2070  171.8580  143.6440 O   0  0  0  0  0  0  0  0  0  0  0  0
  191.5830  171.1820  144.3580 O   0  0  0  0  0  1  0  0  0  0  0  0
  191.1300  170.9090  142.1320 O   0  0  0  0  0  0  0  0  0  0  0  0
  191.9590  171.2420  143.0220 C   0  0  0  0  0  0  0  0  0  0  0  0
  193.2860  171.6590  142.6650 N   0  0  0  0  0  0  0  0  0  0  0  0
  193.7490  171.5740  141.2800 C   0  0  0  0  0  2  0  0  0  0  0  0
  192.8760  170.9160  138.3000 C   0  0  2  0  0  3  0  0  0  0  0  0
  195.3920  172.9560  136.9680 O   0  0  0  0  0  0  0  0  0  0  0  0
  192.9880  172.5200  140.3500 C   0  0  1  0  0  3  0  0  0  0  0  0
  193.5220  174.9090  140.6510 C   0  0  0  0  0  1  0  0  0  0  0  0
  193.6710  173.9550  138.3150 C   0  0  2  0  0  3  0  0  0  0  0  0
  193.5270  171.6670  137.2750 O   0  0  0  0  0  0  0  0  0  0  0  0
  193.8470  173.6780  139.8160 C   0  0  2  0  0  3  0  0  0  0  0  0
  192.1150  171.7690  139.3280 C   0  0  0  0  0  2  0  0  0  0  0  0
  194.2550  172.8350  137.4980 C   0  0  0  0  0  0  0  0  0  0  0  0
  193.7740  170.0350  138.9050 O   0  0  0  0  0  1  0  0  0  0  0  0
  194.2600  175.3030  137.8950 C   0  0  0  0  0  2  0  0  0  0  0  0
  193.4540  175.8960  136.7510 C   0  0  0  0  0  1  0  0  0  0  0  0
  196.1850  173.0180  142.8230 C   0  0  0  0  0  2  0  0  0  0  0  0
  197.8010  172.3090  144.4410 O   0  0  0  0  0  1  0  0  0  0  0  0
  197.8520  171.2230  142.3340 C   0  0  0  0  0  1  0  0  0  0  0  0
  196.9860  171.8550  143.4050 C   0  0  2  0  0  3  0  0  0  0  0  0
  1 27  1  6  0  0  0
  1 21  1  0  0  0  0
  2 42  1  6  0  0  0
  2 14  1  0  0  0  0
  6 22  1  0  0  0  0
  7  6  1  1  0  0  0
  8 25  1  6  0  0  0
  8  7  1  0  0  0  0
  9 17  2  0  0  0  0
 10 20  1  0  0  0  0
 11 22  1  0  0  0  0
 12 13  1  6  0  0  0
 12  8  1  0  0  0  0
 14  3  1  0  0  0  0
 15  2  1  0  0  0  0
 15 10  1  0  0  0  0
 17 13  1  0  0  0  0
 19 16  1  1  0  0  0
 19 23  1  0  0  0  0
 20 25  1  6  0  0  0
 20  3  1  0  0  0  0
 20 11  1  0  0  0  0
 21 18  1  6  0  0  0
 21 12  1  0  0  0  0
 21 19  1  0  0  0  0
 22  4  2  0  0  0  0
 23  7  1  0  0  0  0
 23  5  1  1  0  0  0
 24 17  1  0  0  0  0
 24  1  1  0  0  0  0
 27 26  1  6  0  0  0
 29 30  2  0  0  0  0
 30 28  2  0  0  0  0
 31 33  1  6  0  0  0
 31 27  1  0  0  0  0
 31 32  1  0  0  0  0
 32 30  1  0  0  0  0
 34 33  1  0  0  0  0
 35 36  2  0  0  0  0
 36 34  1  0  0  0  0
 37 38  1  6  0  0  0
 37 39  1  0  0  0  0
 37 36  1  0  0  0  0
 41 40  1  0  0  0  0
 41 39  1  0  0  0  0
 42 61  1  1  0  0  0
 42 43  1  0  0  0  0
 45 46  2  0  0  0  0
 46 44  1  0  0  0  0
 47 46  1  0  0  0  0
 47 43  1  0  0  0  0
 48 47  1  0  0  0  0
 49 58  1  1  0  0  0
 49 56  1  0  0  0  0
 50 57  2  0  0  0  0
 51 48  1  6  0  0  0
 53 59  1  6  0  0  0
 53 55  1  0  0  0  0
 54 57  1  0  0  0  0
 54 49  1  0  0  0  0
 55 51  1  0  0  0  0
 55 52  1  1  0  0  0
 56 51  1  0  0  0  0
 57 53  1  0  0  0  0
 60 59  1  0  0  0  0
 61 64  1  0  0  0  0
 64 63  1  6  0  0  0
 64 62  1  0  0  0  0
M  END
>  <MODEL>
6

>  <REMARK>
 VINA RESULT:      -6.8      2.302      4.306
  Name = 
  15 active torsions:
  status: ('A' for Active; 'I' for Inactive)
    1  A    between atoms: O_1  and  C_20
    2  A    between atoms: O_1  and  N_60
    3  A    between atoms: C_2  and  C_35
    4  A    between atoms: C_3  and  C_20
    5  A    between atoms: C_4  and  C_20
    6  A    between atoms: C_4  and  C_50
    7  A    between atoms: C_5  and  N_12
    8  A    between atoms: C_5  and  C_37
    9  A    between atoms: C_14  and  C_27
   10  A    between atoms: C_14  and  C_52
   11  A    between atoms: C_27  and  C_53
   12  A    between atoms: C_34  and  C_39
   13  A    between atoms: C_34  and  N_60
   14  A    between atoms: C_35  and  C_37
   15  A    between atoms: C_44  and  C_51
                            x       y       z     vdW  Elec       q    Type
                         _______ _______ _______ _____ _____    ______ ____

>  <TORSDO>
F 15

$$$$
=
 OpenBabel11072409183D

 64 68  0  0  1  0  0  0  0  0999 V2000
  188.9770  174.8810  142.3910 C   0  0  2  0  0  3  0  0  0  0  0  0
  195.1640  171.7160  144.7150 C   0  0  2  0  0  3  0  0  0  0  0  0
  194.4930  173.7290  145.9290 O   0  0  0  0  0  0  0  0  0  0  0  0
  194.6060  177.9000  146.1270 O   0  0  0  0  0  0  0  0  0  0  0  0
  191.3740  178.3390  144.9800 O   0  0  0  0  0  1  0  0  0  0  0  0
  192.8540  176.3500  146.5090 C   0  0  0  0  0  2  0  0  0  0  0  0
  191.7850  176.0080  145.4720 C   0  0  2  0  0  3  0  0  0  0  0  0
  191.9920  174.6320  144.8410 C   0  0  1  0  0  3  0  0  0  0  0  0
  189.4320  171.3090  142.3200 O   0  0  0  0  0  0  0  0  0  0  0  0
  195.7000  174.0260  143.8680 C   0  0  0  0  0  2  0  0  0  0  0  0
  194.9270  175.8710  145.1220 O   0  0  0  0  0  0  0  0  0  0  0  0
  190.7280  174.2580  144.0520 C   0  0  2  0  0  3  0  0  0  0  0  0
  190.8100  172.8290  143.5180 C   0  0  0  0  0  2  0  0  0  0  0  0
  194.1120  172.4070  145.5880 C   0  0  0  0  0  2  0  0  0  0  0  0
  195.4930  172.5690  143.4880 C   0  0  0  0  0  2  0  0  0  0  0  0
  189.1250  176.8190  144.4400 O   0  0  0  0  0  1  0  0  0  0  0  0
  189.6870  172.5110  142.5880 C   0  0  0  0  0  0  0  0  0  0  0  0
  191.2980  175.3190  141.9540 O   0  0  0  0  0  1  0  0  0  0  0  0
  190.2490  176.7150  143.6090 C   0  0  2  0  0  3  0  0  0  0  0  0
  194.5670  174.5370  144.7630 C   0  0  2  0  0  0  0  0  0  0  0  0
  190.3390  175.3030  142.9750 C   0  0  1  0  0  0  0  0  0  0  0  0
  194.1670  176.7410  145.9090 C   0  0  0  0  0  0  0  0  0  0  0  0
  191.5170  177.0760  144.3990 C   0  0  1  0  0  3  0  0  0  0  0  0
  188.9760  173.5240  141.9400 O   0  0  0  0  0  0  0  0  0  0  0  0
  193.2500  174.5640  143.9600 C   0  0  0  0  0  2  0  0  0  0  0  0
  188.1510  175.0790  140.1410 O   0  0  0  0  0  1  0  0  0  0  0  0
  188.4590  175.8170  141.2840 C   0  0  1  0  0  3  0  0  0  0  0  0
  186.9910  177.9230  138.9150 O   0  0  0  0  0  0  0  0  0  0  0  0
  184.9640  178.1090  140.6980 O   0  0  0  0  0  0  0  0  0  0  0  0
  186.3000  177.4700  140.3920 P   0  0  0  0  0  0  0  0  0  0  0  0
  187.2370  176.6580  141.7030 C   0  0  2  0  0  3  0  0  0  0  0  0
  187.4150  177.9860  141.6460 O   0  0  0  0  0  0  0  0  0  0  0  0
  186.4020  176.2270  142.8970 C   0  0  0  0  0  2  0  0  0  0  0  0
  185.9470  177.3910  143.6380 N   0  0  0  0  0  2  0  0  0  0  0  0
  185.6020  176.1950  145.6110 O   0  0  0  0  0  0  0  0  0  0  0  0
  185.5800  177.3060  145.0150 C   0  0  0  0  0  0  0  0  0  0  0  0
  185.1290  178.5250  145.7560 C   0  0  1  0  0  3  0  0  0  0  0  0
  183.8840  179.0450  145.2110 N   0  0  0  0  0  1  0  0  0  0  0  0
  185.0230  178.2920  147.2630 C   0  0  0  0  0  2  0  0  0  0  0  0
  187.4190  178.2920  147.2820 O   0  0  0  0  0  1  0  0  0  0  0  0
  186.2930  178.6480  148.0280 C   0  0  0  0  0  2  0  0  0  0  0  0
  194.6770  170.3200  144.3020 C   0  0  2  0  0  3  0  0  0  0  0  0
  193.4180  170.4000  143.6880 O   0  0  0  0  0  0  0  0  0  0  0  0
  191.5670  168.4760  142.8400 O   0  0  0  0  0  1  0  0  0  0  0  0
  192.8590  168.1680  140.9760 O   0  0  0  0  0  0  0  0  0  0  0  0
  192.6610  168.8040  142.0470 C   0  0  0  0  0  0  0  0  0  0  0  0
  193.5630  169.8420  142.4580 N   0  0  0  0  0  0  0  0  0  0  0  0
  194.8030  170.0900  141.7220 C   0  0  0  0  0  2  0  0  0  0  0  0
  197.0560  170.9690  139.6660 C   0  0  2  0  0  3  0  0  0  0  0  0
  196.7280  174.3450  140.5410 O   0  0  0  0  0  0  0  0  0  0  0  0
  194.5570  170.7840  140.3820 C   0  0  1  0  0  3  0  0  0  0  0  0
  192.6320  172.3260  140.3600 C   0  0  0  0  0  1  0  0  0  0  0  0
  194.8570  173.2090  139.5470 C   0  0  2  0  0  3  0  0  0  0  0  0
  197.2310  172.3760  139.4910 O   0  0  0  0  0  0  0  0  0  0  0  0
  194.1440  172.2590  140.5220 C   0  0  2  0  0  3  0  0  0  0  0  0
  195.6420  170.4590  139.3400 C   0  0  0  0  0  2  0  0  0  0  0  0
  196.3130  173.3400  139.9030 C   0  0  0  0  0  0  0  0  0  0  0  0
  197.4780  170.5790  140.9380 O   0  0  0  0  0  1  0  0  0  0  0  0
  194.1870  174.5830  139.4740 C   0  0  0  0  0  2  0  0  0  0  0  0
  193.8890  174.9460  138.0280 C   0  0  0  0  0  1  0  0  0  0  0  0
  194.6780  169.2990  145.4590 C   0  0  0  0  0  2  0  0  0  0  0  0
  196.9980  168.7350  145.6360 O   0  0  0  0  0  1  0  0  0  0  0  0
  195.7230  168.6560  147.6350 C   0  0  0  0  0  1  0  0  0  0  0  0
  195.9460  169.3550  146.3090 C   0  0  2  0  0  3  0  0  0  0  0  0
  1 27  1  6  0  0  0
  1 21  1  0  0  0  0
  2 42  1  6  0  0  0
  2 14  1  0  0  0  0
  7  6  1  6  0  0  0
  8 25  1  6  0  0  0
  8  7  1  0  0  0  0
  9 17  2  0  0  0  0
 11 22  1  0  0  0  0
 12 13  1  6  0  0  0
 12  8  1  0  0  0  0
 14  3  1  0  0  0  0
 15 10  1  0  0  0  0
 15  2  1  0  0  0  0
 17 13  1  0  0  0  0
 19 23  1  0  0  0  0
 19 16  1  1  0  0  0
 20 10  1  6  0  0  0
 20 11  1  0  0  0  0
 20  3  1  0  0  0  0
 21 18  1  6  0  0  0
 21 19  1  0  0  0  0
 21 12  1  0  0  0  0
 22  4  2  0  0  0  0
 22  6  1  0  0  0  0
 23  5  1  1  0  0  0
 23  7  1  0  0  0  0
 24  1  1  0  0  0  0
 24 17  1  0  0  0  0
 25 20  1  0  0  0  0
 27 26  1  6  0  0  0
 27 31  1  0  0  0  0
 28 30  2  0  0  0  0
 30 29  2  0  0  0  0
 30 32  1  0  0  0  0
 31 33  1  1  0  0  0
 32 31  1  0  0  0  0
 33 34  1  0  0  0  0
 34 36  1  0  0  0  0
 36 35  2  0  0  0  0
 36 37  1  0  0  0  0
 37 38  1  6  0  0  0
 37 39  1  0  0  0  0
 39 41  1  0  0  0  0
 40 41  1  0  0  0  0
 42 61  1  1  0  0  0
 43 42  1  0  0  0  0
 45 46  2  0  0  0  0
 46 47  1  0  0  0  0
 46 44  1  0  0  0  0
 47 43  1  0  0  0  0
 48 47  1  0  0  0  0
 49 58  1  1  0  0  0
 51 55  1  0  0  0  0
 51 48  1  1  0  0  0
 53 59  1  1  0  0  0
 53 57  1  0  0  0  0
 53 55  1  0  0  0  0
 54 49  1  0  0  0  0
 54 57  1  0  0  0  0
 55 52  1  6  0  0  0
 56 49  1  0  0  0  0
 56 51  1  0  0  0  0
 57 50  2  0  0  0  0
 60 59  1  0  0  0  0
 61 64  1  0  0  0  0
 62 64  1  0  0  0  0
 64 63  1  1  0  0  0
M  END
>  <MODEL>
7

>  <REMARK>
 VINA RESULT:      -6.6      2.901      4.884
  Name = 
  15 active torsions:
  status: ('A' for Active; 'I' for Inactive)
    1  A    between atoms: O_1  and  C_20
    2  A    between atoms: O_1  and  N_60
    3  A    between atoms: C_2  and  C_35
    4  A    between atoms: C_3  and  C_20
    5  A    between atoms: C_4  and  C_20
    6  A    between atoms: C_4  and  C_50
    7  A    between atoms: C_5  and  N_12
    8  A    between atoms: C_5  and  C_37
    9  A    between atoms: C_14  and  C_27
   10  A    between atoms: C_14  and  C_52
   11  A    between atoms: C_27  and  C_53
   12  A    between atoms: C_34  and  C_39
   13  A    between atoms: C_34  and  N_60
   14  A    between atoms: C_35  and  C_37
   15  A    between atoms: C_44  and  C_51
                            x       y       z     vdW  Elec       q    Type
                         _______ _______ _______ _____ _____    ______ ____

>  <TORSDO>
F 15

$$$$
=
 OpenBabel11072409183D

 64 68  0  0  1  0  0  0  0  0999 V2000
  189.4280  174.5130  141.3670 C   0  0  2  0  0  3  0  0  0  0  0  0
  194.7000  169.4290  141.6370 C   0  0  2  0  0  3  0  0  0  0  0  0
  193.9010  169.9970  139.3980 O   0  0  0  0  0  0  0  0  0  0  0  0
  191.0800  169.2810  136.4010 O   0  0  0  0  0  0  0  0  0  0  0  0
  189.2380  172.1350  137.0400 O   0  0  0  0  0  1  0  0  0  0  0  0
  192.0180  171.2910  137.2360 C   0  0  0  0  0  2  0  0  0  0  0  0
  191.3240  172.1870  138.2600 C   0  0  2  0  0  3  0  0  0  0  0  0
  191.9410  172.0820  139.6540 C   0  0  1  0  0  3  0  0  0  0  0  0
  192.0420  174.6090  143.8440 O   0  0  0  0  0  0  0  0  0  0  0  0
  192.6220  168.3950  140.6610 C   0  0  0  0  0  2  0  0  0  0  0  0
  191.9450  169.0950  138.5100 O   0  0  0  0  0  0  0  0  0  0  0  0
  191.3860  173.2190  140.5250 C   0  0  2  0  0  3  0  0  0  0  0  0
  192.0750  173.2600  141.8880 C   0  0  0  0  0  2  0  0  0  0  0  0
  194.5290  170.5060  140.5620 C   0  0  0  0  0  2  0  0  0  0  0  0
  193.3630  168.7500  141.9400 C   0  0  0  0  0  2  0  0  0  0  0  0
  189.4290  174.4520  138.5430 O   0  0  0  0  0  1  0  0  0  0  0  0
  191.4210  174.2260  142.8190 C   0  0  0  0  0  0  0  0  0  0  0  0
  189.3850  172.1110  141.3140 O   0  0  0  0  0  1  0  0  0  0  0  0
  189.2260  173.2220  139.1860 C   0  0  2  0  0  3  0  0  0  0  0  0
  192.5740  169.5830  139.6940 C   0  0  2  0  0  0  0  0  0  0  0  0
  189.8380  173.2340  140.6090 C   0  0  1  0  0  0  0  0  0  0  0  0
  191.6590  169.8450  137.3650 C   0  0  0  0  0  0  0  0  0  0  0  0
  189.7920  172.0830  138.3230 C   0  0  1  0  0  3  0  0  0  0  0  0
  190.1010  174.6390  142.6230 O   0  0  0  0  0  0  0  0  0  0  0  0
  191.7120  170.7070  140.3030 C   0  0  0  0  0  2  0  0  0  0  0  0
  187.4380  173.7050  142.4490 O   0  0  0  0  0  1  0  0  0  0  0  0
  187.9090  174.6650  141.5520 C   0  0  1  0  0  3  0  0  0  0  0  0
  187.0520  177.0400  139.1380 O   0  0  0  0  0  0  0  0  0  0  0  0
  186.0630  178.4460  141.2280 O   0  0  0  0  0  0  0  0  0  0  0  0
  186.7240  177.1570  140.7940 P   0  0  0  0  0  0  0  0  0  0  0  0
  187.4760  176.0680  142.0200 C   0  0  2  0  0  3  0  0  0  0  0  0
  188.2710  177.0710  141.6190 O   0  0  0  0  0  0  0  0  0  0  0  0
  186.9560  176.2600  143.4350 C   0  0  0  0  0  2  0  0  0  0  0  0
  188.0230  176.0450  144.3960 N   0  0  0  0  0  2  0  0  0  0  0  0
  187.2160  177.6470  145.8880 O   0  0  0  0  0  0  0  0  0  0  0  0
  188.0800  176.7660  145.6280 C   0  0  0  0  0  0  0  0  0  0  0  0
  189.1830  176.5120  146.6050 C   0  0  1  0  0  3  0  0  0  0  0  0
  189.2060  175.1200  147.0270 N   0  0  0  0  0  1  0  0  0  0  0  0
  190.5490  176.9560  146.0790 C   0  0  0  0  0  2  0  0  0  0  0  0
  192.9290  176.7320  146.2470 O   0  0  0  0  0  1  0  0  0  0  0  0
  191.7230  176.3590  146.8470 C   0  0  0  0  0  2  0  0  0  0  0  0
  195.3090  170.0400  142.9070 C   0  0  2  0  0  3  0  0  0  0  0  0
  196.6640  170.3420  142.7070 O   0  0  0  0  0  0  0  0  0  0  0  0
  197.9320  170.4760  145.2020 O   0  0  0  0  0  0  0  0  0  0  0  0
  197.5170  172.7260  145.2050 O   0  0  0  0  0  1  0  0  0  0  0  0
  197.4510  171.6280  144.5900 C   0  0  0  0  0  0  0  0  0  0  0  0
  196.8680  171.5570  143.2800 N   0  0  0  0  0  0  0  0  0  0  0  0
  196.2130  172.7250  142.6890 C   0  0  0  0  0  2  0  0  0  0  0  0
  196.0660  175.8590  142.2090 C   0  0  2  0  0  3  0  0  0  0  0  0
  194.6930  175.4430  139.0140 O   0  0  0  0  0  0  0  0  0  0  0  0
  197.1530  173.5280  141.7890 C   0  0  1  0  0  3  0  0  0  0  0  0
  197.9400  172.3220  139.7870 C   0  0  0  0  0  1  0  0  0  0  0  0
  196.9020  174.6020  139.4540 C   0  0  2  0  0  3  0  0  0  0  0  0
  195.6940  176.2750  140.8950 O   0  0  0  0  0  0  0  0  0  0  0  0
  196.8980  173.3120  140.2880 C   0  0  2  0  0  3  0  0  0  0  0  0
  197.3280  174.9810  142.2640 C   0  0  0  0  0  2  0  0  0  0  0  0
  195.6980  175.4440  139.7760 C   0  0  0  0  0  0  0  0  0  0  0  0
  194.9820  175.2670  142.8590 O   0  0  0  0  0  1  0  0  0  0  0  0
  196.9910  174.3280  137.9510 C   0  0  0  0  0  2  0  0  0  0  0  0
  197.9260  175.3280  137.2900 C   0  0  0  0  0  1  0  0  0  0  0  0
  195.1030  169.1750  144.1680 C   0  0  0  0  0  2  0  0  0  0  0  0
  194.1180  171.1810  145.0280 O   0  0  0  0  0  1  0  0  0  0  0  0
  194.5320  169.4410  146.5850 C   0  0  0  0  0  1  0  0  0  0  0  0
  194.1290  169.7930  145.1680 C   0  0  2  0  0  3  0  0  0  0  0  0
  1 27  1  1  0  0  0
  1 24  1  0  0  0  0
  2 15  1  0  0  0  0
  2 42  1  1  0  0  0
  3 20  1  0  0  0  0
  3 14  1  0  0  0  0
  4 22  2  0  0  0  0
  6 22  1  0  0  0  0
  7  6  1  6  0  0  0
  7 23  1  0  0  0  0
  7  8  1  0  0  0  0
  8 25  1  1  0  0  0
  8 12  1  0  0  0  0
 10 15  1  0  0  0  0
 11 20  1  0  0  0  0
 12 21  1  0  0  0  0
 12 13  1  1  0  0  0
 13 17  1  0  0  0  0
 14  2  1  0  0  0  0
 17  9  2  0  0  0  0
 19 16  1  6  0  0  0
 19 21  1  0  0  0  0
 20 25  1  1  0  0  0
 20 10  1  0  0  0  0
 21 18  1  1  0  0  0
 21  1  1  0  0  0  0
 22 11  1  0  0  0  0
 23  5  1  6  0  0  0
 23 19  1  0  0  0  0
 24 17  1  0  0  0  0
 27 31  1  0  0  0  0
 27 26  1  1  0  0  0
 28 30  2  0  0  0  0
 30 29  2  0  0  0  0
 30 32  1  0  0  0  0
 31 33  1  1  0  0  0
 32 31  1  0  0  0  0
 33 34  1  0  0  0  0
 34 36  1  0  0  0  0
 36 35  2  0  0  0  0
 36 37  1  0  0  0  0
 37 38  1  6  0  0  0
 39 37  1  0  0  0  0
 39 41  1  0  0  0  0
 40 41  1  0  0  0  0
 42 61  1  1  0  0  0
 43 42  1  0  0  0  0
 43 47  1  0  0  0  0
 46 44  2  0  0  0  0
 46 45  1  0  0  0  0
 47 46  1  0  0  0  0
 48 47  1  0  0  0  0
 49 56  1  0  0  0  0
 49 58  1  6  0  0  0
 50 57  2  0  0  0  0
 51 56  1  0  0  0  0
 51 48  1  1  0  0  0
 53 59  1  6  0  0  0
 53 57  1  0  0  0  0
 53 55  1  0  0  0  0
 54 49  1  0  0  0  0
 55 52  1  6  0  0  0
 55 51  1  0  0  0  0
 57 54  1  0  0  0  0
 60 59  1  0  0  0  0
 61 64  1  0  0  0  0
 62 64  1  0  0  0  0
 64 63  1  1  0  0  0
M  END
>  <MODEL>
8

>  <REMARK>
 VINA RESULT:      -6.5      3.039      6.974
  Name = 
  15 active torsions:
  status: ('A' for Active; 'I' for Inactive)
    1  A    between atoms: O_1  and  C_20
    2  A    between atoms: O_1  and  N_60
    3  A    between atoms: C_2  and  C_35
    4  A    between atoms: C_3  and  C_20
    5  A    between atoms: C_4  and  C_20
    6  A    between atoms: C_4  and  C_50
    7  A    between atoms: C_5  and  N_12
    8  A    between atoms: C_5  and  C_37
    9  A    between atoms: C_14  and  C_27
   10  A    between atoms: C_14  and  C_52
   11  A    between atoms: C_27  and  C_53
   12  A    between atoms: C_34  and  C_39
   13  A    between atoms: C_34  and  N_60
   14  A    between atoms: C_35  and  C_37
   15  A    between atoms: C_44  and  C_51
                            x       y       z     vdW  Elec       q    Type
                         _______ _______ _______ _____ _____    ______ ____

>  <TORSDO>
F 15

$$$$
=
 OpenBabel11072409183D

 64 68  0  0  1  0  0  0  0  0999 V2000
  188.0220  176.6470  142.6470 C   0  0  2  0  0  3  0  0  0  0  0  0
  194.5960  173.8800  144.3310 C   0  0  2  0  0  3  0  0  0  0  0  0
  193.1760  174.4520  146.2380 O   0  0  0  0  0  0  0  0  0  0  0  0
  191.9100  177.4140  148.8960 O   0  0  0  0  0  0  0  0  0  0  0  0
  188.8620  177.9210  147.3460 O   0  0  0  0  0  1  0  0  0  0  0  0
  190.7220  175.7160  147.7460 C   0  0  0  0  0  2  0  0  0  0  0  0
  189.9470  175.9550  146.4510 C   0  0  2  0  0  3  0  0  0  0  0  0
  190.6580  175.3910  145.2220 C   0  0  1  0  0  3  0  0  0  0  0  0
  189.6140  174.1410  140.6070 O   0  0  0  0  0  0  0  0  0  0  0  0
  194.4470  176.2290  145.2270 C   0  0  0  0  0  2  0  0  0  0  0  0
  192.9820  176.6330  147.0340 O   0  0  0  0  0  0  0  0  0  0  0  0
  189.6800  175.4090  144.0370 C   0  0  2  0  0  3  0  0  0  0  0  0
  190.2810  174.7200  142.8130 C   0  0  0  0  0  2  0  0  0  0  0  0
  193.2850  173.6350  145.0850 C   0  0  0  0  0  2  0  0  0  0  0  0
  194.7670  175.3670  144.0170 C   0  0  0  0  0  2  0  0  0  0  0  0
  187.3020  176.7610  145.3760 O   0  0  0  0  0  1  0  0  0  0  0  0
  189.4340  174.8960  141.5960 C   0  0  0  0  0  0  0  0  0  0  0  0
  190.1100  177.6610  143.2640 O   0  0  0  0  0  1  0  0  0  0  0  0
  188.4860  177.4240  145.0230 C   0  0  2  0  0  3  0  0  0  0  0  0
  193.1160  175.8220  145.8670 C   0  0  2  0  0  0  0  0  0  0  0  0
  189.0990  176.8140  143.7370 C   0  0  1  0  0  0  0  0  0  0  0  0
  191.8970  176.6260  147.9160 C   0  0  0  0  0  0  0  0  0  0  0  0
  189.4710  177.3960  146.2030 C   0  0  1  0  0  3  0  0  0  0  0  0
  188.5110  175.9410  141.5040 O   0  0  0  0  0  0  0  0  0  0  0  0
  191.9610  176.1360  144.8940 C   0  0  0  0  0  2  0  0  0  0  0  0
  187.9990  178.4840  141.0950 O   0  0  0  0  0  1  0  0  0  0  0  0
  187.3580  177.9680  142.2220 C   0  0  1  0  0  3  0  0  0  0  0  0
  185.1250  178.6750  144.8130 O   0  0  0  0  0  0  0  0  0  0  0  0
  183.2450  178.6590  142.8680 O   0  0  0  0  0  0  0  0  0  0  0  0
  184.7200  178.5310  143.1770 P   0  0  0  0  0  0  0  0  0  0  0  0
  185.8460  177.8440  141.9460 C   0  0  2  0  0  3  0  0  0  0  0  0
  185.2090  176.9200  142.6800 O   0  0  0  0  0  0  0  0  0  0  0  0
  185.3350  177.9160  140.5170 C   0  0  0  0  0  2  0  0  0  0  0  0
  186.3380  177.4040  139.5990 N   0  0  0  0  0  2  0  0  0  0  0  0
  184.7740  176.3300  138.2420 O   0  0  0  0  0  0  0  0  0  0  0  0
  185.9810  176.6270  138.4560 C   0  0  0  0  0  0  0  0  0  0  0  0
  187.0350  176.1260  137.5200 C   0  0  1  0  0  3  0  0  0  0  0  0
  187.5090  174.8080  137.9130 N   0  0  0  0  0  1  0  0  0  0  0  0
  186.5820  176.1420  136.0600 C   0  0  0  0  0  2  0  0  0  0  0  0
  188.5070  175.4150  134.8320 O   0  0  0  0  0  1  0  0  0  0  0  0
  187.6870  176.5200  135.0800 C   0  0  0  0  0  2  0  0  0  0  0  0
  194.6370  173.0360  143.0490 C   0  0  2  0  0  3  0  0  0  0  0  0
  195.5190  173.6020  142.1170 O   0  0  0  0  0  0  0  0  0  0  0  0
  197.6400  172.2700  143.3730 O   0  0  0  0  0  1  0  0  0  0  0  0
  197.9060  171.0490  141.4560 O   0  0  0  0  0  0  0  0  0  0  0  0
  197.2470  171.9190  142.0870 C   0  0  0  0  0  0  0  0  0  0  0  0
  196.1130  172.5590  141.4800 N   0  0  0  0  0  0  0  0  0  0  0  0
  195.7840  172.3200  140.0750 C   0  0  0  0  0  2  0  0  0  0  0  0
  193.7330  172.6780  137.6800 C   0  0  2  0  0  3  0  0  0  0  0  0
  196.3050  172.7140  135.3030 O   0  0  0  0  0  0  0  0  0  0  0  0
  195.5390  173.6180  139.3040 C   0  0  1  0  0  3  0  0  0  0  0  0
  197.5320  175.0460  139.0360 C   0  0  0  0  0  1  0  0  0  0  0  0
  196.2200  174.4550  136.9580 C   0  0  2  0  0  3  0  0  0  0  0  0
  194.3050  172.9220  136.3950 O   0  0  0  0  0  0  0  0  0  0  0  0
  196.6850  173.9870  138.3460 C   0  0  2  0  0  3  0  0  0  0  0  0
  194.1070  173.7160  138.7500 C   0  0  0  0  0  2  0  0  0  0  0  0
  195.6270  173.3100  136.1840 C   0  0  0  0  0  0  0  0  0  0  0  0
  194.0000  171.3720  138.0930 O   0  0  0  0  0  1  0  0  0  0  0  0
  197.3390  175.1310  136.1630 C   0  0  0  0  0  2  0  0  0  0  0  0
  196.7920  175.6990  134.8640 C   0  0  0  0  0  1  0  0  0  0  0  0
  193.2460  172.7850  142.4310 C   0  0  0  0  0  2  0  0  0  0  0  0
  193.8700  170.5070  142.8230 O   0  0  0  0  0  1  0  0  0  0  0  0
  192.0850  170.8800  141.3060 C   0  0  0  0  0  1  0  0  0  0  0  0
  192.7780  171.3380  142.5740 C   0  0  2  0  0  3  0  0  0  0  0  0
  1 27  1  6  0  0  0
  1 21  1  0  0  0  0
  2 42  1  6  0  0  0
  2 14  1  0  0  0  0
  6 22  1  0  0  0  0
  7  6  1  1  0  0  0
  8 25  1  6  0  0  0
  8  7  1  0  0  0  0
  9 17  2  0  0  0  0
 10 20  1  0  0  0  0
 11 22  1  0  0  0  0
 12 13  1  6  0  0  0
 12  8  1  0  0  0  0
 14  3  1  0  0  0  0
 15  2  1  0  0  0  0
 15 10  1  0  0  0  0
 17 13  1  0  0  0  0
 19 16  1  1  0  0  0
 19 23  1  0  0  0  0
 20 25  1  6  0  0  0
 20  3  1  0  0  0  0
 20 11  1  0  0  0  0
 21 18  1  6  0  0  0
 21 12  1  0  0  0  0
 21 19  1  0  0  0  0
 22  4  2  0  0  0  0
 23  7  1  0  0  0  0
 23  5  1  1  0  0  0
 24 17  1  0  0  0  0
 24  1  1  0  0  0  0
 27 26  1  6  0  0  0
 29 30  2  0  0  0  0
 30 28  2  0  0  0  0
 31 33  1  6  0  0  0
 31 27  1  0  0  0  0
 31 32  1  0  0  0  0
 32 30  1  0  0  0  0
 34 33  1  0  0  0  0
 35 36  2  0  0  0  0
 36 34  1  0  0  0  0
 37 38  1  1  0  0  0
 37 36  1  0  0  0  0
 39 37  1  0  0  0  0
 40 41  1  0  0  0  0
 41 39  1  0  0  0  0
 42 61  1  6  0  0  0
 43 42  1  0  0  0  0
 45 46  2  0  0  0  0
 46 44  1  0  0  0  0
 47 46  1  0  0  0  0
 47 43  1  0  0  0  0
 48 47  1  0  0  0  0
 49 58  1  1  0  0  0
 49 56  1  0  0  0  0
 50 57  2  0  0  0  0
 51 48  1  6  0  0  0
 53 59  1  6  0  0  0
 53 55  1  0  0  0  0
 54 49  1  0  0  0  0
 55 52  1  1  0  0  0
 55 51  1  0  0  0  0
 56 51  1  0  0  0  0
 57 54  1  0  0  0  0
 57 53  1  0  0  0  0
 60 59  1  0  0  0  0
 61 64  1  0  0  0  0
 64 63  1  6  0  0  0
 64 62  1  0  0  0  0
M  END
>  <MODEL>
9

>  <REMARK>
 VINA RESULT:      -6.3      2.421      4.031
  Name = 
  15 active torsions:
  status: ('A' for Active; 'I' for Inactive)
    1  A    between atoms: O_1  and  C_20
    2  A    between atoms: O_1  and  N_60
    3  A    between atoms: C_2  and  C_35
    4  A    between atoms: C_3  and  C_20
    5  A    between atoms: C_4  and  C_20
    6  A    between atoms: C_4  and  C_50
    7  A    between atoms: C_5  and  N_12
    8  A    between atoms: C_5  and  C_37
    9  A    between atoms: C_14  and  C_27
   10  A    between atoms: C_14  and  C_52
   11  A    between atoms: C_27  and  C_53
   12  A    between atoms: C_34  and  C_39
   13  A    between atoms: C_34  and  N_60
   14  A    between atoms: C_35  and  C_37
   15  A    between atoms: C_44  and  C_51
                            x       y       z     vdW  Elec       q    Type
                         _______ _______ _______ _____ _____    ______ ____

>  <TORSDO>
F 15

$$$$
