=
 OpenBabel11062422363D

 67 73  0  0  1  0  0  0  0  0999 V2000
  191.6730  172.5620  137.3840 C   0  0  0  0  0  3  0  0  0  0  0  0
  195.0170  173.4750  137.9370 O   0  0  0  0  0  0  0  0  0  0  0  0
  192.7360  173.5260  136.9770 C   0  0  0  0  0  2  0  0  0  0  0  0
  187.9720  173.5920  143.6850 O   0  0  0  0  0  0  0  0  0  0  0  0
  190.0620  175.2150  145.4530 C   0  0  2  0  0  3  0  0  0  0  0  0
  192.4070  177.3410  144.3480 O   0  0  0  0  0  1  0  0  0  0  0  0
  185.8070  175.9100  142.7900 C   0  0  0  0  0  2  0  0  0  0  0  0
  193.6620  173.7920  138.1120 C   0  0  0  0  0  0  0  0  0  0  0  0
  196.4410  173.7040  143.4110 O   0  0  0  0  0  1  0  0  0  0  0  0
  186.7520  176.5800  144.7600 C   0  0  0  0  0  0  0  0  0  0  0  0
  195.1960  177.0980  143.7300 C   0  0  0  0  0  1  0  0  0  0  0  0
  195.0460  173.9020  142.8580 P   0  0  2  0  0  0  0  0  0  0  0  0
  190.7930  172.8390  138.2980 N   0  0  0  0  0  0  0  0  0  0  0  0
  186.8330  175.6920  143.8370 C   0  0  0  0  0  0  0  0  0  0  0  0
  194.4480  176.0840  144.5800 C   0  0  0  0  0  0  0  0  0  0  0  0
  193.8440  174.9930  143.6600 C   0  0  0  0  0  2  0  0  0  0  0  0
  190.5160  173.5810  143.5990 C   0  0  0  0  0  2  0  0  0  0  0  0
  184.9630  177.0370  143.4320 C   0  0  1  0  0  3  0  0  0  0  0  0
  193.2210  174.3640  139.2380 C   0  0  0  0  0  3  0  0  0  0  0  0
  193.9310  173.7610  144.1960 O   0  0  0  0  0  0  0  0  0  0  0  0
  195.6380  171.9370  139.7320 C   0  0  1  0  0  3  0  0  0  0  0  0
  190.5640  173.8130  145.1050 C   0  0  0  0  0  2  0  0  0  0  0  0
  192.6450  175.9020  146.1740 O   0  0  0  0  0  0  0  0  0  0  0  0
  189.2040  174.5190  141.0160 C   0  0  0  0  0  2  0  0  0  0  0  0
  188.1180  174.9720  143.8860 C   0  0  1  0  0  3  0  0  0  0  0  0
  187.3390  176.4840  147.1420 C   0  0  0  0  0  1  0  0  0  0  0  0
  187.8710  176.5630  145.7290 C   0  0  1  0  0  3  0  0  0  0  0  0
  189.0720  173.0990  141.5540 C   0  0  0  0  0  2  0  0  0  0  0  0
  189.1470  173.0720  143.0810 C   0  0  2  0  0  3  0  0  0  0  0  0
  190.4550  175.5280  146.7610 O   0  0  0  0  0  0  0  0  0  0  0  0
  189.3750  174.5240  139.5040 C   0  0  0  0  0  2  0  0  0  0  0  0
  191.4590  176.4980  146.6420 C   0  0  1  0  0  3  0  0  0  0  0  0
  195.4630  170.6910  141.9270 C   0  0  0  0  0  1  0  0  0  0  0  0
  185.6870  177.4340  144.5990 O   0  0  0  0  0  0  0  0  0  0  0  0
  188.5470  175.2380  145.3370 C   0  0  2  0  0  3  0  0  0  0  0  0
  193.2960  176.8020  145.2980 C   0  0  2  0  0  3  0  0  0  0  0  0
  195.4220  175.5500  145.6290 C   0  0  0  0  0  1  0  0  0  0  0  0
  190.7280  174.0430  139.0810 C   0  0  0  0  0  0  0  0  0  0  0  0
  195.6110  172.0550  141.2700 C   0  0  2  0  0  3  0  0  0  0  0  0
  191.8130  174.6950  139.5280 C   0  0  0  0  0  3  0  0  0  0  0  0
  195.9510  173.2550  138.9960 C   0  0  2  0  0  3  0  0  0  0  0  0
  194.5150  172.8360  141.6460 O   0  0  0  0  0  0  0  0  0  0  0  0
  191.7450  177.2680  148.2620 P   0  0  0  0  0  0  0  0  0  0  0  0
  190.6690  178.2960  148.5350 O   0  0  0  0  0  1  0  0  0  0  0  0
  191.7130  176.0830  149.4680 O   0  0  0  0  0  1  0  0  0  0  0  0
  193.2570  178.0260  148.2630 O   0  0  0  0  0  0  0  0  0  0  0  0
  196.1930  170.2890  137.8990 C   0  0  2  0  0  3  0  0  0  0  0  0
  194.8850  169.5130  137.9970 C   0  0  2  0  0  3  0  0  0  0  0  0
  195.8810  169.5140  139.1710 C   0  0  2  0  0  0  0  0  0  0  0  0
  196.6050  170.8490  139.2520 C   0  0  2  0  0  3  0  0  0  0  0  0
  197.4770  168.1660  140.7920 C   0  0  0  0  0  1  0  0  0  0  0  0
  197.8830  168.1910  138.3110 C   0  0  0  0  0  1  0  0  0  0  0  0
  196.8500  168.3310  139.4110 C   0  0  0  0  0  3  0  0  0  0  0  0
  195.9230  168.2870  136.1670 F   0  0  0  0  0  0  0  0  0  0  0  0
  194.8300  168.3240  137.0180 C   0  0  2  0  0  3  0  0  0  0  0  0
  193.6010  168.2010  136.3040 O   0  0  0  0  0  0  0  0  0  0  0  0
  192.7820  169.2910  135.9870 C   0  0  0  0  0  0  0  0  0  0  0  0
  193.2250  170.3200  135.2710 C   0  0  0  0  0  2  0  0  0  0  0  0
  191.2470  168.6110  137.7050 N   0  0  0  0  0  1  0  0  0  0  0  0
  191.3600  169.2750  136.4180 C   0  0  0  0  0  2  0  0  0  0  0  0
  197.2400  174.9930  139.4520 C   0  0  0  0  0  1  0  0  0  0  0  0
  196.0490  174.3730  139.8300 O   0  0  0  0  0  0  0  0  0  0  0  0
  184.8490  178.1130  142.5510 O   0  0  0  0  0  0  0  0  0  0  0  0
  183.4790  178.2020  142.2900 C   0  0  0  0  0  2  0  0  0  0  0  0
  184.4680  178.4460  140.2000 C   0  0  0  0  0  1  0  0  0  0  0  0
  183.2380  178.0590  140.8650 N   0  0  0  0  0  0  0  0  0  0  0  0
  182.3080  178.9830  140.5260 O   0  0  0  0  0  1  0  0  0  0  0  0
  1 13  2  0  0  0  0
  2  8  1  0  0  0  0
  2 41  1  0  0  0  0
  3  1  1  0  0  0  0
  3  8  1  0  0  0  0
  5 22  1  1  0  0  0
  5 30  1  0  0  0  0
  6 36  1  0  0  0  0
  7 18  1  0  0  0  0
  7 14  1  0  0  0  0
  8 19  2  0  0  0  0
 10 27  1  0  0  0  0
 11 15  1  0  0  0  0
 12  9  1  1  0  0  0
 12 20  1  0  0  0  0
 13 38  1  0  0  0  0
 14 25  1  0  0  0  0
 14 10  2  0  0  0  0
 15 36  1  0  0  0  0
 15 37  1  0  0  0  0
 16 20  1  0  0  0  0
 16 15  1  0  0  0  0
 17 22  1  0  0  0  0
 18 63  1  6  0  0  0
 18 34  1  0  0  0  0
 19 40  1  0  0  0  0
 21 50  1  1  0  0  0
 21 39  1  0  0  0  0
 23 32  1  0  0  0  0
 24 28  1  0  0  0  0
 25  4  1  1  0  0  0
 25 35  1  0  0  0  0
 27 26  1  1  0  0  0
 29 28  1  6  0  0  0
 29 17  1  0  0  0  0
 29  4  1  0  0  0  0
 31 24  1  0  0  0  0
 32 30  1  0  0  0  0
 32 43  1  1  0  0  0
 34 10  1  0  0  0  0
 35  5  1  0  0  0  0
 35 27  1  0  0  0  0
 36 23  1  0  0  0  0
 38 31  1  0  0  0  0
 38 40  2  0  0  0  0
 39 42  1  0  0  0  0
 39 33  1  0  0  0  0
 41 21  1  0  0  0  0
 41 62  1  0  0  0  0
 42 12  1  0  0  0  0
 43 46  2  0  0  0  0
 43 44  1  0  0  0  0
 43 45  1  0  0  0  0
 47 48  1  0  0  0  0
 47 49  1  0  0  0  0
 47 50  1  0  0  0  0
 48 49  1  0  0  0  0
 49 50  1  0  0  0  0
 49 53  1  0  0  0  0
 52 53  1  0  0  0  0
 53 51  1  0  0  0  0
 54 55  1  0  0  0  0
 55 48  1  0  0  0  0
 56 55  1  0  0  0  0
 57 56  1  0  0  0  0
 57 60  1  0  0  0  0
 58 57  2  0  0  0  0
 60 59  1  0  0  0  0
 61 62  1  0  0  0  0
 64 63  1  0  0  0  0
 65 66  1  0  0  0  0
 66 64  1  0  0  0  0
 67 66  1  0  0  0  0
M  END
>  <MODEL>
1

>  <REMARK>
 VINA RESULT:      -4.3      0.000      0.000
  Name = 
  11 active torsions:
  status: ('A' for Active; 'I' for Inactive)
    1  A    between atoms: P_4  and  C_50
    2  A    between atoms: C_11  and  N_38
    3  A    between atoms: C_11  and  O_49
    4  A    between atoms: C_28  and  O_49
    5  A    between atoms: C_31  and  C_65
    6  A    between atoms: C_32  and  C_61
    7  A    between atoms: O_43  and  C_56
    8  A    between atoms: O_43  and  C_61
    9  A    between atoms: C_46  and  C_56
   10  A    between atoms: C_57  and  C_62
   11  A    between atoms: C_63  and  O_66
                            x       y       z     vdW  Elec       q    Type
                         _______ _______ _______ _____ _____    ______ ____

>  <TORSDO>
F 11

$$$$
