=
 OpenBabel11062423043D

 62 69  0  0  1  0  0  0  0  0999 V2000
  194.9450  174.8490  145.2980 C   0  0  0  0  0  2  0  0  0  0  0  0
  196.7130  174.4480  142.2940 O   0  0  0  0  0  0  0  0  0  0  0  0
  195.8990  174.7780  143.2090 C   0  0  0  0  0  0  0  0  0  0  0  0
  194.1560  175.8370  144.4130 C   0  0  1  0  0  3  0  0  0  0  0  0
  195.7080  174.0090  144.3800 N   0  0  0  0  0  0  0  0  0  0  0  0
  195.0830  176.0160  143.1860 C   0  0  2  0  0  3  0  0  0  0  0  0
  196.2180  169.6930  142.7270 C   0  0  0  0  0  0  0  0  0  0  0  0
  196.6770  171.8010  143.9260 C   0  0  0  0  0  2  0  0  0  0  0  0
  195.9100  169.7990  145.2140 C   0  0  0  0  0  2  0  0  0  0  0  0
  194.6320  170.5350  145.6090 C   0  0  0  0  0  2  0  0  0  0  0  0
  197.1880  169.0940  142.1850 O   0  0  0  0  0  0  0  0  0  0  0  0
  196.4170  170.3730  143.9710 N   0  0  0  0  0  0  0  0  0  0  0  0
  194.8740  172.0550  145.6830 C   0  0  0  0  0  2  0  0  0  0  0  0
  195.4230  172.5740  144.3420 C   0  0  1  0  0  3  0  0  0  0  0  0
  194.9540  169.8650  141.9480 C   0  0  0  0  0  2  0  0  0  0  0  0
  195.1740  169.5140  140.4910 C   0  0  0  0  0  2  0  0  0  0  0  0
  193.8210  168.9970  138.6050 C   0  0  0  0  0  0  0  0  0  0  0  0
  192.9160  169.5270  139.7240 N   0  0  0  0  0  0  0  0  0  0  0  0
  194.0170  168.6970  139.9500 C   0  0  2  0  0  3  0  0  0  0  0  0
  194.1400  168.9230  137.3840 O   0  0  0  0  0  0  0  0  0  0  0  0
  192.1210  171.7080  140.3200 N   0  0  0  0  0  0  0  0  0  0  0  0
  191.7590  170.3070  140.1300 C   0  0  2  0  0  3  0  0  0  0  0  0
  190.7720  171.3660  142.2750 C   0  0  2  0  0  3  0  0  0  0  0  0
  191.0540  172.2970  141.1150 C   0  0  0  0  0  2  0  0  0  0  0  0
  191.0950  169.6760  141.7050 S   0  0  0  0  0  0  0  0  0  0  0  0
  193.5390  172.8280  138.8130 O   0  0  0  0  0  1  0  0  0  0  0  0
  192.2320  172.3860  139.0210 C   0  0  2  0  0  3  0  0  0  0  0  0
  191.3080  173.5150  138.8870 N   0  0  0  0  0  2  0  0  0  0  0  0
  189.2080  173.8820  138.0490 C   0  0  0  0  0  1  0  0  0  0  0  0
  190.4900  173.2590  137.7810 N   0  0  0  0  0  0  0  0  0  0  0  0
  191.0570  173.9180  136.6810 N   0  0  0  0  0  1  0  0  0  0  0  0
  189.4400  171.4880  142.6680 O   0  0  0  0  0  0  0  0  0  0  0  0
  187.6350  172.8850  141.9990 C   0  0  0  0  0  1  0  0  0  0  0  0
  189.1020  172.8120  142.3670 C   0  0  0  0  0  2  0  0  0  0  0  0
  195.1190  176.8970  141.2220 O   0  0  0  0  0  1  0  0  0  0  0  0
  194.3870  176.1040  141.9760 O   0  0  0  0  0  0  0  0  0  0  0  0
  192.7680  175.2550  144.0670 C   0  0  1  0  0  3  0  0  0  0  0  0
  192.4450  174.0550  144.9680 C   0  0  0  0  0  1  0  0  0  0  0  0
  191.5390  176.9840  142.7950 C   0  0  0  0  0  2  0  0  0  0  0  0
  191.6610  176.3190  144.1510 C   0  0  1  0  0  3  0  0  0  0  0  0
  190.4960  175.9720  143.2120 C   0  0  1  0  0  3  0  0  0  0  0  0
  189.1840  176.7290  143.5030 C   0  0  1  0  0  3  0  0  0  0  0  0
  186.7320  176.7840  140.8270 N   0  0  0  0  0  0  0  0  0  0  0  0
  187.9600  176.3780  141.2810 O   0  0  0  0  0  0  0  0  0  0  0  0
  187.4410  178.3480  142.4110 C   0  0  1  0  0  3  0  0  0  0  0  0
  188.7700  178.6980  141.7350 C   0  0  0  0  0  2  0  0  0  0  0  0
  186.4200  177.8880  141.4100 C   0  0  0  0  0  0  0  0  0  0  0  0
  188.5160  177.2830  142.2210 C   0  0  1  0  0  0  0  0  0  0  0  0
  183.9760  178.0570  141.6150 C   0  0  0  0  0  1  0  0  0  0  0  0
  185.2240  178.5430  141.1340 O   0  0  0  0  0  0  0  0  0  0  0  0
  188.2180  175.8690  144.3570 C   0  0  0  0  0  2  0  0  0  0  0  0
  185.7450  176.5050  145.3800 O   0  0  0  0  0  0  0  0  0  0  0  0
  186.5340  177.7800  147.1310 N   0  0  0  0  0  1  0  0  0  0  0  0
  188.0590  176.3630  145.7320 N   0  0  0  0  0  0  0  0  0  0  0  0
  186.7410  176.8570  146.0680 C   0  0  0  0  0  0  0  0  0  0  0  0
  191.4180  176.3220  148.3440 C   0  0  0  0  0  3  0  0  0  0  0  0
  190.8030  175.1620  148.0020 N   0  0  0  0  0  0  0  0  0  0  0  0
  189.6910  175.1390  147.2200 C   0  0  0  0  0  0  0  0  0  0  0  0
  189.7910  177.5400  147.0690 C   0  0  0  0  0  3  0  0  0  0  0  0
  189.1660  176.3430  146.6810 C   0  0  0  0  0  0  0  0  0  0  0  0
  190.9100  177.5370  147.8920 C   0  0  0  0  0  3  0  0  0  0  0  0
  189.1210  173.9350  146.9800 F   0  0  0  0  0  0  0  0  0  0  0  0
  2  3  2  0  0  0  0
  3  5  1  0  0  0  0
  4 37  1  6  0  0  0
  4  1  1  0  0  0  0
  5  1  1  0  0  0  0
  6 36  1  6  0  0  0
  6  3  1  0  0  0  0
  6  4  1  0  0  0  0
  7 12  1  0  0  0  0
  8 12  1  0  0  0  0
  9 10  1  0  0  0  0
 10 13  1  0  0  0  0
 11  7  2  0  0  0  0
 12  9  1  0  0  0  0
 14  8  1  1  0  0  0
 14  5  1  0  0  0  0
 14 13  1  0  0  0  0
 15  7  1  0  0  0  0
 16 15  1  0  0  0  0
 17 18  1  0  0  0  0
 17 19  1  0  0  0  0
 18 19  1  0  0  0  0
 19 16  1  1  0  0  0
 20 17  2  0  0  0  0
 21 24  1  0  0  0  0
 22 18  1  1  0  0  0
 22 21  1  0  0  0  0
 22 25  1  0  0  0  0
 23 32  1  6  0  0  0
 24 23  1  0  0  0  0
 25 23  1  0  0  0  0
 27 26  1  1  0  0  0
 27 21  1  0  0  0  0
 28 27  1  0  0  0  0
 30 29  1  0  0  0  0
 30 28  1  0  0  0  0
 31 30  1  0  0  0  0
 33 34  1  0  0  0  0
 34 32  1  0  0  0  0
 35 36  1  0  0  0  0
 37 38  1  1  0  0  0
 39 41  1  0  0  0  0
 39 40  1  0  0  0  0
 40 37  1  6  0  0  0
 41 42  1  1  0  0  0
 41 40  1  0  0  0  0
 42 51  1  6  0  0  0
 43 44  1  0  0  0  0
 43 47  2  0  0  0  0
 44 48  1  0  0  0  0
 45 46  1  6  0  0  0
 46 48  1  0  0  0  0
 47 45  1  0  0  0  0
 48 45  1  0  0  0  0
 48 42  1  1  0  0  0
 50 47  1  0  0  0  0
 50 49  1  0  0  0  0
 51 54  1  0  0  0  0
 52 55  2  0  0  0  0
 54 55  1  0  0  0  0
 54 60  1  0  0  0  0
 55 53  1  0  0  0  0
 57 56  1  0  0  0  0
 58 57  2  0  0  0  0
 59 61  1  0  0  0  0
 60 59  2  0  0  0  0
 60 58  1  0  0  0  0
 61 56  2  0  0  0  0
 62 58  1  0  0  0  0
M  END
>  <MODEL>
1

>  <REMARK>
 VINA RESULT:      -6.5      0.000      0.000
  Name = 
  19 active torsions:
  status: ('A' for Active; 'I' for Inactive)
    1  A    between atoms: O_2  and  C_22
    2  A    between atoms: O_2  and  C_54
    3  A    between atoms: C_4  and  C_29
    4  A    between atoms: N_9  and  C_45
    5  A    between atoms: C_10  and  C_29
    6  A    between atoms: C_10  and  C_30
    7  A    between atoms: C_13  and  C_34
    8  A    between atoms: C_13  and  C_42
    9  A    between atoms: C_14  and  N_20
   10  A    between atoms: C_25  and  N_36
   11  A    between atoms: O_26  and  C_56
   12  A    between atoms: C_28  and  C_50
   13  A    between atoms: C_28  and  C_52
   14  A    between atoms: C_28  and  C_61
   15  A    between atoms: N_36  and  C_52
   16  A    between atoms: N_44  and  C_58
   17  A    between atoms: C_45  and  N_51
   18  A    between atoms: N_51  and  N_55
   19  A    between atoms: C_57  and  O_60
                            x       y       z     vdW  Elec       q    Type
                         _______ _______ _______ _____ _____    ______ ____

>  <TORSDO>
F 19

$$$$
=
 OpenBabel11062423043D

 62 69  0  0  1  0  0  0  0  0999 V2000
  191.6860  173.7930  140.7100 C   0  0  0  0  0  2  0  0  0  0  0  0
  190.0580  170.6930  140.4770 O   0  0  0  0  0  0  0  0  0  0  0  0
  190.4100  171.8820  140.7440 C   0  0  0  0  0  0  0  0  0  0  0  0
  190.4300  174.1100  141.5480 C   0  0  1  0  0  3  0  0  0  0  0  0
  191.7420  172.3380  140.6040 N   0  0  0  0  0  0  0  0  0  0  0  0
  189.4760  172.9420  141.1950 C   0  0  2  0  0  3  0  0  0  0  0  0
  194.3290  170.8310  144.1620 C   0  0  0  0  0  0  0  0  0  0  0  0
  192.4780  171.0220  142.5390 C   0  0  0  0  0  2  0  0  0  0  0  0
  194.1750  169.2070  142.2560 C   0  0  0  0  0  2  0  0  0  0  0  0
  194.6220  169.8230  140.9320 C   0  0  0  0  0  2  0  0  0  0  0  0
  194.0470  170.5150  145.3510 O   0  0  0  0  0  0  0  0  0  0  0  0
  193.5830  170.2530  143.0850 N   0  0  0  0  0  0  0  0  0  0  0  0
  193.4570  170.5650  140.2510 C   0  0  0  0  0  2  0  0  0  0  0  0
  192.8810  171.6350  141.1960 C   0  0  1  0  0  3  0  0  0  0  0  0
  195.2770  171.9620  143.9240 C   0  0  0  0  0  2  0  0  0  0  0  0
  196.6810  171.4400  143.6950 C   0  0  0  0  0  2  0  0  0  0  0  0
  197.2760  173.4640  144.7920 C   0  0  0  0  0  0  0  0  0  0  0  0
  197.1840  173.7350  143.2860 N   0  0  0  0  0  0  0  0  0  0  0  0
  197.7010  172.5540  143.8280 C   0  0  2  0  0  3  0  0  0  0  0  0
  197.0820  173.8140  145.9910 O   0  0  0  0  0  0  0  0  0  0  0  0
  195.5370  175.2650  142.4570 N   0  0  0  0  0  0  0  0  0  0  0  0
  196.8240  174.6270  142.1970 C   0  0  2  0  0  3  0  0  0  0  0  0
  195.2410  174.6730  140.1500 C   0  0  2  0  0  3  0  0  0  0  0  0
  195.0720  175.7730  141.1740 C   0  0  0  0  0  2  0  0  0  0  0  0
  196.6890  173.6960  140.6360 S   0  0  0  0  0  0  0  0  0  0  0  0
  197.0430  176.7140  143.5360 O   0  0  0  0  0  1  0  0  0  0  0  0
  195.6980  176.3620  143.4210 C   0  0  2  0  0  3  0  0  0  0  0  0
  195.1630  176.0380  144.7460 N   0  0  0  0  0  2  0  0  0  0  0  0
  193.1720  177.1700  144.7980 C   0  0  0  0  0  1  0  0  0  0  0  0
  194.5510  177.1930  145.2450 N   0  0  0  0  0  0  0  0  0  0  0  0
  194.5420  177.0900  146.6440 N   0  0  0  0  0  1  0  0  0  0  0  0
  195.4460  175.2270  138.8870 O   0  0  0  0  0  0  0  0  0  0  0  0
  197.2330  175.5160  137.3440 C   0  0  0  0  0  1  0  0  0  0  0  0
  196.6410  174.6540  138.4390 C   0  0  0  0  0  2  0  0  0  0  0  0
  187.4770  172.7100  141.9580 O   0  0  0  0  0  1  0  0  0  0  0  0
  188.7310  172.4860  142.2880 O   0  0  0  0  0  0  0  0  0  0  0  0
  190.7920  174.1880  143.0480 C   0  0  1  0  0  3  0  0  0  0  0  0
  192.3140  174.1410  143.2390 C   0  0  0  0  0  1  0  0  0  0  0  0
  190.2560  176.5820  142.7360 C   0  0  0  0  0  2  0  0  0  0  0  0
  190.1900  175.4320  143.7200 C   0  0  1  0  0  3  0  0  0  0  0  0
  188.9290  175.9010  142.9790 C   0  0  1  0  0  3  0  0  0  0  0  0
  188.0320  176.8690  143.7760 C   0  0  1  0  0  3  0  0  0  0  0  0
  186.3920  177.9060  140.7080 N   0  0  0  0  0  0  0  0  0  0  0  0
  187.5270  177.8750  141.4760 O   0  0  0  0  0  0  0  0  0  0  0  0
  185.7200  177.7690  142.9420 C   0  0  1  0  0  3  0  0  0  0  0  0
  186.4660  179.0140  143.4310 C   0  0  0  0  0  2  0  0  0  0  0  0
  185.3660  177.8760  141.4860 C   0  0  0  0  0  0  0  0  0  0  0  0
  187.2420  177.8400  142.8650 C   0  0  1  0  0  0  0  0  0  0  0  0
  182.9550  178.2330  141.8040 C   0  0  0  0  0  1  0  0  0  0  0  0
  184.0710  177.9080  140.9810 O   0  0  0  0  0  0  0  0  0  0  0  0
  187.1190  176.1020  144.7660 C   0  0  0  0  0  2  0  0  0  0  0  0
  184.9740  176.6500  146.3980 O   0  0  0  0  0  0  0  0  0  0  0  0
  186.1710  177.8290  147.9760 N   0  0  0  0  0  1  0  0  0  0  0  0
  187.3040  176.5130  146.1650 N   0  0  0  0  0  0  0  0  0  0  0  0
  186.1090  176.9720  146.8420 C   0  0  0  0  0  0  0  0  0  0  0  0
  191.1980  176.3460  147.8710 C   0  0  0  0  0  3  0  0  0  0  0  0
  190.4840  175.2070  147.6810 N   0  0  0  0  0  0  0  0  0  0  0  0
  189.2150  175.2250  147.1970 C   0  0  0  0  0  0  0  0  0  0  0  0
  189.3430  177.6240  147.0440 C   0  0  0  0  0  3  0  0  0  0  0  0
  188.6080  176.4500  146.8130 C   0  0  0  0  0  0  0  0  0  0  0  0
  190.6310  177.5800  147.5670 C   0  0  0  0  0  3  0  0  0  0  0  0
  188.5680  174.0400  147.0950 F   0  0  0  0  0  0  0  0  0  0  0  0
  1  4  1  0  0  0  0
  2  3  2  0  0  0  0
  3  6  1  0  0  0  0
  4 37  1  1  0  0  0
  5  1  1  0  0  0  0
  5  3  1  0  0  0  0
  5 14  1  0  0  0  0
  6  4  1  0  0  0  0
  6 36  1  1  0  0  0
  7 11  2  0  0  0  0
  8 12  1  0  0  0  0
  9 12  1  0  0  0  0
 10  9  1  0  0  0  0
 12  7  1  0  0  0  0
 13 10  1  0  0  0  0
 14 13  1  6  0  0  0
 14  8  1  0  0  0  0
 15  7  1  0  0  0  0
 16 15  1  0  0  0  0
 17 20  2  0  0  0  0
 18 19  1  0  0  0  0
 18 17  1  0  0  0  0
 19 16  1  6  0  0  0
 19 17  1  0  0  0  0
 21 27  1  0  0  0  0
 22 21  1  0  0  0  0
 22 18  1  1  0  0  0
 23 32  1  6  0  0  0
 23 25  1  0  0  0  0
 23 24  1  0  0  0  0
 24 21  1  0  0  0  0
 25 22  1  0  0  0  0
 27 26  1  1  0  0  0
 27 28  1  0  0  0  0
 28 30  1  0  0  0  0
 29 30  1  0  0  0  0
 30 31  1  0  0  0  0
 33 34  1  0  0  0  0
 34 32  1  0  0  0  0
 35 36  1  0  0  0  0
 37 38  1  6  0  0  0
 39 41  1  0  0  0  0
 39 40  1  0  0  0  0
 40 37  1  6  0  0  0
 41 40  1  0  0  0  0
 41 42  1  1  0  0  0
 42 51  1  6  0  0  0
 43 44  1  0  0  0  0
 43 47  2  0  0  0  0
 44 48  1  0  0  0  0
 45 46  1  1  0  0  0
 47 45  1  0  0  0  0
 48 45  1  0  0  0  0
 48 46  1  0  0  0  0
 48 42  1  1  0  0  0
 50 47  1  0  0  0  0
 50 49  1  0  0  0  0
 51 54  1  0  0  0  0
 52 55  2  0  0  0  0
 54 60  1  0  0  0  0
 54 55  1  0  0  0  0
 55 53  1  0  0  0  0
 57 56  1  0  0  0  0
 58 57  2  0  0  0  0
 59 61  1  0  0  0  0
 60 59  2  0  0  0  0
 60 58  1  0  0  0  0
 61 56  2  0  0  0  0
 62 58  1  0  0  0  0
M  END
>  <MODEL>
2

>  <REMARK>
 VINA RESULT:      -6.5      2.210      5.285
  Name = 
  19 active torsions:
  status: ('A' for Active; 'I' for Inactive)
    1  A    between atoms: O_2  and  C_22
    2  A    between atoms: O_2  and  C_54
    3  A    between atoms: C_4  and  C_29
    4  A    between atoms: N_9  and  C_45
    5  A    between atoms: C_10  and  C_29
    6  A    between atoms: C_10  and  C_30
    7  A    between atoms: C_13  and  C_34
    8  A    between atoms: C_13  and  C_42
    9  A    between atoms: C_14  and  N_20
   10  A    between atoms: C_25  and  N_36
   11  A    between atoms: O_26  and  C_56
   12  A    between atoms: C_28  and  C_50
   13  A    between atoms: C_28  and  C_52
   14  A    between atoms: C_28  and  C_61
   15  A    between atoms: N_36  and  C_52
   16  A    between atoms: N_44  and  C_58
   17  A    between atoms: C_45  and  N_51
   18  A    between atoms: N_51  and  N_55
   19  A    between atoms: C_57  and  O_60
                            x       y       z     vdW  Elec       q    Type
                         _______ _______ _______ _____ _____    ______ ____

>  <TORSDO>
F 19

$$$$
=
 OpenBabel11062423043D

 62 69  0  0  1  0  0  0  0  0999 V2000
  195.6490  175.4360  144.9800 C   0  0  0  0  0  2  0  0  0  0  0  0
  196.9860  174.7220  141.8150 O   0  0  0  0  0  0  0  0  0  0  0  0
  196.2750  175.1020  142.7940 C   0  0  0  0  0  0  0  0  0  0  0  0
  194.5780  176.1140  144.0990 C   0  0  1  0  0  3  0  0  0  0  0  0
  196.3980  174.5520  144.0920 N   0  0  0  0  0  0  0  0  0  0  0  0
  195.2640  176.1840  142.7130 C   0  0  2  0  0  3  0  0  0  0  0  0
  196.5310  170.0850  142.8070 C   0  0  0  0  0  0  0  0  0  0  0  0
  197.2620  172.3820  143.3430 C   0  0  0  0  0  2  0  0  0  0  0  0
  197.6670  170.5490  144.9950 C   0  0  0  0  0  2  0  0  0  0  0  0
  196.7400  171.2370  145.9950 C   0  0  0  0  0  2  0  0  0  0  0  0
  197.1040  169.4860  141.8550 O   0  0  0  0  0  0  0  0  0  0  0  0
  197.2910  170.9610  143.6460 N   0  0  0  0  0  0  0  0  0  0  0  0
  196.7480  172.7640  145.7910 C   0  0  0  0  0  2  0  0  0  0  0  0
  196.3610  173.1110  144.3430 C   0  0  1  0  0  3  0  0  0  0  0  0
  195.0400  170.0390  142.8920 C   0  0  0  0  0  2  0  0  0  0  0  0
  194.4170  170.7490  141.7080 C   0  0  0  0  0  2  0  0  0  0  0  0
  192.2000  170.0240  142.1700 C   0  0  0  0  0  0  0  0  0  0  0  0
  192.1750  170.8920  140.9070 N   0  0  0  0  0  0  0  0  0  0  0  0
  192.9890  171.1590  142.0120 C   0  0  2  0  0  3  0  0  0  0  0  0
  191.8050  169.0190  142.8280 O   0  0  0  0  0  0  0  0  0  0  0  0
  190.2160  171.5010  139.6680 N   0  0  0  0  0  0  0  0  0  0  0  0
  191.6340  171.1590  139.5850 C   0  0  2  0  0  3  0  0  0  0  0  0
  190.1650  169.9920  137.8030 C   0  0  2  0  0  3  0  0  0  0  0  0
  189.6810  171.3270  138.3260 C   0  0  0  0  0  2  0  0  0  0  0  0
  191.7990  169.6860  138.5260 S   0  0  0  0  0  0  0  0  0  0  0  0
  191.0830  173.6870  139.6100 O   0  0  0  0  0  1  0  0  0  0  0  0
  190.0540  172.8920  140.1140 C   0  0  2  0  0  3  0  0  0  0  0  0
  190.0090  173.0200  141.5720 N   0  0  0  0  0  2  0  0  0  0  0  0
  189.2610  171.9540  143.4570 C   0  0  0  0  0  1  0  0  0  0  0  0
  189.0210  172.1460  142.0410 N   0  0  0  0  0  0  0  0  0  0  0  0
  187.7870  172.8000  141.9080 N   0  0  0  0  0  1  0  0  0  0  0  0
  190.2630  170.0350  136.4120 O   0  0  0  0  0  0  0  0  0  0  0  0
  191.7520  169.1860  134.7640 C   0  0  0  0  0  1  0  0  0  0  0  0
  191.6140  169.7910  136.1450 C   0  0  0  0  0  2  0  0  0  0  0  0
  194.8940  176.6100  140.6360 O   0  0  0  0  0  1  0  0  0  0  0  0
  194.3890  175.9390  141.6500 O   0  0  0  0  0  0  0  0  0  0  0  0
  193.2740  175.2860  144.1090 C   0  0  1  0  0  3  0  0  0  0  0  0
  193.3530  174.1660  145.1560 C   0  0  0  0  0  1  0  0  0  0  0  0
  191.9490  177.1680  143.2030 C   0  0  0  0  0  2  0  0  0  0  0  0
  192.0350  176.1660  144.3370 C   0  0  1  0  0  3  0  0  0  0  0  0
  191.0140  175.9800  143.2050 C   0  0  1  0  0  3  0  0  0  0  0  0
  189.5930  176.4880  143.5250 C   0  0  1  0  0  3  0  0  0  0  0  0
  187.0230  176.8040  140.9800 N   0  0  0  0  0  0  0  0  0  0  0  0
  188.2440  176.3060  141.3550 O   0  0  0  0  0  0  0  0  0  0  0  0
  187.9040  178.2540  142.5870 C   0  0  1  0  0  3  0  0  0  0  0  0
  189.2180  178.5520  141.8590 C   0  0  0  0  0  2  0  0  0  0  0  0
  186.8090  177.8990  141.6220 C   0  0  0  0  0  0  0  0  0  0  0  0
  188.9010  177.1350  142.3000 C   0  0  1  0  0  0  0  0  0  0  0  0
  184.4480  178.0340  140.9500 C   0  0  0  0  0  1  0  0  0  0  0  0
  185.6450  178.6360  141.4320 O   0  0  0  0  0  0  0  0  0  0  0  0
  188.7340  175.3780  144.1810 C   0  0  0  0  0  2  0  0  0  0  0  0
  190.1930  174.1620  146.1710 O   0  0  0  0  0  0  0  0  0  0  0  0
  188.6570  174.5320  147.8500 N   0  0  0  0  0  1  0  0  0  0  0  0
  188.4500  175.6250  145.6010 N   0  0  0  0  0  0  0  0  0  0  0  0
  189.1470  174.7640  146.5340 C   0  0  0  0  0  0  0  0  0  0  0  0
  185.7040  178.5640  146.9870 C   0  0  0  0  0  3  0  0  0  0  0  0
  185.3860  177.7740  145.9310 N   0  0  0  0  0  0  0  0  0  0  0  0
  186.2590  176.8670  145.4200 C   0  0  0  0  0  0  0  0  0  0  0  0
  187.8610  177.5200  147.0950 C   0  0  0  0  0  3  0  0  0  0  0  0
  187.5300  176.6740  146.0240 C   0  0  0  0  0  0  0  0  0  0  0  0
  186.9590  178.4590  147.5800 C   0  0  0  0  0  3  0  0  0  0  0  0
  185.8670  176.1650  144.3320 F   0  0  0  0  0  0  0  0  0  0  0  0
  2  3  2  0  0  0  0
  3  5  1  0  0  0  0
  4 37  1  6  0  0  0
  4  1  1  0  0  0  0
  5 14  1  0  0  0  0
  5  1  1  0  0  0  0
  6 36  1  6  0  0  0
  6  3  1  0  0  0  0
  6  4  1  0  0  0  0
  7 15  1  0  0  0  0
  7 12  1  0  0  0  0
  8 12  1  0  0  0  0
  9 10  1  0  0  0  0
 11  7  2  0  0  0  0
 12  9  1  0  0  0  0
 13 10  1  0  0  0  0
 14  8  1  6  0  0  0
 14 13  1  0  0  0  0
 16 15  1  0  0  0  0
 17 20  2  0  0  0  0
 18 19  1  0  0  0  0
 18 17  1  0  0  0  0
 19 16  1  6  0  0  0
 19 17  1  0  0  0  0
 21 27  1  0  0  0  0
 22 21  1  0  0  0  0
 22 18  1  1  0  0  0
 23 32  1  6  0  0  0
 23 24  1  0  0  0  0
 23 25  1  0  0  0  0
 24 21  1  0  0  0  0
 25 22  1  0  0  0  0
 27 26  1  1  0  0  0
 27 28  1  0  0  0  0
 28 30  1  0  0  0  0
 30 29  1  0  0  0  0
 31 30  1  0  0  0  0
 33 34  1  0  0  0  0
 34 32  1  0  0  0  0
 35 36  1  0  0  0  0
 37 38  1  1  0  0  0
 39 41  1  0  0  0  0
 39 40  1  0  0  0  0
 40 37  1  6  0  0  0
 41 42  1  1  0  0  0
 41 40  1  0  0  0  0
 42 51  1  6  0  0  0
 43 44  1  0  0  0  0
 43 47  2  0  0  0  0
 44 48  1  0  0  0  0
 45 46  1  6  0  0  0
 46 48  1  0  0  0  0
 47 45  1  0  0  0  0
 48 45  1  0  0  0  0
 48 42  1  1  0  0  0
 49 50  1  0  0  0  0
 50 47  1  0  0  0  0
 51 54  1  0  0  0  0
 52 55  2  0  0  0  0
 54 60  1  0  0  0  0
 54 55  1  0  0  0  0
 55 53  1  0  0  0  0
 56 61  1  0  0  0  0
 57 56  2  0  0  0  0
 58 57  1  0  0  0  0
 58 60  2  0  0  0  0
 59 61  2  0  0  0  0
 60 59  1  0  0  0  0
 62 58  1  0  0  0  0
M  END
>  <MODEL>
3

>  <REMARK>
 VINA RESULT:      -6.3      1.975      3.206
  Name = 
  19 active torsions:
  status: ('A' for Active; 'I' for Inactive)
    1  A    between atoms: O_2  and  C_22
    2  A    between atoms: O_2  and  C_54
    3  A    between atoms: C_4  and  C_29
    4  A    between atoms: N_9  and  C_45
    5  A    between atoms: C_10  and  C_29
    6  A    between atoms: C_10  and  C_30
    7  A    between atoms: C_13  and  C_34
    8  A    between atoms: C_13  and  C_42
    9  A    between atoms: C_14  and  N_20
   10  A    between atoms: C_25  and  N_36
   11  A    between atoms: O_26  and  C_56
   12  A    between atoms: C_28  and  C_50
   13  A    between atoms: C_28  and  C_52
   14  A    between atoms: C_28  and  C_61
   15  A    between atoms: N_36  and  C_52
   16  A    between atoms: N_44  and  C_58
   17  A    between atoms: C_45  and  N_51
   18  A    between atoms: N_51  and  N_55
   19  A    between atoms: C_57  and  O_60
                            x       y       z     vdW  Elec       q    Type
                         _______ _______ _______ _____ _____    ______ ____

>  <TORSDO>
F 19

$$$$
=
 OpenBabel11062423043D

 62 69  0  0  1  0  0  0  0  0999 V2000
  194.4800  174.5830  145.6140 C   0  0  0  0  0  2  0  0  0  0  0  0
  197.5450  173.7300  144.1350 O   0  0  0  0  0  0  0  0  0  0  0  0
  196.4610  174.2860  144.4890 C   0  0  0  0  0  0  0  0  0  0  0  0
  194.7010  175.8470  144.7560 C   0  0  1  0  0  3  0  0  0  0  0  0
  195.3940  173.5750  145.0860 N   0  0  0  0  0  0  0  0  0  0  0  0
  196.1940  175.7380  144.3610 C   0  0  2  0  0  3  0  0  0  0  0  0
  195.6800  169.3710  143.1200 C   0  0  0  0  0  0  0  0  0  0  0  0
  195.7270  171.1590  144.8220 C   0  0  0  0  0  2  0  0  0  0  0  0
  193.7590  169.6200  144.7130 C   0  0  0  0  0  2  0  0  0  0  0  0
  192.8530  170.7940  144.3500 C   0  0  0  0  0  2  0  0  0  0  0  0
  196.5270  168.4390  143.2140 O   0  0  0  0  0  0  0  0  0  0  0  0
  195.1250  169.9390  144.3110 N   0  0  0  0  0  0  0  0  0  0  0  0
  193.3850  172.1060  144.9560 C   0  0  0  0  0  2  0  0  0  0  0  0
  194.8320  172.3580  144.4990 C   0  0  1  0  0  3  0  0  0  0  0  0
  195.4510  170.0030  141.7860 C   0  0  0  0  0  2  0  0  0  0  0  0
  194.2280  169.4090  141.1180 C   0  0  0  0  0  2  0  0  0  0  0  0
  195.8260  169.3880  139.3570 C   0  0  0  0  0  0  0  0  0  0  0  0
  194.5570  170.0860  138.8560 N   0  0  0  0  0  0  0  0  0  0  0  0
  194.5420  168.9730  139.7010 C   0  0  2  0  0  3  0  0  0  0  0  0
  197.0850  169.2940  139.4170 O   0  0  0  0  0  0  0  0  0  0  0  0
  193.9380  172.4000  138.7800 N   0  0  0  0  0  0  0  0  0  0  0  0
  193.9390  171.1320  138.0570 C   0  0  2  0  0  3  0  0  0  0  0  0
  191.6990  172.4180  137.9190 C   0  0  2  0  0  3  0  0  0  0  0  0
  192.9520  173.2410  138.1170 C   0  0  0  0  0  2  0  0  0  0  0  0
  192.2110  170.6970  137.6760 S   0  0  0  0  0  0  0  0  0  0  0  0
  195.8350  173.0770  139.9970 O   0  0  0  0  0  1  0  0  0  0  0  0
  195.2690  173.0200  138.7220 C   0  0  2  0  0  3  0  0  0  0  0  0
  195.2470  174.3630  138.1390 N   0  0  0  0  0  2  0  0  0  0  0  0
  197.0190  175.4340  137.1580 C   0  0  0  0  0  1  0  0  0  0  0  0
  196.0730  174.3450  137.0090 N   0  0  0  0  0  0  0  0  0  0  0  0
  196.8010  173.1470  137.0440 N   0  0  0  0  0  1  0  0  0  0  0  0
  191.0070  172.8700  136.7960 O   0  0  0  0  0  0  0  0  0  0  0  0
  189.0970  173.2250  138.1680 C   0  0  0  0  0  1  0  0  0  0  0  0
  190.1490  173.8610  137.2840 C   0  0  0  0  0  2  0  0  0  0  0  0
  197.2200  177.2160  143.1790 O   0  0  0  0  0  1  0  0  0  0  0  0
  196.4510  176.1560  143.0510 O   0  0  0  0  0  0  0  0  0  0  0  0
  193.7350  175.8520  143.5510 C   0  0  1  0  0  3  0  0  0  0  0  0
  194.1770  174.8240  142.5000 C   0  0  0  0  0  1  0  0  0  0  0  0
  191.7440  176.8900  144.5880 C   0  0  0  0  0  2  0  0  0  0  0  0
  192.2790  175.6100  143.9790 C   0  0  1  0  0  3  0  0  0  0  0  0
  191.3180  176.5110  143.1890 C   0  0  1  0  0  3  0  0  0  0  0  0
  189.8380  176.0790  143.2390 C   0  0  1  0  0  3  0  0  0  0  0  0
  190.6870  173.1190  141.3160 N   0  0  0  0  0  0  0  0  0  0  0  0
  190.4900  174.4750  141.3510 O   0  0  0  0  0  0  0  0  0  0  0  0
  189.1660  173.5580  143.0340 C   0  0  1  0  0  3  0  0  0  0  0  0
  188.1370  174.3030  142.1770 C   0  0  0  0  0  2  0  0  0  0  0  0
  189.9490  172.5710  142.2180 C   0  0  0  0  0  0  0  0  0  0  0  0
  189.5400  174.8590  142.3320 C   0  0  1  0  0  0  0  0  0  0  0  0
  190.6250  170.3110  141.5260 C   0  0  0  0  0  1  0  0  0  0  0  0
  189.9350  171.1920  142.4050 O   0  0  0  0  0  0  0  0  0  0  0  0
  189.3640  175.8690  144.6990 C   0  0  0  0  0  2  0  0  0  0  0  0
  189.6100  177.2240  147.0800 O   0  0  0  0  0  0  0  0  0  0  0  0
  187.4020  177.8750  147.2120 N   0  0  0  0  0  1  0  0  0  0  0  0
  188.3600  176.8510  145.1310 N   0  0  0  0  0  0  0  0  0  0  0  0
  188.5010  177.3290  146.4910 C   0  0  0  0  0  0  0  0  0  0  0  0
  185.2770  178.3580  142.6160 C   0  0  0  0  0  3  0  0  0  0  0  0
  184.9730  177.5440  143.6580 N   0  0  0  0  0  0  0  0  0  0  0  0
  185.9330  176.9930  144.4460 C   0  0  0  0  0  0  0  0  0  0  0  0
  187.6070  178.1230  143.1350 C   0  0  0  0  0  3  0  0  0  0  0  0
  187.3030  177.3060  144.2360 C   0  0  0  0  0  0  0  0  0  0  0  0
  186.6060  178.6510  142.3280 C   0  0  0  0  0  3  0  0  0  0  0  0
  185.5310  176.1510  145.4260 F   0  0  0  0  0  0  0  0  0  0  0  0
  2  3  2  0  0  0  0
  3  5  1  0  0  0  0
  4 37  1  6  0  0  0
  4  1  1  0  0  0  0
  5  1  1  0  0  0  0
  6 36  1  6  0  0  0
  6  3  1  0  0  0  0
  6  4  1  0  0  0  0
  7 11  2  0  0  0  0
  7 12  1  0  0  0  0
 10  9  1  0  0  0  0
 10 13  1  0  0  0  0
 12  9  1  0  0  0  0
 12  8  1  0  0  0  0
 14  8  1  1  0  0  0
 14 13  1  0  0  0  0
 14  5  1  0  0  0  0
 15  7  1  0  0  0  0
 16 15  1  0  0  0  0
 17 20  2  0  0  0  0
 17 19  1  0  0  0  0
 18 17  1  0  0  0  0
 18 19  1  0  0  0  0
 19 16  1  1  0  0  0
 22 21  1  0  0  0  0
 22 18  1  1  0  0  0
 23 32  1  6  0  0  0
 23 24  1  0  0  0  0
 24 21  1  0  0  0  0
 25 23  1  0  0  0  0
 25 22  1  0  0  0  0
 27 21  1  0  0  0  0
 27 26  1  1  0  0  0
 28 27  1  0  0  0  0
 30 31  1  0  0  0  0
 30 29  1  0  0  0  0
 30 28  1  0  0  0  0
 32 34  1  0  0  0  0
 34 33  1  0  0  0  0
 36 35  1  0  0  0  0
 37 38  1  6  0  0  0
 40 37  1  6  0  0  0
 40 39  1  0  0  0  0
 41 42  1  1  0  0  0
 41 40  1  0  0  0  0
 41 39  1  0  0  0  0
 42 51  1  1  0  0  0
 43 44  1  0  0  0  0
 43 47  2  0  0  0  0
 44 48  1  0  0  0  0
 45 46  1  6  0  0  0
 46 48  1  0  0  0  0
 47 50  1  0  0  0  0
 47 45  1  0  0  0  0
 48 45  1  0  0  0  0
 48 42  1  1  0  0  0
 49 50  1  0  0  0  0
 51 54  1  0  0  0  0
 54 55  1  0  0  0  0
 55 52  2  0  0  0  0
 55 53  1  0  0  0  0
 56 57  1  0  0  0  0
 57 58  2  0  0  0  0
 58 62  1  0  0  0  0
 59 60  2  0  0  0  0
 60 58  1  0  0  0  0
 60 54  1  0  0  0  0
 61 56  2  0  0  0  0
 61 59  1  0  0  0  0
M  END
>  <MODEL>
4

>  <REMARK>
 VINA RESULT:      -5.1      2.282      4.022
  Name = 
  19 active torsions:
  status: ('A' for Active; 'I' for Inactive)
    1  A    between atoms: O_2  and  C_22
    2  A    between atoms: O_2  and  C_54
    3  A    between atoms: C_4  and  C_29
    4  A    between atoms: N_9  and  C_45
    5  A    between atoms: C_10  and  C_29
    6  A    between atoms: C_10  and  C_30
    7  A    between atoms: C_13  and  C_34
    8  A    between atoms: C_13  and  C_42
    9  A    between atoms: C_14  and  N_20
   10  A    between atoms: C_25  and  N_36
   11  A    between atoms: O_26  and  C_56
   12  A    between atoms: C_28  and  C_50
   13  A    between atoms: C_28  and  C_52
   14  A    between atoms: C_28  and  C_61
   15  A    between atoms: N_36  and  C_52
   16  A    between atoms: N_44  and  C_58
   17  A    between atoms: C_45  and  N_51
   18  A    between atoms: N_51  and  N_55
   19  A    between atoms: C_57  and  O_60
                            x       y       z     vdW  Elec       q    Type
                         _______ _______ _______ _____ _____    ______ ____

>  <TORSDO>
F 19

$$$$
=
 OpenBabel11062423043D

 62 69  0  0  1  0  0  0  0  0999 V2000
  195.5040  172.0660  141.8750 C   0  0  0  0  0  2  0  0  0  0  0  0
  194.0060  171.9430  145.0450 O   0  0  0  0  0  0  0  0  0  0  0  0
  194.2940  171.8370  143.8150 C   0  0  0  0  0  0  0  0  0  0  0  0
  194.2550  171.2310  141.5260 C   0  0  1  0  0  3  0  0  0  0  0  0
  195.2270  172.6820  143.1690 N   0  0  0  0  0  0  0  0  0  0  0  0
  193.7260  170.8030  142.9170 C   0  0  2  0  0  3  0  0  0  0  0  0
  194.3620  176.7050  145.3350 C   0  0  0  0  0  0  0  0  0  0  0  0
  195.4750  174.6020  144.6760 C   0  0  0  0  0  2  0  0  0  0  0  0
  196.3520  176.7780  143.8100 C   0  0  0  0  0  2  0  0  0  0  0  0
  196.0060  176.3570  142.3840 C   0  0  0  0  0  2  0  0  0  0  0  0
  194.4180  177.0530  146.5470 O   0  0  0  0  0  0  0  0  0  0  0  0
  195.4870  176.0530  144.7370 N   0  0  0  0  0  0  0  0  0  0  0  0
  196.0800  174.8260  142.2290 C   0  0  0  0  0  2  0  0  0  0  0  0
  195.1560  174.1410  143.2520 C   0  0  1  0  0  3  0  0  0  0  0  0
  193.0480  176.7790  144.6260 C   0  0  0  0  0  2  0  0  0  0  0  0
  191.9040  176.7390  145.6190 C   0  0  0  0  0  2  0  0  0  0  0  0
  191.2530  174.8750  144.2950 C   0  0  0  0  0  0  0  0  0  0  0  0
  189.9940  175.5110  144.8940 N   0  0  0  0  0  0  0  0  0  0  0  0
  191.2030  175.3950  145.5840 C   0  0  2  0  0  3  0  0  0  0  0  0
  191.8610  174.3200  143.3350 O   0  0  0  0  0  0  0  0  0  0  0  0
  188.4650  177.1070  143.9670 N   0  0  0  0  0  0  0  0  0  0  0  0
  188.5960  175.8850  144.7550 C   0  0  2  0  0  3  0  0  0  0  0  0
  186.9250  177.5960  145.7410 C   0  0  2  0  0  3  0  0  0  0  0  0
  187.1320  177.6230  144.2430 C   0  0  0  0  0  2  0  0  0  0  0  0
  187.8580  176.1860  146.3930 S   0  0  0  0  0  0  0  0  0  0  0  0
  188.2360  177.9080  141.7670 O   0  0  0  0  0  1  0  0  0  0  0  0
  188.6200  176.8090  142.5370 C   0  0  2  0  0  3  0  0  0  0  0  0
  187.8590  175.6310  142.1160 N   0  0  0  0  0  2  0  0  0  0  0  0
  188.5660  173.4550  141.9950 C   0  0  0  0  0  1  0  0  0  0  0  0
  188.7400  174.7820  141.4370 N   0  0  0  0  0  0  0  0  0  0  0  0
  188.3260  174.7330  140.0980 N   0  0  0  0  0  1  0  0  0  0  0  0
  185.5690  177.4420  146.0290 O   0  0  0  0  0  0  0  0  0  0  0  0
  185.9810  179.2690  147.4960 C   0  0  0  0  0  1  0  0  0  0  0  0
  185.1310  178.7270  146.3660 C   0  0  0  0  0  2  0  0  0  0  0  0
  191.9800  169.5450  142.9180 O   0  0  0  0  0  1  0  0  0  0  0  0
  192.3300  170.8100  143.0050 O   0  0  0  0  0  0  0  0  0  0  0  0
  193.2530  172.0810  140.7130 C   0  0  1  0  0  3  0  0  0  0  0  0
  193.9950  173.0900  139.8260 C   0  0  0  0  0  1  0  0  0  0  0  0
  191.0880  172.0360  139.5170 C   0  0  0  0  0  2  0  0  0  0  0  0
  192.3040  171.2070  139.8770 C   0  0  1  0  0  3  0  0  0  0  0  0
  192.1380  171.7790  138.4610 C   0  0  1  0  0  3  0  0  0  0  0  0
  191.5490  170.7930  137.4300 C   0  0  1  0  0  3  0  0  0  0  0  0
  189.5760  171.6810  134.5150 N   0  0  0  0  0  0  0  0  0  0  0  0
  190.4420  170.8070  135.1210 O   0  0  0  0  0  0  0  0  0  0  0  0
  190.8360  172.9030  136.0560 C   0  0  1  0  0  3  0  0  0  0  0  0
  192.2130  172.5290  135.5010 C   0  0  0  0  0  2  0  0  0  0  0  0
  189.7820  172.8600  134.9870 C   0  0  0  0  0  0  0  0  0  0  0  0
  191.2980  171.4500  136.0510 C   0  0  1  0  0  0  0  0  0  0  0  0
  188.9720  175.1600  135.3030 C   0  0  0  0  0  1  0  0  0  0  0  0
  189.0510  173.9580  134.5450 O   0  0  0  0  0  0  0  0  0  0  0  0
  192.4050  169.5050  137.3320 C   0  0  0  0  0  2  0  0  0  0  0  0
  192.6420  168.8150  134.6800 O   0  0  0  0  0  0  0  0  0  0  0  0
  194.9470  168.7710  134.6520 N   0  0  0  0  0  1  0  0  0  0  0  0
  193.6640  169.6970  136.5980 N   0  0  0  0  0  0  0  0  0  0  0  0
  193.7130  169.0990  135.2800 C   0  0  0  0  0  0  0  0  0  0  0  0
  197.0280  171.8020  138.1310 C   0  0  0  0  0  3  0  0  0  0  0  0
  196.5900  170.6740  138.7440 N   0  0  0  0  0  0  0  0  0  0  0  0
  195.4830  170.0080  138.3220 C   0  0  0  0  0  0  0  0  0  0  0  0
  195.2180  171.6350  136.5660 C   0  0  0  0  0  3  0  0  0  0  0  0
  194.7750  170.4480  137.1720 C   0  0  0  0  0  0  0  0  0  0  0  0
  196.3370  172.3120  137.0360 C   0  0  0  0  0  3  0  0  0  0  0  0
  195.0970  168.9230  139.0320 F   0  0  0  0  0  0  0  0  0  0  0  0
  1  5  1  0  0  0  0
  3  2  2  0  0  0  0
  4 37  1  1  0  0  0
  4  1  1  0  0  0  0
  4  6  1  0  0  0  0
  5 14  1  0  0  0  0
  5  3  1  0  0  0  0
  6 36  1  6  0  0  0
  6  3  1  0  0  0  0
  7 11  2  0  0  0  0
  8 12  1  0  0  0  0
  9 12  1  0  0  0  0
 10  9  1  0  0  0  0
 12  7  1  0  0  0  0
 13 10  1  0  0  0  0
 14 13  1  6  0  0  0
 14  8  1  0  0  0  0
 15  7  1  0  0  0  0
 15 16  1  0  0  0  0
 17 18  1  0  0  0  0
 17 19  1  0  0  0  0
 18 19  1  0  0  0  0
 19 16  1  6  0  0  0
 20 17  2  0  0  0  0
 21 24  1  0  0  0  0
 21 22  1  0  0  0  0
 22 18  1  1  0  0  0
 22 25  1  0  0  0  0
 23 32  1  6  0  0  0
 23 25  1  0  0  0  0
 24 23  1  0  0  0  0
 27 26  1  6  0  0  0
 27 21  1  0  0  0  0
 28 27  1  0  0  0  0
 30 29  1  0  0  0  0
 30 28  1  0  0  0  0
 31 30  1  0  0  0  0
 32 34  1  0  0  0  0
 34 33  1  0  0  0  0
 35 36  1  0  0  0  0
 37 38  1  6  0  0  0
 39 40  1  0  0  0  0
 40 37  1  1  0  0  0
 41 42  1  6  0  0  0
 41 39  1  0  0  0  0
 41 40  1  0  0  0  0
 42 51  1  6  0  0  0
 43 47  2  0  0  0  0
 43 44  1  0  0  0  0
 44 48  1  0  0  0  0
 45 46  1  6  0  0  0
 46 48  1  0  0  0  0
 47 45  1  0  0  0  0
 48 45  1  0  0  0  0
 48 42  1  1  0  0  0
 50 47  1  0  0  0  0
 50 49  1  0  0  0  0
 52 55  2  0  0  0  0
 53 55  1  0  0  0  0
 54 60  1  0  0  0  0
 54 51  1  0  0  0  0
 55 54  1  0  0  0  0
 56 57  1  0  0  0  0
 58 57  2  0  0  0  0
 58 62  1  0  0  0  0
 59 61  1  0  0  0  0
 59 60  2  0  0  0  0
 60 58  1  0  0  0  0
 61 56  2  0  0  0  0
M  END
>  <MODEL>
5

>  <REMARK>
 VINA RESULT:      -4.9      3.224      8.657
  Name = 
  19 active torsions:
  status: ('A' for Active; 'I' for Inactive)
    1  A    between atoms: O_2  and  C_22
    2  A    between atoms: O_2  and  C_54
    3  A    between atoms: C_4  and  C_29
    4  A    between atoms: N_9  and  C_45
    5  A    between atoms: C_10  and  C_29
    6  A    between atoms: C_10  and  C_30
    7  A    between atoms: C_13  and  C_34
    8  A    between atoms: C_13  and  C_42
    9  A    between atoms: C_14  and  N_20
   10  A    between atoms: C_25  and  N_36
   11  A    between atoms: O_26  and  C_56
   12  A    between atoms: C_28  and  C_50
   13  A    between atoms: C_28  and  C_52
   14  A    between atoms: C_28  and  C_61
   15  A    between atoms: N_36  and  C_52
   16  A    between atoms: N_44  and  C_58
   17  A    between atoms: C_45  and  N_51
   18  A    between atoms: N_51  and  N_55
   19  A    between atoms: C_57  and  O_60
                            x       y       z     vdW  Elec       q    Type
                         _______ _______ _______ _____ _____    ______ ____

>  <TORSDO>
F 19

$$$$
=
 OpenBabel11062423043D

 62 69  0  0  1  0  0  0  0  0999 V2000
  194.4420  176.1420  143.3690 C   0  0  0  0  0  2  0  0  0  0  0  0
  195.8740  174.6850  146.2220 O   0  0  0  0  0  0  0  0  0  0  0  0
  195.4380  174.9470  145.0590 C   0  0  0  0  0  0  0  0  0  0  0  0
  194.9590  174.8300  142.7440 C   0  0  1  0  0  3  0  0  0  0  0  0
  194.4510  175.9300  144.8130 N   0  0  0  0  0  0  0  0  0  0  0  0
  195.9290  174.2920  143.8230 C   0  0  2  0  0  3  0  0  0  0  0  0
  190.1830  174.3930  145.8350 C   0  0  0  0  0  0  0  0  0  0  0  0
  192.6450  174.5450  145.7290 C   0  0  0  0  0  2  0  0  0  0  0  0
  191.4620  175.2390  147.8200 C   0  0  0  0  0  2  0  0  0  0  0  0
  191.9490  176.6740  147.6270 C   0  0  0  0  0  2  0  0  0  0  0  0
  189.6560  173.2460  145.8020 O   0  0  0  0  0  0  0  0  0  0  0  0
  191.4270  174.5770  146.5200 N   0  0  0  0  0  0  0  0  0  0  0  0
  193.2980  176.7000  146.8840 C   0  0  0  0  0  2  0  0  0  0  0  0
  193.1800  175.9670  145.5360 C   0  0  1  0  0  3  0  0  0  0  0  0
  189.6120  175.4730  144.9730 C   0  0  0  0  0  2  0  0  0  0  0  0
  188.4690  176.1710  145.6810 C   0  0  0  0  0  2  0  0  0  0  0  0
  187.0130  178.0480  145.5760 C   0  0  0  0  0  0  0  0  0  0  0  0
  187.1240  177.4380  144.1750 N   0  0  0  0  0  0  0  0  0  0  0  0
  188.1980  177.5290  145.0640 C   0  0  2  0  0  3  0  0  0  0  0  0
  186.3330  178.5890  146.4950 O   0  0  0  0  0  0  0  0  0  0  0  0
  187.4490  177.2310  141.8090 N   0  0  0  0  0  0  0  0  0  0  0  0
  186.4980  177.0930  142.9090 C   0  0  2  0  0  3  0  0  0  0  0  0
  185.5260  178.2750  140.8230 C   0  0  2  0  0  3  0  0  0  0  0  0
  186.6510  177.2900  140.5930 C   0  0  0  0  0  2  0  0  0  0  0  0
  185.0870  178.1970  142.5800 S   0  0  0  0  0  0  0  0  0  0  0  0
  189.6820  176.5000  141.9160 O   0  0  0  0  0  1  0  0  0  0  0  0
  188.3600  176.0790  141.7750 C   0  0  2  0  0  3  0  0  0  0  0  0
  188.2280  175.2860  140.5500 N   0  0  0  0  0  2  0  0  0  0  0  0
  189.5480  173.5370  141.2200 C   0  0  0  0  0  1  0  0  0  0  0  0
  188.1870  173.9380  140.9250 N   0  0  0  0  0  0  0  0  0  0  0  0
  187.4560  173.8590  142.1190 N   0  0  0  0  0  1  0  0  0  0  0  0
  184.4240  177.9270  140.0440 O   0  0  0  0  0  0  0  0  0  0  0  0
  182.0680  177.9120  140.3730 C   0  0  0  0  0  1  0  0  0  0  0  0
  183.3640  178.6670  140.5790 C   0  0  0  0  0  2  0  0  0  0  0  0
  197.1340  172.5100  143.9020 O   0  0  0  0  0  1  0  0  0  0  0  0
  195.8790  172.9020  143.9690 O   0  0  0  0  0  0  0  0  0  0  0  0
  193.7790  173.8810  142.4370 C   0  0  1  0  0  3  0  0  0  0  0  0
  192.6380  174.6430  141.7480 C   0  0  0  0  0  1  0  0  0  0  0  0
  193.0420  172.2270  140.7520 C   0  0  0  0  0  2  0  0  0  0  0  0
  194.2180  172.6710  141.5980 C   0  0  1  0  0  3  0  0  0  0  0  0
  194.1670  172.9960  140.0980 C   0  0  1  0  0  3  0  0  0  0  0  0
  194.9520  172.0210  139.1970 C   0  0  1  0  0  3  0  0  0  0  0  0
  191.9830  170.2740  138.0520 N   0  0  0  0  0  0  0  0  0  0  0  0
  193.2570  170.2120  138.5550 O   0  0  0  0  0  0  0  0  0  0  0  0
  193.1040  172.2010  137.3530 C   0  0  1  0  0  3  0  0  0  0  0  0
  194.2710  171.4900  136.6610 C   0  0  0  0  0  2  0  0  0  0  0  0
  191.8660  171.3510  137.3560 C   0  0  0  0  0  0  0  0  0  0  0  0
  194.0530  171.3150  138.1530 C   0  0  1  0  0  0  0  0  0  0  0  0
  190.1100  170.8250  135.7180 C   0  0  0  0  0  1  0  0  0  0  0  0
  190.6760  171.6730  136.7120 O   0  0  0  0  0  0  0  0  0  0  0  0
  196.1810  172.7150  138.5560 C   0  0  0  0  0  2  0  0  0  0  0  0
  197.6800  174.0490  140.4370 O   0  0  0  0  0  0  0  0  0  0  0  0
  196.4810  176.0160  140.3450 N   0  0  0  0  0  1  0  0  0  0  0  0
  196.1460  174.1800  138.6690 N   0  0  0  0  0  0  0  0  0  0  0  0
  196.8130  174.7310  139.8300 C   0  0  0  0  0  0  0  0  0  0  0  0
  194.1440  176.4190  135.6550 C   0  0  0  0  0  3  0  0  0  0  0  0
  195.4760  176.1810  135.5600 N   0  0  0  0  0  0  0  0  0  0  0  0
  196.1620  175.5240  136.5310 C   0  0  0  0  0  0  0  0  0  0  0  0
  194.1120  175.2870  137.7710 C   0  0  0  0  0  3  0  0  0  0  0  0
  195.4840  175.0060  137.6660 C   0  0  0  0  0  0  0  0  0  0  0  0
  193.4390  175.9870  136.7750 C   0  0  0  0  0  3  0  0  0  0  0  0
  197.4990  175.3830  136.3670 F   0  0  0  0  0  0  0  0  0  0  0  0
  1  5  1  0  0  0  0
  3  2  2  0  0  0  0
  4 37  1  1  0  0  0
  4  1  1  0  0  0  0
  4  6  1  0  0  0  0
  5  3  1  0  0  0  0
  6 36  1  1  0  0  0
  6  3  1  0  0  0  0
  7 12  1  0  0  0  0
  8 12  1  0  0  0  0
 10  9  1  0  0  0  0
 11  7  2  0  0  0  0
 12  9  1  0  0  0  0
 13 10  1  0  0  0  0
 14  5  1  1  0  0  0
 14  8  1  0  0  0  0
 14 13  1  0  0  0  0
 15 16  1  0  0  0  0
 15  7  1  0  0  0  0
 17 20  2  0  0  0  0
 18 19  1  0  0  0  0
 18 17  1  0  0  0  0
 19 17  1  0  0  0  0
 19 16  1  1  0  0  0
 21 22  1  0  0  0  0
 22 18  1  1  0  0  0
 23 32  1  6  0  0  0
 23 25  1  0  0  0  0
 24 23  1  0  0  0  0
 24 21  1  0  0  0  0
 25 22  1  0  0  0  0
 27 21  1  0  0  0  0
 27 26  1  6  0  0  0
 28 30  1  0  0  0  0
 28 27  1  0  0  0  0
 30 29  1  0  0  0  0
 30 31  1  0  0  0  0
 32 34  1  0  0  0  0
 33 34  1  0  0  0  0
 35 36  1  0  0  0  0
 37 38  1  6  0  0  0
 39 40  1  0  0  0  0
 40 37  1  1  0  0  0
 41 42  1  6  0  0  0
 41 39  1  0  0  0  0
 41 40  1  0  0  0  0
 42 51  1  6  0  0  0
 43 44  1  0  0  0  0
 45 46  1  6  0  0  0
 45 47  1  0  0  0  0
 45 48  1  0  0  0  0
 46 48  1  0  0  0  0
 47 43  2  0  0  0  0
 48 44  1  0  0  0  0
 48 42  1  1  0  0  0
 49 50  1  0  0  0  0
 50 47  1  0  0  0  0
 51 54  1  0  0  0  0
 54 55  1  0  0  0  0
 55 53  1  0  0  0  0
 55 52  2  0  0  0  0
 56 61  1  0  0  0  0
 57 56  2  0  0  0  0
 57 58  1  0  0  0  0
 58 60  2  0  0  0  0
 60 59  1  0  0  0  0
 60 54  1  0  0  0  0
 61 59  2  0  0  0  0
 62 58  1  0  0  0  0
M  END
>  <MODEL>
6

>  <REMARK>
 VINA RESULT:      -4.8      3.462      8.725
  Name = 
  19 active torsions:
  status: ('A' for Active; 'I' for Inactive)
    1  A    between atoms: O_2  and  C_22
    2  A    between atoms: O_2  and  C_54
    3  A    between atoms: C_4  and  C_29
    4  A    between atoms: N_9  and  C_45
    5  A    between atoms: C_10  and  C_29
    6  A    between atoms: C_10  and  C_30
    7  A    between atoms: C_13  and  C_34
    8  A    between atoms: C_13  and  C_42
    9  A    between atoms: C_14  and  N_20
   10  A    between atoms: C_25  and  N_36
   11  A    between atoms: O_26  and  C_56
   12  A    between atoms: C_28  and  C_50
   13  A    between atoms: C_28  and  C_52
   14  A    between atoms: C_28  and  C_61
   15  A    between atoms: N_36  and  C_52
   16  A    between atoms: N_44  and  C_58
   17  A    between atoms: C_45  and  N_51
   18  A    between atoms: N_51  and  N_55
   19  A    between atoms: C_57  and  O_60
                            x       y       z     vdW  Elec       q    Type
                         _______ _______ _______ _____ _____    ______ ____

>  <TORSDO>
F 19

$$$$
=
 OpenBabel11062423043D

 62 69  0  0  1  0  0  0  0  0999 V2000
  195.5590  173.1850  143.0140 C   0  0  0  0  0  2  0  0  0  0  0  0
  193.8600  171.8220  145.7650 O   0  0  0  0  0  0  0  0  0  0  0  0
  194.3010  172.1170  144.6120 C   0  0  0  0  0  0  0  0  0  0  0  0
  194.7300  172.1080  142.2840 C   0  0  1  0  0  3  0  0  0  0  0  0
  194.9420  173.3450  144.3270 N   0  0  0  0  0  0  0  0  0  0  0  0
  194.2370  171.2080  143.4430 C   0  0  2  0  0  3  0  0  0  0  0  0
  192.1500  176.1420  146.7780 C   0  0  0  0  0  0  0  0  0  0  0  0
  194.0590  174.6970  146.1740 C   0  0  0  0  0  2  0  0  0  0  0  0
  194.3490  177.1810  146.1680 C   0  0  0  0  0  2  0  0  0  0  0  0
  194.6060  177.1540  144.6620 C   0  0  0  0  0  2  0  0  0  0  0  0
  191.7230  176.0960  147.9650 O   0  0  0  0  0  0  0  0  0  0  0  0
  193.5540  176.0120  146.5300 N   0  0  0  0  0  0  0  0  0  0  0  0
  195.2430  175.8170  144.2380 C   0  0  0  0  0  2  0  0  0  0  0  0
  194.3530  174.6390  144.6720 C   0  0  1  0  0  3  0  0  0  0  0  0
  191.1620  176.1020  145.6570 C   0  0  0  0  0  2  0  0  0  0  0  0
  190.3590  177.3850  145.6100 C   0  0  0  0  0  2  0  0  0  0  0  0
  188.7440  175.8080  146.3560 C   0  0  0  0  0  0  0  0  0  0  0  0
  188.1650  176.5670  145.1580 N   0  0  0  0  0  0  0  0  0  0  0  0
  188.9560  177.1660  146.1420 C   0  0  2  0  0  3  0  0  0  0  0  0
  188.9090  174.7400  147.0130 O   0  0  0  0  0  0  0  0  0  0  0  0
  188.2160  176.5580  142.7620 N   0  0  0  0  0  0  0  0  0  0  0  0
  187.3620  176.5640  143.9460 C   0  0  2  0  0  3  0  0  0  0  0  0
  186.6070  178.2100  142.0990 C   0  0  2  0  0  3  0  0  0  0  0  0
  187.3720  176.9830  141.6550 C   0  0  0  0  0  2  0  0  0  0  0  0
  186.3130  178.0520  143.8800 S   0  0  0  0  0  0  0  0  0  0  0  0
  190.1250  175.2540  142.3250 O   0  0  0  0  0  1  0  0  0  0  0  0
  188.7450  175.2080  142.5220 C   0  0  2  0  0  3  0  0  0  0  0  0
  188.1110  174.5450  141.3800 N   0  0  0  0  0  2  0  0  0  0  0  0
  188.4040  172.4340  142.2220 C   0  0  0  0  0  1  0  0  0  0  0  0
  188.7940  173.3430  141.1610 N   0  0  0  0  0  0  0  0  0  0  0  0
  188.3220  172.8080  139.9540 N   0  0  0  0  0  1  0  0  0  0  0  0
  185.3900  178.2810  141.4220 O   0  0  0  0  0  0  0  0  0  0  0  0
  183.0570  178.3150  141.8830 C   0  0  0  0  0  1  0  0  0  0  0  0
  184.4330  177.9230  142.3780 C   0  0  0  0  0  2  0  0  0  0  0  0
  193.0330  169.4390  143.2080 O   0  0  0  0  0  1  0  0  0  0  0  0
  192.9260  170.7500  143.2680 O   0  0  0  0  0  0  0  0  0  0  0  0
  193.5890  172.7660  141.4760 C   0  0  1  0  0  3  0  0  0  0  0  0
  194.0180  174.1480  140.9630 C   0  0  0  0  0  1  0  0  0  0  0  0
  191.8130  172.4360  139.7860 C   0  0  0  0  0  2  0  0  0  0  0  0
  193.1150  171.8720  140.3190 C   0  0  1  0  0  3  0  0  0  0  0  0
  193.0840  172.6560  138.9980 C   0  0  1  0  0  3  0  0  0  0  0  0
  193.0170  171.7820  137.7290 C   0  0  1  0  0  3  0  0  0  0  0  0
  190.9050  172.3540  134.8320 N   0  0  0  0  0  0  0  0  0  0  0  0
  192.0680  171.8460  135.3510 O   0  0  0  0  0  0  0  0  0  0  0  0
  191.4240  173.6060  136.7350 C   0  0  1  0  0  3  0  0  0  0  0  0
  192.8260  174.0340  136.2910 C   0  0  0  0  0  2  0  0  0  0  0  0
  190.5290  173.3490  135.5560 C   0  0  0  0  0  0  0  0  0  0  0  0
  192.5110  172.5640  136.4910 C   0  0  1  0  0  0  0  0  0  0  0  0
  189.4140  175.4740  135.0240 C   0  0  0  0  0  1  0  0  0  0  0  0
  189.3780  174.0700  135.2580 O   0  0  0  0  0  0  0  0  0  0  0  0
  194.3660  171.0630  137.4710 C   0  0  0  0  0  2  0  0  0  0  0  0
  195.1470  171.2670  134.8420 O   0  0  0  0  0  0  0  0  0  0  0  0
  197.1850  172.2530  135.2750 N   0  0  0  0  0  1  0  0  0  0  0  0
  195.4420  171.9750  137.0580 N   0  0  0  0  0  0  0  0  0  0  0  0
  195.8920  171.8270  135.6900 C   0  0  0  0  0  0  0  0  0  0  0  0
  197.2360  174.8690  139.6100 C   0  0  0  0  0  3  0  0  0  0  0  0
  197.3620  173.5450  139.8800 N   0  0  0  0  0  0  0  0  0  0  0  0
  196.7530  172.5930  139.1260 C   0  0  0  0  0  0  0  0  0  0  0  0
  195.8510  174.3320  137.7250 C   0  0  0  0  0  3  0  0  0  0  0  0
  196.0020  172.9590  137.9770 C   0  0  0  0  0  0  0  0  0  0  0  0
  196.4620  175.2860  138.5310 C   0  0  0  0  0  3  0  0  0  0  0  0
  196.8970  171.3030  139.5100 F   0  0  0  0  0  0  0  0  0  0  0  0
  1  5  1  0  0  0  0
  3  2  2  0  0  0  0
  4 37  1  1  0  0  0
  4  1  1  0  0  0  0
  4  6  1  0  0  0  0
  5  3  1  0  0  0  0
  5 14  1  0  0  0  0
  6 36  1  6  0  0  0
  6  3  1  0  0  0  0
  7 11  2  0  0  0  0
  8 12  1  0  0  0  0
  9 12  1  0  0  0  0
 10  9  1  0  0  0  0
 12  7  1  0  0  0  0
 13 10  1  0  0  0  0
 14 13  1  1  0  0  0
 14  8  1  0  0  0  0
 15  7  1  0  0  0  0
 16 15  1  0  0  0  0
 17 20  2  0  0  0  0
 18 19  1  0  0  0  0
 18 17  1  0  0  0  0
 19 16  1  6  0  0  0
 19 17  1  0  0  0  0
 21 22  1  0  0  0  0
 22 18  1  1  0  0  0
 23 32  1  6  0  0  0
 23 25  1  0  0  0  0
 24 23  1  0  0  0  0
 24 21  1  0  0  0  0
 25 22  1  0  0  0  0
 27 26  1  6  0  0  0
 27 21  1  0  0  0  0
 28 27  1  0  0  0  0
 30 28  1  0  0  0  0
 30 29  1  0  0  0  0
 31 30  1  0  0  0  0
 32 34  1  0  0  0  0
 33 34  1  0  0  0  0
 35 36  1  0  0  0  0
 37 38  1  6  0  0  0
 39 40  1  0  0  0  0
 40 37  1  1  0  0  0
 41 42  1  6  0  0  0
 41 39  1  0  0  0  0
 41 40  1  0  0  0  0
 42 51  1  6  0  0  0
 43 44  1  0  0  0  0
 43 47  2  0  0  0  0
 44 48  1  0  0  0  0
 45 46  1  6  0  0  0
 46 48  1  0  0  0  0
 47 45  1  0  0  0  0
 48 45  1  0  0  0  0
 48 42  1  1  0  0  0
 49 50  1  0  0  0  0
 50 47  1  0  0  0  0
 52 55  2  0  0  0  0
 53 55  1  0  0  0  0
 54 51  1  0  0  0  0
 54 60  1  0  0  0  0
 55 54  1  0  0  0  0
 56 57  1  0  0  0  0
 58 62  1  0  0  0  0
 58 57  2  0  0  0  0
 59 60  2  0  0  0  0
 59 61  1  0  0  0  0
 60 58  1  0  0  0  0
 61 56  2  0  0  0  0
M  END
>  <MODEL>
7

>  <REMARK>
 VINA RESULT:      -4.7      3.505      8.529
  Name = 
  19 active torsions:
  status: ('A' for Active; 'I' for Inactive)
    1  A    between atoms: O_2  and  C_22
    2  A    between atoms: O_2  and  C_54
    3  A    between atoms: C_4  and  C_29
    4  A    between atoms: N_9  and  C_45
    5  A    between atoms: C_10  and  C_29
    6  A    between atoms: C_10  and  C_30
    7  A    between atoms: C_13  and  C_34
    8  A    between atoms: C_13  and  C_42
    9  A    between atoms: C_14  and  N_20
   10  A    between atoms: C_25  and  N_36
   11  A    between atoms: O_26  and  C_56
   12  A    between atoms: C_28  and  C_50
   13  A    between atoms: C_28  and  C_52
   14  A    between atoms: C_28  and  C_61
   15  A    between atoms: N_36  and  C_52
   16  A    between atoms: N_44  and  C_58
   17  A    between atoms: C_45  and  N_51
   18  A    between atoms: N_51  and  N_55
   19  A    between atoms: C_57  and  O_60
                            x       y       z     vdW  Elec       q    Type
                         _______ _______ _______ _____ _____    ______ ____

>  <TORSDO>
F 19

$$$$
=
 OpenBabel11062423043D

 62 69  0  0  1  0  0  0  0  0999 V2000
  194.9240  173.3560  142.5140 C   0  0  0  0  0  2  0  0  0  0  0  0
  193.4860  171.9850  145.4060 O   0  0  0  0  0  0  0  0  0  0  0  0
  193.7870  172.3180  144.2190 C   0  0  0  0  0  0  0  0  0  0  0  0
  193.8650  172.4470  141.8560 C   0  0  1  0  0  3  0  0  0  0  0  0
  194.5320  173.4810  143.9140 N   0  0  0  0  0  0  0  0  0  0  0  0
  193.4350  171.5200  143.0200 C   0  0  2  0  0  3  0  0  0  0  0  0
  191.7430  176.4990  146.0900 C   0  0  0  0  0  0  0  0  0  0  0  0
  193.3480  174.6620  145.7090 C   0  0  0  0  0  2  0  0  0  0  0  0
  194.1840  176.8720  146.5290 C   0  0  0  0  0  2  0  0  0  0  0  0
  194.9830  177.0540  145.2400 C   0  0  0  0  0  2  0  0  0  0  0  0
  190.8960  176.3650  147.0170 O   0  0  0  0  0  0  0  0  0  0  0  0
  193.0640  175.9740  146.2630 N   0  0  0  0  0  0  0  0  0  0  0  0
  195.4070  175.6920  144.6590 C   0  0  0  0  0  2  0  0  0  0  0  0
  194.1720  174.8030  144.4270 C   0  0  1  0  0  3  0  0  0  0  0  0
  191.2800  176.9970  144.7590 C   0  0  0  0  0  2  0  0  0  0  0  0
  190.8880  175.8380  143.8650 C   0  0  0  0  0  2  0  0  0  0  0  0
  189.0220  174.5200  143.2040 C   0  0  0  0  0  0  0  0  0  0  0  0
  188.5350  175.9440  143.4940 N   0  0  0  0  0  0  0  0  0  0  0  0
  189.5220  175.2990  144.2440 C   0  0  2  0  0  3  0  0  0  0  0  0
  188.9920  173.4600  142.5150 O   0  0  0  0  0  0  0  0  0  0  0  0
  186.3910  176.9390  143.8920 N   0  0  0  0  0  0  0  0  0  0  0  0
  187.6540  177.0540  143.1680 C   0  0  2  0  0  3  0  0  0  0  0  0
  185.5650  177.5290  141.7180 C   0  0  2  0  0  3  0  0  0  0  0  0
  185.4500  177.8080  143.2000 C   0  0  0  0  0  2  0  0  0  0  0  0
  187.2850  177.0640  141.3840 S   0  0  0  0  0  0  0  0  0  0  0  0
  186.1750  176.3520  146.1600 O   0  0  0  0  0  1  0  0  0  0  0  0
  186.5630  177.3690  145.2860 C   0  0  2  0  0  3  0  0  0  0  0  0
  185.8190  178.5910  145.6010 N   0  0  0  0  0  2  0  0  0  0  0  0
  186.1080  179.2790  147.7670 C   0  0  0  0  0  1  0  0  0  0  0  0
  185.3030  178.4480  146.8940 N   0  0  0  0  0  0  0  0  0  0  0  0
  184.0050  178.9780  146.8870 N   0  0  0  0  0  1  0  0  0  0  0  0
  185.2350  178.6740  140.9930 O   0  0  0  0  0  0  0  0  0  0  0  0
  182.8870  178.2970  140.9220 C   0  0  0  0  0  1  0  0  0  0  0  0
  184.1910  178.2710  140.1530 C   0  0  0  0  0  2  0  0  0  0  0  0
  191.9790  169.9900  142.6070 O   0  0  0  0  0  1  0  0  0  0  0  0
  192.0660  171.2360  143.0230 O   0  0  0  0  0  0  0  0  0  0  0  0
  192.7130  173.2980  141.2780 C   0  0  1  0  0  3  0  0  0  0  0  0
  193.2450  174.6340  140.7420 C   0  0  0  0  0  1  0  0  0  0  0  0
  190.7510  173.3990  139.7750 C   0  0  0  0  0  2  0  0  0  0  0  0
  191.9290  172.5420  140.1930 C   0  0  1  0  0  3  0  0  0  0  0  0
  191.9530  173.3120  138.8640 C   0  0  1  0  0  3  0  0  0  0  0  0
  191.5570  172.4790  137.6270 C   0  0  1  0  0  3  0  0  0  0  0  0
  189.5690  173.4120  134.7370 N   0  0  0  0  0  0  0  0  0  0  0  0
  190.6510  172.7430  135.2460 O   0  0  0  0  0  0  0  0  0  0  0  0
  190.2230  174.5240  136.6840 C   0  0  1  0  0  3  0  0  0  0  0  0
  191.6740  174.7830  136.2650 C   0  0  0  0  0  2  0  0  0  0  0  0
  189.3160  174.4230  135.4920 C   0  0  0  0  0  0  0  0  0  0  0  0
  191.1690  173.3590  136.4130 C   0  0  1  0  0  0  0  0  0  0  0  0
  187.4840  175.8810  136.2440 C   0  0  0  0  0  1  0  0  0  0  0  0
  188.2700  175.2970  135.2110 O   0  0  0  0  0  0  0  0  0  0  0  0
  192.6470  171.4320  137.2830 C   0  0  0  0  0  2  0  0  0  0  0  0
  193.1880  171.2890  134.5900 O   0  0  0  0  0  0  0  0  0  0  0  0
  195.4350  171.7650  134.7730 N   0  0  0  0  0  1  0  0  0  0  0  0
  193.8640  172.0260  136.7110 N   0  0  0  0  0  0  0  0  0  0  0  0
  194.1260  171.6950  135.3260 C   0  0  0  0  0  0  0  0  0  0  0  0
  196.5430  174.5330  138.8650 C   0  0  0  0  0  3  0  0  0  0  0  0
  196.4030  173.2270  139.2070 N   0  0  0  0  0  0  0  0  0  0  0  0
  195.5130  172.4100  138.5840 C   0  0  0  0  0  0  0  0  0  0  0  0
  194.8630  174.2520  137.1760 C   0  0  0  0  0  3  0  0  0  0  0  0
  194.7330  172.8920  137.4990 C   0  0  0  0  0  0  0  0  0  0  0  0
  195.7610  175.0720  137.8480 C   0  0  0  0  0  3  0  0  0  0  0  0
  195.4110  171.1380  139.0340 F   0  0  0  0  0  0  0  0  0  0  0  0
  1  5  1  0  0  0  0
  3  2  2  0  0  0  0
  4 37  1  1  0  0  0
  4  1  1  0  0  0  0
  4  6  1  0  0  0  0
  5  3  1  0  0  0  0
  6 36  1  6  0  0  0
  6  3  1  0  0  0  0
  7 12  1  0  0  0  0
  7 11  2  0  0  0  0
  8 12  1  0  0  0  0
 10  9  1  0  0  0  0
 12  9  1  0  0  0  0
 13 10  1  0  0  0  0
 14  5  1  1  0  0  0
 14 13  1  0  0  0  0
 14  8  1  0  0  0  0
 15  7  1  0  0  0  0
 16 15  1  0  0  0  0
 17 18  1  0  0  0  0
 17 19  1  0  0  0  0
 18 19  1  0  0  0  0
 19 16  1  6  0  0  0
 20 17  2  0  0  0  0
 21 27  1  0  0  0  0
 22 18  1  6  0  0  0
 22 21  1  0  0  0  0
 23 32  1  6  0  0  0
 23 24  1  0  0  0  0
 24 21  1  0  0  0  0
 25 23  1  0  0  0  0
 25 22  1  0  0  0  0
 27 28  1  0  0  0  0
 27 26  1  1  0  0  0
 28 30  1  0  0  0  0
 30 29  1  0  0  0  0
 31 30  1  0  0  0  0
 34 33  1  0  0  0  0
 34 32  1  0  0  0  0
 35 36  1  0  0  0  0
 37 38  1  6  0  0  0
 39 40  1  0  0  0  0
 40 37  1  1  0  0  0
 41 42  1  6  0  0  0
 41 39  1  0  0  0  0
 41 40  1  0  0  0  0
 42 51  1  6  0  0  0
 43 44  1  0  0  0  0
 43 47  2  0  0  0  0
 44 48  1  0  0  0  0
 45 46  1  6  0  0  0
 46 48  1  0  0  0  0
 47 45  1  0  0  0  0
 48 45  1  0  0  0  0
 48 42  1  1  0  0  0
 50 47  1  0  0  0  0
 50 49  1  0  0  0  0
 52 55  2  0  0  0  0
 53 55  1  0  0  0  0
 54 51  1  0  0  0  0
 54 60  1  0  0  0  0
 55 54  1  0  0  0  0
 56 57  1  0  0  0  0
 58 62  1  0  0  0  0
 58 57  2  0  0  0  0
 59 60  2  0  0  0  0
 59 61  1  0  0  0  0
 60 58  1  0  0  0  0
 61 56  2  0  0  0  0
M  END
>  <MODEL>
8

>  <REMARK>
 VINA RESULT:      -4.6      3.235      8.658
  Name = 
  19 active torsions:
  status: ('A' for Active; 'I' for Inactive)
    1  A    between atoms: O_2  and  C_22
    2  A    between atoms: O_2  and  C_54
    3  A    between atoms: C_4  and  C_29
    4  A    between atoms: N_9  and  C_45
    5  A    between atoms: C_10  and  C_29
    6  A    between atoms: C_10  and  C_30
    7  A    between atoms: C_13  and  C_34
    8  A    between atoms: C_13  and  C_42
    9  A    between atoms: C_14  and  N_20
   10  A    between atoms: C_25  and  N_36
   11  A    between atoms: O_26  and  C_56
   12  A    between atoms: C_28  and  C_50
   13  A    between atoms: C_28  and  C_52
   14  A    between atoms: C_28  and  C_61
   15  A    between atoms: N_36  and  C_52
   16  A    between atoms: N_44  and  C_58
   17  A    between atoms: C_45  and  N_51
   18  A    between atoms: N_51  and  N_55
   19  A    between atoms: C_57  and  O_60
                            x       y       z     vdW  Elec       q    Type
                         _______ _______ _______ _____ _____    ______ ____

>  <TORSDO>
F 19

$$$$
=
 OpenBabel11062423043D

 62 69  0  0  1  0  0  0  0  0999 V2000
  195.0990  173.2120  142.7670 C   0  0  0  0  0  2  0  0  0  0  0  0
  193.7570  171.9360  145.7470 O   0  0  0  0  0  0  0  0  0  0  0  0
  194.0320  172.2150  144.5400 C   0  0  0  0  0  0  0  0  0  0  0  0
  194.0880  172.2090  142.1730 C   0  0  1  0  0  3  0  0  0  0  0  0
  194.7100  173.3970  144.1610 N   0  0  0  0  0  0  0  0  0  0  0  0
  193.7170  171.3310  143.3930 C   0  0  2  0  0  3  0  0  0  0  0  0
  192.5560  176.3540  147.0320 C   0  0  0  0  0  0  0  0  0  0  0  0
  194.2330  174.7830  146.1280 C   0  0  0  0  0  2  0  0  0  0  0  0
  194.7020  177.2400  146.0820 C   0  0  0  0  0  2  0  0  0  0  0  0
  194.7140  177.2150  144.5550 C   0  0  0  0  0  2  0  0  0  0  0  0
  192.3210  176.3230  148.2720 O   0  0  0  0  0  0  0  0  0  0  0  0
  193.8890  176.1260  146.5630 N   0  0  0  0  0  0  0  0  0  0  0  0
  195.1750  175.8420  144.0320 C   0  0  0  0  0  2  0  0  0  0  0  0
  194.2810  174.7250  144.5990 C   0  0  1  0  0  3  0  0  0  0  0  0
  191.4030  176.4020  146.0820 C   0  0  0  0  0  2  0  0  0  0  0  0
  190.1050  176.1100  146.8060 C   0  0  0  0  0  2  0  0  0  0  0  0
  189.8130  174.8920  144.7840 C   0  0  0  0  0  0  0  0  0  0  0  0
  188.5280  175.6770  145.0700 N   0  0  0  0  0  0  0  0  0  0  0  0
  189.2950  175.0640  146.0640 C   0  0  2  0  0  3  0  0  0  0  0  0
  190.6840  174.4520  143.9800 O   0  0  0  0  0  0  0  0  0  0  0  0
  187.8400  177.7190  144.0220 N   0  0  0  0  0  0  0  0  0  0  0  0
  187.3960  176.4430  144.5750 C   0  0  2  0  0  3  0  0  0  0  0  0
  185.9410  178.4600  145.2880 C   0  0  2  0  0  3  0  0  0  0  0  0
  186.6560  178.5640  143.9590 C   0  0  0  0  0  2  0  0  0  0  0  0
  186.2280  176.7890  145.9300 S   0  0  0  0  0  0  0  0  0  0  0  0
  189.6940  178.0570  142.6130 O   0  0  0  0  0  1  0  0  0  0  0  0
  188.4070  177.5230  142.6800 C   0  0  2  0  0  3  0  0  0  0  0  0
  187.5800  178.1080  141.6220 N   0  0  0  0  0  2  0  0  0  0  0  0
  186.5950  177.5090  139.6420 C   0  0  0  0  0  1  0  0  0  0  0  0
  186.9070  177.0590  140.9850 N   0  0  0  0  0  0  0  0  0  0  0  0
  187.8090  175.9920  140.8730 N   0  0  0  0  0  1  0  0  0  0  0  0
  184.5740  178.6700  145.1090 O   0  0  0  0  0  0  0  0  0  0  0  0
  183.3990  178.6660  143.0410 C   0  0  0  0  0  1  0  0  0  0  0  0
  184.4760  179.3250  143.8770 C   0  0  0  0  0  2  0  0  0  0  0  0
  192.3460  169.6980  143.0950 O   0  0  0  0  0  1  0  0  0  0  0  0
  192.3650  170.9720  143.4250 O   0  0  0  0  0  0  0  0  0  0  0  0
  192.8870  172.9610  141.5570 C   0  0  1  0  0  3  0  0  0  0  0  0
  193.3080  174.3600  141.0880 C   0  0  0  0  0  1  0  0  0  0  0  0
  190.9550  172.8670  140.0160 C   0  0  0  0  0  2  0  0  0  0  0  0
  192.2400  172.1680  140.4100 C   0  0  1  0  0  3  0  0  0  0  0  0
  192.1710  173.0140  139.1300 C   0  0  1  0  0  3  0  0  0  0  0  0
  191.9210  172.2110  137.8370 C   0  0  1  0  0  3  0  0  0  0  0  0
  190.0530  173.1040  134.8550 N   0  0  0  0  0  0  0  0  0  0  0  0
  191.1570  172.5110  135.4110 O   0  0  0  0  0  0  0  0  0  0  0  0
  190.4660  174.1700  136.8920 C   0  0  1  0  0  3  0  0  0  0  0  0
  191.9110  174.5820  136.5910 C   0  0  0  0  0  2  0  0  0  0  0  0
  189.6550  174.0480  135.6340 C   0  0  0  0  0  0  0  0  0  0  0  0
  191.5350  173.1120  136.6390 C   0  0  1  0  0  0  0  0  0  0  0  0
  188.6970  176.1120  134.7030 C   0  0  0  0  0  1  0  0  0  0  0  0
  188.5530  174.8360  135.3170 O   0  0  0  0  0  0  0  0  0  0  0  0
  193.1130  171.2730  137.5200 C   0  0  0  0  0  2  0  0  0  0  0  0
  193.7960  171.2330  134.8550 O   0  0  0  0  0  0  0  0  0  0  0  0
  195.9790  171.9070  135.1600 N   0  0  0  0  0  1  0  0  0  0  0  0
  194.2970  171.9850  137.0200 N   0  0  0  0  0  0  0  0  0  0  0  0
  194.6560  171.7070  135.6450 C   0  0  0  0  0  0  0  0  0  0  0  0
  196.6260  174.6820  139.3440 C   0  0  0  0  0  3  0  0  0  0  0  0
  196.5940  173.3620  139.6560 N   0  0  0  0  0  0  0  0  0  0  0  0
  195.8150  172.4800  138.9770 C   0  0  0  0  0  0  0  0  0  0  0  0
  195.0600  174.2840  137.5710 C   0  0  0  0  0  3  0  0  0  0  0  0
  195.0440  172.9110  137.8640 C   0  0  0  0  0  0  0  0  0  0  0  0
  195.8440  175.1690  138.3010 C   0  0  0  0  0  3  0  0  0  0  0  0
  195.8110  171.1940  139.3990 F   0  0  0  0  0  0  0  0  0  0  0  0
  1  5  1  0  0  0  0
  3  2  2  0  0  0  0
  4 37  1  1  0  0  0
  4  1  1  0  0  0  0
  4  6  1  0  0  0  0
  5  3  1  0  0  0  0
  5 14  1  0  0  0  0
  6 36  1  6  0  0  0
  6  3  1  0  0  0  0
  7 11  2  0  0  0  0
  8 12  1  0  0  0  0
  9 12  1  0  0  0  0
 10  9  1  0  0  0  0
 12  7  1  0  0  0  0
 13 10  1  0  0  0  0
 14 13  1  1  0  0  0
 14  8  1  0  0  0  0
 15 16  1  0  0  0  0
 15  7  1  0  0  0  0
 17 18  1  0  0  0  0
 17 19  1  0  0  0  0
 18 19  1  0  0  0  0
 19 16  1  1  0  0  0
 20 17  2  0  0  0  0
 21 22  1  0  0  0  0
 22 18  1  1  0  0  0
 22 25  1  0  0  0  0
 23 32  1  6  0  0  0
 23 25  1  0  0  0  0
 24 21  1  0  0  0  0
 24 23  1  0  0  0  0
 27 26  1  1  0  0  0
 27 21  1  0  0  0  0
 28 27  1  0  0  0  0
 29 30  1  0  0  0  0
 30 28  1  0  0  0  0
 31 30  1  0  0  0  0
 33 34  1  0  0  0  0
 34 32  1  0  0  0  0
 35 36  1  0  0  0  0
 37 38  1  6  0  0  0
 39 40  1  0  0  0  0
 40 37  1  1  0  0  0
 41 42  1  6  0  0  0
 41 39  1  0  0  0  0
 41 40  1  0  0  0  0
 42 51  1  6  0  0  0
 43 44  1  0  0  0  0
 43 47  2  0  0  0  0
 44 48  1  0  0  0  0
 45 46  1  6  0  0  0
 46 48  1  0  0  0  0
 47 45  1  0  0  0  0
 48 45  1  0  0  0  0
 48 42  1  1  0  0  0
 49 50  1  0  0  0  0
 50 47  1  0  0  0  0
 52 55  2  0  0  0  0
 53 55  1  0  0  0  0
 54 51  1  0  0  0  0
 54 60  1  0  0  0  0
 55 54  1  0  0  0  0
 56 57  1  0  0  0  0
 58 62  1  0  0  0  0
 58 57  2  0  0  0  0
 59 60  2  0  0  0  0
 59 61  1  0  0  0  0
 60 58  1  0  0  0  0
 61 56  2  0  0  0  0
M  END
>  <MODEL>
9

>  <REMARK>
 VINA RESULT:      -4.6      3.360      8.330
  Name = 
  19 active torsions:
  status: ('A' for Active; 'I' for Inactive)
    1  A    between atoms: O_2  and  C_22
    2  A    between atoms: O_2  and  C_54
    3  A    between atoms: C_4  and  C_29
    4  A    between atoms: N_9  and  C_45
    5  A    between atoms: C_10  and  C_29
    6  A    between atoms: C_10  and  C_30
    7  A    between atoms: C_13  and  C_34
    8  A    between atoms: C_13  and  C_42
    9  A    between atoms: C_14  and  N_20
   10  A    between atoms: C_25  and  N_36
   11  A    between atoms: O_26  and  C_56
   12  A    between atoms: C_28  and  C_50
   13  A    between atoms: C_28  and  C_52
   14  A    between atoms: C_28  and  C_61
   15  A    between atoms: N_36  and  C_52
   16  A    between atoms: N_44  and  C_58
   17  A    between atoms: C_45  and  N_51
   18  A    between atoms: N_51  and  N_55
   19  A    between atoms: C_57  and  O_60
                            x       y       z     vdW  Elec       q    Type
                         _______ _______ _______ _____ _____    ______ ____

>  <TORSDO>
F 19

$$$$
