=
 OpenBabel11062421143D

 33 37  0  0  1  0  0  0  0  0999 V2000
  189.5140  172.3140  140.0730 C   0  0  0  0  0  3  0  0  0  0  0  0
  193.7290  174.9330  139.8010 N   0  0  0  0  0  2  0  0  0  0  0  0
  188.7900  176.4280  141.7210 N   0  0  0  0  0  0  0  0  0  0  0  0
  190.8860  174.3340  143.8180 C   0  0  2  0  0  3  0  0  0  0  0  0
  193.2430  173.9300  143.2780 C   0  0  0  0  0  0  0  0  0  0  0  0
  190.6270  175.0300  142.4880 C   0  0  1  0  0  3  0  0  0  0  0  0
  191.7430  172.8610  139.5900 N   0  0  0  0  0  0  0  0  0  0  0  0
  190.6400  174.0090  141.3740 C   0  0  0  0  0  0  0  0  0  0  0  0
  190.6400  172.1560  139.3350 N   0  0  0  0  0  0  0  0  0  0  0  0
  189.3180  175.7060  142.6680 C   0  0  0  0  0  0  0  0  0  0  0  0
  193.0730  174.4950  140.8240 C   0  0  0  0  0  0  0  0  0  0  0  0
  189.8070  174.7660  144.8090 C   0  0  0  0  0  3  0  0  0  0  0  0
  188.7430  175.5160  144.0250 C   0  0  0  0  0  3  0  0  0  0  0  0
  192.3310  174.5200  144.3160 C   0  0  1  0  0  3  0  0  0  0  0  0
  191.8010  173.7700  140.6030 C   0  0  0  0  0  0  0  0  0  0  0  0
  193.5930  172.7230  143.3670 O   0  0  0  0  0  0  0  0  0  0  0  0
  193.6190  174.6990  142.1310 N   0  0  0  0  0  2  0  0  0  0  0  0
  189.4990  173.2420  141.1080 C   0  0  0  0  0  3  0  0  0  0  0  0
  185.4920  177.9230  140.6900 C   0  0  0  0  0  3  0  0  0  0  0  0
  187.1990  177.8470  142.8980 C   0  0  0  0  0  3  0  0  0  0  0  0
  185.1510  178.6080  141.8580 C   0  0  0  0  0  3  0  0  0  0  0  0
  187.5510  177.1550  141.7330 C   0  0  0  0  0  0  0  0  0  0  0  0
  186.6870  177.2030  140.6270 C   0  0  0  0  0  3  0  0  0  0  0  0
  186.0100  178.5890  142.9650 C   0  0  0  0  0  0  0  0  0  0  0  0
  184.3480  178.8920  144.6300 F   0  0  0  0  0  0  0  0  0  0  0  0
  185.6170  179.2820  144.2370 C   0  0  0  0  0  0  0  0  0  0  0  0
  186.5080  178.9690  145.2500 F   0  0  0  0  0  0  0  0  0  0  0  0
  185.6260  180.6490  144.0340 F   0  0  0  0  0  0  0  0  0  0  0  0
  194.7460  175.8740  145.6940 N   0  0  0  0  0  2  0  0  0  0  0  0
  194.0010  176.5240  146.7560 C   0  0  0  0  0  2  0  0  0  0  0  0
  192.2450  176.4130  146.3550 S   0  0  0  0  0  0  0  0  0  0  0  0
  192.6920  175.9890  144.6460 C   0  0  1  0  0  3  0  0  0  0  0  0
  194.1230  176.2370  144.4900 N   0  0  0  0  0  2  0  0  0  0  0  0
  1 18  1  0  0  0  0
  2 11  2  0  0  0  0
  3 22  1  0  0  0  0
  3 10  2  0  0  0  0
  4 14  1  0  0  0  0
  4 12  1  1  0  0  0
  5 16  2  0  0  0  0
  6  8  1  6  0  0  0
  6 10  1  0  0  0  0
  6  4  1  0  0  0  0
  7 15  2  0  0  0  0
  9  7  1  0  0  0  0
  9  1  2  0  0  0  0
 10 13  1  0  0  0  0
 11 17  1  0  0  0  0
 13 12  2  0  0  0  0
 14  5  1  6  0  0  0
 14 32  1  0  0  0  0
 15 11  1  0  0  0  0
 15  8  1  0  0  0  0
 17  5  1  0  0  0  0
 18  8  2  0  0  0  0
 19 21  1  0  0  0  0
 20 24  1  0  0  0  0
 21 24  2  0  0  0  0
 22 20  2  0  0  0  0
 23 19  2  0  0  0  0
 23 22  1  0  0  0  0
 24 26  1  0  0  0  0
 26 25  1  0  0  0  0
 26 27  1  0  0  0  0
 28 26  1  0  0  0  0
 29 30  1  0  0  0  0
 31 30  1  0  0  0  0
 32 33  1  1  0  0  0
 32 31  1  0  0  0  0
 33 29  1  0  0  0  0
M  END
>  <MODEL>
1

>  <REMARK>
 VINA RESULT:      -8.0      0.000      0.000
  Name = 
  3 active torsions:
  status: ('A' for Active; 'I' for Inactive)
    1  A    between atoms: N_5  and  C_18
    2  A    between atoms: C_16  and  C_32
    3  A    between atoms: C_24  and  C_27
                            x       y       z     vdW  Elec       q    Type
                         _______ _______ _______ _____ _____    ______ ____

>  <TORSDO>
F 3

$$$$
=
 OpenBabel11062421143D

 33 37  0  0  1  0  0  0  0  0999 V2000
  187.8020  172.6220  141.6150 C   0  0  0  0  0  3  0  0  0  0  0  0
  192.1360  174.4460  140.0040 N   0  0  0  0  0  2  0  0  0  0  0  0
  188.4090  176.7160  143.3610 N   0  0  0  0  0  0  0  0  0  0  0  0
  190.6220  174.1780  144.7170 C   0  0  2  0  0  3  0  0  0  0  0  0
  192.5760  173.3800  143.4680 C   0  0  0  0  0  0  0  0  0  0  0  0
  190.0980  174.9720  143.5270 C   0  0  1  0  0  3  0  0  0  0  0  0
  189.8320  172.7800  140.4510 N   0  0  0  0  0  0  0  0  0  0  0  0
  189.5730  174.0210  142.4770 C   0  0  0  0  0  0  0  0  0  0  0  0
  188.5930  172.3000  140.5620 N   0  0  0  0  0  0  0  0  0  0  0  0
  189.0600  175.8650  144.1030 C   0  0  0  0  0  0  0  0  0  0  0  0
  191.7600  174.0840  141.1850 C   0  0  0  0  0  0  0  0  0  0  0  0
  190.0050  174.7500  145.9910 C   0  0  0  0  0  3  0  0  0  0  0  0
  188.9100  175.7170  145.5730 C   0  0  0  0  0  3  0  0  0  0  0  0
  192.1590  174.0750  144.7330 C   0  0  1  0  0  3  0  0  0  0  0  0
  190.3710  173.6140  141.3830 C   0  0  0  0  0  0  0  0  0  0  0  0
  192.7040  172.1270  143.4560 O   0  0  0  0  0  0  0  0  0  0  0  0
  192.7130  174.1230  142.2530 N   0  0  0  0  0  2  0  0  0  0  0  0
  188.2830  173.4870  142.5920 C   0  0  0  0  0  3  0  0  0  0  0  0
  185.7760  179.4040  143.2730 C   0  0  0  0  0  3  0  0  0  0  0  0
  187.0320  177.7120  145.1040 C   0  0  0  0  0  3  0  0  0  0  0  0
  185.4230  179.4540  144.6230 C   0  0  0  0  0  3  0  0  0  0  0  0
  187.3940  177.6540  143.7540 C   0  0  0  0  0  0  0  0  0  0  0  0
  186.7580  178.5110  142.8410 C   0  0  0  0  0  3  0  0  0  0  0  0
  186.0600  178.6190  145.5520 C   0  0  0  0  0  0  0  0  0  0  0  0
  186.0480  179.8110  147.6030 F   0  0  0  0  0  0  0  0  0  0  0  0
  185.6410  178.6360  146.9930 C   0  0  0  0  0  0  0  0  0  0  0  0
  184.2640  178.5400  147.0950 F   0  0  0  0  0  0  0  0  0  0  0  0
  186.2190  177.5650  147.6490 F   0  0  0  0  0  0  0  0  0  0  0  0
  195.0970  174.9040  145.2230 N   0  0  0  0  0  2  0  0  0  0  0  0
  194.8760  175.6130  146.4680 C   0  0  0  0  0  2  0  0  0  0  0  0
  193.0970  175.8350  146.6750 S   0  0  0  0  0  0  0  0  0  0  0  0
  192.8710  175.4370  144.9170 C   0  0  1  0  0  3  0  0  0  0  0  0
  194.1920  175.4380  144.2920 N   0  0  0  0  0  2  0  0  0  0  0  0
  1 18  1  0  0  0  0
  2 11  2  0  0  0  0
  3 22  1  0  0  0  0
  3 10  2  0  0  0  0
  4 14  1  0  0  0  0
  4 12  1  1  0  0  0
  6  8  1  6  0  0  0
  6 10  1  0  0  0  0
  6  4  1  0  0  0  0
  7  9  1  0  0  0  0
  7 15  2  0  0  0  0
  8 18  2  0  0  0  0
  9  1  2  0  0  0  0
 10 13  1  0  0  0  0
 11 15  1  0  0  0  0
 11 17  1  0  0  0  0
 13 12  2  0  0  0  0
 14  5  1  6  0  0  0
 14 32  1  0  0  0  0
 15  8  1  0  0  0  0
 16  5  2  0  0  0  0
 17  5  1  0  0  0  0
 19 21  1  0  0  0  0
 20 24  1  0  0  0  0
 21 24  2  0  0  0  0
 22 20  2  0  0  0  0
 23 19  2  0  0  0  0
 23 22  1  0  0  0  0
 24 26  1  0  0  0  0
 26 27  1  0  0  0  0
 26 25  1  0  0  0  0
 26 28  1  0  0  0  0
 29 30  1  0  0  0  0
 30 31  1  0  0  0  0
 32 33  1  6  0  0  0
 32 31  1  0  0  0  0
 33 29  1  0  0  0  0
M  END
>  <MODEL>
2

>  <REMARK>
 VINA RESULT:      -7.9      1.561      2.069
  Name = 
  3 active torsions:
  status: ('A' for Active; 'I' for Inactive)
    1  A    between atoms: N_5  and  C_18
    2  A    between atoms: C_16  and  C_32
    3  A    between atoms: C_24  and  C_27
                            x       y       z     vdW  Elec       q    Type
                         _______ _______ _______ _____ _____    ______ ____

>  <TORSDO>
F 3

$$$$
=
 OpenBabel11062421143D

 33 37  0  0  1  0  0  0  0  0999 V2000
  186.0790  178.2720  146.0780 C   0  0  0  0  0  3  0  0  0  0  0  0
  188.2380  174.1750  147.8840 N   0  0  0  0  0  2  0  0  0  0  0  0
  188.1010  176.0800  142.7200 N   0  0  0  0  0  0  0  0  0  0  0  0
  190.3880  177.6420  145.0670 C   0  0  2  0  0  3  0  0  0  0  0  0
  190.8500  176.6500  147.2610 C   0  0  0  0  0  0  0  0  0  0  0  0
  189.2640  176.6550  144.7780 C   0  0  1  0  0  3  0  0  0  0  0  0
  186.7420  176.6180  147.6030 N   0  0  0  0  0  0  0  0  0  0  0  0
  188.0730  176.9780  145.6510 C   0  0  0  0  0  0  0  0  0  0  0  0
  185.8870  177.5670  147.2200 N   0  0  0  0  0  0  0  0  0  0  0  0
  189.0010  176.8030  143.3240 C   0  0  0  0  0  0  0  0  0  0  0  0
  188.7520  175.2510  147.3860 C   0  0  0  0  0  0  0  0  0  0  0  0
  190.8800  178.2170  143.7400 C   0  0  0  0  0  3  0  0  0  0  0  0
  189.8970  177.7870  142.6640 C   0  0  0  0  0  3  0  0  0  0  0  0
  191.4900  177.0440  145.9600 C   0  0  1  0  0  3  0  0  0  0  0  0
  187.8500  176.3070  146.8750 C   0  0  0  0  0  0  0  0  0  0  0  0
  190.8170  177.4700  148.2150 O   0  0  0  0  0  0  0  0  0  0  0  0
  190.1770  175.3920  147.3780 N   0  0  0  0  0  2  0  0  0  0  0  0
  187.1790  177.9890  145.2770 C   0  0  0  0  0  3  0  0  0  0  0  0
  186.5960  177.0430  139.4060 C   0  0  0  0  0  3  0  0  0  0  0  0
  188.1970  175.0450  140.5180 C   0  0  0  0  0  3  0  0  0  0  0  0
  187.0660  176.0020  138.6050 C   0  0  0  0  0  3  0  0  0  0  0  0
  187.7320  176.0850  141.3310 C   0  0  0  0  0  0  0  0  0  0  0  0
  186.9240  177.0830  140.7630 C   0  0  0  0  0  3  0  0  0  0  0  0
  187.8580  174.9860  139.1580 C   0  0  0  0  0  0  0  0  0  0  0  0
  188.1420  174.1630  136.9510 F   0  0  0  0  0  0  0  0  0  0  0  0
  188.4060  173.8960  138.2840 C   0  0  0  0  0  0  0  0  0  0  0  0
  189.7770  173.7910  138.4500 F   0  0  0  0  0  0  0  0  0  0  0  0
  187.8160  172.6940  138.6280 F   0  0  0  0  0  0  0  0  0  0  0  0
  194.2360  175.7200  146.4780 N   0  0  0  0  0  2  0  0  0  0  0  0
  194.7900  175.9370  145.1560 C   0  0  0  0  0  2  0  0  0  0  0  0
  193.4480  176.4620  144.0680 S   0  0  0  0  0  0  0  0  0  0  0  0
  192.2540  175.8690  145.3030 C   0  0  1  0  0  3  0  0  0  0  0  0
  192.9950  175.0910  146.2940 N   0  0  0  0  0  2  0  0  0  0  0  0
  1  9  1  0  0  0  0
  3 10  2  0  0  0  0
  4 12  1  6  0  0  0
  4 14  1  0  0  0  0
  5 17  1  0  0  0  0
  5 16  2  0  0  0  0
  6 10  1  6  0  0  0
  6  4  1  0  0  0  0
  6  8  1  0  0  0  0
  8 15  2  0  0  0  0
  9  7  2  0  0  0  0
 11  2  2  0  0  0  0
 13 10  1  0  0  0  0
 13 12  2  0  0  0  0
 14  5  1  1  0  0  0
 15 11  1  0  0  0  0
 15  7  1  0  0  0  0
 17 11  1  0  0  0  0
 18  8  1  0  0  0  0
 18  1  2  0  0  0  0
 19 23  1  0  0  0  0
 20 22  1  0  0  0  0
 21 24  1  0  0  0  0
 21 19  2  0  0  0  0
 22  3  1  0  0  0  0
 23 22  2  0  0  0  0
 24 20  2  0  0  0  0
 25 26  1  0  0  0  0
 26 27  1  0  0  0  0
 26 28  1  0  0  0  0
 26 24  1  0  0  0  0
 30 29  1  0  0  0  0
 31 30  1  0  0  0  0
 32 31  1  6  0  0  0
 32 14  1  0  0  0  0
 32 33  1  0  0  0  0
 33 29  1  0  0  0  0
M  END
>  <MODEL>
3

>  <REMARK>
 VINA RESULT:      -7.9      4.202      6.076
  Name = 
  3 active torsions:
  status: ('A' for Active; 'I' for Inactive)
    1  A    between atoms: N_5  and  C_18
    2  A    between atoms: C_16  and  C_32
    3  A    between atoms: C_24  and  C_27
                            x       y       z     vdW  Elec       q    Type
                         _______ _______ _______ _____ _____    ______ ____

>  <TORSDO>
F 3

$$$$
=
 OpenBabel11062421143D

 33 37  0  0  1  0  0  0  0  0999 V2000
  194.1440  177.1350  145.8110 C   0  0  0  0  0  3  0  0  0  0  0  0
  193.2450  172.2700  145.3270 N   0  0  0  0  0  2  0  0  0  0  0  0
  189.7120  176.4360  146.0170 N   0  0  0  0  0  0  0  0  0  0  0  0
  191.1460  175.9280  142.7210 C   0  0  2  0  0  3  0  0  0  0  0  0
  192.4020  173.8950  142.1680 C   0  0  0  0  0  0  0  0  0  0  0  0
  191.0780  175.5680  144.1990 C   0  0  1  0  0  3  0  0  0  0  0  0
  194.5300  174.8340  145.5720 N   0  0  0  0  0  0  0  0  0  0  0  0
  192.4450  175.7310  144.8220 C   0  0  0  0  0  0  0  0  0  0  0  0
  194.9280  176.0420  145.9750 N   0  0  0  0  0  0  0  0  0  0  0  0
  190.0510  176.4840  144.7590 C   0  0  0  0  0  0  0  0  0  0  0  0
  192.9730  173.2600  144.5440 C   0  0  0  0  0  0  0  0  0  0  0  0
  190.0290  176.9220  142.4120 C   0  0  0  0  0  3  0  0  0  0  0  0
  189.4410  177.3740  143.7380 C   0  0  0  0  0  3  0  0  0  0  0  0
  191.1770  174.6880  141.8080 C   0  0  1  0  0  3  0  0  0  0  0  0
  193.3230  174.6330  144.9740 C   0  0  0  0  0  0  0  0  0  0  0  0
  193.4840  174.1070  141.5610 O   0  0  0  0  0  0  0  0  0  0  0  0
  192.3700  172.9880  143.2740 N   0  0  0  0  0  2  0  0  0  0  0  0
  192.8890  176.9950  145.2280 C   0  0  0  0  0  3  0  0  0  0  0  0
  188.0970  178.9020  148.3590 C   0  0  0  0  0  3  0  0  0  0  0  0
  187.3880  177.0690  146.3760 C   0  0  0  0  0  3  0  0  0  0  0  0
  186.7550  178.7330  148.0150 C   0  0  0  0  0  3  0  0  0  0  0  0
  188.7370  177.2300  146.7120 C   0  0  0  0  0  0  0  0  0  0  0  0
  189.0830  178.1520  147.7130 C   0  0  0  0  0  3  0  0  0  0  0  0
  186.3880  177.8030  147.0320 C   0  0  0  0  0  0  0  0  0  0  0  0
  184.1280  178.3420  147.5080 F   0  0  0  0  0  0  0  0  0  0  0  0
  184.9510  177.6600  146.6260 C   0  0  0  0  0  0  0  0  0  0  0  0
  184.7570  178.1740  145.3550 F   0  0  0  0  0  0  0  0  0  0  0  0
  184.6050  176.3220  146.6310 F   0  0  0  0  0  0  0  0  0  0  0  0
  189.9660  172.4970  139.9930 N   0  0  0  0  0  2  0  0  0  0  0  0
  188.7080  173.1650  139.7240 C   0  0  0  0  0  2  0  0  0  0  0  0
  188.5620  174.5590  140.8620 S   0  0  0  0  0  0  0  0  0  0  0  0
  189.8870  173.8350  141.8730 C   0  0  1  0  0  3  0  0  0  0  0  0
  190.1190  172.4760  141.3880 N   0  0  0  0  0  2  0  0  0  0  0  0
  1  9  1  0  0  0  0
  3 22  1  0  0  0  0
  4 12  1  6  0  0  0
  4  6  1  0  0  0  0
  5 17  1  0  0  0  0
  6 10  1  1  0  0  0
  6  8  1  0  0  0  0
  7  9  2  0  0  0  0
  8 15  2  0  0  0  0
  8 18  1  0  0  0  0
 10  3  2  0  0  0  0
 11 15  1  0  0  0  0
 11  2  2  0  0  0  0
 12 13  2  0  0  0  0
 13 10  1  0  0  0  0
 14 32  1  0  0  0  0
 14  5  1  1  0  0  0
 14  4  1  0  0  0  0
 15  7  1  0  0  0  0
 16  5  2  0  0  0  0
 17 11  1  0  0  0  0
 18  1  2  0  0  0  0
 20 22  2  0  0  0  0
 20 24  1  0  0  0  0
 21 19  1  0  0  0  0
 22 23  1  0  0  0  0
 23 19  2  0  0  0  0
 24 21  2  0  0  0  0
 26 28  1  0  0  0  0
 26 24  1  0  0  0  0
 26 25  1  0  0  0  0
 27 26  1  0  0  0  0
 29 33  1  0  0  0  0
 30 29  1  0  0  0  0
 30 31  1  0  0  0  0
 32 31  1  6  0  0  0
 33 32  1  0  0  0  0
M  END
>  <MODEL>
4

>  <REMARK>
 VINA RESULT:      -7.8      2.710      5.326
  Name = 
  3 active torsions:
  status: ('A' for Active; 'I' for Inactive)
    1  A    between atoms: N_5  and  C_18
    2  A    between atoms: C_16  and  C_32
    3  A    between atoms: C_24  and  C_27
                            x       y       z     vdW  Elec       q    Type
                         _______ _______ _______ _____ _____    ______ ____

>  <TORSDO>
F 3

$$$$
=
 OpenBabel11062421143D

 33 37  0  0  1  0  0  0  0  0999 V2000
  185.1750  179.8650  143.8070 C   0  0  0  0  0  3  0  0  0  0  0  0
  185.1500  176.0790  147.0270 N   0  0  0  0  0  2  0  0  0  0  0  0
  187.2340  176.3380  141.9380 N   0  0  0  0  0  0  0  0  0  0  0  0
  189.0990  177.8890  144.6390 C   0  0  2  0  0  3  0  0  0  0  0  0
  188.5100  177.5080  146.9880 C   0  0  0  0  0  0  0  0  0  0  0  0
  187.8470  177.1810  144.1360 C   0  0  1  0  0  3  0  0  0  0  0  0
  184.7400  178.6250  145.7490 N   0  0  0  0  0  0  0  0  0  0  0  0
  186.6360  178.0400  144.4160 C   0  0  0  0  0  0  0  0  0  0  0  0
  184.4190  179.6030  144.9010 N   0  0  0  0  0  0  0  0  0  0  0  0
  188.1010  176.9540  142.6910 C   0  0  0  0  0  0  0  0  0  0  0  0
  186.1260  176.7910  146.5690 C   0  0  0  0  0  0  0  0  0  0  0  0
  190.1330  177.9000  143.5150 C   0  0  0  0  0  3  0  0  0  0  0  0
  189.4350  177.4370  142.2480 C   0  0  0  0  0  3  0  0  0  0  0  0
  189.6060  177.3230  145.9780 C   0  0  1  0  0  3  0  0  0  0  0  0
  185.8390  177.8410  145.5670 C   0  0  0  0  0  0  0  0  0  0  0  0
  188.4750  178.5540  147.6870 O   0  0  0  0  0  0  0  0  0  0  0  0
  187.4450  176.5560  147.0750 N   0  0  0  0  0  2  0  0  0  0  0  0
  186.2990  179.0870  143.5490 C   0  0  0  0  0  3  0  0  0  0  0  0
  186.8130  176.4440  138.1980 C   0  0  0  0  0  3  0  0  0  0  0  0
  188.0770  174.9080  140.1560 C   0  0  0  0  0  3  0  0  0  0  0  0
  187.5650  175.3270  137.8290 C   0  0  0  0  0  3  0  0  0  0  0  0
  187.3260  176.0250  140.5380 C   0  0  0  0  0  0  0  0  0  0  0  0
  186.6910  176.7890  139.5460 C   0  0  0  0  0  3  0  0  0  0  0  0
  188.1900  174.5410  138.8070 C   0  0  0  0  0  0  0  0  0  0  0  0
  188.5260  172.1950  138.9210 F   0  0  0  0  0  0  0  0  0  0  0  0
  189.0420  173.3720  138.4050 C   0  0  0  0  0  0  0  0  0  0  0  0
  189.0920  173.2660  137.0260 F   0  0  0  0  0  0  0  0  0  0  0  0
  190.3230  173.5530  138.8920 F   0  0  0  0  0  0  0  0  0  0  0  0
  191.2710  175.4980  147.8380 N   0  0  0  0  0  2  0  0  0  0  0  0
  192.3220  175.1890  146.8880 C   0  0  0  0  0  2  0  0  0  0  0  0
  191.7800  175.7400  145.2570 S   0  0  0  0  0  0  0  0  0  0  0  0
  190.0810  175.8520  145.8910 C   0  0  1  0  0  3  0  0  0  0  0  0
  190.0560  175.2030  147.2000 N   0  0  0  0  0  2  0  0  0  0  0  0
  1  9  1  0  0  0  0
  3 10  2  0  0  0  0
  4 12  1  6  0  0  0
  4 14  1  0  0  0  0
  5 17  1  0  0  0  0
  5 16  2  0  0  0  0
  6 10  1  6  0  0  0
  6  8  1  0  0  0  0
  6  4  1  0  0  0  0
  8 15  2  0  0  0  0
  9  7  2  0  0  0  0
 11  2  2  0  0  0  0
 11 17  1  0  0  0  0
 13 10  1  0  0  0  0
 13 12  2  0  0  0  0
 14  5  1  1  0  0  0
 15  7  1  0  0  0  0
 15 11  1  0  0  0  0
 18  1  2  0  0  0  0
 18  8  1  0  0  0  0
 19 23  1  0  0  0  0
 20 22  1  0  0  0  0
 21 19  2  0  0  0  0
 21 24  1  0  0  0  0
 22  3  1  0  0  0  0
 23 22  2  0  0  0  0
 24 20  2  0  0  0  0
 26 24  1  0  0  0  0
 26 28  1  0  0  0  0
 26 25  1  0  0  0  0
 27 26  1  0  0  0  0
 30 29  1  0  0  0  0
 31 30  1  0  0  0  0
 32 31  1  1  0  0  0
 32 14  1  0  0  0  0
 32 33  1  0  0  0  0
 33 29  1  0  0  0  0
M  END
>  <MODEL>
5

>  <REMARK>
 VINA RESULT:      -7.8      4.554      6.799
  Name = 
  3 active torsions:
  status: ('A' for Active; 'I' for Inactive)
    1  A    between atoms: N_5  and  C_18
    2  A    between atoms: C_16  and  C_32
    3  A    between atoms: C_24  and  C_27
                            x       y       z     vdW  Elec       q    Type
                         _______ _______ _______ _____ _____    ______ ____

>  <TORSDO>
F 3

$$$$
=
 OpenBabel11062421143D

 33 37  0  0  1  0  0  0  0  0999 V2000
  185.8180  177.3160  147.6130 C   0  0  0  0  0  3  0  0  0  0  0  0
  185.6330  180.9750  144.2540 N   0  0  0  0  0  2  0  0  0  0  0  0
  189.5900  177.2600  145.1770 N   0  0  0  0  0  0  0  0  0  0  0  0
  186.6310  176.2020  143.3600 C   0  0  2  0  0  3  0  0  0  0  0  0
  184.9890  177.8230  142.5280 C   0  0  0  0  0  0  0  0  0  0  0  0
  187.3840  177.2640  144.1500 C   0  0  1  0  0  3  0  0  0  0  0  0
  185.0350  179.1780  146.4220 N   0  0  0  0  0  0  0  0  0  0  0  0
  186.5590  177.6850  145.3440 C   0  0  0  0  0  0  0  0  0  0  0  0
  185.0750  178.4470  147.5360 N   0  0  0  0  0  0  0  0  0  0  0  0
  188.6730  176.6200  144.5080 C   0  0  0  0  0  0  0  0  0  0  0  0
  185.6120  179.6930  144.1060 C   0  0  0  0  0  0  0  0  0  0  0  0
  187.5690  175.0210  143.1190 C   0  0  0  0  0  3  0  0  0  0  0  0
  188.8050  175.2390  143.9750 C   0  0  0  0  0  3  0  0  0  0  0  0
  185.9630  176.7660  142.0920 C   0  0  1  0  0  3  0  0  0  0  0  0
  185.7300  178.8300  145.3030 C   0  0  0  0  0  0  0  0  0  0  0  0
  183.7920  177.5110  142.7630 O   0  0  0  0  0  0  0  0  0  0  0  0
  185.4440  179.1540  142.7900 N   0  0  0  0  0  2  0  0  0  0  0  0
  186.5700  176.9160  146.5140 C   0  0  0  0  0  3  0  0  0  0  0  0
  192.4540  175.9920  147.2660 C   0  0  0  0  0  3  0  0  0  0  0  0
  191.8960  176.7040  144.6250 C   0  0  0  0  0  3  0  0  0  0  0  0
  193.4530  175.9030  146.2950 C   0  0  0  0  0  3  0  0  0  0  0  0
  190.8860  176.7960  145.5900 C   0  0  0  0  0  0  0  0  0  0  0  0
  191.1780  176.4390  146.9160 C   0  0  0  0  0  3  0  0  0  0  0  0
  193.1860  176.2740  144.9700 C   0  0  0  0  0  0  0  0  0  0  0  0
  195.3530  176.8990  144.2320 F   0  0  0  0  0  0  0  0  0  0  0  0
  194.2460  176.1280  143.9170 C   0  0  0  0  0  0  0  0  0  0  0  0
  194.6430  174.8060  143.8160 F   0  0  0  0  0  0  0  0  0  0  0  0
  193.7400  176.5430  142.6990 F   0  0  0  0  0  0  0  0  0  0  0  0
  185.8460  177.1690  139.0280 N   0  0  0  0  0  2  0  0  0  0  0  0
  186.9740  176.3200  138.6950 C   0  0  0  0  0  2  0  0  0  0  0  0
  187.8520  175.9330  140.2240 S   0  0  0  0  0  0  0  0  0  0  0  0
  186.9700  177.2950  141.0410 C   0  0  1  0  0  3  0  0  0  0  0  0
  186.3000  178.0730  140.0020 N   0  0  0  0  0  2  0  0  0  0  0  0
  3 22  1  0  0  0  0
  4 12  1  6  0  0  0
  4  6  1  0  0  0  0
  5 16  2  0  0  0  0
  5 17  1  0  0  0  0
  6 10  1  1  0  0  0
  6  8  1  0  0  0  0
  7  9  2  0  0  0  0
  8 18  1  0  0  0  0
  9  1  1  0  0  0  0
 10  3  2  0  0  0  0
 11  2  2  0  0  0  0
 11 15  1  0  0  0  0
 12 13  2  0  0  0  0
 13 10  1  0  0  0  0
 14  5  1  1  0  0  0
 14  4  1  0  0  0  0
 15  8  2  0  0  0  0
 15  7  1  0  0  0  0
 17 11  1  0  0  0  0
 18  1  2  0  0  0  0
 20 24  2  0  0  0  0
 20 22  1  0  0  0  0
 21 19  2  0  0  0  0
 22 23  2  0  0  0  0
 23 19  1  0  0  0  0
 24 21  1  0  0  0  0
 26 25  1  0  0  0  0
 26 24  1  0  0  0  0
 27 26  1  0  0  0  0
 28 26  1  0  0  0  0
 29 33  1  0  0  0  0
 30 29  1  0  0  0  0
 30 31  1  0  0  0  0
 31 32  1  0  0  0  0
 32 33  1  6  0  0  0
 32 14  1  0  0  0  0
M  END
>  <MODEL>
6

>  <REMARK>
 VINA RESULT:      -7.6      4.880      8.426
  Name = 
  3 active torsions:
  status: ('A' for Active; 'I' for Inactive)
    1  A    between atoms: N_5  and  C_18
    2  A    between atoms: C_16  and  C_32
    3  A    between atoms: C_24  and  C_27
                            x       y       z     vdW  Elec       q    Type
                         _______ _______ _______ _____ _____    ______ ____

>  <TORSDO>
F 3

$$$$
=
 OpenBabel11062421143D

 33 37  0  0  1  0  0  0  0  0999 V2000
  189.2970  171.5330  143.2560 C   0  0  0  0  0  3  0  0  0  0  0  0
  191.8710  173.8370  139.6820 N   0  0  0  0  0  2  0  0  0  0  0  0
  189.2820  175.9520  144.0570 N   0  0  0  0  0  0  0  0  0  0  0  0
  192.5030  174.3580  144.5710 C   0  0  2  0  0  3  0  0  0  0  0  0
  193.9440  173.7410  142.6850 C   0  0  0  0  0  0  0  0  0  0  0  0
  191.3390  174.7150  143.6560 C   0  0  1  0  0  3  0  0  0  0  0  0
  190.5490  171.8570  141.2990 N   0  0  0  0  0  0  0  0  0  0  0  0
  190.7540  173.4510  143.0690 C   0  0  0  0  0  0  0  0  0  0  0  0
  189.6630  171.1550  142.0070 N   0  0  0  0  0  0  0  0  0  0  0  0
  190.3970  175.4650  144.5250 C   0  0  0  0  0  0  0  0  0  0  0  0
  192.1210  173.6900  140.9400 C   0  0  0  0  0  0  0  0  0  0  0  0
  192.3000  175.0630  145.9100 C   0  0  0  0  0  3  0  0  0  0  0  0
  190.8940  175.6390  145.9140 C   0  0  0  0  0  3  0  0  0  0  0  0
  193.8740  174.6040  143.9130 C   0  0  1  0  0  3  0  0  0  0  0  0
  191.1350  172.9840  141.7900 C   0  0  0  0  0  0  0  0  0  0  0  0
  194.4270  172.5810  142.7640 O   0  0  0  0  0  0  0  0  0  0  0  0
  193.3590  174.1880  141.4590 N   0  0  0  0  0  2  0  0  0  0  0  0
  189.8410  172.6880  143.8070 C   0  0  0  0  0  3  0  0  0  0  0  0
  187.0680  177.3580  146.7570 C   0  0  0  0  0  3  0  0  0  0  0  0
  187.4750  177.5840  144.0050 C   0  0  0  0  0  3  0  0  0  0  0  0
  186.2770  178.2280  146.0050 C   0  0  0  0  0  3  0  0  0  0  0  0
  188.2750  176.7080  144.7480 C   0  0  0  0  0  0  0  0  0  0  0  0
  188.0590  176.5990  146.1320 C   0  0  0  0  0  3  0  0  0  0  0  0
  186.4640  178.3360  144.6200 C   0  0  0  0  0  0  0  0  0  0  0  0
  186.1280  179.3980  142.5260 F   0  0  0  0  0  0  0  0  0  0  0  0
  185.6490  179.3110  143.8220 C   0  0  0  0  0  0  0  0  0  0  0  0
  184.3250  178.9070  143.7760 F   0  0  0  0  0  0  0  0  0  0  0  0
  185.7200  180.5580  144.4140 F   0  0  0  0  0  0  0  0  0  0  0  0
  196.2590  176.1120  142.6490 N   0  0  0  0  0  2  0  0  0  0  0  0
  196.5250  176.9940  143.7690 C   0  0  0  0  0  2  0  0  0  0  0  0
  195.1350  176.8750  144.9140 S   0  0  0  0  0  0  0  0  0  0  0  0
  194.1550  176.0940  143.5990 C   0  0  1  0  0  3  0  0  0  0  0  0
  194.8940  176.2470  142.3480 N   0  0  0  0  0  2  0  0  0  0  0  0
  1 18  1  0  0  0  0
  2 11  2  0  0  0  0
  3 10  2  0  0  0  0
  3 22  1  0  0  0  0
  4 12  1  1  0  0  0
  5 16  2  0  0  0  0
  6  8  1  1  0  0  0
  6 10  1  0  0  0  0
  6  4  1  0  0  0  0
  7 15  2  0  0  0  0
  7  9  1  0  0  0  0
  8 18  2  0  0  0  0
  9  1  2  0  0  0  0
 10 13  1  0  0  0  0
 11 17  1  0  0  0  0
 11 15  1  0  0  0  0
 12 13  2  0  0  0  0
 14  5  1  6  0  0  0
 14  4  1  0  0  0  0
 15  8  1  0  0  0  0
 17  5  1  0  0  0  0
 20 24  2  0  0  0  0
 20 22  1  0  0  0  0
 21 19  2  0  0  0  0
 22 23  2  0  0  0  0
 23 19  1  0  0  0  0
 24 21  1  0  0  0  0
 25 26  1  0  0  0  0
 26 28  1  0  0  0  0
 26 24  1  0  0  0  0
 27 26  1  0  0  0  0
 29 30  1  0  0  0  0
 30 31  1  0  0  0  0
 32 33  1  6  0  0  0
 32 14  1  0  0  0  0
 32 31  1  0  0  0  0
 33 29  1  0  0  0  0
M  END
>  <MODEL>
7

>  <REMARK>
 VINA RESULT:      -7.5      1.910      2.741
  Name = 
  3 active torsions:
  status: ('A' for Active; 'I' for Inactive)
    1  A    between atoms: N_5  and  C_18
    2  A    between atoms: C_16  and  C_32
    3  A    between atoms: C_24  and  C_27
                            x       y       z     vdW  Elec       q    Type
                         _______ _______ _______ _____ _____    ______ ____

>  <TORSDO>
F 3

$$$$
=
 OpenBabel11062421143D

 33 37  0  0  1  0  0  0  0  0999 V2000
  190.0410  176.5220  146.3340 C   0  0  0  0  0  3  0  0  0  0  0  0
  188.6490  178.2940  141.9040 N   0  0  0  0  0  2  0  0  0  0  0  0
  193.1930  175.5140  143.2980 N   0  0  0  0  0  0  0  0  0  0  0  0
  190.0980  173.6590  142.9000 C   0  0  2  0  0  3  0  0  0  0  0  0
  188.1090  174.6830  141.8980 C   0  0  0  0  0  0  0  0  0  0  0  0
  190.8430  174.9870  142.9510 C   0  0  1  0  0  3  0  0  0  0  0  0
  188.7740  177.6310  144.7020 N   0  0  0  0  0  0  0  0  0  0  0  0
  190.2340  175.8670  144.0170 C   0  0  0  0  0  0  0  0  0  0  0  0
  189.1470  177.4750  145.9730 N   0  0  0  0  0  0  0  0  0  0  0  0
  192.2560  174.6130  143.2150 C   0  0  0  0  0  0  0  0  0  0  0  0
  188.7780  177.0800  142.3240 C   0  0  0  0  0  0  0  0  0  0  0  0
  191.1210  172.5270  142.9580 C   0  0  0  0  0  3  0  0  0  0  0  0
  192.4660  173.1440  143.3040 C   0  0  0  0  0  3  0  0  0  0  0  0
  189.1090  173.5760  141.7230 C   0  0  1  0  0  3  0  0  0  0  0  0
  189.2630  176.8450  143.7030 C   0  0  0  0  0  0  0  0  0  0  0  0
  187.0430  174.4680  142.5330 O   0  0  0  0  0  0  0  0  0  0  0  0
  188.4160  176.0070  141.4480 N   0  0  0  0  0  2  0  0  0  0  0  0
  190.5960  175.7000  145.3600 C   0  0  0  0  0  3  0  0  0  0  0  0
  196.9390  175.8410  143.1180 C   0  0  0  0  0  3  0  0  0  0  0  0
  194.9920  174.3680  144.4720 C   0  0  0  0  0  3  0  0  0  0  0  0
  197.3200  174.8830  144.0590 C   0  0  0  0  0  3  0  0  0  0  0  0
  194.5980  175.3270  143.5320 C   0  0  0  0  0  0  0  0  0  0  0  0
  195.5850  176.0600  142.8540 C   0  0  0  0  0  3  0  0  0  0  0  0
  196.3500  174.1270  144.7310 C   0  0  0  0  0  0  0  0  0  0  0  0
  197.7540  172.3000  145.2970 F   0  0  0  0  0  0  0  0  0  0  0  0
  196.7590  173.1350  145.7800 C   0  0  0  0  0  0  0  0  0  0  0  0
  197.2390  173.7910  146.9010 F   0  0  0  0  0  0  0  0  0  0  0  0
  195.6650  172.3700  146.1380 F   0  0  0  0  0  0  0  0  0  0  0  0
  188.2340  172.7140  138.8850 N   0  0  0  0  0  2  0  0  0  0  0  0
  189.3160  171.7790  138.6430 C   0  0  0  0  0  2  0  0  0  0  0  0
  190.5610  172.0210  139.9280 S   0  0  0  0  0  0  0  0  0  0  0  0
  189.7900  173.6150  140.3340 C   0  0  1  0  0  3  0  0  0  0  0  0
  188.8310  173.9240  139.2750 N   0  0  0  0  0  2  0  0  0  0  0  0
  2 11  2  0  0  0  0
  3 22  1  0  0  0  0
  4  6  1  0  0  0  0
  4 12  1  6  0  0  0
  5 16  2  0  0  0  0
  6 10  1  1  0  0  0
  6  8  1  0  0  0  0
  7  9  2  0  0  0  0
  8 18  1  0  0  0  0
  9  1  1  0  0  0  0
 10  3  2  0  0  0  0
 10 13  1  0  0  0  0
 11 15  1  0  0  0  0
 12 13  2  0  0  0  0
 14  5  1  6  0  0  0
 14  4  1  0  0  0  0
 15  8  2  0  0  0  0
 15  7  1  0  0  0  0
 17  5  1  0  0  0  0
 17 11  1  0  0  0  0
 18  1  2  0  0  0  0
 19 21  1  0  0  0  0
 20 24  1  0  0  0  0
 21 24  2  0  0  0  0
 22 20  2  0  0  0  0
 23 19  2  0  0  0  0
 23 22  1  0  0  0  0
 24 26  1  0  0  0  0
 25 26  1  0  0  0  0
 26 28  1  0  0  0  0
 26 27  1  0  0  0  0
 29 33  1  0  0  0  0
 30 29  1  0  0  0  0
 30 31  1  0  0  0  0
 31 32  1  0  0  0  0
 32 33  1  6  0  0  0
 32 14  1  0  0  0  0
M  END
>  <MODEL>
8

>  <REMARK>
 VINA RESULT:      -7.5      4.732      8.229
  Name = 
  3 active torsions:
  status: ('A' for Active; 'I' for Inactive)
    1  A    between atoms: N_5  and  C_18
    2  A    between atoms: C_16  and  C_32
    3  A    between atoms: C_24  and  C_27
                            x       y       z     vdW  Elec       q    Type
                         _______ _______ _______ _____ _____    ______ ____

>  <TORSDO>
F 3

$$$$
=
 OpenBabel11062421143D

 33 37  0  0  1  0  0  0  0  0999 V2000
  189.3080  175.0340  147.0690 C   0  0  0  0  0  3  0  0  0  0  0  0
  189.6320  177.8950  143.0180 N   0  0  0  0  0  2  0  0  0  0  0  0
  192.6860  173.5610  144.5020 N   0  0  0  0  0  0  0  0  0  0  0  0
  189.3870  172.9450  143.1170 C   0  0  2  0  0  3  0  0  0  0  0  0
  188.0920  174.7300  142.0470 C   0  0  0  0  0  0  0  0  0  0  0  0
  190.4470  173.9170  143.6190 C   0  0  1  0  0  3  0  0  0  0  0  0
  188.8610  176.7630  145.5500 N   0  0  0  0  0  0  0  0  0  0  0  0
  189.8730  174.7560  144.7370 C   0  0  0  0  0  0  0  0  0  0  0  0
  188.8460  176.2780  146.7920 N   0  0  0  0  0  0  0  0  0  0  0  0
  191.5800  173.0530  144.0370 C   0  0  0  0  0  0  0  0  0  0  0  0
  189.2970  176.6550  143.1500 C   0  0  0  0  0  0  0  0  0  0  0  0
  189.9930  171.5430  143.0850 C   0  0  0  0  0  3  0  0  0  0  0  0
  191.3290  171.6060  143.8070 C   0  0  0  0  0  3  0  0  0  0  0  0
  188.7410  173.3990  141.7950 C   0  0  1  0  0  3  0  0  0  0  0  0
  189.3350  176.0410  144.4960 C   0  0  0  0  0  0  0  0  0  0  0  0
  186.8870  174.7800  142.4070 O   0  0  0  0  0  0  0  0  0  0  0  0
  188.8700  175.9300  141.9910 N   0  0  0  0  0  2  0  0  0  0  0  0
  189.8260  174.2520  146.0430 C   0  0  0  0  0  3  0  0  0  0  0  0
  196.2550  172.7900  145.4170 C   0  0  0  0  0  3  0  0  0  0  0  0
  193.7650  171.5330  145.3120 C   0  0  0  0  0  3  0  0  0  0  0  0
  196.1350  171.4510  145.7920 C   0  0  0  0  0  3  0  0  0  0  0  0
  193.8730  172.8770  144.9350 C   0  0  0  0  0  0  0  0  0  0  0  0
  195.1310  173.4990  144.9880 C   0  0  0  0  0  3  0  0  0  0  0  0
  194.8910  170.8070  145.7270 C   0  0  0  0  0  0  0  0  0  0  0  0
  195.9050  168.6690  145.8920 F   0  0  0  0  0  0  0  0  0  0  0  0
  194.7540  169.3840  146.1800 C   0  0  0  0  0  0  0  0  0  0  0  0
  194.5340  169.3330  147.5460 F   0  0  0  0  0  0  0  0  0  0  0  0
  193.6850  168.7970  145.5280 F   0  0  0  0  0  0  0  0  0  0  0  0
  188.4160  173.0940  138.7350 N   0  0  0  0  0  2  0  0  0  0  0  0
  189.3200  171.9720  138.5720 C   0  0  0  0  0  2  0  0  0  0  0  0
  190.2460  171.7740  140.1090 S   0  0  0  0  0  0  0  0  0  0  0  0
  189.7270  173.4430  140.6030 C   0  0  1  0  0  3  0  0  0  0  0  0
  189.1260  174.0820  139.4340 N   0  0  0  0  0  2  0  0  0  0  0  0
  2 11  2  0  0  0  0
  3 22  1  0  0  0  0
  4 12  1  6  0  0  0
  4  6  1  0  0  0  0
  5 16  2  0  0  0  0
  6 10  1  1  0  0  0
  6  8  1  0  0  0  0
  7  9  2  0  0  0  0
  8 18  1  0  0  0  0
  9  1  1  0  0  0  0
 10  3  2  0  0  0  0
 11 15  1  0  0  0  0
 12 13  2  0  0  0  0
 13 10  1  0  0  0  0
 14  5  1  1  0  0  0
 14  4  1  0  0  0  0
 15  8  2  0  0  0  0
 15  7  1  0  0  0  0
 17  5  1  0  0  0  0
 17 11  1  0  0  0  0
 18  1  2  0  0  0  0
 19 21  1  0  0  0  0
 20 24  1  0  0  0  0
 22 23  1  0  0  0  0
 22 20  2  0  0  0  0
 23 19  2  0  0  0  0
 24 21  2  0  0  0  0
 24 26  1  0  0  0  0
 25 26  1  0  0  0  0
 26 27  1  0  0  0  0
 28 26  1  0  0  0  0
 29 33  1  0  0  0  0
 30 29  1  0  0  0  0
 30 31  1  0  0  0  0
 31 32  1  0  0  0  0
 32 33  1  6  0  0  0
 32 14  1  0  0  0  0
M  END
>  <MODEL>
9

>  <REMARK>
 VINA RESULT:      -7.4      5.182      8.598
  Name = 
  3 active torsions:
  status: ('A' for Active; 'I' for Inactive)
    1  A    between atoms: N_5  and  C_18
    2  A    between atoms: C_16  and  C_32
    3  A    between atoms: C_24  and  C_27
                            x       y       z     vdW  Elec       q    Type
                         _______ _______ _______ _____ _____    ______ ____

>  <TORSDO>
F 3

$$$$
