=
 OpenBabel11062421233D

 31 34  0  0  1  0  0  0  0  0999 V2000
  188.9020  176.2110  144.8990 C   0  0  0  0  0  2  0  0  0  0  0  0
  188.8070  177.2120  143.7520 C   0  0  2  0  0  3  0  0  0  0  0  0
  185.2100  177.5540  139.9510 C   0  0  0  0  0  3  0  0  0  0  0  0
  187.6110  178.2100  143.7860 C   0  0  1  0  0  3  0  0  0  0  0  0
  187.6040  176.9430  141.7550 C   0  0  0  0  0  0  0  0  0  0  0  0
  186.6410  177.4730  139.5320 C   0  0  0  0  0  2  0  0  0  0  0  0
  187.4920  176.6680  140.4570 C   0  0  0  0  0  3  0  0  0  0  0  0
  185.6670  178.4500  142.2280 C   0  0  0  0  0  3  0  0  0  0  0  0
  188.8110  174.9950  142.7850 C   0  0  2  0  0  3  0  0  0  0  0  0
  186.8970  177.9830  142.4820 C   0  0  0  0  0  0  0  0  0  0  0  0
  188.6490  176.4160  142.5510 N   0  0  0  0  0  0  0  0  0  0  0  0
  184.7730  178.0440  141.1180 C   0  0  0  0  0  0  0  0  0  0  0  0
  189.2020  174.8630  144.2540 C   0  0  0  0  0  2  0  0  0  0  0  0
  184.7170  179.4490  145.5830 C   0  0  0  0  0  3  0  0  0  0  0  0
  186.4110  176.8970  145.5160 C   0  0  0  0  0  3  0  0  0  0  0  0
  183.9290  178.5810  146.2180 C   0  0  0  0  0  3  0  0  0  0  0  0
  186.7000  178.0950  144.9870 C   0  0  0  0  0  0  0  0  0  0  0  0
  185.4770  176.6500  146.6330 C   0  0  0  0  0  3  0  0  0  0  0  0
  186.2060  179.3630  145.6030 C   0  0  0  0  0  2  0  0  0  0  0  0
  184.3980  177.3790  146.9360 C   0  0  0  0  0  3  0  0  0  0  0  0
  182.8650  178.4870  142.4690 O   0  0  0  0  0  0  0  0  0  0  0  0
  183.3170  178.1710  141.3330 C   0  0  0  0  0  0  0  0  0  0  0  0
  182.4140  177.9370  140.2490 N   0  0  0  0  0  0  0  0  0  0  0  0
  181.1740  178.1890  140.3580 N   0  0  0  0  0  2  0  0  0  0  0  0
  189.8520  174.4030  141.8260 C   0  0  1  0  0  3  0  0  0  0  0  0
  191.2740  174.5390  142.2910 C   0  0  0  0  0  0  0  0  0  0  0  0
  191.8830  175.6360  142.1930 O   0  0  0  0  0  0  0  0  0  0  0  0
  191.9290  173.4330  142.8150 O   0  0  0  0  0  1  0  0  0  0  0  0
  189.5130  173.0120  141.3870 C   0  0  0  0  0  0  0  0  0  0  0  0
  189.0640  172.0390  142.3260 N   0  0  0  0  0  1  0  0  0  0  0  0
  189.6210  172.7010  140.1730 O   0  0  0  0  0  0  0  0  0  0  0  0
  2  4  1  0  0  0  0
  2  1  1  1  0  0  0
  3 12  2  0  0  0  0
  4 17  1  1  0  0  0
  5 10  1  0  0  0  0
  5 11  1  0  0  0  0
  6  3  1  0  0  0  0
  6  7  1  0  0  0  0
  7  5  2  0  0  0  0
  8 10  2  0  0  0  0
  9 25  1  6  0  0  0
  9 13  1  0  0  0  0
 10  4  1  0  0  0  0
 11  9  1  0  0  0  0
 11  2  1  0  0  0  0
 12 22  1  0  0  0  0
 12  8  1  0  0  0  0
 13  1  1  0  0  0  0
 14 19  1  0  0  0  0
 14 16  2  0  0  0  0
 15 18  1  0  0  0  0
 16 20  1  0  0  0  0
 17 15  2  0  0  0  0
 17 19  1  0  0  0  0
 18 20  2  0  0  0  0
 22 21  2  0  0  0  0
 23 24  2  0  0  0  0
 23 22  1  0  0  0  0
 25 29  1  1  0  0  0
 25 26  1  0  0  0  0
 26 28  1  0  0  0  0
 27 26  2  0  0  0  0
 29 30  1  0  0  0  0
 31 29  2  0  0  0  0
M  END
>  <MODEL>
1

>  <REMARK>
 VINA RESULT:      -7.4      0.000      0.000
  Name = 
  6 active torsions:
  status: ('A' for Active; 'I' for Inactive)
    1  A    between atoms: C_1  and  C_23
    2  A    between atoms: C_2  and  C_23
    3  A    between atoms: N_4  and  C_26
    4  A    between atoms: C_10  and  C_22
    5  A    between atoms: C_18  and  C_23
    6  A    between atoms: C_25  and  C_26
                            x       y       z     vdW  Elec       q    Type
                         _______ _______ _______ _____ _____    ______ ____

>  <TORSDO>
F 6

$$$$
=
 OpenBabel11062421233D

 31 34  0  0  1  0  0  0  0  0999 V2000
  191.3310  174.9820  143.4560 C   0  0  0  0  0  2  0  0  0  0  0  0
  190.6660  176.2100  142.8450 C   0  0  2  0  0  3  0  0  0  0  0  0
  185.5700  177.4220  142.5740 C   0  0  0  0  0  3  0  0  0  0  0  0
  189.9610  177.1920  143.8280 C   0  0  1  0  0  3  0  0  0  0  0  0
  188.4260  176.4010  142.1710 C   0  0  0  0  0  0  0  0  0  0  0  0
  186.3400  177.4160  141.2940 C   0  0  0  0  0  2  0  0  0  0  0  0
  187.4490  176.4180  141.2660 C   0  0  0  0  0  3  0  0  0  0  0  0
  187.5410  177.7920  144.0490 C   0  0  0  0  0  3  0  0  0  0  0  0
  189.6870  174.2590  141.8030 C   0  0  2  0  0  3  0  0  0  0  0  0
  188.5430  177.2660  143.3320 C   0  0  0  0  0  0  0  0  0  0  0  0
  189.6370  175.6980  141.9620 N   0  0  0  0  0  0  0  0  0  0  0  0
  186.0900  177.6510  143.7870 C   0  0  0  0  0  0  0  0  0  0  0  0
  190.9180  173.8040  142.5820 C   0  0  0  0  0  2  0  0  0  0  0  0
  189.1300  174.8670  146.4820 C   0  0  0  0  0  3  0  0  0  0  0  0
  191.1630  177.1070  145.9980 C   0  0  0  0  0  3  0  0  0  0  0  0
  190.0220  174.6400  147.4470 C   0  0  0  0  0  3  0  0  0  0  0  0
  190.0570  176.8280  145.2930 C   0  0  0  0  0  0  0  0  0  0  0  0
  191.4060  176.7330  147.4060 C   0  0  0  0  0  3  0  0  0  0  0  0
  188.8500  176.2270  145.9350 C   0  0  0  0  0  2  0  0  0  0  0  0
  190.9130  175.6600  148.0340 C   0  0  0  0  0  3  0  0  0  0  0  0
  184.2510  178.6070  144.9560 O   0  0  0  0  0  0  0  0  0  0  0  0
  185.1750  177.7460  144.9430 C   0  0  0  0  0  0  0  0  0  0  0  0
  185.3320  176.8560  146.0520 N   0  0  0  0  0  0  0  0  0  0  0  0
  185.6210  177.2900  147.2100 N   0  0  0  0  0  2  0  0  0  0  0  0
  189.7350  173.8780  140.3170 C   0  0  1  0  0  3  0  0  0  0  0  0
  190.9990  173.1870  139.8930 C   0  0  0  0  0  0  0  0  0  0  0  0
  191.9860  173.8470  139.4740 O   0  0  0  0  0  0  0  0  0  0  0  0
  191.0700  171.8020  139.9440 O   0  0  0  0  0  1  0  0  0  0  0  0
  188.5000  173.1650  139.8610 C   0  0  0  0  0  0  0  0  0  0  0  0
  188.1930  173.0500  138.4750 N   0  0  0  0  0  1  0  0  0  0  0  0
  187.7270  172.6560  140.7130 O   0  0  0  0  0  0  0  0  0  0  0  0
  2  1  1  1  0  0  0
  2  4  1  0  0  0  0
  3 12  2  0  0  0  0
  4 17  1  1  0  0  0
  5 10  1  0  0  0  0
  6  3  1  0  0  0  0
  7  6  1  0  0  0  0
  7  5  2  0  0  0  0
  9 25  1  6  0  0  0
  9 11  1  0  0  0  0
  9 13  1  0  0  0  0
 10  4  1  0  0  0  0
 10  8  2  0  0  0  0
 11  5  1  0  0  0  0
 11  2  1  0  0  0  0
 12  8  1  0  0  0  0
 12 22  1  0  0  0  0
 13  1  1  0  0  0  0
 14 16  2  0  0  0  0
 15 18  1  0  0  0  0
 16 20  1  0  0  0  0
 17 19  1  0  0  0  0
 17 15  2  0  0  0  0
 18 20  2  0  0  0  0
 19 14  1  0  0  0  0
 22 21  2  0  0  0  0
 22 23  1  0  0  0  0
 23 24  2  0  0  0  0
 25 29  1  1  0  0  0
 26 28  1  0  0  0  0
 26 25  1  0  0  0  0
 27 26  2  0  0  0  0
 29 31  2  0  0  0  0
 30 29  1  0  0  0  0
M  END
>  <MODEL>
2

>  <REMARK>
 VINA RESULT:      -7.3      2.541      3.964
  Name = 
  6 active torsions:
  status: ('A' for Active; 'I' for Inactive)
    1  A    between atoms: C_1  and  C_23
    2  A    between atoms: C_2  and  C_23
    3  A    between atoms: N_4  and  C_26
    4  A    between atoms: C_10  and  C_22
    5  A    between atoms: C_18  and  C_23
    6  A    between atoms: C_25  and  C_26
                            x       y       z     vdW  Elec       q    Type
                         _______ _______ _______ _____ _____    ______ ____

>  <TORSDO>
F 6

$$$$
=
 OpenBabel11062421233D

 31 34  0  0  1  0  0  0  0  0999 V2000
  189.1290  176.9490  146.2610 C   0  0  0  0  0  2  0  0  0  0  0  0
  188.8950  175.5660  145.6650 C   0  0  2  0  0  3  0  0  0  0  0  0
  189.7120  173.8940  140.7620 C   0  0  0  0  0  3  0  0  0  0  0  0
  190.1570  174.7630  145.2290 C   0  0  1  0  0  3  0  0  0  0  0  0
  188.6500  175.0430  143.3900 C   0  0  0  0  0  0  0  0  0  0  0  0
  188.3490  173.6880  141.3350 C   0  0  0  0  0  2  0  0  0  0  0  0
  187.9390  174.7480  142.3040 C   0  0  0  0  0  3  0  0  0  0  0  0
  190.8880  174.0220  142.9530 C   0  0  0  0  0  3  0  0  0  0  0  0
  187.6570  177.1540  144.3250 C   0  0  2  0  0  3  0  0  0  0  0  0
  189.9260  174.4640  143.7730 C   0  0  0  0  0  0  0  0  0  0  0  0
  188.1080  175.7850  144.4680 N   0  0  0  0  0  0  0  0  0  0  0  0
  190.8450  173.9790  141.4720 C   0  0  0  0  0  0  0  0  0  0  0  0
  188.1160  177.8700  145.5920 C   0  0  0  0  0  2  0  0  0  0  0  0
  193.6260  174.4580  146.2370 C   0  0  0  0  0  3  0  0  0  0  0  0
  191.8790  176.4830  144.7410 C   0  0  0  0  0  3  0  0  0  0  0  0
  194.5410  175.2250  145.6440 C   0  0  0  0  0  3  0  0  0  0  0  0
  191.4830  175.4430  145.4890 C   0  0  0  0  0  0  0  0  0  0  0  0
  193.1790  177.1750  144.8460 C   0  0  0  0  0  3  0  0  0  0  0  0
  192.2860  174.9650  146.6540 C   0  0  0  0  0  2  0  0  0  0  0  0
  194.3360  176.6280  145.2350 C   0  0  0  0  0  3  0  0  0  0  0  0
  192.1780  173.8370  139.5060 O   0  0  0  0  0  0  0  0  0  0  0  0
  192.1300  174.0590  140.7490 C   0  0  0  0  0  0  0  0  0  0  0  0
  193.3270  174.3930  141.4570 N   0  0  0  0  0  0  0  0  0  0  0  0
  193.7440  175.5910  141.5210 N   0  0  0  0  0  2  0  0  0  0  0  0
  186.1380  177.2070  144.1150 C   0  0  1  0  0  3  0  0  0  0  0  0
  185.3500  177.5150  145.3560 C   0  0  0  0  0  0  0  0  0  0  0  0
  185.1200  176.6220  146.2130 O   0  0  0  0  0  1  0  0  0  0  0  0
  184.8500  178.7960  145.5470 O   0  0  0  0  0  0  0  0  0  0  0  0
  185.7420  178.0570  142.9480 C   0  0  0  0  0  0  0  0  0  0  0  0
  184.5040  177.8460  142.2770 N   0  0  0  0  0  1  0  0  0  0  0  0
  186.5120  178.9730  142.5590 O   0  0  0  0  0  0  0  0  0  0  0  0
  2  1  1  6  0  0  0
  3  6  1  0  0  0  0
  3 12  2  0  0  0  0
  4 17  1  6  0  0  0
  4  2  1  0  0  0  0
  5 10  1  0  0  0  0
  5 11  1  0  0  0  0
  6  7  1  0  0  0  0
  7  5  2  0  0  0  0
  8 10  2  0  0  0  0
  9 25  1  1  0  0  0
  9 11  1  0  0  0  0
  9 13  1  0  0  0  0
 10  4  1  0  0  0  0
 11  2  1  0  0  0  0
 12  8  1  0  0  0  0
 13  1  1  0  0  0  0
 14 19  1  0  0  0  0
 15 18  1  0  0  0  0
 15 17  2  0  0  0  0
 16 14  2  0  0  0  0
 17 19  1  0  0  0  0
 18 20  2  0  0  0  0
 20 16  1  0  0  0  0
 21 22  2  0  0  0  0
 22 23  1  0  0  0  0
 22 12  1  0  0  0  0
 23 24  2  0  0  0  0
 25 29  1  6  0  0  0
 25 26  1  0  0  0  0
 26 28  2  0  0  0  0
 26 27  1  0  0  0  0
 30 29  1  0  0  0  0
 31 29  2  0  0  0  0
M  END
>  <MODEL>
3

>  <REMARK>
 VINA RESULT:      -7.3      2.903      7.300
  Name = 
  6 active torsions:
  status: ('A' for Active; 'I' for Inactive)
    1  A    between atoms: C_1  and  C_23
    2  A    between atoms: C_2  and  C_23
    3  A    between atoms: N_4  and  C_26
    4  A    between atoms: C_10  and  C_22
    5  A    between atoms: C_18  and  C_23
    6  A    between atoms: C_25  and  C_26
                            x       y       z     vdW  Elec       q    Type
                         _______ _______ _______ _____ _____    ______ ____

>  <TORSDO>
F 6

$$$$
=
 OpenBabel11062421233D

 31 34  0  0  1  0  0  0  0  0999 V2000
  190.6840  177.1210  146.5860 C   0  0  0  0  0  2  0  0  0  0  0  0
  191.0790  177.2860  145.1230 C   0  0  2  0  0  3  0  0  0  0  0  0
  190.9140  173.7700  141.2350 C   0  0  0  0  0  3  0  0  0  0  0  0
  189.9310  177.2190  144.0710 C   0  0  1  0  0  3  0  0  0  0  0  0
  191.6040  175.5700  143.6110 C   0  0  0  0  0  0  0  0  0  0  0  0
  192.2190  174.4520  141.4840 C   0  0  0  0  0  2  0  0  0  0  0  0
  192.4460  174.8070  142.9160 C   0  0  0  0  0  3  0  0  0  0  0  0
  189.5040  175.5500  142.2560 C   0  0  0  0  0  3  0  0  0  0  0  0
  192.3370  175.4210  146.0090 C   0  0  2  0  0  3  0  0  0  0  0  0
  190.3380  176.1080  143.1420 C   0  0  0  0  0  0  0  0  0  0  0  0
  191.9730  176.1830  144.8320 N   0  0  0  0  0  0  0  0  0  0  0  0
  189.7090  174.2810  141.5180 C   0  0  0  0  0  0  0  0  0  0  0  0
  191.6950  176.1510  147.1850 C   0  0  0  0  0  2  0  0  0  0  0  0
  187.8420  176.0150  146.7780 C   0  0  0  0  0  3  0  0  0  0  0  0
  187.5870  177.9560  144.4210 C   0  0  0  0  0  3  0  0  0  0  0  0
  186.7500  176.7050  147.1080 C   0  0  0  0  0  3  0  0  0  0  0  0
  188.5400  177.0370  144.6360 C   0  0  0  0  0  0  0  0  0  0  0  0
  186.2220  177.9300  144.9820 C   0  0  0  0  0  3  0  0  0  0  0  0
  188.2520  175.7670  145.3650 C   0  0  0  0  0  2  0  0  0  0  0  0
  185.8590  177.3900  146.1510 C   0  0  0  0  0  3  0  0  0  0  0  0
  187.5870  173.2840  141.9260 O   0  0  0  0  0  0  0  0  0  0  0  0
  188.5060  173.5350  141.0960 C   0  0  0  0  0  0  0  0  0  0  0  0
  188.3780  173.0960  139.7410 N   0  0  0  0  0  0  0  0  0  0  0  0
  188.2150  173.9240  138.7920 N   0  0  0  0  0  2  0  0  0  0  0  0
  193.8630  175.3030  146.1290 C   0  0  1  0  0  3  0  0  0  0  0  0
  194.4170  173.9690  145.7160 C   0  0  0  0  0  0  0  0  0  0  0  0
  193.6520  173.0320  145.3670 O   0  0  0  0  0  0  0  0  0  0  0  0
  195.7890  173.7630  145.7430 O   0  0  0  0  0  1  0  0  0  0  0  0
  194.5850  176.4540  145.5010 C   0  0  0  0  0  0  0  0  0  0  0  0
  195.1590  176.3350  144.2020 N   0  0  0  0  0  1  0  0  0  0  0  0
  194.6810  177.5410  146.1260 O   0  0  0  0  0  0  0  0  0  0  0  0
  1 13  1  0  0  0  0
  2  1  1  1  0  0  0
  3  6  1  0  0  0  0
  3 12  2  0  0  0  0
  4 17  1  1  0  0  0
  4  2  1  0  0  0  0
  5 11  1  0  0  0  0
  6  7  1  0  0  0  0
  7  5  2  0  0  0  0
  8 10  2  0  0  0  0
  9 25  1  1  0  0  0
  9 13  1  0  0  0  0
 10  5  1  0  0  0  0
 10  4  1  0  0  0  0
 11  2  1  0  0  0  0
 11  9  1  0  0  0  0
 12  8  1  0  0  0  0
 14 16  2  0  0  0  0
 15 17  2  0  0  0  0
 15 18  1  0  0  0  0
 17 19  1  0  0  0  0
 18 20  2  0  0  0  0
 19 14  1  0  0  0  0
 20 16  1  0  0  0  0
 22 12  1  0  0  0  0
 22 21  2  0  0  0  0
 23 22  1  0  0  0  0
 24 23  2  0  0  0  0
 25 29  1  6  0  0  0
 26 28  1  0  0  0  0
 26 25  1  0  0  0  0
 27 26  2  0  0  0  0
 29 31  2  0  0  0  0
 30 29  1  0  0  0  0
M  END
>  <MODEL>
4

>  <REMARK>
 VINA RESULT:      -7.1      3.459      5.378
  Name = 
  6 active torsions:
  status: ('A' for Active; 'I' for Inactive)
    1  A    between atoms: C_1  and  C_23
    2  A    between atoms: C_2  and  C_23
    3  A    between atoms: N_4  and  C_26
    4  A    between atoms: C_10  and  C_22
    5  A    between atoms: C_18  and  C_23
    6  A    between atoms: C_25  and  C_26
                            x       y       z     vdW  Elec       q    Type
                         _______ _______ _______ _____ _____    ______ ____

>  <TORSDO>
F 6

$$$$
=
 OpenBabel11062421233D

 31 34  0  0  1  0  0  0  0  0999 V2000
  186.5270  176.4480  142.4060 C   0  0  0  0  0  2  0  0  0  0  0  0
  187.8900  177.1100  142.5720 C   0  0  2  0  0  3  0  0  0  0  0  0
  191.7090  176.0060  145.9940 C   0  0  0  0  0  3  0  0  0  0  0  0
  189.1400  176.2490  142.2190 C   0  0  1  0  0  3  0  0  0  0  0  0
  189.2600  177.0360  144.4760 C   0  0  0  0  0  0  0  0  0  0  0  0
  191.2220  177.4160  145.9450 C   0  0  0  0  0  2  0  0  0  0  0  0
  189.7760  177.5410  145.5960 C   0  0  0  0  0  3  0  0  0  0  0  0
  190.9890  175.4140  143.6850 C   0  0  0  0  0  3  0  0  0  0  0  0
  186.7650  177.2140  144.7110 C   0  0  2  0  0  3  0  0  0  0  0  0
  189.9650  176.2520  143.4770 C   0  0  0  0  0  0  0  0  0  0  0  0
  187.9960  177.4370  143.9810 N   0  0  0  0  0  0  0  0  0  0  0  0
  191.6640  175.1370  144.9740 C   0  0  0  0  0  0  0  0  0  0  0  0
  185.7380  176.7910  143.6640 C   0  0  0  0  0  2  0  0  0  0  0  0
  189.5440  173.7910  139.5860 C   0  0  0  0  0  3  0  0  0  0  0  0
  188.7740  173.8170  142.5510 C   0  0  0  0  0  3  0  0  0  0  0  0
  189.6800  172.5060  139.9150 C   0  0  0  0  0  3  0  0  0  0  0  0
  188.8480  174.8570  141.7070 C   0  0  0  0  0  0  0  0  0  0  0  0
  188.5750  172.4060  142.1660 C   0  0  0  0  0  3  0  0  0  0  0  0
  188.5660  174.7020  140.2490 C   0  0  0  0  0  2  0  0  0  0  0  0
  188.9710  171.8350  141.0230 C   0  0  0  0  0  3  0  0  0  0  0  0
  193.4120  173.7120  145.7330 O   0  0  0  0  0  0  0  0  0  0  0  0
  192.3000  173.8150  145.1420 C   0  0  0  0  0  0  0  0  0  0  0  0
  191.6530  172.6430  144.6370 N   0  0  0  0  0  0  0  0  0  0  0  0
  192.2690  171.8190  143.8920 N   0  0  0  0  0  2  0  0  0  0  0  0
  186.3570  178.4750  145.4850 C   0  0  1  0  0  3  0  0  0  0  0  0
  185.2590  179.2720  144.8400 C   0  0  0  0  0  0  0  0  0  0  0  0
  185.5220  180.1590  143.9860 O   0  0  0  0  0  0  0  0  0  0  0  0
  183.9410  179.0410  145.2080 O   0  0  0  0  0  1  0  0  0  0  0  0
  186.1070  178.2090  146.9370 C   0  0  0  0  0  0  0  0  0  0  0  0
  186.0830  176.8770  147.4420 N   0  0  0  0  0  1  0  0  0  0  0  0
  185.9230  179.1750  147.7210 O   0  0  0  0  0  0  0  0  0  0  0  0
  1 13  1  0  0  0  0
  2  1  1  1  0  0  0
  2 11  1  0  0  0  0
  4 17  1  1  0  0  0
  4  2  1  0  0  0  0
  4 10  1  0  0  0  0
  5  7  2  0  0  0  0
  6  3  1  0  0  0  0
  7  6  1  0  0  0  0
  8 12  1  0  0  0  0
  9 25  1  6  0  0  0
 10  8  2  0  0  0  0
 10  5  1  0  0  0  0
 11  5  1  0  0  0  0
 11  9  1  0  0  0  0
 12 22  1  0  0  0  0
 12  3  2  0  0  0  0
 13  9  1  0  0  0  0
 14 16  2  0  0  0  0
 14 19  1  0  0  0  0
 16 20  1  0  0  0  0
 17 15  2  0  0  0  0
 18 15  1  0  0  0  0
 19 17  1  0  0  0  0
 20 18  2  0  0  0  0
 22 21  2  0  0  0  0
 23 22  1  0  0  0  0
 24 23  2  0  0  0  0
 25 26  1  6  0  0  0
 25 29  1  0  0  0  0
 26 28  1  0  0  0  0
 27 26  2  0  0  0  0
 29 30  1  0  0  0  0
 29 31  2  0  0  0  0
M  END
>  <MODEL>
5

>  <REMARK>
 VINA RESULT:      -6.9      3.033      7.800
  Name = 
  6 active torsions:
  status: ('A' for Active; 'I' for Inactive)
    1  A    between atoms: C_1  and  C_23
    2  A    between atoms: C_2  and  C_23
    3  A    between atoms: N_4  and  C_26
    4  A    between atoms: C_10  and  C_22
    5  A    between atoms: C_18  and  C_23
    6  A    between atoms: C_25  and  C_26
                            x       y       z     vdW  Elec       q    Type
                         _______ _______ _______ _____ _____    ______ ____

>  <TORSDO>
F 6

$$$$
=
 OpenBabel11062421233D

 31 34  0  0  1  0  0  0  0  0999 V2000
  192.2480  176.2690  145.8800 C   0  0  0  0  0  2  0  0  0  0  0  0
  192.2480  176.5460  144.3810 C   0  0  2  0  0  3  0  0  0  0  0  0
  191.0080  173.3350  140.4240 C   0  0  0  0  0  3  0  0  0  0  0  0
  190.8630  176.5550  143.6660 C   0  0  1  0  0  3  0  0  0  0  0  0
  192.3270  174.9500  142.6620 C   0  0  0  0  0  0  0  0  0  0  0  0
  192.3440  173.9990  140.3710 C   0  0  0  0  0  2  0  0  0  0  0  0
  192.9450  174.2450  141.7150 C   0  0  0  0  0  3  0  0  0  0  0  0
  189.9460  175.0270  141.9090 C   0  0  0  0  0  3  0  0  0  0  0  0
  193.6620  174.6220  144.7650 C   0  0  2  0  0  3  0  0  0  0  0  0
  190.9930  175.5190  142.5840 C   0  0  0  0  0  0  0  0  0  0  0  0
  193.0150  175.4700  143.7850 N   0  0  0  0  0  0  0  0  0  0  0  0
  189.9280  173.8190  141.0520 C   0  0  0  0  0  0  0  0  0  0  0  0
  193.3640  175.2590  146.1190 C   0  0  0  0  0  2  0  0  0  0  0  0
  189.3600  174.6700  146.3730 C   0  0  0  0  0  3  0  0  0  0  0  0
  188.9090  177.3560  144.9700 C   0  0  0  0  0  3  0  0  0  0  0  0
  188.5670  175.3010  147.2390 C   0  0  0  0  0  3  0  0  0  0  0  0
  189.6660  176.3280  144.5620 C   0  0  0  0  0  0  0  0  0  0  0  0
  187.7690  177.2710  145.9040 C   0  0  0  0  0  3  0  0  0  0  0  0
  189.3180  174.9160  144.9020 C   0  0  0  0  0  2  0  0  0  0  0  0
  187.6220  176.3810  146.8920 C   0  0  0  0  0  3  0  0  0  0  0  0
  187.9220  172.8770  141.9180 O   0  0  0  0  0  0  0  0  0  0  0  0
  188.6440  173.1040  140.9070 C   0  0  0  0  0  0  0  0  0  0  0  0
  188.2130  172.6670  139.6150 N   0  0  0  0  0  0  0  0  0  0  0  0
  188.1910  173.4620  138.6240 N   0  0  0  0  0  2  0  0  0  0  0  0
  195.1630  174.4990  144.4700 C   0  0  1  0  0  3  0  0  0  0  0  0
  195.8480  175.8040  144.1820 C   0  0  0  0  0  0  0  0  0  0  0  0
  196.6400  175.9170  143.2090 O   0  0  0  0  0  0  0  0  0  0  0  0
  195.6210  176.8930  145.0130 O   0  0  0  0  0  1  0  0  0  0  0  0
  195.8890  173.6720  145.4860 C   0  0  0  0  0  0  0  0  0  0  0  0
  195.4850  172.3340  145.7620 N   0  0  0  0  0  1  0  0  0  0  0  0
  196.8710  174.1640  146.0990 O   0  0  0  0  0  0  0  0  0  0  0  0
  1 13  1  0  0  0  0
  2  1  1  1  0  0  0
  3 12  2  0  0  0  0
  4  2  1  0  0  0  0
  4 17  1  1  0  0  0
  5 11  1  0  0  0  0
  6  3  1  0  0  0  0
  6  7  1  0  0  0  0
  7  5  2  0  0  0  0
  8 10  2  0  0  0  0
  9 25  1  6  0  0  0
  9 13  1  0  0  0  0
 10  5  1  0  0  0  0
 10  4  1  0  0  0  0
 11  2  1  0  0  0  0
 11  9  1  0  0  0  0
 12  8  1  0  0  0  0
 14 16  2  0  0  0  0
 15 18  1  0  0  0  0
 17 19  1  0  0  0  0
 17 15  2  0  0  0  0
 18 20  2  0  0  0  0
 19 14  1  0  0  0  0
 20 16  1  0  0  0  0
 22 12  1  0  0  0  0
 22 21  2  0  0  0  0
 23 22  1  0  0  0  0
 24 23  2  0  0  0  0
 25 26  1  1  0  0  0
 25 29  1  0  0  0  0
 26 28  1  0  0  0  0
 27 26  2  0  0  0  0
 29 30  1  0  0  0  0
 29 31  2  0  0  0  0
M  END
>  <MODEL>
6

>  <REMARK>
 VINA RESULT:      -6.8      4.068      5.891
  Name = 
  6 active torsions:
  status: ('A' for Active; 'I' for Inactive)
    1  A    between atoms: C_1  and  C_23
    2  A    between atoms: C_2  and  C_23
    3  A    between atoms: N_4  and  C_26
    4  A    between atoms: C_10  and  C_22
    5  A    between atoms: C_18  and  C_23
    6  A    between atoms: C_25  and  C_26
                            x       y       z     vdW  Elec       q    Type
                         _______ _______ _______ _____ _____    ______ ____

>  <TORSDO>
F 6

$$$$
=
 OpenBabel11062421233D

 31 34  0  0  1  0  0  0  0  0999 V2000
  193.6300  176.4620  146.1490 C   0  0  0  0  0  2  0  0  0  0  0  0
  193.3590  176.8090  144.6890 C   0  0  2  0  0  3  0  0  0  0  0  0
  191.4970  173.7530  140.8550 C   0  0  0  0  0  3  0  0  0  0  0  0
  191.8690  176.8140  144.2310 C   0  0  1  0  0  3  0  0  0  0  0  0
  193.1620  175.2980  142.9040 C   0  0  0  0  0  0  0  0  0  0  0  0
  192.7900  174.4550  140.6010 C   0  0  0  0  0  2  0  0  0  0  0  0
  193.6160  174.6550  141.8290 C   0  0  0  0  0  3  0  0  0  0  0  0
  190.6840  175.3440  142.5880 C   0  0  0  0  0  3  0  0  0  0  0  0
  194.8550  174.9090  144.7200 C   0  0  2  0  0  3  0  0  0  0  0  0
  191.8250  175.8330  143.0910 C   0  0  0  0  0  0  0  0  0  0  0  0
  194.0280  175.7830  143.9130 N   0  0  0  0  0  0  0  0  0  0  0  0
  190.5370  174.1780  141.6860 C   0  0  0  0  0  0  0  0  0  0  0  0
  194.7890  175.4740  146.1360 C   0  0  0  0  0  2  0  0  0  0  0  0
  188.5140  177.2860  145.5200 C   0  0  0  0  0  3  0  0  0  0  0  0
  190.8240  175.3110  145.9060 C   0  0  0  0  0  3  0  0  0  0  0  0
  187.9040  176.2660  146.1260 C   0  0  0  0  0  3  0  0  0  0  0  0
  190.8550  176.5110  145.3100 C   0  0  0  0  0  0  0  0  0  0  0  0
  189.8370  174.8710  146.9120 C   0  0  0  0  0  3  0  0  0  0  0  0
  189.9520  177.6210  145.7390 C   0  0  0  0  0  2  0  0  0  0  0  0
  188.5680  175.2840  147.0050 C   0  0  0  0  0  3  0  0  0  0  0  0
  188.4910  173.5510  142.7280 O   0  0  0  0  0  0  0  0  0  0  0  0
  189.2610  173.4340  141.7340 C   0  0  0  0  0  0  0  0  0  0  0  0
  188.8930  172.5800  140.6470 N   0  0  0  0  0  0  0  0  0  0  0  0
  188.1950  173.0100  139.6780 N   0  0  0  0  0  2  0  0  0  0  0  0
  196.2820  174.8410  144.1590 C   0  0  1  0  0  3  0  0  0  0  0  0
  196.6350  173.5310  143.5150 C   0  0  0  0  0  0  0  0  0  0  0  0
  195.7680  172.6320  143.3630 O   0  0  0  0  0  1  0  0  0  0  0  0
  197.9410  173.3040  143.1040 O   0  0  0  0  0  0  0  0  0  0  0  0
  196.6260  176.0220  143.3060 C   0  0  0  0  0  0  0  0  0  0  0  0
  196.7540  175.8900  141.8930 N   0  0  0  0  0  1  0  0  0  0  0  0
  196.8000  177.1460  143.8430 O   0  0  0  0  0  0  0  0  0  0  0  0
  2  1  1  1  0  0  0
  3 12  2  0  0  0  0
  4  2  1  0  0  0  0
  4 17  1  1  0  0  0
  5 10  1  0  0  0  0
  5 11  1  0  0  0  0
  6  3  1  0  0  0  0
  6  7  1  0  0  0  0
  7  5  2  0  0  0  0
  8 10  2  0  0  0  0
  9 25  1  6  0  0  0
  9 13  1  0  0  0  0
 10  4  1  0  0  0  0
 11  2  1  0  0  0  0
 11  9  1  0  0  0  0
 12 22  1  0  0  0  0
 12  8  1  0  0  0  0
 13  1  1  0  0  0  0
 14 19  1  0  0  0  0
 14 16  2  0  0  0  0
 15 18  1  0  0  0  0
 16 20  1  0  0  0  0
 17 19  1  0  0  0  0
 17 15  2  0  0  0  0
 18 20  2  0  0  0  0
 22 21  2  0  0  0  0
 23 22  1  0  0  0  0
 24 23  2  0  0  0  0
 25 29  1  6  0  0  0
 26 25  1  0  0  0  0
 27 26  1  0  0  0  0
 28 26  2  0  0  0  0
 29 31  2  0  0  0  0
 30 29  1  0  0  0  0
M  END
>  <MODEL>
7

>  <REMARK>
 VINA RESULT:      -6.7      4.217      6.308
  Name = 
  6 active torsions:
  status: ('A' for Active; 'I' for Inactive)
    1  A    between atoms: C_1  and  C_23
    2  A    between atoms: C_2  and  C_23
    3  A    between atoms: N_4  and  C_26
    4  A    between atoms: C_10  and  C_22
    5  A    between atoms: C_18  and  C_23
    6  A    between atoms: C_25  and  C_26
                            x       y       z     vdW  Elec       q    Type
                         _______ _______ _______ _____ _____    ______ ____

>  <TORSDO>
F 6

$$$$
=
 OpenBabel11062421233D

 31 34  0  0  1  0  0  0  0  0999 V2000
  191.6370  174.7920  141.6070 C   0  0  0  0  0  2  0  0  0  0  0  0
  191.3050  174.1220  142.9350 C   0  0  2  0  0  3  0  0  0  0  0  0
  190.9960  176.2420  147.7220 C   0  0  0  0  0  3  0  0  0  0  0  0
  189.9610  174.5280  143.6120 C   0  0  1  0  0  3  0  0  0  0  0  0
  191.8090  174.9350  145.0790 C   0  0  0  0  0  0  0  0  0  0  0  0
  191.9000  175.0650  147.5530 C   0  0  0  0  0  2  0  0  0  0  0  0
  192.5250  174.9780  146.2010 C   0  0  0  0  0  3  0  0  0  0  0  0
  189.5400  175.7210  145.7720 C   0  0  0  0  0  3  0  0  0  0  0  0
  193.4420  175.2240  143.1920 C   0  0  2  0  0  3  0  0  0  0  0  0
  190.3630  175.0300  144.9720 C   0  0  0  0  0  0  0  0  0  0  0  0
  192.3620  174.5140  143.8460 N   0  0  0  0  0  0  0  0  0  0  0  0
  189.9150  176.5000  146.9750 C   0  0  0  0  0  0  0  0  0  0  0  0
  193.0990  175.2130  141.7050 C   0  0  0  0  0  2  0  0  0  0  0  0
  186.6530  175.7130  142.7190 C   0  0  0  0  0  3  0  0  0  0  0  0
  189.5230  176.7860  142.6800 C   0  0  0  0  0  3  0  0  0  0  0  0
  186.4540  177.0230  142.5700 C   0  0  0  0  0  3  0  0  0  0  0  0
  189.1170  175.5180  142.8420 C   0  0  0  0  0  0  0  0  0  0  0  0
  188.7550  177.8600  142.0190 C   0  0  0  0  0  3  0  0  0  0  0  0
  187.8650  175.0100  142.2060 C   0  0  0  0  0  2  0  0  0  0  0  0
  187.4220  177.9650  141.9750 C   0  0  0  0  0  3  0  0  0  0  0  0
  189.5140  178.5900  148.0380 O   0  0  0  0  0  0  0  0  0  0  0  0
  189.0520  177.6390  147.3470 C   0  0  0  0  0  0  0  0  0  0  0  0
  187.6870  177.6690  146.9200 N   0  0  0  0  0  0  0  0  0  0  0  0
  186.7960  178.2640  147.6010 N   0  0  0  0  0  2  0  0  0  0  0  0
  194.7940  174.5680  143.5060 C   0  0  1  0  0  3  0  0  0  0  0  0
  195.5450  174.0840  142.2990 C   0  0  0  0  0  0  0  0  0  0  0  0
  195.4120  172.9010  141.8880 O   0  0  0  0  0  1  0  0  0  0  0  0
  196.4130  174.9460  141.6440 O   0  0  0  0  0  0  0  0  0  0  0  0
  195.6390  175.3920  144.4270 C   0  0  0  0  0  0  0  0  0  0  0  0
  195.3140  176.7530  144.6940 N   0  0  0  0  0  1  0  0  0  0  0  0
  196.6450  174.8740  144.9750 O   0  0  0  0  0  0  0  0  0  0  0  0
  1 13  1  0  0  0  0
  2  1  1  6  0  0  0
  2  4  1  0  0  0  0
  2 11  1  0  0  0  0
  4 17  1  6  0  0  0
  4 10  1  0  0  0  0
  5  7  2  0  0  0  0
  6  3  1  0  0  0  0
  7  6  1  0  0  0  0
  8 12  1  0  0  0  0
  9 25  1  6  0  0  0
  9 11  1  0  0  0  0
 10  5  1  0  0  0  0
 10  8  2  0  0  0  0
 11  5  1  0  0  0  0
 12 22  1  0  0  0  0
 12  3  2  0  0  0  0
 13  9  1  0  0  0  0
 15 17  2  0  0  0  0
 16 14  2  0  0  0  0
 18 15  1  0  0  0  0
 19 14  1  0  0  0  0
 19 17  1  0  0  0  0
 20 18  2  0  0  0  0
 20 16  1  0  0  0  0
 22 21  2  0  0  0  0
 23 22  1  0  0  0  0
 23 24  2  0  0  0  0
 25 26  1  6  0  0  0
 25 29  1  0  0  0  0
 27 26  1  0  0  0  0
 28 26  2  0  0  0  0
 29 30  1  0  0  0  0
 29 31  2  0  0  0  0
M  END
>  <MODEL>
8

>  <REMARK>
 VINA RESULT:      -6.6      4.044      6.480
  Name = 
  6 active torsions:
  status: ('A' for Active; 'I' for Inactive)
    1  A    between atoms: C_1  and  C_23
    2  A    between atoms: C_2  and  C_23
    3  A    between atoms: N_4  and  C_26
    4  A    between atoms: C_10  and  C_22
    5  A    between atoms: C_18  and  C_23
    6  A    between atoms: C_25  and  C_26
                            x       y       z     vdW  Elec       q    Type
                         _______ _______ _______ _____ _____    ______ ____

>  <TORSDO>
F 6

$$$$
=
 OpenBabel11062421233D

 31 34  0  0  1  0  0  0  0  0999 V2000
  189.1400  175.3280  146.2850 C   0  0  0  0  0  2  0  0  0  0  0  0
  189.3700  176.3290  145.1580 C   0  0  2  0  0  3  0  0  0  0  0  0
  186.4860  177.1990  140.8650 C   0  0  0  0  0  3  0  0  0  0  0  0
  188.3450  177.4960  145.0320 C   0  0  1  0  0  3  0  0  0  0  0  0
  188.4590  176.2400  142.9970 C   0  0  0  0  0  0  0  0  0  0  0  0
  187.9360  176.9030  140.6660 C   0  0  0  0  0  2  0  0  0  0  0  0
  188.5070  175.9810  141.6910 C   0  0  0  0  0  3  0  0  0  0  0  0
  186.7180  178.0210  143.2030 C   0  0  0  0  0  3  0  0  0  0  0  0
  189.1920  174.1350  144.1560 C   0  0  2  0  0  3  0  0  0  0  0  0
  187.8120  177.3760  143.6300 C   0  0  0  0  0  0  0  0  0  0  0  0
  189.2800  175.5630  143.9310 N   0  0  0  0  0  0  0  0  0  0  0  0
  185.9540  177.7520  141.9630 C   0  0  0  0  0  0  0  0  0  0  0  0
  189.3300  173.9490  145.6650 C   0  0  0  0  0  2  0  0  0  0  0  0
  186.5110  179.3890  147.5210 C   0  0  0  0  0  3  0  0  0  0  0  0
  186.1310  176.8070  145.9170 C   0  0  0  0  0  3  0  0  0  0  0  0
  185.2070  179.1590  147.6770 C   0  0  0  0  0  3  0  0  0  0  0  0
  187.2540  177.5210  146.0790 C   0  0  0  0  0  0  0  0  0  0  0  0
  184.9670  176.8100  146.8250 C   0  0  0  0  0  3  0  0  0  0  0  0
  187.5130  178.3000  147.3260 C   0  0  0  0  0  2  0  0  0  0  0  0
  184.5640  177.8330  147.5870 C   0  0  0  0  0  3  0  0  0  0  0  0
  183.8760  178.1710  143.0440 O   0  0  0  0  0  0  0  0  0  0  0  0
  184.5170  178.0950  141.9580 C   0  0  0  0  0  0  0  0  0  0  0  0
  183.8490  178.3480  140.7190 N   0  0  0  0  0  0  0  0  0  0  0  0
  182.6640  177.9400  140.5140 N   0  0  0  0  0  2  0  0  0  0  0  0
  190.2680  173.3910  143.3530 C   0  0  1  0  0  3  0  0  0  0  0  0
  189.7370  172.5790  142.2070 C   0  0  0  0  0  0  0  0  0  0  0  0
  190.4370  171.6780  141.6740 O   0  0  0  0  0  0  0  0  0  0  0  0
  188.4660  172.8420  141.7150 O   0  0  0  0  0  1  0  0  0  0  0  0
  191.4130  174.2720  142.9620 C   0  0  0  0  0  0  0  0  0  0  0  0
  191.6050  174.6620  141.6050 N   0  0  0  0  0  1  0  0  0  0  0  0
  192.2130  174.6770  143.8440 O   0  0  0  0  0  0  0  0  0  0  0  0
  2  1  1  1  0  0  0
  3 12  2  0  0  0  0
  4  2  1  0  0  0  0
  4 17  1  1  0  0  0
  5 10  1  0  0  0  0
  5 11  1  0  0  0  0
  6  3  1  0  0  0  0
  6  7  1  0  0  0  0
  7  5  2  0  0  0  0
  8 10  2  0  0  0  0
  9 25  1  6  0  0  0
  9 13  1  0  0  0  0
 10  4  1  0  0  0  0
 11  9  1  0  0  0  0
 11  2  1  0  0  0  0
 12  8  1  0  0  0  0
 13  1  1  0  0  0  0
 14 16  2  0  0  0  0
 15 17  2  0  0  0  0
 15 18  1  0  0  0  0
 17 19  1  0  0  0  0
 18 20  2  0  0  0  0
 19 14  1  0  0  0  0
 20 16  1  0  0  0  0
 22 12  1  0  0  0  0
 22 21  2  0  0  0  0
 23 22  1  0  0  0  0
 24 23  2  0  0  0  0
 25 26  1  6  0  0  0
 27 26  2  0  0  0  0
 28 26  1  0  0  0  0
 29 25  1  0  0  0  0
 29 31  2  0  0  0  0
 30 29  1  0  0  0  0
M  END
>  <MODEL>
9

>  <REMARK>
 VINA RESULT:      -6.6      1.477      2.204
  Name = 
  6 active torsions:
  status: ('A' for Active; 'I' for Inactive)
    1  A    between atoms: C_1  and  C_23
    2  A    between atoms: C_2  and  C_23
    3  A    between atoms: N_4  and  C_26
    4  A    between atoms: C_10  and  C_22
    5  A    between atoms: C_18  and  C_23
    6  A    between atoms: C_25  and  C_26
                            x       y       z     vdW  Elec       q    Type
                         _______ _______ _______ _____ _____    ______ ____

>  <TORSDO>
F 6

$$$$
