=
 OpenBabel11062419443D

 30 32  0  0  1  0  0  0  0  0999 V2000
  184.2020  178.5730  144.2060 C   0  0  0  0  0  2  0  0  0  0  0  0
  184.8800  178.0400  141.8740 C   0  0  0  0  0  3  0  0  0  0  0  0
  183.9050  178.3090  142.7490 C   0  0  0  0  0  0  0  0  0  0  0  0
  185.5630  178.0310  144.6400 C   0  0  1  0  0  3  0  0  0  0  0  0
  186.6400  178.4370  143.6420 C   0  0  0  0  0  2  0  0  0  0  0  0
  186.3290  177.8760  142.2550 C   0  0  1  0  0  3  0  0  0  0  0  0
  187.9890  176.2340  142.7650 O   0  0  0  0  0  0  0  0  0  0  0  0
  187.9760  176.2960  141.3620 C   0  0  0  0  0  2  0  0  0  0  0  0
  186.7350  176.4130  142.1550 C   0  0  2  0  0  3  0  0  0  0  0  0
  185.9160  178.4870  145.9820 N   0  0  0  0  0  2  0  0  0  0  0  0
  187.0390  178.2780  148.0080 O   0  0  0  0  0  0  0  0  0  0  0  0
  186.9680  177.9450  146.7940 C   0  0  0  0  0  0  0  0  0  0  0  0
  190.1310  175.2730  145.7670 C   0  0  1  0  0  3  0  0  0  0  0  0
  190.4960  176.7750  145.7360 C   0  0  2  0  0  3  0  0  0  0  0  0
  189.3700  177.7150  146.2140 C   0  0  0  0  0  2  0  0  0  0  0  0
  188.0710  175.7890  146.9480 N   0  0  0  0  0  0  0  0  0  0  0  0
  188.0030  177.0300  146.2080 C   0  0  1  0  0  3  0  0  0  0  0  0
  191.2590  174.5090  146.0540 O   0  0  0  0  0  1  0  0  0  0  0  0
  189.0470  174.9680  146.7670 C   0  0  0  0  0  3  0  0  0  0  0  0
  190.2700  178.2510  143.8720 F   0  0  0  0  0  0  0  0  0  0  0  0
  190.9330  176.1350  143.4730 F   0  0  0  0  0  0  0  0  0  0  0  0
  192.3340  177.5960  144.4620 F   0  0  0  0  0  0  0  0  0  0  0  0
  191.0160  177.1930  144.3600 C   0  0  0  0  0  0  0  0  0  0  0  0
  182.6000  178.4110  142.2620 O   0  0  0  0  0  0  0  0  0  0  0  0
  182.2540  178.0970  140.9210 C   0  0  0  0  0  2  0  0  0  0  0  0
  179.7860  178.5610  140.7940 C   0  0  0  0  0  0  0  0  0  0  0  0
  179.5280  177.6600  141.6370 O   0  0  0  0  0  0  0  0  0  0  0  0
  181.1360  178.9240  140.5080 N   0  0  0  0  0  2  0  0  0  0  0  0
  178.6720  179.2680  140.1060 C   0  0  0  0  0  2  0  0  0  0  0  0
  179.1370  180.4590  139.5540 O   0  0  0  0  0  1  0  0  0  0  0  0
  1  4  1  0  0  0  0
  2  3  2  0  0  0  0
  3  1  1  0  0  0  0
  4 10  1  1  0  0  0
  5  4  1  0  0  0  0
  6  2  1  1  0  0  0
  6  5  1  0  0  0  0
  8  7  1  0  0  0  0
  9  8  1  6  0  0  0
  9  6  1  0  0  0  0
  9  7  1  0  0  0  0
 10 12  1  0  0  0  0
 12 11  2  0  0  0  0
 13 18  1  1  0  0  0
 13 19  1  0  0  0  0
 14 23  1  6  0  0  0
 14 13  1  0  0  0  0
 14 15  1  0  0  0  0
 17 15  1  0  0  0  0
 17 12  1  1  0  0  0
 17 16  1  0  0  0  0
 19 16  2  0  0  0  0
 20 23  1  0  0  0  0
 21 23  1  0  0  0  0
 23 22  1  0  0  0  0
 24  3  1  0  0  0  0
 25 24  1  0  0  0  0
 26 27  2  0  0  0  0
 28 26  1  0  0  0  0
 28 25  1  0  0  0  0
 29 26  1  0  0  0  0
 30 29  1  0  0  0  0
M  END
>  <MODEL>
1

>  <REMARK>
 VINA RESULT:      -7.1      0.000      0.000
  Name = 
  8 active torsions:
  status: ('A' for Active; 'I' for Inactive)
    1  A    between atoms: O_2  and  C_19
    2  A    between atoms: O_2  and  C_20
    3  A    between atoms: N_4  and  C_22
    4  A    between atoms: C_8  and  C_14
    5  A    between atoms: C_9  and  C_26
    6  A    between atoms: C_11  and  C_25
    7  A    between atoms: C_19  and  N_29
    8  A    between atoms: C_24  and  C_27
                            x       y       z     vdW  Elec       q    Type
                         _______ _______ _______ _____ _____    ______ ____

>  <TORSDO>
F 8

$$$$
=
 OpenBabel11062419443D

 30 32  0  0  1  0  0  0  0  0999 V2000
  190.5150  176.6950  146.8320 C   0  0  0  0  0  2  0  0  0  0  0  0
  191.8550  174.8930  145.7660 C   0  0  0  0  0  3  0  0  0  0  0  0
  191.8130  176.0970  146.3460 C   0  0  0  0  0  0  0  0  0  0  0  0
  189.2890  176.0620  146.1740 C   0  0  1  0  0  3  0  0  0  0  0  0
  189.3920  174.5430  146.2080 C   0  0  0  0  0  2  0  0  0  0  0  0
  190.6320  174.0690  145.4500 C   0  0  1  0  0  3  0  0  0  0  0  0
  189.4450  173.0540  143.6420 O   0  0  0  0  0  0  0  0  0  0  0  0
  190.7940  172.7530  143.3900 C   0  0  0  0  0  2  0  0  0  0  0  0
  190.3820  174.0560  143.9490 C   0  0  2  0  0  3  0  0  0  0  0  0
  188.0520  176.5010  146.8150 N   0  0  0  0  0  2  0  0  0  0  0  0
  186.1550  177.8400  146.9500 O   0  0  0  0  0  0  0  0  0  0  0  0
  187.0720  177.3660  146.2240 C   0  0  0  0  0  0  0  0  0  0  0  0
  186.4680  178.2680  142.0990 C   0  0  1  0  0  3  0  0  0  0  0  0
  186.5030  176.7620  142.4500 C   0  0  2  0  0  3  0  0  0  0  0  0
  186.6140  176.4620  143.9590 C   0  0  0  0  0  2  0  0  0  0  0  0
  186.2690  178.8220  144.4560 N   0  0  0  0  0  0  0  0  0  0  0  0
  187.0970  177.6740  144.7560 C   0  0  1  0  0  3  0  0  0  0  0  0
  185.6770  178.4810  140.9730 O   0  0  0  0  0  1  0  0  0  0  0  0
  185.9600  179.1100  143.2390 C   0  0  0  0  0  3  0  0  0  0  0  0
  188.8390  176.5080  142.0200 F   0  0  0  0  0  0  0  0  0  0  0  0
  187.4090  176.2240  140.3020 F   0  0  0  0  0  0  0  0  0  0  0  0
  187.5400  174.6800  141.9370 F   0  0  0  0  0  0  0  0  0  0  0  0
  187.5900  176.0320  141.6610 C   0  0  0  0  0  0  0  0  0  0  0  0
  193.0230  176.7620  146.5580 O   0  0  0  0  0  0  0  0  0  0  0  0
  194.2850  176.1320  146.3910 C   0  0  0  0  0  2  0  0  0  0  0  0
  195.6570  175.9180  144.2950 C   0  0  0  0  0  0  0  0  0  0  0  0
  195.4760  174.6710  144.2520 O   0  0  0  0  0  0  0  0  0  0  0  0
  194.9670  176.7190  145.2540 N   0  0  0  0  0  2  0  0  0  0  0  0
  196.5810  176.5630  143.3250 C   0  0  0  0  0  2  0  0  0  0  0  0
  195.9430  176.7220  142.0970 O   0  0  0  0  0  1  0  0  0  0  0  0
  2  3  2  0  0  0  0
  3 24  1  0  0  0  0
  3  1  1  0  0  0  0
  4  5  1  0  0  0  0
  4 10  1  1  0  0  0
  4  1  1  0  0  0  0
  6  2  1  6  0  0  0
  6  5  1  0  0  0  0
  7  9  1  0  0  0  0
  8  7  1  0  0  0  0
  9  8  1  6  0  0  0
  9  6  1  0  0  0  0
 12 10  1  0  0  0  0
 12 11  2  0  0  0  0
 13 18  1  6  0  0  0
 13 14  1  0  0  0  0
 13 19  1  0  0  0  0
 14 23  1  6  0  0  0
 14 15  1  0  0  0  0
 15 17  1  0  0  0  0
 16 17  1  0  0  0  0
 17 12  1  1  0  0  0
 19 16  2  0  0  0  0
 21 23  1  0  0  0  0
 23 22  1  0  0  0  0
 23 20  1  0  0  0  0
 25 24  1  0  0  0  0
 26 28  1  0  0  0  0
 27 26  2  0  0  0  0
 28 25  1  0  0  0  0
 29 26  1  0  0  0  0
 30 29  1  0  0  0  0
M  END
>  <MODEL>
2

>  <REMARK>
 VINA RESULT:      -6.9      3.455      8.903
  Name = 
  8 active torsions:
  status: ('A' for Active; 'I' for Inactive)
    1  A    between atoms: O_2  and  C_19
    2  A    between atoms: O_2  and  C_20
    3  A    between atoms: N_4  and  C_22
    4  A    between atoms: C_8  and  C_14
    5  A    between atoms: C_9  and  C_26
    6  A    between atoms: C_11  and  C_25
    7  A    between atoms: C_19  and  N_29
    8  A    between atoms: C_24  and  C_27
                            x       y       z     vdW  Elec       q    Type
                         _______ _______ _______ _____ _____    ______ ____

>  <TORSDO>
F 8

$$$$
=
 OpenBabel11062419443D

 30 32  0  0  1  0  0  0  0  0999 V2000
  187.9200  175.1720  141.7000 C   0  0  0  0  0  2  0  0  0  0  0  0
  190.1020  174.6900  142.7890 C   0  0  0  0  0  3  0  0  0  0  0  0
  188.9950  174.2340  142.1940 C   0  0  0  0  0  0  0  0  0  0  0  0
  187.9840  176.5470  142.3640 C   0  0  1  0  0  3  0  0  0  0  0  0
  189.4100  177.0790  142.3490 C   0  0  0  0  0  2  0  0  0  0  0  0
  190.3450  176.1420  143.1140 C   0  0  1  0  0  3  0  0  0  0  0  0
  190.4000  177.7370  144.8920 O   0  0  0  0  0  0  0  0  0  0  0  0
  191.5110  176.9110  145.1270 C   0  0  0  0  0  2  0  0  0  0  0  0
  190.2360  176.3690  144.6140 C   0  0  2  0  0  3  0  0  0  0  0  0
  187.0810  177.4950  141.7170 N   0  0  0  0  0  2  0  0  0  0  0  0
  185.0610  178.6350  141.5370 O   0  0  0  0  0  0  0  0  0  0  0  0
  185.8540  177.9870  142.2740 C   0  0  0  0  0  0  0  0  0  0  0  0
  184.8590  178.0790  146.4220 C   0  0  1  0  0  3  0  0  0  0  0  0
  186.3690  178.1640  146.1010 C   0  0  2  0  0  3  0  0  0  0  0  0
  186.6970  178.2380  144.5950 C   0  0  0  0  0  2  0  0  0  0  0  0
  184.3290  178.5080  144.0890 N   0  0  0  0  0  0  0  0  0  0  0  0
  185.5260  177.7820  143.7240 C   0  0  1  0  0  3  0  0  0  0  0  0
  184.5850  178.7260  147.6230 O   0  0  0  0  0  1  0  0  0  0  0  0
  184.0070  178.6640  145.3260 C   0  0  0  0  0  3  0  0  0  0  0  0
  188.3440  177.5190  147.2780 F   0  0  0  0  0  0  0  0  0  0  0  0
  187.4100  176.0220  145.8770 F   0  0  0  0  0  0  0  0  0  0  0  0
  186.4090  176.5260  147.8310 F   0  0  0  0  0  0  0  0  0  0  0  0
  187.1470  177.0370  146.7800 C   0  0  0  0  0  0  0  0  0  0  0  0
  188.8900  172.8580  141.9760 O   0  0  0  0  0  0  0  0  0  0  0  0
  189.6820  172.1700  141.0190 C   0  0  0  0  0  2  0  0  0  0  0  0
  189.7610  173.2760  138.7610 C   0  0  0  0  0  0  0  0  0  0  0  0
  190.9400  173.6820  138.9530 O   0  0  0  0  0  0  0  0  0  0  0  0
  189.1360  172.3950  139.6940 N   0  0  0  0  0  2  0  0  0  0  0  0
  189.0230  173.7050  137.5440 C   0  0  0  0  0  2  0  0  0  0  0  0
  187.9030  174.4500  137.9070 O   0  0  0  0  0  1  0  0  0  0  0  0
  1  3  1  0  0  0  0
  1  4  1  0  0  0  0
  2  6  1  0  0  0  0
  3  2  2  0  0  0  0
  4 10  1  6  0  0  0
  5  4  1  0  0  0  0
  6  5  1  6  0  0  0
  6  9  1  0  0  0  0
  7  8  1  0  0  0  0
  9  7  1  0  0  0  0
  9  8  1  1  0  0  0
 10 12  1  0  0  0  0
 11 12  2  0  0  0  0
 13 18  1  1  0  0  0
 14 13  1  0  0  0  0
 14 23  1  6  0  0  0
 15 14  1  0  0  0  0
 16 19  2  0  0  0  0
 17 12  1  6  0  0  0
 17 16  1  0  0  0  0
 17 15  1  0  0  0  0
 19 13  1  0  0  0  0
 21 23  1  0  0  0  0
 23 20  1  0  0  0  0
 23 22  1  0  0  0  0
 24  3  1  0  0  0  0
 25 24  1  0  0  0  0
 26 27  2  0  0  0  0
 26 28  1  0  0  0  0
 28 25  1  0  0  0  0
 29 30  1  0  0  0  0
 29 26  1  0  0  0  0
M  END
>  <MODEL>
3

>  <REMARK>
 VINA RESULT:      -6.8      3.507      6.913
  Name = 
  8 active torsions:
  status: ('A' for Active; 'I' for Inactive)
    1  A    between atoms: O_2  and  C_19
    2  A    between atoms: O_2  and  C_20
    3  A    between atoms: N_4  and  C_22
    4  A    between atoms: C_8  and  C_14
    5  A    between atoms: C_9  and  C_26
    6  A    between atoms: C_11  and  C_25
    7  A    between atoms: C_19  and  N_29
    8  A    between atoms: C_24  and  C_27
                            x       y       z     vdW  Elec       q    Type
                         _______ _______ _______ _____ _____    ______ ____

>  <TORSDO>
F 8

$$$$
=
 OpenBabel11062419443D

 30 32  0  0  1  0  0  0  0  0999 V2000
  187.8360  175.5400  141.4050 C   0  0  0  0  0  2  0  0  0  0  0  0
  190.0970  175.2030  142.3820 C   0  0  0  0  0  3  0  0  0  0  0  0
  189.0150  174.6810  141.7960 C   0  0  0  0  0  0  0  0  0  0  0  0
  187.7980  176.8690  142.1580 C   0  0  1  0  0  3  0  0  0  0  0  0
  189.1660  177.5370  142.1290 C   0  0  0  0  0  2  0  0  0  0  0  0
  190.2150  176.6470  142.7960 C   0  0  1  0  0  3  0  0  0  0  0  0
  190.4210  178.0920  144.6880 O   0  0  0  0  0  0  0  0  0  0  0  0
  191.4680  177.1680  144.8360 C   0  0  0  0  0  2  0  0  0  0  0  0
  190.1470  176.7660  144.3110 C   0  0  2  0  0  3  0  0  0  0  0  0
  186.7840  177.7650  141.6090 N   0  0  0  0  0  2  0  0  0  0  0  0
  184.6790  178.7550  141.6100 O   0  0  0  0  0  0  0  0  0  0  0  0
  185.5670  178.1480  142.2670 C   0  0  0  0  0  0  0  0  0  0  0  0
  184.9130  178.0500  146.4810 C   0  0  1  0  0  3  0  0  0  0  0  0
  186.3900  178.1730  146.0430 C   0  0  2  0  0  3  0  0  0  0  0  0
  186.5940  178.3150  144.5200 C   0  0  0  0  0  2  0  0  0  0  0  0
  184.1900  178.5680  144.2200 N   0  0  0  0  0  0  0  0  0  0  0  0
  185.3620  177.8770  143.7280 C   0  0  1  0  0  3  0  0  0  0  0  0
  184.7300  178.6430  147.7280 O   0  0  0  0  0  1  0  0  0  0  0  0
  183.9670  178.6670  145.4850 C   0  0  0  0  0  3  0  0  0  0  0  0
  186.5610  176.4080  147.6430 F   0  0  0  0  0  0  0  0  0  0  0  0
  188.4410  177.5160  147.0830 F   0  0  0  0  0  0  0  0  0  0  0  0
  187.4810  176.0980  145.6200 F   0  0  0  0  0  0  0  0  0  0  0  0
  187.2360  177.0310  146.6080 C   0  0  0  0  0  0  0  0  0  0  0  0
  189.0310  173.3190  141.4880 O   0  0  0  0  0  0  0  0  0  0  0  0
  188.7310  172.3120  142.4430 C   0  0  0  0  0  2  0  0  0  0  0  0
  190.6920  171.9060  143.9640 C   0  0  0  0  0  0  0  0  0  0  0  0
  190.1880  172.6150  144.8760 O   0  0  0  0  0  0  0  0  0  0  0  0
  189.9470  171.5980  142.7860 N   0  0  0  0  0  2  0  0  0  0  0  0
  192.0700  171.3680  144.1250 C   0  0  0  0  0  2  0  0  0  0  0  0
  192.9990  172.3110  143.6930 O   0  0  0  0  0  1  0  0  0  0  0  0
  1  3  1  0  0  0  0
  1  4  1  0  0  0  0
  2  6  1  0  0  0  0
  3  2  2  0  0  0  0
  4 10  1  6  0  0  0
  5  4  1  0  0  0  0
  6  5  1  6  0  0  0
  6  9  1  0  0  0  0
  7  8  1  0  0  0  0
  9  7  1  0  0  0  0
  9  8  1  1  0  0  0
 10 12  1  0  0  0  0
 11 12  2  0  0  0  0
 13 18  1  1  0  0  0
 14 13  1  0  0  0  0
 14 23  1  6  0  0  0
 15 14  1  0  0  0  0
 16 19  2  0  0  0  0
 17 12  1  6  0  0  0
 17 16  1  0  0  0  0
 17 15  1  0  0  0  0
 19 13  1  0  0  0  0
 22 23  1  0  0  0  0
 23 21  1  0  0  0  0
 23 20  1  0  0  0  0
 24  3  1  0  0  0  0
 24 25  1  0  0  0  0
 25 28  1  0  0  0  0
 26 29  1  0  0  0  0
 26 27  2  0  0  0  0
 28 26  1  0  0  0  0
 30 29  1  0  0  0  0
M  END
>  <MODEL>
4

>  <REMARK>
 VINA RESULT:      -6.8      3.358      7.615
  Name = 
  8 active torsions:
  status: ('A' for Active; 'I' for Inactive)
    1  A    between atoms: O_2  and  C_19
    2  A    between atoms: O_2  and  C_20
    3  A    between atoms: N_4  and  C_22
    4  A    between atoms: C_8  and  C_14
    5  A    between atoms: C_9  and  C_26
    6  A    between atoms: C_11  and  C_25
    7  A    between atoms: C_19  and  N_29
    8  A    between atoms: C_24  and  C_27
                            x       y       z     vdW  Elec       q    Type
                         _______ _______ _______ _____ _____    ______ ____

>  <TORSDO>
F 8

$$$$
=
 OpenBabel11062419443D

 30 32  0  0  1  0  0  0  0  0999 V2000
  189.6640  174.7270  143.4140 C   0  0  0  0  0  2  0  0  0  0  0  0
  190.6540  173.9820  145.5690 C   0  0  0  0  0  3  0  0  0  0  0  0
  189.9760  173.6810  144.4570 C   0  0  0  0  0  0  0  0  0  0  0  0
  189.7430  176.1510  143.9630 C   0  0  1  0  0  3  0  0  0  0  0  0
  191.0270  176.3440  144.7570 C   0  0  0  0  0  2  0  0  0  0  0  0
  191.0800  175.3790  145.9410 C   0  0  1  0  0  3  0  0  0  0  0  0
  190.3730  177.2890  147.1910 O   0  0  0  0  0  0  0  0  0  0  0  0
  191.1190  176.5280  148.1050 C   0  0  0  0  0  2  0  0  0  0  0  0
  190.2410  175.8920  147.1020 C   0  0  2  0  0  3  0  0  0  0  0  0
  189.6530  177.1420  142.8940 N   0  0  0  0  0  2  0  0  0  0  0  0
  188.4660  178.4490  141.3790 O   0  0  0  0  0  0  0  0  0  0  0  0
  188.4450  177.7720  142.4430 C   0  0  0  0  0  0  0  0  0  0  0  0
  184.8400  178.1710  144.6880 C   0  0  1  0  0  3  0  0  0  0  0  0
  186.1400  178.1390  145.5230 C   0  0  2  0  0  3  0  0  0  0  0  0
  187.4350  178.1030  144.6850 C   0  0  0  0  0  2  0  0  0  0  0  0
  186.1400  178.4960  142.6610 N   0  0  0  0  0  0  0  0  0  0  0  0
  187.1790  177.6740  143.2410 C   0  0  1  0  0  3  0  0  0  0  0  0
  183.8600  178.9050  145.3510 O   0  0  0  0  0  1  0  0  0  0  0  0
  185.0570  178.7450  143.3130 C   0  0  0  0  0  3  0  0  0  0  0  0
  186.2170  177.5220  147.8290 F   0  0  0  0  0  0  0  0  0  0  0  0
  187.1680  176.1350  146.3290 F   0  0  0  0  0  0  0  0  0  0  0  0
  184.9260  176.3110  146.4500 F   0  0  0  0  0  0  0  0  0  0  0  0
  186.1160  177.0060  146.5490 C   0  0  0  0  0  0  0  0  0  0  0  0
  189.6220  172.3460  144.2480 O   0  0  0  0  0  0  0  0  0  0  0  0
  188.9890  171.8960  143.0600 C   0  0  0  0  0  2  0  0  0  0  0  0
  190.1360  171.6850  140.8320 C   0  0  0  0  0  0  0  0  0  0  0  0
  189.6150  172.7540  140.4130 O   0  0  0  0  0  0  0  0  0  0  0  0
  189.9770  171.2840  142.1920 N   0  0  0  0  0  2  0  0  0  0  0  0
  190.9390  170.8440  139.9050 C   0  0  0  0  0  2  0  0  0  0  0  0
  190.1200  170.3310  138.9020 O   0  0  0  0  0  1  0  0  0  0  0  0
  1  4  1  0  0  0  0
  1  3  1  0  0  0  0
  2  6  1  0  0  0  0
  3  2  2  0  0  0  0
  4 10  1  6  0  0  0
  4  5  1  0  0  0  0
  6  5  1  6  0  0  0
  6  9  1  0  0  0  0
  7  8  1  0  0  0  0
  9  7  1  0  0  0  0
  9  8  1  1  0  0  0
 11 12  2  0  0  0  0
 12 10  1  0  0  0  0
 13 18  1  1  0  0  0
 13 14  1  0  0  0  0
 14 23  1  1  0  0  0
 15 14  1  0  0  0  0
 16 17  1  0  0  0  0
 16 19  2  0  0  0  0
 17 12  1  6  0  0  0
 17 15  1  0  0  0  0
 19 13  1  0  0  0  0
 21 23  1  0  0  0  0
 22 23  1  0  0  0  0
 23 20  1  0  0  0  0
 24  3  1  0  0  0  0
 25 24  1  0  0  0  0
 26 28  1  0  0  0  0
 27 26  2  0  0  0  0
 28 25  1  0  0  0  0
 29 26  1  0  0  0  0
 30 29  1  0  0  0  0
M  END
>  <MODEL>
5

>  <REMARK>
 VINA RESULT:      -6.7      3.683      7.915
  Name = 
  8 active torsions:
  status: ('A' for Active; 'I' for Inactive)
    1  A    between atoms: O_2  and  C_19
    2  A    between atoms: O_2  and  C_20
    3  A    between atoms: N_4  and  C_22
    4  A    between atoms: C_8  and  C_14
    5  A    between atoms: C_9  and  C_26
    6  A    between atoms: C_11  and  C_25
    7  A    between atoms: C_19  and  N_29
    8  A    between atoms: C_24  and  C_27
                            x       y       z     vdW  Elec       q    Type
                         _______ _______ _______ _____ _____    ______ ____

>  <TORSDO>
F 8

$$$$
=
 OpenBabel11062419443D

 30 32  0  0  1  0  0  0  0  0999 V2000
  189.5220  174.5840  143.0960 C   0  0  0  0  0  2  0  0  0  0  0  0
  190.4580  173.5300  145.1440 C   0  0  0  0  0  3  0  0  0  0  0  0
  189.7500  173.4080  144.0160 C   0  0  0  0  0  0  0  0  0  0  0  0
  189.7250  175.9280  143.7930 C   0  0  1  0  0  3  0  0  0  0  0  0
  191.0260  175.9270  144.5840 C   0  0  0  0  0  2  0  0  0  0  0  0
  191.0040  174.8380  145.6570 C   0  0  1  0  0  3  0  0  0  0  0  0
  190.6170  176.5930  147.2320 O   0  0  0  0  0  0  0  0  0  0  0  0
  191.1470  175.5430  147.9990 C   0  0  0  0  0  2  0  0  0  0  0  0
  190.2190  175.2920  146.8780 C   0  0  2  0  0  3  0  0  0  0  0  0
  189.7130  177.0330  142.8370 N   0  0  0  0  0  2  0  0  0  0  0  0
  188.6330  178.5640  141.4590 O   0  0  0  0  0  0  0  0  0  0  0  0
  188.5520  177.7780  142.4420 C   0  0  0  0  0  0  0  0  0  0  0  0
  184.8930  178.1490  144.6030 C   0  0  1  0  0  3  0  0  0  0  0  0
  186.1730  178.1110  145.4690 C   0  0  2  0  0  3  0  0  0  0  0  0
  187.4880  178.0860  144.6630 C   0  0  0  0  0  2  0  0  0  0  0  0
  186.2410  178.4960  142.6110 N   0  0  0  0  0  0  0  0  0  0  0  0
  187.2670  177.6700  143.2080 C   0  0  1  0  0  3  0  0  0  0  0  0
  183.8960  178.8740  145.2500 O   0  0  0  0  0  1  0  0  0  0  0  0
  185.1420  178.7370  143.2390 C   0  0  0  0  0  3  0  0  0  0  0  0
  184.9320  176.2790  146.3660 F   0  0  0  0  0  0  0  0  0  0  0  0
  186.2370  177.4620  147.7710 F   0  0  0  0  0  0  0  0  0  0  0  0
  187.1640  176.0890  146.2450 F   0  0  0  0  0  0  0  0  0  0  0  0
  186.1260  176.9680  146.4830 C   0  0  0  0  0  0  0  0  0  0  0  0
  189.2830  172.1380  143.6720 O   0  0  0  0  0  0  0  0  0  0  0  0
  189.6970  171.4600  142.4960 C   0  0  0  0  0  2  0  0  0  0  0  0
  191.4380  169.6720  142.1790 C   0  0  0  0  0  0  0  0  0  0  0  0
  190.7290  169.0710  141.3280 O   0  0  0  0  0  0  0  0  0  0  0  0
  191.0410  170.9460  142.6870 N   0  0  0  0  0  2  0  0  0  0  0  0
  192.7100  169.0580  142.6450 C   0  0  0  0  0  2  0  0  0  0  0  0
  192.8100  169.1690  144.0300 O   0  0  0  0  0  1  0  0  0  0  0  0
  1  4  1  0  0  0  0
  1  3  1  0  0  0  0
  2  6  1  0  0  0  0
  3  2  2  0  0  0  0
  4 10  1  6  0  0  0
  4  5  1  0  0  0  0
  6  5  1  6  0  0  0
  6  9  1  0  0  0  0
  7  8  1  0  0  0  0
  9  7  1  0  0  0  0
  9  8  1  1  0  0  0
 11 12  2  0  0  0  0
 12 10  1  0  0  0  0
 13 18  1  1  0  0  0
 13 14  1  0  0  0  0
 14 23  1  6  0  0  0
 15 14  1  0  0  0  0
 16 17  1  0  0  0  0
 16 19  2  0  0  0  0
 17 12  1  6  0  0  0
 17 15  1  0  0  0  0
 19 13  1  0  0  0  0
 20 23  1  0  0  0  0
 22 23  1  0  0  0  0
 23 21  1  0  0  0  0
 24  3  1  0  0  0  0
 25 28  1  0  0  0  0
 25 24  1  0  0  0  0
 26 29  1  0  0  0  0
 26 28  1  0  0  0  0
 27 26  2  0  0  0  0
 29 30  1  0  0  0  0
M  END
>  <MODEL>
6

>  <REMARK>
 VINA RESULT:      -6.7      3.961      8.646
  Name = 
  8 active torsions:
  status: ('A' for Active; 'I' for Inactive)
    1  A    between atoms: O_2  and  C_19
    2  A    between atoms: O_2  and  C_20
    3  A    between atoms: N_4  and  C_22
    4  A    between atoms: C_8  and  C_14
    5  A    between atoms: C_9  and  C_26
    6  A    between atoms: C_11  and  C_25
    7  A    between atoms: C_19  and  N_29
    8  A    between atoms: C_24  and  C_27
                            x       y       z     vdW  Elec       q    Type
                         _______ _______ _______ _____ _____    ______ ____

>  <TORSDO>
F 8

$$$$
=
 OpenBabel11062419443D

 30 32  0  0  1  0  0  0  0  0999 V2000
  189.4490  174.1390  143.3350 C   0  0  0  0  0  2  0  0  0  0  0  0
  188.1720  176.0320  144.3190 C   0  0  0  0  0  3  0  0  0  0  0  0
  188.4520  175.2710  143.2560 C   0  0  0  0  0  0  0  0  0  0  0  0
  190.4070  174.2770  144.5170 C   0  0  1  0  0  3  0  0  0  0  0  0
  189.6380  174.5960  145.7910 C   0  0  0  0  0  2  0  0  0  0  0  0
  188.8750  175.9130  145.6470 C   0  0  1  0  0  3  0  0  0  0  0  0
  190.6710  176.8310  146.9280 O   0  0  0  0  0  0  0  0  0  0  0  0
  189.5770  177.6640  147.2100 C   0  0  0  0  0  2  0  0  0  0  0  0
  189.7970  177.1040  145.8610 C   0  0  2  0  0  3  0  0  0  0  0  0
  191.2110  173.0710  144.6960 N   0  0  0  0  0  2  0  0  0  0  0  0
  193.1400  171.8060  144.3940 O   0  0  0  0  0  0  0  0  0  0  0  0
  192.6090  172.9510  144.3950 C   0  0  0  0  0  0  0  0  0  0  0  0
  195.5280  175.9930  143.7510 C   0  0  1  0  0  3  0  0  0  0  0  0
  195.0260  175.8550  145.2070 C   0  0  2  0  0  3  0  0  0  0  0  0
  194.0530  174.6790  145.4360 C   0  0  0  0  0  2  0  0  0  0  0  0
  194.5030  173.8640  143.1850 N   0  0  0  0  0  0  0  0  0  0  0  0
  193.4490  174.1640  144.1290 C   0  0  1  0  0  3  0  0  0  0  0  0
  196.8290  176.4880  143.7370 O   0  0  0  0  0  1  0  0  0  0  0  0
  195.4750  174.6880  143.0010 C   0  0  0  0  0  3  0  0  0  0  0  0
  195.3240  178.2060  145.5030 F   0  0  0  0  0  0  0  0  0  0  0  0
  194.1670  177.0790  147.0730 F   0  0  0  0  0  0  0  0  0  0  0  0
  193.2620  177.4480  145.0440 F   0  0  0  0  0  0  0  0  0  0  0  0
  194.4340  177.1690  145.7190 C   0  0  0  0  0  0  0  0  0  0  0  0
  187.7390  175.5060  142.0780 O   0  0  0  0  0  0  0  0  0  0  0  0
  187.7980  176.7400  141.3790 C   0  0  0  0  0  2  0  0  0  0  0  0
  185.7290  178.0870  141.8630 C   0  0  0  0  0  0  0  0  0  0  0  0
  186.3220  178.7600  142.7480 O   0  0  0  0  0  0  0  0  0  0  0  0
  186.4520  177.1670  141.0440 N   0  0  0  0  0  2  0  0  0  0  0  0
  184.2680  178.2660  141.6540 C   0  0  0  0  0  2  0  0  0  0  0  0
  183.9920  178.3570  140.2920 O   0  0  0  0  0  1  0  0  0  0  0  0
  1  4  1  0  0  0  0
  3  1  1  0  0  0  0
  3  2  2  0  0  0  0
  4 10  1  1  0  0  0
  4  5  1  0  0  0  0
  6  2  1  6  0  0  0
  6  5  1  0  0  0  0
  6  9  1  0  0  0  0
  7  8  1  0  0  0  0
  9  7  1  0  0  0  0
  9  8  1  1  0  0  0
 11 12  2  0  0  0  0
 12 10  1  0  0  0  0
 13 18  1  1  0  0  0
 13 14  1  0  0  0  0
 14 15  1  0  0  0  0
 14 23  1  6  0  0  0
 16 17  1  0  0  0  0
 17 12  1  1  0  0  0
 17 15  1  0  0  0  0
 19 16  2  0  0  0  0
 19 13  1  0  0  0  0
 20 23  1  0  0  0  0
 22 23  1  0  0  0  0
 23 21  1  0  0  0  0
 24  3  1  0  0  0  0
 25 24  1  0  0  0  0
 26 27  2  0  0  0  0
 28 25  1  0  0  0  0
 28 26  1  0  0  0  0
 29 26  1  0  0  0  0
 30 29  1  0  0  0  0
M  END
>  <MODEL>
7

>  <REMARK>
 VINA RESULT:      -6.6      3.456      6.020
  Name = 
  8 active torsions:
  status: ('A' for Active; 'I' for Inactive)
    1  A    between atoms: O_2  and  C_19
    2  A    between atoms: O_2  and  C_20
    3  A    between atoms: N_4  and  C_22
    4  A    between atoms: C_8  and  C_14
    5  A    between atoms: C_9  and  C_26
    6  A    between atoms: C_11  and  C_25
    7  A    between atoms: C_19  and  N_29
    8  A    between atoms: C_24  and  C_27
                            x       y       z     vdW  Elec       q    Type
                         _______ _______ _______ _____ _____    ______ ____

>  <TORSDO>
F 8

$$$$
=
 OpenBabel11062419443D

 30 32  0  0  1  0  0  0  0  0999 V2000
  192.8230  174.7140  146.2330 C   0  0  0  0  0  2  0  0  0  0  0  0
  192.5910  172.8280  144.6300 C   0  0  0  0  0  3  0  0  0  0  0  0
  193.3830  173.5980  145.3840 C   0  0  0  0  0  0  0  0  0  0  0  0
  191.4380  175.1670  145.7760 C   0  0  1  0  0  3  0  0  0  0  0  0
  190.5320  173.9640  145.5510 C   0  0  0  0  0  2  0  0  0  0  0  0
  191.1080  173.0480  144.4710 C   0  0  1  0  0  3  0  0  0  0  0  0
  189.4740  174.0410  143.0380 O   0  0  0  0  0  0  0  0  0  0  0  0
  189.7260  172.7830  142.4650 C   0  0  0  0  0  2  0  0  0  0  0  0
  190.8040  173.5850  143.0810 C   0  0  2  0  0  3  0  0  0  0  0  0
  190.8320  176.0860  146.7360 N   0  0  0  0  0  2  0  0  0  0  0  0
  189.5190  177.9230  147.2970 O   0  0  0  0  0  0  0  0  0  0  0  0
  189.8100  177.0470  146.4370 C   0  0  0  0  0  0  0  0  0  0  0  0
  187.8170  177.5590  142.7000 C   0  0  1  0  0  3  0  0  0  0  0  0
  186.9410  177.7840  143.9540 C   0  0  2  0  0  3  0  0  0  0  0  0
  187.7080  177.6990  145.2900 C   0  0  0  0  0  2  0  0  0  0  0  0
  189.8190  177.6130  144.0770 N   0  0  0  0  0  0  0  0  0  0  0  0
  189.0570  176.9950  145.1400 C   0  0  1  0  0  3  0  0  0  0  0  0
  187.3400  178.3210  141.6370 O   0  0  0  0  0  1  0  0  0  0  0  0
  189.2660  177.8890  142.9470 C   0  0  0  0  0  3  0  0  0  0  0  0
  185.4660  176.4180  145.2420 F   0  0  0  0  0  0  0  0  0  0  0  0
  185.9530  175.7630  143.1420 F   0  0  0  0  0  0  0  0  0  0  0  0
  184.6160  177.5410  143.4950 F   0  0  0  0  0  0  0  0  0  0  0  0
  185.7250  176.8580  143.9560 C   0  0  0  0  0  0  0  0  0  0  0  0
  194.7460  173.2950  145.4200 O   0  0  0  0  0  0  0  0  0  0  0  0
  195.7360  174.2530  145.7650 C   0  0  0  0  0  2  0  0  0  0  0  0
  196.0060  175.9880  143.9640 C   0  0  0  0  0  0  0  0  0  0  0  0
  195.3160  176.8250  144.6060 O   0  0  0  0  0  0  0  0  0  0  0  0
  196.3720  174.7410  144.5560 N   0  0  0  0  0  2  0  0  0  0  0  0
  196.4600  176.3090  142.5850 C   0  0  0  0  0  2  0  0  0  0  0  0
  195.3630  176.6310  141.7890 O   0  0  0  0  0  1  0  0  0  0  0  0
  2  3  2  0  0  0  0
  3 24  1  0  0  0  0
  3  1  1  0  0  0  0
  4  1  1  0  0  0  0
  4 10  1  1  0  0  0
  5  4  1  0  0  0  0
  6  2  1  1  0  0  0
  6  5  1  0  0  0  0
  7  9  1  0  0  0  0
  8  7  1  0  0  0  0
  9  8  1  6  0  0  0
  9  6  1  0  0  0  0
 12 10  1  0  0  0  0
 12 11  2  0  0  0  0
 13 18  1  6  0  0  0
 13 19  1  0  0  0  0
 13 14  1  0  0  0  0
 14 23  1  1  0  0  0
 14 15  1  0  0  0  0
 16 17  1  0  0  0  0
 17 15  1  0  0  0  0
 17 12  1  1  0  0  0
 19 16  2  0  0  0  0
 21 23  1  0  0  0  0
 22 23  1  0  0  0  0
 23 20  1  0  0  0  0
 24 25  1  0  0  0  0
 26 28  1  0  0  0  0
 26 27  2  0  0  0  0
 28 25  1  0  0  0  0
 29 26  1  0  0  0  0
 30 29  1  0  0  0  0
M  END
>  <MODEL>
8

>  <REMARK>
 VINA RESULT:      -6.5      4.425      9.364
  Name = 
  8 active torsions:
  status: ('A' for Active; 'I' for Inactive)
    1  A    between atoms: O_2  and  C_19
    2  A    between atoms: O_2  and  C_20
    3  A    between atoms: N_4  and  C_22
    4  A    between atoms: C_8  and  C_14
    5  A    between atoms: C_9  and  C_26
    6  A    between atoms: C_11  and  C_25
    7  A    between atoms: C_19  and  N_29
    8  A    between atoms: C_24  and  C_27
                            x       y       z     vdW  Elec       q    Type
                         _______ _______ _______ _____ _____    ______ ____

>  <TORSDO>
F 8

$$$$
=
 OpenBabel11062419443D

 30 32  0  0  1  0  0  0  0  0999 V2000
  188.4390  176.4640  142.3520 C   0  0  0  0  0  2  0  0  0  0  0  0
  187.9240  177.5330  144.5370 C   0  0  0  0  0  3  0  0  0  0  0  0
  187.7770  177.5180  143.2080 C   0  0  0  0  0  0  0  0  0  0  0  0
  189.6160  175.7860  143.0520 C   0  0  1  0  0  3  0  0  0  0  0  0
  189.2260  175.3700  144.4640 C   0  0  0  0  0  2  0  0  0  0  0  0
  188.8220  176.5880  145.2940 C   0  0  1  0  0  3  0  0  0  0  0  0
  190.9260  176.4120  146.4120 O   0  0  0  0  0  0  0  0  0  0  0  0
  190.1320  177.1830  147.2770 C   0  0  0  0  0  2  0  0  0  0  0  0
  190.0460  177.3280  145.8100 C   0  0  2  0  0  3  0  0  0  0  0  0
  190.0950  174.6320  142.2960 N   0  0  0  0  0  2  0  0  0  0  0  0
  191.7350  173.4460  141.1490 O   0  0  0  0  0  0  0  0  0  0  0  0
  191.4670  174.3550  141.9820 C   0  0  0  0  0  0  0  0  0  0  0  0
  195.0440  176.0940  143.5250 C   0  0  1  0  0  3  0  0  0  0  0  0
  194.5340  174.8470  144.2830 C   0  0  2  0  0  3  0  0  0  0  0  0
  193.3020  174.1730  143.6440 C   0  0  0  0  0  2  0  0  0  0  0  0
  193.5200  175.6160  141.6930 N   0  0  0  0  0  0  0  0  0  0  0  0
  192.5800  175.0970  142.6620 C   0  0  1  0  0  3  0  0  0  0  0  0
  196.4280  176.1970  143.6460 O   0  0  0  0  0  1  0  0  0  0  0  0
  194.6650  176.0730  142.0670 C   0  0  0  0  0  3  0  0  0  0  0  0
  193.2460  174.3840  146.2400 F   0  0  0  0  0  0  0  0  0  0  0  0
  193.9760  176.4920  145.9270 F   0  0  0  0  0  0  0  0  0  0  0  0
  195.4230  174.8620  146.4930 F   0  0  0  0  0  0  0  0  0  0  0  0
  194.2890  175.1550  145.7600 C   0  0  0  0  0  0  0  0  0  0  0  0
  186.9310  178.4680  142.6330 O   0  0  0  0  0  0  0  0  0  0  0  0
  185.6020  178.1710  142.2330 C   0  0  0  0  0  2  0  0  0  0  0  0
  184.6880  178.9990  144.4250 C   0  0  0  0  0  0  0  0  0  0  0  0
  185.1100  180.1670  144.2100 O   0  0  0  0  0  0  0  0  0  0  0  0
  184.7740  177.9970  143.4120 N   0  0  0  0  0  2  0  0  0  0  0  0
  184.0760  178.6660  145.7390 C   0  0  0  0  0  2  0  0  0  0  0  0
  184.8150  177.6650  146.3650 O   0  0  0  0  0  1  0  0  0  0  0  0
  1  4  1  0  0  0  0
  1  3  1  0  0  0  0
  2  6  1  0  0  0  0
  3  2  2  0  0  0  0
  4 10  1  6  0  0  0
  4  5  1  0  0  0  0
  6  5  1  6  0  0  0
  6  9  1  0  0  0  0
  7  8  1  0  0  0  0
  9  7  1  0  0  0  0
  9  8  1  1  0  0  0
 11 12  2  0  0  0  0
 12 10  1  0  0  0  0
 13 18  1  6  0  0  0
 13 14  1  0  0  0  0
 14 23  1  1  0  0  0
 15 14  1  0  0  0  0
 16 19  2  0  0  0  0
 16 17  1  0  0  0  0
 17 12  1  6  0  0  0
 17 15  1  0  0  0  0
 19 13  1  0  0  0  0
 23 21  1  0  0  0  0
 23 20  1  0  0  0  0
 23 22  1  0  0  0  0
 24  3  1  0  0  0  0
 25 24  1  0  0  0  0
 25 28  1  0  0  0  0
 26 29  1  0  0  0  0
 27 26  2  0  0  0  0
 28 26  1  0  0  0  0
 29 30  1  0  0  0  0
M  END
>  <MODEL>
9

>  <REMARK>
 VINA RESULT:      -6.4      3.504      5.877
  Name = 
  8 active torsions:
  status: ('A' for Active; 'I' for Inactive)
    1  A    between atoms: O_2  and  C_19
    2  A    between atoms: O_2  and  C_20
    3  A    between atoms: N_4  and  C_22
    4  A    between atoms: C_8  and  C_14
    5  A    between atoms: C_9  and  C_26
    6  A    between atoms: C_11  and  C_25
    7  A    between atoms: C_19  and  N_29
    8  A    between atoms: C_24  and  C_27
                            x       y       z     vdW  Elec       q    Type
                         _______ _______ _______ _____ _____    ______ ____

>  <TORSDO>
F 8

$$$$
