=
 OpenBabel11062420133D

 52 58  0  0  1  0  0  0  0  0999 V2000
  190.3320  174.2550  145.9970 C   0  0  0  0  0  2  0  0  0  0  0  0
  194.0540  175.2500  145.9220 N   0  0  0  0  0  2  0  0  0  0  0  0
  189.6170  176.4230  147.1890 C   0  0  0  0  0  2  0  0  0  0  0  0
  190.1840  176.8030  144.6730 C   0  0  1  0  0  3  0  0  0  0  0  0
  189.5910  174.8880  147.1770 C   0  0  0  0  0  2  0  0  0  0  0  0
  191.5270  176.2150  145.0800 C   0  0  0  0  0  0  0  0  0  0  0  0
  193.9410  176.5190  145.2860 C   0  0  0  0  0  0  0  0  0  0  0  0
  189.2100  177.0670  145.8530 C   0  0  1  0  0  3  0  0  0  0  0  0
  191.5920  174.9960  145.6590 C   0  0  0  0  0  0  0  0  0  0  0  0
  194.9610  177.2390  145.1250 O   0  0  0  0  0  0  0  0  0  0  0  0
  192.9100  174.3400  146.0010 C   0  0  1  0  0  3  0  0  0  0  0  0
  192.6930  176.9640  144.8620 O   0  0  0  0  0  0  0  0  0  0  0  0
  194.5340  171.2520  144.8410 C   0  0  0  0  0  2  0  0  0  0  0  0
  194.1070  172.2110  145.8440 N   0  0  0  0  0  2  0  0  0  0  0  0
  193.1440  173.0740  145.1790 C   0  0  2  0  0  3  0  0  0  0  0  0
  193.7220  173.4300  143.4820 S   0  0  0  0  0  0  0  0  0  0  0  0
  194.8540  172.0160  143.5770 C   0  0  2  0  0  3  0  0  0  0  0  0
  196.0840  170.6130  141.6760 O   0  0  0  0  0  0  0  0  0  0  0  0
  194.7000  170.9790  142.1300 S   0  0  0  0  0  0  0  0  0  0  0  0
  193.9610  169.7190  142.4960 O   0  0  0  0  0  0  0  0  0  0  0  0
  193.8700  171.8150  140.8450 N   0  0  0  0  0  0  0  0  0  0  0  0
  195.4980  173.6570  140.2910 C   0  0  0  0  0  2  0  0  0  0  0  0
  195.6520  171.4470  139.1920 F   0  0  0  0  0  0  0  0  0  0  0  0
  194.9670  173.7890  137.9110 F   0  0  0  0  0  0  0  0  0  0  0  0
  194.4580  173.6090  139.1840 C   0  0  0  0  0  0  0  0  0  0  0  0
  194.8540  172.3350  139.8970 C   0  0  1  0  0  0  0  0  0  0  0  0
  193.2430  174.1800  139.5210 F   0  0  0  0  0  0  0  0  0  0  0  0
  193.0410  170.8480  140.1380 C   0  0  0  0  0  2  0  0  0  0  0  0
  191.5960  171.3090  140.1470 C   0  0  0  0  0  3  0  0  0  0  0  0
  190.7890  170.3790  141.0280 C   0  0  0  0  0  2  0  0  0  0  0  0
  190.7270  170.2370  139.5230 C   0  0  0  0  0  2  0  0  0  0  0  0
  191.7110  178.1340  143.3810 O   0  0  0  0  0  1  0  0  0  0  0  0
  190.3710  178.0290  143.7590 C   0  0  1  0  0  3  0  0  0  0  0  0
  189.3410  177.9940  142.2550 S   0  0  0  0  0  0  0  0  0  0  0  0
  190.1530  175.4580  141.6450 C   0  0  0  0  0  2  0  0  0  0  0  0
  188.1540  173.4990  141.6270 O   0  0  0  0  0  0  0  0  0  0  0  0
  189.1690  173.2730  142.5650 C   0  0  0  0  0  2  0  0  0  0  0  0
  187.6970  175.8550  141.8720 C   0  0  0  0  0  2  0  0  0  0  0  0
  189.0760  176.2060  142.4210 C   0  0  2  0  0  3  0  0  0  0  0  0
  190.4320  174.0620  142.2090 C   0  0  0  0  0  2  0  0  0  0  0  0
  187.2990  174.4250  142.2410 C   0  0  0  0  0  2  0  0  0  0  0  0
  187.7910  176.6590  145.4550 C   0  0  0  0  0  2  0  0  0  0  0  0
  186.8490  177.8530  145.4170 C   0  0  1  0  0  3  0  0  0  0  0  0
  185.5530  177.4610  144.6870 C   0  0  1  0  0  3  0  0  0  0  0  0
  184.2250  178.5240  147.7430 O   0  0  0  0  0  0  0  0  0  0  0  0
  184.9740  178.2180  146.7800 C   0  0  0  0  0  0  0  0  0  0  0  0
  186.4450  178.2660  146.8340 C   0  0  0  0  0  2  0  0  0  0  0  0
  184.4920  177.7900  145.5650 O   0  0  0  0  0  0  0  0  0  0  0  0
  184.6940  177.6260  142.3250 N   0  0  0  0  0  2  0  0  0  0  0  0
  186.0030  179.3230  143.2560 O   0  0  0  0  0  0  0  0  0  0  0  0
  185.4260  178.2120  143.4030 C   0  0  0  0  0  0  0  0  0  0  0  0
  184.6020  178.2630  141.0220 C   0  0  0  0  0  1  0  0  0  0  0  0
  1  5  1  0  0  0  0
  2 11  1  0  0  0  0
  4 33  1  1  0  0  0
  4  6  1  0  0  0  0
  4  8  1  0  0  0  0
  5  3  1  0  0  0  0
  6  9  2  0  0  0  0
  7  2  1  0  0  0  0
  8 42  1  6  0  0  0
  8  3  1  0  0  0  0
  9  1  1  0  0  0  0
 10  7  2  0  0  0  0
 11  9  1  6  0  0  0
 12  6  1  0  0  0  0
 12  7  1  0  0  0  0
 13 14  1  0  0  0  0
 15 16  1  6  0  0  0
 15 14  1  0  0  0  0
 15 11  1  0  0  0  0
 16 17  1  0  0  0  0
 17 19  1  6  0  0  0
 17 13  1  0  0  0  0
 18 19  2  0  0  0  0
 19 20  2  0  0  0  0
 21 19  1  0  0  0  0
 24 25  1  0  0  0  0
 25 27  1  0  0  0  0
 25 26  1  0  0  0  0
 25 22  1  0  0  0  0
 26 23  1  6  0  0  0
 26 22  1  0  0  0  0
 26 21  1  0  0  0  0
 28 29  1  0  0  0  0
 28 21  1  0  0  0  0
 29 30  1  0  0  0  0
 31 29  1  0  0  0  0
 31 30  1  0  0  0  0
 33 32  1  6  0  0  0
 34 33  1  0  0  0  0
 35 40  1  0  0  0  0
 35 39  1  0  0  0  0
 36 41  1  0  0  0  0
 36 37  1  0  0  0  0
 38 41  1  0  0  0  0
 38 39  1  0  0  0  0
 39 34  1  6  0  0  0
 40 37  1  0  0  0  0
 43 42  1  1  0  0  0
 43 47  1  0  0  0  0
 44 51  1  6  0  0  0
 44 43  1  0  0  0  0
 44 48  1  0  0  0  0
 46 47  1  0  0  0  0
 46 45  2  0  0  0  0
 48 46  1  0  0  0  0
 49 51  1  0  0  0  0
 50 51  2  0  0  0  0
 52 49  1  0  0  0  0
M  END
>  <MODEL>
1

>  <REMARK>
 VINA RESULT:      -7.4      0.000      0.000
  Name = 
  12 active torsions:
  status: ('A' for Active; 'I' for Inactive)
    1  A    between atoms: C_6  and  C_36
    2  A    between atoms: C_7  and  C_22
    3  A    between atoms: C_9  and  C_15
    4  A    between atoms: S_20  and  N_27
    5  A    between atoms: S_20  and  C_51
    6  A    between atoms: C_22  and  C_37
    7  A    between atoms: N_27  and  C_34
    8  A    between atoms: N_27  and  C_36
    9  A    between atoms: C_28  and  C_45
   10  A    between atoms: C_35  and  C_49
   11  A    between atoms: C_42  and  S_44
   12  A    between atoms: S_44  and  C_45
                            x       y       z     vdW  Elec       q    Type
                         _______ _______ _______ _____ _____    ______ ____

>  <TORSDO>
F 12

$$$$
=
 OpenBabel11062420133D

 52 58  0  0  1  0  0  0  0  0999 V2000
  192.0840  172.7140  143.8110 C   0  0  0  0  0  2  0  0  0  0  0  0
  189.7290  171.6490  140.9530 N   0  0  0  0  0  2  0  0  0  0  0  0
  193.8080  170.8740  143.2840 C   0  0  0  0  0  2  0  0  0  0  0  0
  193.8740  172.8310  141.5640 C   0  0  1  0  0  3  0  0  0  0  0  0
  192.9150  171.5420  144.3390 C   0  0  0  0  0  2  0  0  0  0  0  0
  192.4090  172.4650  141.3730 C   0  0  0  0  0  0  0  0  0  0  0  0
  190.6490  171.6940  139.8670 C   0  0  0  0  0  0  0  0  0  0  0  0
  194.6690  171.8600  142.4770 C   0  0  1  0  0  3  0  0  0  0  0  0
  191.5650  172.4580  142.4270 C   0  0  0  0  0  0  0  0  0  0  0  0
  190.2860  171.3360  138.7160 O   0  0  0  0  0  0  0  0  0  0  0  0
  190.0860  172.1840  142.2680 C   0  0  1  0  0  3  0  0  0  0  0  0
  191.9540  172.1170  140.0920 O   0  0  0  0  0  0  0  0  0  0  0  0
  187.3240  174.6060  142.1280 C   0  0  0  0  0  2  0  0  0  0  0  0
  187.9070  173.2780  142.0610 N   0  0  0  0  0  2  0  0  0  0  0  0
  189.2410  173.4040  142.6250 C   0  0  2  0  0  3  0  0  0  0  0  0
  189.9900  174.9730  142.0580 S   0  0  0  0  0  0  0  0  0  0  0  0
  188.3460  175.5870  141.6010 C   0  0  2  0  0  3  0  0  0  0  0  0
  189.4050  177.9160  142.3390 O   0  0  0  0  0  0  0  0  0  0  0  0
  188.0740  177.2260  142.2550 S   0  0  0  0  0  0  0  0  0  0  0  0
  187.1870  177.9980  141.3150 O   0  0  0  0  0  0  0  0  0  0  0  0
  187.3550  177.1570  143.8420 N   0  0  0  0  0  0  0  0  0  0  0  0
  188.8550  175.8050  145.3510 C   0  0  0  0  0  2  0  0  0  0  0  0
  189.3970  178.1510  144.7850 F   0  0  0  0  0  0  0  0  0  0  0  0
  188.6830  177.2710  147.2970 F   0  0  0  0  0  0  0  0  0  0  0  0
  188.0070  176.7090  146.2290 C   0  0  0  0  0  0  0  0  0  0  0  0
  188.4160  177.1740  144.8490 C   0  0  1  0  0  0  0  0  0  0  0  0
  186.7030  176.2760  146.3990 F   0  0  0  0  0  0  0  0  0  0  0  0
  186.5490  178.3560  144.0280 C   0  0  0  0  0  2  0  0  0  0  0  0
  185.0940  177.9710  144.2120 C   0  0  0  0  0  3  0  0  0  0  0  0
  184.2330  179.2020  144.0310 C   0  0  0  0  0  2  0  0  0  0  0  0
  184.5380  178.6930  145.4220 C   0  0  0  0  0  2  0  0  0  0  0  0
  194.5880  171.8990  139.4660 O   0  0  0  0  0  1  0  0  0  0  0  0
  194.5620  173.0830  140.2080 C   0  0  1  0  0  3  0  0  0  0  0  0
  193.7680  174.3810  139.2060 S   0  0  0  0  0  0  0  0  0  0  0  0
  196.3350  175.2770  138.9510 C   0  0  0  0  0  2  0  0  0  0  0  0
  197.1640  175.9070  136.3530 O   0  0  0  0  0  0  0  0  0  0  0  0
  197.9030  174.8820  136.9560 C   0  0  0  0  0  2  0  0  0  0  0  0
  194.8860  175.3470  136.9160 C   0  0  0  0  0  2  0  0  0  0  0  0
  195.2470  174.5530  138.1680 C   0  0  2  0  0  3  0  0  0  0  0  0
  197.7470  174.9170  138.4790 C   0  0  0  0  0  2  0  0  0  0  0  0
  196.0050  175.2800  135.8750 C   0  0  0  0  0  2  0  0  0  0  0  0
  195.5990  172.6550  143.3940 C   0  0  0  0  0  2  0  0  0  0  0  0
  195.3810  174.1550  143.2580 C   0  0  1  0  0  3  0  0  0  0  0  0
  195.3770  174.8010  144.6540 C   0  0  1  0  0  3  0  0  0  0  0  0
  197.9410  176.6410  143.1470 O   0  0  0  0  0  0  0  0  0  0  0  0
  197.0080  175.8380  143.4080 C   0  0  0  0  0  0  0  0  0  0  0  0
  196.5320  174.7980  142.4810 C   0  0  0  0  0  2  0  0  0  0  0  0
  196.3350  175.8420  144.6080 O   0  0  0  0  0  0  0  0  0  0  0  0
  193.5490  175.2680  146.3220 N   0  0  0  0  0  2  0  0  0  0  0  0
  193.2920  175.8120  144.0640 O   0  0  0  0  0  0  0  0  0  0  0  0
  194.0250  175.3430  144.9770 C   0  0  0  0  0  0  0  0  0  0  0  0
  192.2110  175.6990  146.6900 C   0  0  0  0  0  1  0  0  0  0  0  0
  1  5  1  0  0  0  0
  3  5  1  0  0  0  0
  4 33  1  6  0  0  0
  4  8  1  0  0  0  0
  6  4  1  0  0  0  0
  6  9  2  0  0  0  0
  7 12  1  0  0  0  0
  7  2  1  0  0  0  0
  8  3  1  0  0  0  0
  8 42  1  1  0  0  0
  9  1  1  0  0  0  0
 10  7  2  0  0  0  0
 11  2  1  6  0  0  0
 11  9  1  0  0  0  0
 11 15  1  0  0  0  0
 12  6  1  0  0  0  0
 14 13  1  0  0  0  0
 14 15  1  0  0  0  0
 15 16  1  6  0  0  0
 17 16  1  0  0  0  0
 17 13  1  0  0  0  0
 17 19  1  1  0  0  0
 19 18  2  0  0  0  0
 19 21  1  0  0  0  0
 20 19  2  0  0  0  0
 21 28  1  0  0  0  0
 21 26  1  0  0  0  0
 22 25  1  0  0  0  0
 25 27  1  0  0  0  0
 25 24  1  0  0  0  0
 26 23  1  6  0  0  0
 26 22  1  0  0  0  0
 26 25  1  0  0  0  0
 28 29  1  0  0  0  0
 29 31  1  0  0  0  0
 30 29  1  0  0  0  0
 30 31  1  0  0  0  0
 33 32  1  6  0  0  0
 34 33  1  0  0  0  0
 36 37  1  0  0  0  0
 37 40  1  0  0  0  0
 38 39  1  0  0  0  0
 39 35  1  0  0  0  0
 39 34  1  1  0  0  0
 40 35  1  0  0  0  0
 41 36  1  0  0  0  0
 41 38  1  0  0  0  0
 43 42  1  1  0  0  0
 43 44  1  0  0  0  0
 44 51  1  6  0  0  0
 45 46  2  0  0  0  0
 46 48  1  0  0  0  0
 47 43  1  0  0  0  0
 47 46  1  0  0  0  0
 48 44  1  0  0  0  0
 49 52  1  0  0  0  0
 50 51  2  0  0  0  0
 51 49  1  0  0  0  0
M  END
>  <MODEL>
2

>  <REMARK>
 VINA RESULT:      -7.1      3.386      9.072
  Name = 
  12 active torsions:
  status: ('A' for Active; 'I' for Inactive)
    1  A    between atoms: C_6  and  C_36
    2  A    between atoms: C_7  and  C_22
    3  A    between atoms: C_9  and  C_15
    4  A    between atoms: S_20  and  N_27
    5  A    between atoms: S_20  and  C_51
    6  A    between atoms: C_22  and  C_37
    7  A    between atoms: N_27  and  C_34
    8  A    between atoms: N_27  and  C_36
    9  A    between atoms: C_28  and  C_45
   10  A    between atoms: C_35  and  C_49
   11  A    between atoms: C_42  and  S_44
   12  A    between atoms: S_44  and  C_45
                            x       y       z     vdW  Elec       q    Type
                         _______ _______ _______ _____ _____    ______ ____

>  <TORSDO>
F 12

$$$$
=
 OpenBabel11062420133D

 52 58  0  0  1  0  0  0  0  0999 V2000
  193.1340  175.5890  142.9140 C   0  0  0  0  0  2  0  0  0  0  0  0
  193.8770  173.0930  145.7540 N   0  0  0  0  0  2  0  0  0  0  0  0
  195.3350  175.0770  141.6780 C   0  0  0  0  0  2  0  0  0  0  0  0
  193.5720  173.1760  141.4120 C   0  0  1  0  0  3  0  0  0  0  0  0
  194.4140  176.1450  142.2860 C   0  0  0  0  0  2  0  0  0  0  0  0
  193.6280  173.1670  142.9330 C   0  0  0  0  0  0  0  0  0  0  0  0
  194.1120  171.9230  144.9770 C   0  0  0  0  0  0  0  0  0  0  0  0
  194.6210  174.0980  140.7330 C   0  0  1  0  0  3  0  0  0  0  0  0
  193.3740  174.2940  143.6320 C   0  0  0  0  0  0  0  0  0  0  0  0
  194.4690  170.8530  145.5370 O   0  0  0  0  0  0  0  0  0  0  0  0
  193.3350  174.3080  145.1440 C   0  0  1  0  0  3  0  0  0  0  0  0
  193.9640  171.9770  143.5950 O   0  0  0  0  0  0  0  0  0  0  0  0
  189.6640  174.3530  145.3300 C   0  0  0  0  0  2  0  0  0  0  0  0
  190.9550  173.7450  145.0640 N   0  0  0  0  0  2  0  0  0  0  0  0
  191.9390  174.6250  145.6730 C   0  0  2  0  0  3  0  0  0  0  0  0
  191.4520  176.3640  145.3850 S   0  0  0  0  0  0  0  0  0  0  0  0
  189.7670  175.8220  144.9940 C   0  0  2  0  0  3  0  0  0  0  0  0
  187.7520  175.8380  146.7360 O   0  0  0  0  0  0  0  0  0  0  0  0
  188.5630  176.7840  145.8970 S   0  0  0  0  0  0  0  0  0  0  0  0
  189.2760  177.7480  146.8080 O   0  0  0  0  0  0  0  0  0  0  0  0
  187.5070  177.6480  144.8110 N   0  0  0  0  0  0  0  0  0  0  0  0
  188.6230  177.6880  142.5520 C   0  0  0  0  0  2  0  0  0  0  0  0
  187.3990  175.6870  143.3320 F   0  0  0  0  0  0  0  0  0  0  0  0
  186.6020  177.2910  141.2390 F   0  0  0  0  0  0  0  0  0  0  0  0
  187.1380  177.9330  142.3410 C   0  0  0  0  0  0  0  0  0  0  0  0
  187.5990  177.0500  143.4790 C   0  0  1  0  0  0  0  0  0  0  0  0
  186.7230  179.2160  142.6520 F   0  0  0  0  0  0  0  0  0  0  0  0
  186.1380  177.4790  145.2800 C   0  0  0  0  0  2  0  0  0  0  0  0
  185.5800  178.8180  145.7210 C   0  0  0  0  0  3  0  0  0  0  0  0
  185.5300  178.8560  147.2340 C   0  0  0  0  0  2  0  0  0  0  0  0
  184.2670  178.5960  146.4430 C   0  0  0  0  0  2  0  0  0  0  0  0
  194.7610  171.0970  141.2120 O   0  0  0  0  0  1  0  0  0  0  0  0
  193.5760  171.7410  140.8490 C   0  0  1  0  0  3  0  0  0  0  0  0
  192.1670  170.7270  141.4030 S   0  0  0  0  0  0  0  0  0  0  0  0
  190.0300  172.3700  141.8400 C   0  0  0  0  0  2  0  0  0  0  0  0
  188.3980  172.8800  139.6240 O   0  0  0  0  0  0  0  0  0  0  0  0
  189.0020  174.0220  140.1640 C   0  0  0  0  0  2  0  0  0  0  0  0
  190.1940  171.2690  139.6030 C   0  0  0  0  0  2  0  0  0  0  0  0
  190.9800  171.9250  140.7340 C   0  0  2  0  0  3  0  0  0  0  0  0
  189.4590  173.7720  141.6050 C   0  0  0  0  0  2  0  0  0  0  0  0
  189.3870  172.3020  138.8150 C   0  0  0  0  0  2  0  0  0  0  0  0
  193.9780  174.8370  139.5590 C   0  0  0  0  0  2  0  0  0  0  0  0
  194.5310  174.3640  138.2220 C   0  0  1  0  0  3  0  0  0  0  0  0
  193.9200  175.2050  137.0890 C   0  0  1  0  0  3  0  0  0  0  0  0
  197.3190  175.7740  136.4950 O   0  0  0  0  0  0  0  0  0  0  0  0
  196.2070  175.3940  136.9440 C   0  0  0  0  0  0  0  0  0  0  0  0
  196.0450  174.5790  138.1600 C   0  0  0  0  0  2  0  0  0  0  0  0
  195.0120  175.7140  136.3440 O   0  0  0  0  0  0  0  0  0  0  0  0
  192.5630  173.1140  136.7280 N   0  0  0  0  0  2  0  0  0  0  0  0
  192.7680  174.7260  135.0490 O   0  0  0  0  0  0  0  0  0  0  0  0
  193.0400  174.3630  136.2260 C   0  0  0  0  0  0  0  0  0  0  0  0
  191.7730  172.2080  135.9120 C   0  0  0  0  0  1  0  0  0  0  0  0
  1  9  1  0  0  0  0
  3  5  1  0  0  0  0
  4 33  1  6  0  0  0
  4  6  1  0  0  0  0
  5  1  1  0  0  0  0
  6 12  1  0  0  0  0
  6  9  2  0  0  0  0
  7 10  2  0  0  0  0
  7  2  1  0  0  0  0
  8 42  1  6  0  0  0
  8  4  1  0  0  0  0
  8  3  1  0  0  0  0
 11  9  1  6  0  0  0
 11 15  1  0  0  0  0
 11  2  1  0  0  0  0
 12  7  1  0  0  0  0
 14 13  1  0  0  0  0
 15 14  1  6  0  0  0
 16 15  1  0  0  0  0
 17 13  1  0  0  0  0
 17 16  1  0  0  0  0
 17 19  1  1  0  0  0
 19 18  2  0  0  0  0
 19 20  2  0  0  0  0
 21 28  1  0  0  0  0
 21 19  1  0  0  0  0
 22 26  1  0  0  0  0
 24 25  1  0  0  0  0
 25 22  1  0  0  0  0
 25 27  1  0  0  0  0
 25 26  1  0  0  0  0
 26 23  1  6  0  0  0
 26 21  1  0  0  0  0
 28 29  1  0  0  0  0
 29 31  1  0  0  0  0
 29 30  1  0  0  0  0
 31 30  1  0  0  0  0
 33 32  1  1  0  0  0
 33 34  1  0  0  0  0
 36 37  1  0  0  0  0
 37 40  1  0  0  0  0
 38 39  1  0  0  0  0
 39 34  1  1  0  0  0
 39 35  1  0  0  0  0
 40 35  1  0  0  0  0
 41 38  1  0  0  0  0
 41 36  1  0  0  0  0
 43 42  1  1  0  0  0
 44 51  1  6  0  0  0
 44 43  1  0  0  0  0
 45 46  2  0  0  0  0
 46 47  1  0  0  0  0
 47 43  1  0  0  0  0
 48 46  1  0  0  0  0
 48 44  1  0  0  0  0
 50 51  2  0  0  0  0
 51 49  1  0  0  0  0
 52 49  1  0  0  0  0
M  END
>  <MODEL>
3

>  <REMARK>
 VINA RESULT:      -7.1      3.487      8.703
  Name = 
  12 active torsions:
  status: ('A' for Active; 'I' for Inactive)
    1  A    between atoms: C_6  and  C_36
    2  A    between atoms: C_7  and  C_22
    3  A    between atoms: C_9  and  C_15
    4  A    between atoms: S_20  and  N_27
    5  A    between atoms: S_20  and  C_51
    6  A    between atoms: C_22  and  C_37
    7  A    between atoms: N_27  and  C_34
    8  A    between atoms: N_27  and  C_36
    9  A    between atoms: C_28  and  C_45
   10  A    between atoms: C_35  and  C_49
   11  A    between atoms: C_42  and  S_44
   12  A    between atoms: S_44  and  C_45
                            x       y       z     vdW  Elec       q    Type
                         _______ _______ _______ _____ _____    ______ ____

>  <TORSDO>
F 12

$$$$
=
 OpenBabel11062420133D

 52 58  0  0  1  0  0  0  0  0999 V2000
  192.8240  175.4400  142.7800 C   0  0  0  0  0  2  0  0  0  0  0  0
  194.0320  173.1790  145.6560 N   0  0  0  0  0  2  0  0  0  0  0  0
  194.9600  175.0740  141.3880 C   0  0  0  0  0  2  0  0  0  0  0  0
  193.3760  173.0040  141.3560 C   0  0  1  0  0  3  0  0  0  0  0  0
  193.9900  176.0810  142.0220 C   0  0  0  0  0  2  0  0  0  0  0  0
  193.5540  173.0800  142.8660 C   0  0  0  0  0  0  0  0  0  0  0  0
  194.3180  171.9960  144.9160 C   0  0  0  0  0  0  0  0  0  0  0  0
  194.2720  173.9830  140.5510 C   0  0  1  0  0  3  0  0  0  0  0  0
  193.2470  174.2140  143.5330 C   0  0  0  0  0  0  0  0  0  0  0  0
  194.8210  170.9960  145.4910 O   0  0  0  0  0  0  0  0  0  0  0  0
  193.3270  174.3040  145.0400 C   0  0  1  0  0  3  0  0  0  0  0  0
  194.0560  171.9630  143.5500 O   0  0  0  0  0  0  0  0  0  0  0  0
  189.6800  174.1180  145.4640 C   0  0  0  0  0  2  0  0  0  0  0  0
  190.9840  173.6000  145.0900 N   0  0  0  0  0  2  0  0  0  0  0  0
  191.9530  174.5160  145.6700 C   0  0  2  0  0  3  0  0  0  0  0  0
  191.3480  176.2310  145.4850 S   0  0  0  0  0  0  0  0  0  0  0  0
  189.6740  175.6020  145.1810 C   0  0  2  0  0  3  0  0  0  0  0  0
  187.9950  175.4940  147.2460 O   0  0  0  0  0  0  0  0  0  0  0  0
  188.4790  176.4550  146.1990 S   0  0  0  0  0  0  0  0  0  0  0  0
  189.1460  177.6200  146.8820 O   0  0  0  0  0  0  0  0  0  0  0  0
  187.1260  177.0070  145.2480 N   0  0  0  0  0  0  0  0  0  0  0  0
  184.9680  176.9220  146.5460 C   0  0  0  0  0  2  0  0  0  0  0  0
  186.6790  178.6400  147.0310 F   0  0  0  0  0  0  0  0  0  0  0  0
  184.1980  179.1610  145.9510 F   0  0  0  0  0  0  0  0  0  0  0  0
  184.8390  178.0210  145.5050 C   0  0  0  0  0  0  0  0  0  0  0  0
  186.1900  177.7210  146.1160 C   0  0  1  0  0  0  0  0  0  0  0  0
  184.6010  177.5620  144.2210 F   0  0  0  0  0  0  0  0  0  0  0  0
  187.6240  177.9560  144.2600 C   0  0  0  0  0  2  0  0  0  0  0  0
  187.6080  177.3170  142.8850 C   0  0  0  0  0  3  0  0  0  0  0  0
  188.6110  178.0260  142.0010 C   0  0  0  0  0  2  0  0  0  0  0  0
  187.1370  178.3360  141.8670 C   0  0  0  0  0  2  0  0  0  0  0  0
  194.6210  170.9480  141.3900 O   0  0  0  0  0  1  0  0  0  0  0  0
  193.4760  171.5480  140.8600 C   0  0  1  0  0  3  0  0  0  0  0  0
  192.0300  170.5230  141.2840 S   0  0  0  0  0  0  0  0  0  0  0  0
  189.8860  172.1170  141.8490 C   0  0  0  0  0  2  0  0  0  0  0  0
  188.3740  172.9680  139.6530 O   0  0  0  0  0  0  0  0  0  0  0  0
  188.9570  174.0100  140.3840 C   0  0  0  0  0  2  0  0  0  0  0  0
  190.1560  171.3500  139.4870 C   0  0  0  0  0  2  0  0  0  0  0  0
  190.8870  171.8230  140.7390 C   0  0  2  0  0  3  0  0  0  0  0  0
  189.3370  173.5460  141.7930 C   0  0  0  0  0  2  0  0  0  0  0  0
  189.3990  172.4990  138.8180 C   0  0  0  0  0  2  0  0  0  0  0  0
  193.4690  174.5950  139.4030 C   0  0  0  0  0  2  0  0  0  0  0  0
  194.0330  174.2040  138.0450 C   0  0  1  0  0  3  0  0  0  0  0  0
  195.4790  173.7090  138.2140 C   0  0  1  0  0  3  0  0  0  0  0  0
  194.0650  170.9130  136.6620 O   0  0  0  0  0  0  0  0  0  0  0  0
  194.2830  172.0330  137.1920 C   0  0  0  0  0  0  0  0  0  0  0  0
  193.2390  173.0390  137.4480 C   0  0  0  0  0  2  0  0  0  0  0  0
  195.5320  172.4330  137.6040 O   0  0  0  0  0  0  0  0  0  0  0  0
  195.9960  175.4170  136.4370 N   0  0  0  0  0  2  0  0  0  0  0  0
  197.6310  174.7180  137.9530 O   0  0  0  0  0  0  0  0  0  0  0  0
  196.4360  174.6480  137.5570 C   0  0  0  0  0  0  0  0  0  0  0  0
  196.8970  176.2860  135.6980 C   0  0  0  0  0  1  0  0  0  0  0  0
  1  9  1  0  0  0  0
  3  5  1  0  0  0  0
  4 33  1  6  0  0  0
  4  6  1  0  0  0  0
  5  1  1  0  0  0  0
  6  9  2  0  0  0  0
  6 12  1  0  0  0  0
  7 10  2  0  0  0  0
  7  2  1  0  0  0  0
  8 42  1  6  0  0  0
  8  4  1  0  0  0  0
  8  3  1  0  0  0  0
 11  9  1  6  0  0  0
 11  2  1  0  0  0  0
 11 15  1  0  0  0  0
 12  7  1  0  0  0  0
 14 13  1  0  0  0  0
 15 14  1  6  0  0  0
 16 15  1  0  0  0  0
 17 13  1  0  0  0  0
 17 16  1  0  0  0  0
 17 19  1  1  0  0  0
 19 20  2  0  0  0  0
 19 18  2  0  0  0  0
 21 26  1  0  0  0  0
 21 19  1  0  0  0  0
 25 24  1  0  0  0  0
 25 26  1  0  0  0  0
 25 22  1  0  0  0  0
 26 22  1  0  0  0  0
 26 23  1  1  0  0  0
 27 25  1  0  0  0  0
 28 21  1  0  0  0  0
 29 28  1  0  0  0  0
 30 29  1  0  0  0  0
 31 30  1  0  0  0  0
 31 29  1  0  0  0  0
 33 34  1  0  0  0  0
 33 32  1  1  0  0  0
 36 37  1  0  0  0  0
 37 40  1  0  0  0  0
 38 39  1  0  0  0  0
 39 34  1  1  0  0  0
 39 35  1  0  0  0  0
 40 35  1  0  0  0  0
 41 38  1  0  0  0  0
 41 36  1  0  0  0  0
 43 44  1  0  0  0  0
 43 42  1  1  0  0  0
 44 51  1  6  0  0  0
 45 46  2  0  0  0  0
 46 47  1  0  0  0  0
 46 48  1  0  0  0  0
 47 43  1  0  0  0  0
 48 44  1  0  0  0  0
 49 51  1  0  0  0  0
 51 50  2  0  0  0  0
 52 49  1  0  0  0  0
M  END
>  <MODEL>
4

>  <REMARK>
 VINA RESULT:      -7.0      3.859      9.134
  Name = 
  12 active torsions:
  status: ('A' for Active; 'I' for Inactive)
    1  A    between atoms: C_6  and  C_36
    2  A    between atoms: C_7  and  C_22
    3  A    between atoms: C_9  and  C_15
    4  A    between atoms: S_20  and  N_27
    5  A    between atoms: S_20  and  C_51
    6  A    between atoms: C_22  and  C_37
    7  A    between atoms: N_27  and  C_34
    8  A    between atoms: N_27  and  C_36
    9  A    between atoms: C_28  and  C_45
   10  A    between atoms: C_35  and  C_49
   11  A    between atoms: C_42  and  S_44
   12  A    between atoms: S_44  and  C_45
                            x       y       z     vdW  Elec       q    Type
                         _______ _______ _______ _____ _____    ______ ____

>  <TORSDO>
F 12

$$$$
=
 OpenBabel11062420133D

 52 58  0  0  1  0  0  0  0  0999 V2000
  193.0820  175.3990  142.9330 C   0  0  0  0  0  2  0  0  0  0  0  0
  193.8970  172.6730  145.5310 N   0  0  0  0  0  2  0  0  0  0  0  0
  195.2340  174.9740  141.5820 C   0  0  0  0  0  2  0  0  0  0  0  0
  193.4420  173.1150  141.2240 C   0  0  1  0  0  3  0  0  0  0  0  0
  194.3460  175.9950  142.3080 C   0  0  0  0  0  2  0  0  0  0  0  0
  193.5500  172.9800  142.7360 C   0  0  0  0  0  0  0  0  0  0  0  0
  194.0910  171.5680  144.6530 C   0  0  0  0  0  0  0  0  0  0  0  0
  194.4760  174.0810  140.5860 C   0  0  1  0  0  3  0  0  0  0  0  0
  193.3330  174.0480  143.5340 C   0  0  0  0  0  0  0  0  0  0  0  0
  194.4550  170.4530  145.1100 O   0  0  0  0  0  0  0  0  0  0  0  0
  193.3470  173.9380  145.0420 C   0  0  1  0  0  3  0  0  0  0  0  0
  193.8960  171.7370  143.2870 O   0  0  0  0  0  0  0  0  0  0  0  0
  189.6850  174.0140  145.3530 C   0  0  0  0  0  2  0  0  0  0  0  0
  190.9570  173.4170  144.9870 N   0  0  0  0  0  2  0  0  0  0  0  0
  191.9730  174.2220  145.6450 C   0  0  2  0  0  3  0  0  0  0  0  0
  191.5070  175.9870  145.5410 S   0  0  0  0  0  0  0  0  0  0  0  0
  189.8010  175.5080  145.1550 C   0  0  2  0  0  3  0  0  0  0  0  0
  188.1870  175.4650  147.2730 O   0  0  0  0  0  0  0  0  0  0  0  0
  188.6430  176.3950  146.1860 S   0  0  0  0  0  0  0  0  0  0  0  0
  189.3360  177.5740  146.8160 O   0  0  0  0  0  0  0  0  0  0  0  0
  187.2630  176.9290  145.2630 N   0  0  0  0  0  0  0  0  0  0  0  0
  185.1020  176.7920  146.5520 C   0  0  0  0  0  2  0  0  0  0  0  0
  186.8100  178.4930  147.1040 F   0  0  0  0  0  0  0  0  0  0  0  0
  184.3310  179.0520  146.0390 F   0  0  0  0  0  0  0  0  0  0  0  0
  184.9750  177.9290  145.5520 C   0  0  0  0  0  0  0  0  0  0  0  0
  186.3240  177.6080  146.1550 C   0  0  1  0  0  0  0  0  0  0  0  0
  184.7400  177.5180  144.2510 F   0  0  0  0  0  0  0  0  0  0  0  0
  187.7250  177.9020  144.2810 C   0  0  0  0  0  2  0  0  0  0  0  0
  187.7200  177.2760  142.9000 C   0  0  0  0  0  3  0  0  0  0  0  0
  188.6990  178.0210  142.0180 C   0  0  0  0  0  2  0  0  0  0  0  0
  187.2150  178.2900  141.8950 C   0  0  0  0  0  2  0  0  0  0  0  0
  194.5880  171.0380  140.8360 O   0  0  0  0  0  1  0  0  0  0  0  0
  193.4100  171.7310  140.5460 C   0  0  1  0  0  3  0  0  0  0  0  0
  191.9910  170.7000  141.0380 S   0  0  0  0  0  0  0  0  0  0  0  0
  189.9090  172.3400  141.6960 C   0  0  0  0  0  2  0  0  0  0  0  0
  188.2330  173.1050  139.5900 O   0  0  0  0  0  0  0  0  0  0  0  0
  188.8790  174.1740  140.2230 C   0  0  0  0  0  2  0  0  0  0  0  0
  189.9850  171.4630  139.3580 C   0  0  0  0  0  2  0  0  0  0  0  0
  190.8170  171.9860  140.5250 C   0  0  2  0  0  3  0  0  0  0  0  0
  189.3670  173.7710  141.6180 C   0  0  0  0  0  2  0  0  0  0  0  0
  189.1850  172.5880  138.6990 C   0  0  0  0  0  2  0  0  0  0  0  0
  193.8010  174.9190  139.5000 C   0  0  0  0  0  2  0  0  0  0  0  0
  194.1420  174.4180  138.1040 C   0  0  1  0  0  3  0  0  0  0  0  0
  193.9540  175.5580  137.0900 C   0  0  1  0  0  3  0  0  0  0  0  0
  197.3000  174.7500  136.4740 O   0  0  0  0  0  0  0  0  0  0  0  0
  196.1200  174.8090  136.9070 C   0  0  0  0  0  0  0  0  0  0  0  0
  195.6120  174.0000  138.0270 C   0  0  0  0  0  2  0  0  0  0  0  0
  195.1750  175.6560  136.3790 O   0  0  0  0  0  0  0  0  0  0  0  0
  192.0460  176.3310  135.6380 N   0  0  0  0  0  2  0  0  0  0  0  0
  192.5340  174.0590  135.8850 O   0  0  0  0  0  0  0  0  0  0  0  0
  192.8260  175.2540  136.1600 C   0  0  0  0  0  0  0  0  0  0  0  0
  190.8840  176.1010  134.7970 C   0  0  0  0  0  1  0  0  0  0  0  0
  1  9  1  0  0  0  0
  3  5  1  0  0  0  0
  4 33  1  6  0  0  0
  4  6  1  0  0  0  0
  5  1  1  0  0  0  0
  6 12  1  0  0  0  0
  6  9  2  0  0  0  0
  7 10  2  0  0  0  0
  7  2  1  0  0  0  0
  8 42  1  6  0  0  0
  8  4  1  0  0  0  0
  8  3  1  0  0  0  0
 11  9  1  6  0  0  0
 11  2  1  0  0  0  0
 11 15  1  0  0  0  0
 12  7  1  0  0  0  0
 14 13  1  0  0  0  0
 15 14  1  6  0  0  0
 16 15  1  0  0  0  0
 17 13  1  0  0  0  0
 17 16  1  0  0  0  0
 17 19  1  1  0  0  0
 19 20  2  0  0  0  0
 19 18  2  0  0  0  0
 21 26  1  0  0  0  0
 21 19  1  0  0  0  0
 25 24  1  0  0  0  0
 25 26  1  0  0  0  0
 25 22  1  0  0  0  0
 26 22  1  0  0  0  0
 26 23  1  1  0  0  0
 27 25  1  0  0  0  0
 28 21  1  0  0  0  0
 29 28  1  0  0  0  0
 30 29  1  0  0  0  0
 31 30  1  0  0  0  0
 31 29  1  0  0  0  0
 33 32  1  1  0  0  0
 33 34  1  0  0  0  0
 36 37  1  0  0  0  0
 37 40  1  0  0  0  0
 38 39  1  0  0  0  0
 39 34  1  1  0  0  0
 39 35  1  0  0  0  0
 40 35  1  0  0  0  0
 41 38  1  0  0  0  0
 41 36  1  0  0  0  0
 43 42  1  1  0  0  0
 44 51  1  6  0  0  0
 44 43  1  0  0  0  0
 45 46  2  0  0  0  0
 46 47  1  0  0  0  0
 47 43  1  0  0  0  0
 48 46  1  0  0  0  0
 48 44  1  0  0  0  0
 49 51  1  0  0  0  0
 50 51  2  0  0  0  0
 52 49  1  0  0  0  0
M  END
>  <MODEL>
5

>  <REMARK>
 VINA RESULT:      -7.0      4.057      8.850
  Name = 
  12 active torsions:
  status: ('A' for Active; 'I' for Inactive)
    1  A    between atoms: C_6  and  C_36
    2  A    between atoms: C_7  and  C_22
    3  A    between atoms: C_9  and  C_15
    4  A    between atoms: S_20  and  N_27
    5  A    between atoms: S_20  and  C_51
    6  A    between atoms: C_22  and  C_37
    7  A    between atoms: N_27  and  C_34
    8  A    between atoms: N_27  and  C_36
    9  A    between atoms: C_28  and  C_45
   10  A    between atoms: C_35  and  C_49
   11  A    between atoms: C_42  and  S_44
   12  A    between atoms: S_44  and  C_45
                            x       y       z     vdW  Elec       q    Type
                         _______ _______ _______ _____ _____    ______ ____

>  <TORSDO>
F 12

$$$$
=
 OpenBabel11062420133D

 52 58  0  0  1  0  0  0  0  0999 V2000
  189.7280  173.5010  139.6850 C   0  0  0  0  0  2  0  0  0  0  0  0
  190.8850  169.8360  139.9650 N   0  0  0  0  0  2  0  0  0  0  0  0
  187.9710  173.2510  141.5520 C   0  0  0  0  0  2  0  0  0  0  0  0
  190.4050  173.3600  142.4760 C   0  0  1  0  0  3  0  0  0  0  0  0
  188.2670  173.6770  140.1060 C   0  0  0  0  0  2  0  0  0  0  0  0
  190.6050  172.1570  141.5650 C   0  0  0  0  0  0  0  0  0  0  0  0
  191.1880  169.7950  141.3560 C   0  0  0  0  0  0  0  0  0  0  0  0
  188.9360  173.8450  142.5910 C   0  0  1  0  0  3  0  0  0  0  0  0
  190.3290  172.2460  140.2460 C   0  0  0  0  0  0  0  0  0  0  0  0
  191.5480  168.7150  141.8930 O   0  0  0  0  0  0  0  0  0  0  0  0
  190.5940  171.1030  139.2930 C   0  0  1  0  0  3  0  0  0  0  0  0
  191.0630  170.9520  142.1180 O   0  0  0  0  0  0  0  0  0  0  0  0
  193.2860  170.6140  136.8370 C   0  0  0  0  0  2  0  0  0  0  0  0
  192.0350  170.2810  137.4930 N   0  0  0  0  0  2  0  0  0  0  0  0
  191.6730  171.4550  138.2700 C   0  0  2  0  0  3  0  0  0  0  0  0
  193.1750  172.1560  139.0410 S   0  0  0  0  0  0  0  0  0  0  0  0
  194.2020  171.2260  137.8720 C   0  0  2  0  0  3  0  0  0  0  0  0
  196.7740  171.6640  137.3350 O   0  0  0  0  0  0  0  0  0  0  0  0
  195.4250  172.2860  137.1150 S   0  0  0  0  0  0  0  0  0  0  0  0
  195.1660  172.3700  135.6340 O   0  0  0  0  0  0  0  0  0  0  0  0
  195.3980  173.8790  137.8240 N   0  0  0  0  0  0  0  0  0  0  0  0
  197.1160  173.7910  139.6660 C   0  0  0  0  0  2  0  0  0  0  0  0
  197.7780  174.2460  137.3270 F   0  0  0  0  0  0  0  0  0  0  0  0
  197.9410  176.0720  139.3840 F   0  0  0  0  0  0  0  0  0  0  0  0
  196.8260  175.2530  139.3710 C   0  0  0  0  0  0  0  0  0  0  0  0
  196.7490  174.2330  138.2560 C   0  0  1  0  0  0  0  0  0  0  0  0
  195.6340  175.7140  139.9010 F   0  0  0  0  0  0  0  0  0  0  0  0
  195.0000  174.8270  136.7910 C   0  0  0  0  0  2  0  0  0  0  0  0
  193.7370  175.5490  137.2200 C   0  0  0  0  0  3  0  0  0  0  0  0
  192.5520  174.9270  136.5130 C   0  0  0  0  0  2  0  0  0  0  0  0
  193.1250  176.2360  136.0170 C   0  0  0  0  0  2  0  0  0  0  0  0
  190.4030  172.1230  144.5370 O   0  0  0  0  0  1  0  0  0  0  0  0
  191.0750  173.1340  143.8460 C   0  0  1  0  0  3  0  0  0  0  0  0
  192.8400  172.6960  143.7420 S   0  0  0  0  0  0  0  0  0  0  0  0
  192.7420  175.4080  144.0450 C   0  0  0  0  0  2  0  0  0  0  0  0
  194.8880  176.5710  145.4140 O   0  0  0  0  0  0  0  0  0  0  0  0
  193.6460  176.7600  146.0320 C   0  0  0  0  0  2  0  0  0  0  0  0
  194.8320  174.2470  144.7700 C   0  0  0  0  0  2  0  0  0  0  0  0
  193.3100  174.1590  144.7070 C   0  0  2  0  0  3  0  0  0  0  0  0
  192.5010  176.5500  145.0370 C   0  0  0  0  0  2  0  0  0  0  0  0
  195.2870  175.2830  145.7980 C   0  0  0  0  0  2  0  0  0  0  0  0
  188.8920  175.3740  142.5700 C   0  0  0  0  0  2  0  0  0  0  0  0
  187.7660  175.9190  143.4360 C   0  0  1  0  0  3  0  0  0  0  0  0
  188.3510  176.8450  144.5160 C   0  0  1  0  0  3  0  0  0  0  0  0
  186.1070  179.0490  142.9870 O   0  0  0  0  0  0  0  0  0  0  0  0
  186.8040  178.0560  143.3230 C   0  0  0  0  0  0  0  0  0  0  0  0
  186.8090  176.7720  142.6010 C   0  0  0  0  0  2  0  0  0  0  0  0
  187.6520  178.0710  144.4040 O   0  0  0  0  0  0  0  0  0  0  0  0
  189.1140  175.3020  146.3560 N   0  0  0  0  0  2  0  0  0  0  0  0
  187.1480  176.5490  146.5620 O   0  0  0  0  0  0  0  0  0  0  0  0
  188.1630  176.2530  145.8740 C   0  0  0  0  0  0  0  0  0  0  0  0
  188.9460  174.6250  147.6300 C   0  0  0  0  0  1  0  0  0  0  0  0
  1  5  1  0  0  0  0
  1  9  1  0  0  0  0
  2  7  1  0  0  0  0
  3  8  1  0  0  0  0
  4  8  1  0  0  0  0
  4 33  1  1  0  0  0
  5  3  1  0  0  0  0
  6 12  1  0  0  0  0
  6  4  1  0  0  0  0
  7 10  2  0  0  0  0
  7 12  1  0  0  0  0
  8 42  1  6  0  0  0
  9  6  2  0  0  0  0
 11  2  1  1  0  0  0
 11  9  1  0  0  0  0
 13 14  1  0  0  0  0
 13 17  1  0  0  0  0
 15 14  1  1  0  0  0
 15 16  1  0  0  0  0
 15 11  1  0  0  0  0
 17 19  1  6  0  0  0
 17 16  1  0  0  0  0
 19 18  2  0  0  0  0
 19 21  1  0  0  0  0
 20 19  2  0  0  0  0
 21 26  1  0  0  0  0
 25 24  1  0  0  0  0
 25 22  1  0  0  0  0
 25 27  1  0  0  0  0
 26 23  1  6  0  0  0
 26 25  1  0  0  0  0
 26 22  1  0  0  0  0
 28 29  1  0  0  0  0
 28 21  1  0  0  0  0
 30 29  1  0  0  0  0
 31 30  1  0  0  0  0
 31 29  1  0  0  0  0
 33 32  1  6  0  0  0
 34 33  1  0  0  0  0
 35 39  1  0  0  0  0
 35 40  1  0  0  0  0
 36 41  1  0  0  0  0
 36 37  1  0  0  0  0
 38 41  1  0  0  0  0
 39 34  1  6  0  0  0
 39 38  1  0  0  0  0
 40 37  1  0  0  0  0
 43 42  1  6  0  0  0
 43 44  1  0  0  0  0
 44 51  1  1  0  0  0
 45 46  2  0  0  0  0
 46 48  1  0  0  0  0
 47 46  1  0  0  0  0
 47 43  1  0  0  0  0
 48 44  1  0  0  0  0
 49 52  1  0  0  0  0
 51 49  1  0  0  0  0
 51 50  2  0  0  0  0
M  END
>  <MODEL>
6

>  <REMARK>
 VINA RESULT:      -6.7      2.802      5.972
  Name = 
  12 active torsions:
  status: ('A' for Active; 'I' for Inactive)
    1  A    between atoms: C_6  and  C_36
    2  A    between atoms: C_7  and  C_22
    3  A    between atoms: C_9  and  C_15
    4  A    between atoms: S_20  and  N_27
    5  A    between atoms: S_20  and  C_51
    6  A    between atoms: C_22  and  C_37
    7  A    between atoms: N_27  and  C_34
    8  A    between atoms: N_27  and  C_36
    9  A    between atoms: C_28  and  C_45
   10  A    between atoms: C_35  and  C_49
   11  A    between atoms: C_42  and  S_44
   12  A    between atoms: S_44  and  C_45
                            x       y       z     vdW  Elec       q    Type
                         _______ _______ _______ _____ _____    ______ ____

>  <TORSDO>
F 12

$$$$
=
 OpenBabel11062420133D

 52 58  0  0  1  0  0  0  0  0999 V2000
  192.2600  172.7170  143.9020 C   0  0  0  0  0  2  0  0  0  0  0  0
  189.8390  171.5680  141.1340 N   0  0  0  0  0  2  0  0  0  0  0  0
  193.9800  170.8730  143.3800 C   0  0  0  0  0  2  0  0  0  0  0  0
  193.9920  172.7850  141.6080 C   0  0  1  0  0  3  0  0  0  0  0  0
  193.1100  171.5630  144.4400 C   0  0  0  0  0  2  0  0  0  0  0  0
  192.5250  172.4060  141.4650 C   0  0  0  0  0  0  0  0  0  0  0  0
  190.7310  171.5890  140.0240 C   0  0  0  0  0  0  0  0  0  0  0  0
  194.8150  171.8410  142.5260 C   0  0  1  0  0  3  0  0  0  0  0  0
  191.7070  172.4230  142.5400 C   0  0  0  0  0  0  0  0  0  0  0  0
  190.3420  171.1990  138.8920 O   0  0  0  0  0  0  0  0  0  0  0  0
  190.2270  172.1380  142.4250 C   0  0  1  0  0  3  0  0  0  0  0  0
  192.0400  172.0240  140.2050 O   0  0  0  0  0  0  0  0  0  0  0  0
  187.4090  174.4980  142.3500 C   0  0  0  0  0  2  0  0  0  0  0  0
  188.0150  173.1790  142.3190 N   0  0  0  0  0  2  0  0  0  0  0  0
  189.3840  173.3630  142.7710 C   0  0  2  0  0  3  0  0  0  0  0  0
  190.0540  174.9060  142.0570 S   0  0  0  0  0  0  0  0  0  0  0  0
  188.3670  175.4630  141.6900 C   0  0  2  0  0  3  0  0  0  0  0  0
  189.4530  177.7930  142.3860 O   0  0  0  0  0  0  0  0  0  0  0  0
  188.1090  177.1340  142.2640 S   0  0  0  0  0  0  0  0  0  0  0  0
  187.2900  177.8900  141.2510 O   0  0  0  0  0  0  0  0  0  0  0  0
  187.3120  177.1480  143.8150 N   0  0  0  0  0  0  0  0  0  0  0  0
  188.7890  175.9610  145.4760 C   0  0  0  0  0  2  0  0  0  0  0  0
  189.2600  178.2900  144.7900 F   0  0  0  0  0  0  0  0  0  0  0  0
  188.4570  177.5330  147.3160 F   0  0  0  0  0  0  0  0  0  0  0  0
  187.8600  176.8770  146.2540 C   0  0  0  0  0  0  0  0  0  0  0  0
  188.3190  177.2750  144.8690 C   0  0  1  0  0  0  0  0  0  0  0  0
  186.5680  176.3960  146.3880 F   0  0  0  0  0  0  0  0  0  0  0  0
  186.4580  178.3270  143.8750 C   0  0  0  0  0  2  0  0  0  0  0  0
  185.0150  177.9040  144.0680 C   0  0  0  0  0  3  0  0  0  0  0  0
  184.1210  179.1140  143.9050 C   0  0  0  0  0  2  0  0  0  0  0  0
  184.4510  178.6010  145.2890 C   0  0  0  0  0  2  0  0  0  0  0  0
  194.9090  174.3640  140.0460 O   0  0  0  0  0  1  0  0  0  0  0  0
  194.6440  173.0050  140.2290 C   0  0  1  0  0  3  0  0  0  0  0  0
  196.1900  172.0720  139.9860 S   0  0  0  0  0  0  0  0  0  0  0  0
  194.4440  171.8370  137.9000 C   0  0  0  0  0  2  0  0  0  0  0  0
  193.2910  169.3130  137.5390 O   0  0  0  0  0  0  0  0  0  0  0  0
  194.0580  169.7510  136.4540 C   0  0  0  0  0  2  0  0  0  0  0  0
  194.6580  169.8850  139.4430 C   0  0  0  0  0  2  0  0  0  0  0  0
  195.4100  171.0090  138.7390 C   0  0  2  0  0  3  0  0  0  0  0  0
  194.2440  171.2710  136.4910 C   0  0  0  0  0  2  0  0  0  0  0  0
  194.2230  168.8020  138.4540 C   0  0  0  0  0  2  0  0  0  0  0  0
  195.7640  172.6650  143.3980 C   0  0  0  0  0  2  0  0  0  0  0  0
  195.4840  174.1560  143.2870 C   0  0  1  0  0  3  0  0  0  0  0  0
  195.4940  174.7860  144.6900 C   0  0  1  0  0  3  0  0  0  0  0  0
  197.9410  176.7410  143.1350 O   0  0  0  0  0  0  0  0  0  0  0  0
  197.0480  175.9000  143.4130 C   0  0  0  0  0  0  0  0  0  0  0  0
  196.5870  174.8530  142.4860 C   0  0  0  0  0  2  0  0  0  0  0  0
  196.4090  175.8640  144.6300 O   0  0  0  0  0  0  0  0  0  0  0  0
  193.4740  176.2110  144.2040 N   0  0  0  0  0  2  0  0  0  0  0  0
  193.5920  174.8990  146.1340 O   0  0  0  0  0  0  0  0  0  0  0  0
  194.1310  175.2720  145.0570 C   0  0  0  0  0  0  0  0  0  0  0  0
  192.1850  176.7880  144.5440 C   0  0  0  0  0  1  0  0  0  0  0  0
  1  5  1  0  0  0  0
  3  5  1  0  0  0  0
  4 33  1  6  0  0  0
  4  8  1  0  0  0  0
  6  4  1  0  0  0  0
  6  9  2  0  0  0  0
  7 12  1  0  0  0  0
  7  2  1  0  0  0  0
  8  3  1  0  0  0  0
  8 42  1  1  0  0  0
  9  1  1  0  0  0  0
 10  7  2  0  0  0  0
 11  2  1  6  0  0  0
 11  9  1  0  0  0  0
 11 15  1  0  0  0  0
 12  6  1  0  0  0  0
 14 13  1  0  0  0  0
 14 15  1  0  0  0  0
 15 16  1  6  0  0  0
 17 16  1  0  0  0  0
 17 19  1  1  0  0  0
 17 13  1  0  0  0  0
 19 18  2  0  0  0  0
 19 21  1  0  0  0  0
 20 19  2  0  0  0  0
 21 28  1  0  0  0  0
 21 26  1  0  0  0  0
 22 25  1  0  0  0  0
 25 27  1  0  0  0  0
 25 24  1  0  0  0  0
 26 23  1  6  0  0  0
 26 22  1  0  0  0  0
 26 25  1  0  0  0  0
 28 29  1  0  0  0  0
 29 31  1  0  0  0  0
 30 29  1  0  0  0  0
 30 31  1  0  0  0  0
 33 32  1  1  0  0  0
 34 33  1  0  0  0  0
 35 39  1  0  0  0  0
 36 41  1  0  0  0  0
 37 40  1  0  0  0  0
 37 36  1  0  0  0  0
 39 38  1  0  0  0  0
 39 34  1  1  0  0  0
 40 35  1  0  0  0  0
 41 38  1  0  0  0  0
 43 42  1  1  0  0  0
 43 44  1  0  0  0  0
 44 51  1  6  0  0  0
 45 46  2  0  0  0  0
 46 48  1  0  0  0  0
 47 43  1  0  0  0  0
 47 46  1  0  0  0  0
 48 44  1  0  0  0  0
 49 52  1  0  0  0  0
 49 51  1  0  0  0  0
 51 50  2  0  0  0  0
M  END
>  <MODEL>
7

>  <REMARK>
 VINA RESULT:      -6.7      3.374      8.979
  Name = 
  12 active torsions:
  status: ('A' for Active; 'I' for Inactive)
    1  A    between atoms: C_6  and  C_36
    2  A    between atoms: C_7  and  C_22
    3  A    between atoms: C_9  and  C_15
    4  A    between atoms: S_20  and  N_27
    5  A    between atoms: S_20  and  C_51
    6  A    between atoms: C_22  and  C_37
    7  A    between atoms: N_27  and  C_34
    8  A    between atoms: N_27  and  C_36
    9  A    between atoms: C_28  and  C_45
   10  A    between atoms: C_35  and  C_49
   11  A    between atoms: C_42  and  S_44
   12  A    between atoms: S_44  and  C_45
                            x       y       z     vdW  Elec       q    Type
                         _______ _______ _______ _____ _____    ______ ____

>  <TORSDO>
F 12

$$$$
=
 OpenBabel11062420133D

 52 58  0  0  1  0  0  0  0  0999 V2000
  190.1270  172.7250  142.6260 C   0  0  0  0  0  2  0  0  0  0  0  0
  189.4110  173.7740  138.9880 N   0  0  0  0  0  2  0  0  0  0  0  0
  191.2090  170.4930  141.9330 C   0  0  0  0  0  2  0  0  0  0  0  0
  192.7590  172.5400  141.4820 C   0  0  1  0  0  3  0  0  0  0  0  0
  190.1540  171.2030  142.7920 C   0  0  0  0  0  2  0  0  0  0  0  0
  191.5780  173.0120  140.6460 C   0  0  0  0  0  0  0  0  0  0  0  0
  190.7230  173.6490  138.4490 C   0  0  0  0  0  0  0  0  0  0  0  0
  192.6180  171.0990  142.0420 C   0  0  1  0  0  3  0  0  0  0  0  0
  190.3550  173.1410  141.2030 C   0  0  0  0  0  0  0  0  0  0  0  0
  190.9230  173.8400  137.2210 O   0  0  0  0  0  0  0  0  0  0  0  0
  189.1750  173.6870  140.4300 C   0  0  1  0  0  3  0  0  0  0  0  0
  191.7760  173.2930  139.2850 O   0  0  0  0  0  0  0  0  0  0  0  0
  189.1280  176.7140  142.5170 C   0  0  0  0  0  2  0  0  0  0  0  0
  189.7660  175.6810  141.7210 N   0  0  0  0  0  2  0  0  0  0  0  0
  188.6910  175.0190  141.0000 C   0  0  2  0  0  3  0  0  0  0  0  0
  187.2480  174.8310  142.1060 S   0  0  0  0  0  0  0  0  0  0  0  0
  187.9370  176.0930  143.2110 C   0  0  2  0  0  3  0  0  0  0  0  0
  186.9300  178.5110  142.7330 O   0  0  0  0  0  0  0  0  0  0  0  0
  186.7070  177.3210  143.6210 S   0  0  0  0  0  0  0  0  0  0  0  0
  185.3350  176.7640  143.3470 O   0  0  0  0  0  0  0  0  0  0  0  0
  186.8380  177.8080  145.2900 N   0  0  0  0  0  0  0  0  0  0  0  0
  184.5640  178.8320  145.6510 C   0  0  0  0  0  2  0  0  0  0  0  0
  184.9640  176.4310  146.0870 F   0  0  0  0  0  0  0  0  0  0  0  0
  184.3960  178.3020  148.0290 F   0  0  0  0  0  0  0  0  0  0  0  0
  185.2370  178.7060  147.0080 C   0  0  0  0  0  0  0  0  0  0  0  0
  185.5280  177.6870  145.9280 C   0  0  1  0  0  0  0  0  0  0  0  0
  186.2000  179.6690  147.2560 F   0  0  0  0  0  0  0  0  0  0  0  0
  187.7450  176.8860  145.9610 C   0  0  0  0  0  2  0  0  0  0  0  0
  189.1220  177.5100  146.0690 C   0  0  0  0  0  3  0  0  0  0  0  0
  190.1050  176.4580  146.5360 C   0  0  0  0  0  2  0  0  0  0  0  0
  189.5710  177.4800  147.5150 C   0  0  0  0  0  2  0  0  0  0  0  0
  194.3270  171.7160  139.8570 O   0  0  0  0  0  1  0  0  0  0  0  0
  194.0900  172.7720  140.7420 C   0  0  1  0  0  3  0  0  0  0  0  0
  194.1550  174.3380  139.8120 S   0  0  0  0  0  0  0  0  0  0  0  0
  196.5420  173.8860  141.0580 C   0  0  0  0  0  2  0  0  0  0  0  0
  197.0160  175.3710  143.3830 O   0  0  0  0  0  0  0  0  0  0  0  0
  197.9400  175.6040  142.3580 C   0  0  0  0  0  2  0  0  0  0  0  0
  194.9000  175.3650  142.2230 C   0  0  0  0  0  2  0  0  0  0  0  0
  195.4860  174.9680  140.8720 C   0  0  2  0  0  3  0  0  0  0  0  0
  197.9350  174.4560  141.3430 C   0  0  0  0  0  2  0  0  0  0  0  0
  195.9070  176.1630  143.0520 C   0  0  0  0  0  2  0  0  0  0  0  0
  193.1260  171.0510  143.4840 C   0  0  0  0  0  2  0  0  0  0  0  0
  194.1190  172.1680  143.7710 C   0  0  1  0  0  3  0  0  0  0  0  0
  193.9650  172.6290  145.2300 C   0  0  1  0  0  3  0  0  0  0  0  0
  197.3540  171.7690  145.2270 O   0  0  0  0  0  0  0  0  0  0  0  0
  196.1520  171.9880  144.9280 C   0  0  0  0  0  0  0  0  0  0  0  0
  195.5560  171.6620  143.6220 C   0  0  0  0  0  2  0  0  0  0  0  0
  195.2550  172.5500  145.8060 O   0  0  0  0  0  0  0  0  0  0  0  0
  194.2350  175.0350  145.9230 N   0  0  0  0  0  2  0  0  0  0  0  0
  192.3060  174.3030  144.8260 O   0  0  0  0  0  0  0  0  0  0  0  0
  193.4470  174.0280  145.2870 C   0  0  0  0  0  0  0  0  0  0  0  0
  193.7550  176.3970  146.0880 C   0  0  0  0  0  1  0  0  0  0  0  0
  1  5  1  0  0  0  0
  3  8  1  0  0  0  0
  3  5  1  0  0  0  0
  4 33  1  6  0  0  0
  4  8  1  0  0  0  0
  6  9  2  0  0  0  0
  6  4  1  0  0  0  0
  7  2  1  0  0  0  0
  7 12  1  0  0  0  0
  8 42  1  1  0  0  0
  9  1  1  0  0  0  0
 10  7  2  0  0  0  0
 11  2  1  6  0  0  0
 11 15  1  0  0  0  0
 11  9  1  0  0  0  0
 12  6  1  0  0  0  0
 13 17  1  0  0  0  0
 14 13  1  0  0  0  0
 15 14  1  1  0  0  0
 15 16  1  0  0  0  0
 16 17  1  0  0  0  0
 17 19  1  6  0  0  0
 18 19  2  0  0  0  0
 19 21  1  0  0  0  0
 20 19  2  0  0  0  0
 21 26  1  0  0  0  0
 21 28  1  0  0  0  0
 22 26  1  0  0  0  0
 22 25  1  0  0  0  0
 25 27  1  0  0  0  0
 25 24  1  0  0  0  0
 26 23  1  1  0  0  0
 26 25  1  0  0  0  0
 28 29  1  0  0  0  0
 29 30  1  0  0  0  0
 29 31  1  0  0  0  0
 30 31  1  0  0  0  0
 33 32  1  6  0  0  0
 34 33  1  0  0  0  0
 35 40  1  0  0  0  0
 37 36  1  0  0  0  0
 38 41  1  0  0  0  0
 39 34  1  6  0  0  0
 39 35  1  0  0  0  0
 39 38  1  0  0  0  0
 40 37  1  0  0  0  0
 41 36  1  0  0  0  0
 43 42  1  1  0  0  0
 43 44  1  0  0  0  0
 44 51  1  6  0  0  0
 44 48  1  0  0  0  0
 46 45  2  0  0  0  0
 46 48  1  0  0  0  0
 47 43  1  0  0  0  0
 47 46  1  0  0  0  0
 49 52  1  0  0  0  0
 50 51  2  0  0  0  0
 51 49  1  0  0  0  0
M  END
>  <MODEL>
8

>  <REMARK>
 VINA RESULT:      -6.7      3.843      9.450
  Name = 
  12 active torsions:
  status: ('A' for Active; 'I' for Inactive)
    1  A    between atoms: C_6  and  C_36
    2  A    between atoms: C_7  and  C_22
    3  A    between atoms: C_9  and  C_15
    4  A    between atoms: S_20  and  N_27
    5  A    between atoms: S_20  and  C_51
    6  A    between atoms: C_22  and  C_37
    7  A    between atoms: N_27  and  C_34
    8  A    between atoms: N_27  and  C_36
    9  A    between atoms: C_28  and  C_45
   10  A    between atoms: C_35  and  C_49
   11  A    between atoms: C_42  and  S_44
   12  A    between atoms: S_44  and  C_45
                            x       y       z     vdW  Elec       q    Type
                         _______ _______ _______ _____ _____    ______ ____

>  <TORSDO>
F 12

$$$$
=
 OpenBabel11062420133D

 52 58  0  0  1  0  0  0  0  0999 V2000
  190.4600  171.3570  141.3410 C   0  0  0  0  0  2  0  0  0  0  0  0
  190.0410  173.1270  137.9440 N   0  0  0  0  0  2  0  0  0  0  0  0
  192.3870  169.8680  140.5020 C   0  0  0  0  0  2  0  0  0  0  0  0
  193.1300  172.3330  140.9070 C   0  0  1  0  0  3  0  0  0  0  0  0
  191.0140  169.9380  141.1860 C   0  0  0  0  0  2  0  0  0  0  0  0
  192.0200  172.6340  139.9110 C   0  0  0  0  0  0  0  0  0  0  0  0
  191.3790  173.5750  137.7500 C   0  0  0  0  0  0  0  0  0  0  0  0
  193.4340  170.8230  141.0980 C   0  0  1  0  0  3  0  0  0  0  0  0
  190.7580  172.2120  140.1450 C   0  0  0  0  0  0  0  0  0  0  0  0
  191.7010  174.1620  136.6850 O   0  0  0  0  0  0  0  0  0  0  0  0
  189.6110  172.5620  139.2240 C   0  0  1  0  0  3  0  0  0  0  0  0
  192.3300  173.3390  138.7380 O   0  0  0  0  0  0  0  0  0  0  0  0
  187.4730  175.4880  139.8450 C   0  0  0  0  0  2  0  0  0  0  0  0
  188.1350  174.5020  139.0090 N   0  0  0  0  0  2  0  0  0  0  0  0
  188.5830  173.4560  139.9140 C   0  0  2  0  0  3  0  0  0  0  0  0
  189.2230  174.2170  141.4480 S   0  0  0  0  0  0  0  0  0  0  0  0
  188.3650  175.7600  141.0340 C   0  0  2  0  0  3  0  0  0  0  0  0
  186.5970  177.5220  141.9630 O   0  0  0  0  0  0  0  0  0  0  0  0
  187.4260  176.3610  142.4300 S   0  0  0  0  0  0  0  0  0  0  0  0
  186.5050  175.2740  142.9170 O   0  0  0  0  0  0  0  0  0  0  0  0
  188.4810  176.8800  143.7180 N   0  0  0  0  0  0  0  0  0  0  0  0
  190.9260  177.0860  143.1430 C   0  0  0  0  0  2  0  0  0  0  0  0
  189.2460  178.5800  142.1150 F   0  0  0  0  0  0  0  0  0  0  0  0
  191.1920  179.3970  143.8870 F   0  0  0  0  0  0  0  0  0  0  0  0
  190.5910  178.1780  144.1460 C   0  0  0  0  0  0  0  0  0  0  0  0
  189.5410  177.7180  143.1590 C   0  0  1  0  0  0  0  0  0  0  0  0
  190.4800  177.7350  145.4520 F   0  0  0  0  0  0  0  0  0  0  0  0
  187.7040  177.7040  144.6350 C   0  0  0  0  0  2  0  0  0  0  0  0
  187.3360  176.8930  145.8630 C   0  0  0  0  0  3  0  0  0  0  0  0
  185.8300  176.8910  146.0190 C   0  0  0  0  0  2  0  0  0  0  0  0
  186.6780  177.8010  146.8810 C   0  0  0  0  0  2  0  0  0  0  0  0
  195.0440  172.6420  139.4870 O   0  0  0  0  0  1  0  0  0  0  0  0
  194.3880  173.1690  140.6030 C   0  0  1  0  0  3  0  0  0  0  0  0
  194.0490  174.9330  140.3020 S   0  0  0  0  0  0  0  0  0  0  0  0
  196.5520  174.5770  141.3330 C   0  0  0  0  0  2  0  0  0  0  0  0
  196.8870  175.2860  144.0200 O   0  0  0  0  0  0  0  0  0  0  0  0
  197.6850  176.0170  143.1330 C   0  0  0  0  0  2  0  0  0  0  0  0
  194.7400  175.2440  142.9190 C   0  0  0  0  0  2  0  0  0  0  0  0
  195.3040  175.4320  141.5140 C   0  0  2  0  0  3  0  0  0  0  0  0
  197.8290  175.2850  141.7940 C   0  0  0  0  0  2  0  0  0  0  0  0
  195.6310  175.9090  143.9690 C   0  0  0  0  0  2  0  0  0  0  0  0
  193.6710  170.5250  142.5790 C   0  0  0  0  0  2  0  0  0  0  0  0
  194.2220  171.7350  143.3190 C   0  0  1  0  0  3  0  0  0  0  0  0
  193.6230  171.7880  144.7340 C   0  0  1  0  0  3  0  0  0  0  0  0
  197.0300  171.7400  145.5240 O   0  0  0  0  0  0  0  0  0  0  0  0
  195.9120  171.7470  144.9460 C   0  0  0  0  0  0  0  0  0  0  0  0
  195.7380  171.6170  143.4890 C   0  0  0  0  0  2  0  0  0  0  0  0
  194.7220  171.8660  145.6240 O   0  0  0  0  0  0  0  0  0  0  0  0
  193.0830  173.9860  145.8380 N   0  0  0  0  0  2  0  0  0  0  0  0
  191.6690  173.0660  144.2200 O   0  0  0  0  0  0  0  0  0  0  0  0
  192.7370  172.9790  144.8860 C   0  0  0  0  0  0  0  0  0  0  0  0
  192.2220  175.1280  146.0960 C   0  0  0  0  0  1  0  0  0  0  0  0
  3  8  1  0  0  0  0
  3  5  1  0  0  0  0
  4 33  1  6  0  0  0
  4  8  1  0  0  0  0
  5  1  1  0  0  0  0
  6  9  2  0  0  0  0
  6  4  1  0  0  0  0
  7  2  1  0  0  0  0
  7 12  1  0  0  0  0
  8 42  1  1  0  0  0
  9  1  1  0  0  0  0
 10  7  2  0  0  0  0
 11  2  1  6  0  0  0
 11 15  1  0  0  0  0
 11  9  1  0  0  0  0
 12  6  1  0  0  0  0
 13 17  1  0  0  0  0
 14 13  1  0  0  0  0
 15 14  1  6  0  0  0
 15 16  1  0  0  0  0
 17 16  1  0  0  0  0
 17 19  1  1  0  0  0
 18 19  2  0  0  0  0
 19 20  2  0  0  0  0
 19 21  1  0  0  0  0
 21 28  1  0  0  0  0
 22 26  1  0  0  0  0
 22 25  1  0  0  0  0
 24 25  1  0  0  0  0
 25 27  1  0  0  0  0
 26 23  1  6  0  0  0
 26 21  1  0  0  0  0
 26 25  1  0  0  0  0
 28 29  1  0  0  0  0
 29 30  1  0  0  0  0
 29 31  1  0  0  0  0
 30 31  1  0  0  0  0
 33 32  1  6  0  0  0
 34 33  1  0  0  0  0
 35 39  1  0  0  0  0
 35 40  1  0  0  0  0
 37 36  1  0  0  0  0
 38 41  1  0  0  0  0
 39 34  1  6  0  0  0
 39 38  1  0  0  0  0
 40 37  1  0  0  0  0
 41 36  1  0  0  0  0
 43 42  1  1  0  0  0
 43 47  1  0  0  0  0
 43 44  1  0  0  0  0
 44 51  1  6  0  0  0
 44 48  1  0  0  0  0
 46 45  2  0  0  0  0
 46 48  1  0  0  0  0
 47 46  1  0  0  0  0
 49 52  1  0  0  0  0
 50 51  2  0  0  0  0
 51 49  1  0  0  0  0
M  END
>  <MODEL>
9

>  <REMARK>
 VINA RESULT:      -6.6      3.266      8.867
  Name = 
  12 active torsions:
  status: ('A' for Active; 'I' for Inactive)
    1  A    between atoms: C_6  and  C_36
    2  A    between atoms: C_7  and  C_22
    3  A    between atoms: C_9  and  C_15
    4  A    between atoms: S_20  and  N_27
    5  A    between atoms: S_20  and  C_51
    6  A    between atoms: C_22  and  C_37
    7  A    between atoms: N_27  and  C_34
    8  A    between atoms: N_27  and  C_36
    9  A    between atoms: C_28  and  C_45
   10  A    between atoms: C_35  and  C_49
   11  A    between atoms: C_42  and  S_44
   12  A    between atoms: S_44  and  C_45
                            x       y       z     vdW  Elec       q    Type
                         _______ _______ _______ _____ _____    ______ ____

>  <TORSDO>
F 12

$$$$
