=
 OpenBabel11062421543D

 37 38  0  0  1  0  0  0  0  0999 V2000
  187.7890  176.2700  142.6660 N   0  0  0  0  0  0  0  0  0  0  0  0
  186.9100  177.5950  140.4790 O   0  0  0  0  0  0  0  0  0  0  0  0
  187.5770  177.7700  141.8140 S   0  0  0  0  0  0  0  0  0  0  0  0
  188.8240  178.6050  141.7630 O   0  0  0  0  0  0  0  0  0  0  0  0
  186.7970  176.7990  143.6470 C   0  0  2  0  0  3  0  0  0  0  0  0
  186.5050  178.1780  143.0870 C   0  0  0  0  0  2  0  0  0  0  0  0
  188.5640  175.0840  142.4660 C   0  0  0  0  0  0  0  0  0  0  0  0
  190.7070  173.9340  142.3090 C   0  0  0  0  0  0  0  0  0  0  0  0
  190.6410  176.3060  142.7500 O   0  0  0  0  0  1  0  0  0  0  0  0
  187.9050  173.8730  142.2360 C   0  0  0  0  0  3  0  0  0  0  0  0
  189.9700  175.1140  142.5010 C   0  0  0  0  0  0  0  0  0  0  0  0
  190.7250  171.5610  141.7540 O   0  0  0  0  0  1  0  0  0  0  0  0
  188.6330  172.7040  142.0160 C   0  0  0  0  0  3  0  0  0  0  0  0
  190.0290  172.7290  142.0370 C   0  0  0  0  0  0  0  0  0  0  0  0
  192.1410  174.0030  142.3400 N   0  0  0  0  0  2  0  0  0  0  0  0
  194.3930  174.4170  141.3920 N   0  0  0  0  0  2  0  0  0  0  0  0
  192.9970  174.1810  141.2030 C   0  0  0  0  0  0  0  0  0  0  0  0
  192.5490  173.9840  140.0080 N   0  0  0  0  0  2  0  0  0  0  0  0
  194.9990  174.5640  142.7080 C   0  0  0  0  0  2  0  0  0  0  0  0
  194.9940  176.0250  143.1450 C   0  0  2  0  0  3  0  0  0  0  0  0
  196.3890  176.4720  143.5760 C   0  0  0  0  0  2  0  0  0  0  0  0
  197.4700  175.9620  142.6360 C   0  0  0  0  0  1  0  0  0  0  0  0
  194.7980  176.0330  145.3510 C   0  0  0  0  0  1  0  0  0  0  0  0
  194.0700  176.2290  144.1750 O   0  0  0  0  0  0  0  0  0  0  0  0
  187.3750  176.8270  145.0790 C   0  0  2  0  0  3  0  0  0  0  0  0
  186.3540  177.1050  146.1940 C   0  0  2  0  0  3  0  0  0  0  0  0
  185.1620  176.4300  145.9240 O   0  0  0  0  0  1  0  0  0  0  0  0
  184.7090  178.8320  146.1190 O   0  0  0  0  0  1  0  0  0  0  0  0
  186.0720  178.5950  146.2960 C   0  0  0  0  0  2  0  0  0  0  0  0
  188.6050  177.5140  145.2080 O   0  0  0  0  0  0  0  0  0  0  0  0
  189.2620  177.0790  146.3720 C   0  0  0  0  0  2  0  0  0  0  0  0
  190.1640  175.8890  146.0640 C   0  0  2  0  0  3  0  0  0  0  0  0
  188.8550  174.5180  147.5310 O   0  0  0  0  0  1  0  0  0  0  0  0
  189.6450  173.4870  145.6440 O   0  0  0  0  0  0  0  0  0  0  0  0
  189.5200  174.5990  146.4640 C   0  0  0  0  0  0  0  0  0  0  0  0
  191.4020  176.0360  146.6970 O   0  0  0  0  0  0  0  0  0  0  0  0
  191.1510  176.8780  147.7820 C   0  0  0  0  0  1  0  0  0  0  0  0
  1  5  1  0  0  0  0
  2  3  2  0  0  0  0
  3  1  1  0  0  0  0
  3  6  1  0  0  0  0
  4  3  2  0  0  0  0
  5 25  1  1  0  0  0
  6  5  1  0  0  0  0
  7 11  1  0  0  0  0
  7  1  1  0  0  0  0
  8 15  1  0  0  0  0
  8 11  2  0  0  0  0
 10  7  2  0  0  0  0
 11  9  1  0  0  0  0
 12 14  1  0  0  0  0
 13 14  2  0  0  0  0
 13 10  1  0  0  0  0
 14  8  1  0  0  0  0
 16 19  1  0  0  0  0
 17 16  1  0  0  0  0
 17 15  1  0  0  0  0
 18 17  2  0  0  0  0
 20 19  1  1  0  0  0
 20 21  1  0  0  0  0
 20 24  1  0  0  0  0
 22 21  1  0  0  0  0
 24 23  1  0  0  0  0
 25 30  1  6  0  0  0
 25 26  1  0  0  0  0
 26 27  1  6  0  0  0
 26 29  1  0  0  0  0
 28 29  1  0  0  0  0
 30 31  1  0  0  0  0
 32 31  1  1  0  0  0
 32 35  1  0  0  0  0
 32 36  1  0  0  0  0
 34 35  2  0  0  0  0
 35 33  1  0  0  0  0
 36 37  1  0  0  0  0
M  END
>  <MODEL>
1

>  <REMARK>
 VINA RESULT:      -5.9      0.000      0.000
  Name = 
  14 active torsions:
  status: ('A' for Active; 'I' for Inactive)
    1  A    between atoms: C_1  and  C_14
    2  A    between atoms: C_1  and  C_24
    3  A    between atoms: C_1  and  O_33
    4  A    between atoms: C_2  and  N_6
    5  A    between atoms: N_4  and  C_10
    6  A    between atoms: C_5  and  C_34
    7  A    between atoms: C_5  and  C_35
    8  A    between atoms: C_5  and  O_36
    9  A    between atoms: C_7  and  C_20
   10  A    between atoms: C_14  and  C_17
   11  A    between atoms: N_15  and  C_30
   12  A    between atoms: C_20  and  O_29
   13  A    between atoms: C_20  and  C_30
   14  A    between atoms: O_33  and  C_35
                            x       y       z     vdW  Elec       q    Type
                         _______ _______ _______ _____ _____    ______ ____

>  <TORSDO>
F 14

$$$$
=
 OpenBabel11062421543D

 37 38  0  0  1  0  0  0  0  0999 V2000
  190.0840  175.4370  145.3390 N   0  0  0  0  0  0  0  0  0  0  0  0
  191.1160  175.6200  147.8310 O   0  0  0  0  0  0  0  0  0  0  0  0
  189.8340  175.6200  147.0490 S   0  0  0  0  0  0  0  0  0  0  0  0
  188.7890  174.6910  147.5980 O   0  0  0  0  0  0  0  0  0  0  0  0
  189.5830  176.8380  145.2140 C   0  0  2  0  0  3  0  0  0  0  0  0
  189.2520  177.1830  146.6540 C   0  0  0  0  0  2  0  0  0  0  0  0
  190.5710  174.3990  144.4840 C   0  0  0  0  0  0  0  0  0  0  0  0
  192.3790  173.3090  143.2650 C   0  0  0  0  0  0  0  0  0  0  0  0
  192.8250  175.2950  144.5620 O   0  0  0  0  0  1  0  0  0  0  0  0
  189.6830  173.4220  144.0270 C   0  0  0  0  0  3  0  0  0  0  0  0
  191.9230  174.3430  144.1000 C   0  0  0  0  0  0  0  0  0  0  0  0
  191.8560  171.3710  141.8820 O   0  0  0  0  0  1  0  0  0  0  0  0
  190.1230  172.4100  143.1750 C   0  0  0  0  0  3  0  0  0  0  0  0
  191.4610  172.3550  142.7790 C   0  0  0  0  0  0  0  0  0  0  0  0
  193.7620  173.2880  142.8830 N   0  0  0  0  0  2  0  0  0  0  0  0
  195.7370  173.9670  141.5480 N   0  0  0  0  0  2  0  0  0  0  0  0
  194.3200  173.9060  141.7150 C   0  0  0  0  0  0  0  0  0  0  0  0
  193.5560  174.2740  140.7410 N   0  0  0  0  0  2  0  0  0  0  0  0
  196.6730  173.4920  142.5580 C   0  0  0  0  0  2  0  0  0  0  0  0
  197.2090  174.6550  143.3880 C   0  0  2  0  0  3  0  0  0  0  0  0
  196.4840  174.7490  144.7280 C   0  0  0  0  0  2  0  0  0  0  0  0
  197.0110  173.7390  145.7360 C   0  0  0  0  0  1  0  0  0  0  0  0
  196.4840  176.7390  143.5720 C   0  0  0  0  0  1  0  0  0  0  0  0
  197.0980  175.8570  142.6810 O   0  0  0  0  0  0  0  0  0  0  0  0
  188.3660  176.9220  144.2670 C   0  0  2  0  0  3  0  0  0  0  0  0
  188.6930  176.8330  142.7670 C   0  0  2  0  0  3  0  0  0  0  0  0
  188.6710  178.1090  142.2010 O   0  0  0  0  0  1  0  0  0  0  0  0
  188.2360  175.4460  140.8800 O   0  0  0  0  0  1  0  0  0  0  0  0
  187.6800  175.9520  142.0560 C   0  0  0  0  0  2  0  0  0  0  0  0
  187.4120  177.9080  144.6140 O   0  0  0  0  0  0  0  0  0  0  0  0
  186.2390  177.2820  145.0690 C   0  0  0  0  0  2  0  0  0  0  0  0
  185.0080  177.9430  144.4590 C   0  0  2  0  0  3  0  0  0  0  0  0
  185.5950  180.2170  143.9780 O   0  0  0  0  0  1  0  0  0  0  0  0
  185.5350  178.8020  142.1780 O   0  0  0  0  0  0  0  0  0  0  0  0
  185.3900  179.0560  143.5340 C   0  0  0  0  0  0  0  0  0  0  0  0
  184.1560  178.4110  145.4630 O   0  0  0  0  0  0  0  0  0  0  0  0
  184.5190  177.6930  146.6040 C   0  0  0  0  0  1  0  0  0  0  0  0
  1  3  1  0  0  0  0
  3  4  2  0  0  0  0
  3  2  2  0  0  0  0
  5 25  1  6  0  0  0
  5  1  1  0  0  0  0
  5  6  1  0  0  0  0
  6  3  1  0  0  0  0
  7  1  1  0  0  0  0
  8 11  2  0  0  0  0
 10  7  2  0  0  0  0
 11  7  1  0  0  0  0
 11  9  1  0  0  0  0
 12 14  1  0  0  0  0
 13 10  1  0  0  0  0
 14 13  2  0  0  0  0
 14  8  1  0  0  0  0
 15  8  1  0  0  0  0
 16 17  1  0  0  0  0
 16 19  1  0  0  0  0
 17 15  1  0  0  0  0
 18 17  2  0  0  0  0
 20 19  1  6  0  0  0
 20 21  1  0  0  0  0
 21 22  1  0  0  0  0
 24 20  1  0  0  0  0
 24 23  1  0  0  0  0
 25 30  1  6  0  0  0
 26 27  1  6  0  0  0
 26 25  1  0  0  0  0
 28 29  1  0  0  0  0
 29 26  1  0  0  0  0
 30 31  1  0  0  0  0
 32 31  1  1  0  0  0
 32 36  1  0  0  0  0
 34 35  2  0  0  0  0
 35 33  1  0  0  0  0
 35 32  1  0  0  0  0
 36 37  1  0  0  0  0
M  END
>  <MODEL>
2

>  <REMARK>
 VINA RESULT:      -5.8      2.089      4.484
  Name = 
  14 active torsions:
  status: ('A' for Active; 'I' for Inactive)
    1  A    between atoms: C_1  and  C_14
    2  A    between atoms: C_1  and  C_24
    3  A    between atoms: C_1  and  O_33
    4  A    between atoms: C_2  and  N_6
    5  A    between atoms: N_4  and  C_10
    6  A    between atoms: C_5  and  C_34
    7  A    between atoms: C_5  and  C_35
    8  A    between atoms: C_5  and  O_36
    9  A    between atoms: C_7  and  C_20
   10  A    between atoms: C_14  and  C_17
   11  A    between atoms: N_15  and  C_30
   12  A    between atoms: C_20  and  O_29
   13  A    between atoms: C_20  and  C_30
   14  A    between atoms: O_33  and  C_35
                            x       y       z     vdW  Elec       q    Type
                         _______ _______ _______ _____ _____    ______ ____

>  <TORSDO>
F 14

$$$$
=
 OpenBabel11062421543D

 37 38  0  0  1  0  0  0  0  0999 V2000
  190.5190  175.4290  145.6500 N   0  0  0  0  0  0  0  0  0  0  0  0
  191.2910  175.1980  148.2310 O   0  0  0  0  0  0  0  0  0  0  0  0
  190.1010  175.3980  147.3370 S   0  0  0  0  0  0  0  0  0  0  0  0
  188.9500  174.4840  147.6460 O   0  0  0  0  0  0  0  0  0  0  0  0
  190.1190  176.8660  145.6760 C   0  0  2  0  0  3  0  0  0  0  0  0
  189.6590  177.0390  147.1120 C   0  0  0  0  0  2  0  0  0  0  0  0
  191.0310  174.4810  144.7090 C   0  0  0  0  0  0  0  0  0  0  0  0
  192.8430  173.5970  143.3380 C   0  0  0  0  0  0  0  0  0  0  0  0
  193.2200  175.5280  144.7370 O   0  0  0  0  0  1  0  0  0  0  0  0
  190.1890  173.4730  144.2320 C   0  0  0  0  0  3  0  0  0  0  0  0
  192.3620  174.5440  144.2580 C   0  0  0  0  0  0  0  0  0  0  0  0
  192.3820  171.7150  141.8600 O   0  0  0  0  0  1  0  0  0  0  0  0
  190.6520  172.5480  143.2970 C   0  0  0  0  0  3  0  0  0  0  0  0
  191.9690  172.6120  142.8360 C   0  0  0  0  0  0  0  0  0  0  0  0
  194.2030  173.6980  142.8910 N   0  0  0  0  0  2  0  0  0  0  0  0
  196.6070  173.0920  142.8470 N   0  0  0  0  0  2  0  0  0  0  0  0
  195.3350  173.0600  143.4980 C   0  0  0  0  0  0  0  0  0  0  0  0
  195.2550  172.5840  144.6960 N   0  0  0  0  0  2  0  0  0  0  0  0
  196.8070  173.6880  141.5330 C   0  0  0  0  0  2  0  0  0  0  0  0
  197.6780  174.9360  141.6330 C   0  0  2  0  0  3  0  0  0  0  0  0
  197.6880  175.4840  143.0580 C   0  0  0  0  0  2  0  0  0  0  0  0
  196.8300  176.7330  143.1980 C   0  0  0  0  0  1  0  0  0  0  0  0
  197.8980  175.6120  139.5360 C   0  0  0  0  0  1  0  0  0  0  0  0
  197.2430  175.9140  140.7310 O   0  0  0  0  0  0  0  0  0  0  0  0
  189.0160  177.1670  144.6380 C   0  0  2  0  0  3  0  0  0  0  0  0
  189.5180  177.6640  143.2720 C   0  0  2  0  0  3  0  0  0  0  0  0
  189.5790  176.5970  142.3730 O   0  0  0  0  0  1  0  0  0  0  0  0
  191.8150  177.5720  142.6310 O   0  0  0  0  0  1  0  0  0  0  0  0
  190.8990  178.2830  143.4080 C   0  0  0  0  0  2  0  0  0  0  0  0
  187.8920  177.8560  145.1490 O   0  0  0  0  0  0  0  0  0  0  0  0
  186.7280  177.1170  144.8770 C   0  0  0  0  0  2  0  0  0  0  0  0
  185.4850  177.9230  145.2370 C   0  0  2  0  0  3  0  0  0  0  0  0
  184.0800  178.2270  143.3190 O   0  0  0  0  0  0  0  0  0  0  0  0
  185.4980  179.9600  143.7990 O   0  0  0  0  0  1  0  0  0  0  0  0
  184.9800  178.7000  144.0620 C   0  0  0  0  0  0  0  0  0  0  0  0
  185.7510  178.7770  146.3110 O   0  0  0  0  0  0  0  0  0  0  0  0
  184.7920  178.4520  147.2720 C   0  0  0  0  0  1  0  0  0  0  0  0
  1  5  1  0  0  0  0
  1  3  1  0  0  0  0
  3  4  2  0  0  0  0
  3  2  2  0  0  0  0
  5 25  1  6  0  0  0
  5  6  1  0  0  0  0
  6  3  1  0  0  0  0
  7  1  1  0  0  0  0
  8 11  2  0  0  0  0
 10  7  2  0  0  0  0
 11  7  1  0  0  0  0
 11  9  1  0  0  0  0
 12 14  1  0  0  0  0
 13 10  1  0  0  0  0
 14 13  2  0  0  0  0
 14  8  1  0  0  0  0
 15  8  1  0  0  0  0
 15 17  1  0  0  0  0
 16 17  1  0  0  0  0
 17 18  2  0  0  0  0
 19 16  1  0  0  0  0
 20 19  1  1  0  0  0
 20 21  1  0  0  0  0
 21 22  1  0  0  0  0
 23 24  1  0  0  0  0
 24 20  1  0  0  0  0
 25 30  1  1  0  0  0
 26 27  1  6  0  0  0
 26 29  1  0  0  0  0
 26 25  1  0  0  0  0
 28 29  1  0  0  0  0
 31 30  1  0  0  0  0
 32 31  1  6  0  0  0
 32 36  1  0  0  0  0
 33 35  2  0  0  0  0
 34 35  1  0  0  0  0
 35 32  1  0  0  0  0
 36 37  1  0  0  0  0
M  END
>  <MODEL>
3

>  <REMARK>
 VINA RESULT:      -5.8      2.417      4.849
  Name = 
  14 active torsions:
  status: ('A' for Active; 'I' for Inactive)
    1  A    between atoms: C_1  and  C_14
    2  A    between atoms: C_1  and  C_24
    3  A    between atoms: C_1  and  O_33
    4  A    between atoms: C_2  and  N_6
    5  A    between atoms: N_4  and  C_10
    6  A    between atoms: C_5  and  C_34
    7  A    between atoms: C_5  and  C_35
    8  A    between atoms: C_5  and  O_36
    9  A    between atoms: C_7  and  C_20
   10  A    between atoms: C_14  and  C_17
   11  A    between atoms: N_15  and  C_30
   12  A    between atoms: C_20  and  O_29
   13  A    between atoms: C_20  and  C_30
   14  A    between atoms: O_33  and  C_35
                            x       y       z     vdW  Elec       q    Type
                         _______ _______ _______ _____ _____    ______ ____

>  <TORSDO>
F 14

$$$$
=
 OpenBabel11062421543D

 37 38  0  0  1  0  0  0  0  0999 V2000
  190.3780  175.0980  145.4670 N   0  0  0  0  0  0  0  0  0  0  0  0
  191.2190  175.1690  148.0350 O   0  0  0  0  0  0  0  0  0  0  0  0
  190.0340  175.4020  147.1430 S   0  0  0  0  0  0  0  0  0  0  0  0
  188.7760  174.7330  147.6210 O   0  0  0  0  0  0  0  0  0  0  0  0
  190.1940  176.5650  145.2640 C   0  0  2  0  0  3  0  0  0  0  0  0
  189.8270  177.0330  146.6600 C   0  0  0  0  0  2  0  0  0  0  0  0
  190.7050  173.9460  144.6840 C   0  0  0  0  0  0  0  0  0  0  0  0
  192.3350  172.4290  143.6930 C   0  0  0  0  0  0  0  0  0  0  0  0
  193.0820  174.3080  145.0140 O   0  0  0  0  0  1  0  0  0  0  0  0
  189.6710  173.1810  144.1370 C   0  0  0  0  0  3  0  0  0  0  0  0
  192.0410  173.5700  144.4600 C   0  0  0  0  0  0  0  0  0  0  0  0
  191.5360  170.6130  142.2780 O   0  0  0  0  0  1  0  0  0  0  0  0
  189.9580  172.0660  143.3520 C   0  0  0  0  0  3  0  0  0  0  0  0
  191.2830  171.6930  143.1140 C   0  0  0  0  0  0  0  0  0  0  0  0
  193.7110  172.0800  143.4750 N   0  0  0  0  0  2  0  0  0  0  0  0
  195.9670  172.3410  142.4820 N   0  0  0  0  0  2  0  0  0  0  0  0
  194.5700  172.6420  142.4740 C   0  0  0  0  0  0  0  0  0  0  0  0
  194.0740  173.2970  141.4770 N   0  0  0  0  0  2  0  0  0  0  0  0
  196.5950  171.5360  143.5190 C   0  0  0  0  0  2  0  0  0  0  0  0
  197.3190  172.4220  144.5270 C   0  0  2  0  0  3  0  0  0  0  0  0
  196.8710  172.1070  145.9530 C   0  0  0  0  0  2  0  0  0  0  0  0
  196.5370  170.6350  146.1360 C   0  0  0  0  0  1  0  0  0  0  0  0
  196.5890  174.3190  145.4060 C   0  0  0  0  0  1  0  0  0  0  0  0
  197.1140  173.7740  144.2320 O   0  0  0  0  0  0  0  0  0  0  0  0
  189.1030  176.8600  144.2110 C   0  0  2  0  0  3  0  0  0  0  0  0
  189.6030  176.9750  142.7610 C   0  0  2  0  0  3  0  0  0  0  0  0
  190.9760  177.2270  142.7530 O   0  0  0  0  0  1  0  0  0  0  0  0
  187.8740  177.5800  141.2320 O   0  0  0  0  0  1  0  0  0  0  0  0
  188.8830  178.1040  142.0410 C   0  0  0  0  0  2  0  0  0  0  0  0
  188.1540  177.8350  144.5970 O   0  0  0  0  0  0  0  0  0  0  0  0
  186.9000  177.2250  144.7680 C   0  0  0  0  0  2  0  0  0  0  0  0
  185.9450  178.1610  145.5010 C   0  0  2  0  0  3  0  0  0  0  0  0
  186.2010  179.1220  147.6820 O   0  0  0  0  0  1  0  0  0  0  0  0
  186.2070  176.8330  147.5950 O   0  0  0  0  0  0  0  0  0  0  0  0
  186.1300  178.0760  146.9830 C   0  0  0  0  0  0  0  0  0  0  0  0
  184.6210  177.8770  145.1550 O   0  0  0  0  0  0  0  0  0  0  0  0
  184.5250  178.2100  143.8030 C   0  0  0  0  0  1  0  0  0  0  0  0
  1  3  1  0  0  0  0
  3  4  2  0  0  0  0
  3  2  2  0  0  0  0
  5 25  1  6  0  0  0
  5  1  1  0  0  0  0
  5  6  1  0  0  0  0
  6  3  1  0  0  0  0
  7  1  1  0  0  0  0
  8 11  2  0  0  0  0
 10  7  2  0  0  0  0
 11  7  1  0  0  0  0
 11  9  1  0  0  0  0
 12 14  1  0  0  0  0
 13 10  1  0  0  0  0
 14 13  2  0  0  0  0
 14  8  1  0  0  0  0
 15  8  1  0  0  0  0
 16 19  1  0  0  0  0
 17 16  1  0  0  0  0
 17 15  1  0  0  0  0
 18 17  2  0  0  0  0
 20 19  1  6  0  0  0
 20 21  1  0  0  0  0
 21 22  1  0  0  0  0
 24 20  1  0  0  0  0
 24 23  1  0  0  0  0
 25 30  1  1  0  0  0
 26 27  1  1  0  0  0
 26 25  1  0  0  0  0
 28 29  1  0  0  0  0
 29 26  1  0  0  0  0
 30 31  1  0  0  0  0
 32 31  1  6  0  0  0
 32 35  1  0  0  0  0
 35 34  2  0  0  0  0
 35 33  1  0  0  0  0
 36 32  1  0  0  0  0
 37 36  1  0  0  0  0
M  END
>  <MODEL>
4

>  <REMARK>
 VINA RESULT:      -5.7      2.581      4.621
  Name = 
  14 active torsions:
  status: ('A' for Active; 'I' for Inactive)
    1  A    between atoms: C_1  and  C_14
    2  A    between atoms: C_1  and  C_24
    3  A    between atoms: C_1  and  O_33
    4  A    between atoms: C_2  and  N_6
    5  A    between atoms: N_4  and  C_10
    6  A    between atoms: C_5  and  C_34
    7  A    between atoms: C_5  and  C_35
    8  A    between atoms: C_5  and  O_36
    9  A    between atoms: C_7  and  C_20
   10  A    between atoms: C_14  and  C_17
   11  A    between atoms: N_15  and  C_30
   12  A    between atoms: C_20  and  O_29
   13  A    between atoms: C_20  and  C_30
   14  A    between atoms: O_33  and  C_35
                            x       y       z     vdW  Elec       q    Type
                         _______ _______ _______ _____ _____    ______ ____

>  <TORSDO>
F 14

$$$$
=
 OpenBabel11062421543D

 37 38  0  0  1  0  0  0  0  0999 V2000
  193.5510  174.7200  143.5970 N   0  0  0  0  0  0  0  0  0  0  0  0
  195.9480  175.5930  142.7000 O   0  0  0  0  0  0  0  0  0  0  0  0
  194.5410  175.2740  142.2810 S   0  0  0  0  0  0  0  0  0  0  0  0
  193.8930  176.3560  141.4650 O   0  0  0  0  0  0  0  0  0  0  0  0
  193.5330  173.4010  142.9000 C   0  0  2  0  0  3  0  0  0  0  0  0
  194.3380  173.6940  141.6490 C   0  0  0  0  0  2  0  0  0  0  0  0
  193.0310  175.3000  144.7970 C   0  0  0  0  0  0  0  0  0  0  0  0
  191.1870  176.2140  146.1020 C   0  0  0  0  0  0  0  0  0  0  0  0
  190.7990  175.4270  143.8530 O   0  0  0  0  0  1  0  0  0  0  0  0
  193.8920  175.5140  145.8770 C   0  0  0  0  0  3  0  0  0  0  0  0
  191.6740  175.6530  144.9100 C   0  0  0  0  0  0  0  0  0  0  0  0
  191.6510  177.0970  148.3260 O   0  0  0  0  0  1  0  0  0  0  0  0
  193.4200  176.0980  147.0510 C   0  0  0  0  0  3  0  0  0  0  0  0
  192.0770  176.4630  147.1660 C   0  0  0  0  0  0  0  0  0  0  0  0
  189.7990  176.5730  146.1800 N   0  0  0  0  0  2  0  0  0  0  0  0
  187.4680  176.3780  146.9990 N   0  0  0  0  0  2  0  0  0  0  0  0
  188.7730  175.8190  146.8380 C   0  0  0  0  0  0  0  0  0  0  0  0
  188.9700  174.5820  147.1560 N   0  0  0  0  0  2  0  0  0  0  0  0
  187.1330  177.7340  146.5880 C   0  0  0  0  0  2  0  0  0  0  0  0
  186.0480  177.7210  145.5160 C   0  0  2  0  0  3  0  0  0  0  0  0
  185.8370  179.1180  144.9350 C   0  0  0  0  0  2  0  0  0  0  0  0
  185.7530  179.0990  143.4160 C   0  0  0  0  0  1  0  0  0  0  0  0
  184.2920  178.2790  146.7460 C   0  0  0  0  0  1  0  0  0  0  0  0
  184.8500  177.2150  146.0330 O   0  0  0  0  0  0  0  0  0  0  0  0
  192.0900  172.9350  142.6070 C   0  0  2  0  0  3  0  0  0  0  0  0
  191.6200  171.7070  143.4040 C   0  0  2  0  0  3  0  0  0  0  0  0
  190.9800  172.1190  144.5740 O   0  0  0  0  0  1  0  0  0  0  0  0
  192.9900  169.8550  142.7810 O   0  0  0  0  0  1  0  0  0  0  0  0
  192.8040  170.8260  143.7660 C   0  0  0  0  0  2  0  0  0  0  0  0
  191.7350  172.9310  141.2370 O   0  0  0  0  0  0  0  0  0  0  0  0
  190.5570  172.1840  141.0630 C   0  0  0  0  0  2  0  0  0  0  0  0
  189.3880  173.1010  140.7200 C   0  0  2  0  0  3  0  0  0  0  0  0
  188.2140  172.2730  142.6380 O   0  0  0  0  0  1  0  0  0  0  0  0
  187.8590  174.4770  142.1270 O   0  0  0  0  0  0  0  0  0  0  0  0
  188.4530  173.2480  141.8790 C   0  0  0  0  0  0  0  0  0  0  0  0
  188.7050  172.6230  139.5970 O   0  0  0  0  0  0  0  0  0  0  0  0
  188.6210  173.7190  138.7360 C   0  0  0  0  0  1  0  0  0  0  0  0
  1  7  1  0  0  0  0
  3  2  2  0  0  0  0
  3  1  1  0  0  0  0
  4  3  2  0  0  0  0
  5 25  1  6  0  0  0
  5  1  1  0  0  0  0
  6  3  1  0  0  0  0
  6  5  1  0  0  0  0
  7 11  2  0  0  0  0
  7 10  1  0  0  0  0
  8 15  1  0  0  0  0
  8 14  2  0  0  0  0
  9 11  1  0  0  0  0
 10 13  2  0  0  0  0
 11  8  1  0  0  0  0
 13 14  1  0  0  0  0
 14 12  1  0  0  0  0
 15 17  1  0  0  0  0
 17 16  1  0  0  0  0
 17 18  2  0  0  0  0
 19 16  1  0  0  0  0
 20 21  1  1  0  0  0
 20 24  1  0  0  0  0
 20 19  1  0  0  0  0
 22 21  1  0  0  0  0
 24 23  1  0  0  0  0
 25 30  1  6  0  0  0
 25 26  1  0  0  0  0
 26 29  1  0  0  0  0
 26 27  1  1  0  0  0
 28 29  1  0  0  0  0
 31 30  1  0  0  0  0
 32 31  1  1  0  0  0
 32 35  1  0  0  0  0
 35 34  2  0  0  0  0
 35 33  1  0  0  0  0
 36 32  1  0  0  0  0
 37 36  1  0  0  0  0
M  END
>  <MODEL>
5

>  <REMARK>
 VINA RESULT:      -5.7      2.636      7.931
  Name = 
  14 active torsions:
  status: ('A' for Active; 'I' for Inactive)
    1  A    between atoms: C_1  and  C_14
    2  A    between atoms: C_1  and  C_24
    3  A    between atoms: C_1  and  O_33
    4  A    between atoms: C_2  and  N_6
    5  A    between atoms: N_4  and  C_10
    6  A    between atoms: C_5  and  C_34
    7  A    between atoms: C_5  and  C_35
    8  A    between atoms: C_5  and  O_36
    9  A    between atoms: C_7  and  C_20
   10  A    between atoms: C_14  and  C_17
   11  A    between atoms: N_15  and  C_30
   12  A    between atoms: C_20  and  O_29
   13  A    between atoms: C_20  and  C_30
   14  A    between atoms: O_33  and  C_35
                            x       y       z     vdW  Elec       q    Type
                         _______ _______ _______ _____ _____    ______ ____

>  <TORSDO>
F 14

$$$$
=
 OpenBabel11062421543D

 37 38  0  0  1  0  0  0  0  0999 V2000
  190.4510  175.8530  145.2800 N   0  0  0  0  0  0  0  0  0  0  0  0
  191.5230  176.7990  147.5750 O   0  0  0  0  0  0  0  0  0  0  0  0
  190.3160  176.1200  146.9930 S   0  0  0  0  0  0  0  0  0  0  0  0
  189.8840  174.8980  147.7510 O   0  0  0  0  0  0  0  0  0  0  0  0
  189.3480  176.8480  145.1370 C   0  0  2  0  0  3  0  0  0  0  0  0
  189.0390  177.1870  146.5830 C   0  0  0  0  0  2  0  0  0  0  0  0
  191.2770  175.0480  144.4350 C   0  0  0  0  0  0  0  0  0  0  0  0
  193.2530  174.7450  143.0400 C   0  0  0  0  0  0  0  0  0  0  0  0
  192.8540  176.8660  144.1220 O   0  0  0  0  0  1  0  0  0  0  0  0
  190.9030  173.7260  144.1790 C   0  0  0  0  0  3  0  0  0  0  0  0
  192.4550  175.5590  143.8620 C   0  0  0  0  0  0  0  0  0  0  0  0
  193.5550  172.6220  141.8820 O   0  0  0  0  0  1  0  0  0  0  0  0
  191.6750  172.9220  143.3420 C   0  0  0  0  0  3  0  0  0  0  0  0
  192.8400  173.4270  142.7590 C   0  0  0  0  0  0  0  0  0  0  0  0
  194.4430  175.3020  142.4630 N   0  0  0  0  0  2  0  0  0  0  0  0
  196.8870  175.4960  142.0960 N   0  0  0  0  0  2  0  0  0  0  0  0
  195.7880  175.0170  142.8730 C   0  0  0  0  0  0  0  0  0  0  0  0
  196.0210  174.4610  144.0150 N   0  0  0  0  0  2  0  0  0  0  0  0
  196.7150  176.2110  140.8390 C   0  0  0  0  0  2  0  0  0  0  0  0
  196.7120  175.2420  139.6620 C   0  0  2  0  0  3  0  0  0  0  0  0
  197.8930  175.5080  138.7310 C   0  0  0  0  0  2  0  0  0  0  0  0
  197.9400  174.5260  137.5710 C   0  0  0  0  0  1  0  0  0  0  0  0
  194.8810  174.0910  139.1820 C   0  0  0  0  0  1  0  0  0  0  0  0
  195.5030  175.3210  138.9610 O   0  0  0  0  0  0  0  0  0  0  0  0
  188.1430  176.2520  144.3760 C   0  0  2  0  0  3  0  0  0  0  0  0
  188.1730  176.4370  142.8500 C   0  0  2  0  0  3  0  0  0  0  0  0
  188.4140  175.2100  142.2290 O   0  0  0  0  0  1  0  0  0  0  0  0
  188.7140  178.4610  141.7080 O   0  0  0  0  0  1  0  0  0  0  0  0
  189.2640  177.4190  142.4560 C   0  0  0  0  0  2  0  0  0  0  0  0
  186.8860  176.4820  144.9820 O   0  0  0  0  0  0  0  0  0  0  0  0
  186.1000  177.2830  144.1360 C   0  0  0  0  0  2  0  0  0  0  0  0
  186.0530  178.7180  144.6500 C   0  0  2  0  0  3  0  0  0  0  0  0
  184.0120  178.8140  145.9030 O   0  0  0  0  0  0  0  0  0  0  0  0
  185.9420  178.8940  147.1340 O   0  0  0  0  0  1  0  0  0  0  0  0
  185.2710  178.8160  145.9220 C   0  0  0  0  0  0  0  0  0  0  0  0
  185.5170  179.5680  143.6780 O   0  0  0  0  0  0  0  0  0  0  0  0
  185.2680  178.7440  142.5800 C   0  0  0  0  0  1  0  0  0  0  0  0
  1  3  1  0  0  0  0
  3  2  2  0  0  0  0
  3  4  2  0  0  0  0
  5 25  1  1  0  0  0
  5  1  1  0  0  0  0
  5  6  1  0  0  0  0
  6  3  1  0  0  0  0
  7  1  1  0  0  0  0
  8 11  1  0  0  0  0
 10  7  1  0  0  0  0
 11  9  1  0  0  0  0
 11  7  2  0  0  0  0
 12 14  1  0  0  0  0
 13 10  2  0  0  0  0
 14  8  2  0  0  0  0
 14 13  1  0  0  0  0
 15 17  1  0  0  0  0
 15  8  1  0  0  0  0
 16 17  1  0  0  0  0
 17 18  2  0  0  0  0
 19 16  1  0  0  0  0
 20 21  1  6  0  0  0
 20 19  1  0  0  0  0
 22 21  1  0  0  0  0
 24 23  1  0  0  0  0
 24 20  1  0  0  0  0
 25 30  1  1  0  0  0
 26 27  1  6  0  0  0
 26 25  1  0  0  0  0
 28 29  1  0  0  0  0
 29 26  1  0  0  0  0
 31 30  1  0  0  0  0
 32 31  1  6  0  0  0
 32 35  1  0  0  0  0
 33 35  2  0  0  0  0
 35 34  1  0  0  0  0
 36 32  1  0  0  0  0
 37 36  1  0  0  0  0
M  END
>  <MODEL>
6

>  <REMARK>
 VINA RESULT:      -5.6      2.562      4.882
  Name = 
  14 active torsions:
  status: ('A' for Active; 'I' for Inactive)
    1  A    between atoms: C_1  and  C_14
    2  A    between atoms: C_1  and  C_24
    3  A    between atoms: C_1  and  O_33
    4  A    between atoms: C_2  and  N_6
    5  A    between atoms: N_4  and  C_10
    6  A    between atoms: C_5  and  C_34
    7  A    between atoms: C_5  and  C_35
    8  A    between atoms: C_5  and  O_36
    9  A    between atoms: C_7  and  C_20
   10  A    between atoms: C_14  and  C_17
   11  A    between atoms: N_15  and  C_30
   12  A    between atoms: C_20  and  O_29
   13  A    between atoms: C_20  and  C_30
   14  A    between atoms: O_33  and  C_35
                            x       y       z     vdW  Elec       q    Type
                         _______ _______ _______ _____ _____    ______ ____

>  <TORSDO>
F 14

$$$$
=
 OpenBabel11062421543D

 37 38  0  0  1  0  0  0  0  0999 V2000
  192.9490  174.8950  141.5100 N   0  0  0  0  0  0  0  0  0  0  0  0
  193.8550  175.2720  138.9910 O   0  0  0  0  0  0  0  0  0  0  0  0
  194.2220  174.7230  140.3390 S   0  0  0  0  0  0  0  0  0  0  0  0
  194.8000  173.3370  140.2910 O   0  0  0  0  0  0  0  0  0  0  0  0
  193.8520  175.8580  142.2060 C   0  0  2  0  0  3  0  0  0  0  0  0
  195.0910  175.8170  141.3310 C   0  0  0  0  0  2  0  0  0  0  0  0
  191.6370  174.3520  141.6780 C   0  0  0  0  0  0  0  0  0  0  0  0
  189.3100  174.5630  142.3750 C   0  0  0  0  0  0  0  0  0  0  0  0
  190.8140  176.4370  142.6070 O   0  0  0  0  0  1  0  0  0  0  0  0
  191.3910  173.0340  141.2830 C   0  0  0  0  0  3  0  0  0  0  0  0
  190.5930  175.1180  142.2280 C   0  0  0  0  0  0  0  0  0  0  0  0
  187.8610  172.6100  142.2240 O   0  0  0  0  0  1  0  0  0  0  0  0
  190.1280  172.4690  141.4540 C   0  0  0  0  0  3  0  0  0  0  0  0
  189.0900  173.2200  142.0100 C   0  0  0  0  0  0  0  0  0  0  0  0
  188.2710  175.3690  142.9500 N   0  0  0  0  0  2  0  0  0  0  0  0
  186.1940  176.7210  142.9150 N   0  0  0  0  0  2  0  0  0  0  0  0
  187.2820  176.1090  142.2210 C   0  0  0  0  0  0  0  0  0  0  0  0
  187.4440  176.3550  140.9630 N   0  0  0  0  0  2  0  0  0  0  0  0
  185.9860  176.5710  144.3480 C   0  0  0  0  0  2  0  0  0  0  0  0
  186.3420  177.8580  145.0840 C   0  0  2  0  0  3  0  0  0  0  0  0
  185.9170  179.0840  144.2780 C   0  0  0  0  0  2  0  0  0  0  0  0
  184.4430  179.4080  144.4630 C   0  0  0  0  0  1  0  0  0  0  0  0
  187.9300  176.8370  146.2410 C   0  0  0  0  0  1  0  0  0  0  0  0
  187.7120  177.9030  145.3660 O   0  0  0  0  0  0  0  0  0  0  0  0
  194.1170  175.4330  143.6670 C   0  0  2  0  0  3  0  0  0  0  0  0
  193.7750  176.4900  144.7310 C   0  0  2  0  0  3  0  0  0  0  0  0
  194.9500  176.9980  145.2870 O   0  0  0  0  0  1  0  0  0  0  0  0
  192.1160  174.8720  145.3010 O   0  0  0  0  0  1  0  0  0  0  0  0
  192.9250  175.8770  145.8320 C   0  0  0  0  0  2  0  0  0  0  0  0
  195.3370  174.7490  143.8730 O   0  0  0  0  0  0  0  0  0  0  0  0
  195.0910  173.3670  143.9400 C   0  0  0  0  0  2  0  0  0  0  0  0
  195.1310  172.8850  145.3860 C   0  0  2  0  0  3  0  0  0  0  0  0
  197.1570  171.6400  145.6860 O   0  0  0  0  0  0  0  0  0  0  0  0
  197.1710  173.7780  146.5060 O   0  0  0  0  0  1  0  0  0  0  0  0
  196.5380  172.7220  145.8680 C   0  0  0  0  0  0  0  0  0  0  0  0
  194.4240  171.6870  145.5220 O   0  0  0  0  0  0  0  0  0  0  0  0
  193.3550  171.7990  144.6310 C   0  0  0  0  0  1  0  0  0  0  0  0
  1  7  1  0  0  0  0
  1  5  1  0  0  0  0
  2  3  2  0  0  0  0
  3  6  1  0  0  0  0
  3  1  1  0  0  0  0
  4  3  2  0  0  0  0
  5 25  1  1  0  0  0
  6  5  1  0  0  0  0
  7 11  1  0  0  0  0
  8 15  1  0  0  0  0
 10 13  1  0  0  0  0
 10  7  2  0  0  0  0
 11  8  2  0  0  0  0
 11  9  1  0  0  0  0
 13 14  2  0  0  0  0
 14 12  1  0  0  0  0
 14  8  1  0  0  0  0
 16 19  1  0  0  0  0
 17 16  1  0  0  0  0
 17 15  1  0  0  0  0
 18 17  2  0  0  0  0
 19 20  1  0  0  0  0
 20 21  1  6  0  0  0
 20 24  1  0  0  0  0
 21 22  1  0  0  0  0
 24 23  1  0  0  0  0
 25 30  1  6  0  0  0
 25 26  1  0  0  0  0
 26 27  1  1  0  0  0
 26 29  1  0  0  0  0
 28 29  1  0  0  0  0
 30 31  1  0  0  0  0
 32 31  1  6  0  0  0
 32 36  1  0  0  0  0
 32 35  1  0  0  0  0
 33 35  2  0  0  0  0
 35 34  1  0  0  0  0
 37 36  1  0  0  0  0
M  END
>  <MODEL>
7

>  <REMARK>
 VINA RESULT:      -5.6      2.779      7.057
  Name = 
  14 active torsions:
  status: ('A' for Active; 'I' for Inactive)
    1  A    between atoms: C_1  and  C_14
    2  A    between atoms: C_1  and  C_24
    3  A    between atoms: C_1  and  O_33
    4  A    between atoms: C_2  and  N_6
    5  A    between atoms: N_4  and  C_10
    6  A    between atoms: C_5  and  C_34
    7  A    between atoms: C_5  and  C_35
    8  A    between atoms: C_5  and  O_36
    9  A    between atoms: C_7  and  C_20
   10  A    between atoms: C_14  and  C_17
   11  A    between atoms: N_15  and  C_30
   12  A    between atoms: C_20  and  O_29
   13  A    between atoms: C_20  and  C_30
   14  A    between atoms: O_33  and  C_35
                            x       y       z     vdW  Elec       q    Type
                         _______ _______ _______ _____ _____    ______ ____

>  <TORSDO>
F 14

$$$$
=
 OpenBabel11062421543D

 37 38  0  0  1  0  0  0  0  0999 V2000
  194.4580  175.1760  143.8230 N   0  0  0  0  0  0  0  0  0  0  0  0
  196.4990  176.7880  143.0810 O   0  0  0  0  0  0  0  0  0  0  0  0
  195.4100  175.8940  142.5580 S   0  0  0  0  0  0  0  0  0  0  0  0
  194.5810  176.5200  141.4740 O   0  0  0  0  0  0  0  0  0  0  0  0
  195.0510  173.8750  143.3980 C   0  0  2  0  0  3  0  0  0  0  0  0
  195.9170  174.2910  142.2240 C   0  0  0  0  0  2  0  0  0  0  0  0
  193.5460  175.6600  144.8130 C   0  0  0  0  0  0  0  0  0  0  0  0
  191.3650  176.5340  145.4640 C   0  0  0  0  0  0  0  0  0  0  0  0
  191.8080  175.9940  143.1530 O   0  0  0  0  0  1  0  0  0  0  0  0
  193.9610  175.7230  146.1460 C   0  0  0  0  0  3  0  0  0  0  0  0
  192.2440  176.0690  144.4710 C   0  0  0  0  0  0  0  0  0  0  0  0
  191.0040  177.1670  147.7890 O   0  0  0  0  0  1  0  0  0  0  0  0
  193.1020  176.2110  147.1310 C   0  0  0  0  0  3  0  0  0  0  0  0
  191.8130  176.6300  146.7960 C   0  0  0  0  0  0  0  0  0  0  0  0
  190.0480  176.9540  145.0780 N   0  0  0  0  0  2  0  0  0  0  0  0
  187.5760  176.7960  144.9780 N   0  0  0  0  0  2  0  0  0  0  0  0
  188.8440  176.1900  145.2340 C   0  0  0  0  0  0  0  0  0  0  0  0
  188.8990  174.9190  145.4590 N   0  0  0  0  0  2  0  0  0  0  0  0
  187.4290  178.2030  144.6300 C   0  0  0  0  0  2  0  0  0  0  0  0
  185.9560  178.5960  144.5830 C   0  0  2  0  0  3  0  0  0  0  0  0
  185.4680  179.0550  145.9560 C   0  0  0  0  0  2  0  0  0  0  0  0
  184.4560  178.0920  146.5560 C   0  0  0  0  0  1  0  0  0  0  0  0
  184.8030  177.9100  142.8210 C   0  0  0  0  0  1  0  0  0  0  0  0
  185.1760  177.5330  144.1130 O   0  0  0  0  0  0  0  0  0  0  0  0
  193.9590  172.8500  143.0220 C   0  0  2  0  0  3  0  0  0  0  0  0
  193.5120  171.9180  144.1610 C   0  0  2  0  0  3  0  0  0  0  0  0
  192.2550  172.3090  144.6260 O   0  0  0  0  0  1  0  0  0  0  0  0
  194.5710  170.7220  145.9340 O   0  0  0  0  0  1  0  0  0  0  0  0
  194.5070  171.9680  145.3080 C   0  0  0  0  0  2  0  0  0  0  0  0
  194.1430  172.2190  141.7700 O   0  0  0  0  0  0  0  0  0  0  0  0
  192.8980  172.0580  141.1400 C   0  0  0  0  0  2  0  0  0  0  0  0
  192.1220  173.3710  141.1460 C   0  0  2  0  0  3  0  0  0  0  0  0
  189.8330  174.0800  141.1870 O   0  0  0  0  0  0  0  0  0  0  0  0
  190.1970  171.8630  141.6340 O   0  0  0  0  0  1  0  0  0  0  0  0
  190.6550  173.1360  141.3260 C   0  0  0  0  0  0  0  0  0  0  0  0
  192.3630  174.0870  139.9700 O   0  0  0  0  0  0  0  0  0  0  0  0
  192.3480  173.1270  138.9570 C   0  0  0  0  0  1  0  0  0  0  0  0
  1  7  1  0  0  0  0
  3  2  2  0  0  0  0
  3  1  1  0  0  0  0
  4  3  2  0  0  0  0
  5 25  1  6  0  0  0
  5  1  1  0  0  0  0
  6  3  1  0  0  0  0
  6  5  1  0  0  0  0
  7 10  1  0  0  0  0
  8 14  2  0  0  0  0
  9 11  1  0  0  0  0
 10 13  2  0  0  0  0
 11  7  2  0  0  0  0
 11  8  1  0  0  0  0
 14 13  1  0  0  0  0
 14 12  1  0  0  0  0
 15 17  1  0  0  0  0
 15  8  1  0  0  0  0
 16 17  1  0  0  0  0
 17 18  2  0  0  0  0
 19 16  1  0  0  0  0
 20 19  1  1  0  0  0
 20 21  1  0  0  0  0
 21 22  1  0  0  0  0
 23 24  1  0  0  0  0
 24 20  1  0  0  0  0
 25 30  1  6  0  0  0
 25 26  1  0  0  0  0
 26 27  1  1  0  0  0
 26 29  1  0  0  0  0
 29 28  1  0  0  0  0
 31 30  1  0  0  0  0
 32 31  1  6  0  0  0
 32 35  1  0  0  0  0
 33 35  2  0  0  0  0
 35 34  1  0  0  0  0
 36 32  1  0  0  0  0
 37 36  1  0  0  0  0
M  END
>  <MODEL>
8

>  <REMARK>
 VINA RESULT:      -5.5      2.723      8.144
  Name = 
  14 active torsions:
  status: ('A' for Active; 'I' for Inactive)
    1  A    between atoms: C_1  and  C_14
    2  A    between atoms: C_1  and  C_24
    3  A    between atoms: C_1  and  O_33
    4  A    between atoms: C_2  and  N_6
    5  A    between atoms: N_4  and  C_10
    6  A    between atoms: C_5  and  C_34
    7  A    between atoms: C_5  and  C_35
    8  A    between atoms: C_5  and  O_36
    9  A    between atoms: C_7  and  C_20
   10  A    between atoms: C_14  and  C_17
   11  A    between atoms: N_15  and  C_30
   12  A    between atoms: C_20  and  O_29
   13  A    between atoms: C_20  and  C_30
   14  A    between atoms: O_33  and  C_35
                            x       y       z     vdW  Elec       q    Type
                         _______ _______ _______ _____ _____    ______ ____

>  <TORSDO>
F 14

$$$$
=
 OpenBabel11062421543D

 37 38  0  0  1  0  0  0  0  0999 V2000
  193.6410  175.6190  142.6800 N   0  0  0  0  0  0  0  0  0  0  0  0
  194.9700  177.1450  140.8870 O   0  0  0  0  0  0  0  0  0  0  0  0
  195.0670  175.9050  141.7290 S   0  0  0  0  0  0  0  0  0  0  0  0
  195.5280  174.6930  140.9700 O   0  0  0  0  0  0  0  0  0  0  0  0
  194.4970  175.8980  143.8700 C   0  0  2  0  0  3  0  0  0  0  0  0
  195.8530  176.1370  143.2340 C   0  0  0  0  0  2  0  0  0  0  0  0
  192.2780  175.2880  142.4000 C   0  0  0  0  0  0  0  0  0  0  0  0
  189.8860  175.6210  142.7360 C   0  0  0  0  0  0  0  0  0  0  0  0
  191.4750  176.9840  143.9390 O   0  0  0  0  0  1  0  0  0  0  0  0
  192.0000  174.2760  141.4770 C   0  0  0  0  0  3  0  0  0  0  0  0
  191.2170  175.9610  143.0330 C   0  0  0  0  0  0  0  0  0  0  0  0
  188.3250  174.1480  141.5820 O   0  0  0  0  0  1  0  0  0  0  0  0
  190.6820  173.9150  141.2000 C   0  0  0  0  0  3  0  0  0  0  0  0
  189.6240  174.5710  141.8340 C   0  0  0  0  0  0  0  0  0  0  0  0
  188.8290  176.3210  143.4080 N   0  0  0  0  0  2  0  0  0  0  0  0
  186.9970  177.9800  143.6020 N   0  0  0  0  0  2  0  0  0  0  0  0
  188.1550  177.4900  142.9230 C   0  0  0  0  0  0  0  0  0  0  0  0
  188.6680  178.1930  141.9680 N   0  0  0  0  0  2  0  0  0  0  0  0
  186.4040  177.2990  144.7440 C   0  0  0  0  0  2  0  0  0  0  0  0
  186.5830  178.1200  146.0170 C   0  0  2  0  0  3  0  0  0  0  0  0
  187.7030  177.5480  146.8830 C   0  0  0  0  0  2  0  0  0  0  0  0
  187.7900  176.0330  146.7800 C   0  0  0  0  0  1  0  0  0  0  0  0
  184.4390  178.6370  145.8140 C   0  0  0  0  0  1  0  0  0  0  0  0
  185.3850  178.1830  146.7360 O   0  0  0  0  0  0  0  0  0  0  0  0
  194.4860  174.7160  144.8650 C   0  0  2  0  0  3  0  0  0  0  0  0
  193.6890  174.9540  146.1590 C   0  0  2  0  0  3  0  0  0  0  0  0
  192.3780  174.5030  145.9960 O   0  0  0  0  0  1  0  0  0  0  0  0
  192.5080  176.7380  147.2150 O   0  0  0  0  0  1  0  0  0  0  0  0
  193.6700  176.4330  146.5050 C   0  0  0  0  0  2  0  0  0  0  0  0
  195.7350  174.0770  145.0410 O   0  0  0  0  0  0  0  0  0  0  0  0
  195.6450  172.7470  144.5970 C   0  0  0  0  0  2  0  0  0  0  0  0
  195.7700  171.7810  145.7700 C   0  0  2  0  0  3  0  0  0  0  0  0
  197.1370  169.9180  146.4060 O   0  0  0  0  0  1  0  0  0  0  0  0
  197.8080  171.0520  144.5330 O   0  0  0  0  0  0  0  0  0  0  0  0
  196.9410  170.8650  145.6000 C   0  0  0  0  0  0  0  0  0  0  0  0
  194.5910  171.0460  145.9270 O   0  0  0  0  0  0  0  0  0  0  0  0
  193.9710  171.0940  144.6780 C   0  0  0  0  0  1  0  0  0  0  0  0
  1  5  1  0  0  0  0
  2  3  2  0  0  0  0
  3  1  1  0  0  0  0
  3  6  1  0  0  0  0
  4  3  2  0  0  0  0
  5 25  1  1  0  0  0
  6  5  1  0  0  0  0
  7  1  1  0  0  0  0
  7 11  1  0  0  0  0
  8 11  2  0  0  0  0
  8 15  1  0  0  0  0
 10  7  2  0  0  0  0
 11  9  1  0  0  0  0
 12 14  1  0  0  0  0
 13 10  1  0  0  0  0
 13 14  2  0  0  0  0
 14  8  1  0  0  0  0
 16 19  1  0  0  0  0
 17 15  1  0  0  0  0
 17 16  1  0  0  0  0
 18 17  2  0  0  0  0
 20 19  1  6  0  0  0
 20 24  1  0  0  0  0
 20 21  1  0  0  0  0
 22 21  1  0  0  0  0
 23 24  1  0  0  0  0
 25 30  1  1  0  0  0
 25 26  1  0  0  0  0
 26 27  1  6  0  0  0
 26 29  1  0  0  0  0
 29 28  1  0  0  0  0
 31 30  1  0  0  0  0
 32 31  1  6  0  0  0
 32 36  1  0  0  0  0
 34 35  2  0  0  0  0
 35 32  1  0  0  0  0
 35 33  1  0  0  0  0
 37 36  1  0  0  0  0
M  END
>  <MODEL>
9

>  <REMARK>
 VINA RESULT:      -5.5      3.100      7.277
  Name = 
  14 active torsions:
  status: ('A' for Active; 'I' for Inactive)
    1  A    between atoms: C_1  and  C_14
    2  A    between atoms: C_1  and  C_24
    3  A    between atoms: C_1  and  O_33
    4  A    between atoms: C_2  and  N_6
    5  A    between atoms: N_4  and  C_10
    6  A    between atoms: C_5  and  C_34
    7  A    between atoms: C_5  and  C_35
    8  A    between atoms: C_5  and  O_36
    9  A    between atoms: C_7  and  C_20
   10  A    between atoms: C_14  and  C_17
   11  A    between atoms: N_15  and  C_30
   12  A    between atoms: C_20  and  O_29
   13  A    between atoms: C_20  and  C_30
   14  A    between atoms: O_33  and  C_35
                            x       y       z     vdW  Elec       q    Type
                         _______ _______ _______ _____ _____    ______ ____

>  <TORSDO>
F 14

$$$$
