=
 OpenBabel11062422183D

 41 44  0  0  1  0  0  0  0  0999 V2000
  187.0630  177.0520  144.0100 C   0  0  1  0  0  3  0  0  0  0  0  0
  190.4700  174.0260  141.3290 C   0  0  0  0  0  2  0  0  0  0  0  0
  192.9040  176.6690  143.5820 C   0  0  0  0  0  2  0  0  0  0  0  0
  186.2910  176.2960  142.9730 C   0  0  0  0  0  3  0  0  0  0  0  0
  188.3960  175.3610  142.0780 C   0  0  0  0  0  0  0  0  0  0  0  0
  190.6370  175.9970  142.8710 C   0  0  0  0  0  0  0  0  0  0  0  0
  189.1910  176.2790  142.6770 C   0  0  0  0  0  0  0  0  0  0  0  0
  193.4330  175.8060  142.4470 C   0  0  2  0  0  3  0  0  0  0  0  0
  191.4530  176.9420  143.3510 C   0  0  0  0  0  3  0  0  0  0  0  0
  188.2480  173.2240  141.0370 O   0  0  0  0  0  0  0  0  0  0  0  0
  188.9850  174.1490  141.4680 C   0  0  0  0  0  0  0  0  0  0  0  0
  188.4970  177.8550  143.2370 S   0  0  0  0  0  0  0  0  0  0  0  0
  186.9200  175.5030  142.1000 C   0  0  0  0  0  3  0  0  0  0  0  0
  192.6860  174.4680  142.4180 C   0  0  0  0  0  2  0  0  0  0  0  0
  191.1580  174.6020  142.5580 C   0  0  2  0  0  3  0  0  0  0  0  0
  186.2210  178.0260  144.7040 N   0  0  0  0  0  0  0  0  0  0  0  0
  185.8500  177.7960  146.0740 C   0  0  0  0  0  0  0  0  0  0  0  0
  185.1400  178.6350  146.6890 O   0  0  0  0  0  0  0  0  0  0  0  0
  185.6530  179.4840  143.8670 S   0  0  0  0  0  0  0  0  0  0  0  0
  184.0090  178.7840  143.5470 C   0  0  0  0  0  1  0  0  0  0  0  0
  186.3230  176.5800  146.8020 C   0  0  0  0  0  2  0  0  0  0  0  0
  187.7570  176.7850  147.2610 C   0  0  0  0  0  2  0  0  0  0  0  0
  188.6510  175.6660  146.7560 C   0  0  2  0  0  3  0  0  0  0  0  0
  188.6790  174.6480  147.7100 O   0  0  0  0  0  1  0  0  0  0  0  0
  190.0700  176.1900  146.5220 C   0  0  1  0  0  3  0  0  0  0  0  0
  191.3440  176.6000  148.0660 C   0  0  0  0  0  2  0  0  0  0  0  0
  190.3370  177.3660  147.3420 N   0  0  0  0  0  2  0  0  0  0  0  0
  191.0880  175.3500  147.2620 C   0  0  0  0  0  2  0  0  0  0  0  0
  195.8630  175.5920  141.3220 O   0  0  0  0  0  0  0  0  0  0  0  0
  195.1780  175.5170  142.6570 S   0  0  0  0  0  0  0  0  0  0  0  0
  195.7420  176.5680  143.5680 O   0  0  0  0  0  0  0  0  0  0  0  0
  195.4310  173.9460  143.3510 N   0  0  0  0  0  2  0  0  0  0  0  0
  195.7590  174.1180  144.7630 C   0  0  2  0  0  3  0  0  0  0  0  0
  197.0780  173.0260  146.4370 O   0  0  0  0  0  0  0  0  0  0  0  0
  196.6840  173.0430  145.2390 C   0  0  0  0  0  0  0  0  0  0  0  0
  197.1230  172.0440  144.3200 N   0  0  0  0  0  2  0  0  0  0  0  0
  197.9410  170.9120  144.7210 C   0  0  0  0  0  2  0  0  0  0  0  0
  197.0910  169.6570  144.8250 C   0  0  0  0  0  2  0  0  0  0  0  0
  196.1160  169.6590  143.8270 O   0  0  0  0  0  1  0  0  0  0  0  0
  193.6580  172.9390  145.5420 C   0  0  0  0  0  1  0  0  0  0  0  0
  194.4930  174.2060  145.6110 C   0  0  0  0  0  2  0  0  0  0  0  0
  1 16  1  6  0  0  0
  2 11  1  0  0  0  0
  4  1  1  0  0  0  0
  5 13  1  0  0  0  0
  5  7  2  0  0  0  0
  6  9  2  0  0  0  0
  7  6  1  0  0  0  0
  7 12  1  0  0  0  0
  8 30  1  1  0  0  0
  8  3  1  0  0  0  0
  9  3  1  0  0  0  0
 10 11  2  0  0  0  0
 11  5  1  0  0  0  0
 12  1  1  0  0  0  0
 13  4  2  0  0  0  0
 14  8  1  0  0  0  0
 14 15  1  0  0  0  0
 15  2  1  6  0  0  0
 15  6  1  0  0  0  0
 16 17  1  0  0  0  0
 17 18  2  0  0  0  0
 17 21  1  0  0  0  0
 19 16  1  0  0  0  0
 20 19  1  0  0  0  0
 21 22  1  0  0  0  0
 23 22  1  0  0  0  0
 23 24  1  1  0  0  0
 25 23  1  1  0  0  0
 25 28  1  0  0  0  0
 25 27  1  0  0  0  0
 27 26  1  0  0  0  0
 28 26  1  0  0  0  0
 29 30  2  0  0  0  0
 30 32  1  0  0  0  0
 30 31  2  0  0  0  0
 32 33  1  0  0  0  0
 33 35  1  0  0  0  0
 33 41  1  1  0  0  0
 35 34  2  0  0  0  0
 36 37  1  0  0  0  0
 36 35  1  0  0  0  0
 37 38  1  0  0  0  0
 39 38  1  0  0  0  0
 40 41  1  0  0  0  0
M  END
>  <MODEL>
1

>  <REMARK>
 VINA RESULT:      -6.6      0.000      0.000
  Name = 
  13 active torsions:
  status: ('A' for Active; 'I' for Inactive)
    1  A    between atoms: C_1  and  C_14
    2  A    between atoms: C_2  and  N_5
    3  A    between atoms: N_5  and  S_6
    4  A    between atoms: C_10  and  C_19
    5  A    between atoms: C_13  and  C_35
    6  A    between atoms: C_14  and  C_28
    7  A    between atoms: C_16  and  C_35
    8  A    between atoms: N_18  and  S_26
    9  A    between atoms: N_18  and  C_35
   10  A    between atoms: C_19  and  N_33
   11  A    between atoms: C_21  and  S_26
   12  A    between atoms: C_28  and  C_32
   13  A    between atoms: C_32  and  C_36
                            x       y       z     vdW  Elec       q    Type
                         _______ _______ _______ _____ _____    ______ ____

>  <TORSDO>
F 13

$$$$
=
 OpenBabel11062422183D

 41 44  0  0  1  0  0  0  0  0999 V2000
  192.8820  174.2750  144.5150 C   0  0  1  0  0  3  0  0  0  0  0  0
  189.5390  177.4710  147.0750 C   0  0  0  0  0  2  0  0  0  0  0  0
  187.7050  176.7660  143.3170 C   0  0  0  0  0  2  0  0  0  0  0  0
  193.5880  174.8060  145.7240 C   0  0  0  0  0  3  0  0  0  0  0  0
  191.6450  176.2440  146.2330 C   0  0  0  0  0  0  0  0  0  0  0  0
  189.6680  176.4610  144.7840 C   0  0  0  0  0  0  0  0  0  0  0  0
  191.1050  176.1490  144.9940 C   0  0  0  0  0  0  0  0  0  0  0  0
  187.2500  177.8520  144.2800 C   0  0  2  0  0  3  0  0  0  0  0  0
  189.1550  176.4860  143.5480 C   0  0  0  0  0  3  0  0  0  0  0  0
  191.2920  176.7760  148.5280 O   0  0  0  0  0  0  0  0  0  0  0  0
  190.8560  176.8140  147.3480 C   0  0  0  0  0  0  0  0  0  0  0  0
  192.1350  175.6490  143.5910 S   0  0  0  0  0  0  0  0  0  0  0  0
  192.9940  175.7010  146.5190 C   0  0  0  0  0  3  0  0  0  0  0  0
  187.4280  177.3740  145.7250 C   0  0  0  0  0  2  0  0  0  0  0  0
  188.7850  176.7020  146.0000 C   0  0  2  0  0  3  0  0  0  0  0  0
  193.7820  173.4940  143.6660 N   0  0  0  0  0  0  0  0  0  0  0  0
  193.2380  172.5270  142.7520 C   0  0  0  0  0  0  0  0  0  0  0  0
  194.0010  171.8610  142.0040 O   0  0  0  0  0  0  0  0  0  0  0  0
  195.5390  173.7310  143.7600 S   0  0  0  0  0  0  0  0  0  0  0  0
  195.7810  172.2780  144.8220 C   0  0  0  0  0  1  0  0  0  0  0  0
  191.7620  172.3170  142.6490 C   0  0  0  0  0  2  0  0  0  0  0  0
  191.2870  172.6950  141.2560 C   0  0  0  0  0  2  0  0  0  0  0  0
  190.0790  171.8680  140.8550 C   0  0  2  0  0  3  0  0  0  0  0  0
  190.3120  171.3140  139.5950 O   0  0  0  0  0  1  0  0  0  0  0  0
  188.8300  172.7510  140.8030 C   0  0  1  0  0  3  0  0  0  0  0  0
  188.5690  174.1820  139.3680 C   0  0  0  0  0  2  0  0  0  0  0  0
  189.1870  174.1610  140.6880 N   0  0  0  0  0  2  0  0  0  0  0  0
  188.1990  172.7220  139.4280 C   0  0  0  0  0  2  0  0  0  0  0  0
  184.7190  177.8640  145.1790 O   0  0  0  0  0  0  0  0  0  0  0  0
  185.5410  178.2580  143.9850 S   0  0  0  0  0  0  0  0  0  0  0  0
  185.4220  179.7370  143.7620 O   0  0  0  0  0  0  0  0  0  0  0  0
  184.9720  177.4080  142.5830 N   0  0  0  0  0  2  0  0  0  0  0  0
  184.6000  178.3930  141.5720 C   0  0  2  0  0  3  0  0  0  0  0  0
  183.0100  177.6460  139.9440 O   0  0  0  0  0  0  0  0  0  0  0  0
  183.2060  178.1620  141.0770 C   0  0  0  0  0  0  0  0  0  0  0  0
  182.1040  178.5440  141.8990 N   0  0  0  0  0  2  0  0  0  0  0  0
  180.7230  178.2680  141.5390 C   0  0  0  0  0  2  0  0  0  0  0  0
  180.1090  179.4700  140.8430 C   0  0  0  0  0  2  0  0  0  0  0  0
  178.7720  179.6070  141.2190 O   0  0  0  0  0  1  0  0  0  0  0  0
  186.4280  177.1380  140.3500 C   0  0  0  0  0  1  0  0  0  0  0  0
  185.6170  178.4190  140.4340 C   0  0  0  0  0  2  0  0  0  0  0  0
  1 16  1  6  0  0  0
  1  4  1  0  0  0  0
  2 11  1  0  0  0  0
  3  9  1  0  0  0  0
  3  8  1  0  0  0  0
  4 13  2  0  0  0  0
  5 13  1  0  0  0  0
  5 11  1  0  0  0  0
  6  7  1  0  0  0  0
  6 15  1  0  0  0  0
  7  5  2  0  0  0  0
  8 30  1  6  0  0  0
  8 14  1  0  0  0  0
  9  6  2  0  0  0  0
 11 10  2  0  0  0  0
 12  1  1  0  0  0  0
 12  7  1  0  0  0  0
 15 14  1  6  0  0  0
 15  2  1  0  0  0  0
 16 19  1  0  0  0  0
 17 16  1  0  0  0  0
 18 17  2  0  0  0  0
 19 20  1  0  0  0  0
 21 17  1  0  0  0  0
 22 21  1  0  0  0  0
 23 24  1  6  0  0  0
 23 22  1  0  0  0  0
 25 23  1  6  0  0  0
 26 28  1  0  0  0  0
 26 27  1  0  0  0  0
 27 25  1  0  0  0  0
 28 25  1  0  0  0  0
 30 29  2  0  0  0  0
 31 30  2  0  0  0  0
 32 30  1  0  0  0  0
 33 41  1  6  0  0  0
 33 32  1  0  0  0  0
 34 35  2  0  0  0  0
 35 33  1  0  0  0  0
 35 36  1  0  0  0  0
 37 36  1  0  0  0  0
 38 39  1  0  0  0  0
 38 37  1  0  0  0  0
 40 41  1  0  0  0  0
M  END
>  <MODEL>
2

>  <REMARK>
 VINA RESULT:      -6.5      3.065     10.459
  Name = 
  13 active torsions:
  status: ('A' for Active; 'I' for Inactive)
    1  A    between atoms: C_1  and  C_14
    2  A    between atoms: C_2  and  N_5
    3  A    between atoms: N_5  and  S_6
    4  A    between atoms: C_10  and  C_19
    5  A    between atoms: C_13  and  C_35
    6  A    between atoms: C_14  and  C_28
    7  A    between atoms: C_16  and  C_35
    8  A    between atoms: N_18  and  S_26
    9  A    between atoms: N_18  and  C_35
   10  A    between atoms: C_19  and  N_33
   11  A    between atoms: C_21  and  S_26
   12  A    between atoms: C_28  and  C_32
   13  A    between atoms: C_32  and  C_36
                            x       y       z     vdW  Elec       q    Type
                         _______ _______ _______ _____ _____    ______ ____

>  <TORSDO>
F 13

$$$$
=
 OpenBabel11062422183D

 41 44  0  0  1  0  0  0  0  0999 V2000
  187.5170  176.7870  143.9830 C   0  0  1  0  0  3  0  0  0  0  0  0
  190.5250  173.7660  140.8570 C   0  0  0  0  0  2  0  0  0  0  0  0
  193.2570  175.6770  143.4760 C   0  0  0  0  0  2  0  0  0  0  0  0
  186.6660  176.3100  142.8460 C   0  0  0  0  0  3  0  0  0  0  0  0
  188.6390  175.2420  141.8100 C   0  0  0  0  0  0  0  0  0  0  0  0
  190.9320  175.4380  142.6800 C   0  0  0  0  0  0  0  0  0  0  0  0
  189.5420  175.9410  142.5390 C   0  0  0  0  0  0  0  0  0  0  0  0
  193.6830  174.9330  142.2200 C   0  0  2  0  0  3  0  0  0  0  0  0
  191.8610  176.1780  143.2950 C   0  0  0  0  0  3  0  0  0  0  0  0
  188.2200  173.3280  140.4550 O   0  0  0  0  0  0  0  0  0  0  0  0
  189.0680  174.0680  141.0190 C   0  0  0  0  0  0  0  0  0  0  0  0
  189.0590  177.4940  143.3350 S   0  0  0  0  0  0  0  0  0  0  0  0
  187.1960  175.5800  141.8600 C   0  0  0  0  0  3  0  0  0  0  0  0
  192.7620  173.7300  141.9900 C   0  0  0  0  0  2  0  0  0  0  0  0
  191.2650  174.0480  142.1550 C   0  0  2  0  0  3  0  0  0  0  0  0
  186.8030  177.7490  144.8210 N   0  0  0  0  0  0  0  0  0  0  0  0
  186.7440  177.5470  146.2440 C   0  0  0  0  0  0  0  0  0  0  0  0
  186.1480  178.3780  146.9790 O   0  0  0  0  0  0  0  0  0  0  0  0
  186.0100  179.1610  144.0960 S   0  0  0  0  0  0  0  0  0  0  0  0
  184.3510  178.4420  144.2610 C   0  0  0  0  0  1  0  0  0  0  0  0
  187.4120  176.3700  146.8780 C   0  0  0  0  0  2  0  0  0  0  0  0
  188.9070  176.6240  146.9790 C   0  0  0  0  0  2  0  0  0  0  0  0
  189.6780  175.3160  146.9720 C   0  0  2  0  0  3  0  0  0  0  0  0
  188.8770  174.3190  147.5310 O   0  0  0  0  0  1  0  0  0  0  0  0
  190.9640  175.4580  147.7890 C   0  0  1  0  0  3  0  0  0  0  0  0
  192.6090  176.4310  147.0660 C   0  0  0  0  0  2  0  0  0  0  0  0
  192.1290  175.0560  147.0090 N   0  0  0  0  0  2  0  0  0  0  0  0
  191.4120  176.9010  147.8530 C   0  0  0  0  0  2  0  0  0  0  0  0
  195.5470  173.0950  141.6160 O   0  0  0  0  0  0  0  0  0  0  0  0
  195.3690  174.3790  142.3760 S   0  0  0  0  0  0  0  0  0  0  0  0
  196.2820  175.4260  141.8070 O   0  0  0  0  0  0  0  0  0  0  0  0
  195.7470  174.1210  144.0500 N   0  0  0  0  0  2  0  0  0  0  0  0
  195.9230  172.6870  144.2610 C   0  0  2  0  0  3  0  0  0  0  0  0
  193.7910  172.6130  145.3510 O   0  0  0  0  0  0  0  0  0  0  0  0
  194.6250  172.0270  144.6090 C   0  0  0  0  0  0  0  0  0  0  0  0
  194.3480  170.7240  144.0990 N   0  0  0  0  0  2  0  0  0  0  0  0
  193.0760  170.0530  144.3070 C   0  0  0  0  0  2  0  0  0  0  0  0
  193.2910  168.5610  144.4980 C   0  0  0  0  0  2  0  0  0  0  0  0
  193.7690  168.3110  145.7850 O   0  0  0  0  0  1  0  0  0  0  0  0
  197.0030  173.4480  146.4210 C   0  0  0  0  0  1  0  0  0  0  0  0
  197.0020  172.4170  145.3060 C   0  0  0  0  0  2  0  0  0  0  0  0
  1 16  1  6  0  0  0
  2 11  1  0  0  0  0
  4  1  1  0  0  0  0
  5 13  1  0  0  0  0
  5  7  2  0  0  0  0
  6  9  2  0  0  0  0
  7  6  1  0  0  0  0
  7 12  1  0  0  0  0
  8 30  1  1  0  0  0
  8  3  1  0  0  0  0
  9  3  1  0  0  0  0
 10 11  2  0  0  0  0
 11  5  1  0  0  0  0
 12  1  1  0  0  0  0
 13  4  2  0  0  0  0
 14 15  1  0  0  0  0
 14  8  1  0  0  0  0
 15  2  1  6  0  0  0
 15  6  1  0  0  0  0
 16 17  1  0  0  0  0
 17 21  1  0  0  0  0
 17 18  2  0  0  0  0
 19 20  1  0  0  0  0
 19 16  1  0  0  0  0
 21 22  1  0  0  0  0
 23 22  1  0  0  0  0
 23 24  1  1  0  0  0
 25 23  1  6  0  0  0
 25 28  1  0  0  0  0
 26 28  1  0  0  0  0
 27 26  1  0  0  0  0
 27 25  1  0  0  0  0
 29 30  2  0  0  0  0
 30 32  1  0  0  0  0
 31 30  2  0  0  0  0
 32 33  1  0  0  0  0
 33 35  1  0  0  0  0
 33 41  1  1  0  0  0
 35 34  2  0  0  0  0
 36 37  1  0  0  0  0
 36 35  1  0  0  0  0
 37 38  1  0  0  0  0
 38 39  1  0  0  0  0
 41 40  1  0  0  0  0
M  END
>  <MODEL>
3

>  <REMARK>
 VINA RESULT:      -6.4      1.552      1.896
  Name = 
  13 active torsions:
  status: ('A' for Active; 'I' for Inactive)
    1  A    between atoms: C_1  and  C_14
    2  A    between atoms: C_2  and  N_5
    3  A    between atoms: N_5  and  S_6
    4  A    between atoms: C_10  and  C_19
    5  A    between atoms: C_13  and  C_35
    6  A    between atoms: C_14  and  C_28
    7  A    between atoms: C_16  and  C_35
    8  A    between atoms: N_18  and  S_26
    9  A    between atoms: N_18  and  C_35
   10  A    between atoms: C_19  and  N_33
   11  A    between atoms: C_21  and  S_26
   12  A    between atoms: C_28  and  C_32
   13  A    between atoms: C_32  and  C_36
                            x       y       z     vdW  Elec       q    Type
                         _______ _______ _______ _____ _____    ______ ____

>  <TORSDO>
F 13

$$$$
=
 OpenBabel11062422183D

 41 44  0  0  1  0  0  0  0  0999 V2000
  193.6720  171.5470  143.7440 C   0  0  1  0  0  3  0  0  0  0  0  0
  189.5590  172.1190  140.4720 C   0  0  0  0  0  2  0  0  0  0  0  0
  189.6480  175.7000  142.7410 C   0  0  0  0  0  2  0  0  0  0  0  0
  193.3920  170.2160  143.1190 C   0  0  0  0  0  3  0  0  0  0  0  0
  191.4020  171.1550  141.9950 C   0  0  0  0  0  0  0  0  0  0  0  0
  190.5650  173.4420  142.3500 C   0  0  0  0  0  0  0  0  0  0  0  0
  191.3230  172.2440  142.7960 C   0  0  0  0  0  0  0  0  0  0  0  0
  188.4700  175.2900  141.8710 C   0  0  2  0  0  3  0  0  0  0  0  0
  190.3800  174.4740  143.1800 C   0  0  0  0  0  3  0  0  0  0  0  0
  190.7770  170.1470  139.9290 O   0  0  0  0  0  0  0  0  0  0  0  0
  190.6050  171.0860  140.7510 C   0  0  0  0  0  0  0  0  0  0  0  0
  192.1330  172.2420  144.4150 S   0  0  0  0  0  0  0  0  0  0  0  0
  192.3500  170.0560  142.2960 C   0  0  0  0  0  3  0  0  0  0  0  0
  188.9750  174.5530  140.6250 C   0  0  0  0  0  2  0  0  0  0  0  0
  190.0470  173.4890  140.9190 C   0  0  2  0  0  3  0  0  0  0  0  0
  194.7040  171.4510  144.7760 N   0  0  0  0  0  0  0  0  0  0  0  0
  195.6810  172.4990  144.9040 C   0  0  0  0  0  0  0  0  0  0  0  0
  196.5640  172.4360  145.8000 O   0  0  0  0  0  0  0  0  0  0  0  0
  194.7600  170.0520  145.8660 S   0  0  0  0  0  0  0  0  0  0  0  0
  196.1620  169.2980  144.9920 C   0  0  0  0  0  1  0  0  0  0  0  0
  195.6480  173.6910  144.0040 C   0  0  0  0  0  2  0  0  0  0  0  0
  196.0430  174.9330  144.7860 C   0  0  0  0  0  2  0  0  0  0  0  0
  195.3940  176.1710  144.1950 C   0  0  2  0  0  3  0  0  0  0  0  0
  196.3930  177.0090  143.6970 O   0  0  0  0  0  1  0  0  0  0  0  0
  194.5940  176.9110  145.2710 C   0  0  1  0  0  3  0  0  0  0  0  0
  192.8710  176.1480  146.0600 C   0  0  0  0  0  2  0  0  0  0  0  0
  193.1820  176.9910  144.9130 N   0  0  0  0  0  2  0  0  0  0  0  0
  194.3190  176.0150  146.4580 C   0  0  0  0  0  2  0  0  0  0  0  0
  188.3960  177.9510  141.5110 O   0  0  0  0  0  0  0  0  0  0  0  0
  187.5360  176.7260  141.3840 S   0  0  0  0  0  0  0  0  0  0  0  0
  187.1020  176.5670  139.9560 O   0  0  0  0  0  0  0  0  0  0  0  0
  186.1410  176.8890  142.4040 N   0  0  0  0  0  2  0  0  0  0  0  0
  186.4340  177.8940  143.4210 C   0  0  2  0  0  3  0  0  0  0  0  0
  185.6700  176.6240  145.3020 O   0  0  0  0  0  0  0  0  0  0  0  0
  186.6140  177.2670  144.7680 C   0  0  0  0  0  0  0  0  0  0  0  0
  187.8620  177.4150  145.4430 N   0  0  0  0  0  2  0  0  0  0  0  0
  188.1530  176.7580  146.7070 C   0  0  0  0  0  2  0  0  0  0  0  0
  189.0100  175.5260  146.4760 C   0  0  0  0  0  2  0  0  0  0  0  0
  188.8110  174.6070  147.5070 O   0  0  0  0  0  1  0  0  0  0  0  0
  185.5050  179.9190  144.6230 C   0  0  0  0  0  1  0  0  0  0  0  0
  185.3670  178.9860  143.4330 C   0  0  0  0  0  2  0  0  0  0  0  0
  1 12  1  0  0  0  0
  1 16  1  1  0  0  0
  2 11  1  0  0  0  0
  3  9  1  0  0  0  0
  4  1  1  0  0  0  0
  5 13  1  0  0  0  0
  5  7  2  0  0  0  0
  6  7  1  0  0  0  0
  6  9  2  0  0  0  0
  7 12  1  0  0  0  0
  8 30  1  6  0  0  0
  8  3  1  0  0  0  0
 10 11  2  0  0  0  0
 11  5  1  0  0  0  0
 13  4  2  0  0  0  0
 14 15  1  0  0  0  0
 14  8  1  0  0  0  0
 15  2  1  1  0  0  0
 15  6  1  0  0  0  0
 16 17  1  0  0  0  0
 16 19  1  0  0  0  0
 17 18  2  0  0  0  0
 20 19  1  0  0  0  0
 21 22  1  0  0  0  0
 21 17  1  0  0  0  0
 23 24  1  1  0  0  0
 23 22  1  0  0  0  0
 25 23  1  6  0  0  0
 25 28  1  0  0  0  0
 26 28  1  0  0  0  0
 27 25  1  0  0  0  0
 27 26  1  0  0  0  0
 30 29  2  0  0  0  0
 30 32  1  0  0  0  0
 31 30  2  0  0  0  0
 32 33  1  0  0  0  0
 33 41  1  1  0  0  0
 33 35  1  0  0  0  0
 35 34  2  0  0  0  0
 35 36  1  0  0  0  0
 36 37  1  0  0  0  0
 38 37  1  0  0  0  0
 38 39  1  0  0  0  0
 41 40  1  0  0  0  0
M  END
>  <MODEL>
4

>  <REMARK>
 VINA RESULT:      -6.4      2.549      8.501
  Name = 
  13 active torsions:
  status: ('A' for Active; 'I' for Inactive)
    1  A    between atoms: C_1  and  C_14
    2  A    between atoms: C_2  and  N_5
    3  A    between atoms: N_5  and  S_6
    4  A    between atoms: C_10  and  C_19
    5  A    between atoms: C_13  and  C_35
    6  A    between atoms: C_14  and  C_28
    7  A    between atoms: C_16  and  C_35
    8  A    between atoms: N_18  and  S_26
    9  A    between atoms: N_18  and  C_35
   10  A    between atoms: C_19  and  N_33
   11  A    between atoms: C_21  and  S_26
   12  A    between atoms: C_28  and  C_32
   13  A    between atoms: C_32  and  C_36
                            x       y       z     vdW  Elec       q    Type
                         _______ _______ _______ _____ _____    ______ ____

>  <TORSDO>
F 13

$$$$
=
 OpenBabel11062422183D

 41 44  0  0  1  0  0  0  0  0999 V2000
  186.9130  177.2180  143.0310 C   0  0  1  0  0  3  0  0  0  0  0  0
  190.8360  173.6800  143.2330 C   0  0  0  0  0  2  0  0  0  0  0  0
  192.5830  177.3150  144.5420 C   0  0  0  0  0  2  0  0  0  0  0  0
  186.4610  175.9860  142.3090 C   0  0  0  0  0  3  0  0  0  0  0  0
  188.6940  174.9760  142.6200 C   0  0  0  0  0  0  0  0  0  0  0  0
  190.6140  176.1470  143.6190 C   0  0  0  0  0  0  0  0  0  0  0  0
  189.3100  176.1480  142.9070 C   0  0  0  0  0  0  0  0  0  0  0  0
  193.3940  176.0850  144.1650 C   0  0  2  0  0  3  0  0  0  0  0  0
  191.2860  177.2900  143.8010 C   0  0  0  0  0  3  0  0  0  0  0  0
  188.7760  172.5980  142.7340 O   0  0  0  0  0  0  0  0  0  0  0  0
  189.3870  173.6920  142.8620 C   0  0  0  0  0  0  0  0  0  0  0  0
  188.5490  177.7170  142.4190 S   0  0  0  0  0  0  0  0  0  0  0  0
  187.2900  174.9510  142.1450 C   0  0  0  0  0  3  0  0  0  0  0  0
  192.6330  174.8170  144.5640 C   0  0  0  0  0  2  0  0  0  0  0  0
  191.1430  174.8340  144.1760 C   0  0  2  0  0  3  0  0  0  0  0  0
  185.9440  178.3050  142.9000 N   0  0  0  0  0  0  0  0  0  0  0  0
  185.6950  179.1750  144.0180 C   0  0  0  0  0  0  0  0  0  0  0  0
  184.8760  180.1260  143.9120 O   0  0  0  0  0  0  0  0  0  0  0  0
  185.0740  178.5560  141.3730 S   0  0  0  0  0  0  0  0  0  0  0  0
  183.4740  178.0840  142.0900 C   0  0  0  0  0  1  0  0  0  0  0  0
  186.4230  178.9890  145.3090 C   0  0  0  0  0  2  0  0  0  0  0  0
  185.8550  177.7890  146.0480 C   0  0  0  0  0  2  0  0  0  0  0  0
  186.8630  177.2410  147.0420 C   0  0  2  0  0  3  0  0  0  0  0  0
  187.1730  178.2410  147.9650 O   0  0  0  0  0  1  0  0  0  0  0  0
  188.1360  176.8020  146.3150 C   0  0  1  0  0  3  0  0  0  0  0  0
  189.7910  176.1480  147.3210 C   0  0  0  0  0  2  0  0  0  0  0  0
  189.3140  177.4530  146.8790 N   0  0  0  0  0  2  0  0  0  0  0  0
  188.5810  175.4320  146.7760 C   0  0  0  0  0  2  0  0  0  0  0  0
  195.9870  176.7870  144.0890 O   0  0  0  0  0  0  0  0  0  0  0  0
  194.9770  176.1190  144.9800 S   0  0  0  0  0  0  0  0  0  0  0  0
  194.8520  176.8930  146.2600 O   0  0  0  0  0  0  0  0  0  0  0  0
  195.4920  174.4980  145.3250 N   0  0  0  0  0  2  0  0  0  0  0  0
  196.6690  174.2100  144.5110 C   0  0  2  0  0  3  0  0  0  0  0  0
  195.2160  173.0070  143.0360 O   0  0  0  0  0  0  0  0  0  0  0  0
  196.2820  173.6660  143.1720 C   0  0  0  0  0  0  0  0  0  0  0  0
  197.1390  173.8940  142.0540 N   0  0  0  0  0  2  0  0  0  0  0  0
  196.7930  173.4850  140.7030 C   0  0  0  0  0  2  0  0  0  0  0  0
  197.9330  172.6990  140.0810 C   0  0  0  0  0  2  0  0  0  0  0  0
  197.6760  172.4760  138.7270 O   0  0  0  0  0  1  0  0  0  0  0  0
  196.9270  172.0980  145.8830 C   0  0  0  0  0  1  0  0  0  0  0  0
  197.6320  173.2850  145.2510 C   0  0  0  0  0  2  0  0  0  0  0  0
  1 16  1  6  0  0  0
  4  1  1  0  0  0  0
  5 11  1  0  0  0  0
  5  7  2  0  0  0  0
  6  9  2  0  0  0  0
  6 15  1  0  0  0  0
  7  6  1  0  0  0  0
  8  3  1  0  0  0  0
  8 14  1  0  0  0  0
  8 30  1  1  0  0  0
  9  3  1  0  0  0  0
 10 11  2  0  0  0  0
 11  2  1  0  0  0  0
 12  7  1  0  0  0  0
 12  1  1  0  0  0  0
 13  4  2  0  0  0  0
 13  5  1  0  0  0  0
 15  2  1  6  0  0  0
 15 14  1  0  0  0  0
 16 17  1  0  0  0  0
 17 21  1  0  0  0  0
 18 17  2  0  0  0  0
 19 20  1  0  0  0  0
 19 16  1  0  0  0  0
 21 22  1  0  0  0  0
 22 23  1  0  0  0  0
 23 24  1  1  0  0  0
 25 28  1  0  0  0  0
 25 27  1  0  0  0  0
 25 23  1  1  0  0  0
 27 26  1  0  0  0  0
 28 26  1  0  0  0  0
 29 30  2  0  0  0  0
 30 32  1  0  0  0  0
 30 31  2  0  0  0  0
 33 41  1  1  0  0  0
 33 32  1  0  0  0  0
 34 35  2  0  0  0  0
 35 33  1  0  0  0  0
 36 35  1  0  0  0  0
 37 36  1  0  0  0  0
 38 37  1  0  0  0  0
 39 38  1  0  0  0  0
 41 40  1  0  0  0  0
M  END
>  <MODEL>
5

>  <REMARK>
 VINA RESULT:      -6.3      1.987      2.603
  Name = 
  13 active torsions:
  status: ('A' for Active; 'I' for Inactive)
    1  A    between atoms: C_1  and  C_14
    2  A    between atoms: C_2  and  N_5
    3  A    between atoms: N_5  and  S_6
    4  A    between atoms: C_10  and  C_19
    5  A    between atoms: C_13  and  C_35
    6  A    between atoms: C_14  and  C_28
    7  A    between atoms: C_16  and  C_35
    8  A    between atoms: N_18  and  S_26
    9  A    between atoms: N_18  and  C_35
   10  A    between atoms: C_19  and  N_33
   11  A    between atoms: C_21  and  S_26
   12  A    between atoms: C_28  and  C_32
   13  A    between atoms: C_32  and  C_36
                            x       y       z     vdW  Elec       q    Type
                         _______ _______ _______ _____ _____    ______ ____

>  <TORSDO>
F 13

$$$$
=
 OpenBabel11062422183D

 41 44  0  0  1  0  0  0  0  0999 V2000
  193.7250  171.7430  143.3660 C   0  0  1  0  0  3  0  0  0  0  0  0
  189.2970  172.3790  140.5490 C   0  0  0  0  0  2  0  0  0  0  0  0
  189.5750  175.8700  142.9390 C   0  0  0  0  0  2  0  0  0  0  0  0
  193.3990  170.4330  142.7190 C   0  0  0  0  0  3  0  0  0  0  0  0
  191.2950  171.3840  141.8400 C   0  0  0  0  0  0  0  0  0  0  0  0
  190.4720  173.6430  142.3670 C   0  0  0  0  0  0  0  0  0  0  0  0
  191.2850  172.4400  142.6880 C   0  0  0  0  0  0  0  0  0  0  0  0
  188.3200  175.4760  142.1760 C   0  0  2  0  0  3  0  0  0  0  0  0
  190.3610  174.6390  143.2530 C   0  0  0  0  0  3  0  0  0  0  0  0
  190.4760  170.4470  139.8080 O   0  0  0  0  0  0  0  0  0  0  0  0
  190.3770  171.3510  140.6800 C   0  0  0  0  0  0  0  0  0  0  0  0
  192.2550  172.3880  144.2160 S   0  0  0  0  0  0  0  0  0  0  0  0
  192.2810  170.2890  142.0000 C   0  0  0  0  0  3  0  0  0  0  0  0
  188.7040  174.7960  140.8580 C   0  0  0  0  0  2  0  0  0  0  0  0
  189.8120  173.7370  140.9990 C   0  0  2  0  0  3  0  0  0  0  0  0
  194.8570  171.6230  144.2840 N   0  0  0  0  0  0  0  0  0  0  0  0
  196.0980  172.2820  143.9740 C   0  0  0  0  0  0  0  0  0  0  0  0
  197.0750  172.2000  144.7650 O   0  0  0  0  0  0  0  0  0  0  0  0
  194.7110  170.6690  145.7730 S   0  0  0  0  0  0  0  0  0  0  0  0
  195.5970  169.2480  145.0710 C   0  0  0  0  0  1  0  0  0  0  0  0
  196.2410  173.0980  142.7310 C   0  0  0  0  0  2  0  0  0  0  0  0
  196.5220  174.5460  143.0990 C   0  0  0  0  0  2  0  0  0  0  0  0
  195.2830  175.2050  143.6770 C   0  0  2  0  0  3  0  0  0  0  0  0
  194.8320  176.1780  142.7840 O   0  0  0  0  0  1  0  0  0  0  0  0
  195.6120  175.8570  145.0220 C   0  0  1  0  0  3  0  0  0  0  0  0
  194.1560  176.5240  146.2910 C   0  0  0  0  0  2  0  0  0  0  0  0
  194.8950  177.1170  145.1840 N   0  0  0  0  0  2  0  0  0  0  0  0
  194.8520  175.1940  146.1490 C   0  0  0  0  0  2  0  0  0  0  0  0
  188.0920  178.1530  142.2170 O   0  0  0  0  0  0  0  0  0  0  0  0
  187.3250  176.9150  141.8440 S   0  0  0  0  0  0  0  0  0  0  0  0
  186.9950  176.9550  140.3800 O   0  0  0  0  0  0  0  0  0  0  0  0
  185.8590  176.8400  142.7710 N   0  0  0  0  0  2  0  0  0  0  0  0
  185.2110  178.1460  142.7060 C   0  0  2  0  0  3  0  0  0  0  0  0
  185.5490  179.9940  144.1920 O   0  0  0  0  0  0  0  0  0  0  0  0
  185.1720  178.7990  144.0530 C   0  0  0  0  0  0  0  0  0  0  0  0
  184.7150  178.0490  145.1770 N   0  0  0  0  0  2  0  0  0  0  0  0
  184.5530  178.6340  146.4980 C   0  0  0  0  0  2  0  0  0  0  0  0
  185.6890  178.2000  147.4080 C   0  0  0  0  0  2  0  0  0  0  0  0
  186.1200  176.9210  147.0560 O   0  0  0  0  0  1  0  0  0  0  0  0
  183.8430  178.2730  140.5800 C   0  0  0  0  0  1  0  0  0  0  0  0
  183.8240  178.0380  142.0800 C   0  0  0  0  0  2  0  0  0  0  0  0
  1 12  1  0  0  0  0
  1 16  1  1  0  0  0
  2 11  1  0  0  0  0
  3  9  1  0  0  0  0
  4  1  1  0  0  0  0
  5 13  1  0  0  0  0
  5  7  2  0  0  0  0
  6  7  1  0  0  0  0
  6  9  2  0  0  0  0
  7 12  1  0  0  0  0
  8 30  1  6  0  0  0
  8  3  1  0  0  0  0
 10 11  2  0  0  0  0
 11  5  1  0  0  0  0
 13  4  2  0  0  0  0
 14 15  1  0  0  0  0
 14  8  1  0  0  0  0
 15  2  1  1  0  0  0
 15  6  1  0  0  0  0
 16 19  1  0  0  0  0
 17 16  1  0  0  0  0
 17 18  2  0  0  0  0
 20 19  1  0  0  0  0
 21 22  1  0  0  0  0
 21 17  1  0  0  0  0
 22 23  1  0  0  0  0
 23 24  1  6  0  0  0
 25 23  1  6  0  0  0
 25 27  1  0  0  0  0
 25 28  1  0  0  0  0
 27 26  1  0  0  0  0
 28 26  1  0  0  0  0
 30 29  2  0  0  0  0
 30 32  1  0  0  0  0
 31 30  2  0  0  0  0
 33 41  1  1  0  0  0
 33 32  1  0  0  0  0
 33 35  1  0  0  0  0
 35 34  2  0  0  0  0
 35 36  1  0  0  0  0
 36 37  1  0  0  0  0
 37 38  1  0  0  0  0
 39 38  1  0  0  0  0
 40 41  1  0  0  0  0
M  END
>  <MODEL>
6

>  <REMARK>
 VINA RESULT:      -6.1      2.578      9.331
  Name = 
  13 active torsions:
  status: ('A' for Active; 'I' for Inactive)
    1  A    between atoms: C_1  and  C_14
    2  A    between atoms: C_2  and  N_5
    3  A    between atoms: N_5  and  S_6
    4  A    between atoms: C_10  and  C_19
    5  A    between atoms: C_13  and  C_35
    6  A    between atoms: C_14  and  C_28
    7  A    between atoms: C_16  and  C_35
    8  A    between atoms: N_18  and  S_26
    9  A    between atoms: N_18  and  C_35
   10  A    between atoms: C_19  and  N_33
   11  A    between atoms: C_21  and  S_26
   12  A    between atoms: C_28  and  C_32
   13  A    between atoms: C_32  and  C_36
                            x       y       z     vdW  Elec       q    Type
                         _______ _______ _______ _____ _____    ______ ____

>  <TORSDO>
F 13

$$$$
=
 OpenBabel11062422183D

 41 44  0  0  1  0  0  0  0  0999 V2000
  187.1250  176.6210  143.0400 C   0  0  1  0  0  3  0  0  0  0  0  0
  190.1160  173.2000  140.3370 C   0  0  0  0  0  2  0  0  0  0  0  0
  191.8610  173.3550  144.1990 C   0  0  0  0  0  2  0  0  0  0  0  0
  186.7590  176.7330  141.5920 C   0  0  0  0  0  3  0  0  0  0  0  0
  188.5550  175.1390  141.0090 C   0  0  0  0  0  0  0  0  0  0  0  0
  190.1710  174.2270  142.6240 C   0  0  0  0  0  0  0  0  0  0  0  0
  189.2120  175.2730  142.1850 C   0  0  0  0  0  0  0  0  0  0  0  0
  192.5440  172.7220  142.9960 C   0  0  2  0  0  3  0  0  0  0  0  0
  190.9130  174.4070  143.7230 C   0  0  0  0  0  3  0  0  0  0  0  0
  188.2090  173.8220  139.0540 O   0  0  0  0  0  0  0  0  0  0  0  0
  188.9050  174.0420  140.0800 C   0  0  0  0  0  0  0  0  0  0  0  0
  188.9290  176.7300  143.2230 S   0  0  0  0  0  0  0  0  0  0  0  0
  187.4160  176.0250  140.6680 C   0  0  0  0  0  3  0  0  0  0  0  0
  191.4990  172.0610  142.0920 C   0  0  0  0  0  2  0  0  0  0  0  0
  190.2580  172.9330  141.8280 C   0  0  2  0  0  3  0  0  0  0  0  0
  186.4490  177.6370  143.8460 N   0  0  0  0  0  0  0  0  0  0  0  0
  186.2670  177.4210  145.2560 C   0  0  0  0  0  0  0  0  0  0  0  0
  185.7020  178.2960  145.9640 O   0  0  0  0  0  0  0  0  0  0  0  0
  185.8490  179.1290  143.0950 S   0  0  0  0  0  0  0  0  0  0  0  0
  184.1390  178.5230  143.0160 C   0  0  0  0  0  1  0  0  0  0  0  0
  186.7720  176.1770  145.9110 C   0  0  0  0  0  2  0  0  0  0  0  0
  187.9550  176.5130  146.8040 C   0  0  0  0  0  2  0  0  0  0  0  0
  189.0800  175.5120  146.6070 C   0  0  2  0  0  3  0  0  0  0  0  0
  189.0180  174.5610  147.6270 O   0  0  0  0  0  1  0  0  0  0  0  0
  190.4340  176.2250  146.6530 C   0  0  1  0  0  3  0  0  0  0  0  0
  191.1680  177.0520  148.3710 C   0  0  0  0  0  2  0  0  0  0  0  0
  190.3170  177.5330  147.2900 N   0  0  0  0  0  2  0  0  0  0  0  0
  191.3000  175.6770  147.7660 C   0  0  0  0  0  2  0  0  0  0  0  0
  193.3840  171.0430  144.9190 O   0  0  0  0  0  0  0  0  0  0  0  0
  193.7310  171.5080  143.5320 S   0  0  0  0  0  0  0  0  0  0  0  0
  193.6950  170.3390  142.5910 O   0  0  0  0  0  0  0  0  0  0  0  0
  195.3210  172.2060  143.5360 N   0  0  0  0  0  2  0  0  0  0  0  0
  195.6630  172.5510  144.9120 C   0  0  2  0  0  3  0  0  0  0  0  0
  196.2470  174.5240  146.1390 O   0  0  0  0  0  0  0  0  0  0  0  0
  195.7290  174.0350  145.0990 C   0  0  0  0  0  0  0  0  0  0  0  0
  195.1880  174.8870  144.0910 N   0  0  0  0  0  2  0  0  0  0  0  0
  195.2960  176.3360  144.1460 C   0  0  0  0  0  2  0  0  0  0  0  0
  196.4520  176.8120  143.2840 C   0  0  0  0  0  2  0  0  0  0  0  0
  196.3210  176.3060  141.9910 O   0  0  0  0  0  1  0  0  0  0  0  0
  196.6980  170.5760  146.1120 C   0  0  0  0  0  1  0  0  0  0  0  0
  196.9550  171.8610  145.3440 C   0  0  0  0  0  2  0  0  0  0  0  0
  1 12  1  0  0  0  0
  1 16  1  1  0  0  0
  4  1  1  0  0  0  0
  5  7  2  0  0  0  0
  6  9  2  0  0  0  0
  7  6  1  0  0  0  0
  7 12  1  0  0  0  0
  8 30  1  1  0  0  0
  8  3  1  0  0  0  0
  9  3  1  0  0  0  0
 10 11  2  0  0  0  0
 11  2  1  0  0  0  0
 11  5  1  0  0  0  0
 13  5  1  0  0  0  0
 13  4  2  0  0  0  0
 14  8  1  0  0  0  0
 15  2  1  6  0  0  0
 15 14  1  0  0  0  0
 15  6  1  0  0  0  0
 16 17  1  0  0  0  0
 17 21  1  0  0  0  0
 17 18  2  0  0  0  0
 19 16  1  0  0  0  0
 20 19  1  0  0  0  0
 21 22  1  0  0  0  0
 23 22  1  0  0  0  0
 23 24  1  1  0  0  0
 25 23  1  1  0  0  0
 25 27  1  0  0  0  0
 25 28  1  0  0  0  0
 27 26  1  0  0  0  0
 28 26  1  0  0  0  0
 30 32  1  0  0  0  0
 30 29  2  0  0  0  0
 31 30  2  0  0  0  0
 32 33  1  0  0  0  0
 33 35  1  0  0  0  0
 33 41  1  6  0  0  0
 35 34  2  0  0  0  0
 36 37  1  0  0  0  0
 36 35  1  0  0  0  0
 38 37  1  0  0  0  0
 39 38  1  0  0  0  0
 41 40  1  0  0  0  0
M  END
>  <MODEL>
7

>  <REMARK>
 VINA RESULT:      -6.0      1.625      2.962
  Name = 
  13 active torsions:
  status: ('A' for Active; 'I' for Inactive)
    1  A    between atoms: C_1  and  C_14
    2  A    between atoms: C_2  and  N_5
    3  A    between atoms: N_5  and  S_6
    4  A    between atoms: C_10  and  C_19
    5  A    between atoms: C_13  and  C_35
    6  A    between atoms: C_14  and  C_28
    7  A    between atoms: C_16  and  C_35
    8  A    between atoms: N_18  and  S_26
    9  A    between atoms: N_18  and  C_35
   10  A    between atoms: C_19  and  N_33
   11  A    between atoms: C_21  and  S_26
   12  A    between atoms: C_28  and  C_32
   13  A    between atoms: C_32  and  C_36
                            x       y       z     vdW  Elec       q    Type
                         _______ _______ _______ _____ _____    ______ ____

>  <TORSDO>
F 13

$$$$
=
 OpenBabel11062422183D

 41 44  0  0  1  0  0  0  0  0999 V2000
  188.8900  177.1640  146.0410 C   0  0  1  0  0  3  0  0  0  0  0  0
  193.1530  174.0500  145.7600 C   0  0  0  0  0  2  0  0  0  0  0  0
  190.2700  172.1700  143.2840 C   0  0  0  0  0  2  0  0  0  0  0  0
  189.8460  177.5930  147.1110 C   0  0  0  0  0  3  0  0  0  0  0  0
  191.3440  175.7150  146.5350 C   0  0  0  0  0  0  0  0  0  0  0  0
  190.8070  173.9760  144.8790 C   0  0  0  0  0  0  0  0  0  0  0  0
  190.4010  175.0230  145.8520 C   0  0  0  0  0  0  0  0  0  0  0  0
  191.5530  171.4920  143.7370 C   0  0  2  0  0  3  0  0  0  0  0  0
  189.8860  173.2070  144.2890 C   0  0  0  0  0  3  0  0  0  0  0  0
  193.6660  176.0440  146.9550 O   0  0  0  0  0  0  0  0  0  0  0  0
  192.7690  175.3250  146.4420 C   0  0  0  0  0  0  0  0  0  0  0  0
  188.6450  175.3660  146.1280 S   0  0  0  0  0  0  0  0  0  0  0  0
  190.9860  176.9250  147.3130 C   0  0  0  0  0  3  0  0  0  0  0  0
  192.6830  172.5230  143.8270 C   0  0  0  0  0  2  0  0  0  0  0  0
  192.2820  173.8310  144.5320 C   0  0  2  0  0  3  0  0  0  0  0  0
  187.6180  177.8770  146.1390 N   0  0  0  0  0  0  0  0  0  0  0  0
  186.9120  178.2400  144.9390 C   0  0  0  0  0  0  0  0  0  0  0  0
  185.8060  178.8390  145.0100 O   0  0  0  0  0  0  0  0  0  0  0  0
  186.9420  178.3000  147.7240 S   0  0  0  0  0  0  0  0  0  0  0  0
  185.7770  176.9070  147.7130 C   0  0  0  0  0  1  0  0  0  0  0  0
  187.4570  177.8860  143.5940 C   0  0  0  0  0  2  0  0  0  0  0  0
  186.5930  176.8100  142.9590 C   0  0  0  0  0  2  0  0  0  0  0  0
  186.2570  177.1650  141.5220 C   0  0  2  0  0  3  0  0  0  0  0  0
  187.4410  177.4490  140.8400 O   0  0  0  0  0  1  0  0  0  0  0  0
  185.3370  178.3880  141.4830 C   0  0  1  0  0  3  0  0  0  0  0  0
  183.4280  178.2900  140.7620 C   0  0  0  0  0  2  0  0  0  0  0  0
  184.7320  178.5480  140.1650 N   0  0  0  0  0  2  0  0  0  0  0  0
  184.0080  178.0910  142.1400 C   0  0  0  0  0  2  0  0  0  0  0  0
  193.2080  170.6310  141.8040 O   0  0  0  0  0  0  0  0  0  0  0  0
  192.0040  170.2030  142.5940 S   0  0  0  0  0  0  0  0  0  0  0  0
  192.3300  168.9570  143.3650 O   0  0  0  0  0  0  0  0  0  0  0  0
  190.6820  169.8910  141.5130 N   0  0  0  0  0  2  0  0  0  0  0  0
  191.1910  169.9330  140.1460 C   0  0  2  0  0  3  0  0  0  0  0  0
  191.9690  171.8330  138.9120 O   0  0  0  0  0  0  0  0  0  0  0  0
  191.0210  171.2930  139.5450 C   0  0  0  0  0  0  0  0  0  0  0  0
  189.7780  171.9750  139.7070 N   0  0  0  0  0  2  0  0  0  0  0  0
  189.4960  173.2540  139.0760 C   0  0  0  0  0  2  0  0  0  0  0  0
  188.5100  174.0490  139.9130 C   0  0  0  0  0  2  0  0  0  0  0  0
  189.1620  174.6090  141.0130 O   0  0  0  0  0  1  0  0  0  0  0  0
  190.9390  168.9490  137.8270 C   0  0  0  0  0  1  0  0  0  0  0  0
  190.5510  168.8430  139.2910 C   0  0  0  0  0  2  0  0  0  0  0  0
  1 12  1  0  0  0  0
  1 16  1  1  0  0  0
  1  4  1  0  0  0  0
  2 11  1  0  0  0  0
  3  8  1  0  0  0  0
  3  9  1  0  0  0  0
  4 13  2  0  0  0  0
  5 13  1  0  0  0  0
  6  7  1  0  0  0  0
  7 12  1  0  0  0  0
  7  5  2  0  0  0  0
  8 30  1  6  0  0  0
  8 14  1  0  0  0  0
  9  6  2  0  0  0  0
 11  5  1  0  0  0  0
 11 10  2  0  0  0  0
 15 14  1  1  0  0  0
 15  6  1  0  0  0  0
 15  2  1  0  0  0  0
 16 19  1  0  0  0  0
 17 18  2  0  0  0  0
 17 16  1  0  0  0  0
 20 19  1  0  0  0  0
 21 17  1  0  0  0  0
 22 21  1  0  0  0  0
 23 24  1  6  0  0  0
 23 22  1  0  0  0  0
 25 23  1  6  0  0  0
 25 28  1  0  0  0  0
 26 28  1  0  0  0  0
 27 26  1  0  0  0  0
 27 25  1  0  0  0  0
 29 30  2  0  0  0  0
 30 31  2  0  0  0  0
 32 30  1  0  0  0  0
 33 41  1  6  0  0  0
 33 32  1  0  0  0  0
 34 35  2  0  0  0  0
 35 36  1  0  0  0  0
 35 33  1  0  0  0  0
 37 36  1  0  0  0  0
 37 38  1  0  0  0  0
 38 39  1  0  0  0  0
 40 41  1  0  0  0  0
M  END
>  <MODEL>
8

>  <REMARK>
 VINA RESULT:      -6.0      3.386      6.677
  Name = 
  13 active torsions:
  status: ('A' for Active; 'I' for Inactive)
    1  A    between atoms: C_1  and  C_14
    2  A    between atoms: C_2  and  N_5
    3  A    between atoms: N_5  and  S_6
    4  A    between atoms: C_10  and  C_19
    5  A    between atoms: C_13  and  C_35
    6  A    between atoms: C_14  and  C_28
    7  A    between atoms: C_16  and  C_35
    8  A    between atoms: N_18  and  S_26
    9  A    between atoms: N_18  and  C_35
   10  A    between atoms: C_19  and  N_33
   11  A    between atoms: C_21  and  S_26
   12  A    between atoms: C_28  and  C_32
   13  A    between atoms: C_32  and  C_36
                            x       y       z     vdW  Elec       q    Type
                         _______ _______ _______ _____ _____    ______ ____

>  <TORSDO>
F 13

$$$$
=
 OpenBabel11062422183D

 41 44  0  0  1  0  0  0  0  0999 V2000
  192.4110  171.2440  141.6160 C   0  0  1  0  0  3  0  0  0  0  0  0
  188.2100  173.6530  139.4950 C   0  0  0  0  0  2  0  0  0  0  0  0
  188.6350  175.3940  143.3380 C   0  0  0  0  0  2  0  0  0  0  0  0
  192.0160  170.4850  140.3870 C   0  0  0  0  0  3  0  0  0  0  0  0
  190.0480  171.9510  140.1060 C   0  0  0  0  0  0  0  0  0  0  0  0
  189.3810  173.6930  141.7110 C   0  0  0  0  0  0  0  0  0  0  0  0
  190.0760  172.4230  141.3750 C   0  0  0  0  0  0  0  0  0  0  0  0
  187.3970  175.5670  142.4730 C   0  0  2  0  0  3  0  0  0  0  0  0
  189.3020  174.1050  142.9820 C   0  0  0  0  0  3  0  0  0  0  0  0
  189.2690  172.2640  137.8770 O   0  0  0  0  0  0  0  0  0  0  0  0
  189.1950  172.6020  139.0870 C   0  0  0  0  0  0  0  0  0  0  0  0
  190.9520  171.5050  142.6670 S   0  0  0  0  0  0  0  0  0  0  0  0
  190.9320  170.8370  139.6890 C   0  0  0  0  0  3  0  0  0  0  0  0
  187.7970  175.6200  140.9940 C   0  0  0  0  0  2  0  0  0  0  0  0
  188.8080  174.5350  140.5810 C   0  0  2  0  0  3  0  0  0  0  0  0
  193.4770  170.5630  142.3500 N   0  0  0  0  0  0  0  0  0  0  0  0
  194.3730  171.3280  143.1750 C   0  0  0  0  0  0  0  0  0  0  0  0
  195.2850  170.7510  143.8260 O   0  0  0  0  0  0  0  0  0  0  0  0
  193.6730  168.8030  142.2270 S   0  0  0  0  0  0  0  0  0  0  0  0
  192.7320  168.4900  143.7470 C   0  0  0  0  0  1  0  0  0  0  0  0
  194.2220  172.8090  143.3010 C   0  0  0  0  0  2  0  0  0  0  0  0
  195.5930  173.4560  143.4100 C   0  0  0  0  0  2  0  0  0  0  0  0
  195.7030  174.2750  144.6830 C   0  0  2  0  0  3  0  0  0  0  0  0
  195.8200  173.4060  145.7690 O   0  0  0  0  0  1  0  0  0  0  0  0
  194.4580  175.1490  144.8570 C   0  0  1  0  0  3  0  0  0  0  0  0
  194.2270  176.4040  146.4530 C   0  0  0  0  0  2  0  0  0  0  0  0
  193.9010  175.0060  146.1980 N   0  0  0  0  0  2  0  0  0  0  0  0
  194.8360  176.5950  145.0870 C   0  0  0  0  0  2  0  0  0  0  0  0
  187.4610  178.2390  142.7450 O   0  0  0  0  0  0  0  0  0  0  0  0
  186.5410  177.0640  142.9180 S   0  0  0  0  0  0  0  0  0  0  0  0
  185.3460  177.2290  142.0250 O   0  0  0  0  0  0  0  0  0  0  0  0
  186.0240  176.9720  144.5730 N   0  0  0  0  0  2  0  0  0  0  0  0
  186.6370  178.0770  145.3040 C   0  0  2  0  0  3  0  0  0  0  0  0
  187.0160  177.4030  147.5710 O   0  0  0  0  0  0  0  0  0  0  0  0
  187.5000  177.5760  146.4200 C   0  0  0  0  0  0  0  0  0  0  0  0
  188.8780  177.3080  146.1670 N   0  0  0  0  0  2  0  0  0  0  0  0
  189.7620  176.7300  147.1650 C   0  0  0  0  0  2  0  0  0  0  0  0
  189.9150  175.2370  146.9320 C   0  0  0  0  0  2  0  0  0  0  0  0
  188.9320  174.5410  147.6370 O   0  0  0  0  0  1  0  0  0  0  0  0
  184.1880  178.4500  145.8300 C   0  0  0  0  0  1  0  0  0  0  0  0
  185.5780  179.0610  145.7940 C   0  0  0  0  0  2  0  0  0  0  0  0
  1 16  1  1  0  0  0
  1 12  1  0  0  0  0
  4  1  1  0  0  0  0
  5  7  2  0  0  0  0
  6  9  2  0  0  0  0
  7  6  1  0  0  0  0
  7 12  1  0  0  0  0
  8 30  1  1  0  0  0
  8  3  1  0  0  0  0
  9  3  1  0  0  0  0
 10 11  2  0  0  0  0
 11  2  1  0  0  0  0
 11  5  1  0  0  0  0
 13  5  1  0  0  0  0
 13  4  2  0  0  0  0
 14  8  1  0  0  0  0
 15  2  1  6  0  0  0
 15 14  1  0  0  0  0
 15  6  1  0  0  0  0
 16 17  1  0  0  0  0
 17 21  1  0  0  0  0
 17 18  2  0  0  0  0
 19 16  1  0  0  0  0
 19 20  1  0  0  0  0
 21 22  1  0  0  0  0
 22 23  1  0  0  0  0
 23 24  1  1  0  0  0
 25 23  1  1  0  0  0
 25 28  1  0  0  0  0
 25 27  1  0  0  0  0
 27 26  1  0  0  0  0
 28 26  1  0  0  0  0
 29 30  2  0  0  0  0
 30 32  1  0  0  0  0
 31 30  2  0  0  0  0
 32 33  1  0  0  0  0
 33 41  1  1  0  0  0
 33 35  1  0  0  0  0
 35 34  2  0  0  0  0
 36 35  1  0  0  0  0
 36 37  1  0  0  0  0
 38 37  1  0  0  0  0
 38 39  1  0  0  0  0
 41 40  1  0  0  0  0
M  END
>  <MODEL>
9

>  <REMARK>
 VINA RESULT:      -6.0      2.771      8.331
  Name = 
  13 active torsions:
  status: ('A' for Active; 'I' for Inactive)
    1  A    between atoms: C_1  and  C_14
    2  A    between atoms: C_2  and  N_5
    3  A    between atoms: N_5  and  S_6
    4  A    between atoms: C_10  and  C_19
    5  A    between atoms: C_13  and  C_35
    6  A    between atoms: C_14  and  C_28
    7  A    between atoms: C_16  and  C_35
    8  A    between atoms: N_18  and  S_26
    9  A    between atoms: N_18  and  C_35
   10  A    between atoms: C_19  and  N_33
   11  A    between atoms: C_21  and  S_26
   12  A    between atoms: C_28  and  C_32
   13  A    between atoms: C_32  and  C_36
                            x       y       z     vdW  Elec       q    Type
                         _______ _______ _______ _____ _____    ______ ____

>  <TORSDO>
F 13

$$$$
