=
 OpenBabel11062420243D

 49 57  0  0  1  0  0  0  0  0999 V2000
  191.6730  172.4400  140.1710 C   0  0  2  0  0  3  0  0  0  0  0  0
  195.4420  175.2370  145.6850 C   0  0  0  0  0  2  0  0  0  0  0  0
  192.0050  174.4200  143.3320 C   0  0  2  0  0  3  0  0  0  0  0  0
  195.6730  175.4580  144.1730 C   0  0  1  0  0  0  0  0  0  0  0  0
  194.5670  174.8310  143.2930 C   0  0  0  0  0  2  0  0  0  0  0  0
  191.8660  173.1210  142.4930 C   0  0  2  0  0  3  0  0  0  0  0  0
  193.3090  174.5050  144.0910 C   0  0  1  0  0  3  0  0  0  0  0  0
  190.3710  172.4980  140.8030 N   0  0  0  0  0  0  0  0  0  0  0  0
  195.7310  176.8280  143.9150 O   0  0  0  0  0  1  0  0  0  0  0  0
  190.9450  174.6410  144.3420 N   0  0  1  0  0  0  0  0  0  0  0  0
  192.6420  173.1250  141.1590 C   0  0  2  0  0  3  0  0  0  0  0  0
  190.4680  172.8400  142.0400 C   0  0  0  0  0  0  0  0  0  0  0  0
  193.7100  174.4710  139.2780 C   0  0  1  0  0  3  0  0  0  0  0  0
  193.0250  173.4580  138.3300 C   0  0  0  0  0  2  0  0  0  0  0  0
  194.0270  175.6240  146.1720 C   0  0  0  0  0  2  0  0  0  0  0  0
  189.3090  172.8910  142.8810 N   0  0  0  0  0  2  0  0  0  0  0  0
  193.0240  175.6350  145.0230 C   0  0  2  0  0  3  0  0  0  0  0  0
  190.5720  173.3780  144.9740 C   0  0  0  0  0  2  0  0  0  0  0  0
  189.3100  172.8040  144.3410 C   0  0  0  0  0  2  0  0  0  0  0  0
  191.5750  175.4350  145.4050 C   0  0  1  0  0  3  0  0  0  0  0  0
  196.9990  174.8370  143.7910 C   0  0  0  0  0  1  0  0  0  0  0  0
  191.6180  173.0860  138.7840 C   0  0  0  0  0  2  0  0  0  0  0  0
  193.0110  174.5310  140.6510 C   0  0  0  0  0  2  0  0  0  0  0  0
  196.1780  173.3390  137.4290 N   0  0  2  0  0  0  0  0  0  0  0  0
  195.1420  174.1660  139.4300 N   0  0  2  0  0  0  0  0  0  0  0  0
  196.8260  174.5850  137.7850 C   0  0  0  0  0  2  0  0  0  0  0  0
  195.9220  175.2320  138.8020 C   0  0  0  0  0  2  0  0  0  0  0  0
  195.4670  172.9560  138.6670 C   0  0  2  0  0  3  0  0  0  0  0  0
  196.3340  171.3930  134.9390 C   0  0  0  0  0  2  0  0  0  0  0  0
  196.4630  171.1300  136.4180 C   0  0  0  0  0  2  0  0  0  0  0  0
  197.4450  172.2460  134.5470 N   0  0  0  0  0  2  0  0  0  0  0  0
  197.9410  172.8840  135.7610 C   0  0  0  0  0  2  0  0  0  0  0  0
  197.1660  172.3510  136.9600 C   0  0  1  0  0  3  0  0  0  0  0  0
  196.1900  171.9300  139.5690 C   0  0  0  0  0  2  0  0  0  0  0  0
  196.3800  172.4060  141.0050 C   0  0  0  0  0  2  0  0  0  0  0  0
  197.4460  171.7290  141.5980 O   0  0  0  0  0  1  0  0  0  0  0  0
  190.9130  176.7250  145.5070 N   0  0  0  0  0  2  0  0  0  0  0  0
  189.7010  176.5940  146.7380 S   0  0  0  0  0  0  0  0  0  0  0  0
  189.7730  177.8060  147.6270 O   0  0  0  0  0  0  0  0  0  0  0  0
  189.9610  175.3630  147.5610 O   0  0  0  0  0  0  0  0  0  0  0  0
  188.0480  177.5220  144.9670 C   0  0  0  0  0  2  0  0  0  0  0  0
  188.1300  176.4870  146.0080 N   0  0  0  0  0  0  0  0  0  0  0  0
  184.6780  178.2380  146.2970 C   0  0  0  0  0  3  0  0  0  0  0  0
  186.9100  176.8120  147.2770 S   0  0  0  0  0  0  0  0  0  0  0  0
  185.9930  177.8030  146.1370 C   0  0  0  0  0  0  0  0  0  0  0  0
  184.1080  178.9920  145.3130 N   0  0  0  0  0  0  0  0  0  0  0  0
  186.1110  178.8740  143.9940 C   0  0  0  0  0  3  0  0  0  0  0  0
  186.6880  178.1000  145.0010 C   0  0  0  0  0  0  0  0  0  0  0  0
  184.7930  179.3200  144.1780 C   0  0  0  0  0  3  0  0  0  0  0  0
  1 22  1  6  0  0  0
  1  8  1  0  0  0  0
  1 11  1  0  0  0  0
  2 15  1  0  0  0  0
  3  7  1  0  0  0  0
  3 10  1  0  0  0  0
  4  2  1  0  0  0  0
  5  7  1  0  0  0  0
  5  4  1  0  0  0  0
  6  3  1  0  0  0  0
  7 17  1  0  0  0  0
  8 12  2  0  0  0  0
  9  4  1  0  0  0  0
 10 18  1  0  0  0  0
 10 20  1  0  0  0  0
 11  6  1  0  0  0  0
 12  6  1  0  0  0  0
 12 16  1  0  0  0  0
 13 25  1  0  0  0  0
 13 23  1  0  0  0  0
 14 22  1  0  0  0  0
 14 13  1  0  0  0  0
 16 19  1  0  0  0  0
 17 20  1  0  0  0  0
 17 15  1  0  0  0  0
 19 18  1  0  0  0  0
 20 37  1  0  0  0  0
 21  4  1  0  0  0  0
 23 11  1  0  0  0  0
 24 26  1  0  0  0  0
 24 28  1  0  0  0  0
 26 27  1  0  0  0  0
 27 25  1  0  0  0  0
 28 25  1  0  0  0  0
 28 34  1  0  0  0  0
 29 30  1  0  0  0  0
 30 33  1  0  0  0  0
 31 29  1  0  0  0  0
 31 32  1  0  0  0  0
 32 33  1  0  0  0  0
 33 24  1  0  0  0  0
 34 35  1  0  0  0  0
 35 36  1  0  0  0  0
 37 38  1  0  0  0  0
 38 40  2  0  0  0  0
 38 39  2  0  0  0  0
 41 48  1  0  0  0  0
 41 42  1  0  0  0  0
 42 38  1  0  0  0  0
 42 44  1  0  0  0  0
 45 43  1  0  0  0  0
 45 44  1  0  0  0  0
 46 43  2  0  0  0  0
 47 49  2  0  0  0  0
 47 48  1  0  0  0  0
 48 45  2  0  0  0  0
 49 46  1  0  0  0  0
M  END
>  <MODEL>
1

>  <REMARK>
 VINA RESULT:      -7.8      0.000      0.000
  Name = 
  7 active torsions:
  status: ('A' for Active; 'I' for Inactive)
    1  A    between atoms: N_1  and  C_38
    2  A    between atoms: C_2  and  C_39
    3  A    between atoms: N_6  and  C_29
    4  A    between atoms: S_7  and  N_9
    5  A    between atoms: S_7  and  N_15
    6  A    between atoms: N_15  and  C_42
    7  A    between atoms: C_32  and  C_39
                            x       y       z     vdW  Elec       q    Type
                         _______ _______ _______ _____ _____    ______ ____

>  <TORSDO>
F 7

$$$$
=
 OpenBabel11062420243D

 49 57  0  0  1  0  0  0  0  0999 V2000
  192.3540  175.2930  146.8770 C   0  0  2  0  0  3  0  0  0  0  0  0
  190.2700  172.0580  140.7420 C   0  0  0  0  0  2  0  0  0  0  0  0
  192.8970  174.1200  143.3630 C   0  0  2  0  0  3  0  0  0  0  0  0
  189.6040  173.2580  141.4540 C   0  0  1  0  0  0  0  0  0  0  0  0
  190.4240  173.7840  142.6540 C   0  0  0  0  0  2  0  0  0  0  0  0
  192.8250  173.9580  144.9050 C   0  0  2  0  0  3  0  0  0  0  0  0
  191.8690  173.2960  142.6240 C   0  0  1  0  0  3  0  0  0  0  0  0
  193.7810  175.1790  146.6580 N   0  0  0  0  0  0  0  0  0  0  0  0
  189.4340  174.2960  140.5350 O   0  0  0  0  0  1  0  0  0  0  0  0
  194.1980  173.7710  142.7480 N   0  0  1  0  0  0  0  0  0  0  0  0
  191.6940  174.7570  145.5880 C   0  0  2  0  0  3  0  0  0  0  0  0
  194.0380  174.4560  145.6240 C   0  0  0  0  0  0  0  0  0  0  0  0
  190.0870  176.7330  145.5130 C   0  0  1  0  0  3  0  0  0  0  0  0
  190.4960  176.9630  146.9880 C   0  0  0  0  0  2  0  0  0  0  0  0
  191.7540  172.2860  140.3740 C   0  0  0  0  0  2  0  0  0  0  0  0
  195.3890  174.1490  145.2600 N   0  0  0  0  0  2  0  0  0  0  0  0
  192.3790  173.3870  141.2260 C   0  0  2  0  0  3  0  0  0  0  0  0
  194.7760  172.6020  143.4050 C   0  0  0  0  0  2  0  0  0  0  0  0
  195.8150  173.0160  144.4410 C   0  0  0  0  0  2  0  0  0  0  0  0
  193.8820  173.3310  141.3830 C   0  0  1  0  0  3  0  0  0  0  0  0
  188.2420  172.8280  141.9550 C   0  0  0  0  0  1  0  0  0  0  0  0
  191.9850  176.7370  147.2270 C   0  0  0  0  0  2  0  0  0  0  0  0
  191.1530  175.9260  144.7450 C   0  0  0  0  0  2  0  0  0  0  0  0
  187.0220  177.5200  144.6340 N   0  0  2  0  0  0  0  0  0  0  0  0
  188.7710  176.0800  145.4270 N   0  0  2  0  0  0  0  0  0  0  0  0
  187.1660  176.4310  143.6890 C   0  0  0  0  0  2  0  0  0  0  0  0
  188.4820  175.7800  144.0250 C   0  0  0  0  0  2  0  0  0  0  0  0
  187.7280  177.0290  145.8350 C   0  0  2  0  0  3  0  0  0  0  0  0
  185.1730  179.9640  143.8440 C   0  0  0  0  0  2  0  0  0  0  0  0
  185.4410  179.3060  145.1740 C   0  0  0  0  0  2  0  0  0  0  0  0
  184.5150  178.9820  142.9950 N   0  0  0  0  0  2  0  0  0  0  0  0
  184.8030  177.6680  143.5610 C   0  0  0  0  0  2  0  0  0  0  0  0
  185.6000  177.8410  144.8490 C   0  0  1  0  0  3  0  0  0  0  0  0
  186.8360  176.4060  146.9340 C   0  0  0  0  0  2  0  0  0  0  0  0
  186.3960  177.4010  148.0020 C   0  0  0  0  0  2  0  0  0  0  0  0
  187.2350  178.5160  147.9950 O   0  0  0  0  0  1  0  0  0  0  0  0
  194.5080  174.2270  140.4240 N   0  0  0  0  0  2  0  0  0  0  0  0
  195.7210  173.3250  139.5800 S   0  0  0  0  0  0  0  0  0  0  0  0
  195.5050  171.8580  139.8330 O   0  0  0  0  0  0  0  0  0  0  0  0
  197.0790  173.7190  140.0930 O   0  0  0  0  0  0  0  0  0  0  0  0
  196.7220  174.5670  137.5340 C   0  0  0  0  0  2  0  0  0  0  0  0
  195.6220  173.6540  137.8780 N   0  0  0  0  0  0  0  0  0  0  0  0
  194.2250  176.4200  135.5410 C   0  0  0  0  0  3  0  0  0  0  0  0
  194.0540  174.4560  137.5630 S   0  0  0  0  0  0  0  0  0  0  0  0
  194.8540  175.5810  136.4610 C   0  0  0  0  0  0  0  0  0  0  0  0
  194.9930  177.2260  134.7520 N   0  0  0  0  0  0  0  0  0  0  0  0
  197.0030  176.3690  135.7450 C   0  0  0  0  0  3  0  0  0  0  0  0
  196.2150  175.5440  136.5470 C   0  0  0  0  0  0  0  0  0  0  0  0
  196.3550  177.2220  134.8380 C   0  0  0  0  0  3  0  0  0  0  0  0
  1 22  1  6  0  0  0
  2  4  1  0  0  0  0
  3  6  1  0  0  0  0
  4 21  1  0  0  0  0
  4  5  1  0  0  0  0
  6 11  1  0  0  0  0
  6 12  1  0  0  0  0
  7  5  1  0  0  0  0
  7  3  1  0  0  0  0
  8  1  1  0  0  0  0
  9  4  1  0  0  0  0
 10  3  1  0  0  0  0
 10 18  1  0  0  0  0
 11  1  1  0  0  0  0
 12  8  2  0  0  0  0
 13 14  1  0  0  0  0
 14 22  1  0  0  0  0
 15  2  1  0  0  0  0
 15 17  1  0  0  0  0
 16 12  1  0  0  0  0
 17 20  1  0  0  0  0
 17  7  1  0  0  0  0
 18 19  1  0  0  0  0
 19 16  1  0  0  0  0
 20 10  1  0  0  0  0
 23 13  1  0  0  0  0
 23 11  1  0  0  0  0
 24 33  1  0  0  0  0
 24 28  1  0  0  0  0
 25 13  1  0  0  0  0
 25 28  1  0  0  0  0
 26 27  1  0  0  0  0
 26 24  1  0  0  0  0
 27 25  1  0  0  0  0
 28 34  1  0  0  0  0
 29 30  1  0  0  0  0
 31 32  1  0  0  0  0
 31 29  1  0  0  0  0
 32 33  1  0  0  0  0
 33 30  1  0  0  0  0
 34 35  1  0  0  0  0
 36 35  1  0  0  0  0
 37 20  1  0  0  0  0
 38 39  2  0  0  0  0
 38 40  2  0  0  0  0
 38 37  1  0  0  0  0
 41 42  1  0  0  0  0
 42 38  1  0  0  0  0
 43 45  1  0  0  0  0
 44 42  1  0  0  0  0
 45 48  2  0  0  0  0
 45 44  1  0  0  0  0
 46 49  1  0  0  0  0
 46 43  2  0  0  0  0
 47 48  1  0  0  0  0
 48 41  1  0  0  0  0
 49 47  2  0  0  0  0
M  END
>  <MODEL>
2

>  <REMARK>
 VINA RESULT:      -7.6      3.226     10.437
  Name = 
  7 active torsions:
  status: ('A' for Active; 'I' for Inactive)
    1  A    between atoms: N_1  and  C_38
    2  A    between atoms: C_2  and  C_39
    3  A    between atoms: N_6  and  C_29
    4  A    between atoms: S_7  and  N_9
    5  A    between atoms: S_7  and  N_15
    6  A    between atoms: N_15  and  C_42
    7  A    between atoms: C_32  and  C_39
                            x       y       z     vdW  Elec       q    Type
                         _______ _______ _______ _____ _____    ______ ____

>  <TORSDO>
F 7

$$$$
=
 OpenBabel11062420243D

 49 57  0  0  1  0  0  0  0  0999 V2000
  192.2690  175.3160  146.8030 C   0  0  2  0  0  3  0  0  0  0  0  0
  189.8940  172.3080  140.6590 C   0  0  0  0  0  2  0  0  0  0  0  0
  192.6450  174.2730  143.2260 C   0  0  2  0  0  3  0  0  0  0  0  0
  189.2640  173.4820  141.4440 C   0  0  1  0  0  0  0  0  0  0  0  0
  190.1400  173.9630  142.6230 C   0  0  0  0  0  2  0  0  0  0  0  0
  192.6450  174.0540  144.7630 C   0  0  2  0  0  3  0  0  0  0  0  0
  191.5810  173.4760  142.5070 C   0  0  1  0  0  3  0  0  0  0  0  0
  193.6850  175.2100  146.5130 N   0  0  0  0  0  0  0  0  0  0  0  0
  189.0520  174.5520  140.5740 O   0  0  0  0  0  1  0  0  0  0  0  0
  193.9150  173.9470  142.5390 N   0  0  1  0  0  0  0  0  0  0  0  0
  191.5490  174.8280  145.5280 C   0  0  2  0  0  3  0  0  0  0  0  0
  193.8920  174.5260  145.4420 C   0  0  0  0  0  0  0  0  0  0  0  0
  189.9430  176.8050  145.6010 C   0  0  1  0  0  3  0  0  0  0  0  0
  190.4220  176.9810  147.0620 C   0  0  0  0  0  2  0  0  0  0  0  0
  191.3590  172.5500  140.2300 C   0  0  0  0  0  2  0  0  0  0  0  0
  195.2230  174.2330  145.0030 N   0  0  0  0  0  2  0  0  0  0  0  0
  192.0250  173.6180  141.0900 C   0  0  2  0  0  3  0  0  0  0  0  0
  194.5210  172.7540  143.1240 C   0  0  0  0  0  2  0  0  0  0  0  0
  195.6090  173.1300  144.1240 C   0  0  0  0  0  2  0  0  0  0  0  0
  193.5340  173.5570  141.1740 C   0  0  1  0  0  3  0  0  0  0  0  0
  187.9260  173.0320  141.9930 C   0  0  0  0  0  1  0  0  0  0  0  0
  191.9200  176.7460  147.2230 C   0  0  0  0  0  2  0  0  0  0  0  0
  190.9710  176.0260  144.7540 C   0  0  0  0  0  2  0  0  0  0  0  0
  186.8770  177.5660  144.7040 N   0  0  2  0  0  0  0  0  0  0  0  0
  188.6230  176.1560  145.5530 N   0  0  2  0  0  0  0  0  0  0  0  0
  187.0100  176.4330  143.8100 C   0  0  0  0  0  2  0  0  0  0  0  0
  188.3250  175.7910  144.1690 C   0  0  0  0  0  2  0  0  0  0  0  0
  187.5880  177.1280  145.9230 C   0  0  2  0  0  3  0  0  0  0  0  0
  185.0560  180.0220  143.8880 C   0  0  0  0  0  2  0  0  0  0  0  0
  185.3130  179.3730  145.2240 C   0  0  0  0  0  2  0  0  0  0  0  0
  184.3900  179.0410  143.0460 N   0  0  0  0  0  2  0  0  0  0  0  0
  184.6630  177.7290  143.6230 C   0  0  0  0  0  2  0  0  0  0  0  0
  185.4580  177.9040  144.9110 C   0  0  1  0  0  3  0  0  0  0  0  0
  186.7000  176.5620  147.0540 C   0  0  0  0  0  2  0  0  0  0  0  0
  186.3080  177.5980  148.1020 C   0  0  0  0  0  2  0  0  0  0  0  0
  187.2050  178.6660  148.0790 O   0  0  0  0  0  1  0  0  0  0  0  0
  194.1150  174.4880  140.2210 N   0  0  0  0  0  2  0  0  0  0  0  0
  195.0750  173.5680  139.1110 S   0  0  0  0  0  0  0  0  0  0  0  0
  195.2300  172.1690  139.6400 O   0  0  0  0  0  0  0  0  0  0  0  0
  196.4340  174.2010  138.9880 O   0  0  0  0  0  0  0  0  0  0  0  0
  193.1720  174.4680  137.5960 C   0  0  0  0  0  2  0  0  0  0  0  0
  194.3050  173.5330  137.5560 N   0  0  0  0  0  0  0  0  0  0  0  0
  191.2530  171.8230  135.8750 C   0  0  0  0  0  3  0  0  0  0  0  0
  193.7040  171.8700  137.2770 S   0  0  0  0  0  0  0  0  0  0  0  0
  192.2060  172.5270  136.6110 C   0  0  0  0  0  0  0  0  0  0  0  0
  190.1490  172.4840  135.4210 N   0  0  0  0  0  0  0  0  0  0  0  0
  190.9210  174.5410  136.3880 C   0  0  0  0  0  3  0  0  0  0  0  0
  192.0500  173.8620  136.8460 C   0  0  0  0  0  0  0  0  0  0  0  0
  189.9630  173.8140  135.6650 C   0  0  0  0  0  3  0  0  0  0  0  0
  1 22  1  6  0  0  0
  2  4  1  0  0  0  0
  3  6  1  0  0  0  0
  4 21  1  0  0  0  0
  4  5  1  0  0  0  0
  6 12  1  0  0  0  0
  6 11  1  0  0  0  0
  7  5  1  0  0  0  0
  7  3  1  0  0  0  0
  8  1  1  0  0  0  0
  9  4  1  0  0  0  0
 10 18  1  0  0  0  0
 10  3  1  0  0  0  0
 11  1  1  0  0  0  0
 12  8  2  0  0  0  0
 13 14  1  0  0  0  0
 14 22  1  0  0  0  0
 15  2  1  0  0  0  0
 15 17  1  0  0  0  0
 16 12  1  0  0  0  0
 17 20  1  0  0  0  0
 17  7  1  0  0  0  0
 18 19  1  0  0  0  0
 19 16  1  0  0  0  0
 20 10  1  0  0  0  0
 23 11  1  0  0  0  0
 23 13  1  0  0  0  0
 24 33  1  0  0  0  0
 24 28  1  0  0  0  0
 25 13  1  0  0  0  0
 25 28  1  0  0  0  0
 26 27  1  0  0  0  0
 26 24  1  0  0  0  0
 27 25  1  0  0  0  0
 28 34  1  0  0  0  0
 29 30  1  0  0  0  0
 31 32  1  0  0  0  0
 31 29  1  0  0  0  0
 32 33  1  0  0  0  0
 33 30  1  0  0  0  0
 34 35  1  0  0  0  0
 36 35  1  0  0  0  0
 37 20  1  0  0  0  0
 38 39  2  0  0  0  0
 38 37  1  0  0  0  0
 40 38  2  0  0  0  0
 42 41  1  0  0  0  0
 42 38  1  0  0  0  0
 43 45  1  0  0  0  0
 44 42  1  0  0  0  0
 45 48  2  0  0  0  0
 45 44  1  0  0  0  0
 46 49  1  0  0  0  0
 46 43  2  0  0  0  0
 47 48  1  0  0  0  0
 48 41  1  0  0  0  0
 49 47  2  0  0  0  0
M  END
>  <MODEL>
3

>  <REMARK>
 VINA RESULT:      -7.4      3.456     10.130
  Name = 
  7 active torsions:
  status: ('A' for Active; 'I' for Inactive)
    1  A    between atoms: N_1  and  C_38
    2  A    between atoms: C_2  and  C_39
    3  A    between atoms: N_6  and  C_29
    4  A    between atoms: S_7  and  N_9
    5  A    between atoms: S_7  and  N_15
    6  A    between atoms: N_15  and  C_42
    7  A    between atoms: C_32  and  C_39
                            x       y       z     vdW  Elec       q    Type
                         _______ _______ _______ _____ _____    ______ ____

>  <TORSDO>
F 7

$$$$
=
 OpenBabel11062420243D

 49 57  0  0  1  0  0  0  0  0999 V2000
  191.3840  173.0860  138.7170 C   0  0  2  0  0  3  0  0  0  0  0  0
  194.1950  172.9090  145.3880 C   0  0  0  0  0  2  0  0  0  0  0  0
  191.5420  174.1330  142.3090 C   0  0  2  0  0  3  0  0  0  0  0  0
  194.9160  173.2580  144.0660 C   0  0  1  0  0  0  0  0  0  0  0  0
  193.9550  173.3540  142.8590 C   0  0  0  0  0  2  0  0  0  0  0  0
  191.1530  173.1990  141.1310 C   0  0  2  0  0  3  0  0  0  0  0  0
  192.4980  173.4950  143.2890 C   0  0  1  0  0  3  0  0  0  0  0  0
  190.0860  173.6110  139.0890 N   0  0  0  0  0  0  0  0  0  0  0  0
  195.5750  174.4790  144.2150 O   0  0  0  0  0  1  0  0  0  0  0  0
  190.4110  174.6280  143.1260 N   0  0  1  0  0  0  0  0  0  0  0  0
  192.2160  173.0840  140.0170 C   0  0  2  0  0  3  0  0  0  0  0  0
  189.9500  173.6560  140.3680 C   0  0  0  0  0  0  0  0  0  0  0  0
  194.2150  174.1100  138.8150 C   0  0  1  0  0  3  0  0  0  0  0  0
  193.4910  173.6900  137.5140 C   0  0  0  0  0  2  0  0  0  0  0  0
  192.9680  173.7980  145.6930 C   0  0  0  0  0  2  0  0  0  0  0  0
  188.7150  174.0750  140.9620 N   0  0  0  0  0  2  0  0  0  0  0  0
  192.4240  174.4540  144.4290 C   0  0  2  0  0  3  0  0  0  0  0  0
  189.4110  173.5790  143.3020 C   0  0  0  0  0  2  0  0  0  0  0  0
  188.2640  173.7480  142.3130 C   0  0  0  0  0  2  0  0  0  0  0  0
  190.9670  174.8610  144.4660 C   0  0  1  0  0  3  0  0  0  0  0  0
  195.9430  172.1850  143.7780 C   0  0  0  0  0  1  0  0  0  0  0  0
  191.9840  173.9160  137.5790 C   0  0  0  0  0  2  0  0  0  0  0  0
  193.2330  174.2400  139.9980 C   0  0  0  0  0  2  0  0  0  0  0  0
  196.0710  171.8910  137.2610 N   0  0  2  0  0  0  0  0  0  0  0  0
  195.3050  173.1760  139.1380 N   0  0  2  0  0  0  0  0  0  0  0  0
  197.1790  172.7000  137.7310 C   0  0  0  0  0  2  0  0  0  0  0  0
  196.5650  173.7290  138.6440 C   0  0  0  0  0  2  0  0  0  0  0  0
  195.1160  171.9280  138.3880 C   0  0  2  0  0  3  0  0  0  0  0  0
  196.4640  170.3730  134.5130 C   0  0  0  0  0  2  0  0  0  0  0  0
  195.6970  170.0000  135.7560 C   0  0  0  0  0  2  0  0  0  0  0  0
  197.8730  170.4300  134.8680 N   0  0  0  0  0  2  0  0  0  0  0  0
  197.9410  170.5830  136.3180 C   0  0  0  0  0  2  0  0  0  0  0  0
  196.5310  170.5400  136.8930 C   0  0  1  0  0  3  0  0  0  0  0  0
  195.1560  170.7150  139.3450 C   0  0  0  0  0  2  0  0  0  0  0  0
  193.8150  170.0040  139.4880 C   0  0  0  0  0  2  0  0  0  0  0  0
  193.1370  170.0090  138.2680 O   0  0  0  0  0  1  0  0  0  0  0  0
  190.8620  176.2720  144.7990 N   0  0  0  0  0  2  0  0  0  0  0  0
  189.8270  176.4070  146.1810 S   0  0  0  0  0  0  0  0  0  0  0  0
  190.6700  176.6500  147.4030 O   0  0  0  0  0  0  0  0  0  0  0  0
  189.0640  175.1240  146.3560 O   0  0  0  0  0  0  0  0  0  0  0  0
  187.6170  177.5480  146.9190 C   0  0  0  0  0  2  0  0  0  0  0  0
  188.7150  177.7210  145.9570 N   0  0  0  0  0  0  0  0  0  0  0  0
  185.3650  178.3990  144.1190 C   0  0  0  0  0  3  0  0  0  0  0  0
  188.0760  177.6250  144.2890 S   0  0  0  0  0  0  0  0  0  0  0  0
  186.4590  178.0070  144.8900 C   0  0  0  0  0  0  0  0  0  0  0  0
  184.1820  178.6700  144.7420 N   0  0  0  0  0  0  0  0  0  0  0  0
  185.1470  178.1990  146.8880 C   0  0  0  0  0  3  0  0  0  0  0  0
  186.3550  177.9270  146.2480 C   0  0  0  0  0  0  0  0  0  0  0  0
  184.0500  178.5740  146.0970 C   0  0  0  0  0  3  0  0  0  0  0  0
  1 22  1  6  0  0  0
  1  8  1  0  0  0  0
  1 11  1  0  0  0  0
  2 15  1  0  0  0  0
  3 10  1  0  0  0  0
  3  7  1  0  0  0  0
  4  9  1  0  0  0  0
  4  2  1  0  0  0  0
  5  7  1  0  0  0  0
  5  4  1  0  0  0  0
  6  3  1  0  0  0  0
  7 17  1  0  0  0  0
  8 12  2  0  0  0  0
 10 18  1  0  0  0  0
 10 20  1  0  0  0  0
 11  6  1  0  0  0  0
 12 16  1  0  0  0  0
 12  6  1  0  0  0  0
 13 25  1  0  0  0  0
 13 23  1  0  0  0  0
 14 22  1  0  0  0  0
 14 13  1  0  0  0  0
 16 19  1  0  0  0  0
 17 20  1  0  0  0  0
 17 15  1  0  0  0  0
 19 18  1  0  0  0  0
 20 37  1  0  0  0  0
 21  4  1  0  0  0  0
 23 11  1  0  0  0  0
 24 26  1  0  0  0  0
 24 28  1  0  0  0  0
 26 27  1  0  0  0  0
 27 25  1  0  0  0  0
 28 25  1  0  0  0  0
 28 34  1  0  0  0  0
 29 31  1  0  0  0  0
 29 30  1  0  0  0  0
 30 33  1  0  0  0  0
 31 32  1  0  0  0  0
 32 33  1  0  0  0  0
 33 24  1  0  0  0  0
 34 35  1  0  0  0  0
 36 35  1  0  0  0  0
 37 38  1  0  0  0  0
 38 40  2  0  0  0  0
 38 39  2  0  0  0  0
 42 38  1  0  0  0  0
 42 41  1  0  0  0  0
 43 46  2  0  0  0  0
 43 45  1  0  0  0  0
 44 45  1  0  0  0  0
 44 42  1  0  0  0  0
 45 48  2  0  0  0  0
 46 49  1  0  0  0  0
 48 47  1  0  0  0  0
 48 41  1  0  0  0  0
 49 47  2  0  0  0  0
M  END
>  <MODEL>
4

>  <REMARK>
 VINA RESULT:      -7.4      1.724      2.023
  Name = 
  7 active torsions:
  status: ('A' for Active; 'I' for Inactive)
    1  A    between atoms: N_1  and  C_38
    2  A    between atoms: C_2  and  C_39
    3  A    between atoms: N_6  and  C_29
    4  A    between atoms: S_7  and  N_9
    5  A    between atoms: S_7  and  N_15
    6  A    between atoms: N_15  and  C_42
    7  A    between atoms: C_32  and  C_39
                            x       y       z     vdW  Elec       q    Type
                         _______ _______ _______ _____ _____    ______ ____

>  <TORSDO>
F 7

$$$$
=
 OpenBabel11062420243D

 49 57  0  0  1  0  0  0  0  0999 V2000
  193.3510  175.6020  145.1680 C   0  0  2  0  0  3  0  0  0  0  0  0
  190.1810  171.8950  139.8150 C   0  0  0  0  0  2  0  0  0  0  0  0
  193.2020  174.2120  141.6940 C   0  0  2  0  0  3  0  0  0  0  0  0
  189.6240  173.1190  140.5790 C   0  0  1  0  0  0  0  0  0  0  0  0
  190.6520  173.7500  141.5450 C   0  0  0  0  0  2  0  0  0  0  0  0
  193.4600  174.1520  143.2230 C   0  0  2  0  0  3  0  0  0  0  0  0
  192.0800  173.3070  141.2400 C   0  0  1  0  0  3  0  0  0  0  0  0
  194.7050  175.5190  144.6590 N   0  0  0  0  0  0  0  0  0  0  0  0
  189.2200  174.0860  139.6570 O   0  0  0  0  0  1  0  0  0  0  0  0
  194.3600  173.8630  140.8400 N   0  0  1  0  0  0  0  0  0  0  0  0
  192.4620  174.9600  144.0810 C   0  0  2  0  0  3  0  0  0  0  0  0
  194.7730  174.7360  143.6390 C   0  0  0  0  0  0  0  0  0  0  0  0
  190.7880  176.8750  144.2290 C   0  0  1  0  0  3  0  0  0  0  0  0
  191.4850  177.2170  145.5680 C   0  0  0  0  0  2  0  0  0  0  0  0
  191.5440  172.1440  139.1290 C   0  0  0  0  0  2  0  0  0  0  0  0
  196.0310  174.4480  143.0160 N   0  0  0  0  0  2  0  0  0  0  0  0
  192.2820  173.3190  139.7620 C   0  0  2  0  0  3  0  0  0  0  0  0
  195.1140  172.7590  141.4290 C   0  0  0  0  0  2  0  0  0  0  0  0
  196.3270  173.2750  142.1950 C   0  0  0  0  0  2  0  0  0  0  0  0
  193.7860  173.3210  139.6010 C   0  0  1  0  0  3  0  0  0  0  0  0
  188.4180  172.6810  141.3810 C   0  0  0  0  0  1  0  0  0  0  0  0
  192.9990  177.0540  145.5000 C   0  0  0  0  0  2  0  0  0  0  0  0
  191.7050  176.0510  143.3030 C   0  0  0  0  0  2  0  0  0  0  0  0
  187.6090  177.6350  144.5580 N   0  0  2  0  0  0  0  0  0  0  0  0
  189.5130  176.1770  144.4620 N   0  0  2  0  0  0  0  0  0  0  0  0
  187.4260  176.7340  143.4380 C   0  0  0  0  0  2  0  0  0  0  0  0
  188.7750  176.1060  143.2020 C   0  0  0  0  0  2  0  0  0  0  0  0
  188.6700  176.9830  145.3530 C   0  0  2  0  0  3  0  0  0  0  0  0
  185.2050  179.6700  144.2570 C   0  0  0  0  0  2  0  0  0  0  0  0
  186.0640  179.3120  145.4430 C   0  0  0  0  0  2  0  0  0  0  0  0
  184.4570  178.4800  143.8830 N   0  0  0  0  0  2  0  0  0  0  0  0
  185.1600  177.3370  144.4560 C   0  0  0  0  0  2  0  0  0  0  0  0
  186.3410  177.8370  145.2800 C   0  0  1  0  0  3  0  0  0  0  0  0
  188.1890  176.1330  146.5510 C   0  0  0  0  0  2  0  0  0  0  0  0
  188.9500  174.8230  146.7170 C   0  0  0  0  0  2  0  0  0  0  0  0
  189.9800  174.9790  147.6440 O   0  0  0  0  0  1  0  0  0  0  0  0
  194.1570  174.1700  138.4810 N   0  0  0  0  0  2  0  0  0  0  0  0
  195.0170  173.1870  137.3430 S   0  0  0  0  0  0  0  0  0  0  0  0
  195.3330  171.8620  137.9810 O   0  0  0  0  0  0  0  0  0  0  0  0
  196.3020  173.8720  136.9680 O   0  0  0  0  0  0  0  0  0  0  0  0
  192.8930  173.8500  136.0090 C   0  0  0  0  0  2  0  0  0  0  0  0
  194.0490  172.9460  135.9230 N   0  0  0  0  0  0  0  0  0  0  0  0
  190.8730  170.9710  134.8850 C   0  0  0  0  0  3  0  0  0  0  0  0
  193.4850  171.2480  135.9220 S   0  0  0  0  0  0  0  0  0  0  0  0
  191.8850  171.7820  135.3970 C   0  0  0  0  0  0  0  0  0  0  0  0
  189.6920  171.5450  134.5140 N   0  0  0  0  0  0  0  0  0  0  0  0
  190.5010  173.7210  135.1210 C   0  0  0  0  0  3  0  0  0  0  0  0
  191.7080  173.1320  135.4960 C   0  0  0  0  0  0  0  0  0  0  0  0
  189.4860  172.8890  134.6250 C   0  0  0  0  0  3  0  0  0  0  0  0
  1 22  1  6  0  0  0
  2  4  1  0  0  0  0
  3  6  1  0  0  0  0
  4 21  1  0  0  0  0
  4  5  1  0  0  0  0
  6 12  1  0  0  0  0
  6 11  1  0  0  0  0
  7  5  1  0  0  0  0
  7  3  1  0  0  0  0
  8  1  1  0  0  0  0
  9  4  1  0  0  0  0
 10 18  1  0  0  0  0
 10  3  1  0  0  0  0
 11  1  1  0  0  0  0
 12  8  2  0  0  0  0
 13 25  1  0  0  0  0
 13 14  1  0  0  0  0
 15 17  1  0  0  0  0
 15  2  1  0  0  0  0
 16 12  1  0  0  0  0
 17  7  1  0  0  0  0
 18 19  1  0  0  0  0
 19 16  1  0  0  0  0
 20 17  1  0  0  0  0
 20 10  1  0  0  0  0
 22 14  1  0  0  0  0
 23 11  1  0  0  0  0
 23 13  1  0  0  0  0
 24 33  1  0  0  0  0
 24 28  1  0  0  0  0
 25 28  1  0  0  0  0
 26 24  1  0  0  0  0
 27 26  1  0  0  0  0
 27 25  1  0  0  0  0
 28 34  1  0  0  0  0
 29 30  1  0  0  0  0
 31 29  1  0  0  0  0
 31 32  1  0  0  0  0
 32 33  1  0  0  0  0
 33 30  1  0  0  0  0
 34 35  1  0  0  0  0
 35 36  1  0  0  0  0
 37 20  1  0  0  0  0
 38 39  2  0  0  0  0
 38 37  1  0  0  0  0
 40 38  2  0  0  0  0
 42 41  1  0  0  0  0
 42 38  1  0  0  0  0
 43 45  1  0  0  0  0
 44 42  1  0  0  0  0
 45 48  2  0  0  0  0
 45 44  1  0  0  0  0
 46 49  1  0  0  0  0
 46 43  2  0  0  0  0
 47 48  1  0  0  0  0
 48 41  1  0  0  0  0
 49 47  2  0  0  0  0
M  END
>  <MODEL>
5

>  <REMARK>
 VINA RESULT:      -7.3      3.605     10.173
  Name = 
  7 active torsions:
  status: ('A' for Active; 'I' for Inactive)
    1  A    between atoms: N_1  and  C_38
    2  A    between atoms: C_2  and  C_39
    3  A    between atoms: N_6  and  C_29
    4  A    between atoms: S_7  and  N_9
    5  A    between atoms: S_7  and  N_15
    6  A    between atoms: N_15  and  C_42
    7  A    between atoms: C_32  and  C_39
                            x       y       z     vdW  Elec       q    Type
                         _______ _______ _______ _____ _____    ______ ____

>  <TORSDO>
F 7

$$$$
=
 OpenBabel11062420243D

 49 57  0  0  1  0  0  0  0  0999 V2000
  193.1300  175.5370  144.9150 C   0  0  2  0  0  3  0  0  0  0  0  0
  189.3730  173.4970  139.0700 C   0  0  0  0  0  2  0  0  0  0  0  0
  190.0970  175.5410  142.7200 C   0  0  2  0  0  3  0  0  0  0  0  0
  189.9880  172.5930  140.1640 C   0  0  1  0  0  0  0  0  0  0  0  0
  190.5770  173.3910  141.3490 C   0  0  0  0  0  2  0  0  0  0  0  0
  191.5200  175.9830  143.1530 C   0  0  2  0  0  3  0  0  0  0  0  0
  190.0700  174.8290  141.3870 C   0  0  1  0  0  3  0  0  0  0  0  0
  192.3730  176.7400  145.1970 N   0  0  0  0  0  0  0  0  0  0  0  0
  189.0040  171.7290  140.6470 O   0  0  0  0  0  1  0  0  0  0  0  0
  189.1010  176.6310  142.6040 N   0  0  1  0  0  0  0  0  0  0  0  0
  192.3980  174.8550  143.7390 C   0  0  2  0  0  3  0  0  0  0  0  0
  191.5310  176.9920  144.2570 C   0  0  0  0  0  0  0  0  0  0  0  0
  192.5260  172.5860  144.8910 C   0  0  1  0  0  3  0  0  0  0  0  0
  193.5970  173.2430  145.7940 C   0  0  0  0  0  2  0  0  0  0  0  0
  188.3810  174.5540  139.6080 C   0  0  0  0  0  2  0  0  0  0  0  0
  190.7250  178.1760  144.2910 N   0  0  0  0  0  2  0  0  0  0  0  0
  188.6080  174.8310  141.0900 C   0  0  2  0  0  3  0  0  0  0  0  0
  189.7180  177.8280  142.0380 C   0  0  0  0  0  2  0  0  0  0  0  0
  190.0990  178.8160  143.1350 C   0  0  0  0  0  2  0  0  0  0  0  0
  188.1370  176.1780  141.5920 C   0  0  1  0  0  3  0  0  0  0  0  0
  191.0940  171.7680  139.5430 C   0  0  0  0  0  1  0  0  0  0  0  0
  193.2450  174.6770  146.1760 C   0  0  0  0  0  2  0  0  0  0  0  0
  191.6020  173.6380  144.2440 C   0  0  0  0  0  2  0  0  0  0  0  0
  195.0350  170.4790  144.6610 N   0  0  2  0  0  0  0  0  0  0  0  0
  193.1500  171.7340  143.8660 N   0  0  2  0  0  0  0  0  0  0  0  0
  194.0180  169.5370  144.2360 C   0  0  0  0  0  2  0  0  0  0  0  0
  192.7540  170.3460  144.0990 C   0  0  0  0  0  2  0  0  0  0  0  0
  194.6070  171.7500  144.0400 C   0  0  2  0  0  3  0  0  0  0  0  0
  197.5670  169.4170  146.2330 C   0  0  0  0  0  2  0  0  0  0  0  0
  197.4140  170.5280  145.2250 C   0  0  0  0  0  2  0  0  0  0  0  0
  197.2610  168.1670  145.5570 N   0  0  0  0  0  2  0  0  0  0  0  0
  196.4870  168.5040  144.3670 C   0  0  0  0  0  2  0  0  0  0  0  0
  196.3740  170.0200  144.2560 C   0  0  1  0  0  3  0  0  0  0  0  0
  195.3030  172.1170  142.7100 C   0  0  0  0  0  2  0  0  0  0  0  0
  196.0140  173.4660  142.7430 C   0  0  0  0  0  2  0  0  0  0  0  0
  196.5010  173.7200  144.0250 O   0  0  0  0  0  1  0  0  0  0  0  0
  186.8230  176.0420  142.1980 N   0  0  0  0  0  2  0  0  0  0  0  0
  185.9680  177.5240  141.9310 S   0  0  0  0  0  0  0  0  0  0  0  0
  184.5430  177.2090  141.5640 O   0  0  0  0  0  0  0  0  0  0  0  0
  186.6150  178.2720  140.7970 O   0  0  0  0  0  0  0  0  0  0  0  0
  186.8300  177.7900  144.3630 C   0  0  0  0  0  2  0  0  0  0  0  0
  186.0090  178.4950  143.3690 N   0  0  0  0  0  0  0  0  0  0  0  0
  184.1970  178.6720  146.7960 C   0  0  0  0  0  3  0  0  0  0  0  0
  184.3330  178.6530  143.9750 S   0  0  0  0  0  0  0  0  0  0  0  0
  184.9120  178.4130  145.6270 C   0  0  0  0  0  0  0  0  0  0  0  0
  184.7950  178.4420  148.0000 N   0  0  0  0  0  0  0  0  0  0  0  0
  186.8130  177.7240  146.9160 C   0  0  0  0  0  3  0  0  0  0  0  0
  186.2000  177.9650  145.6880 C   0  0  0  0  0  0  0  0  0  0  0  0
  186.0740  177.9730  148.0840 C   0  0  0  0  0  3  0  0  0  0  0  0
  1  8  1  0  0  0  0
  1 22  1  1  0  0  0
  2 15  1  0  0  0  0
  2  4  1  0  0  0  0
  3  6  1  0  0  0  0
  4  9  1  0  0  0  0
  4  5  1  0  0  0  0
  5  7  1  0  0  0  0
  6 11  1  0  0  0  0
  6 12  1  0  0  0  0
  7  3  1  0  0  0  0
 10  3  1  0  0  0  0
 11 23  1  0  0  0  0
 11  1  1  0  0  0  0
 12 16  1  0  0  0  0
 12  8  2  0  0  0  0
 13 14  1  0  0  0  0
 14 22  1  0  0  0  0
 15 17  1  0  0  0  0
 17  7  1  0  0  0  0
 17 20  1  0  0  0  0
 18 10  1  0  0  0  0
 18 19  1  0  0  0  0
 19 16  1  0  0  0  0
 20 37  1  0  0  0  0
 20 10  1  0  0  0  0
 21  4  1  0  0  0  0
 23 13  1  0  0  0  0
 25 28  1  0  0  0  0
 25 27  1  0  0  0  0
 25 13  1  0  0  0  0
 26 24  1  0  0  0  0
 27 26  1  0  0  0  0
 28 24  1  0  0  0  0
 30 29  1  0  0  0  0
 31 29  1  0  0  0  0
 32 31  1  0  0  0  0
 33 32  1  0  0  0  0
 33 24  1  0  0  0  0
 33 30  1  0  0  0  0
 34 35  1  0  0  0  0
 34 28  1  0  0  0  0
 35 36  1  0  0  0  0
 38 37  1  0  0  0  0
 38 42  1  0  0  0  0
 39 38  2  0  0  0  0
 40 38  2  0  0  0  0
 41 48  1  0  0  0  0
 42 44  1  0  0  0  0
 42 41  1  0  0  0  0
 43 46  1  0  0  0  0
 44 45  1  0  0  0  0
 45 48  1  0  0  0  0
 45 43  2  0  0  0  0
 46 49  2  0  0  0  0
 47 49  1  0  0  0  0
 48 47  2  0  0  0  0
M  END
>  <MODEL>
6

>  <REMARK>
 VINA RESULT:      -7.2      3.993      6.271
  Name = 
  7 active torsions:
  status: ('A' for Active; 'I' for Inactive)
    1  A    between atoms: N_1  and  C_38
    2  A    between atoms: C_2  and  C_39
    3  A    between atoms: N_6  and  C_29
    4  A    between atoms: S_7  and  N_9
    5  A    between atoms: S_7  and  N_15
    6  A    between atoms: N_15  and  C_42
    7  A    between atoms: C_32  and  C_39
                            x       y       z     vdW  Elec       q    Type
                         _______ _______ _______ _____ _____    ______ ____

>  <TORSDO>
F 7

$$$$
=
 OpenBabel11062420243D

 49 57  0  0  1  0  0  0  0  0999 V2000
  190.8280  174.7970  145.1300 C   0  0  2  0  0  3  0  0  0  0  0  0
  190.5600  171.7690  138.5580 C   0  0  0  0  0  2  0  0  0  0  0  0
  192.3490  173.0540  142.1860 C   0  0  2  0  0  3  0  0  0  0  0  0
  190.1700  173.2130  138.9520 C   0  0  1  0  0  0  0  0  0  0  0  0
  190.5170  173.5550  140.4190 C   0  0  0  0  0  2  0  0  0  0  0  0
  191.5560  173.1340  143.5180 C   0  0  2  0  0  3  0  0  0  0  0  0
  191.5170  172.5730  141.0210 C   0  0  1  0  0  3  0  0  0  0  0  0
  192.0410  174.1410  145.5750 N   0  0  0  0  0  0  0  0  0  0  0  0
  190.8320  174.1090  138.1110 O   0  0  0  0  0  1  0  0  0  0  0  0
  193.5410  172.1750  142.2090 N   0  0  1  0  0  0  0  0  0  0  0  0
  190.6470  174.3750  143.6560 C   0  0  2  0  0  3  0  0  0  0  0  0
  192.4220  173.2450  144.7330 C   0  0  0  0  0  0  0  0  0  0  0  0
  190.1340  176.7730  142.9650 C   0  0  1  0  0  3  0  0  0  0  0  0
  189.9130  177.0310  144.4750 C   0  0  0  0  0  2  0  0  0  0  0  0
  192.0150  171.3880  138.9130 C   0  0  0  0  0  2  0  0  0  0  0  0
  193.5610  172.4200  145.0040 N   0  0  0  0  0  2  0  0  0  0  0  0
  192.5760  172.2850  140.0110 C   0  0  2  0  0  3  0  0  0  0  0  0
  193.2730  170.9740  142.9950 C   0  0  0  0  0  2  0  0  0  0  0  0
  193.8270  171.1110  144.4080 C   0  0  0  0  0  2  0  0  0  0  0  0
  193.7090  171.7050  140.8280 C   0  0  1  0  0  3  0  0  0  0  0  0
  188.6780  173.3800  138.7600 C   0  0  0  0  0  1  0  0  0  0  0  0
  190.9320  176.3090  145.3500 C   0  0  0  0  0  2  0  0  0  0  0  0
  191.0250  175.5380  142.7210 C   0  0  0  0  0  2  0  0  0  0  0  0
  186.9980  177.6400  143.4160 N   0  0  2  0  0  0  0  0  0  0  0  0
  188.8500  176.6420  142.2590 N   0  0  2  0  0  0  0  0  0  0  0  0
  187.1560  178.3260  142.1490 C   0  0  0  0  0  2  0  0  0  0  0  0
  188.5160  177.9250  141.6410 C   0  0  0  0  0  2  0  0  0  0  0  0
  187.7790  176.3990  143.2340 C   0  0  2  0  0  3  0  0  0  0  0  0
  184.9650  178.9420  145.4610 C   0  0  0  0  0  2  0  0  0  0  0  0
  185.3420  177.5040  145.2100 C   0  0  0  0  0  2  0  0  0  0  0  0
  184.3240  179.4430  144.2550 N   0  0  0  0  0  2  0  0  0  0  0  0
  184.7210  178.5600  143.1630 C   0  0  0  0  0  2  0  0  0  0  0  0
  185.5730  177.4260  143.7210 C   0  0  1  0  0  3  0  0  0  0  0  0
  186.9690  175.1440  142.8380 C   0  0  0  0  0  2  0  0  0  0  0  0
  187.6260  174.3100  141.7440 C   0  0  0  0  0  2  0  0  0  0  0  0
  187.4690  172.9510  142.0160 O   0  0  0  0  0  1  0  0  0  0  0  0
  194.9810  172.1750  140.3040 N   0  0  0  0  0  2  0  0  0  0  0  0
  195.8770  170.7870  139.7840 S   0  0  0  0  0  0  0  0  0  0  0  0
  196.6020  171.1230  138.5090 O   0  0  0  0  0  0  0  0  0  0  0  0
  194.9260  169.6520  139.5250 O   0  0  0  0  0  0  0  0  0  0  0  0
  196.4250  169.2210  141.7780 C   0  0  0  0  0  2  0  0  0  0  0  0
  197.0160  170.3270  141.0100 N   0  0  0  0  0  0  0  0  0  0  0  0
  197.6340  170.9940  144.7830 C   0  0  0  0  0  3  0  0  0  0  0  0
  197.2690  171.7370  142.0830 S   0  0  0  0  0  0  0  0  0  0  0  0
  197.2250  170.6700  143.4900 C   0  0  0  0  0  0  0  0  0  0  0  0
  197.5440  170.0470  145.7610 N   0  0  0  0  0  0  0  0  0  0  0  0
  196.6730  168.4460  144.1990 C   0  0  0  0  0  3  0  0  0  0  0  0
  196.7710  169.4150  143.2020 C   0  0  0  0  0  0  0  0  0  0  0  0
  197.0720  168.7930  145.4990 C   0  0  0  0  0  3  0  0  0  0  0  0
  1 22  1  6  0  0  0
  1  8  1  0  0  0  0
  2 15  1  0  0  0  0
  2  4  1  0  0  0  0
  3 10  1  0  0  0  0
  3  6  1  0  0  0  0
  4  5  1  0  0  0  0
  5  7  1  0  0  0  0
  6 11  1  0  0  0  0
  6 12  1  0  0  0  0
  7  3  1  0  0  0  0
  9  4  1  0  0  0  0
 10 18  1  0  0  0  0
 11  1  1  0  0  0  0
 12 16  1  0  0  0  0
 12  8  2  0  0  0  0
 13 14  1  0  0  0  0
 14 22  1  0  0  0  0
 15 17  1  0  0  0  0
 17 20  1  0  0  0  0
 17  7  1  0  0  0  0
 18 19  1  0  0  0  0
 19 16  1  0  0  0  0
 20 10  1  0  0  0  0
 21  4  1  0  0  0  0
 23 13  1  0  0  0  0
 23 11  1  0  0  0  0
 24 33  1  0  0  0  0
 25 13  1  0  0  0  0
 25 28  1  0  0  0  0
 26 24  1  0  0  0  0
 27 26  1  0  0  0  0
 27 25  1  0  0  0  0
 28 24  1  0  0  0  0
 30 29  1  0  0  0  0
 31 29  1  0  0  0  0
 32 33  1  0  0  0  0
 32 31  1  0  0  0  0
 33 30  1  0  0  0  0
 34 28  1  0  0  0  0
 35 36  1  0  0  0  0
 35 34  1  0  0  0  0
 37 20  1  0  0  0  0
 38 37  1  0  0  0  0
 38 42  1  0  0  0  0
 39 38  2  0  0  0  0
 40 38  2  0  0  0  0
 41 48  1  0  0  0  0
 42 41  1  0  0  0  0
 42 44  1  0  0  0  0
 43 46  1  0  0  0  0
 44 45  1  0  0  0  0
 45 43  2  0  0  0  0
 47 49  1  0  0  0  0
 48 45  1  0  0  0  0
 48 47  2  0  0  0  0
 49 46  2  0  0  0  0
M  END
>  <MODEL>
7

>  <REMARK>
 VINA RESULT:      -7.1      4.206     10.285
  Name = 
  7 active torsions:
  status: ('A' for Active; 'I' for Inactive)
    1  A    between atoms: N_1  and  C_38
    2  A    between atoms: C_2  and  C_39
    3  A    between atoms: N_6  and  C_29
    4  A    between atoms: S_7  and  N_9
    5  A    between atoms: S_7  and  N_15
    6  A    between atoms: N_15  and  C_42
    7  A    between atoms: C_32  and  C_39
                            x       y       z     vdW  Elec       q    Type
                         _______ _______ _______ _____ _____    ______ ____

>  <TORSDO>
F 7

$$$$
=
 OpenBabel11062420243D

 49 57  0  0  1  0  0  0  0  0999 V2000
  189.3590  172.8360  137.8220 C   0  0  2  0  0  3  0  0  0  0  0  0
  192.2350  171.7400  144.3770 C   0  0  0  0  0  2  0  0  0  0  0  0
  190.3630  173.9300  141.2600 C   0  0  2  0  0  3  0  0  0  0  0  0
  192.9110  171.5400  143.0010 C   0  0  1  0  0  0  0  0  0  0  0  0
  192.0430  172.0330  141.8220 C   0  0  0  0  0  2  0  0  0  0  0  0
  189.4380  173.2540  140.2130 C   0  0  2  0  0  3  0  0  0  0  0  0
  190.9230  172.9640  142.2770 C   0  0  1  0  0  3  0  0  0  0  0  0
  188.5710  174.0010  138.1700 N   0  0  0  0  0  0  0  0  0  0  0  0
  194.1250  172.2290  142.9860 O   0  0  0  0  0  1  0  0  0  0  0  0
  189.7410  175.0170  142.0490 N   0  0  1  0  0  0  0  0  0  0  0  0
  190.1780  172.4980  139.0870 C   0  0  2  0  0  3  0  0  0  0  0  0
  188.5940  174.2170  139.4390 C   0  0  0  0  0  0  0  0  0  0  0  0
  192.3010  172.1970  137.7110 C   0  0  1  0  0  3  0  0  0  0  0  0
  191.3520  172.1220  136.4910 C   0  0  0  0  0  2  0  0  0  0  0  0
  191.6930  173.1680  144.6140 C   0  0  0  0  0  2  0  0  0  0  0  0
  187.8240  175.2770  140.0180 N   0  0  0  0  0  2  0  0  0  0  0  0
  191.4660  173.9050  143.2990 C   0  0  2  0  0  3  0  0  0  0  0  0
  188.3580  174.6820  142.3780 C   0  0  0  0  0  2  0  0  0  0  0  0
  187.3890  175.3540  141.4120 C   0  0  0  0  0  2  0  0  0  0  0  0
  190.4530  175.0280  143.3340 C   0  0  1  0  0  3  0  0  0  0  0  0
  193.1890  170.0650  142.8090 C   0  0  0  0  0  1  0  0  0  0  0  0
  190.2030  173.1200  136.5770 C   0  0  0  0  0  2  0  0  0  0  0  0
  191.6440  172.9270  138.9010 C   0  0  0  0  0  2  0  0  0  0  0  0
  194.4630  169.9510  136.6800 N   0  0  2  0  0  0  0  0  0  0  0  0
  192.7590  170.8560  138.1070 N   0  0  2  0  0  0  0  0  0  0  0  0
  195.0200  170.0850  138.0120 C   0  0  0  0  0  2  0  0  0  0  0  0
  194.0620  170.9740  138.7600 C   0  0  0  0  0  2  0  0  0  0  0  0
  193.0070  170.0500  136.9050 C   0  0  2  0  0  3  0  0  0  0  0  0
  196.7570  169.1860  134.6380 C   0  0  0  0  0  2  0  0  0  0  0  0
  195.2710  168.9270  134.6110 C   0  0  0  0  0  2  0  0  0  0  0  0
  197.3060  168.4650  135.7750 N   0  0  0  0  0  2  0  0  0  0  0  0
  196.1970  168.1920  136.6840 C   0  0  0  0  0  2  0  0  0  0  0  0
  194.9010  168.6900  136.0550 C   0  0  1  0  0  3  0  0  0  0  0  0
  192.2450  168.7090  136.9920 C   0  0  0  0  0  2  0  0  0  0  0  0
  191.3490  168.5920  138.2210 C   0  0  0  0  0  2  0  0  0  0  0  0
  190.0420  168.9540  137.8980 O   0  0  0  0  0  1  0  0  0  0  0  0
  191.1370  176.3000  143.5020 N   0  0  0  0  0  2  0  0  0  0  0  0
  190.3520  177.1480  144.7920 S   0  0  0  0  0  0  0  0  0  0  0  0
  190.5390  178.6270  144.5900 O   0  0  0  0  0  0  0  0  0  0  0  0
  190.9760  176.7470  146.1010 O   0  0  0  0  0  0  0  0  0  0  0  0
  187.9310  177.9130  144.2600 C   0  0  0  0  0  2  0  0  0  0  0  0
  188.6600  176.7600  144.8090 N   0  0  0  0  0  0  0  0  0  0  0  0
  185.5600  177.4210  147.0490 C   0  0  0  0  0  3  0  0  0  0  0  0
  188.1730  176.4940  146.5100 S   0  0  0  0  0  0  0  0  0  0  0  0
  186.6830  177.3980  146.2210 C   0  0  0  0  0  0  0  0  0  0  0  0
  184.4800  178.1660  146.6740 N   0  0  0  0  0  0  0  0  0  0  0  0
  185.5880  178.8500  144.6570 C   0  0  0  0  0  3  0  0  0  0  0  0
  186.6880  178.0840  145.0410 C   0  0  0  0  0  0  0  0  0  0  0  0
  184.4730  178.8780  145.5100 C   0  0  0  0  0  3  0  0  0  0  0  0
  1 22  1  6  0  0  0
  1  8  1  0  0  0  0
  1 11  1  0  0  0  0
  2 15  1  0  0  0  0
  3 10  1  0  0  0  0
  3  7  1  0  0  0  0
  4  2  1  0  0  0  0
  5  7  1  0  0  0  0
  5  4  1  0  0  0  0
  6  3  1  0  0  0  0
  7 17  1  0  0  0  0
  8 12  2  0  0  0  0
  9  4  1  0  0  0  0
 10 18  1  0  0  0  0
 10 20  1  0  0  0  0
 11  6  1  0  0  0  0
 12 16  1  0  0  0  0
 12  6  1  0  0  0  0
 13 25  1  0  0  0  0
 13 23  1  0  0  0  0
 14 22  1  0  0  0  0
 14 13  1  0  0  0  0
 16 19  1  0  0  0  0
 17 20  1  0  0  0  0
 17 15  1  0  0  0  0
 19 18  1  0  0  0  0
 20 37  1  0  0  0  0
 21  4  1  0  0  0  0
 23 11  1  0  0  0  0
 24 28  1  0  0  0  0
 24 26  1  0  0  0  0
 25 27  1  0  0  0  0
 26 27  1  0  0  0  0
 28 34  1  0  0  0  0
 28 25  1  0  0  0  0
 29 31  1  0  0  0  0
 30 29  1  0  0  0  0
 30 33  1  0  0  0  0
 31 32  1  0  0  0  0
 33 24  1  0  0  0  0
 33 32  1  0  0  0  0
 34 35  1  0  0  0  0
 36 35  1  0  0  0  0
 37 38  1  0  0  0  0
 38 42  1  0  0  0  0
 38 40  2  0  0  0  0
 39 38  2  0  0  0  0
 41 42  1  0  0  0  0
 41 48  1  0  0  0  0
 42 44  1  0  0  0  0
 45 44  1  0  0  0  0
 45 43  2  0  0  0  0
 46 43  1  0  0  0  0
 47 48  2  0  0  0  0
 47 49  1  0  0  0  0
 48 45  1  0  0  0  0
 49 46  2  0  0  0  0
M  END
>  <MODEL>
8

>  <REMARK>
 VINA RESULT:      -7.0      2.829      3.737
  Name = 
  7 active torsions:
  status: ('A' for Active; 'I' for Inactive)
    1  A    between atoms: N_1  and  C_38
    2  A    between atoms: C_2  and  C_39
    3  A    between atoms: N_6  and  C_29
    4  A    between atoms: S_7  and  N_9
    5  A    between atoms: S_7  and  N_15
    6  A    between atoms: N_15  and  C_42
    7  A    between atoms: C_32  and  C_39
                            x       y       z     vdW  Elec       q    Type
                         _______ _______ _______ _____ _____    ______ ____

>  <TORSDO>
F 7

$$$$
=
 OpenBabel11062420243D

 49 57  0  0  1  0  0  0  0  0999 V2000
  191.1640  175.4020  145.4450 C   0  0  2  0  0  3  0  0  0  0  0  0
  191.5070  171.9170  139.1070 C   0  0  0  0  0  2  0  0  0  0  0  0
  192.9970  173.7000  142.6590 C   0  0  2  0  0  3  0  0  0  0  0  0
  190.9020  173.3120  139.3890 C   0  0  1  0  0  0  0  0  0  0  0  0
  191.1570  173.8030  140.8320 C   0  0  0  0  0  2  0  0  0  0  0  0
  192.1670  173.7560  143.9690 C   0  0  2  0  0  3  0  0  0  0  0  0
  192.2740  173.0220  141.5190 C   0  0  1  0  0  3  0  0  0  0  0  0
  192.4470  174.9640  145.9550 N   0  0  0  0  0  0  0  0  0  0  0  0
  191.4470  174.2350  138.4960 O   0  0  0  0  0  1  0  0  0  0  0  0
  194.3030  173.0100  142.7640 N   0  0  1  0  0  0  0  0  0  0  0  0
  191.0840  174.8560  144.0030 C   0  0  2  0  0  3  0  0  0  0  0  0
  192.9760  174.0770  145.1860 C   0  0  0  0  0  0  0  0  0  0  0  0
  190.2450  177.0990  143.1320 C   0  0  1  0  0  3  0  0  0  0  0  0
  189.9510  177.4250  144.6160 C   0  0  0  0  0  2  0  0  0  0  0  0
  192.9930  171.7790  139.5110 C   0  0  0  0  0  2  0  0  0  0  0  0
  194.2160  173.4490  145.5330 N   0  0  0  0  0  2  0  0  0  0  0  0
  193.3890  172.8240  140.5490 C   0  0  2  0  0  3  0  0  0  0  0  0
  194.1930  171.8400  143.6300 C   0  0  0  0  0  2  0  0  0  0  0  0
  194.6850  172.1560  145.0380 C   0  0  0  0  0  2  0  0  0  0  0  0
  194.5730  172.4750  141.4230 C   0  0  1  0  0  3  0  0  0  0  0  0
  189.4070  173.2440  139.1630 C   0  0  0  0  0  1  0  0  0  0  0  0
  191.0410  176.9240  145.5560 C   0  0  0  0  0  2  0  0  0  0  0  0
  191.3120  175.9940  142.9920 C   0  0  0  0  0  2  0  0  0  0  0  0
  187.0180  177.6500  143.3870 N   0  0  2  0  0  0  0  0  0  0  0  0
  189.0120  176.7320  142.4180 N   0  0  2  0  0  0  0  0  0  0  0  0
  187.1480  178.1820  142.0440 C   0  0  0  0  0  2  0  0  0  0  0  0
  188.5630  177.8770  141.6280 C   0  0  0  0  0  2  0  0  0  0  0  0
  187.9380  176.4940  143.3900 C   0  0  2  0  0  3  0  0  0  0  0  0
  184.7610  178.9870  145.1570 C   0  0  0  0  0  2  0  0  0  0  0  0
  185.3100  177.5830  145.1360 C   0  0  0  0  0  2  0  0  0  0  0  0
  184.1210  179.2250  143.8720 N   0  0  0  0  0  2  0  0  0  0  0  0
  184.6640  178.2450  142.9370 C   0  0  0  0  0  2  0  0  0  0  0  0
  185.6130  177.3150  143.6820 C   0  0  1  0  0  3  0  0  0  0  0  0
  187.2870  175.1140  143.1430 C   0  0  0  0  0  2  0  0  0  0  0  0
  188.1010  174.2090  142.2250 C   0  0  0  0  0  2  0  0  0  0  0  0
  187.4030  173.0280  141.9740 O   0  0  0  0  0  1  0  0  0  0  0  0
  195.7760  173.0890  140.8860 N   0  0  0  0  0  2  0  0  0  0  0  0
  196.8820  171.8160  140.4910 S   0  0  0  0  0  0  0  0  0  0  0  0
  196.1000  170.6020  140.0680 O   0  0  0  0  0  0  0  0  0  0  0  0
  197.7010  171.4760  141.7060 O   0  0  0  0  0  0  0  0  0  0  0  0
  197.6230  173.7300  138.9050 C   0  0  0  0  0  2  0  0  0  0  0  0
  197.9310  172.3240  139.2040 N   0  0  0  0  0  0  0  0  0  0  0  0
  197.7880  172.7480  135.3490 C   0  0  0  0  0  3  0  0  0  0  0  0
  197.5760  171.3120  137.7720 S   0  0  0  0  0  0  0  0  0  0  0  0
  197.6810  172.7420  136.7400 C   0  0  0  0  0  0  0  0  0  0  0  0
  197.8710  173.9440  134.6990 N   0  0  0  0  0  0  0  0  0  0  0  0
  197.7730  175.1380  136.7790 C   0  0  0  0  0  3  0  0  0  0  0  0
  197.6920  173.9130  137.4400 C   0  0  0  0  0  0  0  0  0  0  0  0
  197.8610  175.1280  135.3780 C   0  0  0  0  0  3  0  0  0  0  0  0
  1 22  1  6  0  0  0
  1  8  1  0  0  0  0
  2  4  1  0  0  0  0
  2 15  1  0  0  0  0
  3 10  1  0  0  0  0
  3  6  1  0  0  0  0
  4  5  1  0  0  0  0
  5  7  1  0  0  0  0
  6 11  1  0  0  0  0
  6 12  1  0  0  0  0
  7  3  1  0  0  0  0
  9  4  1  0  0  0  0
 10 18  1  0  0  0  0
 11  1  1  0  0  0  0
 12 16  1  0  0  0  0
 12  8  2  0  0  0  0
 13 14  1  0  0  0  0
 14 22  1  0  0  0  0
 15 17  1  0  0  0  0
 17 20  1  0  0  0  0
 17  7  1  0  0  0  0
 18 19  1  0  0  0  0
 19 16  1  0  0  0  0
 20 10  1  0  0  0  0
 21  4  1  0  0  0  0
 23 13  1  0  0  0  0
 23 11  1  0  0  0  0
 24 28  1  0  0  0  0
 24 33  1  0  0  0  0
 25 13  1  0  0  0  0
 25 28  1  0  0  0  0
 26 24  1  0  0  0  0
 27 26  1  0  0  0  0
 27 25  1  0  0  0  0
 30 29  1  0  0  0  0
 31 29  1  0  0  0  0
 32 33  1  0  0  0  0
 32 31  1  0  0  0  0
 33 30  1  0  0  0  0
 34 28  1  0  0  0  0
 35 34  1  0  0  0  0
 36 35  1  0  0  0  0
 37 20  1  0  0  0  0
 38 37  1  0  0  0  0
 38 40  2  0  0  0  0
 39 38  2  0  0  0  0
 41 42  1  0  0  0  0
 42 38  1  0  0  0  0
 43 45  1  0  0  0  0
 44 42  1  0  0  0  0
 45 48  2  0  0  0  0
 45 44  1  0  0  0  0
 46 43  2  0  0  0  0
 46 49  1  0  0  0  0
 47 48  1  0  0  0  0
 48 41  1  0  0  0  0
 49 47  2  0  0  0  0
M  END
>  <MODEL>
9

>  <REMARK>
 VINA RESULT:      -7.0      3.539     10.476
  Name = 
  7 active torsions:
  status: ('A' for Active; 'I' for Inactive)
    1  A    between atoms: N_1  and  C_38
    2  A    between atoms: C_2  and  C_39
    3  A    between atoms: N_6  and  C_29
    4  A    between atoms: S_7  and  N_9
    5  A    between atoms: S_7  and  N_15
    6  A    between atoms: N_15  and  C_42
    7  A    between atoms: C_32  and  C_39
                            x       y       z     vdW  Elec       q    Type
                         _______ _______ _______ _____ _____    ______ ____

>  <TORSDO>
F 7

$$$$
