=
 OpenBabel11062420493D

 50 56  0  0  1  0  0  0  0  0999 V2000
  188.1730  172.5450  141.5860 N   0  0  0  0  0  0  0  0  0  0  0  0
  188.5380  172.9180  142.9220 C   0  0  0  0  0  3  0  0  0  0  0  0
  189.5370  173.7710  143.1500 C   0  0  0  0  0  0  0  0  0  0  0  0
  190.3880  174.2200  141.9880 C   0  0  0  0  0  2  0  0  0  0  0  0
  189.5680  174.3340  140.7040 C   0  0  0  0  0  2  0  0  0  0  0  0
  188.6500  173.1540  140.5350 C   0  0  0  0  0  0  0  0  0  0  0  0
  188.1830  172.8390  139.2560 O   0  0  0  0  0  0  0  0  0  0  0  0
  189.0700  172.5910  138.1700 C   0  0  0  0  0  2  0  0  0  0  0  0
  189.8620  171.3150  138.4440 C   0  0  0  0  0  2  0  0  0  0  0  0
  191.3710  171.5150  138.3250 C   0  0  0  0  0  2  0  0  0  0  0  0
  192.1360  170.9050  139.4530 C   0  0  0  0  0  0  0  0  0  0  0  0
  193.0870  170.1160  139.1910 O   0  0  0  0  0  0  0  0  0  0  0  0
  191.8260  171.2440  140.8120 N   0  0  0  0  0  2  0  0  0  0  0  0
  193.0830  171.9210  143.8590 C   0  0  0  0  0  0  0  0  0  0  0  0
  193.1280  172.7190  145.0010 C   0  0  0  0  0  3  0  0  0  0  0  0
  194.1930  171.7180  143.0890 C   0  0  0  0  0  0  0  0  0  0  0  0
  195.4990  173.1080  144.5450 C   0  0  0  0  0  0  0  0  0  0  0  0
  191.9130  171.2150  143.2840 C   0  0  0  0  0  2  0  0  0  0  0  0
  192.2900  169.2480  141.9450 O   0  0  0  0  0  1  0  0  0  0  0  0
  193.9090  170.9310  141.9510 N   0  0  0  0  0  2  0  0  0  0  0  0
  195.4230  172.3010  143.3970 C   0  0  0  0  0  3  0  0  0  0  0  0
  192.4770  170.6280  141.9690 C   0  0  1  0  0  0  0  0  0  0  0  0
  194.3540  173.3200  145.3400 C   0  0  0  0  0  3  0  0  0  0  0  0
  197.0060  173.9940  144.8980 S   0  0  0  0  0  0  0  0  0  0  0  0
  197.0730  174.8140  143.2800 C   0  0  0  0  0  2  0  0  0  0  0  0
  196.0510  175.9410  143.3090 C   0  0  0  0  0  2  0  0  0  0  0  0
  196.0580  175.8270  140.8830 O   0  0  0  0  0  0  0  0  0  0  0  0
  196.0370  176.7050  141.9870 C   0  0  1  0  0  3  0  0  0  0  0  0
  194.8150  176.4370  141.1550 C   0  0  2  0  0  3  0  0  0  0  0  0
  193.8650  175.3510  141.6410 C   0  0  0  0  0  2  0  0  0  0  0  0
  193.6600  174.3180  140.5480 C   0  0  0  0  0  1  0  0  0  0  0  0
  189.6590  174.3570  144.5340 C   0  0  0  0  0  2  0  0  0  0  0  0
  191.0710  178.0280  143.1360 C   0  0  0  0  0  2  0  0  0  0  0  0
  189.9950  175.8660  144.6000 C   0  0  2  0  0  0  0  0  0  0  0  0
  191.4560  176.0720  144.7070 C   0  0  2  0  0  3  0  0  0  0  0  0
  189.8130  178.1410  143.7380 O   0  0  0  0  0  0  0  0  0  0  0  0
  190.5800  176.4390  145.8420 N   0  0  2  0  0  0  0  0  0  0  0  0
  192.0310  177.3780  144.1230 C   0  0  0  0  0  2  0  0  0  0  0  0
  189.2570  176.8570  143.6490 C   0  0  2  0  0  3  0  0  0  0  0  0
  191.1950  176.1690  148.1580 C   0  0  0  0  0  2  0  0  0  0  0  0
  192.2230  175.4060  147.3550 C   0  0  0  0  0  2  0  0  0  0  0  0
  190.7780  175.4370  146.8920 C   0  0  0  0  0  3  0  0  0  0  0  0
  187.7410  176.8750  143.8790 C   0  0  2  0  0  3  0  0  0  0  0  0
  187.5790  177.5420  141.5540 O   0  0  0  0  0  1  0  0  0  0  0  0
  185.5170  177.1720  142.7160 C   0  0  0  0  0  1  0  0  0  0  0  0
  186.9720  176.7810  142.5540 C   0  0  2  0  0  3  0  0  0  0  0  0
  187.1750  177.9640  144.8250 C   0  0  0  0  0  2  0  0  0  0  0  0
  185.6950  178.0620  146.7210 O   0  0  0  0  0  0  0  0  0  0  0  0
  187.2660  176.4000  146.7610 O   0  0  0  0  0  1  0  0  0  0  0  0
  186.6800  177.5090  146.1660 C   0  0  0  0  0  0  0  0  0  0  0  0
  1  2  1  0  0  0  0
  2  3  2  0  0  0  0
  3 32  1  0  0  0  0
  4  3  1  0  0  0  0
  5  4  1  0  0  0  0
  6  5  1  0  0  0  0
  6  1  2  0  0  0  0
  7  6  1  0  0  0  0
  8  9  1  0  0  0  0
  8  7  1  0  0  0  0
 10  9  1  0  0  0  0
 10 11  1  0  0  0  0
 11 13  1  0  0  0  0
 12 11  2  0  0  0  0
 13 22  1  0  0  0  0
 14 15  1  0  0  0  0
 15 23  2  0  0  0  0
 16 21  1  0  0  0  0
 16 14  2  0  0  0  0
 17 24  1  0  0  0  0
 17 23  1  0  0  0  0
 18 14  1  0  0  0  0
 20 22  1  0  0  0  0
 20 16  1  0  0  0  0
 21 17  2  0  0  0  0
 22 19  1  6  0  0  0
 22 18  1  0  0  0  0
 25 26  1  0  0  0  0
 25 24  1  0  0  0  0
 27 29  1  0  0  0  0
 27 28  1  0  0  0  0
 28 26  1  1  0  0  0
 29 30  1  1  0  0  0
 29 28  1  0  0  0  0
 31 30  1  0  0  0  0
 33 36  1  0  0  0  0
 33 38  1  0  0  0  0
 34 32  1  1  0  0  0
 34 35  1  0  0  0  0
 34 37  1  0  0  0  0
 35 38  1  6  0  0  0
 35 37  1  0  0  0  0
 37 42  1  1  0  0  0
 39 36  1  0  0  0  0
 39 43  1  1  0  0  0
 39 34  1  0  0  0  0
 41 40  1  0  0  0  0
 42 41  1  0  0  0  0
 42 40  1  0  0  0  0
 43 47  1  6  0  0  0
 44 46  1  0  0  0  0
 46 45  1  1  0  0  0
 46 43  1  0  0  0  0
 47 50  1  0  0  0  0
 50 48  2  0  0  0  0
 50 49  1  0  0  0  0
M  END
>  <MODEL>
1

>  <REMARK>
 VINA RESULT:      -5.9      0.000      0.000
  Name = 
  18 active torsions:
  status: ('A' for Active; 'I' for Inactive)
    1  A    between atoms: C_2  and  C_26
    2  A    between atoms: C_2  and  C_32
    3  A    between atoms: C_2  and  C_47
    4  A    between atoms: C_5  and  C_49
    5  A    between atoms: C_6  and  C_17
    6  A    between atoms: C_6  and  C_35
    7  A    between atoms: C_7  and  C_17
    8  A    between atoms: C_7  and  O_50
    9  A    between atoms: C_10  and  S_31
   10  A    between atoms: C_15  and  C_27
   11  A    between atoms: C_19  and  C_20
   12  A    between atoms: C_24  and  C_49
   13  A    between atoms: C_27  and  C_34
   14  A    between atoms: S_31  and  C_34
   15  A    between atoms: C_32  and  C_36
   16  A    between atoms: N_41  and  C_44
   17  A    between atoms: N_42  and  C_45
   18  A    between atoms: C_43  and  O_50
                            x       y       z     vdW  Elec       q    Type
                         _______ _______ _______ _____ _____    ______ ____

>  <TORSDO>
F 18

$$$$
=
 OpenBabel11062420493D

 50 56  0  0  1  0  0  0  0  0999 V2000
  189.3160  172.1660  141.8340 N   0  0  0  0  0  0  0  0  0  0  0  0
  189.4820  172.6760  143.1640 C   0  0  0  0  0  3  0  0  0  0  0  0
  190.4530  173.5440  143.4520 C   0  0  0  0  0  0  0  0  0  0  0  0
  191.4790  173.8630  142.3930 C   0  0  0  0  0  2  0  0  0  0  0  0
  190.8650  173.8440  140.9940 C   0  0  0  0  0  2  0  0  0  0  0  0
  189.9590  172.6570  140.8100 C   0  0  0  0  0  0  0  0  0  0  0  0
  189.6840  172.2110  139.5150 O   0  0  0  0  0  0  0  0  0  0  0  0
  188.4480  172.4980  138.8670 C   0  0  0  0  0  2  0  0  0  0  0  0
  188.4380  173.9570  138.4200 C   0  0  0  0  0  2  0  0  0  0  0  0
  188.9350  174.1450  136.9880 C   0  0  0  0  0  2  0  0  0  0  0  0
  190.3210  173.6330  136.7750 C   0  0  0  0  0  0  0  0  0  0  0  0
  190.4970  172.6490  136.0040 O   0  0  0  0  0  0  0  0  0  0  0  0
  191.4410  174.2760  137.4000 N   0  0  0  0  0  2  0  0  0  0  0  0
  193.9750  173.0140  139.2190 C   0  0  0  0  0  0  0  0  0  0  0  0
  194.4370  172.3340  140.3440 C   0  0  0  0  0  3  0  0  0  0  0  0
  194.3780  174.2900  138.9420 C   0  0  0  0  0  0  0  0  0  0  0  0
  195.7490  174.3180  140.9110 C   0  0  0  0  0  0  0  0  0  0  0  0
  193.0120  172.5390  138.1970 C   0  0  0  0  0  2  0  0  0  0  0  0
  193.1200  173.4750  135.9800 O   0  0  0  0  0  1  0  0  0  0  0  0
  193.7430  174.8080  137.7930 N   0  0  0  0  0  2  0  0  0  0  0  0
  195.2650  174.9810  139.7710 C   0  0  0  0  0  3  0  0  0  0  0  0
  192.8160  173.7860  137.3030 C   0  0  1  0  0  0  0  0  0  0  0  0
  195.3330  173.0020  141.1990 C   0  0  0  0  0  3  0  0  0  0  0  0
  196.7640  175.2070  142.0790 S   0  0  0  0  0  0  0  0  0  0  0  0
  195.4140  176.2720  142.6590 C   0  0  0  0  0  2  0  0  0  0  0  0
  194.9010  175.6720  143.9610 C   0  0  0  0  0  2  0  0  0  0  0  0
  195.7750  174.8280  146.0650 O   0  0  0  0  0  0  0  0  0  0  0  0
  195.9970  174.8810  144.6720 C   0  0  1  0  0  3  0  0  0  0  0  0
  195.4910  173.6420  145.3550 C   0  0  2  0  0  3  0  0  0  0  0  0
  193.9830  173.4320  145.3910 C   0  0  0  0  0  2  0  0  0  0  0  0
  193.6600  171.9730  145.1240 C   0  0  0  0  0  1  0  0  0  0  0  0
  190.3770  174.2730  144.7690 C   0  0  0  0  0  2  0  0  0  0  0  0
  190.5550  178.0250  142.9500 C   0  0  0  0  0  2  0  0  0  0  0  0
  190.2660  175.8130  144.6820 C   0  0  2  0  0  0  0  0  0  0  0  0
  191.6090  176.4310  144.6210 C   0  0  2  0  0  3  0  0  0  0  0  0
  189.3690  177.8430  143.6680 O   0  0  0  0  0  0  0  0  0  0  0  0
  190.7550  176.6540  145.8080 N   0  0  2  0  0  0  0  0  0  0  0  0
  191.7350  177.7780  143.8800 C   0  0  0  0  0  2  0  0  0  0  0  0
  189.2030  176.4530  143.7390 C   0  0  2  0  0  3  0  0  0  0  0  0
  191.3350  176.7430  148.1470 C   0  0  0  0  0  2  0  0  0  0  0  0
  192.6190  176.4590  147.4030 C   0  0  0  0  0  2  0  0  0  0  0  0
  191.3140  175.8640  146.9070 C   0  0  0  0  0  3  0  0  0  0  0  0
  187.7680  176.0680  144.1220 C   0  0  2  0  0  3  0  0  0  0  0  0
  187.7220  175.4070  141.7910 O   0  0  0  0  0  1  0  0  0  0  0  0
  185.9880  176.8870  142.5270 C   0  0  0  0  0  1  0  0  0  0  0  0
  186.9230  175.7490  142.8820 C   0  0  2  0  0  3  0  0  0  0  0  0
  187.0300  176.9830  145.1320 C   0  0  0  0  0  2  0  0  0  0  0  0
  187.6620  175.7590  147.1060 O   0  0  0  0  0  0  0  0  0  0  0  0
  187.6610  178.0380  147.2970 O   0  0  0  0  0  1  0  0  0  0  0  0
  187.4390  176.8760  146.5710 C   0  0  0  0  0  0  0  0  0  0  0  0
  1  2  1  0  0  0  0
  2  3  2  0  0  0  0
  3 32  1  0  0  0  0
  4  3  1  0  0  0  0
  5  4  1  0  0  0  0
  6  5  1  0  0  0  0
  6  1  2  0  0  0  0
  7  6  1  0  0  0  0
  8  7  1  0  0  0  0
  9  8  1  0  0  0  0
 10  9  1  0  0  0  0
 11 10  1  0  0  0  0
 11 13  1  0  0  0  0
 12 11  2  0  0  0  0
 14 15  1  0  0  0  0
 15 23  2  0  0  0  0
 16 14  2  0  0  0  0
 16 21  1  0  0  0  0
 17 23  1  0  0  0  0
 17 24  1  0  0  0  0
 18 14  1  0  0  0  0
 20 16  1  0  0  0  0
 21 17  2  0  0  0  0
 22 19  1  6  0  0  0
 22 13  1  0  0  0  0
 22 20  1  0  0  0  0
 22 18  1  0  0  0  0
 24 25  1  0  0  0  0
 25 26  1  0  0  0  0
 28 26  1  6  0  0  0
 28 29  1  0  0  0  0
 28 27  1  0  0  0  0
 29 30  1  6  0  0  0
 29 27  1  0  0  0  0
 31 30  1  0  0  0  0
 33 36  1  0  0  0  0
 33 38  1  0  0  0  0
 34 32  1  1  0  0  0
 34 37  1  0  0  0  0
 35 38  1  6  0  0  0
 35 34  1  0  0  0  0
 35 37  1  0  0  0  0
 36 39  1  0  0  0  0
 37 42  1  1  0  0  0
 39 43  1  1  0  0  0
 39 34  1  0  0  0  0
 41 40  1  0  0  0  0
 42 41  1  0  0  0  0
 42 40  1  0  0  0  0
 43 47  1  6  0  0  0
 44 46  1  0  0  0  0
 46 45  1  6  0  0  0
 46 43  1  0  0  0  0
 47 50  1  0  0  0  0
 50 48  2  0  0  0  0
 50 49  1  0  0  0  0
M  END
>  <MODEL>
2

>  <REMARK>
 VINA RESULT:      -5.7      2.026      3.227
  Name = 
  18 active torsions:
  status: ('A' for Active; 'I' for Inactive)
    1  A    between atoms: C_2  and  C_26
    2  A    between atoms: C_2  and  C_32
    3  A    between atoms: C_2  and  C_47
    4  A    between atoms: C_5  and  C_49
    5  A    between atoms: C_6  and  C_17
    6  A    between atoms: C_6  and  C_35
    7  A    between atoms: C_7  and  C_17
    8  A    between atoms: C_7  and  O_50
    9  A    between atoms: C_10  and  S_31
   10  A    between atoms: C_15  and  C_27
   11  A    between atoms: C_19  and  C_20
   12  A    between atoms: C_24  and  C_49
   13  A    between atoms: C_27  and  C_34
   14  A    between atoms: S_31  and  C_34
   15  A    between atoms: C_32  and  C_36
   16  A    between atoms: N_41  and  C_44
   17  A    between atoms: N_42  and  C_45
   18  A    between atoms: C_43  and  O_50
                            x       y       z     vdW  Elec       q    Type
                         _______ _______ _______ _____ _____    ______ ____

>  <TORSDO>
F 18

$$$$
=
 OpenBabel11062420493D

 50 56  0  0  1  0  0  0  0  0999 V2000
  190.1210  171.7490  141.7000 N   0  0  0  0  0  0  0  0  0  0  0  0
  190.0270  172.4670  142.9390 C   0  0  0  0  0  3  0  0  0  0  0  0
  189.7620  173.7740  142.9580 C   0  0  0  0  0  0  0  0  0  0  0  0
  189.7190  174.5250  141.6500 C   0  0  0  0  0  2  0  0  0  0  0  0
  189.1710  173.6540  140.5220 C   0  0  0  0  0  2  0  0  0  0  0  0
  189.7650  172.2730  140.5590 C   0  0  0  0  0  0  0  0  0  0  0  0
  189.7620  171.5040  139.3930 O   0  0  0  0  0  0  0  0  0  0  0  0
  190.6160  170.3750  139.2320 C   0  0  0  0  0  2  0  0  0  0  0  0
  192.0040  170.8470  138.8070 C   0  0  0  0  0  2  0  0  0  0  0  0
  191.9890  171.6410  137.5020 C   0  0  0  0  0  2  0  0  0  0  0  0
  192.5630  173.0120  137.6400 C   0  0  0  0  0  0  0  0  0  0  0  0
  191.7790  173.9890  137.8020 O   0  0  0  0  0  0  0  0  0  0  0  0
  193.9840  173.2130  137.6350 N   0  0  0  0  0  2  0  0  0  0  0  0
  196.4590  174.9460  139.1150 C   0  0  0  0  0  0  0  0  0  0  0  0
  197.6900  174.9820  139.7680 C   0  0  0  0  0  3  0  0  0  0  0  0
  195.3270  175.4330  139.7030 C   0  0  0  0  0  0  0  0  0  0  0  0
  196.5660  176.0350  141.6670 C   0  0  0  0  0  0  0  0  0  0  0  0
  196.1530  174.3920  137.7740 C   0  0  0  0  0  2  0  0  0  0  0  0
  194.2680  175.2720  136.5600 O   0  0  0  0  0  1  0  0  0  0  0  0
  194.1860  175.2400  138.8930 N   0  0  0  0  0  2  0  0  0  0  0  0
  195.3380  175.9830  140.9860 C   0  0  0  0  0  3  0  0  0  0  0  0
  194.6160  174.5310  137.6860 C   0  0  1  0  0  0  0  0  0  0  0  0
  197.7360  175.5320  141.0620 C   0  0  0  0  0  3  0  0  0  0  0  0
  196.6070  176.5900  143.3620 S   0  0  0  0  0  0  0  0  0  0  0  0
  195.0910  175.7140  143.8370 C   0  0  0  0  0  2  0  0  0  0  0  0
  195.4990  174.3050  144.2440 C   0  0  0  0  0  2  0  0  0  0  0  0
  193.5780  173.4720  143.0110 O   0  0  0  0  0  0  0  0  0  0  0  0
  194.3020  173.3560  144.2170 C   0  0  1  0  0  3  0  0  0  0  0  0
  194.3850  172.3210  143.1320 C   0  0  2  0  0  3  0  0  0  0  0  0
  195.5260  172.4490  142.1310 C   0  0  0  0  0  2  0  0  0  0  0  0
  195.1020  171.8770  140.7910 C   0  0  0  0  0  1  0  0  0  0  0  0
  189.3680  174.3910  144.2750 C   0  0  0  0  0  2  0  0  0  0  0  0
  190.7160  178.1840  143.1720 C   0  0  0  0  0  2  0  0  0  0  0  0
  189.8090  175.8580  144.4920 C   0  0  2  0  0  0  0  0  0  0  0  0
  191.2730  175.9930  144.3260 C   0  0  2  0  0  3  0  0  0  0  0  0
  189.6120  178.2450  144.0290 O   0  0  0  0  0  0  0  0  0  0  0  0
  190.6640  176.2080  145.6580 N   0  0  2  0  0  0  0  0  0  0  0  0
  191.8060  177.3540  143.8350 C   0  0  0  0  0  2  0  0  0  0  0  0
  188.9660  177.0110  143.8690 C   0  0  2  0  0  3  0  0  0  0  0  0
  191.3280  175.5540  147.8820 C   0  0  0  0  0  2  0  0  0  0  0  0
  192.4400  175.1080  146.9590 C   0  0  0  0  0  2  0  0  0  0  0  0
  190.9990  175.0470  146.4860 C   0  0  0  0  0  3  0  0  0  0  0  0
  187.5280  177.0460  144.4040 C   0  0  2  0  0  3  0  0  0  0  0  0
  185.2150  177.1470  143.6870 O   0  0  0  0  0  1  0  0  0  0  0  0
  186.8550  176.7440  141.9880 C   0  0  0  0  0  1  0  0  0  0  0  0
  186.5280  177.4210  143.3030 C   0  0  2  0  0  3  0  0  0  0  0  0
  187.2790  177.8120  145.7280 C   0  0  0  0  0  2  0  0  0  0  0  0
  187.5970  175.9070  147.1650 O   0  0  0  0  0  0  0  0  0  0  0  0
  186.0960  177.4720  147.8920 O   0  0  0  0  0  1  0  0  0  0  0  0
  186.9890  176.9870  146.9470 C   0  0  0  0  0  0  0  0  0  0  0  0
  1  2  1  0  0  0  0
  2  3  2  0  0  0  0
  3 32  1  0  0  0  0
  4  3  1  0  0  0  0
  5  6  1  0  0  0  0
  5  4  1  0  0  0  0
  6  1  2  0  0  0  0
  7  6  1  0  0  0  0
  8  7  1  0  0  0  0
  9  8  1  0  0  0  0
 10 11  1  0  0  0  0
 10  9  1  0  0  0  0
 11 12  2  0  0  0  0
 13 11  1  0  0  0  0
 13 22  1  0  0  0  0
 14 16  2  0  0  0  0
 14 15  1  0  0  0  0
 15 23  2  0  0  0  0
 16 21  1  0  0  0  0
 17 24  1  0  0  0  0
 18 14  1  0  0  0  0
 20 16  1  0  0  0  0
 21 17  2  0  0  0  0
 22 19  1  6  0  0  0
 22 18  1  0  0  0  0
 22 20  1  0  0  0  0
 23 17  1  0  0  0  0
 24 25  1  0  0  0  0
 25 26  1  0  0  0  0
 27 29  1  0  0  0  0
 27 28  1  0  0  0  0
 28 26  1  6  0  0  0
 29 30  1  6  0  0  0
 29 28  1  0  0  0  0
 31 30  1  0  0  0  0
 33 38  1  0  0  0  0
 33 36  1  0  0  0  0
 34 32  1  6  0  0  0
 34 37  1  0  0  0  0
 35 38  1  6  0  0  0
 35 34  1  0  0  0  0
 35 37  1  0  0  0  0
 37 42  1  1  0  0  0
 39 36  1  0  0  0  0
 39 43  1  1  0  0  0
 39 34  1  0  0  0  0
 41 40  1  0  0  0  0
 42 41  1  0  0  0  0
 42 40  1  0  0  0  0
 43 47  1  1  0  0  0
 46 45  1  6  0  0  0
 46 44  1  0  0  0  0
 46 43  1  0  0  0  0
 47 50  1  0  0  0  0
 50 48  2  0  0  0  0
 50 49  1  0  0  0  0
M  END
>  <MODEL>
3

>  <REMARK>
 VINA RESULT:      -5.5      2.060      3.428
  Name = 
  18 active torsions:
  status: ('A' for Active; 'I' for Inactive)
    1  A    between atoms: C_2  and  C_26
    2  A    between atoms: C_2  and  C_32
    3  A    between atoms: C_2  and  C_47
    4  A    between atoms: C_5  and  C_49
    5  A    between atoms: C_6  and  C_17
    6  A    between atoms: C_6  and  C_35
    7  A    between atoms: C_7  and  C_17
    8  A    between atoms: C_7  and  O_50
    9  A    between atoms: C_10  and  S_31
   10  A    between atoms: C_15  and  C_27
   11  A    between atoms: C_19  and  C_20
   12  A    between atoms: C_24  and  C_49
   13  A    between atoms: C_27  and  C_34
   14  A    between atoms: S_31  and  C_34
   15  A    between atoms: C_32  and  C_36
   16  A    between atoms: N_41  and  C_44
   17  A    between atoms: N_42  and  C_45
   18  A    between atoms: C_43  and  O_50
                            x       y       z     vdW  Elec       q    Type
                         _______ _______ _______ _____ _____    ______ ____

>  <TORSDO>
F 18

$$$$
=
 OpenBabel11062420493D

 50 56  0  0  1  0  0  0  0  0999 V2000
  189.8690  174.1250  141.4480 N   0  0  0  0  0  0  0  0  0  0  0  0
  191.1290  174.5440  141.9900 C   0  0  0  0  0  3  0  0  0  0  0  0
  192.2360  173.8240  141.7960 C   0  0  0  0  0  0  0  0  0  0  0  0
  192.1170  172.4750  141.1310 C   0  0  0  0  0  2  0  0  0  0  0  0
  191.0080  172.4650  140.0810 C   0  0  0  0  0  2  0  0  0  0  0  0
  189.7670  173.1490  140.5880 C   0  0  0  0  0  0  0  0  0  0  0  0
  188.5390  172.8470  139.9950 O   0  0  0  0  0  0  0  0  0  0  0  0
  188.3610  172.8580  138.5810 C   0  0  0  0  0  2  0  0  0  0  0  0
  188.7280  174.2360  138.0360 C   0  0  0  0  0  2  0  0  0  0  0  0
  187.5130  175.0280  137.5560 C   0  0  0  0  0  2  0  0  0  0  0  0
  187.1230  176.1290  138.4860 C   0  0  0  0  0  0  0  0  0  0  0  0
  186.6600  177.2000  138.0050 O   0  0  0  0  0  0  0  0  0  0  0  0
  187.2280  175.9550  139.9070 N   0  0  0  0  0  2  0  0  0  0  0  0
  188.5610  177.6820  142.4680 C   0  0  0  0  0  0  0  0  0  0  0  0
  189.6740  178.1710  143.1510 C   0  0  0  0  0  3  0  0  0  0  0  0
  187.6680  176.8440  143.0730 C   0  0  0  0  0  0  0  0  0  0  0  0
  188.9330  176.9090  145.1100 C   0  0  0  0  0  0  0  0  0  0  0  0
  188.1730  177.9290  141.0590 C   0  0  0  0  0  2  0  0  0  0  0  0
  185.8480  177.7650  140.4530 O   0  0  0  0  0  1  0  0  0  0  0  0
  186.6540  176.4220  142.1840 N   0  0  0  0  0  2  0  0  0  0  0  0
  187.8220  176.4280  144.3960 C   0  0  0  0  0  3  0  0  0  0  0  0
  186.9410  177.0130  140.8750 C   0  0  1  0  0  0  0  0  0  0  0  0
  189.8580  177.7720  144.4870 C   0  0  0  0  0  3  0  0  0  0  0  0
  189.2580  176.2900  146.7520 S   0  0  0  0  0  0  0  0  0  0  0  0
  187.5070  176.0560  147.1650 C   0  0  0  0  0  2  0  0  0  0  0  0
  186.8640  177.4360  147.1830 C   0  0  0  0  0  2  0  0  0  0  0  0
  184.7130  178.5590  147.2900 O   0  0  0  0  0  0  0  0  0  0  0  0
  185.3550  177.3440  146.9710 C   0  0  1  0  0  3  0  0  0  0  0  0
  184.8420  178.2780  145.9130 C   0  0  2  0  0  3  0  0  0  0  0  0
  185.8290  179.2780  145.3270 C   0  0  0  0  0  2  0  0  0  0  0  0
  185.4070  179.6550  143.9190 C   0  0  0  0  0  1  0  0  0  0  0  0
  193.5600  174.4720  142.1140 C   0  0  0  0  0  2  0  0  0  0  0  0
  192.7170  174.9670  146.1710 C   0  0  0  0  0  2  0  0  0  0  0  0
  193.8780  174.6540  143.6160 C   0  0  2  0  0  0  0  0  0  0  0  0
  193.5950  176.0410  144.0460 C   0  0  2  0  0  3  0  0  0  0  0  0
  193.6720  173.9690  145.9490 O   0  0  0  0  0  0  0  0  0  0  0  0
  194.9910  175.5500  144.0320 N   0  0  2  0  0  0  0  0  0  0  0  0
  193.1940  176.2570  145.5190 C   0  0  0  0  0  2  0  0  0  0  0  0
  193.4500  173.5500  144.6290 C   0  0  2  0  0  3  0  0  0  0  0  0
  197.0830  175.6270  142.8350 C   0  0  0  0  0  2  0  0  0  0  0  0
  196.8420  177.0250  143.3570 C   0  0  0  0  0  2  0  0  0  0  0  0
  195.6680  176.1800  142.8970 C   0  0  0  0  0  3  0  0  0  0  0  0
  194.1140  172.1970  144.3420 C   0  0  2  0  0  3  0  0  0  0  0  0
  191.7910  171.5160  144.4760 O   0  0  0  0  0  1  0  0  0  0  0  0
  193.4380  169.8040  144.7930 C   0  0  0  0  0  1  0  0  0  0  0  0
  193.0690  171.1000  144.0990 C   0  0  2  0  0  3  0  0  0  0  0  0
  195.2500  171.7440  145.2930 C   0  0  0  0  0  2  0  0  0  0  0  0
  197.1900  172.3750  144.0150 O   0  0  0  0  0  0  0  0  0  0  0  0
  197.1200  173.1330  146.1720 O   0  0  0  0  0  1  0  0  0  0  0  0
  196.5860  172.4030  145.1190 C   0  0  0  0  0  0  0  0  0  0  0  0
  1  2  1  0  0  0  0
  3  2  2  0  0  0  0
  3 32  1  0  0  0  0
  4  3  1  0  0  0  0
  5  6  1  0  0  0  0
  5  4  1  0  0  0  0
  6  1  2  0  0  0  0
  7  6  1  0  0  0  0
  8  7  1  0  0  0  0
  9  8  1  0  0  0  0
 10  9  1  0  0  0  0
 10 11  1  0  0  0  0
 11 13  1  0  0  0  0
 12 11  2  0  0  0  0
 13 22  1  0  0  0  0
 14 16  2  0  0  0  0
 14 15  1  0  0  0  0
 15 23  2  0  0  0  0
 16 21  1  0  0  0  0
 17 24  1  0  0  0  0
 18 14  1  0  0  0  0
 20 16  1  0  0  0  0
 21 17  2  0  0  0  0
 22 19  1  6  0  0  0
 22 18  1  0  0  0  0
 22 20  1  0  0  0  0
 23 17  1  0  0  0  0
 24 25  1  0  0  0  0
 25 26  1  0  0  0  0
 28 26  1  6  0  0  0
 28 27  1  0  0  0  0
 29 30  1  6  0  0  0
 29 28  1  0  0  0  0
 29 27  1  0  0  0  0
 31 30  1  0  0  0  0
 34 32  1  6  0  0  0
 34 37  1  0  0  0  0
 34 35  1  0  0  0  0
 34 39  1  0  0  0  0
 35 38  1  1  0  0  0
 36 33  1  0  0  0  0
 37 42  1  6  0  0  0
 37 35  1  0  0  0  0
 38 33  1  0  0  0  0
 39 43  1  6  0  0  0
 39 36  1  0  0  0  0
 40 42  1  0  0  0  0
 40 41  1  0  0  0  0
 42 41  1  0  0  0  0
 43 47  1  1  0  0  0
 46 43  1  0  0  0  0
 46 44  1  0  0  0  0
 46 45  1  1  0  0  0
 48 50  2  0  0  0  0
 50 47  1  0  0  0  0
 50 49  1  0  0  0  0
M  END
>  <MODEL>
4

>  <REMARK>
 VINA RESULT:      -5.5      2.713      7.748
  Name = 
  18 active torsions:
  status: ('A' for Active; 'I' for Inactive)
    1  A    between atoms: C_2  and  C_26
    2  A    between atoms: C_2  and  C_32
    3  A    between atoms: C_2  and  C_47
    4  A    between atoms: C_5  and  C_49
    5  A    between atoms: C_6  and  C_17
    6  A    between atoms: C_6  and  C_35
    7  A    between atoms: C_7  and  C_17
    8  A    between atoms: C_7  and  O_50
    9  A    between atoms: C_10  and  S_31
   10  A    between atoms: C_15  and  C_27
   11  A    between atoms: C_19  and  C_20
   12  A    between atoms: C_24  and  C_49
   13  A    between atoms: C_27  and  C_34
   14  A    between atoms: S_31  and  C_34
   15  A    between atoms: C_32  and  C_36
   16  A    between atoms: N_41  and  C_44
   17  A    between atoms: N_42  and  C_45
   18  A    between atoms: C_43  and  O_50
                            x       y       z     vdW  Elec       q    Type
                         _______ _______ _______ _____ _____    ______ ____

>  <TORSDO>
F 18

$$$$
=
 OpenBabel11062420493D

 50 56  0  0  1  0  0  0  0  0999 V2000
  193.2840  176.8800  144.8300 N   0  0  0  0  0  0  0  0  0  0  0  0
  191.9670  177.0750  144.2950 C   0  0  0  0  0  3  0  0  0  0  0  0
  191.5420  176.3770  143.2410 C   0  0  0  0  0  0  0  0  0  0  0  0
  192.5220  175.4880  142.5160 C   0  0  0  0  0  2  0  0  0  0  0  0
  193.5380  174.8730  143.4760 C   0  0  0  0  0  2  0  0  0  0  0  0
  194.0520  175.8940  144.4550 C   0  0  0  0  0  0  0  0  0  0  0  0
  195.2800  175.6690  145.0830 O   0  0  0  0  0  0  0  0  0  0  0  0
  196.3170  174.9140  144.4620 C   0  0  0  0  0  2  0  0  0  0  0  0
  197.0410  174.0850  145.5190 C   0  0  0  0  0  2  0  0  0  0  0  0
  196.3840  172.7270  145.7630 C   0  0  0  0  0  2  0  0  0  0  0  0
  196.2060  171.9280  144.5150 C   0  0  0  0  0  0  0  0  0  0  0  0
  197.2240  171.4380  143.9520 O   0  0  0  0  0  0  0  0  0  0  0  0
  194.8940  171.6810  143.9880 N   0  0  0  0  0  2  0  0  0  0  0  0
  194.1960  172.1660  140.7320 C   0  0  0  0  0  0  0  0  0  0  0  0
  194.2280  172.9690  139.5930 C   0  0  0  0  0  3  0  0  0  0  0  0
  193.0160  171.7160  141.2530 C   0  0  0  0  0  0  0  0  0  0  0  0
  191.7870  172.8440  139.5290 C   0  0  0  0  0  0  0  0  0  0  0  0
  195.3390  171.7030  141.5550 C   0  0  0  0  0  2  0  0  0  0  0  0
  195.1060  169.6650  142.8170 O   0  0  0  0  0  1  0  0  0  0  0  0
  193.2100  170.9740  142.4390 N   0  0  0  0  0  2  0  0  0  0  0  0
  191.7840  172.0390  140.6800 C   0  0  0  0  0  3  0  0  0  0  0  0
  194.6450  170.9760  142.7300 C   0  0  1  0  0  0  0  0  0  0  0  0
  193.0040  173.3120  138.9910 C   0  0  0  0  0  3  0  0  0  0  0  0
  190.2370  173.4090  138.8480 S   0  0  0  0  0  0  0  0  0  0  0  0
  189.4700  171.7650  138.8570 C   0  0  0  0  0  2  0  0  0  0  0  0
  190.1420  170.9520  137.7590 C   0  0  0  0  0  2  0  0  0  0  0  0
  190.6870  168.6950  137.0460 O   0  0  0  0  0  0  0  0  0  0  0  0
  190.1310  169.4620  138.0920 C   0  0  1  0  0  3  0  0  0  0  0  0
  191.5040  168.8610  138.1840 C   0  0  2  0  0  3  0  0  0  0  0  0
  192.6800  169.7420  137.7840 C   0  0  0  0  0  2  0  0  0  0  0  0
  193.9280  169.3040  138.5280 C   0  0  0  0  0  1  0  0  0  0  0  0
  190.0670  176.3980  142.9330 C   0  0  0  0  0  2  0  0  0  0  0  0
  188.5810  175.8890  146.8000 C   0  0  0  0  0  2  0  0  0  0  0  0
  189.1390  175.8290  144.0320 C   0  0  2  0  0  0  0  0  0  0  0  0
  189.8640  174.8510  144.8720 C   0  0  2  0  0  3  0  0  0  0  0  0
  187.5620  176.1250  145.8710 O   0  0  0  0  0  0  0  0  0  0  0  0
  188.7570  174.3910  144.0050 N   0  0  2  0  0  0  0  0  0  0  0  0
  189.4020  174.6960  146.3360 C   0  0  0  0  0  2  0  0  0  0  0  0
  188.1930  176.7920  144.8100 C   0  0  2  0  0  3  0  0  0  0  0  0
  188.2190  173.0290  142.0890 C   0  0  0  0  0  2  0  0  0  0  0  0
  189.0860  172.1760  142.9860 C   0  0  0  0  0  2  0  0  0  0  0  0
  189.3510  173.6660  142.8800 C   0  0  0  0  0  3  0  0  0  0  0  0
  187.1800  177.4910  143.8940 C   0  0  2  0  0  3  0  0  0  0  0  0
  185.0560  177.6470  145.0510 O   0  0  0  0  0  1  0  0  0  0  0  0
  185.8380  179.6310  143.9590 C   0  0  0  0  0  1  0  0  0  0  0  0
  186.2030  178.3590  144.6970 C   0  0  2  0  0  3  0  0  0  0  0  0
  186.4720  176.6250  142.8210 C   0  0  0  0  0  2  0  0  0  0  0  0
  186.2160  178.0380  140.8890 O   0  0  0  0  0  1  0  0  0  0  0  0
  187.5620  176.2080  140.6220 O   0  0  0  0  0  0  0  0  0  0  0  0
  186.7090  176.9930  141.3860 C   0  0  0  0  0  0  0  0  0  0  0  0
  2  1  1  0  0  0  0
  3  2  2  0  0  0  0
  4  3  1  0  0  0  0
  4  5  1  0  0  0  0
  5  6  1  0  0  0  0
  6  1  2  0  0  0  0
  6  7  1  0  0  0  0
  8  7  1  0  0  0  0
  8  9  1  0  0  0  0
  9 10  1  0  0  0  0
 11 10  1  0  0  0  0
 12 11  2  0  0  0  0
 13 11  1  0  0  0  0
 14 16  1  0  0  0  0
 14 18  1  0  0  0  0
 15 14  2  0  0  0  0
 16 20  1  0  0  0  0
 17 21  1  0  0  0  0
 18 22  1  0  0  0  0
 20 22  1  0  0  0  0
 21 16  2  0  0  0  0
 22 19  1  1  0  0  0
 22 13  1  0  0  0  0
 23 17  2  0  0  0  0
 23 15  1  0  0  0  0
 24 25  1  0  0  0  0
 24 17  1  0  0  0  0
 26 25  1  0  0  0  0
 27 28  1  0  0  0  0
 27 29  1  0  0  0  0
 28 26  1  6  0  0  0
 28 29  1  0  0  0  0
 29 30  1  6  0  0  0
 30 31  1  0  0  0  0
 32  3  1  0  0  0  0
 34 32  1  6  0  0  0
 34 39  1  0  0  0  0
 34 35  1  0  0  0  0
 35 38  1  1  0  0  0
 36 33  1  0  0  0  0
 37 42  1  6  0  0  0
 37 34  1  0  0  0  0
 37 35  1  0  0  0  0
 38 33  1  0  0  0  0
 39 43  1  6  0  0  0
 39 36  1  0  0  0  0
 40 42  1  0  0  0  0
 40 41  1  0  0  0  0
 42 41  1  0  0  0  0
 43 47  1  1  0  0  0
 43 46  1  0  0  0  0
 46 45  1  6  0  0  0
 46 44  1  0  0  0  0
 48 50  1  0  0  0  0
 49 50  2  0  0  0  0
 50 47  1  0  0  0  0
M  END
>  <MODEL>
5

>  <REMARK>
 VINA RESULT:      -5.2      2.403      5.981
  Name = 
  18 active torsions:
  status: ('A' for Active; 'I' for Inactive)
    1  A    between atoms: C_2  and  C_26
    2  A    between atoms: C_2  and  C_32
    3  A    between atoms: C_2  and  C_47
    4  A    between atoms: C_5  and  C_49
    5  A    between atoms: C_6  and  C_17
    6  A    between atoms: C_6  and  C_35
    7  A    between atoms: C_7  and  C_17
    8  A    between atoms: C_7  and  O_50
    9  A    between atoms: C_10  and  S_31
   10  A    between atoms: C_15  and  C_27
   11  A    between atoms: C_19  and  C_20
   12  A    between atoms: C_24  and  C_49
   13  A    between atoms: C_27  and  C_34
   14  A    between atoms: S_31  and  C_34
   15  A    between atoms: C_32  and  C_36
   16  A    between atoms: N_41  and  C_44
   17  A    between atoms: N_42  and  C_45
   18  A    between atoms: C_43  and  O_50
                            x       y       z     vdW  Elec       q    Type
                         _______ _______ _______ _____ _____    ______ ____

>  <TORSDO>
F 18

$$$$
=
 OpenBabel11062420493D

 50 56  0  0  1  0  0  0  0  0999 V2000
  189.0250  175.6360  142.2410 N   0  0  0  0  0  0  0  0  0  0  0  0
  189.6090  174.3380  142.0630 C   0  0  0  0  0  3  0  0  0  0  0  0
  190.9310  174.1660  142.1100 C   0  0  0  0  0  0  0  0  0  0  0  0
  191.8180  175.3830  142.1940 C   0  0  0  0  0  2  0  0  0  0  0  0
  191.1660  176.4960  143.0110 C   0  0  0  0  0  2  0  0  0  0  0  0
  189.7160  176.6650  142.6470 C   0  0  0  0  0  0  0  0  0  0  0  0
  189.0880  177.8830  142.9200 O   0  0  0  0  0  0  0  0  0  0  0  0
  187.6700  178.0220  142.8920 C   0  0  0  0  0  2  0  0  0  0  0  0
  187.1570  178.2660  144.3090 C   0  0  0  0  0  2  0  0  0  0  0  0
  186.5890  177.0060  144.9610 C   0  0  0  0  0  2  0  0  0  0  0  0
  187.4840  176.4320  146.0090 C   0  0  0  0  0  0  0  0  0  0  0  0
  187.1940  176.6110  147.2250 O   0  0  0  0  0  0  0  0  0  0  0  0
  188.6300  175.6500  145.6420 N   0  0  0  0  0  2  0  0  0  0  0  0
  191.8320  175.8990  146.6460 C   0  0  0  0  0  0  0  0  0  0  0  0
  193.0140  176.6290  146.7520 C   0  0  0  0  0  3  0  0  0  0  0  0
  191.7900  174.7030  145.9880 C   0  0  0  0  0  0  0  0  0  0  0  0
  194.1290  174.8640  145.4790 C   0  0  0  0  0  0  0  0  0  0  0  0
  190.4880  176.2590  147.1570 C   0  0  0  0  0  2  0  0  0  0  0  0
  188.9270  174.4930  147.6560 O   0  0  0  0  0  1  0  0  0  0  0  0
  190.4840  174.1660  145.9470 N   0  0  0  0  0  2  0  0  0  0  0  0
  192.9220  174.1510  145.3840 C   0  0  0  0  0  3  0  0  0  0  0  0
  189.5940  175.1230  146.6080 C   0  0  1  0  0  0  0  0  0  0  0  0
  194.1740  176.1010  146.1550 C   0  0  0  0  0  3  0  0  0  0  0  0
  195.5670  174.2790  144.5980 S   0  0  0  0  0  0  0  0  0  0  0  0
  196.4630  173.7870  146.0960 C   0  0  0  0  0  2  0  0  0  0  0  0
  196.7960  172.3090  145.9520 C   0  0  0  0  0  2  0  0  0  0  0  0
  196.1170  170.3930  144.6230 O   0  0  0  0  0  0  0  0  0  0  0  0
  195.6520  171.5500  145.2840 C   0  0  1  0  0  3  0  0  0  0  0  0
  195.4440  170.1710  145.8420 C   0  0  2  0  0  3  0  0  0  0  0  0
  196.4670  169.6640  146.8500 C   0  0  0  0  0  2  0  0  0  0  0  0
  195.8690  168.5350  147.6680 C   0  0  0  0  0  1  0  0  0  0  0  0
  191.4520  172.7570  142.2330 C   0  0  0  0  0  2  0  0  0  0  0  0
  192.1620  172.4790  138.1290 C   0  0  0  0  0  2  0  0  0  0  0  0
  191.9330  172.0990  140.9180 C   0  0  2  0  0  0  0  0  0  0  0  0
  190.7800  171.6680  140.0970 C   0  0  2  0  0  3  0  0  0  0  0  0
  193.2800  172.1100  138.8840 O   0  0  0  0  0  0  0  0  0  0  0  0
  191.6830  170.6510  140.6820 N   0  0  2  0  0  0  0  0  0  0  0  0
  190.9740  171.6360  138.5680 C   0  0  0  0  0  2  0  0  0  0  0  0
  193.1040  172.7480  140.1200 C   0  0  2  0  0  3  0  0  0  0  0  0
  191.9290  169.0540  142.4710 C   0  0  0  0  0  2  0  0  0  0  0  0
  190.8440  168.5140  141.5680 C   0  0  0  0  0  2  0  0  0  0  0  0
  190.9660  170.0110  141.7870 C   0  0  0  0  0  3  0  0  0  0  0  0
  194.4090  172.8000  140.9260 C   0  0  2  0  0  3  0  0  0  0  0  0
  196.6400  173.7470  140.9550 O   0  0  0  0  0  1  0  0  0  0  0  0
  195.0170  174.8500  139.5810 C   0  0  0  0  0  1  0  0  0  0  0  0
  195.5120  173.5410  140.1590 C   0  0  2  0  0  3  0  0  0  0  0  0
  194.9050  171.4780  141.5650 C   0  0  0  0  0  2  0  0  0  0  0  0
  194.8320  169.6370  140.0160 O   0  0  0  0  0  0  0  0  0  0  0  0
  196.9010  170.5260  140.4200 O   0  0  0  0  0  1  0  0  0  0  0  0
  195.5320  170.4720  140.6460 C   0  0  0  0  0  0  0  0  0  0  0  0
  1  6  2  0  0  0  0
  2  3  2  0  0  0  0
  2  1  1  0  0  0  0
  3  4  1  0  0  0  0
  3 32  1  0  0  0  0
  4  5  1  0  0  0  0
  6  7  1  0  0  0  0
  6  5  1  0  0  0  0
  8  7  1  0  0  0  0
  8  9  1  0  0  0  0
  9 10  1  0  0  0  0
 10 11  1  0  0  0  0
 11 12  2  0  0  0  0
 13 11  1  0  0  0  0
 13 22  1  0  0  0  0
 14 15  1  0  0  0  0
 14 18  1  0  0  0  0
 16 14  2  0  0  0  0
 17 23  1  0  0  0  0
 20 16  1  0  0  0  0
 20 22  1  0  0  0  0
 21 17  2  0  0  0  0
 21 16  1  0  0  0  0
 22 18  1  0  0  0  0
 22 19  1  1  0  0  0
 23 15  2  0  0  0  0
 24 17  1  0  0  0  0
 24 25  1  0  0  0  0
 26 25  1  0  0  0  0
 27 28  1  0  0  0  0
 27 29  1  0  0  0  0
 28 29  1  0  0  0  0
 28 26  1  1  0  0  0
 29 30  1  1  0  0  0
 30 31  1  0  0  0  0
 33 38  1  0  0  0  0
 33 36  1  0  0  0  0
 34 32  1  1  0  0  0
 35 38  1  6  0  0  0
 35 37  1  0  0  0  0
 35 34  1  0  0  0  0
 36 39  1  0  0  0  0
 37 34  1  0  0  0  0
 37 42  1  1  0  0  0
 39 34  1  0  0  0  0
 39 43  1  1  0  0  0
 41 42  1  0  0  0  0
 41 40  1  0  0  0  0
 42 40  1  0  0  0  0
 43 47  1  6  0  0  0
 46 45  1  1  0  0  0
 46 43  1  0  0  0  0
 46 44  1  0  0  0  0
 48 50  2  0  0  0  0
 49 50  1  0  0  0  0
 50 47  1  0  0  0  0
M  END
>  <MODEL>
6

>  <REMARK>
 VINA RESULT:      -5.2      2.173      7.554
  Name = 
  18 active torsions:
  status: ('A' for Active; 'I' for Inactive)
    1  A    between atoms: C_2  and  C_26
    2  A    between atoms: C_2  and  C_32
    3  A    between atoms: C_2  and  C_47
    4  A    between atoms: C_5  and  C_49
    5  A    between atoms: C_6  and  C_17
    6  A    between atoms: C_6  and  C_35
    7  A    between atoms: C_7  and  C_17
    8  A    between atoms: C_7  and  O_50
    9  A    between atoms: C_10  and  S_31
   10  A    between atoms: C_15  and  C_27
   11  A    between atoms: C_19  and  C_20
   12  A    between atoms: C_24  and  C_49
   13  A    between atoms: C_27  and  C_34
   14  A    between atoms: S_31  and  C_34
   15  A    between atoms: C_32  and  C_36
   16  A    between atoms: N_41  and  C_44
   17  A    between atoms: N_42  and  C_45
   18  A    between atoms: C_43  and  O_50
                            x       y       z     vdW  Elec       q    Type
                         _______ _______ _______ _____ _____    ______ ____

>  <TORSDO>
F 18

$$$$
=
 OpenBabel11062420493D

 50 56  0  0  1  0  0  0  0  0999 V2000
  189.0380  173.5870  140.4150 N   0  0  0  0  0  0  0  0  0  0  0  0
  188.7550  173.7330  141.8130 C   0  0  0  0  0  3  0  0  0  0  0  0
  189.7390  173.8500  142.7060 C   0  0  0  0  0  0  0  0  0  0  0  0
  191.1640  173.6680  142.2440 C   0  0  0  0  0  2  0  0  0  0  0  0
  191.3620  174.1850  140.8200 C   0  0  0  0  0  2  0  0  0  0  0  0
  190.2340  173.7560  139.9210 C   0  0  0  0  0  0  0  0  0  0  0  0
  190.4470  173.7200  138.5410 O   0  0  0  0  0  0  0  0  0  0  0  0
  189.3670  173.7110  137.6120 C   0  0  0  0  0  2  0  0  0  0  0  0
  189.7910  172.9690  136.3480 C   0  0  0  0  0  2  0  0  0  0  0  0
  189.3240  171.5150  136.3270 C   0  0  0  0  0  2  0  0  0  0  0  0
  190.2570  170.5870  137.0330 C   0  0  0  0  0  0  0  0  0  0  0  0
  191.1020  169.9380  136.3550 O   0  0  0  0  0  0  0  0  0  0  0  0
  190.2240  170.4680  138.4630 N   0  0  0  0  0  2  0  0  0  0  0  0
  191.8430  170.0550  141.3830 C   0  0  0  0  0  0  0  0  0  0  0  0
  192.0030  170.3620  142.7330 C   0  0  0  0  0  3  0  0  0  0  0  0
  192.8480  170.2630  140.4820 C   0  0  0  0  0  0  0  0  0  0  0  0
  194.2720  171.1140  142.2160 C   0  0  0  0  0  0  0  0  0  0  0  0
  190.6400  169.5140  140.7070 C   0  0  0  0  0  2  0  0  0  0  0  0
  190.9250  168.2440  138.6790 O   0  0  0  0  0  1  0  0  0  0  0  0
  192.4520  169.9420  139.1650 N   0  0  0  0  0  2  0  0  0  0  0  0
  194.0810  170.7980  140.8600 C   0  0  0  0  0  3  0  0  0  0  0  0
  191.0500  169.5240  139.2160 C   0  0  1  0  0  0  0  0  0  0  0  0
  193.2340  170.9020  143.1480 C   0  0  0  0  0  3  0  0  0  0  0  0
  195.7710  171.9370  142.7240 S   0  0  0  0  0  0  0  0  0  0  0  0
  195.2890  173.5470  142.0410 C   0  0  0  0  0  2  0  0  0  0  0  0
  194.6160  174.3250  143.1640 C   0  0  0  0  0  2  0  0  0  0  0  0
  194.7680  176.3320  144.5240 O   0  0  0  0  0  0  0  0  0  0  0  0
  195.3510  175.6330  143.4450 C   0  0  1  0  0  3  0  0  0  0  0  0
  195.9870  175.6800  144.8050 C   0  0  2  0  0  3  0  0  0  0  0  0
  195.6880  174.5280  145.7560 C   0  0  0  0  0  2  0  0  0  0  0  0
  196.9730  173.8020  146.1060 C   0  0  0  0  0  1  0  0  0  0  0  0
  189.3770  174.3130  144.0940 C   0  0  0  0  0  2  0  0  0  0  0  0
  190.4690  178.2530  143.2560 C   0  0  0  0  0  2  0  0  0  0  0  0
  189.6430  175.8060  144.3980 C   0  0  2  0  0  0  0  0  0  0  0  0
  191.0960  176.0840  144.4160 C   0  0  2  0  0  3  0  0  0  0  0  0
  189.2700  178.1790  143.9720 O   0  0  0  0  0  0  0  0  0  0  0  0
  190.3150  176.1930  145.6680 N   0  0  2  0  0  0  0  0  0  0  0  0
  191.5480  177.5070  144.0260 C   0  0  0  0  0  2  0  0  0  0  0  0
  188.7710  176.8960  143.7050 C   0  0  2  0  0  3  0  0  0  0  0  0
  191.1230  175.5670  147.8520 C   0  0  0  0  0  2  0  0  0  0  0  0
  192.1360  175.0430  146.8600 C   0  0  0  0  0  2  0  0  0  0  0  0
  190.6610  175.0400  146.5030 C   0  0  0  0  0  3  0  0  0  0  0  0
  187.2840  176.7760  144.0620 C   0  0  2  0  0  3  0  0  0  0  0  0
  187.1990  176.5300  141.6520 O   0  0  0  0  0  1  0  0  0  0  0  0
  185.2990  177.5440  142.7000 C   0  0  0  0  0  1  0  0  0  0  0  0
  186.4250  176.5370  142.8130 C   0  0  2  0  0  3  0  0  0  0  0  0
  186.6870  177.8520  145.0040 C   0  0  0  0  0  2  0  0  0  0  0  0
  187.3810  177.9060  147.3080 O   0  0  0  0  0  1  0  0  0  0  0  0
  185.4540  176.7540  146.8680 O   0  0  0  0  0  0  0  0  0  0  0  0
  186.5570  177.4890  146.4530 C   0  0  0  0  0  0  0  0  0  0  0  0
  1  2  1  0  0  0  0
  2  3  2  0  0  0  0
  3 32  1  0  0  0  0
  4  3  1  0  0  0  0
  5  4  1  0  0  0  0
  6  1  2  0  0  0  0
  6  5  1  0  0  0  0
  7  6  1  0  0  0  0
  8  7  1  0  0  0  0
  9  8  1  0  0  0  0
 10  9  1  0  0  0  0
 10 11  1  0  0  0  0
 11 13  1  0  0  0  0
 12 11  2  0  0  0  0
 13 22  1  0  0  0  0
 14 15  1  0  0  0  0
 15 23  2  0  0  0  0
 16 21  1  0  0  0  0
 16 14  2  0  0  0  0
 17 24  1  0  0  0  0
 17 23  1  0  0  0  0
 18 14  1  0  0  0  0
 20 22  1  0  0  0  0
 20 16  1  0  0  0  0
 21 17  2  0  0  0  0
 22 19  1  6  0  0  0
 22 18  1  0  0  0  0
 25 24  1  0  0  0  0
 25 26  1  0  0  0  0
 27 29  1  0  0  0  0
 28 26  1  1  0  0  0
 28 27  1  0  0  0  0
 28 29  1  0  0  0  0
 29 30  1  1  0  0  0
 30 31  1  0  0  0  0
 33 36  1  0  0  0  0
 33 38  1  0  0  0  0
 34 32  1  6  0  0  0
 34 35  1  0  0  0  0
 34 37  1  0  0  0  0
 35 38  1  6  0  0  0
 35 37  1  0  0  0  0
 37 42  1  1  0  0  0
 39 36  1  0  0  0  0
 39 43  1  1  0  0  0
 39 34  1  0  0  0  0
 41 40  1  0  0  0  0
 42 41  1  0  0  0  0
 42 40  1  0  0  0  0
 43 47  1  6  0  0  0
 44 46  1  0  0  0  0
 46 45  1  6  0  0  0
 46 43  1  0  0  0  0
 47 50  1  0  0  0  0
 50 49  2  0  0  0  0
 50 48  1  0  0  0  0
M  END
>  <MODEL>
7

>  <REMARK>
 VINA RESULT:      -5.0      1.702      2.494
  Name = 
  18 active torsions:
  status: ('A' for Active; 'I' for Inactive)
    1  A    between atoms: C_2  and  C_26
    2  A    between atoms: C_2  and  C_32
    3  A    between atoms: C_2  and  C_47
    4  A    between atoms: C_5  and  C_49
    5  A    between atoms: C_6  and  C_17
    6  A    between atoms: C_6  and  C_35
    7  A    between atoms: C_7  and  C_17
    8  A    between atoms: C_7  and  O_50
    9  A    between atoms: C_10  and  S_31
   10  A    between atoms: C_15  and  C_27
   11  A    between atoms: C_19  and  C_20
   12  A    between atoms: C_24  and  C_49
   13  A    between atoms: C_27  and  C_34
   14  A    between atoms: S_31  and  C_34
   15  A    between atoms: C_32  and  C_36
   16  A    between atoms: N_41  and  C_44
   17  A    between atoms: N_42  and  C_45
   18  A    between atoms: C_43  and  O_50
                            x       y       z     vdW  Elec       q    Type
                         _______ _______ _______ _____ _____    ______ ____

>  <TORSDO>
F 18

$$$$
=
 OpenBabel11062420493D

 50 56  0  0  1  0  0  0  0  0999 V2000
  195.5280  173.8150  140.0970 N   0  0  0  0  0  0  0  0  0  0  0  0
  194.6430  173.0260  139.2890 C   0  0  0  0  0  3  0  0  0  0  0  0
  193.3220  173.0760  139.4660 C   0  0  0  0  0  0  0  0  0  0  0  0
  192.7750  173.8550  140.6360 C   0  0  0  0  0  2  0  0  0  0  0  0
  193.6300  175.0840  140.9400 C   0  0  0  0  0  2  0  0  0  0  0  0
  195.0970  174.7540  140.8950 C   0  0  0  0  0  0  0  0  0  0  0  0
  195.9960  175.5780  141.5760 O   0  0  0  0  0  0  0  0  0  0  0  0
  195.5920  176.3840  142.6790 C   0  0  0  0  0  2  0  0  0  0  0  0
  196.4570  176.0530  143.8930 C   0  0  0  0  0  2  0  0  0  0  0  0
  195.6910  175.3040  144.9820 C   0  0  0  0  0  2  0  0  0  0  0  0
  194.4430  176.0040  145.4100 C   0  0  0  0  0  0  0  0  0  0  0  0
  194.5300  177.1660  145.8960 O   0  0  0  0  0  0  0  0  0  0  0  0
  193.1610  175.3850  145.2300 N   0  0  0  0  0  2  0  0  0  0  0  0
  189.8680  175.5590  144.5590 C   0  0  0  0  0  0  0  0  0  0  0  0
  188.7190  175.0190  143.9860 C   0  0  0  0  0  3  0  0  0  0  0  0
  190.3400  176.7860  144.1870 C   0  0  0  0  0  0  0  0  0  0  0  0
  188.5410  177.0380  142.6200 C   0  0  0  0  0  0  0  0  0  0  0  0
  190.7520  174.9500  145.5820 C   0  0  0  0  0  2  0  0  0  0  0  0
  192.0360  176.3990  147.0150 O   0  0  0  0  0  1  0  0  0  0  0  0
  191.5460  177.1110  144.8460 N   0  0  0  0  0  2  0  0  0  0  0  0
  189.7040  177.5570  143.2120 C   0  0  0  0  0  3  0  0  0  0  0  0
  191.9050  175.9740  145.6950 C   0  0  1  0  0  0  0  0  0  0  0  0
  188.0530  175.7710  143.0010 C   0  0  0  0  0  3  0  0  0  0  0  0
  187.7780  177.9150  141.2650 S   0  0  0  0  0  0  0  0  0  0  0  0
  186.1460  178.0030  142.0530 C   0  0  0  0  0  2  0  0  0  0  0  0
  186.2570  178.9990  143.1990 C   0  0  0  0  0  2  0  0  0  0  0  0
  184.8440  177.5700  144.5650 O   0  0  0  0  0  0  0  0  0  0  0  0
  185.0530  178.8970  144.1340 C   0  0  1  0  0  3  0  0  0  0  0  0
  185.4110  178.4400  145.5190 C   0  0  2  0  0  3  0  0  0  0  0  0
  186.8470  177.9920  145.7580 C   0  0  0  0  0  2  0  0  0  0  0  0
  186.8660  176.8030  146.7000 C   0  0  0  0  0  1  0  0  0  0  0  0
  192.4470  172.4780  138.3940 C   0  0  0  0  0  2  0  0  0  0  0  0
  190.4400  168.8220  138.5420 C   0  0  0  0  0  2  0  0  0  0  0  0
  191.3870  171.4610  138.8770 C   0  0  2  0  0  0  0  0  0  0  0  0
  190.3460  171.2600  137.8450 C   0  0  2  0  0  3  0  0  0  0  0  0
  190.7650  169.2970  139.8170 O   0  0  0  0  0  0  0  0  0  0  0  0
  189.9910  171.9110  139.1260 N   0  0  2  0  0  0  0  0  0  0  0  0
  189.6400  169.8900  137.8100 C   0  0  0  0  0  2  0  0  0  0  0  0
  191.8470  170.1650  139.6100 C   0  0  2  0  0  3  0  0  0  0  0  0
  188.8860  173.8950  139.9390 C   0  0  0  0  0  2  0  0  0  0  0  0
  188.3420  173.6450  138.5500 C   0  0  0  0  0  2  0  0  0  0  0  0
  189.7960  173.3370  138.8560 C   0  0  0  0  0  3  0  0  0  0  0  0
  192.5990  170.4600  140.9140 C   0  0  2  0  0  3  0  0  0  0  0  0
  193.8840  168.4380  141.2820 O   0  0  0  0  0  1  0  0  0  0  0  0
  194.9490  170.5090  141.8410 C   0  0  0  0  0  1  0  0  0  0  0  0
  193.9770  169.7850  140.9320 C   0  0  2  0  0  3  0  0  0  0  0  0
  191.8230  170.2760  142.2420 C   0  0  0  0  0  2  0  0  0  0  0  0
  189.9540  171.7590  142.5600 O   0  0  0  0  0  0  0  0  0  0  0  0
  191.8590  172.2840  143.7140 O   0  0  0  0  0  1  0  0  0  0  0  0
  191.1570  171.4920  142.8150 C   0  0  0  0  0  0  0  0  0  0  0  0
  1  6  2  0  0  0  0
  2  3  2  0  0  0  0
  2  1  1  0  0  0  0
  3  4  1  0  0  0  0
  4  5  1  0  0  0  0
  6  5  1  0  0  0  0
  6  7  1  0  0  0  0
  7  8  1  0  0  0  0
  8  9  1  0  0  0  0
  9 10  1  0  0  0  0
 10 11  1  0  0  0  0
 11 12  2  0  0  0  0
 13 11  1  0  0  0  0
 13 22  1  0  0  0  0
 14 18  1  0  0  0  0
 15 14  2  0  0  0  0
 16 14  1  0  0  0  0
 16 20  1  0  0  0  0
 17 23  2  0  0  0  0
 17 21  1  0  0  0  0
 18 22  1  0  0  0  0
 20 22  1  0  0  0  0
 21 16  2  0  0  0  0
 22 19  1  1  0  0  0
 23 15  1  0  0  0  0
 24 25  1  0  0  0  0
 24 17  1  0  0  0  0
 25 26  1  0  0  0  0
 27 29  1  0  0  0  0
 28 26  1  6  0  0  0
 28 27  1  0  0  0  0
 28 29  1  0  0  0  0
 29 30  1  6  0  0  0
 30 31  1  0  0  0  0
 32  3  1  0  0  0  0
 33 36  1  0  0  0  0
 34 32  1  6  0  0  0
 34 37  1  0  0  0  0
 34 39  1  0  0  0  0
 35 38  1  1  0  0  0
 35 34  1  0  0  0  0
 35 37  1  0  0  0  0
 37 42  1  6  0  0  0
 38 33  1  0  0  0  0
 39 36  1  0  0  0  0
 39 43  1  1  0  0  0
 41 42  1  0  0  0  0
 41 40  1  0  0  0  0
 42 40  1  0  0  0  0
 43 46  1  0  0  0  0
 43 47  1  1  0  0  0
 46 44  1  0  0  0  0
 46 45  1  1  0  0  0
 47 50  1  0  0  0  0
 48 50  2  0  0  0  0
 50 49  1  0  0  0  0
M  END
>  <MODEL>
8

>  <REMARK>
 VINA RESULT:      -5.0      2.526      8.550
  Name = 
  18 active torsions:
  status: ('A' for Active; 'I' for Inactive)
    1  A    between atoms: C_2  and  C_26
    2  A    between atoms: C_2  and  C_32
    3  A    between atoms: C_2  and  C_47
    4  A    between atoms: C_5  and  C_49
    5  A    between atoms: C_6  and  C_17
    6  A    between atoms: C_6  and  C_35
    7  A    between atoms: C_7  and  C_17
    8  A    between atoms: C_7  and  O_50
    9  A    between atoms: C_10  and  S_31
   10  A    between atoms: C_15  and  C_27
   11  A    between atoms: C_19  and  C_20
   12  A    between atoms: C_24  and  C_49
   13  A    between atoms: C_27  and  C_34
   14  A    between atoms: S_31  and  C_34
   15  A    between atoms: C_32  and  C_36
   16  A    between atoms: N_41  and  C_44
   17  A    between atoms: N_42  and  C_45
   18  A    between atoms: C_43  and  O_50
                            x       y       z     vdW  Elec       q    Type
                         _______ _______ _______ _____ _____    ______ ____

>  <TORSDO>
F 18

$$$$
=
 OpenBabel11062420493D

 50 56  0  0  1  0  0  0  0  0999 V2000
  195.2290  174.3650  142.6760 N   0  0  0  0  0  0  0  0  0  0  0  0
  194.9080  173.3600  141.7030 C   0  0  0  0  0  3  0  0  0  0  0  0
  193.7150  173.3340  141.1090 C   0  0  0  0  0  0  0  0  0  0  0  0
  192.6440  174.2830  141.5880 C   0  0  0  0  0  2  0  0  0  0  0  0
  193.2380  175.6140  142.0450 C   0  0  0  0  0  2  0  0  0  0  0  0
  194.4680  175.4050  142.8850 C   0  0  0  0  0  0  0  0  0  0  0  0
  194.8730  176.4190  143.7560 O   0  0  0  0  0  0  0  0  0  0  0  0
  194.9650  176.2130  145.1630 C   0  0  0  0  0  2  0  0  0  0  0  0
  193.7050  176.7490  145.8370 C   0  0  0  0  0  2  0  0  0  0  0  0
  193.1400  175.7950  146.8880 C   0  0  0  0  0  2  0  0  0  0  0  0
  191.7310  175.3860  146.6140 C   0  0  0  0  0  0  0  0  0  0  0  0
  190.9230  175.2940  147.5800 O   0  0  0  0  0  0  0  0  0  0  0  0
  191.2890  175.1460  145.2700 N   0  0  0  0  0  2  0  0  0  0  0  0
  188.8030  175.4890  143.0290 C   0  0  0  0  0  0  0  0  0  0  0  0
  188.3620  175.8310  141.7520 C   0  0  0  0  0  3  0  0  0  0  0  0
  188.3270  176.1260  144.1400 C   0  0  0  0  0  0  0  0  0  0  0  0
  186.9200  177.5160  142.7830 C   0  0  0  0  0  0  0  0  0  0  0  0
  189.8120  174.4710  143.4040 C   0  0  0  0  0  2  0  0  0  0  0  0
  189.6890  173.4670  145.5910 O   0  0  0  0  0  1  0  0  0  0  0  0
  188.9520  175.6660  145.3210 N   0  0  0  0  0  2  0  0  0  0  0  0
  187.3850  177.1530  144.0580 C   0  0  0  0  0  3  0  0  0  0  0  0
  189.9490  174.6660  144.9320 C   0  0  1  0  0  0  0  0  0  0  0  0
  187.4110  176.8610  141.6340 C   0  0  0  0  0  3  0  0  0  0  0  0
  185.8320  178.9200  142.6110 S   0  0  0  0  0  0  0  0  0  0  0  0
  184.6080  178.2970  143.7970 C   0  0  0  0  0  2  0  0  0  0  0  0
  184.7330  179.1450  145.0550 C   0  0  0  0  0  2  0  0  0  0  0  0
  184.6140  177.2140  146.5230 O   0  0  0  0  0  0  0  0  0  0  0  0
  184.0460  178.4740  146.2420 C   0  0  1  0  0  3  0  0  0  0  0  0
  184.9600  178.2520  147.4130 C   0  0  2  0  0  3  0  0  0  0  0  0
  186.4380  178.5590  147.2130 C   0  0  0  0  0  2  0  0  0  0  0  0
  186.9650  179.3450  148.3990 C   0  0  0  0  0  1  0  0  0  0  0  0
  193.5560  172.4650  139.8880 C   0  0  0  0  0  2  0  0  0  0  0  0
  190.8840  169.9170  141.8340 C   0  0  0  0  0  2  0  0  0  0  0  0
  192.6340  171.2340  140.0510 C   0  0  2  0  0  0  0  0  0  0  0  0
  193.2450  170.2400  140.9600 C   0  0  2  0  0  3  0  0  0  0  0  0
  190.4630  170.2330  140.5380 O   0  0  0  0  0  0  0  0  0  0  0  0
  193.0680  169.9110  139.5280 N   0  0  2  0  0  0  0  0  0  0  0  0
  192.2890  169.3370  141.7660 C   0  0  0  0  0  2  0  0  0  0  0  0
  191.1010  171.4460  140.2400 C   0  0  2  0  0  3  0  0  0  0  0  0
  194.2850  169.2650  137.5490 C   0  0  0  0  0  2  0  0  0  0  0  0
  194.9510  168.5560  138.7060 C   0  0  0  0  0  2  0  0  0  0  0  0
  194.3910  169.9530  138.9010 C   0  0  0  0  0  3  0  0  0  0  0  0
  190.4520  172.1520  139.0430 C   0  0  2  0  0  3  0  0  0  0  0  0
  188.6230  172.6980  140.5380 O   0  0  0  0  0  1  0  0  0  0  0  0
  188.5540  173.6690  138.3490 C   0  0  0  0  0  1  0  0  0  0  0  0
  189.4150  173.1880  139.4980 C   0  0  2  0  0  3  0  0  0  0  0  0
  189.9420  171.2640  137.8800 C   0  0  0  0  0  2  0  0  0  0  0  0
  191.9020  171.7360  136.5640 O   0  0  0  0  0  1  0  0  0  0  0  0
  190.1400  170.8030  135.4410 O   0  0  0  0  0  0  0  0  0  0  0  0
  190.7160  171.3150  136.5960 C   0  0  0  0  0  0  0  0  0  0  0  0
  1  6  2  0  0  0  0
  2  1  1  0  0  0  0
  3  4  1  0  0  0  0
  3  2  2  0  0  0  0
  4  5  1  0  0  0  0
  5  6  1  0  0  0  0
  6  7  1  0  0  0  0
  7  8  1  0  0  0  0
  8  9  1  0  0  0  0
  9 10  1  0  0  0  0
 11 10  1  0  0  0  0
 11 12  2  0  0  0  0
 13 11  1  0  0  0  0
 14 18  1  0  0  0  0
 14 16  1  0  0  0  0
 15 14  2  0  0  0  0
 16 20  1  0  0  0  0
 17 21  1  0  0  0  0
 18 22  1  0  0  0  0
 21 16  2  0  0  0  0
 22 13  1  0  0  0  0
 22 20  1  0  0  0  0
 22 19  1  1  0  0  0
 23 15  1  0  0  0  0
 23 17  2  0  0  0  0
 24 17  1  0  0  0  0
 24 25  1  0  0  0  0
 25 26  1  0  0  0  0
 27 29  1  0  0  0  0
 28 26  1  6  0  0  0
 28 27  1  0  0  0  0
 28 29  1  0  0  0  0
 29 30  1  6  0  0  0
 30 31  1  0  0  0  0
 32  3  1  0  0  0  0
 34 32  1  6  0  0  0
 34 39  1  0  0  0  0
 34 35  1  0  0  0  0
 35 38  1  1  0  0  0
 36 33  1  0  0  0  0
 37 42  1  6  0  0  0
 37 34  1  0  0  0  0
 37 35  1  0  0  0  0
 38 33  1  0  0  0  0
 39 43  1  6  0  0  0
 39 36  1  0  0  0  0
 40 41  1  0  0  0  0
 40 42  1  0  0  0  0
 41 42  1  0  0  0  0
 43 47  1  6  0  0  0
 43 46  1  0  0  0  0
 46 45  1  6  0  0  0
 46 44  1  0  0  0  0
 48 50  1  0  0  0  0
 49 50  2  0  0  0  0
 50 47  1  0  0  0  0
M  END
>  <MODEL>
9

>  <REMARK>
 VINA RESULT:      -4.9      2.860      9.043
  Name = 
  18 active torsions:
  status: ('A' for Active; 'I' for Inactive)
    1  A    between atoms: C_2  and  C_26
    2  A    between atoms: C_2  and  C_32
    3  A    between atoms: C_2  and  C_47
    4  A    between atoms: C_5  and  C_49
    5  A    between atoms: C_6  and  C_17
    6  A    between atoms: C_6  and  C_35
    7  A    between atoms: C_7  and  C_17
    8  A    between atoms: C_7  and  O_50
    9  A    between atoms: C_10  and  S_31
   10  A    between atoms: C_15  and  C_27
   11  A    between atoms: C_19  and  C_20
   12  A    between atoms: C_24  and  C_49
   13  A    between atoms: C_27  and  C_34
   14  A    between atoms: S_31  and  C_34
   15  A    between atoms: C_32  and  C_36
   16  A    between atoms: N_41  and  C_44
   17  A    between atoms: N_42  and  C_45
   18  A    between atoms: C_43  and  O_50
                            x       y       z     vdW  Elec       q    Type
                         _______ _______ _______ _____ _____    ______ ____

>  <TORSDO>
F 18

$$$$
