=
 OpenBabel11072409003D

 47 54  0  0  1  0  0  0  0  0999 V2000
  194.9310  172.8500  144.1920 N   0  0  0  0  0  0  0  0  0  0  0  0
  192.6090  176.1780  142.8310 C   0  0  0  0  0  2  0  0  0  0  0  0
  189.5280  173.3250  142.7090 C   0  0  1  0  0  3  0  0  0  0  0  0
  190.7140  173.0460  143.6290 C   0  0  0  0  0  2  0  0  0  0  0  0
  191.5340  174.2960  143.9890 C   0  0  1  0  0  0  0  0  0  0  0  0
  193.8230  174.8800  145.2550 C   0  0  0  0  0  2  0  0  0  0  0  0
  191.2700  178.1510  142.8450 O   0  0  0  0  0  1  0  0  0  0  0  0
  189.1610  175.0960  144.6200 C   0  0  1  0  0  3  0  0  0  0  0  0
  191.2120  175.6810  143.2810 C   0  0  2  0  0  0  0  0  0  0  0  0
  189.3650  173.8900  138.8570 C   0  0  0  0  0  2  0  0  0  0  0  0
  195.0480  172.4520  141.7540 C   0  0  0  0  0  2  0  0  0  0  0  0
  188.5740  174.3520  143.3730 C   0  0  1  0  0  3  0  0  0  0  0  0
  190.6900  175.3200  144.6770 C   0  0  2  0  0  3  0  0  0  0  0  0
  192.8060  172.3460  139.1580 O   0  0  0  0  0  0  0  0  0  0  0  0
  191.1860  172.7770  140.8710 C   0  0  0  0  0  2  0  0  0  0  0  0
  191.7750  173.2200  139.5370 C   0  0  2  0  0  3  0  0  0  0  0  0
  188.8930  173.4670  140.2550 C   0  0  0  0  0  2  0  0  0  0  0  0
  190.8430  172.7680  137.3940 O   0  0  0  0  0  0  0  0  0  0  0  0
  191.7660  177.0930  143.6030 C   0  0  0  0  0  0  0  0  0  0  0  0
  193.9950  173.9880  144.0300 C   0  0  2  0  0  3  0  0  0  0  0  0
  193.9540  172.7720  139.8440 C   0  0  0  0  0  2  0  0  0  0  0  0
  194.6260  171.9080  143.1160 C   0  0  0  0  0  2  0  0  0  0  0  0
  190.6720  173.2310  138.5100 C   0  0  0  0  0  0  0  0  0  0  0  0
  192.3230  177.4170  144.8450 O   0  0  0  0  0  1  0  0  0  0  0  0
  194.3480  171.7820  140.7500 O   0  0  0  0  0  0  0  0  0  0  0  0
  190.0050  173.6660  141.2790 C   0  0  1  0  0  3  0  0  0  0  0  0
  192.7230  173.8870  144.8770 C   0  0  2  0  0  3  0  0  0  0  0  0
  186.0990  178.0430  144.0080 C   0  0  0  0  0  1  0  0  0  0  0  0
  186.3470  177.3780  145.3550 C   0  0  0  0  0  0  0  0  0  0  0  0
  188.4160  176.3500  145.0900 C   0  0  2  0  0  3  0  0  0  0  0  0
  187.8350  177.5950  147.1380 C   0  0  2  0  0  3  0  0  0  0  0  0
  188.9580  176.8540  146.4270 C   0  0  0  0  0  2  0  0  0  0  0  0
  187.0490  178.2960  146.1930 O   0  0  0  0  0  0  0  0  0  0  0  0
  184.9920  177.0890  145.9800 C   0  0  0  0  0  1  0  0  0  0  0  0
  187.0220  176.1360  145.1540 O   0  0  0  0  0  0  0  0  0  0  0  0
  188.4430  178.5910  148.1130 C   0  0  0  0  0  2  0  0  0  0  0  0
  187.4340  179.3330  148.7250 O   0  0  0  0  0  1  0  0  0  0  0  0
  186.7080  174.8360  142.4020 F   0  0  0  0  0  0  0  0  0  0  0  0
  187.9800  175.2120  142.4350 O   0  0  0  0  0  0  0  0  0  0  0  0
  194.7780  172.1040  145.4410 C   0  0  0  0  0  2  0  0  0  0  0  0
  194.1740  170.7410  145.1690 C   0  0  0  0  0  2  0  0  0  0  0  0
  196.3770  170.2480  146.2770 C   0  0  0  0  0  2  0  0  0  0  0  0
  194.3870  168.9300  146.8140 N   0  0  0  0  0  2  0  0  0  0  0  0
  195.0720  169.6580  145.7430 C   0  0  1  0  0  3  0  0  0  0  0  0
  197.2260  169.1010  146.8190 C   0  0  0  0  0  2  0  0  0  0  0  0
  195.1300  168.2320  147.8230 C   0  0  0  0  0  3  0  0  0  0  0  0
  196.4660  168.3130  147.8550 C   0  0  0  0  0  3  0  0  0  0  0  0
  1 40  1  0  0  0  0
  2 19  1  0  0  0  0
  3 12  1  0  0  0  0
  3  4  1  1  0  0  0
  5  4  1  6  0  0  0
  5 13  1  0  0  0  0
  5 27  1  0  0  0  0
  7 19  1  0  0  0  0
  8 13  1  0  0  0  0
  8 30  1  6  0  0  0
  9  2  1  6  0  0  0
  9 19  1  0  0  0  0
  9  5  1  0  0  0  0
  9 13  1  0  0  0  0
 10 17  1  0  0  0  0
 11 22  1  0  0  0  0
 12 39  1  6  0  0  0
 12  8  1  0  0  0  0
 14 16  1  0  0  0  0
 14 21  1  0  0  0  0
 15 26  1  0  0  0  0
 16 15  1  0  0  0  0
 17 26  1  0  0  0  0
 18 23  2  0  0  0  0
 19 24  1  0  0  0  0
 20  1  1  0  0  0  0
 20 27  1  0  0  0  0
 20  6  1  0  0  0  0
 21 25  1  0  0  0  0
 22  1  1  0  0  0  0
 23 10  1  0  0  0  0
 23 16  1  0  0  0  0
 25 11  1  0  0  0  0
 26  3  1  0  0  0  0
 27  6  1  0  0  0  0
 28 29  1  0  0  0  0
 29 34  1  0  0  0  0
 29 33  1  0  0  0  0
 30 35  1  0  0  0  0
 30 32  1  0  0  0  0
 31 36  1  0  0  0  0
 32 31  1  0  0  0  0
 33 31  1  0  0  0  0
 35 29  1  0  0  0  0
 36 37  1  0  0  0  0
 38 39  1  0  0  0  0
 41 40  1  0  0  0  0
 41 44  1  0  0  0  0
 42 45  1  0  0  0  0
 43 46  1  0  0  0  0
 44 42  1  0  0  0  0
 44 43  1  0  0  0  0
 45 47  1  0  0  0  0
 46 47  2  0  0  0  0
M  END
>  <MODEL>
1

>  <REMARK>
 VINA RESULT:      -7.8      0.000      0.000
  Name = 
  6 active torsions:
  status: ('A' for Active; 'I' for Inactive)
    1  A    between atoms: N_2  and  C_18
    2  A    between atoms: C_5  and  C_15
    3  A    between atoms: C_9  and  C_16
    4  A    between atoms: C_18  and  C_24
    5  A    between atoms: C_19  and  C_24
    6  A    between atoms: C_23  and  O_33
                            x       y       z     vdW  Elec       q    Type
                         _______ _______ _______ _____ _____    ______ ____

>  <TORSDO>
F 6

$$$$
=
 OpenBabel11072409003D

 47 54  0  0  1  0  0  0  0  0999 V2000
  194.0410  170.1230  142.1400 N   0  0  0  0  0  0  0  0  0  0  0  0
  193.0020  174.2610  141.8030 C   0  0  0  0  0  2  0  0  0  0  0  0
  189.0800  172.7600  141.9190 C   0  0  1  0  0  3  0  0  0  0  0  0
  190.1860  171.8940  142.5160 C   0  0  0  0  0  2  0  0  0  0  0  0
  191.4640  172.6710  142.8740 C   0  0  1  0  0  0  0  0  0  0  0  0
  193.9570  172.1330  143.6990 C   0  0  0  0  0  2  0  0  0  0  0  0
  192.5360  176.5250  142.3890 O   0  0  0  0  0  1  0  0  0  0  0  0
  189.6930  174.0930  144.1030 C   0  0  1  0  0  3  0  0  0  0  0  0
  191.6000  174.1990  142.4610 C   0  0  2  0  0  0  0  0  0  0  0  0
  188.6020  174.1590  138.3140 C   0  0  0  0  0  2  0  0  0  0  0  0
  193.6510  170.2430  139.7020 C   0  0  0  0  0  2  0  0  0  0  0  0
  188.6960  173.8870  142.9120 C   0  0  1  0  0  3  0  0  0  0  0  0
  191.1830  173.7520  143.8680 C   0  0  2  0  0  3  0  0  0  0  0  0
  191.1960  171.4850  137.6510 O   0  0  0  0  0  0  0  0  0  0  0  0
  190.1240  172.0760  139.7120 C   0  0  0  0  0  2  0  0  0  0  0  0
  190.6430  172.5610  138.3630 C   0  0  2  0  0  3  0  0  0  0  0  0
  188.2070  173.6380  139.7020 C   0  0  0  0  0  2  0  0  0  0  0  0
  189.3150  172.9340  136.4230 O   0  0  0  0  0  0  0  0  0  0  0  0
  192.6920  175.2240  142.8620 C   0  0  0  0  0  0  0  0  0  0  0  0
  193.5990  171.5230  142.3490 C   0  0  2  0  0  3  0  0  0  0  0  0
  192.5040  171.3260  138.1340 C   0  0  0  0  0  2  0  0  0  0  0  0
  193.2500  169.6010  141.0270 C   0  0  0  0  0  2  0  0  0  0  0  0
  189.4950  173.1760  137.6060 C   0  0  0  0  0  0  0  0  0  0  0  0
  193.5000  175.0590  143.9920 O   0  0  0  0  0  1  0  0  0  0  0  0
  192.6130  170.0910  138.7810 O   0  0  0  0  0  0  0  0  0  0  0  0
  189.4440  173.2110  140.4860 C   0  0  1  0  0  3  0  0  0  0  0  0
  192.5200  171.6930  143.4210 C   0  0  2  0  0  3  0  0  0  0  0  0
  187.7110  177.8410  144.7830 C   0  0  0  0  0  1  0  0  0  0  0  0
  188.0990  176.8950  145.9110 C   0  0  0  0  0  0  0  0  0  0  0  0
  189.5590  175.3960  144.8980 C   0  0  2  0  0  3  0  0  0  0  0  0
  190.0150  176.3530  147.1240 C   0  0  2  0  0  3  0  0  0  0  0  0
  190.5890  175.4720  146.0240 C   0  0  0  0  0  2  0  0  0  0  0  0
  189.2660  177.4090  146.5520 O   0  0  0  0  0  0  0  0  0  0  0  0
  186.9580  176.8880  146.9160 C   0  0  0  0  0  1  0  0  0  0  0  0
  188.2490  175.5740  145.3930 O   0  0  0  0  0  0  0  0  0  0  0  0
  191.1620  176.9410  147.9320 C   0  0  0  0  0  2  0  0  0  0  0  0
  192.3800  176.5200  147.4010 O   0  0  0  0  0  1  0  0  0  0  0  0
  187.0460  175.2040  142.4660 F   0  0  0  0  0  0  0  0  0  0  0  0
  188.3500  175.0800  142.2580 O   0  0  0  0  0  0  0  0  0  0  0  0
  193.7930  169.2280  143.2710 C   0  0  0  0  0  2  0  0  0  0  0  0
  194.8710  168.1660  143.3460 C   0  0  0  0  0  2  0  0  0  0  0  0
  196.5320  169.3990  144.7740 C   0  0  0  0  0  2  0  0  0  0  0  0
  194.5710  168.3350  145.7780 N   0  0  0  0  0  2  0  0  0  0  0  0
  195.5570  168.2250  144.7000 C   0  0  1  0  0  3  0  0  0  0  0  0
  197.1890  169.3800  146.1520 C   0  0  0  0  0  2  0  0  0  0  0  0
  194.9290  168.8910  147.0500 C   0  0  0  0  0  3  0  0  0  0  0  0
  196.1510  169.4040  147.2440 C   0  0  0  0  0  3  0  0  0  0  0  0
  1 20  1  0  0  0  0
  1 40  1  0  0  0  0
  2 19  1  0  0  0  0
  3  4  1  1  0  0  0
  3 12  1  0  0  0  0
  5  4  1  6  0  0  0
  5 27  1  0  0  0  0
  5 13  1  0  0  0  0
  7 19  1  0  0  0  0
  8 30  1  6  0  0  0
  9  2  1  6  0  0  0
  9 19  1  0  0  0  0
  9  5  1  0  0  0  0
  9 13  1  0  0  0  0
 10 17  1  0  0  0  0
 11 22  1  0  0  0  0
 12 39  1  6  0  0  0
 12  8  1  0  0  0  0
 13  8  1  0  0  0  0
 14 21  1  0  0  0  0
 14 16  1  0  0  0  0
 15 26  1  0  0  0  0
 16 15  1  0  0  0  0
 17 26  1  0  0  0  0
 18 23  2  0  0  0  0
 19 24  1  0  0  0  0
 20 27  1  0  0  0  0
 20  6  1  0  0  0  0
 21 25  1  0  0  0  0
 22  1  1  0  0  0  0
 23 10  1  0  0  0  0
 23 16  1  0  0  0  0
 25 11  1  0  0  0  0
 26  3  1  0  0  0  0
 27  6  1  0  0  0  0
 28 29  1  0  0  0  0
 29 33  1  0  0  0  0
 29 34  1  0  0  0  0
 30 35  1  0  0  0  0
 30 32  1  0  0  0  0
 31 36  1  0  0  0  0
 32 31  1  0  0  0  0
 33 31  1  0  0  0  0
 35 29  1  0  0  0  0
 37 36  1  0  0  0  0
 39 38  1  0  0  0  0
 40 41  1  0  0  0  0
 41 44  1  0  0  0  0
 42 45  1  0  0  0  0
 43 46  1  0  0  0  0
 44 42  1  0  0  0  0
 44 43  1  0  0  0  0
 45 47  1  0  0  0  0
 46 47  2  0  0  0  0
M  END
>  <MODEL>
2

>  <REMARK>
 VINA RESULT:      -7.6      1.762      2.302
  Name = 
  6 active torsions:
  status: ('A' for Active; 'I' for Inactive)
    1  A    between atoms: N_2  and  C_18
    2  A    between atoms: C_5  and  C_15
    3  A    between atoms: C_9  and  C_16
    4  A    between atoms: C_18  and  C_24
    5  A    between atoms: C_19  and  C_24
    6  A    between atoms: C_23  and  O_33
                            x       y       z     vdW  Elec       q    Type
                         _______ _______ _______ _____ _____    ______ ____

>  <TORSDO>
F 6

$$$$
=
 OpenBabel11072409003D

 47 54  0  0  1  0  0  0  0  0999 V2000
  193.7120  175.1250  146.5130 N   0  0  0  0  0  0  0  0  0  0  0  0
  190.2560  173.0530  145.0720 C   0  0  0  0  0  2  0  0  0  0  0  0
  189.9350  176.3930  142.5460 C   0  0  1  0  0  3  0  0  0  0  0  0
  191.3100  176.0760  143.1270 C   0  0  0  0  0  2  0  0  0  0  0  0
  191.4610  174.6280  143.6220 C   0  0  1  0  0  0  0  0  0  0  0  0
  193.2580  173.1590  144.9620 C   0  0  0  0  0  2  0  0  0  0  0  0
  188.8810  171.5410  143.8440 O   0  0  0  0  0  1  0  0  0  0  0  0
  190.5920  174.2150  141.2260 C   0  0  1  0  0  3  0  0  0  0  0  0
  190.1950  173.6690  143.6510 C   0  0  2  0  0  0  0  0  0  0  0  0
  186.5500  177.2010  144.2990 C   0  0  0  0  0  2  0  0  0  0  0  0
  191.9710  176.2790  147.8360 C   0  0  0  0  0  2  0  0  0  0  0  0
  189.6300  175.4440  141.3580 C   0  0  1  0  0  3  0  0  0  0  0  0
  191.2270  173.6490  142.5170 C   0  0  2  0  0  3  0  0  0  0  0  0
  188.9380  177.7450  147.1830 O   0  0  0  0  0  0  0  0  0  0  0  0
  189.4180  177.1390  144.9140 C   0  0  0  0  0  2  0  0  0  0  0  0
  188.4330  177.0480  146.0740 C   0  0  2  0  0  3  0  0  0  0  0  0
  187.6290  177.2260  143.2080 C   0  0  0  0  0  2  0  0  0  0  0  0
  186.4830  178.3880  146.3420 O   0  0  0  0  0  0  0  0  0  0  0  0
  190.1330  172.1450  143.9300 C   0  0  0  0  0  0  0  0  0  0  0  0
  192.7100  174.3460  145.7470 C   0  0  2  0  0  3  0  0  0  0  0  0
  189.8270  176.8690  147.8250 C   0  0  0  0  0  2  0  0  0  0  0  0
  193.0930  176.4160  146.8100 C   0  0  0  0  0  2  0  0  0  0  0  0
  187.1170  177.6280  145.6260 C   0  0  0  0  0  0  0  0  0  0  0  0
  191.2460  171.3080  143.7870 O   0  0  0  0  0  1  0  0  0  0  0  0
  191.1240  177.3850  147.7470 O   0  0  0  0  0  0  0  0  0  0  0  0
  188.8640  176.4530  143.6600 C   0  0  1  0  0  3  0  0  0  0  0  0
  192.8650  174.4390  144.2260 C   0  0  2  0  0  3  0  0  0  0  0  0
  188.1910  172.8230  137.9490 C   0  0  0  0  0  1  0  0  0  0  0  0
  189.6520  172.4330  138.1260 C   0  0  0  0  0  0  0  0  0  0  0  0
  190.1350  173.0760  140.3080 C   0  0  2  0  0  3  0  0  0  0  0  0
  190.8910  170.9150  139.3910 C   0  0  2  0  0  3  0  0  0  0  0  0
  190.8370  171.7640  140.6530 C   0  0  0  0  0  2  0  0  0  0  0  0
  189.7080  171.1020  138.6370 O   0  0  0  0  0  0  0  0  0  0  0  0
  190.3020  172.4530  136.7520 C   0  0  0  0  0  1  0  0  0  0  0  0
  190.3070  173.4020  138.9450 O   0  0  0  0  0  0  0  0  0  0  0  0
  191.0000  169.4510  139.7870 C   0  0  0  0  0  2  0  0  0  0  0  0
  190.8160  169.3160  141.1620 O   0  0  0  0  0  1  0  0  0  0  0  0
  187.8520  175.6650  140.1550 F   0  0  0  0  0  0  0  0  0  0  0  0
  188.2710  175.1030  141.2820 O   0  0  0  0  0  0  0  0  0  0  0  0
  194.9450  175.4240  145.7830 C   0  0  0  0  0  2  0  0  0  0  0  0
  194.8210  176.7530  145.0650 C   0  0  0  0  0  2  0  0  0  0  0  0
  196.7310  175.5980  143.9090 C   0  0  0  0  0  2  0  0  0  0  0  0
  195.0280  176.7900  142.6180 N   0  0  0  0  0  2  0  0  0  0  0  0
  195.7710  176.7870  143.8800 C   0  0  1  0  0  3  0  0  0  0  0  0
  197.6590  175.7130  142.7020 C   0  0  0  0  0  2  0  0  0  0  0  0
  195.6380  176.3310  141.4030 C   0  0  0  0  0  3  0  0  0  0  0  0
  196.8690  175.8040  141.4220 C   0  0  0  0  0  3  0  0  0  0  0  0
  1 22  1  0  0  0  0
  3  4  1  1  0  0  0
  3 26  1  0  0  0  0
  5  4  1  6  0  0  0
  5  9  1  0  0  0  0
  5 27  1  0  0  0  0
  6 20  1  0  0  0  0
  7 19  1  0  0  0  0
  8 30  1  1  0  0  0
  8 12  1  0  0  0  0
  8 13  1  0  0  0  0
  9 19  1  0  0  0  0
  9  2  1  6  0  0  0
 10 23  1  0  0  0  0
 12 39  1  1  0  0  0
 12  3  1  0  0  0  0
 13  5  1  0  0  0  0
 13  9  1  0  0  0  0
 14 21  1  0  0  0  0
 15 16  1  0  0  0  0
 16 14  1  0  0  0  0
 17 26  1  0  0  0  0
 17 10  1  0  0  0  0
 19  2  1  0  0  0  0
 20  1  1  0  0  0  0
 22 11  1  0  0  0  0
 23 16  1  0  0  0  0
 23 18  2  0  0  0  0
 24 19  1  0  0  0  0
 25 21  1  0  0  0  0
 25 11  1  0  0  0  0
 26 15  1  0  0  0  0
 27  6  1  0  0  0  0
 27 20  1  0  0  0  0
 28 29  1  0  0  0  0
 29 33  1  0  0  0  0
 29 35  1  0  0  0  0
 30 32  1  0  0  0  0
 31 36  1  0  0  0  0
 31 32  1  0  0  0  0
 33 31  1  0  0  0  0
 34 29  1  0  0  0  0
 35 30  1  0  0  0  0
 36 37  1  0  0  0  0
 38 39  1  0  0  0  0
 40  1  1  0  0  0  0
 41 40  1  0  0  0  0
 43 44  1  0  0  0  0
 44 42  1  0  0  0  0
 44 41  1  0  0  0  0
 45 42  1  0  0  0  0
 46 47  2  0  0  0  0
 46 43  1  0  0  0  0
 47 45  1  0  0  0  0
M  END
>  <MODEL>
3

>  <REMARK>
 VINA RESULT:      -7.5      2.809      7.308
  Name = 
  6 active torsions:
  status: ('A' for Active; 'I' for Inactive)
    1  A    between atoms: N_2  and  C_18
    2  A    between atoms: C_5  and  C_15
    3  A    between atoms: C_9  and  C_16
    4  A    between atoms: C_18  and  C_24
    5  A    between atoms: C_19  and  C_24
    6  A    between atoms: C_23  and  O_33
                            x       y       z     vdW  Elec       q    Type
                         _______ _______ _______ _____ _____    ______ ____

>  <TORSDO>
F 6

$$$$
=
 OpenBabel11072409003D

 47 54  0  0  1  0  0  0  0  0999 V2000
  195.0260  173.6190  138.3010 N   0  0  0  0  0  0  0  0  0  0  0  0
  192.5520  171.8960  141.3390 C   0  0  0  0  0  2  0  0  0  0  0  0
  194.5270  174.6680  143.8020 C   0  0  1  0  0  3  0  0  0  0  0  0
  194.4770  174.9620  142.3050 C   0  0  0  0  0  2  0  0  0  0  0  0
  193.3700  174.2030  141.5550 C   0  0  1  0  0  0  0  0  0  0  0  0
  192.5920  173.8090  139.0210 C   0  0  0  0  0  2  0  0  0  0  0  0
  190.6690  171.4550  142.7340 O   0  0  0  0  0  1  0  0  0  0  0  0
  191.9930  175.2850  143.4530 C   0  0  1  0  0  3  0  0  0  0  0  0
  192.5160  173.1000  142.3150 C   0  0  2  0  0  0  0  0  0  0  0  0
  196.0070  171.6420  145.7600 C   0  0  0  0  0  2  0  0  0  0  0  0
  196.6340  172.0050  139.2620 C   0  0  0  0  0  2  0  0  0  0  0  0
  193.1680  175.0290  144.4570 C   0  0  1  0  0  3  0  0  0  0  0  0
  192.0190  174.5350  142.1010 C   0  0  2  0  0  3  0  0  0  0  0  0
  197.7020  171.1600  142.4120 O   0  0  0  0  0  0  0  0  0  0  0  0
  196.1990  172.8910  143.1120 C   0  0  0  0  0  2  0  0  0  0  0  0
  196.6060  171.4290  143.2470 C   0  0  2  0  0  3  0  0  0  0  0  0
  195.5690  173.0890  145.4950 C   0  0  0  0  0  2  0  0  0  0  0  0
  197.9410  170.5190  144.9960 O   0  0  0  0  0  0  0  0  0  0  0  0
  191.2500  172.3460  141.8340 C   0  0  0  0  0  0  0  0  0  0  0  0
  194.0010  173.3130  139.3270 C   0  0  2  0  0  3  0  0  0  0  0  0
  197.1730  170.9300  141.1320 C   0  0  0  0  0  2  0  0  0  0  0  0
  196.3240  173.4680  138.9550 C   0  0  0  0  0  2  0  0  0  0  0  0
  196.9490  171.1620  144.6900 C   0  0  0  0  0  0  0  0  0  0  0  0
  190.4260  172.8330  140.8130 O   0  0  0  0  0  1  0  0  0  0  0  0
  197.6040  171.9370  140.2630 O   0  0  0  0  0  0  0  0  0  0  0  0
  195.0520  173.2390  144.0680 C   0  0  1  0  0  3  0  0  0  0  0  0
  193.4470  174.5410  140.0550 C   0  0  2  0  0  3  0  0  0  0  0  0
  189.3700  174.9840  146.8390 C   0  0  0  0  0  1  0  0  0  0  0  0
  189.2030  176.0420  145.7570 C   0  0  0  0  0  0  0  0  0  0  0  0
  190.5760  175.2930  144.0360 C   0  0  2  0  0  3  0  0  0  0  0  0
  188.3170  176.1830  143.6050 C   0  0  2  0  0  3  0  0  0  0  0  0
  189.5260  175.5300  142.9520 C   0  0  0  0  0  2  0  0  0  0  0  0
  188.1280  175.6520  144.9030 O   0  0  0  0  0  0  0  0  0  0  0  0
  188.8290  177.3450  146.4440 C   0  0  0  0  0  1  0  0  0  0  0  0
  190.4470  176.2320  145.0830 O   0  0  0  0  0  0  0  0  0  0  0  0
  187.0840  175.8860  142.7640 C   0  0  0  0  0  2  0  0  0  0  0  0
  186.7100  177.0250  142.0530 O   0  0  0  0  0  1  0  0  0  0  0  0
  192.9670  174.8870  146.6010 F   0  0  0  0  0  0  0  0  0  0  0  0
  192.8310  174.1550  145.5030 O   0  0  0  0  0  0  0  0  0  0  0  0
  194.9870  174.9880  137.7850 C   0  0  0  0  0  2  0  0  0  0  0  0
  195.5830  175.0420  136.3930 C   0  0  0  0  0  2  0  0  0  0  0  0
  193.4550  176.3690  136.2100 C   0  0  0  0  0  2  0  0  0  0  0  0
  195.5190  177.1680  135.1660 N   0  0  0  0  0  2  0  0  0  0  0  0
  194.7570  175.9680  135.5160 C   0  0  1  0  0  3  0  0  0  0  0  0
  192.6790  177.2800  135.2630 C   0  0  0  0  0  2  0  0  0  0  0  0
  194.8510  178.3820  134.7920 C   0  0  0  0  0  3  0  0  0  0  0  0
  193.5160  178.4620  134.8470 C   0  0  0  0  0  3  0  0  0  0  0  0
  1 22  1  0  0  0  0
  1 20  1  0  0  0  0
  2 19  1  0  0  0  0
  3  4  1  6  0  0  0
  3 26  1  0  0  0  0
  3 12  1  0  0  0  0
  5 13  1  0  0  0  0
  5  4  1  1  0  0  0
  5  9  1  0  0  0  0
  6 20  1  0  0  0  0
  6 27  1  0  0  0  0
  8 30  1  1  0  0  0
  8 12  1  0  0  0  0
  9  2  1  1  0  0  0
 11 25  1  0  0  0  0
 12 39  1  1  0  0  0
 13  9  1  0  0  0  0
 13  8  1  0  0  0  0
 14 16  1  0  0  0  0
 15 16  1  0  0  0  0
 15 26  1  0  0  0  0
 16 23  1  0  0  0  0
 17 10  1  0  0  0  0
 19  9  1  0  0  0  0
 19  7  1  0  0  0  0
 20 27  1  0  0  0  0
 21 14  1  0  0  0  0
 22 11  1  0  0  0  0
 23 18  2  0  0  0  0
 23 10  1  0  0  0  0
 24 19  1  0  0  0  0
 25 21  1  0  0  0  0
 26 17  1  0  0  0  0
 27  5  1  0  0  0  0
 29 34  1  0  0  0  0
 29 28  1  0  0  0  0
 30 35  1  0  0  0  0
 31 33  1  0  0  0  0
 32 31  1  0  0  0  0
 32 30  1  0  0  0  0
 33 29  1  0  0  0  0
 35 29  1  0  0  0  0
 36 31  1  0  0  0  0
 37 36  1  0  0  0  0
 39 38  1  0  0  0  0
 40  1  1  0  0  0  0
 41 40  1  0  0  0  0
 43 44  1  0  0  0  0
 44 42  1  0  0  0  0
 44 41  1  0  0  0  0
 45 42  1  0  0  0  0
 46 47  2  0  0  0  0
 46 43  1  0  0  0  0
 47 45  1  0  0  0  0
M  END
>  <MODEL>
4

>  <REMARK>
 VINA RESULT:      -7.3      3.579      7.510
  Name = 
  6 active torsions:
  status: ('A' for Active; 'I' for Inactive)
    1  A    between atoms: N_2  and  C_18
    2  A    between atoms: C_5  and  C_15
    3  A    between atoms: C_9  and  C_16
    4  A    between atoms: C_18  and  C_24
    5  A    between atoms: C_19  and  C_24
    6  A    between atoms: C_23  and  O_33
                            x       y       z     vdW  Elec       q    Type
                         _______ _______ _______ _____ _____    ______ ____

>  <TORSDO>
F 6

$$$$
=
 OpenBabel11072409003D

 47 54  0  0  1  0  0  0  0  0999 V2000
  189.9680  176.1520  144.2840 N   0  0  0  0  0  0  0  0  0  0  0  0
  192.8410  174.5090  141.5720 C   0  0  0  0  0  2  0  0  0  0  0  0
  192.8260  171.3110  144.2960 C   0  0  1  0  0  3  0  0  0  0  0  0
  191.6000  172.2180  144.2650 C   0  0  0  0  0  2  0  0  0  0  0  0
  191.4580  173.0350  142.9690 C   0  0  1  0  0  0  0  0  0  0  0  0
  189.9100  175.0030  142.0140 C   0  0  0  0  0  2  0  0  0  0  0  0
  193.7840  173.3770  139.6960 O   0  0  0  0  0  1  0  0  0  0  0  0
  191.7250  170.6570  141.9970 C   0  0  1  0  0  3  0  0  0  0  0  0
  192.6220  173.0070  141.8890 C   0  0  2  0  0  0  0  0  0  0  0  0
  196.5720  172.1080  145.0150 C   0  0  0  0  0  2  0  0  0  0  0  0
  192.0460  176.8050  145.4550 C   0  0  0  0  0  2  0  0  0  0  0  0
  192.7800  170.3180  143.1050 C   0  0  1  0  0  3  0  0  0  0  0  0
  191.3610  172.1430  141.7730 C   0  0  2  0  0  3  0  0  0  0  0  0
  194.9500  175.2370  146.3910 O   0  0  0  0  0  0  0  0  0  0  0  0
  193.9230  173.3020  145.4190 C   0  0  0  0  0  2  0  0  0  0  0  0
  195.1360  174.2240  145.4370 C   0  0  2  0  0  3  0  0  0  0  0  0
  195.2770  171.2850  144.9580 C   0  0  0  0  0  2  0  0  0  0  0  0
  197.1900  173.7870  146.5590 O   0  0  0  0  0  0  0  0  0  0  0  0
  192.6330  173.5890  140.4520 C   0  0  0  0  0  0  0  0  0  0  0  0
  190.7080  175.3810  143.2570 C   0  0  2  0  0  3  0  0  0  0  0  0
  194.1690  176.2230  145.7700 C   0  0  0  0  0  2  0  0  0  0  0  0
  190.7330  176.0300  145.5240 C   0  0  0  0  0  2  0  0  0  0  0  0
  196.3560  173.3990  145.7570 C   0  0  0  0  0  0  0  0  0  0  0  0
  191.4570  173.8630  139.7430 O   0  0  0  0  0  1  0  0  0  0  0  0
  192.9290  176.3070  146.4130 O   0  0  0  0  0  0  0  0  0  0  0  0
  194.1240  172.1390  144.4410 C   0  0  1  0  0  3  0  0  0  0  0  0
  190.2190  173.9430  143.0710 C   0  0  2  0  0  3  0  0  0  0  0  0
  190.0690  168.1660  138.9170 C   0  0  0  0  0  1  0  0  0  0  0  0
  190.8780  169.4200  138.6180 C   0  0  0  0  0  0  0  0  0  0  0  0
  191.8750  169.9330  140.6560 C   0  0  2  0  0  3  0  0  0  0  0  0
  193.1230  170.0440  138.5310 C   0  0  2  0  0  3  0  0  0  0  0  0
  193.2540  170.1710  140.0420 C   0  0  0  0  0  2  0  0  0  0  0  0
  192.1900  169.0290  138.2150 O   0  0  0  0  0  0  0  0  0  0  0  0
  190.2050  170.1340  137.4570 C   0  0  0  0  0  1  0  0  0  0  0  0
  190.8480  170.2860  139.7530 O   0  0  0  0  0  0  0  0  0  0  0  0
  194.4780  169.6710  137.9500 C   0  0  0  0  0  2  0  0  0  0  0  0
  195.4800  170.4240  138.5600 O   0  0  0  0  0  1  0  0  0  0  0  0
  194.3100  168.8000  143.0000 F   0  0  0  0  0  0  0  0  0  0  0  0
  194.0580  170.0380  142.5940 O   0  0  0  0  0  0  0  0  0  0  0  0
  188.6270  175.6470  144.5820 C   0  0  0  0  0  2  0  0  0  0  0  0
  188.0930  176.2880  145.8470 C   0  0  0  0  0  2  0  0  0  0  0  0
  185.9680  177.1480  146.8790 C   0  0  0  0  0  2  0  0  0  0  0  0
  186.8580  178.1530  144.8330 N   0  0  0  0  0  2  0  0  0  0  0  0
  186.7280  176.8980  145.5760 C   0  0  1  0  0  3  0  0  0  0  0  0
  184.6080  177.7440  146.5230 C   0  0  0  0  0  2  0  0  0  0  0  0
  185.8260  179.1490  144.8810 C   0  0  0  0  0  3  0  0  0  0  0  0
  184.7660  178.9850  145.6830 C   0  0  0  0  0  3  0  0  0  0  0  0
  1 40  1  0  0  0  0
  1 22  1  0  0  0  0
  3  4  1  6  0  0  0
  3 26  1  0  0  0  0
  5 27  1  0  0  0  0
  5  4  1  1  0  0  0
  6 27  1  0  0  0  0
  6 20  1  0  0  0  0
  7 19  1  0  0  0  0
  8 30  1  6  0  0  0
  8 12  1  0  0  0  0
  9  2  1  1  0  0  0
  9  5  1  0  0  0  0
 10 23  1  0  0  0  0
 11 22  1  0  0  0  0
 11 25  1  0  0  0  0
 12 39  1  6  0  0  0
 12  3  1  0  0  0  0
 13  9  1  0  0  0  0
 13  8  1  0  0  0  0
 13  5  1  0  0  0  0
 15 16  1  0  0  0  0
 16 23  1  0  0  0  0
 16 14  1  0  0  0  0
 17 10  1  0  0  0  0
 19  2  1  0  0  0  0
 19  9  1  0  0  0  0
 20  1  1  0  0  0  0
 21 14  1  0  0  0  0
 21 25  1  0  0  0  0
 23 18  2  0  0  0  0
 24 19  1  0  0  0  0
 26 17  1  0  0  0  0
 26 15  1  0  0  0  0
 27 20  1  0  0  0  0
 29 28  1  0  0  0  0
 29 35  1  0  0  0  0
 31 32  1  0  0  0  0
 32 30  1  0  0  0  0
 33 31  1  0  0  0  0
 33 29  1  0  0  0  0
 34 29  1  0  0  0  0
 35 30  1  0  0  0  0
 36 31  1  0  0  0  0
 36 37  1  0  0  0  0
 39 38  1  0  0  0  0
 40 41  1  0  0  0  0
 43 46  1  0  0  0  0
 43 44  1  0  0  0  0
 44 41  1  0  0  0  0
 44 42  1  0  0  0  0
 45 42  1  0  0  0  0
 46 47  2  0  0  0  0
 47 45  1  0  0  0  0
M  END
>  <MODEL>
5

>  <REMARK>
 VINA RESULT:      -7.2      3.354      9.121
  Name = 
  6 active torsions:
  status: ('A' for Active; 'I' for Inactive)
    1  A    between atoms: N_2  and  C_18
    2  A    between atoms: C_5  and  C_15
    3  A    between atoms: C_9  and  C_16
    4  A    between atoms: C_18  and  C_24
    5  A    between atoms: C_19  and  C_24
    6  A    between atoms: C_23  and  O_33
                            x       y       z     vdW  Elec       q    Type
                         _______ _______ _______ _____ _____    ______ ____

>  <TORSDO>
F 6

$$$$
=
 OpenBabel11072409003D

 47 54  0  0  1  0  0  0  0  0999 V2000
  194.8060  175.9730  144.6780 N   0  0  0  0  0  0  0  0  0  0  0  0
  194.7580  173.2300  141.3940 C   0  0  0  0  0  2  0  0  0  0  0  0
  191.9270  171.2300  143.7670 C   0  0  1  0  0  3  0  0  0  0  0  0
  192.1360  172.7200  144.0210 C   0  0  0  0  0  2  0  0  0  0  0  0
  192.7930  173.4690  142.8490 C   0  0  1  0  0  0  0  0  0  0  0  0
  193.7840  175.9080  142.3480 C   0  0  0  0  0  2  0  0  0  0  0  0
  194.2290  172.2360  139.2910 O   0  0  0  0  0  1  0  0  0  0  0  0
  190.8400  172.3030  141.6250 C   0  0  1  0  0  3  0  0  0  0  0  0
  193.3330  172.6540  141.5970 C   0  0  2  0  0  0  0  0  0  0  0  0
  194.4170  168.2380  143.9460 C   0  0  0  0  0  2  0  0  0  0  0  0
  196.3670  174.2680  145.5550 C   0  0  0  0  0  2  0  0  0  0  0  0
  191.0420  171.0270  142.5100 C   0  0  1  0  0  3  0  0  0  0  0  0
  191.9710  173.3580  141.6050 C   0  0  2  0  0  3  0  0  0  0  0  0
  196.3770  170.8500  145.8570 O   0  0  0  0  0  0  0  0  0  0  0  0
  194.1920  171.0090  144.8830 C   0  0  0  0  0  2  0  0  0  0  0  0
  195.5830  170.3920  144.7930 C   0  0  2  0  0  3  0  0  0  0  0  0
  193.0750  168.9800  144.0200 C   0  0  0  0  0  2  0  0  0  0  0  0
  196.1770  168.2050  145.5220 O   0  0  0  0  0  0  0  0  0  0  0  0
  193.8580  173.1870  140.2390 C   0  0  0  0  0  0  0  0  0  0  0  0
  194.4910  175.1640  143.4760 C   0  0  2  0  0  3  0  0  0  0  0  0
  196.8720  172.1040  145.4670 C   0  0  0  0  0  2  0  0  0  0  0  0
  195.0570  175.0230  145.7610 C   0  0  0  0  0  2  0  0  0  0  0  0
  195.4410  168.8930  144.8320 C   0  0  0  0  0  0  0  0  0  0  0  0
  193.5400  174.4630  139.7590 O   0  0  0  0  0  1  0  0  0  0  0  0
  196.3470  173.0920  146.3060 O   0  0  0  0  0  0  0  0  0  0  0  0
  193.2740  170.4730  143.7790 C   0  0  1  0  0  3  0  0  0  0  0  0
  192.9950  174.9450  143.2360 C   0  0  2  0  0  3  0  0  0  0  0  0
  188.1910  173.4740  138.4540 C   0  0  0  0  0  1  0  0  0  0  0  0
  189.6450  173.0890  138.2160 C   0  0  0  0  0  0  0  0  0  0  0  0
  190.2850  172.0850  140.2140 C   0  0  2  0  0  3  0  0  0  0  0  0
  190.9020  171.1340  138.0230 C   0  0  2  0  0  3  0  0  0  0  0  0
  190.9580  170.8980  139.5250 C   0  0  0  0  0  2  0  0  0  0  0  0
  189.6830  171.7660  137.6820 O   0  0  0  0  0  0  0  0  0  0  0  0
  190.2090  174.0470  137.1790 C   0  0  0  0  0  1  0  0  0  0  0  0
  190.3840  173.2530  139.4260 O   0  0  0  0  0  0  0  0  0  0  0  0
  190.9810  169.7920  137.3110 C   0  0  0  0  0  2  0  0  0  0  0  0
  190.0660  168.9030  137.8720 O   0  0  0  0  0  1  0  0  0  0  0  0
  190.4410  169.0140  142.0130 F   0  0  0  0  0  0  0  0  0  0  0  0
  191.4110  169.8880  141.7750 O   0  0  0  0  0  0  0  0  0  0  0  0
  193.7170  176.8360  145.1390 C   0  0  0  0  0  2  0  0  0  0  0  0
  193.2480  176.4020  146.5120 C   0  0  0  0  0  2  0  0  0  0  0  0
  191.1420  177.1060  145.3340 C   0  0  0  0  0  2  0  0  0  0  0  0
  191.2010  175.0530  146.6640 N   0  0  0  0  0  2  0  0  0  0  0  0
  191.7300  176.4150  146.5640 C   0  0  1  0  0  3  0  0  0  0  0  0
  189.6210  177.0940  145.4680 C   0  0  0  0  0  2  0  0  0  0  0  0
  189.8650  174.7480  146.2390 C   0  0  0  0  0  3  0  0  0  0  0  0
  189.1100  175.6890  145.6590 C   0  0  0  0  0  3  0  0  0  0  0  0
  1 40  1  0  0  0  0
  1 22  1  0  0  0  0
  3 26  1  0  0  0  0
  3  4  1  6  0  0  0
  5 27  1  0  0  0  0
  5  4  1  1  0  0  0
  6 27  1  0  0  0  0
  6 20  1  0  0  0  0
  7 19  1  0  0  0  0
  8 30  1  6  0  0  0
  8 12  1  0  0  0  0
  9  2  1  1  0  0  0
  9 13  1  0  0  0  0
  9  5  1  0  0  0  0
 10 17  1  0  0  0  0
 10 23  1  0  0  0  0
 11 22  1  0  0  0  0
 11 25  1  0  0  0  0
 12 39  1  6  0  0  0
 12  3  1  0  0  0  0
 13  8  1  0  0  0  0
 13  5  1  0  0  0  0
 16 23  1  0  0  0  0
 16 15  1  0  0  0  0
 16 14  1  0  0  0  0
 19  2  1  0  0  0  0
 19  9  1  0  0  0  0
 20  1  1  0  0  0  0
 21 14  1  0  0  0  0
 21 25  1  0  0  0  0
 23 18  2  0  0  0  0
 24 19  1  0  0  0  0
 26 17  1  0  0  0  0
 26 15  1  0  0  0  0
 27 20  1  0  0  0  0
 29 28  1  0  0  0  0
 29 35  1  0  0  0  0
 31 32  1  0  0  0  0
 32 30  1  0  0  0  0
 33 31  1  0  0  0  0
 33 29  1  0  0  0  0
 34 29  1  0  0  0  0
 35 30  1  0  0  0  0
 36 37  1  0  0  0  0
 36 31  1  0  0  0  0
 39 38  1  0  0  0  0
 40 41  1  0  0  0  0
 41 44  1  0  0  0  0
 42 45  1  0  0  0  0
 42 44  1  0  0  0  0
 44 43  1  0  0  0  0
 45 47  1  0  0  0  0
 46 43  1  0  0  0  0
 47 46  2  0  0  0  0
M  END
>  <MODEL>
6

>  <REMARK>
 VINA RESULT:      -7.2      3.596      7.471
  Name = 
  6 active torsions:
  status: ('A' for Active; 'I' for Inactive)
    1  A    between atoms: N_2  and  C_18
    2  A    between atoms: C_5  and  C_15
    3  A    between atoms: C_9  and  C_16
    4  A    between atoms: C_18  and  C_24
    5  A    between atoms: C_19  and  C_24
    6  A    between atoms: C_23  and  O_33
                            x       y       z     vdW  Elec       q    Type
                         _______ _______ _______ _____ _____    ______ ____

>  <TORSDO>
F 6

$$$$
=
 OpenBabel11072409003D

 47 54  0  0  1  0  0  0  0  0999 V2000
  197.0950  174.1530  143.0110 N   0  0  0  0  0  0  0  0  0  0  0  0
  193.5200  176.4210  142.3870 C   0  0  0  0  0  2  0  0  0  0  0  0
  191.8290  172.6260  141.7650 C   0  0  1  0  0  3  0  0  0  0  0  0
  193.1130  172.7020  142.5860 C   0  0  0  0  0  2  0  0  0  0  0  0
  193.4010  174.0950  143.1700 C   0  0  1  0  0  0  0  0  0  0  0  0
  195.3850  175.3350  144.4790 C   0  0  0  0  0  2  0  0  0  0  0  0
  191.5160  177.6400  142.8200 O   0  0  0  0  0  1  0  0  0  0  0  0
  190.9820  173.7330  143.9970 C   0  0  1  0  0  3  0  0  0  0  0  0
  192.4870  175.3270  142.7580 C   0  0  2  0  0  0  0  0  0  0  0  0
  191.0720  173.7330  138.1060 C   0  0  0  0  0  2  0  0  0  0  0  0
  197.1160  174.2660  140.5410 C   0  0  0  0  0  2  0  0  0  0  0  0
  190.6170  173.0420  142.6380 C   0  0  1  0  0  3  0  0  0  0  0  0
  192.2940  174.5490  144.0650 C   0  0  2  0  0  3  0  0  0  0  0  0
  194.8540  173.7040  138.0230 O   0  0  0  0  0  0  0  0  0  0  0  0
  193.3760  173.1320  139.8200 C   0  0  0  0  0  2  0  0  0  0  0  0
  193.6050  174.0000  138.5890 C   0  0  2  0  0  3  0  0  0  0  0  0
  190.9480  172.9190  139.4010 C   0  0  0  0  0  2  0  0  0  0  0  0
  192.7190  173.5850  136.4180 O   0  0  0  0  0  0  0  0  0  0  0  0
  192.4650  176.7630  143.3420 C   0  0  0  0  0  0  0  0  0  0  0  0
  195.7730  174.8180  143.0980 C   0  0  2  0  0  3  0  0  0  0  0  0
  195.8010  174.4360  138.7560 C   0  0  0  0  0  2  0  0  0  0  0  0
  197.0830  173.3700  141.7760 C   0  0  0  0  0  2  0  0  0  0  0  0
  192.4920  173.7370  137.6080 C   0  0  0  0  0  0  0  0  0  0  0  0
  192.9680  177.0660  144.6130 O   0  0  0  0  0  1  0  0  0  0  0  0
  196.6440  173.5530  139.4380 O   0  0  0  0  0  0  0  0  0  0  0  0
  191.9870  173.3750  140.4210 C   0  0  1  0  0  3  0  0  0  0  0  0
  194.7370  174.0610  143.9340 C   0  0  2  0  0  3  0  0  0  0  0  0
  188.9400  174.7380  147.6380 C   0  0  0  0  0  1  0  0  0  0  0  0
  189.2630  175.7650  146.5620 C   0  0  0  0  0  0  0  0  0  0  0  0
  189.8520  174.4710  144.7210 C   0  0  2  0  0  3  0  0  0  0  0  0
  188.3890  176.4450  144.5100 C   0  0  2  0  0  3  0  0  0  0  0  0
  188.9930  175.2750  143.7470 C   0  0  0  0  0  2  0  0  0  0  0  0
  188.0700  176.0440  145.8280 O   0  0  0  0  0  0  0  0  0  0  0  0
  189.7110  177.0380  147.2620 C   0  0  0  0  0  1  0  0  0  0  0  0
  190.3450  175.2900  145.7610 O   0  0  0  0  0  0  0  0  0  0  0  0
  187.1150  176.8870  143.8050 C   0  0  0  0  0  2  0  0  0  0  0  0
  187.0680  178.2780  143.7390 O   0  0  0  0  0  1  0  0  0  0  0  0
  188.6830  172.8360  141.7020 F   0  0  0  0  0  0  0  0  0  0  0  0
  189.6400  173.7330  141.9030 O   0  0  0  0  0  0  0  0  0  0  0  0
  197.3760  173.2050  144.0910 C   0  0  0  0  0  2  0  0  0  0  0  0
  197.7150  171.8440  143.5190 C   0  0  0  0  0  2  0  0  0  0  0  0
  196.8150  171.1910  145.7740 C   0  0  0  0  0  2  0  0  0  0  0  0
  195.7140  170.4330  143.7240 N   0  0  0  0  0  2  0  0  0  0  0  0
  197.0110  170.7610  144.3200 C   0  0  1  0  0  3  0  0  0  0  0  0
  196.1210  170.0490  146.5130 C   0  0  0  0  0  2  0  0  0  0  0  0
  194.6690  169.8450  144.5110 C   0  0  0  0  0  3  0  0  0  0  0  0
  194.8320  169.6710  145.8290 C   0  0  0  0  0  3  0  0  0  0  0  0
  1 20  1  0  0  0  0
  1 40  1  0  0  0  0
  2 19  1  0  0  0  0
  3  4  1  1  0  0  0
  3 12  1  0  0  0  0
  5  4  1  6  0  0  0
  5 27  1  0  0  0  0
  5 13  1  0  0  0  0
  7 19  1  0  0  0  0
  8 13  1  0  0  0  0
  8 30  1  6  0  0  0
  9  2  1  6  0  0  0
  9  5  1  0  0  0  0
  9 19  1  0  0  0  0
  9 13  1  0  0  0  0
 10 17  1  0  0  0  0
 11 22  1  0  0  0  0
 12 39  1  6  0  0  0
 12  8  1  0  0  0  0
 14 16  1  0  0  0  0
 14 21  1  0  0  0  0
 15 26  1  0  0  0  0
 16 15  1  0  0  0  0
 17 26  1  0  0  0  0
 18 23  2  0  0  0  0
 19 24  1  0  0  0  0
 20 27  1  0  0  0  0
 20  6  1  0  0  0  0
 21 25  1  0  0  0  0
 22  1  1  0  0  0  0
 23 10  1  0  0  0  0
 23 16  1  0  0  0  0
 25 11  1  0  0  0  0
 26  3  1  0  0  0  0
 27  6  1  0  0  0  0
 29 34  1  0  0  0  0
 29 28  1  0  0  0  0
 30 35  1  0  0  0  0
 31 33  1  0  0  0  0
 32 31  1  0  0  0  0
 32 30  1  0  0  0  0
 33 29  1  0  0  0  0
 35 29  1  0  0  0  0
 36 31  1  0  0  0  0
 37 36  1  0  0  0  0
 38 39  1  0  0  0  0
 41 40  1  0  0  0  0
 41 44  1  0  0  0  0
 42 45  1  0  0  0  0
 43 44  1  0  0  0  0
 43 46  1  0  0  0  0
 44 42  1  0  0  0  0
 46 47  2  0  0  0  0
 47 45  1  0  0  0  0
M  END
>  <MODEL>
7

>  <REMARK>
 VINA RESULT:      -7.1      1.880      2.855
  Name = 
  6 active torsions:
  status: ('A' for Active; 'I' for Inactive)
    1  A    between atoms: N_2  and  C_18
    2  A    between atoms: C_5  and  C_15
    3  A    between atoms: C_9  and  C_16
    4  A    between atoms: C_18  and  C_24
    5  A    between atoms: C_19  and  C_24
    6  A    between atoms: C_23  and  O_33
                            x       y       z     vdW  Elec       q    Type
                         _______ _______ _______ _____ _____    ______ ____

>  <TORSDO>
F 6

$$$$
=
 OpenBabel11072409003D

 47 54  0  0  1  0  0  0  0  0999 V2000
  192.3450  170.8120  140.0020 N   0  0  0  0  0  0  0  0  0  0  0  0
  190.9250  172.3340  143.7410 C   0  0  0  0  0  2  0  0  0  0  0  0
  193.3020  175.6430  142.7160 C   0  0  1  0  0  3  0  0  0  0  0  0
  192.8240  174.7380  141.5840 C   0  0  0  0  0  2  0  0  0  0  0  0
  191.6090  173.8690  141.9480 C   0  0  1  0  0  0  0  0  0  0  0  0
  190.1950  171.8670  140.8630 C   0  0  0  0  0  2  0  0  0  0  0  0
  189.5320  173.3840  145.3670 O   0  0  0  0  0  1  0  0  0  0  0  0
  190.7330  176.2030  142.6200 C   0  0  1  0  0  3  0  0  0  0  0  0
  191.0740  173.8480  143.4430 C   0  0  2  0  0  0  0  0  0  0  0  0
  195.4680  174.8660  145.8600 C   0  0  0  0  0  2  0  0  0  0  0  0
  194.2630  170.2030  141.4390 C   0  0  0  0  0  2  0  0  0  0  0  0
  192.1530  176.5850  143.1610 C   0  0  1  0  0  3  0  0  0  0  0  0
  190.4390  174.7100  142.3460 C   0  0  2  0  0  3  0  0  0  0  0  0
  196.2090  171.8010  143.7700 O   0  0  0  0  0  0  0  0  0  0  0  0
  194.8390  173.6970  143.2440 C   0  0  0  0  0  2  0  0  0  0  0  0
  195.3680  172.7730  144.3350 C   0  0  2  0  0  3  0  0  0  0  0  0
  194.8750  175.6890  144.7090 C   0  0  0  0  0  2  0  0  0  0  0  0
  197.1910  173.2510  145.7900 O   0  0  0  0  0  0  0  0  0  0  0  0
  189.7800  173.2070  144.0070 C   0  0  0  0  0  0  0  0  0  0  0  0
  191.6650  171.5380  141.1010 C   0  0  2  0  0  3  0  0  0  0  0  0
  195.3680  170.7920  143.2770 C   0  0  0  0  0  2  0  0  0  0  0  0
  193.7810  170.9840  140.2190 C   0  0  0  0  0  2  0  0  0  0  0  0
  196.1120  173.6080  145.3450 C   0  0  0  0  0  0  0  0  0  0  0  0
  188.6760  172.9070  143.2010 O   0  0  0  0  0  1  0  0  0  0  0  0
  195.4730  170.7390  141.8830 O   0  0  0  0  0  0  0  0  0  0  0  0
  193.9770  174.8180  143.8350 C   0  0  1  0  0  3  0  0  0  0  0  0
  191.2480  172.9690  140.7510 C   0  0  2  0  0  3  0  0  0  0  0  0
  187.0780  178.4400  142.3400 C   0  0  0  0  0  1  0  0  0  0  0  0
  187.2350  177.2240  143.2430 C   0  0  0  0  0  0  0  0  0  0  0  0
  189.5330  176.8710  143.3000 C   0  0  2  0  0  3  0  0  0  0  0  0
  188.1450  176.7340  145.3340 C   0  0  2  0  0  3  0  0  0  0  0  0
  189.5750  176.6870  144.8160 C   0  0  0  0  0  2  0  0  0  0  0  0
  187.3960  177.6750  144.5880 O   0  0  0  0  0  0  0  0  0  0  0  0
  185.9500  176.4170  143.1530 C   0  0  0  0  0  1  0  0  0  0  0  0
  188.3090  176.4130  142.7660 O   0  0  0  0  0  0  0  0  0  0  0  0
  188.1650  177.1620  146.7940 C   0  0  0  0  0  2  0  0  0  0  0  0
  186.8640  177.3990  147.2360 O   0  0  0  0  0  1  0  0  0  0  0  0
  192.5940  178.0970  144.6370 F   0  0  0  0  0  0  0  0  0  0  0  0
  192.1770  176.8400  144.5410 O   0  0  0  0  0  0  0  0  0  0  0  0
  192.0720  171.3340  138.6620 C   0  0  0  0  0  2  0  0  0  0  0  0
  193.3680  171.5480  137.9070 C   0  0  0  0  0  2  0  0  0  0  0  0
  191.9230  173.5040  137.2700 C   0  0  0  0  0  2  0  0  0  0  0  0
  194.3480  173.7580  137.4750 N   0  0  0  0  0  2  0  0  0  0  0  0
  193.2830  172.8290  137.0930 C   0  0  1  0  0  3  0  0  0  0  0  0
  191.9100  174.7670  136.4120 C   0  0  0  0  0  2  0  0  0  0  0  0
  194.2120  175.1680  137.2460 C   0  0  0  0  0  3  0  0  0  0  0  0
  193.0670  175.6670  136.7620 C   0  0  0  0  0  3  0  0  0  0  0  0
  1 22  1  0  0  0  0
  1 20  1  0  0  0  0
  2 19  1  0  0  0  0
  3  4  1  6  0  0  0
  3 12  1  0  0  0  0
  3 26  1  0  0  0  0
  5  4  1  6  0  0  0
  5 13  1  0  0  0  0
  5  9  1  0  0  0  0
  6 20  1  0  0  0  0
  8 12  1  0  0  0  0
  8 30  1  1  0  0  0
  9  2  1  1  0  0  0
  9 19  1  0  0  0  0
 11 25  1  0  0  0  0
 12 39  1  1  0  0  0
 13  8  1  0  0  0  0
 13  9  1  0  0  0  0
 14 16  1  0  0  0  0
 15 26  1  0  0  0  0
 15 16  1  0  0  0  0
 16 23  1  0  0  0  0
 17 10  1  0  0  0  0
 19  7  1  0  0  0  0
 21 14  1  0  0  0  0
 22 11  1  0  0  0  0
 23 18  2  0  0  0  0
 23 10  1  0  0  0  0
 24 19  1  0  0  0  0
 25 21  1  0  0  0  0
 26 17  1  0  0  0  0
 27  6  1  0  0  0  0
 27 20  1  0  0  0  0
 27  5  1  0  0  0  0
 28 29  1  0  0  0  0
 29 33  1  0  0  0  0
 30 32  1  0  0  0  0
 31 36  1  0  0  0  0
 32 31  1  0  0  0  0
 33 31  1  0  0  0  0
 34 29  1  0  0  0  0
 35 29  1  0  0  0  0
 35 30  1  0  0  0  0
 36 37  1  0  0  0  0
 39 38  1  0  0  0  0
 40  1  1  0  0  0  0
 41 40  1  0  0  0  0
 44 42  1  0  0  0  0
 44 43  1  0  0  0  0
 44 41  1  0  0  0  0
 45 47  1  0  0  0  0
 45 42  1  0  0  0  0
 46 43  1  0  0  0  0
 47 46  2  0  0  0  0
M  END
>  <MODEL>
8

>  <REMARK>
 VINA RESULT:      -7.1      2.844      6.246
  Name = 
  6 active torsions:
  status: ('A' for Active; 'I' for Inactive)
    1  A    between atoms: N_2  and  C_18
    2  A    between atoms: C_5  and  C_15
    3  A    between atoms: C_9  and  C_16
    4  A    between atoms: C_18  and  C_24
    5  A    between atoms: C_19  and  C_24
    6  A    between atoms: C_23  and  O_33
                            x       y       z     vdW  Elec       q    Type
                         _______ _______ _______ _____ _____    ______ ____

>  <TORSDO>
F 6

$$$$
=
 OpenBabel11072409003D

 47 54  0  0  1  0  0  0  0  0999 V2000
  193.4130  172.8370  138.8880 N   0  0  0  0  0  0  0  0  0  0  0  0
  191.8090  172.1780  142.8000 C   0  0  0  0  0  2  0  0  0  0  0  0
  193.2400  176.0680  143.4860 C   0  0  1  0  0  3  0  0  0  0  0  0
  192.9580  175.6620  142.0420 C   0  0  0  0  0  2  0  0  0  0  0  0
  192.0150  174.4560  141.9030 C   0  0  1  0  0  0  0  0  0  0  0  0
  191.1040  172.8530  139.9580 C   0  0  0  0  0  2  0  0  0  0  0  0
  190.2640  172.0400  144.6120 O   0  0  0  0  0  1  0  0  0  0  0  0
  190.6110  175.9730  143.4510 C   0  0  1  0  0  3  0  0  0  0  0  0
  191.5620  173.6560  143.1980 C   0  0  2  0  0  0  0  0  0  0  0  0
  195.6560  174.5460  146.1380 C   0  0  0  0  0  2  0  0  0  0  0  0
  195.4790  172.1450  140.0590 C   0  0  0  0  0  2  0  0  0  0  0  0
  191.9110  176.4110  144.2080 C   0  0  1  0  0  3  0  0  0  0  0  0
  190.6890  174.7280  142.5370 C   0  0  2  0  0  3  0  0  0  0  0  0
  197.0550  172.9830  142.9890 O   0  0  0  0  0  0  0  0  0  0  0  0
  195.2350  174.5230  143.2340 C   0  0  0  0  0  2  0  0  0  0  0  0
  196.0220  173.3740  143.8540 C   0  0  2  0  0  3  0  0  0  0  0  0
  194.8300  175.6180  145.4140 C   0  0  0  0  0  2  0  0  0  0  0  0
  197.7240  173.5940  145.5040 O   0  0  0  0  0  0  0  0  0  0  0  0
  190.4940  172.5410  143.3320 C   0  0  0  0  0  0  0  0  0  0  0  0
  192.6180  172.8200  140.1390 C   0  0  2  0  0  3  0  0  0  0  0  0
  196.4740  172.1200  142.0470 C   0  0  0  0  0  2  0  0  0  0  0  0
  194.7680  173.2380  139.2650 C   0  0  0  0  0  2  0  0  0  0  0  0
  196.5730  173.8360  145.1790 C   0  0  0  0  0  0  0  0  0  0  0  0
  189.4690  172.3660  142.3950 O   0  0  0  0  0  1  0  0  0  0  0  0
  196.5330  172.7080  140.7800 O   0  0  0  0  0  0  0  0  0  0  0  0
  194.1450  175.0270  144.1860 C   0  0  1  0  0  3  0  0  0  0  0  0
  191.8430  174.1120  140.4120 C   0  0  2  0  0  3  0  0  0  0  0  0
  188.5660  175.4070  147.1840 C   0  0  0  0  0  1  0  0  0  0  0  0
  188.2740  176.5750  146.2520 C   0  0  0  0  0  0  0  0  0  0  0  0
  189.3110  175.9640  144.2610 C   0  0  2  0  0  3  0  0  0  0  0  0
  187.0560  176.9620  144.3030 C   0  0  2  0  0  3  0  0  0  0  0  0
  188.1090  176.3430  143.3960 C   0  0  0  0  0  2  0  0  0  0  0  0
  187.0570  176.3070  145.5570 O   0  0  0  0  0  0  0  0  0  0  0  0
  188.0790  177.8120  147.1140 C   0  0  0  0  0  1  0  0  0  0  0  0
  189.3990  176.7950  145.4000 O   0  0  0  0  0  0  0  0  0  0  0  0
  185.6890  176.7910  143.6560 C   0  0  0  0  0  2  0  0  0  0  0  0
  184.8460  177.8300  144.0460 O   0  0  0  0  0  1  0  0  0  0  0  0
  192.2050  177.1580  146.2110 F   0  0  0  0  0  0  0  0  0  0  0  0
  191.9260  176.0360  145.5610 O   0  0  0  0  0  0  0  0  0  0  0  0
  192.9650  173.8080  137.8880 C   0  0  0  0  0  2  0  0  0  0  0  0
  193.2270  173.2820  136.4920 C   0  0  0  0  0  2  0  0  0  0  0  0
  191.7880  171.2500  136.1430 C   0  0  0  0  0  2  0  0  0  0  0  0
  190.7770  173.4580  136.4430 N   0  0  0  0  0  2  0  0  0  0  0  0
  191.9350  172.7500  135.8930 C   0  0  1  0  0  3  0  0  0  0  0  0
  190.4820  170.7910  135.5000 C   0  0  0  0  0  2  0  0  0  0  0  0
  189.4760  172.8540  136.4410 C   0  0  0  0  0  3  0  0  0  0  0  0
  189.3160  171.5940  136.0170 C   0  0  0  0  0  3  0  0  0  0  0  0
  1 22  1  0  0  0  0
  1 20  1  0  0  0  0
  2 19  1  0  0  0  0
  3  4  1  6  0  0  0
  3 26  1  0  0  0  0
  3 12  1  0  0  0  0
  5  4  1  1  0  0  0
  5 13  1  0  0  0  0
  5  9  1  0  0  0  0
  6 20  1  0  0  0  0
  6 27  1  0  0  0  0
  8 12  1  0  0  0  0
  8 30  1  1  0  0  0
  9  2  1  1  0  0  0
  9 19  1  0  0  0  0
 11 25  1  0  0  0  0
 12 39  1  1  0  0  0
 13  9  1  0  0  0  0
 13  8  1  0  0  0  0
 14 16  1  0  0  0  0
 15 16  1  0  0  0  0
 15 26  1  0  0  0  0
 16 23  1  0  0  0  0
 17 10  1  0  0  0  0
 19  7  1  0  0  0  0
 20 27  1  0  0  0  0
 21 14  1  0  0  0  0
 22 11  1  0  0  0  0
 23 18  2  0  0  0  0
 23 10  1  0  0  0  0
 24 19  1  0  0  0  0
 25 21  1  0  0  0  0
 26 17  1  0  0  0  0
 27  5  1  0  0  0  0
 29 34  1  0  0  0  0
 29 28  1  0  0  0  0
 30 35  1  0  0  0  0
 31 33  1  0  0  0  0
 32 30  1  0  0  0  0
 32 31  1  0  0  0  0
 33 29  1  0  0  0  0
 35 29  1  0  0  0  0
 36 37  1  0  0  0  0
 36 31  1  0  0  0  0
 39 38  1  0  0  0  0
 40  1  1  0  0  0  0
 41 40  1  0  0  0  0
 44 42  1  0  0  0  0
 44 43  1  0  0  0  0
 44 41  1  0  0  0  0
 45 47  1  0  0  0  0
 45 42  1  0  0  0  0
 46 43  1  0  0  0  0
 47 46  2  0  0  0  0
M  END
>  <MODEL>
9

>  <REMARK>
 VINA RESULT:      -7.0      3.160      6.701
  Name = 
  6 active torsions:
  status: ('A' for Active; 'I' for Inactive)
    1  A    between atoms: N_2  and  C_18
    2  A    between atoms: C_5  and  C_15
    3  A    between atoms: C_9  and  C_16
    4  A    between atoms: C_18  and  C_24
    5  A    between atoms: C_19  and  C_24
    6  A    between atoms: C_23  and  O_33
                            x       y       z     vdW  Elec       q    Type
                         _______ _______ _______ _____ _____    ______ ____

>  <TORSDO>
F 6

$$$$
